x0072-x0689
     RDKit          3D

 29 32  0  0  0  0  0  0  0  0999 V2000
    7.2440   -3.4880   19.9350 C   0  0  0  0  0  0  0  0  0  0  0  0
    5.2600   -4.4800   19.8770 O   0  0  0  0  0  0  0  0  0  0  0  0
    6.3650   -4.3790   20.4170 C   0  0  0  0  0  0  0  0  0  0  0  0
    4.5050   -6.3860   26.0640 O   0  0  0  0  0  0  0  0  0  0  0  0
    6.0220   -4.1810   26.4660 N   0  0  0  0  0  0  0  0  0  0  0  0
    5.0020   -5.1450   25.5000 S   0  0  1  0  0  0  0  0  0  0  0  0
    7.5470   -4.4150   26.2710 S   0  0  0  0  0  0  0  0  0  0  0  0
    8.0810   -5.7550   26.0810 O   0  0  0  0  0  0  0  0  0  0  0  0
    8.3630   -3.5150   27.0580 O   0  0  0  0  0  0  0  0  0  0  0  0
    7.7250   -3.7630   24.6810 N   0  0  0  0  0  0  0  0  0  0  0  0
    8.9800   -3.2420   24.2560 C   0  0  0  0  0  0  0  0  0  0  0  0
    9.0490   -2.0940   23.4400 C   0  0  0  0  0  0  0  0  0  0  0  0
    6.7040   -5.1860   21.5210 N   0  0  0  0  0  0  0  0  0  0  0  0
    5.8340   -6.0970   21.9880 C   0  0  0  0  0  0  0  0  0  0  0  0
    4.8510   -5.6610   22.8590 C   0  0  0  0  0  0  0  0  0  0  0  0
    5.7260   -5.2510   23.9990 N   0  0  0  0  0  0  0  0  0  0  0  0
    6.7330   -4.2160   23.6660 C   0  0  2  0  0  0  0  0  0  0  0  0
    7.4120   -4.7230   22.5480 C   0  0  0  0  0  0  0  0  0  0  0  0
    4.1280   -2.1600   26.0710 S   0  0  0  0  0  0  0  0  0  0  0  0
    3.8020   -3.8090   25.6300 C   0  0  0  0  0  0  0  0  0  0  0  0
    2.4700   -3.9940   25.3680 C   0  0  0  0  0  0  0  0  0  0  0  0
    1.6430   -2.7520   25.5260 C   0  0  0  0  0  0  0  0  0  0  0  0
    2.4690   -1.7030   25.9080 C   0  0  0  0  0  0  0  0  0  0  0  0
   10.4280   -1.4690   23.3240 C   0  0  0  0  0  0  0  0  0  0  0  0
   11.3730   -1.9990   22.4300 C   0  0  0  0  0  0  0  0  0  0  0  0
   12.6480   -1.4450   22.2880 C   0  0  0  0  0  0  0  0  0  0  0  0
   12.9870   -0.3410   23.0430 C   0  0  0  0  0  0  0  0  0  0  0  0
   12.0080    0.2680   24.0210 C   0  0  0  0  0  0  0  0  0  0  0  0
   10.7410   -0.3190   24.1400 C   0  0  0  0  0  0  0  0  0  0  0  0
  1  3  1  0
  2  3  2  0
  4  6  2  0
  5  6  2  0
  7  5  1  0
  7  8  2  0
  7  9  2  0
  7 10  1  0
 10 11  1  0
 11 12  1  0
  3 13  1  0
 13 14  1  0
 14 15  1  0
  6 16  1  0
 15 16  1  0
 10 17  1  0
 16 17  1  0
 13 18  1  0
 17 18  1  6
  6 20  1  6
 19 20  1  0
 20 21  2  0
 21 22  1  0
 19 23  1  0
 22 23  2  0
 12 24  1  0
 24 25  2  0
 25 26  1  0
 26 27  2  0
 27 28  1  0
 24 29  1  0
 28 29  2  0
M  END
