x0072-x0771
     RDKit          3D

 32 35  0  0  0  0  0  0  0  0999 V2000
    0.4930   -1.6470   26.1840 C   0  0  0  0  0  0  0  0  0  0  0  0
    4.7710   -6.7860   25.8980 O   0  0  0  0  0  0  0  0  0  0  0  0
    6.5170   -4.7560   26.7140 N   0  0  0  0  0  0  0  0  0  0  0  0
    5.2330   -4.3970   19.8490 O   0  0  0  0  0  0  0  0  0  0  0  0
    2.3290   -6.1240   25.0480 C   0  0  0  0  0  0  0  0  0  0  0  0
    6.3430   -4.2710   20.3660 C   0  0  0  0  0  0  0  0  0  0  0  0
    7.3170   -3.2940   19.7000 C   0  0  0  0  0  0  0  0  0  0  0  0
    5.3070   -5.4530   25.7360 S   0  0  2  0  0  0  0  0  0  0  0  0
    7.9740   -4.6840   26.2300 S   0  0  0  0  0  0  0  0  0  0  0  0
    8.6430   -5.8670   25.7270 O   0  0  0  0  0  0  0  0  0  0  0  0
    8.7630   -3.8100   27.0830 O   0  0  0  0  0  0  0  0  0  0  0  0
    7.8420   -3.7110   24.8050 N   0  0  0  0  0  0  0  0  0  0  0  0
    9.2160   -3.4360   24.2150 C   0  0  0  0  0  0  0  0  0  0  0  0
    9.1260   -2.1620   23.6500 C   0  0  0  0  0  0  0  0  0  0  0  0
    1.6990   -2.5300   26.0750 C   0  0  0  0  0  0  0  0  0  0  0  0
    1.5850   -3.8490   25.6420 C   0  0  0  0  0  0  0  0  0  0  0  0
    2.6500   -4.7320   25.5270 C   0  0  0  0  0  0  0  0  0  0  0  0
    3.9350   -4.3070   25.8580 C   0  0  0  0  0  0  0  0  0  0  0  0
    4.0880   -2.8480   26.3310 C   0  0  0  0  0  0  0  0  0  0  0  0
    2.9450   -2.0390   26.4110 C   0  0  0  0  0  0  0  0  0  0  0  0
    6.7180   -5.0210   21.4950 N   0  0  0  0  0  0  0  0  0  0  0  0
    5.9880   -6.0380   21.9440 C   0  0  0  0  0  0  0  0  0  0  0  0
    5.1790   -5.8520   23.0540 C   0  0  0  0  0  0  0  0  0  0  0  0
    5.9660   -5.2890   24.1940 N   0  0  0  0  0  0  0  0  0  0  0  0
    6.7670   -4.1030   23.8400 C   0  0  2  0  0  0  0  0  0  0  0  0
    7.4150   -4.3760   22.6220 C   0  0  0  0  0  0  0  0  0  0  0  0
   10.4750   -1.4780   23.4250 C   0  0  0  0  0  0  0  0  0  0  0  0
   11.4350   -1.9620   22.5510 C   0  0  0  0  0  0  0  0  0  0  0  0
   12.6500   -1.3680   22.3280 C   0  0  0  0  0  0  0  0  0  0  0  0
   13.0230   -0.2000   22.9750 C   0  0  0  0  0  0  0  0  0  0  0  0
   12.1350    0.4040   23.8980 C   0  0  0  0  0  0  0  0  0  0  0  0
   10.8560   -0.1790   24.1700 C   0  0  0  0  0  0  0  0  0  0  0  0
  4  6  2  0
  6  7  1  0
  2  8  2  0
  3  8  2  0
  9  3  1  0
  9 10  2  0
  9 11  2  0
  9 12  1  0
 12 13  1  0
 13 14  1  0
  1 15  1  0
 15 16  2  0
  5 17  1  0
 16 17  1  0
  8 18  1  6
 17 18  2  0
 18 19  1  0
 15 20  1  0
 19 20  2  0
  6 21  1  0
 21 22  1  0
 22 23  1  0
  8 24  1  0
 23 24  1  0
 12 25  1  0
 24 25  1  0
 21 26  1  0
 25 26  1  6
 14 27  1  0
 27 28  2  0
 28 29  1  0
 29 30  2  0
 30 31  1  0
 27 32  1  0
 31 32  2  0
M  END
