x0072-x1249
     RDKit          3D

 25 26  0  0  0  0  0  0  0  0999 V2000
    6.3280   -5.3200   26.2230 C   0  0  0  0  0  0  0  0  0  0  0  0
    8.0760   -4.6020   26.0890 S   0  0  0  0  0  0  0  0  0  0  0  0
    8.9910   -5.7140   26.1510 O   0  0  0  0  0  0  0  0  0  0  0  0
    8.1470   -3.6370   27.1560 O   0  0  0  0  0  0  0  0  0  0  0  0
    7.9660   -3.6810   24.6810 N   0  0  0  0  0  0  0  0  0  0  0  0
    9.1990   -2.9540   24.3400 C   0  0  0  0  0  0  0  0  0  0  0  0
    9.1510   -1.8840   23.2360 C   0  0  0  0  0  0  0  0  0  0  0  0
    8.2090    0.1780   24.6560 N   0  0  0  0  0  0  0  0  0  0  0  0
    7.5650    1.1850   24.0050 C   0  0  0  0  0  0  0  0  0  0  0  0
    8.1290    2.2310   23.6570 O   0  0  0  0  0  0  0  0  0  0  0  0
    9.5830    0.6610   24.9580 C   0  0  0  0  0  0  0  0  0  0  0  0
   13.5060   -2.3000   20.7860 N   0  0  0  0  0  0  0  0  0  0  0  0
   12.4550   -2.0830   21.5320 C   0  0  0  0  0  0  0  0  0  0  0  0
   10.4700   -1.0760   23.2280 C   0  0  0  0  0  0  0  0  0  0  0  0
   11.3480   -1.7580   22.3000 C   0  0  0  0  0  0  0  0  0  0  0  0
   12.4850   -0.9230   22.4090 C   0  0  0  0  0  0  0  0  0  0  0  0
   12.7770    0.1790   23.1050 C   0  0  0  0  0  0  0  0  0  0  0  0
   11.8060    0.7900   24.0080 C   0  0  0  0  0  0  0  0  0  0  0  0
   10.6350    0.0900   24.0320 C   0  0  0  0  0  0  0  0  0  0  0  0
    3.5120    0.9720   23.6060 O   0  0  0  0  0  0  0  0  0  0  0  0
    4.3060    1.0170   22.4100 C   0  0  0  0  0  0  0  0  0  0  0  0
    5.5160    1.6590   22.6660 C   0  0  0  0  0  0  0  0  0  0  0  0
    6.2330    0.9340   23.7530 N   0  0  0  0  0  0  0  0  0  0  0  0
    5.4570    0.8730   24.9930 C   0  0  0  0  0  0  0  0  0  0  0  0
    4.1830    0.3410   24.7050 C   0  0  0  0  0  0  0  0  0  0  0  0
  1  2  1  0
  2  3  2  0
  2  4  2  0
  2  5  1  0
  5  6  1  0
  6  7  1  0
  8  9  1  0
  9 10  2  0
  8 11  1  0
 12 13  3  0
  7 14  1  0
 13 15  1  0
 14 15  2  0
 15 16  1  0
 16 17  2  0
 17 18  1  0
 11 19  1  0
 14 19  1  0
 18 19  2  0
 20 21  1  0
 21 22  1  0
  9 23  1  0
 22 23  1  0
 23 24  1  0
 20 25  1  0
 24 25  1  0
M  END
