x0072-x1402
     RDKit          3D

 30 33  0  0  0  0  0  0  0  0999 V2000
    7.2920   -3.5610   20.0520 C   0  0  0  0  0  0  0  0  0  0  0  0
    5.3500   -4.6170   19.9400 O   0  0  0  0  0  0  0  0  0  0  0  0
    0.8270   -1.3490   26.2760 Cl  0  0  0  0  0  0  0  0  0  0  0  0
    6.4430   -4.4960   20.5060 C   0  0  0  0  0  0  0  0  0  0  0  0
    4.6720   -6.4970   26.1790 O   0  0  0  0  0  0  0  0  0  0  0  0
    6.3650   -4.4440   26.6480 N   0  0  0  0  0  0  0  0  0  0  0  0
    5.2820   -5.2880   25.6580 S   0  0  1  0  0  0  0  0  0  0  0  0
    7.8480   -4.5680   26.2520 S   0  0  0  0  0  0  0  0  0  0  0  0
    8.4240   -5.8640   25.9460 O   0  0  0  0  0  0  0  0  0  0  0  0
    8.6890   -3.6610   27.0080 O   0  0  0  0  0  0  0  0  0  0  0  0
    7.8360   -3.8200   24.6890 N   0  0  0  0  0  0  0  0  0  0  0  0
    9.0480   -3.3070   24.1600 C   0  0  0  0  0  0  0  0  0  0  0  0
    9.0670   -2.1130   23.4140 C   0  0  0  0  0  0  0  0  0  0  0  0
    6.7810   -5.3370   21.5920 N   0  0  0  0  0  0  0  0  0  0  0  0
    7.5360   -4.9510   22.6530 C   0  0  0  0  0  0  0  0  0  0  0  0
    6.9270   -4.2790   23.7150 C   0  0  1  0  0  0  0  0  0  0  0  0
    5.9920   -5.3830   24.1560 N   0  0  0  0  0  0  0  0  0  0  0  0
    5.1180   -5.9170   23.1090 C   0  0  0  0  0  0  0  0  0  0  0  0
    5.9180   -6.2430   22.0200 C   0  0  0  0  0  0  0  0  0  0  0  0
    2.5250   -3.8800   25.8570 S   0  0  0  0  0  0  0  0  0  0  0  0
    4.2610   -3.8360   25.8990 C   0  0  0  0  0  0  0  0  0  0  0  0
    4.7160   -2.5750   26.1240 C   0  0  0  0  0  0  0  0  0  0  0  0
    3.6120   -1.5690   26.2760 C   0  0  0  0  0  0  0  0  0  0  0  0
    2.3670   -2.1850   26.1490 C   0  0  0  0  0  0  0  0  0  0  0  0
   10.4310   -1.4710   23.3050 C   0  0  0  0  0  0  0  0  0  0  0  0
   11.4070   -1.9700   22.4300 C   0  0  0  0  0  0  0  0  0  0  0  0
   12.6710   -1.4030   22.2880 C   0  0  0  0  0  0  0  0  0  0  0  0
   13.0400   -0.2850   23.0180 C   0  0  0  0  0  0  0  0  0  0  0  0
   12.0060    0.2770   23.9780 C   0  0  0  0  0  0  0  0  0  0  0  0
   10.7480   -0.3150   24.1030 C   0  0  0  0  0  0  0  0  0  0  0  0
  1  4  1  0
  2  4  2  0
  5  7  2  0
  6  7  2  0
  8  6  1  0
  8  9  2  0
  8 10  2  0
  8 11  1  0
 11 12  1  0
 12 13  1  0
  4 14  1  0
 14 15  1  0
 11 16  1  0
 16 15  1  6
  7 17  1  0
 16 17  1  0
 17 18  1  0
 14 19  1  0
 18 19  1  0
  7 21  1  6
 20 21  1  0
 21 22  2  0
 22 23  1  0
  3 24  1  0
 20 24  1  0
 23 24  2  0
 13 25  1  0
 25 26  2  0
 26 27  1  0
 27 28  2  0
 28 29  1  0
 25 30  1  0
 29 30  2  0
M  END
