x0072-x1351
     RDKit          3D

 30 33  0  0  0  0  0  0  0  0999 V2000
    6.9050   -3.3000   19.3980 C   0  0  0  0  0  0  0  0  0  0  0  0
    5.1560   -4.5960   19.8600 O   0  0  0  0  0  0  0  0  0  0  0  0
    6.1670   -4.0240   20.2480 C   0  0  0  0  0  0  0  0  0  0  0  0
    5.6700   -2.5730   25.2560 N   0  0  0  0  0  0  0  0  0  0  0  0
    7.6370   -2.9730   26.5670 C   0  0  0  0  0  0  0  0  0  0  0  0
    6.6100   -2.1160   26.3280 C   0  0  0  0  0  0  0  0  0  0  0  0
    6.7050   -5.4820   25.6570 C   0  0  0  0  0  0  0  0  0  0  0  0
    8.1570   -4.4010   25.8630 S   0  0  2  0  0  0  0  0  0  0  0  0
    9.3100   -5.0380   26.4370 O   0  0  0  0  0  0  0  0  0  0  0  0
    8.2460   -3.8590   24.2370 N   0  0  0  0  0  0  0  0  0  0  0  0
    9.3460   -3.0440   24.0560 C   0  0  0  0  0  0  0  0  0  0  0  0
    9.4020   -2.0060   23.0890 C   0  0  0  0  0  0  0  0  0  0  0  0
    6.5960   -4.1450   21.5690 N   0  0  0  0  0  0  0  0  0  0  0  0
    7.3940   -3.2330   22.1410 C   0  0  0  0  0  0  0  0  0  0  0  0
    7.2620   -2.9770   23.4940 C   0  0  1  0  0  0  0  0  0  0  0  0
    5.9550   -3.0520   23.8900 C   0  0  1  0  0  0  0  0  0  0  0  0
    5.3270   -4.4090   23.5540 C   0  0  0  0  0  0  0  0  0  0  0  0
    5.9270   -4.9560   22.4070 C   0  0  0  0  0  0  0  0  0  0  0  0
    7.0400   -0.4790   28.1860 C   0  0  0  0  0  0  0  0  0  0  0  0
    6.8050    0.7190   28.8470 C   0  0  0  0  0  0  0  0  0  0  0  0
    5.8680    1.6450   28.4090 C   0  0  0  0  0  0  0  0  0  0  0  0
    5.1410    1.3510   27.2600 C   0  0  0  0  0  0  0  0  0  0  0  0
    5.3720    0.0440   26.5060 C   0  0  0  0  0  0  0  0  0  0  0  0
    6.3330   -0.8520   26.9980 C   0  0  0  0  0  0  0  0  0  0  0  0
   10.6420   -1.3270   23.0570 C   0  0  0  0  0  0  0  0  0  0  0  0
   11.6920   -1.8110   22.2710 C   0  0  0  0  0  0  0  0  0  0  0  0
   12.9280   -1.1570   22.2240 C   0  0  0  0  0  0  0  0  0  0  0  0
   13.0370    0.0050   23.0070 C   0  0  0  0  0  0  0  0  0  0  0  0
   12.0170    0.5070   23.7970 C   0  0  0  0  0  0  0  0  0  0  0  0
   10.8280   -0.1650   23.8160 C   0  0  0  0  0  0  0  0  0  0  0  0
  1  3  1  0
  2  3  2  0
  4  6  1  0
  5  6  2  0
  5  8  2  0
  8  7  1  6
  8  9  2  0
  8 10  1  0
 10 11  1  0
 11 12  1  0
  3 13  1  0
 13 14  1  0
 10 15  1  0
 15 14  1  6
  4 16  1  0
 15 16  1  0
 16 17  1  1
 13 18  1  0
 17 18  1  0
 19 20  2  0
 20 21  1  0
 21 22  2  0
 22 23  1  0
  6 24  1  0
 19 24  1  0
 23 24  2  0
 12 25  1  0
 25 26  2  0
 26 27  1  0
 27 28  2  0
 28 29  1  0
 25 30  1  0
 29 30  2  0
M  END
