x0072-x0736
     RDKit          3D

 28 31  0  0  0  0  0  0  0  0999 V2000
    5.9840   -4.9530   26.2780 C   0  0  0  0  0  0  0  0  0  0  0  0
    7.7330   -4.2670   26.0310 S   0  0  2  0  0  0  0  0  0  0  0  0
    8.6750   -5.3310   25.7590 O   0  0  0  0  0  0  0  0  0  0  0  0
    7.9050   -3.0500   27.1910 N   0  0  0  0  0  0  0  0  0  0  0  0
    7.2030   -3.4330   24.5880 N   0  0  2  0  0  0  0  0  0  0  0  0
    8.3230   -2.7050   24.1780 C   0  0  0  0  0  0  0  0  0  0  0  0
    6.2040   -2.5640   24.9870 O   0  0  0  0  0  0  0  0  0  0  0  0
    7.0570   -3.0280   19.0890 C   0  0  0  0  0  0  0  0  0  0  0  0
    5.3840   -4.2840   19.8220 O   0  0  0  0  0  0  0  0  0  0  0  0
    6.2540   -3.4380   20.0970 C   0  0  0  0  0  0  0  0  0  0  0  0
    6.4160   -2.9190   21.4350 N   0  0  0  0  0  0  0  0  0  0  0  0
    7.5030   -2.1790   21.8210 C   0  0  0  0  0  0  0  0  0  0  0  0
    8.4160   -2.8220   22.6700 C   0  0  2  0  0  0  0  0  0  0  0  0
    7.8190   -4.1510   22.5150 N   0  0  0  0  0  0  0  0  0  0  0  0
    6.7700   -4.1810   23.4090 C   0  0  2  0  0  0  0  0  0  0  0  0
    5.8710   -3.5090   22.5500 C   0  0  0  0  0  0  0  0  0  0  0  0
    9.1330   -0.5730   25.0280 O   0  0  0  0  0  0  0  0  0  0  0  0
    8.5570   -1.7590   25.2980 C   0  0  0  0  0  0  0  0  0  0  0  0
    8.4660   -1.8690   26.5640 C   0  0  0  0  0  0  0  0  0  0  0  0
    9.0320   -0.6270   27.0780 C   0  0  0  0  0  0  0  0  0  0  0  0
    9.5310    0.3270   26.1420 C   0  0  0  0  0  0  0  0  0  0  0  0
   10.5780   -1.0670   23.2930 C   0  0  0  0  0  0  0  0  0  0  0  0
   11.5040   -1.7780   22.5060 C   0  0  0  0  0  0  0  0  0  0  0  0
   12.7710   -1.2340   22.3200 C   0  0  0  0  0  0  0  0  0  0  0  0
   13.0830   -0.0200   22.9040 C   0  0  0  0  0  0  0  0  0  0  0  0
   12.0830    0.7410   23.7510 C   0  0  0  0  0  0  0  0  0  0  0  0
   10.8200    0.1990   23.9410 C   0  0  0  0  0  0  0  0  0  0  0  0
    9.8680    0.8790   24.7210 C   0  0  0  0  0  0  0  0  0  0  0  0
  2  1  1  1
  2  3  2  0
  2  4  2  0
  2  5  1  0
  5  6  1  0
  5  7  1  1
  8 10  1  0
  9 10  2  0
 10 11  1  0
 11 12  1  0
 13  6  1  1
 12 13  1  0
 13 14  1  0
  5 15  1  0
 14 15  1  0
 11 16  1  0
 15 16  1  6
 17 18  1  0
  4 19  1  0
 18 19  2  0
 19 20  1  0
 17 21  1  0
 20 21  2  0
 22 23  2  0
 23 24  1  0
 24 25  2  0
 25 26  1  0
 22 27  1  0
 26 27  2  0
 21 28  1  0
 27 28  1  0
M  CHG  2   5   1   7  -1
M  END
