x0072-x2908
     RDKit          3D

 24 25  0  0  0  0  0  0  0  0999 V2000
    6.5250   -5.1580   26.0800 C   0  0  0  0  0  0  0  0  0  0  0  0
    8.1920   -4.2880   25.8090 S   0  0  0  0  0  0  0  0  0  0  0  0
    9.1850   -5.3260   25.9660 O   0  0  0  0  0  0  0  0  0  0  0  0
    8.1820   -3.2310   26.7880 O   0  0  0  0  0  0  0  0  0  0  0  0
    7.9490   -3.5350   24.3030 N   0  0  0  0  0  0  0  0  0  0  0  0
    8.1570   -2.0640   24.0880 C   0  0  0  0  0  0  0  0  0  0  0  0
    8.8150   -1.6890   22.7300 C   0  0  1  0  0  0  0  0  0  0  0  0
   13.4430   -1.9370   21.0670 Cl  0  0  0  0  0  0  0  0  0  0  0  0
    4.8870    1.0400   21.7990 C   0  0  0  0  0  0  0  0  0  0  0  0
    8.8930    0.6120   21.6820 O   0  0  0  0  0  0  0  0  0  0  0  0
    6.9240   -1.0010   21.1940 N   0  0  0  0  0  0  0  0  0  0  0  0
    8.2180   -0.6480   21.8740 C   0  0  0  0  0  0  0  0  0  0  0  0
   10.2050   -1.1360   22.9600 C   0  0  0  0  0  0  0  0  0  0  0  0
   11.1730   -1.6270   22.1310 C   0  0  0  0  0  0  0  0  0  0  0  0
   12.4710   -1.2070   22.2010 C   0  0  0  0  0  0  0  0  0  0  0  0
   12.9010   -0.2640   23.1120 C   0  0  0  0  0  0  0  0  0  0  0  0
   12.0180    0.2790   23.9830 C   0  0  0  0  0  0  0  0  0  0  0  0
   10.5680   -0.1770   23.9190 C   0  0  0  0  0  0  0  0  0  0  0  0
    6.3820    0.3740   17.7100 N   0  0  0  0  0  0  0  0  0  0  0  0
    6.8180   -0.3200   18.7820 C   0  0  0  0  0  0  0  0  0  0  0  0
    6.3820   -0.1620   20.0930 C   0  0  0  0  0  0  0  0  0  0  0  0
    5.4130    0.7850   20.4140 C   0  0  0  0  0  0  0  0  0  0  0  0
    4.9140    1.5350   19.3420 C   0  0  0  0  0  0  0  0  0  0  0  0
    5.3520    1.3650   18.0370 C   0  0  0  0  0  0  0  0  0  0  0  0
  1  2  1  0
  2  3  2  0
  2  4  2  0
  2  5  1  0
  5  6  1  0
  7  6  1  1
  7 12  1  0
 10 12  2  0
 11 12  1  0
  7 13  1  0
 13 14  2  0
  8 15  1  0
 14 15  1  0
 15 16  2  0
 16 17  1  0
 13 18  1  0
 17 18  2  0
 19 20  2  0
 11 21  1  0
 20 21  1  0
  9 22  1  0
 21 22  2  0
 22 23  1  0
 19 24  1  0
 23 24  2  0
M  END
