x0072-x1384
     RDKit          3D

 29 32  0  0  0  0  0  0  0  0999 V2000
    6.8260   -5.3100   26.6160 C   0  0  0  0  0  0  0  0  0  0  0  0
    8.5380   -4.7010   26.0860 S   0  0  0  0  0  0  0  0  0  0  0  0
    9.3380   -5.8800   25.9250 O   0  0  0  0  0  0  0  0  0  0  0  0
    8.9280   -3.8150   27.1390 O   0  0  0  0  0  0  0  0  0  0  0  0
    8.1910   -3.7040   24.7630 N   0  0  0  0  0  0  0  0  0  0  0  0
    8.9680   -2.4540   24.7140 C   0  0  0  0  0  0  0  0  0  0  0  0
    9.4280   -2.0340   23.3110 C   0  0  0  0  0  0  0  0  0  0  0  0
    6.4270   -3.3400   21.8360 N   0  0  0  0  0  0  0  0  0  0  0  0
    8.0990   -3.6270   20.3960 C   0  0  0  0  0  0  0  0  0  0  0  0
    5.9040   -4.0650   19.7230 O   0  0  0  0  0  0  0  0  0  0  0  0
    6.7670   -3.7180   20.5610 C   0  0  0  0  0  0  0  0  0  0  0  0
    3.0900   -3.1390   26.4160 O   0  0  0  0  0  0  0  0  0  0  0  0
    7.7600   -4.3870   23.6060 C   0  0  0  0  0  0  0  0  0  0  0  0
    6.4770   -4.1760   23.0440 C   0  0  1  0  0  0  0  0  0  0  0  0
   10.6420   -1.3670   23.2070 C   0  0  0  0  0  0  0  0  0  0  0  0
   11.6410   -1.8690   22.3550 C   0  0  0  0  0  0  0  0  0  0  0  0
   12.8620   -1.2550   22.2030 C   0  0  0  0  0  0  0  0  0  0  0  0
   13.0900    0.0130   23.0040 C   0  0  0  0  0  0  0  0  0  0  0  0
   12.0740    0.4560   23.8270 C   0  0  0  0  0  0  0  0  0  0  0  0
   10.8740   -0.1990   23.9440 C   0  0  0  0  0  0  0  0  0  0  0  0
    4.2090   -3.5770   23.8050 C   0  0  2  0  0  0  0  0  0  0  0  0
    5.4780   -3.4750   23.9880 C   0  0  1  0  0  0  0  0  0  0  0  0
    5.1390   -4.0690   25.1610 C   0  0  2  0  0  0  0  0  0  0  0  0
    4.6320   -5.5500   25.2680 C   0  0  0  0  0  0  0  0  0  0  0  0
    4.2090   -5.8710   24.0000 C   0  0  0  0  0  0  0  0  0  0  0  0
    3.9690   -4.8200   23.1800 C   0  0  0  0  0  0  0  0  0  0  0  0
    4.3870   -3.0000   26.1870 C   0  0  1  0  0  0  0  0  0  0  0  0
    4.5760   -2.4070   25.0640 C   0  0  0  0  0  0  0  0  0  0  0  0
    3.6320   -3.5530   25.0780 C   0  0  0  0  0  0  0  0  0  0  0  0
  1  2  1  0
  2  3  2  0
  2  4  2  0
  2  5  1  0
  5  6  1  0
  6  7  1  0
  8 11  1  0
  9 11  1  0
 10 11  2  0
  5 13  1  0
  8 14  1  0
 14 13  1  1
  7 15  1  0
 15 16  2  0
 16 17  1  0
 17 18  2  0
 18 19  1  0
 15 20  1  0
 19 20  2  0
 22 14  1  6
 21 22  1  0
 21 23  1  0
 22 23  1  0
 23 24  1  1
 24 25  1  0
 21 26  1  6
 25 26  2  0
 27 12  1  6
 23 27  1  0
 27 28  1  0
 21 29  1  0
 28 29  2  0
M  END
