x0072-x2776
     RDKit          3D

 40 42  0  0  0  0  0  0  0  0999 V2000
    6.8190   -1.6650   21.8990 N   0  0  0  0  0  0  0  0  0  0  0  0
    6.7030   -4.8290   20.4450 C   0  0  0  0  0  0  0  0  0  0  0  0
    4.8100   -2.9780   21.1660 O   0  0  0  0  0  0  0  0  0  0  0  0
    6.7980   -4.1750   21.6100 C   0  0  0  0  0  0  0  0  0  0  0  0
    7.6560    1.8620   22.9620 N   0  0  0  0  0  0  0  0  0  0  0  0
    9.0310    0.5320   21.5760 O   0  0  0  0  0  0  0  0  0  0  0  0
    6.0410   -2.8730   21.5310 C   0  0  0  0  0  0  0  0  0  0  0  0
   10.7880    6.5730   23.7980 O   0  0  0  0  0  0  0  0  0  0  0  0
    6.6420   -0.1600   21.6290 C   0  0  1  0  0  0  0  0  0  0  0  0
   12.5620   -3.1070   24.6290 O   0  0  0  0  0  0  0  0  0  0  0  0
    7.9010    0.7100   22.0190 C   0  0  0  0  0  0  0  0  0  0  0  0
   10.5040    1.6380   23.8740 C   0  0  0  0  0  0  0  0  0  0  0  0
   11.8030    6.5300   24.8010 C   0  0  0  0  0  0  0  0  0  0  0  0
   12.1240   -1.7490   24.5710 C   0  0  1  0  0  0  0  0  0  0  0  0
   13.0130   -1.1290   23.6970 C   0  0  0  0  0  0  0  0  0  0  0  0
   13.2870   -3.4210   25.8200 C   0  0  0  0  0  0  0  0  0  0  0  0
    7.0890   -4.5440   25.1670 C   0  0  0  0  0  0  0  0  0  0  0  0
    8.7430   -4.0530   25.2180 S   0  0  0  0  0  0  0  0  0  0  0  0
    9.5030   -5.2660   25.4470 O   0  0  0  0  0  0  0  0  0  0  0  0
    8.8290   -3.0390   26.2020 O   0  0  0  0  0  0  0  0  0  0  0  0
    9.1190   -3.4140   23.6370 N   0  0  0  0  0  0  0  0  0  0  0  0
    9.5700   -2.0980   23.2780 C   0  0  0  0  0  0  0  0  0  0  0  0
    6.3650    0.4110   17.6990 N   0  0  0  0  0  0  0  0  0  0  0  0
    5.1790    1.2560   17.7520 C   0  0  0  0  0  0  0  0  0  0  0  0
    4.5590    1.5540   18.9570 C   0  0  0  0  0  0  0  0  0  0  0  0
    5.0410    1.0750   20.1810 C   0  0  0  0  0  0  0  0  0  0  0  0
    6.1770    0.2630   20.2660 C   0  0  0  0  0  0  0  0  0  0  0  0
    6.8720   -0.0990   18.9800 C   0  0  0  0  0  0  0  0  0  0  0  0
    9.8510    2.9840   23.6100 C   0  0  0  0  0  0  0  0  0  0  0  0
   10.5560    4.1580   23.7940 C   0  0  0  0  0  0  0  0  0  0  0  0
   10.0620    5.4410   23.5900 C   0  0  0  0  0  0  0  0  0  0  0  0
    8.7270    5.5540   23.1430 C   0  0  0  0  0  0  0  0  0  0  0  0
    7.9660    4.3560   22.9400 C   0  0  0  0  0  0  0  0  0  0  0  0
    8.4470    3.0470   23.1540 C   0  0  0  0  0  0  0  0  0  0  0  0
    9.3110   -2.4730   22.0580 C   0  0  0  0  0  0  0  0  0  0  0  0
   10.5530   -2.4220   22.7790 C   0  0  0  0  0  0  0  0  0  0  0  0
   10.7210   -1.7280   24.0260 C   0  0  0  0  0  0  0  0  0  0  0  0
    9.5890   -1.0880   24.5580 C   0  0  0  0  0  0  0  0  0  0  0  0
    8.5010   -1.2020   23.7520 C   0  0  0  0  0  0  0  0  0  0  0  0
    8.0920   -1.7700   22.5700 C   0  0  0  0  0  0  0  0  0  0  0  0
  2  4  1  0
  1  7  1  0
  3  7  2  0
  4  7  1  0
  1  9  1  0
  5 11  1  0
  6 11  2  0
  9 11  1  6
  8 13  1  0
 10 14  1  0
 14 15  1  6
 10 16  1  0
 17 18  1  0
 18 19  2  0
 18 20  2  0
 18 21  1  0
 21 22  1  0
 23 24  2  0
 24 25  1  0
 25 26  2  0
  9 27  1  0
 26 27  1  0
 23 28  1  0
 27 28  2  0
 12 29  1  0
 29 30  2  0
  8 31  1  0
 30 31  1  0
 31 32  2  0
 32 33  1  0
  5 34  1  0
 29 34  1  0
 33 34  2  0
 35 36  2  0
 14 37  1  0
 36 37  1  0
 37 38  2  0
 22 39  1  0
 38 39  1  0
  1 40  1  0
 35 40  1  0
 39 40  2  0
M  END
