x0072-x2572
     RDKit          3D

 25 26  0  0  0  0  0  0  0  0999 V2000
    4.4350    0.8200   21.6740 C   0  0  0  0  0  0  0  0  0  0  0  0
    8.7350    0.7310   21.9580 O   0  0  0  0  0  0  0  0  0  0  0  0
    6.8040   -0.8600   21.3190 N   0  0  0  0  0  0  0  0  0  0  0  0
   14.0760   -1.5810   20.3720 N   0  0  0  0  0  0  0  0  0  0  0  0
    8.0630   -0.5350   22.0220 C   0  0  0  0  0  0  0  0  0  0  0  0
    8.8240   -1.6060   22.8700 C   0  0  2  0  0  0  0  0  0  0  0  0
   13.3670   -1.3120   21.3920 C   0  0  0  0  0  0  0  0  0  0  0  0
    6.5700   -5.0610   26.0300 C   0  0  0  0  0  0  0  0  0  0  0  0
    8.2590   -4.3570   25.7980 S   0  0  0  0  0  0  0  0  0  0  0  0
    9.1830   -5.4500   25.6380 O   0  0  0  0  0  0  0  0  0  0  0  0
    8.4710   -3.4250   26.8630 O   0  0  0  0  0  0  0  0  0  0  0  0
    8.1320   -3.5000   24.3210 N   0  0  0  0  0  0  0  0  0  0  0  0
    8.2260   -2.1350   24.2180 C   0  0  0  0  0  0  0  0  0  0  0  0
    6.4270    0.5090   17.8000 N   0  0  0  0  0  0  0  0  0  0  0  0
    6.9350   -0.2350   18.9540 C   0  0  0  0  0  0  0  0  0  0  0  0
    6.2680   -0.1060   20.1760 C   0  0  0  0  0  0  0  0  0  0  0  0
    5.1520    0.6690   20.3950 C   0  0  0  0  0  0  0  0  0  0  0  0
    4.6700    1.3600   19.3250 C   0  0  0  0  0  0  0  0  0  0  0  0
    5.3180    1.2980   17.9470 C   0  0  0  0  0  0  0  0  0  0  0  0
   10.4820    0.0500   24.0340 C   0  0  0  0  0  0  0  0  0  0  0  0
   11.7850    0.5630   24.0660 C   0  0  0  0  0  0  0  0  0  0  0  0
   12.7510    0.1210   23.2190 C   0  0  0  0  0  0  0  0  0  0  0  0
   12.4600   -0.8370   22.3120 C   0  0  0  0  0  0  0  0  0  0  0  0
   11.2390   -1.3930   22.2010 C   0  0  0  0  0  0  0  0  0  0  0  0
   10.1440   -0.9510   23.0940 C   0  0  0  0  0  0  0  0  0  0  0  0
  2  5  2  0
  3  5  1  0
  5  6  1  0
  4  7  3  0
  8  9  1  0
  9 10  2  0
  9 11  2  0
  9 12  1  0
  6 13  1  1
 12 13  1  0
 14 15  2  0
  3 16  1  0
 15 16  1  0
  1 17  1  0
 16 17  2  0
 17 18  1  0
 14 19  1  0
 18 19  2  0
 20 21  2  0
 21 22  1  0
  7 23  1  0
 22 23  2  0
 23 24  1  0
  6 25  1  0
 20 25  1  0
 24 25  2  0
M  END
