x0072-x2643
     RDKit          3D

 23 24  0  0  0  0  0  0  0  0999 V2000
    6.5700   -4.8830   26.0360 C   0  0  0  0  0  0  0  0  0  0  0  0
    8.3850   -4.3470   25.8890 S   0  0  0  0  0  0  0  0  0  0  0  0
    9.1120   -5.5430   25.5520 O   0  0  0  0  0  0  0  0  0  0  0  0
    8.6830   -3.7910   27.1770 O   0  0  0  0  0  0  0  0  0  0  0  0
    8.2870   -3.0070   24.8350 N   0  0  0  0  0  0  0  0  0  0  0  0
    8.1060   -3.1000   23.3540 C   0  0  0  0  0  0  0  0  0  0  0  0
    8.8670   -2.0950   22.4180 C   0  0  1  0  0  0  0  0  0  0  0  0
   13.5620   -0.2980   22.2270 Cl  0  0  0  0  0  0  0  0  0  0  0  0
    6.9800   -1.1620   21.1040 N   0  0  0  0  0  0  0  0  0  0  0  0
    8.8330    0.2630   21.6360 O   0  0  0  0  0  0  0  0  0  0  0  0
    8.2030   -1.0190   21.7250 C   0  0  0  0  0  0  0  0  0  0  0  0
    9.9660   -1.4900   23.0870 C   0  0  0  0  0  0  0  0  0  0  0  0
   11.1120   -1.2450   22.3900 C   0  0  0  0  0  0  0  0  0  0  0  0
   12.1840   -0.6460   23.0070 C   0  0  0  0  0  0  0  0  0  0  0  0
   12.0770   -0.3220   24.3240 C   0  0  0  0  0  0  0  0  0  0  0  0
   10.9790   -0.5410   25.0770 C   0  0  0  0  0  0  0  0  0  0  0  0
    9.9280   -1.1210   24.4380 C   0  0  0  0  0  0  0  0  0  0  0  0
    6.4430    0.6470   17.7120 N   0  0  0  0  0  0  0  0  0  0  0  0
    6.9770   -0.1750   18.7960 C   0  0  0  0  0  0  0  0  0  0  0  0
    6.4110   -0.3480   20.0670 C   0  0  0  0  0  0  0  0  0  0  0  0
    5.2060    0.3350   20.3100 C   0  0  0  0  0  0  0  0  0  0  0  0
    4.6770    1.1210   19.2830 C   0  0  0  0  0  0  0  0  0  0  0  0
    5.3000    1.2470   18.0530 C   0  0  0  0  0  0  0  0  0  0  0  0
  1  2  1  0
  2  3  2  0
  2  4  2  0
  2  5  1  0
  5  6  1  0
  7  6  1  1
  7 11  1  0
  9 11  1  0
 10 11  2  0
  7 12  1  0
 12 13  2  0
  8 14  1  0
 13 14  1  0
 14 15  2  0
 15 16  1  0
 12 17  1  0
 16 17  2  0
 18 19  2  0
  9 20  1  0
 19 20  1  0
 20 21  2  0
 21 22  1  0
 18 23  1  0
 22 23  2  0
M  END
