x0072-x0770
     RDKit          3D

 23 24  0  0  0  0  0  0  0  0999 V2000
    6.6970   -5.3970   26.8560 C   0  0  0  0  0  0  0  0  0  0  0  0
    8.3650   -4.5830   26.4590 S   0  0  0  0  0  0  0  0  0  0  0  0
    9.1890   -5.6110   25.8800 O   0  0  0  0  0  0  0  0  0  0  0  0
    8.8110   -3.9990   27.6910 O   0  0  0  0  0  0  0  0  0  0  0  0
    7.8100   -3.2840   25.5560 N   0  0  0  0  0  0  0  0  0  0  0  0
    8.6840   -2.5690   24.6150 C   0  0  0  0  0  0  0  0  0  0  0  0
    7.2930   -2.9590   18.7900 C   0  0  0  0  0  0  0  0  0  0  0  0
    5.5490   -4.0140   19.6890 O   0  0  0  0  0  0  0  0  0  0  0  0
    6.4840   -3.1850   19.8180 C   0  0  0  0  0  0  0  0  0  0  0  0
    6.6890   -2.5330   21.0480 N   0  0  0  0  0  0  0  0  0  0  0  0
    7.7200   -1.4170   21.2720 C   0  0  0  0  0  0  0  0  0  0  0  0
    8.6660   -1.7680   22.2880 C   0  0  1  0  0  0  0  0  0  0  0  0
    7.9890   -2.4030   23.4180 N   0  0  0  0  0  0  0  0  0  0  0  0
    7.3590   -3.7030   23.0470 C   0  0  0  0  0  0  0  0  0  0  0  0
    6.3380   -3.3890   22.1770 C   0  0  0  0  0  0  0  0  0  0  0  0
   13.4580   -1.6760   21.0650 Cl  0  0  0  0  0  0  0  0  0  0  0  0
   10.4400   -1.3110   23.2860 C   0  0  0  0  0  0  0  0  0  0  0  0
   11.0520   -1.9670   22.1810 C   0  0  0  0  0  0  0  0  0  0  0  0
   12.3930   -1.1810   22.2580 C   0  0  0  0  0  0  0  0  0  0  0  0
   12.8090   -0.1810   23.1200 C   0  0  0  0  0  0  0  0  0  0  0  0
   12.0320    0.2600   24.0750 C   0  0  0  0  0  0  0  0  0  0  0  0
   10.8350   -0.3010   24.1750 C   0  0  0  0  0  0  0  0  0  0  0  0
    9.8030   -2.5980   22.2230 C   0  0  0  0  0  0  0  0  0  0  0  0
  1  2  1  0
  2  3  2  0
  2  4  2  0
  2  5  1  0
  5  6  1  0
  7  9  1  0
  8  9  2  0
  9 10  1  0
 10 11  1  0
 11 12  1  0
  6 13  1  0
 12 13  1  0
 13 14  1  0
 10 15  1  0
 14 15  1  0
 17 18  2  0
 16 19  1  0
 18 19  1  0
 19 20  2  0
 20 21  1  0
 17 22  1  0
 21 22  2  0
 12 23  1  6
 18 23  1  0
M  END
