x0072-x2779
     RDKit          3D

 22 23  0  0  0  0  0  0  0  0999 V2000
    6.6760   -5.1710   26.4960 C   0  0  0  0  0  0  0  0  0  0  0  0
    8.4120   -4.4550   26.2070 S   0  0  0  0  0  0  0  0  0  0  0  0
    9.2240   -5.5610   25.7720 O   0  0  0  0  0  0  0  0  0  0  0  0
    8.7710   -3.8480   27.4550 O   0  0  0  0  0  0  0  0  0  0  0  0
    8.0410   -3.1640   25.1780 N   0  0  0  0  0  0  0  0  0  0  0  0
    9.0360   -2.5910   24.2320 C   0  0  0  0  0  0  0  0  0  0  0  0
    7.2830   -3.0100   18.7880 C   0  0  0  0  0  0  0  0  0  0  0  0
    5.5130   -4.0410   19.6810 O   0  0  0  0  0  0  0  0  0  0  0  0
    6.4650   -3.2440   19.8150 C   0  0  0  0  0  0  0  0  0  0  0  0
    6.6650   -2.6350   21.0500 N   0  0  0  0  0  0  0  0  0  0  0  0
    7.5850   -1.4720   21.2630 C   0  0  0  0  0  0  0  0  0  0  0  0
    8.8210   -1.9400   21.7460 C   0  0  2  0  0  0  0  0  0  0  0  0
    8.6510   -2.8490   22.9130 N   0  0  0  0  0  0  0  0  0  0  0  0
    7.6900   -3.9980   22.7760 C   0  0  0  0  0  0  0  0  0  0  0  0
    6.5230   -3.5350   22.1860 C   0  0  0  0  0  0  0  0  0  0  0  0
   10.7310   -0.7020   23.2540 C   0  0  0  0  0  0  0  0  0  0  0  0
   11.1150   -1.5480   22.1880 C   0  0  0  0  0  0  0  0  0  0  0  0
   12.5470   -1.8610   22.7390 C   0  0  0  0  0  0  0  0  0  0  0  0
   13.1420   -1.4080   23.9000 C   0  0  0  0  0  0  0  0  0  0  0  0
   12.5340   -0.5980   24.7490 C   0  0  0  0  0  0  0  0  0  0  0  0
   11.3070   -0.2390   24.4190 C   0  0  0  0  0  0  0  0  0  0  0  0
    9.8360   -1.0340   22.0630 C   0  0  0  0  0  0  0  0  0  0  0  0
  1  2  1  0
  2  3  2  0
  2  4  2  0
  2  5  1  0
  5  6  1  0
  7  9  1  0
  8  9  2  0
  9 10  1  0
 10 11  1  0
 11 12  1  0
  6 13  1  0
 12 13  1  0
 13 14  1  0
 10 15  1  0
 14 15  1  0
 16 17  2  0
 17 18  1  0
 18 19  2  0
 19 20  1  0
 16 21  1  0
 20 21  2  0
 12 22  1  1
 17 22  1  0
M  END
