x0072-x0981
     RDKit          3D

 30 30  0  0  0  0  0  0  0  0999 V2000
    1.1730   -8.8460   21.1800 C   0  0  0  0  0  0  0  0  0  0  0  0
    2.5920   -7.2980   22.6720 N   0  0  0  0  0  0  0  0  0  0  0  0
    0.1350   -6.7570   22.0190 O   0  0  0  0  0  0  0  0  0  0  0  0
    1.3090   -7.5720   22.0110 C   0  0  0  0  0  0  0  0  0  0  0  0
    2.4030   -8.2710   26.4770 N   0  0  0  0  0  0  0  0  0  0  0  0
    3.8890   -8.2550   24.6300 O   0  0  0  0  0  0  0  0  0  0  0  0
    2.7750   -6.0600   23.4180 C   0  0  1  0  0  0  0  0  0  0  0  0
    5.0450   -5.9650   22.3180 N   0  0  0  0  0  0  0  0  0  0  0  0
    4.5870   -4.7370   24.4270 N   0  0  0  0  0  0  0  0  0  0  0  0
    2.4570   -6.3460   24.7430 C   0  0  0  0  0  0  0  0  0  0  0  0
    3.0050   -7.6920   25.2350 C   0  0  0  0  0  0  0  0  0  0  0  0
    4.2280   -5.5840   23.3250 C   0  0  0  0  0  0  0  0  0  0  0  0
    6.1060   -4.9610   21.8460 C   0  0  0  0  0  0  0  0  0  0  0  0
    6.3070   -5.1120   20.3420 C   0  0  0  0  0  0  0  0  0  0  0  0
    5.7190   -6.1930   19.8620 C   0  0  0  0  0  0  0  0  0  0  0  0
    6.9520   -5.0400   26.5900 C   0  0  0  0  0  0  0  0  0  0  0  0
    8.5830   -4.6830   26.2920 S   0  0  0  0  0  0  0  0  0  0  0  0
    9.2920   -5.8810   25.9490 O   0  0  0  0  0  0  0  0  0  0  0  0
    9.0220   -3.8180   27.3490 O   0  0  0  0  0  0  0  0  0  0  0  0
    8.4390   -3.7630   24.8680 N   0  0  0  0  0  0  0  0  0  0  0  0
    9.4980   -3.0080   24.5260 C   0  0  0  0  0  0  0  0  0  0  0  0
    9.3790   -2.1360   23.4380 C   0  0  0  0  0  0  0  0  0  0  0  0
    5.8870   -4.1770   24.6590 C   0  0  0  0  0  0  0  0  0  0  0  0
    5.9810   -4.2000   26.0350 C   0  0  0  0  0  0  0  0  0  0  0  0
   10.6410   -1.3910   23.2960 C   0  0  0  0  0  0  0  0  0  0  0  0
   11.6210   -1.8730   22.4080 C   0  0  0  0  0  0  0  0  0  0  0  0
   12.9480   -1.1310   22.2280 C   0  0  0  0  0  0  0  0  0  0  0  0
   13.0960    0.0210   22.9870 C   0  0  0  0  0  0  0  0  0  0  0  0
   12.1150    0.4630   23.8480 C   0  0  0  0  0  0  0  0  0  0  0  0
   10.9190   -0.2170   24.0070 C   0  0  0  0  0  0  0  0  0  0  0  0
  1  4  1  0
  2  4  1  0
  3  4  2  0
  2  7  1  0
  7 10  1  1
  5 11  1  0
  6 11  2  0
 10 11  1  0
  7 12  1  0
  8 12  1  0
  9 12  2  3
  8 13  1  0
 13 14  1  0
 14 15  2  3
 16 17  1  0
 17 18  2  0
 17 19  2  0
 17 20  1  0
 20 21  1  0
 21 22  1  0
  9 23  1  0
 16 24  1  0
 23 24  1  0
 22 25  1  0
 25 26  2  0
 26 27  1  0
 27 28  2  0
 28 29  1  0
 25 30  1  0
 29 30  2  0
M  END
