x0072-x1458
     RDKit          3D

 25 27  0  0  0  0  0  0  0  0999 V2000
    6.6220   -3.5710   26.5340 N   0  0  0  0  0  0  0  0  0  0  0  0
    8.9660   -3.9850   27.2700 C   0  0  0  0  0  0  0  0  0  0  0  0
    4.3890   -3.3800   25.6370 O   0  0  0  0  0  0  0  0  0  0  0  0
    7.8950   -4.2260   26.2100 C   0  0  0  0  0  0  0  0  0  0  0  0
    5.2720   -4.5690   19.8990 O   0  0  0  0  0  0  0  0  0  0  0  0
    7.6290   -5.7190   26.4010 C   0  0  0  0  0  0  0  0  0  0  0  0
    6.7560   -2.2830   27.2370 C   0  0  0  0  0  0  0  0  0  0  0  0
    5.6970   -3.7610   25.5170 C   0  0  0  0  0  0  0  0  0  0  0  0
    6.3660   -4.1800   20.3080 C   0  0  0  0  0  0  0  0  0  0  0  0
    7.2040   -3.2790   19.3960 C   0  0  0  0  0  0  0  0  0  0  0  0
    8.3330   -3.9490   24.7880 N   0  0  0  0  0  0  0  0  0  0  0  0
    9.6040   -3.2140   24.6120 C   0  0  0  0  0  0  0  0  0  0  0  0
    9.3440   -2.1000   23.8070 C   0  0  0  0  0  0  0  0  0  0  0  0
    6.8680   -4.5830   21.5550 N   0  0  0  0  0  0  0  0  0  0  0  0
    7.7010   -3.8570   22.3180 C   0  0  0  0  0  0  0  0  0  0  0  0
    7.2720   -3.5360   23.7690 C   0  0  1  0  0  0  0  0  0  0  0  0
    6.3030   -4.4020   24.2940 C   0  0  2  0  0  0  0  0  0  0  0  0
    5.4240   -4.9810   23.3940 C   0  0  0  0  0  0  0  0  0  0  0  0
    6.0510   -5.5150   22.2970 C   0  0  0  0  0  0  0  0  0  0  0  0
   10.6580   -1.4330   23.4880 C   0  0  0  0  0  0  0  0  0  0  0  0
   11.5760   -1.9710   22.5620 C   0  0  0  0  0  0  0  0  0  0  0  0
   12.8890   -1.2560   22.2740 C   0  0  0  0  0  0  0  0  0  0  0  0
   13.0820   -0.0800   22.9750 C   0  0  0  0  0  0  0  0  0  0  0  0
   12.1720    0.4270   23.8760 C   0  0  0  0  0  0  0  0  0  0  0  0
   10.9720   -0.2300   24.1420 C   0  0  0  0  0  0  0  0  0  0  0  0
  1  4  1  0
  4  2  1  0
  4  6  1  0
  1  7  1  0
  1  8  1  0
  3  8  2  0
  5  9  2  0
  9 10  1  0
  4 11  1  0
 11 12  1  0
 12 13  1  0
  9 14  1  0
 14 15  1  0
 11 16  1  0
 16 15  1  6
  8 17  1  0
 16 17  1  0
 17 18  1  6
 14 19  1  0
 18 19  1  0
 13 20  1  0
 20 21  2  0
 21 22  1  0
 22 23  2  0
 23 24  1  0
 20 25  1  0
 24 25  2  0
M  END
