x0072-x0107
     RDKit          3D

 23 24  0  0  0  0  0  0  0  0999 V2000
    6.6530   -5.1190   26.2730 C   0  0  0  0  0  0  0  0  0  0  0  0
    8.3660   -4.4380   25.8060 S   0  0  0  0  0  0  0  0  0  0  0  0
    9.2010   -5.5970   25.6290 O   0  0  0  0  0  0  0  0  0  0  0  0
    8.7110   -3.5830   26.9040 O   0  0  0  0  0  0  0  0  0  0  0  0
    7.9440   -3.4090   24.5160 N   0  0  0  0  0  0  0  0  0  0  0  0
    8.8760   -3.0020   23.4120 C   0  0  0  0  0  0  0  0  0  0  0  0
    8.9680   -1.4630   23.1880 C   0  0  2  0  0  0  0  0  0  0  0  0
    8.5310   -0.7970   22.0010 C   0  0  0  0  0  0  0  0  0  0  0  0
    9.2240    0.1620   21.6160 O   0  0  0  0  0  0  0  0  0  0  0  0
    7.4490   -1.1620   21.3760 N   0  0  0  0  0  0  0  0  0  0  0  0
    5.2890    0.5920   22.1060 C   0  0  0  0  0  0  0  0  0  0  0  0
   10.4240   -1.0700   23.1540 C   0  0  0  0  0  0  0  0  0  0  0  0
   11.3780   -1.7560   22.3840 C   0  0  0  0  0  0  0  0  0  0  0  0
   12.7100   -1.3280   22.3540 C   0  0  0  0  0  0  0  0  0  0  0  0
   13.1590   -0.2230   23.0640 C   0  0  0  0  0  0  0  0  0  0  0  0
   12.2670    0.4570   23.8330 C   0  0  0  0  0  0  0  0  0  0  0  0
   10.8420    0.0160   23.8850 C   0  0  0  0  0  0  0  0  0  0  0  0
    6.7850   -0.4310   20.3570 C   0  0  0  0  0  0  0  0  0  0  0  0
    5.7320    0.4270   20.6830 C   0  0  0  0  0  0  0  0  0  0  0  0
    5.0440    1.1690   19.7080 C   0  0  0  0  0  0  0  0  0  0  0  0
    5.3300    1.1330   18.3450 C   0  0  0  0  0  0  0  0  0  0  0  0
    6.4030    0.2930   17.8250 N   0  0  0  0  0  0  0  0  0  0  0  0
    7.1180   -0.4830   18.8450 C   0  0  0  0  0  0  0  0  0  0  0  0
  1  2  1  0
  2  3  2  0
  2  4  2  0
  2  5  1  0
  5  6  1  0
  7  6  1  6
  7  8  1  0
  8  9  2  0
  8 10  1  0
  7 12  1  0
 12 13  2  0
 13 14  1  0
 14 15  2  0
 15 16  1  0
 12 17  1  0
 16 17  2  0
 10 18  1  0
 11 19  1  0
 18 19  2  0
 19 20  1  0
 20 21  2  0
 21 22  1  0
 18 23  1  0
 22 23  2  0
M  END
