x0072-x0354
     RDKit          3D

 23 24  0  0  0  0  0  0  0  0999 V2000
    6.4050   -5.1570   26.1960 C   0  0  0  0  0  0  0  0  0  0  0  0
    8.1350   -4.3720   26.2230 S   0  0  0  0  0  0  0  0  0  0  0  0
    9.0340   -5.4380   25.8420 O   0  0  0  0  0  0  0  0  0  0  0  0
    8.2620   -3.8770   27.5650 O   0  0  0  0  0  0  0  0  0  0  0  0
    8.5050   -2.9660   25.2070 C   0  0  0  0  0  0  0  0  0  0  0  0
    9.2310   -3.1700   23.8740 C   0  0  0  0  0  0  0  0  0  0  0  0
    9.2260   -2.0760   23.0110 C   0  0  0  0  0  0  0  0  0  0  0  0
    7.9900   -0.5270   27.6020 O   0  0  0  0  0  0  0  0  0  0  0  0
    8.0620   -1.5820   25.7560 C   0  0  0  0  0  0  0  0  0  0  0  0
    7.3820   -1.3720   26.9580 C   0  0  0  0  0  0  0  0  0  0  0  0
    5.3350    3.6770   30.7540 C   0  0  0  0  0  0  0  0  0  0  0  0
   10.5970   -1.3770   22.9970 C   0  0  0  0  0  0  0  0  0  0  0  0
   11.6670   -1.8720   22.2240 C   0  0  0  0  0  0  0  0  0  0  0  0
   12.8690   -1.2190   22.2350 C   0  0  0  0  0  0  0  0  0  0  0  0
   13.0250    0.0240   23.0740 C   0  0  0  0  0  0  0  0  0  0  0  0
   11.9580    0.4670   23.8130 C   0  0  0  0  0  0  0  0  0  0  0  0
   10.7620   -0.2140   23.7820 C   0  0  0  0  0  0  0  0  0  0  0  0
    7.6820    1.8040   28.2400 C   0  0  0  0  0  0  0  0  0  0  0  0
    7.0450    2.7860   29.0010 C   0  0  0  0  0  0  0  0  0  0  0  0
    6.0170    2.5280   29.9180 C   0  0  0  0  0  0  0  0  0  0  0  0
    5.6090    1.0540   30.0420 C   0  0  0  0  0  0  0  0  0  0  0  0
    6.2900    0.1200   29.2550 C   0  0  0  0  0  0  0  0  0  0  0  0
    7.3110    0.4700   28.3710 C   0  0  0  0  0  0  0  0  0  0  0  0
  1  2  1  0
  2  3  2  0
  2  4  2  0
  2  5  1  0
  5  6  1  0
  6  7  1  0
  5  9  2  3
  8 10  1  0
  9 10  1  0
  7 12  1  0
 12 13  2  0
 13 14  1  0
 14 15  2  0
 15 16  1  0
 12 17  1  0
 16 17  2  0
 18 19  2  0
 11 20  1  0
 19 20  1  0
 20 21  2  0
 21 22  1  0
  8 23  1  0
 18 23  1  0
 22 23  2  0
M  END
