x0072-x3298
     RDKit          3D

 35 37  0  0  0  0  0  0  0  0999 V2000
    7.0770    2.0550   22.4410 N   0  0  0  0  0  0  0  0  0  0  0  0
    7.1520   -0.2250   21.3180 C   0  0  2  0  0  0  0  0  0  0  0  0
    6.4350   -0.7510   22.1560 O   0  0  0  0  0  0  0  0  0  0  0  0
    7.8160    1.1210   21.5700 C   0  0  0  0  0  0  0  0  0  0  0  0
    8.8740    1.2740   23.7300 N   0  0  0  0  0  0  0  0  0  0  0  0
    8.8940    1.4340   21.0450 O   0  0  0  0  0  0  0  0  0  0  0  0
   10.7850    1.8990   24.7580 O   0  0  0  0  0  0  0  0  0  0  0  0
    9.6470   -0.1670   25.7700 O   0  0  0  0  0  0  0  0  0  0  0  0
   13.6920   -1.8340   20.8660 F   0  0  0  0  0  0  0  0  0  0  0  0
   10.0800    0.6720   24.6720 S   0  0  0  0  0  0  0  0  0  0  0  0
    6.5890   -5.2530   26.1390 C   0  0  0  0  0  0  0  0  0  0  0  0
    8.2130   -4.5170   26.0770 S   0  0  0  0  0  0  0  0  0  0  0  0
    9.2210   -5.5540   26.0250 O   0  0  0  0  0  0  0  0  0  0  0  0
    8.2480   -3.4820   27.0870 O   0  0  0  0  0  0  0  0  0  0  0  0
    8.2500   -3.6890   24.5930 N   0  0  0  0  0  0  0  0  0  0  0  0
    9.3550   -2.9460   24.2880 C   0  0  0  0  0  0  0  0  0  0  0  0
    9.4280   -2.0310   23.0360 C   0  0  0  0  0  0  0  0  0  0  0  0
    6.2650    0.3320   17.6920 N   0  0  0  0  0  0  0  0  0  0  0  0
    7.0330   -0.2010   18.8100 C   0  0  0  0  0  0  0  0  0  0  0  0
    6.5050    0.1720   20.0590 C   0  0  0  0  0  0  0  0  0  0  0  0
    5.3470    0.9600   20.1340 C   0  0  0  0  0  0  0  0  0  0  0  0
    4.6690    1.4230   19.0440 C   0  0  0  0  0  0  0  0  0  0  0  0
    5.1690    1.0910   17.8500 C   0  0  0  0  0  0  0  0  0  0  0  0
    7.6990    4.4930   22.5330 C   0  0  0  0  0  0  0  0  0  0  0  0
    8.6470    5.4230   22.9760 C   0  0  0  0  0  0  0  0  0  0  0  0
    9.7540    5.0200   23.6810 C   0  0  0  0  0  0  0  0  0  0  0  0
    9.9030    3.6830   23.9540 C   0  0  0  0  0  0  0  0  0  0  0  0
    8.9630    2.7440   23.5450 C   0  0  0  0  0  0  0  0  0  0  0  0
    7.8540    3.1160   22.8140 C   0  0  0  0  0  0  0  0  0  0  0  0
   12.4110    0.4510   23.3200 C   0  0  0  0  0  0  0  0  0  0  0  0
   13.2020   -0.1710   22.4250 C   0  0  0  0  0  0  0  0  0  0  0  0
   12.8630   -1.3070   21.7410 C   0  0  0  0  0  0  0  0  0  0  0  0
   11.6390   -1.9110   21.9460 C   0  0  0  0  0  0  0  0  0  0  0  0
   10.7010   -1.3850   22.8460 C   0  0  0  0  0  0  0  0  0  0  0  0
   11.0560   -0.2020   23.5390 C   0  0  0  0  0  0  0  0  0  0  0  0
  2  3  1  1
  1  4  1  0
  2  4  1  0
  4  6  2  0
 10  5  1  0
  7 10  2  0
  8 10  2  0
 11 12  1  0
 12 13  2  0
 12 14  2  0
 12 15  1  0
 15 16  1  0
 16 17  1  0
 18 19  2  0
  2 20  1  0
 19 20  1  0
 20 21  2  0
 21 22  1  0
 18 23  1  0
 22 23  2  0
 24 25  2  0
 25 26  1  0
 26 27  2  0
  5 28  1  0
 27 28  1  0
  1 29  1  0
 24 29  1  0
 28 29  2  0
 30 31  2  0
  9 32  1  0
 31 32  1  0
 32 33  2  0
 17 34  1  0
 33 34  1  0
 10 35  1  0
 30 35  1  0
 34 35  2  0
M  END
