x0072-x2646
     RDKit          3D

 24 25  0  0  0  0  0  0  0  0999 V2000
    6.5170   -5.1870   26.1130 C   0  0  0  0  0  0  0  0  0  0  0  0
    8.1870   -4.3200   25.8550 S   0  0  0  0  0  0  0  0  0  0  0  0
    9.1780   -5.3610   26.0010 O   0  0  0  0  0  0  0  0  0  0  0  0
    8.1840   -3.2710   26.8420 O   0  0  0  0  0  0  0  0  0  0  0  0
    7.9400   -3.5540   24.3590 N   0  0  0  0  0  0  0  0  0  0  0  0
    8.1700   -2.0890   24.1510 C   0  0  0  0  0  0  0  0  0  0  0  0
    8.7910   -1.7090   22.7840 C   0  0  1  0  0  0  0  0  0  0  0  0
   13.4170   -1.9600   21.0570 Cl  0  0  0  0  0  0  0  0  0  0  0  0
    4.4700    0.7080   21.7330 C   0  0  0  0  0  0  0  0  0  0  0  0
    8.8090    0.6140   21.8080 O   0  0  0  0  0  0  0  0  0  0  0  0
    6.8520   -1.0150   21.2960 N   0  0  0  0  0  0  0  0  0  0  0  0
    8.1550   -0.6620   21.9670 C   0  0  0  0  0  0  0  0  0  0  0  0
   10.1900   -1.1620   22.9870 C   0  0  0  0  0  0  0  0  0  0  0  0
   11.1520   -1.6480   22.1510 C   0  0  0  0  0  0  0  0  0  0  0  0
   12.4550   -1.2260   22.2000 C   0  0  0  0  0  0  0  0  0  0  0  0
   12.8920   -0.2790   23.1060 C   0  0  0  0  0  0  0  0  0  0  0  0
   12.0180    0.2610   23.9850 C   0  0  0  0  0  0  0  0  0  0  0  0
   10.5670   -0.2000   23.9390 C   0  0  0  0  0  0  0  0  0  0  0  0
    6.5500    0.4990   17.8310 N   0  0  0  0  0  0  0  0  0  0  0  0
    6.9340   -0.2040   18.9200 C   0  0  0  0  0  0  0  0  0  0  0  0
    6.3270   -0.1830   20.1750 C   0  0  0  0  0  0  0  0  0  0  0  0
    5.2040    0.6130   20.4150 C   0  0  0  0  0  0  0  0  0  0  0  0
    4.7520    1.3680   19.3240 C   0  0  0  0  0  0  0  0  0  0  0  0
    5.3690    1.3360   18.0780 C   0  0  0  0  0  0  0  0  0  0  0  0
  1  2  1  0
  2  3  2  0
  2  4  2  0
  2  5  1  0
  5  6  1  0
  7  6  1  1
  7 12  1  0
 10 12  2  0
 11 12  1  0
  7 13  1  0
 13 14  2  0
  8 15  1  0
 14 15  1  0
 15 16  2  0
 16 17  1  0
 13 18  1  0
 17 18  2  0
 19 20  2  0
 11 21  1  0
 20 21  1  0
  9 22  1  0
 21 22  2  0
 22 23  1  0
 19 24  1  0
 23 24  2  0
M  END
