x0072-x0705
     RDKit          3D

 31 34  0  0  0  0  0  0  0  0999 V2000
    1.2670   -2.5750   27.7150 C   0  0  0  0  0  0  0  0  0  0  0  0
    7.4760   -0.8670   26.1030 O   0  0  0  0  0  0  0  0  0  0  0  0
    5.5160   -3.4470   19.4790 O   0  0  0  0  0  0  0  0  0  0  0  0
    6.6580   -1.8440   25.5030 C   0  0  0  0  0  0  0  0  0  0  0  0
    6.5260   -3.2770   20.2190 C   0  0  0  0  0  0  0  0  0  0  0  0
    7.7510   -3.7600   19.6210 C   0  0  0  0  0  0  0  0  0  0  0  0
    6.1950   -5.1160   26.2590 C   0  0  0  0  0  0  0  0  0  0  0  0
    7.9440   -4.5620   26.1320 S   0  0  0  0  0  0  0  0  0  0  0  0
    8.8030   -5.6850   25.8470 O   0  0  0  0  0  0  0  0  0  0  0  0
    8.2420   -3.6920   27.2320 O   0  0  0  0  0  0  0  0  0  0  0  0
    8.0300   -3.6010   24.7380 N   0  0  0  0  0  0  0  0  0  0  0  0
    9.2740   -3.0340   24.5450 C   0  0  0  0  0  0  0  0  0  0  0  0
    9.1530   -1.7970   23.9820 C   0  0  2  0  0  0  0  0  0  0  0  0
    2.6330   -2.4180   27.1860 C   0  0  0  0  0  0  0  0  0  0  0  0
    2.8110   -1.5930   26.0900 C   0  0  0  0  0  0  0  0  0  0  0  0
    4.0300   -1.3780   25.5260 C   0  0  0  0  0  0  0  0  0  0  0  0
    5.2720   -2.0530   26.0930 C   0  0  0  0  0  0  0  0  0  0  0  0
    5.0120   -2.8750   27.2070 C   0  0  0  0  0  0  0  0  0  0  0  0
    3.7350   -3.0670   27.7540 C   0  0  0  0  0  0  0  0  0  0  0  0
    6.5530   -2.8400   21.5320 N   0  0  0  0  0  0  0  0  0  0  0  0
    5.9750   -3.7770   22.4940 C   0  0  0  0  0  0  0  0  0  0  0  0
    5.8890   -3.1380   23.7080 C   0  0  0  0  0  0  0  0  0  0  0  0
    7.0760   -2.6200   24.2710 C   0  0  1  0  0  0  0  0  0  0  0  0
    7.9180   -1.7490   23.2410 C   0  0  2  0  0  0  0  0  0  0  0  0
    7.8960   -2.3770   21.9920 C   0  0  0  0  0  0  0  0  0  0  0  0
   10.4430   -1.3010   23.5500 C   0  0  0  0  0  0  0  0  0  0  0  0
   11.2610   -1.9450   22.6120 C   0  0  0  0  0  0  0  0  0  0  0  0
   12.5230   -1.4160   22.2550 C   0  0  0  0  0  0  0  0  0  0  0  0
   12.9220   -0.2100   22.8790 C   0  0  0  0  0  0  0  0  0  0  0  0
   12.1120    0.4350   23.8070 C   0  0  0  0  0  0  0  0  0  0  0  0
   10.9000   -0.1140   24.1250 C   0  0  0  0  0  0  0  0  0  0  0  0
  2  4  2  0
  3  5  2  0
  5  6  1  0
  8  7  1  0
  8  9  2  0
  8 10  2  0
  8 11  1  0
 11 12  1  0
 12 13  1  0
  1 14  1  0
 14 15  2  0
 15 16  1  0
  4 17  1  0
 16 17  2  0
 17 18  1  0
 14 19  1  0
 18 19  2  0
  5 20  1  0
 20 21  1  0
 21 22  1  0
 23  4  1  1
 11 23  1  0
 22 23  1  0
 13 24  1  0
 23 24  1  0
 20 25  1  0
 24 25  1  6
 13 26  1  6
 26 27  2  0
 27 28  1  0
 28 29  2  0
 29 30  1  0
 26 31  1  0
 30 31  2  0
M  END
