x0072-x2563
     RDKit          3D

 26 28  0  0  0  0  0  0  0  0999 V2000
    4.8970   -4.1460   24.7440 C   0  0  0  0  0  0  0  0  0  0  0  0
    6.7650   -3.9770   24.6360 S   0  0  0  0  0  0  0  0  0  0  0  0
    7.2300   -5.3470   24.4650 O   0  0  0  0  0  0  0  0  0  0  0  0
    7.0490   -3.2380   25.8560 O   0  0  0  0  0  0  0  0  0  0  0  0
    7.1110   -2.8800   23.4310 N   0  0  0  0  0  0  0  0  0  0  0  0
    8.5280   -2.6260   23.0540 C   0  0  0  0  0  0  0  0  0  0  0  0
    8.8390   -1.1210   22.9020 C   0  0  2  0  0  0  0  0  0  0  0  0
    8.3430   -0.4020   21.7770 C   0  0  0  0  0  0  0  0  0  0  0  0
    8.6450    0.7890   21.6040 O   0  0  0  0  0  0  0  0  0  0  0  0
    7.4490   -1.1050   20.7530 C   0  0  0  0  0  0  0  0  0  0  0  0
   10.3470   -0.9080   22.9110 C   0  0  0  0  0  0  0  0  0  0  0  0
   11.2960   -1.9010   22.5870 C   0  0  0  0  0  0  0  0  0  0  0  0
   12.6710   -1.6390   22.5990 C   0  0  0  0  0  0  0  0  0  0  0  0
   13.1230   -0.3840   22.9350 C   0  0  0  0  0  0  0  0  0  0  0  0
   12.2920    0.6180   23.2620 C   0  0  0  0  0  0  0  0  0  0  0  0
   10.8010    0.3610   23.2550 C   0  0  0  0  0  0  0  0  0  0  0  0
    6.2600    0.6440   17.5200 N   0  0  0  0  0  0  0  0  0  0  0  0
    5.1640    1.3760   17.9810 C   0  0  0  0  0  0  0  0  0  0  0  0
    4.7890    1.3210   19.3220 C   0  0  0  0  0  0  0  0  0  0  0  0
    5.4670    0.5490   20.3020 C   0  0  0  0  0  0  0  0  0  0  0  0
    6.5740   -0.2050   19.9000 C   0  0  0  0  0  0  0  0  0  0  0  0
    6.8980   -0.1200   18.5780 C   0  0  0  0  0  0  0  0  0  0  0  0
    3.5810    2.1140   19.8520 C   0  0  0  0  0  0  0  0  0  0  0  0
    3.1900    2.0830   21.1700 C   0  0  0  0  0  0  0  0  0  0  0  0
    3.9040    1.3130   22.0590 C   0  0  0  0  0  0  0  0  0  0  0  0
    5.0070    0.5660   21.6410 C   0  0  0  0  0  0  0  0  0  0  0  0
  1  2  1  0
  2  3  2  0
  2  4  2  0
  2  5  1  0
  5  6  1  0
  7  6  1  6
  7  8  1  0
  8  9  2  0
  8 10  1  0
  7 11  1  0
 11 12  2  0
 12 13  1  0
 13 14  2  0
 14 15  1  0
 11 16  1  0
 15 16  2  0
 17 18  2  0
 18 19  1  0
 19 20  2  0
 10 21  1  0
 20 21  1  0
 17 22  1  0
 21 22  2  0
 19 23  1  0
 23 24  2  0
 24 25  1  0
 20 26  1  0
 25 26  2  0
M  END
