x0072-x3117
     RDKit          3D

 37 39  0  0  0  0  0  0  0  0999 V2000
    6.7300   -1.5960   22.0250 N   0  0  0  0  0  0  0  0  0  0  0  0
    6.6540   -4.6440   20.3240 C   0  0  0  0  0  0  0  0  0  0  0  0
    4.7580   -2.9960   21.3540 O   0  0  0  0  0  0  0  0  0  0  0  0
    6.8480   -4.0790   21.5230 C   0  0  0  0  0  0  0  0  0  0  0  0
    7.6840    1.9050   22.8980 N   0  0  0  0  0  0  0  0  0  0  0  0
    8.9350    0.5750   21.4090 O   0  0  0  0  0  0  0  0  0  0  0  0
    6.0140   -2.8310   21.6220 C   0  0  0  0  0  0  0  0  0  0  0  0
    6.5710   -0.1250   21.6550 C   0  0  1  0  0  0  0  0  0  0  0  0
    7.8460    0.7510   21.9390 C   0  0  0  0  0  0  0  0  0  0  0  0
   12.1520   -1.9000   24.5400 C   0  0  0  0  0  0  0  0  0  0  0  0
   12.3800   -0.7020   25.2170 C   0  0  0  0  0  0  0  0  0  0  0  0
   13.0790   -2.0810   23.4760 C   0  0  0  0  0  0  0  0  0  0  0  0
   12.1260   -3.2280   25.2940 C   0  0  0  0  0  0  0  0  0  0  0  0
    7.1070   -4.3670   25.4830 C   0  0  0  0  0  0  0  0  0  0  0  0
    8.7940   -4.0850   25.3350 S   0  0  0  0  0  0  0  0  0  0  0  0
    9.4310   -5.3660   25.5230 O   0  0  0  0  0  0  0  0  0  0  0  0
    9.1200   -3.0220   26.2070 O   0  0  0  0  0  0  0  0  0  0  0  0
    9.0530   -3.5100   23.7160 N   0  0  0  0  0  0  0  0  0  0  0  0
    9.6270   -2.1180   23.3490 C   0  0  0  0  0  0  0  0  0  0  0  0
    6.3310    0.2330   17.8810 N   0  0  0  0  0  0  0  0  0  0  0  0
    5.1540    1.0720   17.8790 C   0  0  0  0  0  0  0  0  0  0  0  0
    4.4750    1.4740   19.0020 C   0  0  0  0  0  0  0  0  0  0  0  0
    4.9400    1.0680   20.2360 C   0  0  0  0  0  0  0  0  0  0  0  0
    6.0800    0.2630   20.3340 C   0  0  0  0  0  0  0  0  0  0  0  0
    6.7860   -0.1720   19.2010 C   0  0  0  0  0  0  0  0  0  0  0  0
    9.7450    5.1250   24.1760 O   0  0  0  0  0  0  0  0  0  0  0  0
   10.5410    4.0430   23.7290 C   0  0  0  0  0  0  0  0  0  0  0  0
    9.7090    2.9310   23.6740 C   0  0  0  0  0  0  0  0  0  0  0  0
    8.5730    3.0480   22.8770 C   0  0  0  0  0  0  0  0  0  0  0  0
    7.9350    4.3100   22.9470 C   0  0  0  0  0  0  0  0  0  0  0  0
    8.7920    5.4350   23.1650 C   0  0  0  0  0  0  0  0  0  0  0  0
    9.1430   -2.5230   22.1730 C   0  0  0  0  0  0  0  0  0  0  0  0
   10.4300   -2.5500   22.8070 C   0  0  0  0  0  0  0  0  0  0  0  0
   10.7330   -1.8170   23.9470 C   0  0  0  0  0  0  0  0  0  0  0  0
    9.7120   -1.0190   24.4880 C   0  0  0  0  0  0  0  0  0  0  0  0
    8.5670   -1.1130   23.7290 C   0  0  0  0  0  0  0  0  0  0  0  0
    8.0580   -1.7380   22.6360 C   0  0  0  0  0  0  0  0  0  0  0  0
  2  4  1  0
  1  7  1  0
  3  7  2  0
  4  7  1  0
  1  8  1  0
  5  9  1  0
  6  9  2  0
  8  9  1  6
 10 11  1  0
 10 12  1  0
 10 13  1  0
 14 15  1  0
 15 16  2  0
 15 17  2  0
 15 18  1  0
 18 19  1  0
 20 21  2  0
 21 22  1  0
 22 23  2  0
  8 24  1  0
 23 24  1  0
 20 25  1  0
 24 25  2  0
 26 27  1  0
 27 28  1  0
  5 29  1  0
 28 29  1  0
 29 30  1  0
 26 31  1  0
 30 31  1  0
 32 33  2  0
 10 34  1  0
 33 34  1  0
 34 35  2  0
 19 36  1  0
 35 36  1  0
  1 37  1  0
 32 37  1  0
 36 37  2  0
M  END
