x0072-x2764
     RDKit          3D

 25 26  0  0  0  0  0  0  0  0999 V2000
    8.3100   -1.2270   22.0240 N   0  0  0  0  0  0  0  0  0  0  0  0
    7.1350   -1.4850   21.3320 C   0  0  0  0  0  0  0  0  0  0  0  0
    6.5280   -2.5430   21.4430 O   0  0  0  0  0  0  0  0  0  0  0  0
    9.1290   -2.3830   22.5300 C   0  0  2  0  0  0  0  0  0  0  0  0
    6.5810    1.2940   22.0990 O   0  0  0  0  0  0  0  0  0  0  0  0
    7.8300    4.5740   22.5940 N   0  0  0  0  0  0  0  0  0  0  0  0
    7.6680    1.8410   22.3220 C   0  0  0  0  0  0  0  0  0  0  0  0
    7.7590    3.2270   22.4440 C   0  0  0  0  0  0  0  0  0  0  0  0
    6.6580   -4.8060   25.9230 C   0  0  0  0  0  0  0  0  0  0  0  0
    8.4460   -4.3540   26.0030 S   0  0  0  0  0  0  0  0  0  0  0  0
    9.2290   -5.4920   25.5970 O   0  0  0  0  0  0  0  0  0  0  0  0
    8.6690   -3.7490   27.2900 O   0  0  0  0  0  0  0  0  0  0  0  0
    8.6380   -3.0960   24.8580 N   0  0  0  0  0  0  0  0  0  0  0  0
    8.3640   -3.2390   23.5360 C   0  0  0  0  0  0  0  0  0  0  0  0
   12.7920   -1.3100   22.7950 N   0  0  0  0  0  0  0  0  0  0  0  0
   11.5770   -1.7870   22.1390 C   0  0  0  0  0  0  0  0  0  0  0  0
   10.4910   -1.9000   23.0090 C   0  0  0  0  0  0  0  0  0  0  0  0
   10.7990   -1.5350   24.3020 C   0  0  0  0  0  0  0  0  0  0  0  0
   12.4440   -1.0590   24.4180 S   0  0  0  0  0  0  0  0  0  0  0  0
    6.2970   -0.7510   19.0980 C   0  0  0  0  0  0  0  0  0  0  0  0
    5.7090    0.2220   18.0840 C   0  0  0  0  0  0  0  0  0  0  0  0
    5.4590    1.5200   18.5500 C   0  0  0  0  0  0  0  0  0  0  0  0
    5.7540    1.8540   19.8730 C   0  0  0  0  0  0  0  0  0  0  0  0
    6.2910    0.9240   20.7570 C   0  0  0  0  0  0  0  0  0  0  0  0
    6.5720   -0.3890   20.4100 C   0  0  0  0  0  0  0  0  0  0  0  0
  1  2  1  0
  2  3  2  0
  1  4  1  0
  5  7  1  0
  6  8  3  0
  7  8  1  0
  9 10  1  0
 10 11  2  0
 10 12  2  0
 10 13  1  0
  4 14  1  1
 13 14  1  0
 15 16  2  0
  4 17  1  0
 16 17  1  0
 17 18  2  0
 15 19  1  0
 18 19  1  0
 20 21  2  0
 21 22  1  0
 22 23  2  0
  5 24  1  0
 23 24  1  0
  2 25  1  0
 20 25  1  0
 24 25  2  0
M  END
