x0072-x0946
     RDKit          3D

 23 24  0  0  0  0  0  0  0  0999 V2000
    6.5000   -5.3090   26.3810 C   0  0  0  0  0  0  0  0  0  0  0  0
    8.2110   -4.5180   26.1660 S   0  0  0  0  0  0  0  0  0  0  0  0
    9.1540   -5.6070   26.1140 O   0  0  0  0  0  0  0  0  0  0  0  0
    8.3200   -3.5990   27.2720 O   0  0  0  0  0  0  0  0  0  0  0  0
    7.9450   -3.5420   24.8190 N   0  0  0  0  0  0  0  0  0  0  0  0
    9.0680   -3.2620   23.8990 C   0  0  0  0  0  0  0  0  0  0  0  0
    9.2240   -1.7840   23.5010 C   0  0  0  0  0  0  0  0  0  0  0  0
    9.0680    5.4100   22.7740 N   0  0  0  0  0  0  0  0  0  0  0  0
    9.7510    5.5430   25.1670 O   0  0  0  0  0  0  0  0  0  0  0  0
   11.2180    6.6220   23.4180 O   0  0  0  0  0  0  0  0  0  0  0  0
   10.3520    5.5420   23.8490 S   0  0  0  0  0  0  0  0  0  0  0  0
   10.5390   -1.4000   23.2920 C   0  0  0  0  0  0  0  0  0  0  0  0
   11.5110   -2.4260   22.8670 C   0  0  0  0  0  0  0  0  0  0  0  0
   12.7400   -1.9630   22.7050 C   0  0  0  0  0  0  0  0  0  0  0  0
   13.0350   -0.6380   22.9230 C   0  0  0  0  0  0  0  0  0  0  0  0
   12.2670    0.4920   23.3100 C   0  0  0  0  0  0  0  0  0  0  0  0
   10.9730   -0.0860   23.4700 C   0  0  0  0  0  0  0  0  0  0  0  0
   12.5390    1.9120   23.0350 C   0  0  0  0  0  0  0  0  0  0  0  0
   13.0520    3.2540   22.6340 C   0  0  0  0  0  0  0  0  0  0  0  0
   12.3370    4.3130   22.9120 C   0  0  0  0  0  0  0  0  0  0  0  0
   11.1770    4.1070   23.5510 C   0  0  0  0  0  0  0  0  0  0  0  0
   10.7330    2.8170   23.9160 C   0  0  0  0  0  0  0  0  0  0  0  0
   11.3540    1.5230   23.7070 C   0  0  0  0  0  0  0  0  0  0  0  0
  1  2  1  0
  2  3  2  0
  2  4  2  0
  2  5  1  0
  5  6  1  0
  6  7  1  0
 11  8  1  0
  9 11  2  0
 10 11  2  0
  7 12  1  0
 12 13  2  0
 13 14  1  0
 14 15  2  0
 15 16  1  0
 12 17  1  0
 16 17  2  0
 18 19  2  0
 19 20  1  0
 11 21  1  0
 20 21  2  0
 21 22  1  0
 16 23  1  0
 18 23  1  0
 22 23  2  0
M  END
