x0072-x3124
     RDKit          3D

 32 33  0  0  0  0  0  0  0  0999 V2000
    6.7780   -1.7800   22.1020 N   0  0  0  0  0  0  0  0  0  0  0  0
    6.6460   -4.8240   20.3980 C   0  0  0  0  0  0  0  0  0  0  0  0
    4.7880   -3.0440   21.3650 O   0  0  0  0  0  0  0  0  0  0  0  0
    6.8060   -4.2670   21.6090 C   0  0  0  0  0  0  0  0  0  0  0  0
    7.5210    1.6210   23.2100 N   0  0  0  0  0  0  0  0  0  0  0  0
    8.8650    0.4950   21.6450 O   0  0  0  0  0  0  0  0  0  0  0  0
    6.0320   -2.9740   21.6780 C   0  0  0  0  0  0  0  0  0  0  0  0
    6.5400   -0.3040   21.7920 C   0  0  1  0  0  0  0  0  0  0  0  0
    7.7610    0.5770   22.1740 C   0  0  0  0  0  0  0  0  0  0  0  0
    8.0300    2.8780   22.9920 C   0  0  0  0  0  0  0  0  0  0  0  0
   12.3130   -1.9600   24.3840 C   0  0  0  0  0  0  0  0  0  0  0  0
   12.5530   -0.7600   25.0580 C   0  0  0  0  0  0  0  0  0  0  0  0
   13.1580   -1.9130   23.2960 C   0  0  0  0  0  0  0  0  0  0  0  0
   12.8630   -3.0740   25.3370 C   0  0  0  0  0  0  0  0  0  0  0  0
    7.1250   -4.6150   25.2780 C   0  0  0  0  0  0  0  0  0  0  0  0
    8.7730   -4.1000   25.2340 S   0  0  0  0  0  0  0  0  0  0  0  0
    9.5670   -5.2780   25.5040 O   0  0  0  0  0  0  0  0  0  0  0  0
    8.8410   -2.9880   26.1220 O   0  0  0  0  0  0  0  0  0  0  0  0
    9.0780   -3.5340   23.6100 N   0  0  0  0  0  0  0  0  0  0  0  0
    9.5520   -2.2510   23.2020 C   0  0  0  0  0  0  0  0  0  0  0  0
    6.3240    0.2410   17.8360 N   0  0  0  0  0  0  0  0  0  0  0  0
    5.1360    1.0960   17.8400 C   0  0  0  0  0  0  0  0  0  0  0  0
    4.5090    1.3930   19.0450 C   0  0  0  0  0  0  0  0  0  0  0  0
    4.9680    0.9200   20.2830 C   0  0  0  0  0  0  0  0  0  0  0  0
    6.0990    0.1060   20.4050 C   0  0  0  0  0  0  0  0  0  0  0  0
    6.8160   -0.2650   19.1320 C   0  0  0  0  0  0  0  0  0  0  0  0
    9.2690   -2.5830   22.1390 C   0  0  0  0  0  0  0  0  0  0  0  0
   10.5490   -2.5630   22.7470 C   0  0  0  0  0  0  0  0  0  0  0  0
   10.9300   -1.9160   23.9480 C   0  0  0  0  0  0  0  0  0  0  0  0
    9.8570   -1.2090   24.6140 C   0  0  0  0  0  0  0  0  0  0  0  0
    8.6490   -1.3050   23.8710 C   0  0  0  0  0  0  0  0  0  0  0  0
    8.1060   -1.8710   22.7190 C   0  0  0  0  0  0  0  0  0  0  0  0
  2  4  1  0
  1  7  1  0
  3  7  2  0
  4  7  1  0
  1  8  1  0
  5  9  1  0
  6  9  2  0
  8  9  1  6
  5 10  1  0
 11 12  1  0
 11 13  1  0
 11 14  1  0
 15 16  1  0
 16 17  2  0
 16 18  2  0
 16 19  1  0
 19 20  1  0
 21 22  2  0
 22 23  1  0
 23 24  2  0
  8 25  1  0
 24 25  1  0
 21 26  1  0
 25 26  2  0
 27 28  2  0
 11 29  1  0
 28 29  1  0
 29 30  2  0
 20 31  1  0
 30 31  1  0
  1 32  1  0
 27 32  1  0
 31 32  2  0
M  END
