x0107-x0981
     RDKit          3D

 29 29  0  0  0  0  0  0  0  0999 V2000
    1.2660   -8.6910   21.4060 C   0  0  0  0  0  0  0  0  0  0  0  0
    2.6730   -7.0410   22.7040 N   0  0  0  0  0  0  0  0  0  0  0  0
    0.4590   -6.5920   22.2990 O   0  0  0  0  0  0  0  0  0  0  0  0
    1.4260   -7.3470   22.1860 C   0  0  0  0  0  0  0  0  0  0  0  0
    2.4290   -8.3550   26.3690 N   0  0  0  0  0  0  0  0  0  0  0  0
    3.9830   -8.2020   24.6420 O   0  0  0  0  0  0  0  0  0  0  0  0
    3.0740   -5.8390   23.4310 C   0  0  1  0  0  0  0  0  0  0  0  0
    5.0980   -5.4930   22.2460 N   0  0  0  0  0  0  0  0  0  0  0  0
    5.1870   -4.9550   24.2540 O   0  0  0  0  0  0  0  0  0  0  0  0
    2.7460   -6.2460   24.9110 C   0  0  0  0  0  0  0  0  0  0  0  0
    3.1070   -7.6510   25.2730 C   0  0  0  0  0  0  0  0  0  0  0  0
    4.5800   -5.4090   23.2900 C   0  0  0  0  0  0  0  0  0  0  0  0
    6.0100   -4.4700   21.5930 C   0  0  2  0  0  0  0  0  0  0  0  0
    6.3550   -4.9650   20.2010 C   0  0  0  0  0  0  0  0  0  0  0  0
    5.7010   -6.2590   19.8080 C   0  0  0  0  0  0  0  0  0  0  0  0
    9.9480   -0.4310   22.3230 C   0  0  0  0  0  0  0  0  0  0  0  0
    8.8440    0.0950   21.6320 C   0  0  0  0  0  0  0  0  0  0  0  0
    9.1930    1.4540   21.2590 O   0  0  0  0  0  0  0  0  0  0  0  0
    7.6480   -0.5240   21.3230 N   0  0  0  0  0  0  0  0  0  0  0  0
    5.2280    1.1260   22.0160 C   0  0  0  0  0  0  0  0  0  0  0  0
    7.1800   -4.1170   22.5400 C   0  0  0  0  0  0  0  0  0  0  0  0
    7.4570   -2.5890   22.6280 C   0  0  0  0  0  0  0  0  0  0  0  0
    7.6670   -1.8770   21.2910 C   0  0  0  0  0  0  0  0  0  0  0  0
    6.8480   -0.0060   20.3730 C   0  0  0  0  0  0  0  0  0  0  0  0
    5.6130    0.8390   20.7100 C   0  0  0  0  0  0  0  0  0  0  0  0
    4.9000    1.2960   19.4300 C   0  0  0  0  0  0  0  0  0  0  0  0
    5.3400    0.9710   18.1640 C   0  0  0  0  0  0  0  0  0  0  0  0
    6.4300    0.2210   17.9510 N   0  0  0  0  0  0  0  0  0  0  0  0
    7.1040   -0.2200   19.0110 C   0  0  0  0  0  0  0  0  0  0  0  0
  1  4  1  0
  2  4  1  0
  3  4  2  0
  2  7  1  0
  7 10  1  1
  5 11  1  0
  6 11  2  0
 10 11  1  0
  7 12  1  0
  8 12  1  0
  9 12  2  0
  8 13  1  0
 13 14  1  6
 14 15  2  3
 16 17  1  0
 17 18  2  0
 17 19  1  0
 13 21  1  0
 21 22  1  0
 19 23  1  0
 22 23  1  0
 19 24  1  0
 20 25  1  0
 24 25  2  0
 25 26  1  0
 26 27  2  0
 27 28  1  0
 24 29  1  0
 28 29  2  0
M  END
