x0107-x0434
     RDKit          3D

 16 17  0  0  0  0  0  0  0  0999 V2000
    9.0050    0.2650   21.5720 C   0  0  0  0  0  0  0  0  0  0  0  0
    8.8570    1.4600   21.2540 O   0  0  0  0  0  0  0  0  0  0  0  0
    7.9880   -0.6660   21.2900 N   0  0  0  0  0  0  0  0  0  0  0  0
    5.5290    0.8120   22.1910 C   0  0  0  0  0  0  0  0  0  0  0  0
    7.0570   -0.2200   20.2740 C   0  0  0  0  0  0  0  0  0  0  0  0
    5.7940    0.5570   20.7550 C   0  0  0  0  0  0  0  0  0  0  0  0
    4.8510    1.0430   19.6770 C   0  0  0  0  0  0  0  0  0  0  0  0
    5.1220    0.7930   18.3230 C   0  0  0  0  0  0  0  0  0  0  0  0
    6.2010    0.1150   17.8290 N   0  0  0  0  0  0  0  0  0  0  0  0
    7.2000   -0.4150   18.8220 C   0  0  0  0  0  0  0  0  0  0  0  0
   11.0120    0.9430   22.9180 C   0  0  0  0  0  0  0  0  0  0  0  0
   12.2690    0.6860   23.4530 C   0  0  0  0  0  0  0  0  0  0  0  0
   12.9310   -0.5140   23.3220 C   0  0  0  0  0  0  0  0  0  0  0  0
   12.4380   -1.6140   22.6420 C   0  0  0  0  0  0  0  0  0  0  0  0
   11.0440   -1.4130   22.0100 C   0  0  0  0  0  0  0  0  0  0  0  0
   10.3790   -0.0620   22.1970 C   0  0  0  0  0  0  0  0  0  0  0  0
  1  2  2  0
  1  3  1  0
  3  5  1  0
  4  6  1  0
  5  6  2  0
  6  7  1  0
  7  8  2  0
  8  9  1  0
  5 10  1  0
  9 10  2  0
 11 12  2  0
 12 13  1  0
 13 14  2  0
 14 15  1  0
  1 16  1  0
 11 16  1  0
 15 16  2  0
M  END
