x0107-x2600
     RDKit          3D

 19 20  0  0  0  0  0  0  0  0999 V2000
   14.0990   -1.4050   20.2770 N   0  0  0  0  0  0  0  0  0  0  0  0
    8.3430    0.3100   21.7400 C   0  0  0  0  0  0  0  0  0  0  0  0
    8.9830    1.2960   21.3130 O   0  0  0  0  0  0  0  0  0  0  0  0
    8.5690   -0.2870   23.1620 C   0  0  0  0  0  0  0  0  0  0  0  0
    7.3720   -0.3620   21.0530 N   0  0  0  0  0  0  0  0  0  0  0  0
   13.2990   -1.3390   21.3840 C   0  0  0  0  0  0  0  0  0  0  0  0
    5.2070    1.0410   21.8690 C   0  0  0  0  0  0  0  0  0  0  0  0
    6.2520    0.5790   17.6470 N   0  0  0  0  0  0  0  0  0  0  0  0
    6.9740    0.0160   18.7070 C   0  0  0  0  0  0  0  0  0  0  0  0
    6.6260    0.1860   20.0220 C   0  0  0  0  0  0  0  0  0  0  0  0
    5.5070    0.9280   20.3630 C   0  0  0  0  0  0  0  0  0  0  0  0
    4.7540    1.5090   19.3370 C   0  0  0  0  0  0  0  0  0  0  0  0
    5.1680    1.3090   18.0140 C   0  0  0  0  0  0  0  0  0  0  0  0
   10.5880   -0.2830   24.7010 C   0  0  0  0  0  0  0  0  0  0  0  0
   11.9490   -0.4370   24.9740 C   0  0  0  0  0  0  0  0  0  0  0  0
   12.8910   -0.8050   23.8570 C   0  0  0  0  0  0  0  0  0  0  0  0
   12.4140   -1.0110   22.4800 C   0  0  0  0  0  0  0  0  0  0  0  0
   10.9170   -0.8340   22.2740 C   0  0  0  0  0  0  0  0  0  0  0  0
   10.0400   -0.4610   23.4320 C   0  0  0  0  0  0  0  0  0  0  0  0
  2  3  2  0
  2  4  1  0
  2  5  1  0
  1  6  3  0
  8  9  2  0
  5 10  1  0
  9 10  1  0
  7 11  1  0
 10 11  2  0
 11 12  1  0
  8 13  1  0
 12 13  2  0
 14 15  2  0
 15 16  1  0
  6 17  1  0
 16 17  2  0
 17 18  1  0
  4 19  1  0
 14 19  1  0
 18 19  2  0
M  END
