x0107-x0708
     RDKit          3D

 27 29  0  0  0  0  0  0  0  0999 V2000
    6.6120   -4.7290   21.2240 N   0  0  0  0  0  0  0  0  0  0  0  0
    7.2450   -3.1520   19.3270 C   0  0  0  0  0  0  0  0  0  0  0  0
    5.0770   -4.1080   19.6640 O   0  0  0  0  0  0  0  0  0  0  0  0
    6.2170   -4.0060   20.0730 C   0  0  0  0  0  0  0  0  0  0  0  0
    7.6720   -4.3860   22.0760 N   0  0  0  0  0  0  0  0  0  0  0  0
    6.3380   -2.8190   23.3240 O   0  0  0  0  0  0  0  0  0  0  0  0
    7.5740   -3.1870   22.7340 C   0  0  0  0  0  0  0  0  0  0  0  0
    9.6050   -1.0810   23.0170 C   0  0  0  0  0  0  0  0  0  0  0  0
    8.9030   -0.2450   21.9010 C   0  0  0  0  0  0  0  0  0  0  0  0
    9.3210    0.8990   21.6640 O   0  0  0  0  0  0  0  0  0  0  0  0
    7.8210   -0.7650   21.1670 N   0  0  0  0  0  0  0  0  0  0  0  0
    5.4050    0.8950   22.1930 C   0  0  0  0  0  0  0  0  0  0  0  0
    8.7720   -2.3230   22.7870 C   0  0  0  0  0  0  0  0  0  0  0  0
   10.0490   -2.3690   22.4250 C   0  0  0  0  0  0  0  0  0  0  0  0
   11.0430   -1.5090   22.5370 C   0  0  0  0  0  0  0  0  0  0  0  0
   10.5170   -0.3240   23.2150 C   0  0  0  0  0  0  0  0  0  0  0  0
    8.8090   -0.6240   23.5580 S   0  0  0  0  0  0  0  0  0  0  0  0
   12.4970   -1.1770   22.2960 C   0  0  0  0  0  0  0  0  0  0  0  0
   13.2330    0.1070   22.6590 C   0  0  0  0  0  0  0  0  0  0  0  0
   12.6110    1.2520   23.3280 C   0  0  0  0  0  0  0  0  0  0  0  0
   11.1750    0.9690   23.6110 C   0  0  0  0  0  0  0  0  0  0  0  0
    6.9670   -0.1440   20.2730 C   0  0  0  0  0  0  0  0  0  0  0  0
    5.7700    0.6810   20.7520 C   0  0  0  0  0  0  0  0  0  0  0  0
    4.8730    1.3350   19.6600 C   0  0  0  0  0  0  0  0  0  0  0  0
    5.3040    1.0710   18.2150 C   0  0  0  0  0  0  0  0  0  0  0  0
    6.4640    0.2620   17.9170 N   0  0  0  0  0  0  0  0  0  0  0  0
    7.1890   -0.2730   18.9060 C   0  0  0  0  0  0  0  0  0  0  0  0
  1  4  1  0
  2  4  1  0
  3  4  2  0
  1  5  1  0
  5  7  1  0
  6  7  2  0
  8  9  1  0
  9 10  2  0
  9 11  1  0
  7 13  1  0
  8 14  1  0
 13 14  2  0
 14 15  1  0
 15 16  2  0
 13 17  1  0
 16 17  1  0
 15 18  1  0
 18 19  2  0
 19 20  1  0
 16 21  1  0
 20 21  2  0
 11 22  1  0
 12 23  1  0
 22 23  2  0
 23 24  1  0
 24 25  2  0
 25 26  1  0
 22 27  1  0
 26 27  2  0
M  END
