x0107-x0540
     RDKit          3D

 22 23  0  0  0  0  0  0  0  0999 V2000
    2.9060    1.4800   24.3560 O   0  0  0  0  0  0  0  0  0  0  0  0
    2.9830    2.3520   23.4910 C   0  0  0  0  0  0  0  0  0  0  0  0
    4.0810    2.5250   22.6150 N   0  0  0  0  0  0  0  0  0  0  0  0
    5.1710    1.6900   22.6460 C   0  0  0  0  0  0  0  0  0  0  0  0
    4.9330    0.3470   21.9190 C   0  0  0  0  0  0  0  0  0  0  0  0
    2.0220    3.3060   23.2270 N   0  0  0  0  0  0  0  0  0  0  0  0
    9.6890   -1.0130   22.1030 C   0  0  0  0  0  0  0  0  0  0  0  0
    8.5740   -0.2530   21.4210 C   0  0  0  0  0  0  0  0  0  0  0  0
    8.7850    0.9470   21.2560 O   0  0  0  0  0  0  0  0  0  0  0  0
    7.3760   -0.8760   20.9980 N   0  0  0  0  0  0  0  0  0  0  0  0
    6.7240   -0.3420   20.1730 C   0  0  0  0  0  0  0  0  0  0  0  0
    7.1190   -0.3220   18.8210 C   0  0  0  0  0  0  0  0  0  0  0  0
    6.2250    0.3980   17.8730 N   0  0  0  0  0  0  0  0  0  0  0  0
    4.9830    1.0630   18.2850 C   0  0  0  0  0  0  0  0  0  0  0  0
    4.6320    0.9990   19.6160 C   0  0  0  0  0  0  0  0  0  0  0  0
    5.4110    0.3480   20.5680 C   0  0  0  0  0  0  0  0  0  0  0  0
    0.6500    4.5650   24.4960 C   0  0  0  0  0  0  0  0  0  0  0  0
   -0.6590    4.8620   25.2770 C   0  0  0  0  0  0  0  0  0  0  0  0
   -1.8440    4.6070   24.3610 C   0  0  0  0  0  0  0  0  0  0  0  0
   -1.6740    3.1510   23.8700 C   0  0  0  0  0  0  0  0  0  0  0  0
   -0.4690    3.0600   22.9370 C   0  0  0  0  0  0  0  0  0  0  0  0
    0.7340    3.3140   23.8470 C   0  0  0  0  0  0  0  0  0  0  0  0
  1  2  2  0
  2  3  1  0
  3  4  1  0
  4  5  1  0
  2  6  1  0
  7  8  1  0
  8  9  2  0
  8 10  1  0
 10 11  1  0
 11 12  2  0
 12 13  1  0
 13 14  2  0
 14 15  1  0
  5 16  1  0
 11 16  1  0
 15 16  2  0
 17 18  1  0
 18 19  1  0
 19 20  1  0
 20 21  1  0
  6 22  1  0
 17 22  1  0
 21 22  1  0
M  END
