x0104-x2908
     RDKit          3D

 28 30  0  0  0  0  0  0  0  0999 V2000
    9.0990    6.6350   22.6870 C   0  0  0  0  0  0  0  0  0  0  0  0
   10.3540    6.0620   23.3210 C   0  0  0  0  0  0  0  0  0  0  0  0
   10.4940    6.3560   24.5070 O   0  0  0  0  0  0  0  0  0  0  0  0
   11.1580    5.2930   22.5180 N   0  0  0  0  0  0  0  0  0  0  0  0
   12.5310    5.3270   22.5850 C   0  0  0  0  0  0  0  0  0  0  0  0
   13.1160    3.9950   22.9850 C   0  0  0  0  0  0  0  0  0  0  0  0
   13.4250   -1.8530   21.9750 F   0  0  0  0  0  0  0  0  0  0  0  0
   12.0860    2.8520   23.1920 C   0  0  0  0  0  0  0  0  0  0  0  0
   10.8180    3.1080   23.6830 C   0  0  0  0  0  0  0  0  0  0  0  0
   10.0630    2.0010   23.7590 N   0  0  0  0  0  0  0  0  0  0  0  0
   10.8840    0.8700   23.2710 C   0  0  0  0  0  0  0  0  0  0  0  0
   12.1140    1.4050   22.9690 C   0  0  0  0  0  0  0  0  0  0  0  0
   10.5120   -0.4710   23.1250 C   0  0  0  0  0  0  0  0  0  0  0  0
   11.2170   -1.6260   22.6560 C   0  0  0  0  0  0  0  0  0  0  0  0
   12.4950   -1.0050   22.4130 C   0  0  0  0  0  0  0  0  0  0  0  0
   12.9880    0.4530   22.5480 C   0  0  0  0  0  0  0  0  0  0  0  0
    5.0630    0.9480   21.7660 C   0  0  0  0  0  0  0  0  0  0  0  0
    9.1390    0.6570   21.3420 O   0  0  0  0  0  0  0  0  0  0  0  0
    7.3320   -0.7500   21.0190 N   0  0  0  0  0  0  0  0  0  0  0  0
    8.8040   -1.0770   22.8200 N   0  0  0  0  0  0  0  0  0  0  0  0
    8.4820   -0.3170   21.6760 C   0  0  0  0  0  0  0  0  0  0  0  0
    6.3170    0.4670   17.6850 N   0  0  0  0  0  0  0  0  0  0  0  0
    6.9580   -0.1710   18.7000 C   0  0  0  0  0  0  0  0  0  0  0  0
    6.6340   -0.0830   20.0610 C   0  0  0  0  0  0  0  0  0  0  0  0
    5.5470    0.7370   20.3650 C   0  0  0  0  0  0  0  0  0  0  0  0
    4.8740    1.4010   19.3310 C   0  0  0  0  0  0  0  0  0  0  0  0
    5.2830    1.2470   18.0030 C   0  0  0  0  0  0  0  0  0  0  0  0
    9.7930   -2.0370   22.9830 C   0  0  0  0  0  0  0  0  0  0  0  0
  1  2  1  0
  2  3  2  0
  2  4  1  0
  4  5  1  0
  5  6  1  0
  6  8  1  0
  8  9  2  0
  9 10  1  0
 10 11  1  0
  8 12  1  0
 11 12  2  0
 11 13  1  0
 13 14  2  0
  7 15  1  0
 14 15  1  0
 12 16  1  0
 15 16  2  0
 18 21  2  0
 19 21  1  0
 20 21  1  0
 22 23  2  0
 19 24  1  0
 23 24  1  0
 17 25  1  0
 24 25  2  0
 25 26  1  0
 22 27  1  0
 26 27  2  0
 14 28  1  0
 20 28  1  0
M  END
