x0107-x0678
     RDKit          3D

 17 18  0  0  0  0  0  0  0  0999 V2000
    9.8800   -1.6880   22.2400 C   0  0  0  0  0  0  0  0  0  0  0  0
    8.9560   -0.5490   21.6750 C   0  0  0  0  0  0  0  0  0  0  0  0
    9.3730    0.5950   21.5160 O   0  0  0  0  0  0  0  0  0  0  0  0
    7.6630   -0.9480   21.3830 N   0  0  0  0  0  0  0  0  0  0  0  0
    5.3440    0.7730   22.0850 C   0  0  0  0  0  0  0  0  0  0  0  0
    6.9280   -0.3140   20.2840 C   0  0  0  0  0  0  0  0  0  0  0  0
    5.7560    0.5560   20.6450 C   0  0  0  0  0  0  0  0  0  0  0  0
    5.0360    1.1790   19.6180 C   0  0  0  0  0  0  0  0  0  0  0  0
    5.3080    1.0660   18.2550 C   0  0  0  0  0  0  0  0  0  0  0  0
    6.3250    0.3130   17.8240 N   0  0  0  0  0  0  0  0  0  0  0  0
    7.1540   -0.3930   18.8130 C   0  0  0  0  0  0  0  0  0  0  0  0
   11.3260   -1.2940   22.2620 C   0  0  0  0  0  0  0  0  0  0  0  0
   12.2830   -2.1680   22.7760 C   0  0  0  0  0  0  0  0  0  0  0  0
   13.2450   -1.4910   23.5260 C   0  0  0  0  0  0  0  0  0  0  0  0
   12.5240   -1.0820   24.8230 C   0  0  0  0  0  0  0  0  0  0  0  0
   11.1990   -0.4310   24.4750 C   0  0  0  0  0  0  0  0  0  0  0  0
   11.4160   -0.1100   22.9830 C   0  0  0  0  0  0  0  0  0  0  0  0
  1  2  1  0
  2  3  2  0
  2  4  1  0
  4  6  1  0
  5  7  1  0
  6  7  2  0
  7  8  1  0
  8  9  2  0
  9 10  1  0
  6 11  1  0
 10 11  2  0
  1 12  1  0
 12 13  1  0
 13 14  1  0
 14 15  1  0
 15 16  1  0
 12 17  1  0
 16 17  1  0
M  END
