x0107-x0426
     RDKit          3D

 23 24  0  0  0  0  0  0  0  0999 V2000
    2.3750    1.6610   23.7600 C   0  0  0  0  0  0  0  0  0  0  0  0
    2.2970    0.4230   23.7570 O   0  0  0  0  0  0  0  0  0  0  0  0
    3.4020    2.3750   23.1060 N   0  0  0  0  0  0  0  0  0  0  0  0
    4.4130    1.7290   22.4420 C   0  0  0  0  0  0  0  0  0  0  0  0
    3.9040    0.8920   21.2480 C   0  0  0  0  0  0  0  0  0  0  0  0
    2.7670    4.3880   25.2860 F   0  0  0  0  0  0  0  0  0  0  0  0
    1.5560    3.8360   25.2430 C   0  0  0  0  0  0  0  0  0  0  0  0
    1.2810    2.5410   24.5400 C   0  0  0  0  0  0  0  0  0  0  0  0
   -0.0230    2.0700   24.5660 C   0  0  0  0  0  0  0  0  0  0  0  0
   -1.0860    2.7150   25.1970 C   0  0  0  0  0  0  0  0  0  0  0  0
   -0.8240    3.9300   25.8560 C   0  0  0  0  0  0  0  0  0  0  0  0
    0.4790    4.4760   25.8750 C   0  0  0  0  0  0  0  0  0  0  0  0
    6.0870   -0.0840   20.1040 C   0  0  0  0  0  0  0  0  0  0  0  0
    6.8210   -0.0910   18.9340 C   0  0  0  0  0  0  0  0  0  0  0  0
    6.4170    0.6840   17.7630 N   0  0  0  0  0  0  0  0  0  0  0  0
    5.2410    1.5220   17.7080 C   0  0  0  0  0  0  0  0  0  0  0  0
    4.3490    1.6110   18.9150 C   0  0  0  0  0  0  0  0  0  0  0  0
    4.8200    0.7660   20.1260 C   0  0  0  0  0  0  0  0  0  0  0  0
    9.8350   -0.7790   22.1270 C   0  0  0  0  0  0  0  0  0  0  0  0
    8.7860    0.2660   21.7420 C   0  0  0  0  0  0  0  0  0  0  0  0
    9.0420    1.3250   21.1600 O   0  0  0  0  0  0  0  0  0  0  0  0
    7.4200   -0.1700   22.1930 N   0  0  0  0  0  0  0  0  0  0  0  0
    6.6500   -0.9280   21.2000 C   0  0  0  0  0  0  0  0  0  0  0  0
  1  2  2  0
  1  3  1  0
  3  4  1  0
  4  5  1  0
  6  7  1  0
  1  8  1  0
  7  8  2  0
  8  9  1  0
  9 10  2  0
 10 11  1  0
  7 12  1  0
 11 12  2  0
 13 14  2  0
 14 15  1  0
 15 16  2  0
 16 17  1  0
  5 18  1  0
 13 18  1  0
 17 18  2  0
 19 20  1  0
 20 21  2  0
 20 22  1  0
 13 23  1  0
 22 23  1  0
M  END
