x0104-x2779
     RDKit          3D

 26 28  0  0  0  0  0  0  0  0999 V2000
    9.1110    6.5030   22.6450 C   0  0  0  0  0  0  0  0  0  0  0  0
   10.3580    6.0860   23.4060 C   0  0  0  0  0  0  0  0  0  0  0  0
   10.2630    6.2320   24.6220 O   0  0  0  0  0  0  0  0  0  0  0  0
   11.4170    5.6090   22.6790 N   0  0  0  0  0  0  0  0  0  0  0  0
   12.4700    4.9290   23.2900 C   0  0  0  0  0  0  0  0  0  0  0  0
   12.6690    3.5480   22.7020 C   0  0  0  0  0  0  0  0  0  0  0  0
   13.6420   -1.8780   21.9170 F   0  0  0  0  0  0  0  0  0  0  0  0
    7.3900   -2.9770   18.7330 C   0  0  0  0  0  0  0  0  0  0  0  0
    5.5070   -4.0430   19.7350 O   0  0  0  0  0  0  0  0  0  0  0  0
    6.4680   -3.2620   19.8730 C   0  0  0  0  0  0  0  0  0  0  0  0
    9.5170   -1.9160   24.0160 C   0  0  0  0  0  0  0  0  0  0  0  0
   11.7300    2.4530   23.1780 C   0  0  0  0  0  0  0  0  0  0  0  0
   10.4210    2.7340   23.8800 C   0  0  0  0  0  0  0  0  0  0  0  0
    9.8260    1.5170   24.1250 N   0  0  0  0  0  0  0  0  0  0  0  0
   10.6680    0.4400   23.6180 C   0  0  0  0  0  0  0  0  0  0  0  0
   11.8270    1.0600   23.0680 C   0  0  0  0  0  0  0  0  0  0  0  0
   10.5680   -1.1210   23.5530 C   0  0  0  0  0  0  0  0  0  0  0  0
   11.6010   -1.7800   22.9750 C   0  0  0  0  0  0  0  0  0  0  0  0
   12.7050   -1.1480   22.4650 C   0  0  0  0  0  0  0  0  0  0  0  0
   12.8310    0.2420   22.5170 C   0  0  0  0  0  0  0  0  0  0  0  0
    6.7780   -2.6420   21.0940 N   0  0  0  0  0  0  0  0  0  0  0  0
    7.6490   -1.6000   21.0230 C   0  0  0  0  0  0  0  0  0  0  0  0
    8.8470   -1.6930   21.7060 C   0  0  0  0  0  0  0  0  0  0  0  0
    8.5270   -2.0170   23.1040 N   0  0  0  0  0  0  0  0  0  0  0  0
    7.7620   -3.2560   23.2160 C   0  0  0  0  0  0  0  0  0  0  0  0
    6.6430   -3.2100   22.3270 C   0  0  0  0  0  0  0  0  0  0  0  0
  1  2  1  0
  2  3  2  0
  2  4  1  0
  4  5  1  0
  5  6  1  0
  8 10  1  0
  9 10  2  0
  6 12  1  0
 12 13  2  0
 13 14  1  0
 14 15  1  0
 12 16  1  0
 15 16  2  0
 11 17  1  0
 15 17  1  0
 17 18  2  0
  7 19  1  0
 18 19  1  0
 16 20  1  0
 19 20  2  0
 10 21  1  0
 21 22  1  0
 22 23  1  0
 11 24  1  0
 23 24  1  0
 24 25  1  0
 21 26  1  0
 25 26  1  0
M  END
