x0107-x0691
     RDKit          3D

 33 35  0  0  0  0  0  0  0  0999 V2000
    3.7160   -7.0030   25.9860 O   0  0  0  0  0  0  0  0  0  0  0  0
    5.7510   -5.3520   26.9540 O   0  0  0  0  0  0  0  0  0  0  0  0
    5.4450   -4.6430   19.9580 O   0  0  0  0  0  0  0  0  0  0  0  0
    6.4490   -4.5340   20.6790 C   0  0  0  0  0  0  0  0  0  0  0  0
    7.6380   -3.6210   20.3750 C   0  0  0  0  0  0  0  0  0  0  0  0
    3.6670   -0.5940   26.0090 O   0  0  0  0  0  0  0  0  0  0  0  0
    4.6270   -5.6530   25.8680 S   0  0  0  0  0  0  0  0  0  0  0  0
   10.0140   -0.7550   22.3630 C   0  0  0  0  0  0  0  0  0  0  0  0
    8.9120    0.0660   21.5900 C   0  0  0  0  0  0  0  0  0  0  0  0
    9.1200    1.4430   21.2570 O   0  0  0  0  0  0  0  0  0  0  0  0
    7.7890   -0.6980   21.2870 N   0  0  0  0  0  0  0  0  0  0  0  0
    5.3590    0.8680   22.2430 C   0  0  0  0  0  0  0  0  0  0  0  0
    3.8190    0.0670   24.9730 C   0  0  0  0  0  0  0  0  0  0  0  0
    5.1030   -0.1750   24.4460 C   0  0  0  0  0  0  0  0  0  0  0  0
    5.2320   -0.4510   23.0690 C   0  0  0  0  0  0  0  0  0  0  0  0
    3.2210   -1.8860   25.9240 C   0  0  0  0  0  0  0  0  0  0  0  0
    4.0530   -3.0030   25.9300 C   0  0  0  0  0  0  0  0  0  0  0  0
    3.5670   -4.3100   25.8440 C   0  0  0  0  0  0  0  0  0  0  0  0
    2.0490   -4.5780   25.7320 C   0  0  0  0  0  0  0  0  0  0  0  0
    1.0960   -3.3970   25.7220 C   0  0  0  0  0  0  0  0  0  0  0  0
    1.8320   -2.0380   25.8330 C   0  0  0  0  0  0  0  0  0  0  0  0
    6.5670   -5.2580   21.8630 N   0  0  0  0  0  0  0  0  0  0  0  0
    5.6810   -6.3980   22.0480 C   0  0  0  0  0  0  0  0  0  0  0  0
    4.6470   -5.9890   23.0990 C   0  0  0  0  0  0  0  0  0  0  0  0
    5.3620   -5.6030   24.3530 N   0  0  0  0  0  0  0  0  0  0  0  0
    6.2610   -4.4920   24.0980 C   0  0  0  0  0  0  0  0  0  0  0  0
    7.2930   -4.7190   23.0020 C   0  0  0  0  0  0  0  0  0  0  0  0
    6.8940   -0.1380   20.2490 C   0  0  0  0  0  0  0  0  0  0  0  0
    5.6770    0.6510   20.7690 C   0  0  0  0  0  0  0  0  0  0  0  0
    4.8100    1.2070   19.6500 C   0  0  0  0  0  0  0  0  0  0  0  0
    5.2460    0.9200   18.2220 C   0  0  0  0  0  0  0  0  0  0  0  0
    6.3240    0.2140   17.8840 N   0  0  0  0  0  0  0  0  0  0  0  0
    7.0990   -0.2860   18.8710 C   0  0  0  0  0  0  0  0  0  0  0  0
  3  4  2  0
  4  5  1  0
  1  7  2  0
  2  7  2  0
  8  9  1  0
  9 10  2  0
  9 11  1  0
  6 13  1  0
 13 14  1  0
 12 15  1  0
 14 15  1  0
  6 16  1  0
 16 17  2  0
  7 18  1  0
 17 18  1  0
 18 19  2  0
 19 20  1  0
 16 21  1  0
 20 21  2  0
  4 22  1  0
 22 23  1  0
 23 24  1  0
  7 25  1  0
 24 25  1  0
 25 26  1  0
 22 27  1  0
 26 27  1  0
 11 28  1  0
 12 29  1  0
 28 29  2  0
 29 30  1  0
 30 31  2  0
 31 32  1  0
 28 33  1  0
 32 33  2  0
M  END
