x0107-x2608
     RDKit          3D

 17 18  0  0  0  0  0  0  0  0999 V2000
    8.6460   -1.2080   22.3570 N   0  0  0  0  0  0  0  0  0  0  0  0
   13.0350    1.6690   22.9420 C   0  0  0  0  0  0  0  0  0  0  0  0
    8.4110    0.7410   21.2010 O   0  0  0  0  0  0  0  0  0  0  0  0
    6.9360   -0.9460   20.8130 N   0  0  0  0  0  0  0  0  0  0  0  0
    8.0190   -0.4080   21.4440 C   0  0  0  0  0  0  0  0  0  0  0  0
    5.0070    0.8190   21.8380 C   0  0  0  0  0  0  0  0  0  0  0  0
   12.0670    0.6030   22.8940 C   0  0  0  0  0  0  0  0  0  0  0  0
   12.2330   -0.8590   23.1010 C   0  0  0  0  0  0  0  0  0  0  0  0
   11.0900   -1.5820   22.9470 C   0  0  0  0  0  0  0  0  0  0  0  0
    9.9630   -0.8410   22.6250 C   0  0  0  0  0  0  0  0  0  0  0  0
   10.4340    0.9460   22.5520 S   0  0  0  0  0  0  0  0  0  0  0  0
    5.9350    0.4980   17.7140 N   0  0  0  0  0  0  0  0  0  0  0  0
    6.4560   -0.1540   18.5400 C   0  0  0  0  0  0  0  0  0  0  0  0
    6.1810   -0.0820   19.9010 C   0  0  0  0  0  0  0  0  0  0  0  0
    5.2450    0.7750   20.4310 C   0  0  0  0  0  0  0  0  0  0  0  0
    4.5870    1.5670   19.5190 C   0  0  0  0  0  0  0  0  0  0  0  0
    5.0060    1.3780   18.0510 C   0  0  0  0  0  0  0  0  0  0  0  0
  1  5  1  0
  3  5  2  0
  4  5  1  0
  2  7  1  0
  7  8  2  0
  8  9  1  0
  1 10  1  0
  9 10  2  0
  7 11  1  0
 10 11  1  0
 12 13  2  0
  4 14  1  0
 13 14  1  0
  6 15  1  0
 14 15  2  0
 15 16  1  0
 12 17  1  0
 16 17  2  0
M  END
