x0104-x1412
     RDKit          3D

 34 37  0  0  0  0  0  0  0  0999 V2000
    9.0240    6.5160   22.6250 C   0  0  0  0  0  0  0  0  0  0  0  0
   10.2640    6.1220   23.4070 C   0  0  0  0  0  0  0  0  0  0  0  0
   10.1390    6.2320   24.6240 O   0  0  0  0  0  0  0  0  0  0  0  0
   11.3560    5.7030   22.6980 N   0  0  0  0  0  0  0  0  0  0  0  0
   12.4460    5.1360   23.3420 C   0  0  0  0  0  0  0  0  0  0  0  0
   12.8270    3.8110   22.7480 C   0  0  0  0  0  0  0  0  0  0  0  0
   13.5940   -1.9310   21.7800 F   0  0  0  0  0  0  0  0  0  0  0  0
    7.3370   -3.0330   18.8520 C   0  0  0  0  0  0  0  0  0  0  0  0
    5.3480   -4.0730   19.6930 O   0  0  0  0  0  0  0  0  0  0  0  0
    6.3600   -3.4110   19.9250 C   0  0  0  0  0  0  0  0  0  0  0  0
    8.4720   -1.3530   25.6040 N   0  0  0  0  0  0  0  0  0  0  0  0
    8.3070   -2.6720   24.9100 C   0  0  0  0  0  0  0  0  0  0  0  0
    9.3910    0.1890   24.0150 C   0  0  0  0  0  0  0  0  0  0  0  0
    8.3170   -0.1190   25.0330 C   0  0  0  0  0  0  0  0  0  0  0  0
   11.9540    2.6460   23.0820 C   0  0  0  0  0  0  0  0  0  0  0  0
   10.6930    2.7180   23.6960 C   0  0  0  0  0  0  0  0  0  0  0  0
    9.8950    1.5510   23.9380 N   0  0  0  0  0  0  0  0  0  0  0  0
   10.8550    0.7450   23.3940 C   0  0  0  0  0  0  0  0  0  0  0  0
   12.0110    1.2160   22.9230 C   0  0  0  0  0  0  0  0  0  0  0  0
   10.6530   -0.5880   23.3050 C   0  0  0  0  0  0  0  0  0  0  0  0
   11.5490   -1.5230   22.7540 C   0  0  0  0  0  0  0  0  0  0  0  0
   12.7530   -1.0630   22.2920 C   0  0  0  0  0  0  0  0  0  0  0  0
   13.0090    0.2630   22.3760 C   0  0  0  0  0  0  0  0  0  0  0  0
    6.6500   -3.0520   21.2380 N   0  0  0  0  0  0  0  0  0  0  0  0
    7.6300   -1.9690   21.4900 C   0  0  0  0  0  0  0  0  0  0  0  0
    8.5880   -2.2800   22.5030 C   0  0  0  0  0  0  0  0  0  0  0  0
    7.9380   -2.8250   23.5910 N   0  0  0  0  0  0  0  0  0  0  0  0
    7.4530   -4.0120   23.2380 C   0  0  0  0  0  0  0  0  0  0  0  0
    6.4480   -4.0350   22.2900 C   0  0  0  0  0  0  0  0  0  0  0  0
    9.3860   -5.0000   25.3940 C   0  0  0  0  0  0  0  0  0  0  0  0
    8.5560   -3.9240   25.7340 C   0  0  0  0  0  0  0  0  0  0  0  0
    7.8020   -4.1560   27.2780 S   0  0  0  0  0  0  0  0  0  0  0  0
    8.5710   -5.6430   27.4720 C   0  0  0  0  0  0  0  0  0  0  0  0
    9.3860   -5.9850   26.4060 C   0  0  0  0  0  0  0  0  0  0  0  0
  1  2  1  0
  2  3  2  0
  2  4  1  0
  4  5  1  0
  5  6  1  0
  8 10  1  0
  9 10  2  0
 11 12  2  3
 11 14  1  0
 13 14  1  0
  6 15  1  0
 15 16  2  0
 13 17  1  0
 16 17  1  0
 17 18  1  0
 15 19  1  0
 18 19  2  0
 18 20  1  0
 20 21  2  0
  7 22  1  0
 21 22  1  0
 19 23  1  0
 22 23  2  0
 10 24  1  0
 24 25  1  0
 25 26  1  0
 12 27  1  0
 26 27  1  0
 27 28  1  0
 24 29  1  0
 28 29  1  0
 12 31  1  0
 30 31  2  0
 31 32  1  0
 32 33  1  0
 30 34  1  0
 33 34  2  0
M  END
