x0107-x1402
     RDKit          3D

 31 33  0  0  0  0  0  0  0  0999 V2000
    7.2180   -3.3990   19.6230 C   0  0  0  0  0  0  0  0  0  0  0  0
    5.2000   -4.6770   19.9120 O   0  0  0  0  0  0  0  0  0  0  0  0
    0.7150   -1.2760   26.1200 Cl  0  0  0  0  0  0  0  0  0  0  0  0
    6.2900   -4.3860   20.3630 C   0  0  0  0  0  0  0  0  0  0  0  0
    3.9800   -6.5190   25.7480 O   0  0  0  0  0  0  0  0  0  0  0  0
    6.0500   -5.2630   26.7870 O   0  0  0  0  0  0  0  0  0  0  0  0
    4.9450   -5.2540   25.6490 S   0  0  0  0  0  0  0  0  0  0  0  0
   10.1480   -1.0490   22.2180 C   0  0  0  0  0  0  0  0  0  0  0  0
    8.9810   -0.1240   21.7010 C   0  0  0  0  0  0  0  0  0  0  0  0
    9.2160    1.0640   21.4750 O   0  0  0  0  0  0  0  0  0  0  0  0
    7.7420   -0.7490   21.5450 N   0  0  0  0  0  0  0  0  0  0  0  0
    5.2740    0.8510   22.2400 C   0  0  0  0  0  0  0  0  0  0  0  0
    6.7030   -2.8400   22.3760 C   0  0  0  0  0  0  0  0  0  0  0  0
    7.8500   -2.1330   21.9540 C   0  0  0  0  0  0  0  0  0  0  0  0
    6.7020   -5.0060   21.5490 N   0  0  0  0  0  0  0  0  0  0  0  0
    7.2050   -4.1200   22.6180 C   0  0  2  0  0  0  0  0  0  0  0  0
    6.9310   -4.6350   23.9040 C   0  0  0  0  0  0  0  0  0  0  0  0
    5.6550   -5.1840   24.1030 N   0  0  0  0  0  0  0  0  0  0  0  0
    5.1410   -5.8490   23.1180 C   0  0  0  0  0  0  0  0  0  0  0  0
    5.9480   -6.1800   22.0320 C   0  0  0  0  0  0  0  0  0  0  0  0
    2.2870   -3.8430   25.7780 S   0  0  0  0  0  0  0  0  0  0  0  0
    4.0240   -3.8770   25.8190 C   0  0  0  0  0  0  0  0  0  0  0  0
    4.6920   -2.5290   26.0270 C   0  0  0  0  0  0  0  0  0  0  0  0
    3.5640   -1.5110   26.1440 C   0  0  0  0  0  0  0  0  0  0  0  0
    2.1920   -2.1440   26.0220 C   0  0  0  0  0  0  0  0  0  0  0  0
    6.8930   -0.2430   20.4160 C   0  0  0  0  0  0  0  0  0  0  0  0
    5.6390    0.5810   20.7720 C   0  0  0  0  0  0  0  0  0  0  0  0
    4.8710    1.0570   19.5150 C   0  0  0  0  0  0  0  0  0  0  0  0
    5.3340    0.7330   18.2500 C   0  0  0  0  0  0  0  0  0  0  0  0
    6.4380    0.0030   18.0160 N   0  0  0  0  0  0  0  0  0  0  0  0
    7.1720   -0.4610   19.0670 C   0  0  0  0  0  0  0  0  0  0  0  0
  1  4  1  0
  2  4  2  0
  5  7  2  0
  6  7  2  0
  8  9  1  0
  9 10  2  0
  9 11  1  0
 11 14  1  0
 13 14  1  0
  4 15  1  0
 16 13  1  1
 15 16  1  0
 16 17  1  0
  7 18  1  0
 17 18  1  0
 18 19  1  0
 15 20  1  0
 19 20  1  0
  7 22  1  0
 21 22  1  0
 22 23  2  0
 23 24  1  0
  3 25  1  0
 21 25  1  0
 24 25  2  0
 11 26  1  0
 12 27  1  0
 26 27  2  0
 27 28  1  0
 28 29  2  0
 29 30  1  0
 26 31  1  0
 30 31  2  0
M  END
