x0107-x2643
     RDKit          3D

 17 19  0  0  0  0  0  0  0  0999 V2000
    7.0060   -1.0000   20.5930 N   0  0  0  0  0  0  0  0  0  0  0  0
    7.4230    0.2890   22.5090 N   0  0  0  0  0  0  0  0  0  0  0  0
   13.5200    0.1620   22.9060 Cl  0  0  0  0  0  0  0  0  0  0  0  0
    8.1490   -1.1600   22.8700 C   0  0  1  0  0  0  0  0  0  0  0  0
    7.4560   -0.6740   21.8090 C   0  0  0  0  0  0  0  0  0  0  0  0
    4.9450    0.6980   21.5500 C   0  0  0  0  0  0  0  0  0  0  0  0
   11.9130   -0.0440   23.1400 C   0  0  0  0  0  0  0  0  0  0  0  0
   10.9970    0.6870   24.0360 C   0  0  0  0  0  0  0  0  0  0  0  0
    9.7280    0.2880   23.9570 C   0  0  0  0  0  0  0  0  0  0  0  0
    9.5140   -0.7250   23.0540 C   0  0  0  0  0  0  0  0  0  0  0  0
   11.0820   -1.2510   22.2470 S   0  0  0  0  0  0  0  0  0  0  0  0
    6.2650    0.6250   17.6120 N   0  0  0  0  0  0  0  0  0  0  0  0
    6.7360   -0.0720   18.4270 C   0  0  0  0  0  0  0  0  0  0  0  0
    6.3430   -0.1010   19.7320 C   0  0  0  0  0  0  0  0  0  0  0  0
    5.3330    0.7260   20.1780 C   0  0  0  0  0  0  0  0  0  0  0  0
    4.7180    1.5750   19.2700 C   0  0  0  0  0  0  0  0  0  0  0  0
    5.2840    1.4730   17.8450 C   0  0  0  0  0  0  0  0  0  0  0  0
  2  4  1  0
  1  5  1  0
  2  5  2  0
  4  5  1  0
  3  7  1  0
  7  8  2  0
  8  9  1  0
  4 10  1  6
  9 10  2  0
  7 11  1  0
 10 11  1  0
 12 13  2  0
  1 14  1  0
 13 14  1  0
  6 15  1  0
 14 15  2  0
 15 16  1  0
 12 17  1  0
 16 17  2  0
M  END
