x0104-x0354
     RDKit          3D

 29 31  0  0  0  0  0  0  0  0999 V2000
    9.0320    6.5630   22.5950 C   0  0  0  0  0  0  0  0  0  0  0  0
   10.2510    6.1530   23.3990 C   0  0  0  0  0  0  0  0  0  0  0  0
   10.1320    6.3430   24.6040 O   0  0  0  0  0  0  0  0  0  0  0  0
   11.3240    5.6290   22.7310 N   0  0  0  0  0  0  0  0  0  0  0  0
   12.2790    4.9220   23.4480 C   0  0  0  0  0  0  0  0  0  0  0  0
   12.6060    3.6000   22.8070 C   0  0  0  0  0  0  0  0  0  0  0  0
   13.5170   -2.1030   21.7520 F   0  0  0  0  0  0  0  0  0  0  0  0
   11.7320    2.4070   23.2180 C   0  0  0  0  0  0  0  0  0  0  0  0
   10.5220    2.5440   23.8990 C   0  0  0  0  0  0  0  0  0  0  0  0
    9.9030    1.3440   24.1050 N   0  0  0  0  0  0  0  0  0  0  0  0
   10.7780    0.3210   23.5120 C   0  0  0  0  0  0  0  0  0  0  0  0
   11.9080    0.9850   23.0000 C   0  0  0  0  0  0  0  0  0  0  0  0
   10.5470   -1.0590   23.4500 C   0  0  0  0  0  0  0  0  0  0  0  0
   11.4810   -1.8920   22.8370 C   0  0  0  0  0  0  0  0  0  0  0  0
   12.6330   -1.3220   22.3270 C   0  0  0  0  0  0  0  0  0  0  0  0
   12.8860    0.1820   22.4150 C   0  0  0  0  0  0  0  0  0  0  0  0
    8.3390   -2.4000   25.3010 O   0  0  0  0  0  0  0  0  0  0  0  0
    7.4070   -0.4190   27.4460 O   0  0  0  0  0  0  0  0  0  0  0  0
    8.6090   -1.3160   25.8090 C   0  0  0  0  0  0  0  0  0  0  0  0
    8.6760   -0.2940   26.7730 C   0  0  1  0  0  0  0  0  0  0  0  0
    5.5450    3.7050   30.9460 C   0  0  0  0  0  0  0  0  0  0  0  0
    7.6650    1.9890   28.3190 C   0  0  0  0  0  0  0  0  0  0  0  0
    7.1000    2.8660   29.2080 C   0  0  0  0  0  0  0  0  0  0  0  0
    6.0160    2.6080   30.0340 C   0  0  0  0  0  0  0  0  0  0  0  0
    5.4040    1.3340   29.9870 C   0  0  0  0  0  0  0  0  0  0  0  0
    5.9110    0.3660   29.1070 C   0  0  0  0  0  0  0  0  0  0  0  0
    7.0120    0.6010   28.2580 C   0  0  0  0  0  0  0  0  0  0  0  0
    8.6570    1.0670   24.7320 C   0  0  0  0  0  0  0  0  0  0  0  0
    8.7360    1.1060   26.1300 C   0  0  0  0  0  0  0  0  0  0  0  0
  1  2  1  0
  2  3  2  0
  2  4  1  0
  4  5  1  0
  5  6  1  0
  6  8  1  0
  8  9  2  0
  9 10  1  0
 10 11  1  0
  8 12  1  0
 11 12  2  0
 11 13  1  0
 13 14  2  0
  7 15  1  0
 14 15  1  0
 12 16  1  0
 15 16  2  0
 17 19  2  0
 18 20  1  0
 20 19  1  6
 22 23  2  0
 21 24  1  0
 23 24  1  0
 24 25  2  0
 25 26  1  0
 18 27  1  0
 22 27  1  0
 26 27  2  0
 10 28  1  0
 20 29  1  0
 28 29  1  0
M  END
