x0107-x1336
     RDKit          3D

 31 33  0  0  0  0  0  0  0  0999 V2000
    6.0410   -5.2900   28.8360 C   0  0  0  0  0  0  0  0  0  0  0  0
    8.8000   -0.9190   25.2820 O   0  0  0  0  0  0  0  0  0  0  0  0
    6.0990   -1.0890   25.8950 O   0  0  0  0  0  0  0  0  0  0  0  0
    5.4040   -4.2340   19.7930 O   0  0  0  0  0  0  0  0  0  0  0  0
    9.9760   -3.2550   24.7730 C   0  0  0  0  0  0  0  0  0  0  0  0
    6.4980   -3.7060   20.0130 C   0  0  0  0  0  0  0  0  0  0  0  0
    7.3810   -3.1390   18.9120 C   0  0  0  0  0  0  0  0  0  0  0  0
    7.3920   -1.7390   25.2300 S   0  0  0  0  0  0  0  0  0  0  0  0
   10.1060   -0.4350   22.2280 C   0  0  0  0  0  0  0  0  0  0  0  0
    8.9810    0.2420   21.7260 C   0  0  0  0  0  0  0  0  0  0  0  0
    9.0960    1.3970   21.2670 O   0  0  0  0  0  0  0  0  0  0  0  0
    7.7390   -0.4220   21.7480 N   0  0  0  0  0  0  0  0  0  0  0  0
    5.3570    0.9000   22.2910 C   0  0  0  0  0  0  0  0  0  0  0  0
    7.0550   -4.8300   27.8300 C   0  0  0  0  0  0  0  0  0  0  0  0
    6.8260   -3.6740   27.0630 C   0  0  0  0  0  0  0  0  0  0  0  0
    7.7590   -3.2080   26.1110 C   0  0  0  0  0  0  0  0  0  0  0  0
    8.9940   -3.8260   25.8200 C   0  0  0  0  0  0  0  0  0  0  0  0
    9.2580   -5.1060   26.6550 C   0  0  0  0  0  0  0  0  0  0  0  0
    8.2210   -5.5580   27.6650 C   0  0  0  0  0  0  0  0  0  0  0  0
    7.0580   -3.6390   21.2890 N   0  0  0  0  0  0  0  0  0  0  0  0
    6.3850   -4.0520   22.3630 C   0  0  0  0  0  0  0  0  0  0  0  0
    5.9650   -2.9460   23.3340 C   0  0  0  0  0  0  0  0  0  0  0  0
    6.9860   -2.0180   23.5850 N   0  0  0  0  0  0  0  0  0  0  0  0
    7.7930   -1.7080   22.5540 C   0  0  1  0  0  0  0  0  0  0  0  0
    8.1980   -2.8170   21.6240 C   0  0  0  0  0  0  0  0  0  0  0  0
    6.8880   -0.1120   20.5680 C   0  0  0  0  0  0  0  0  0  0  0  0
    5.7060    0.5660   20.8610 C   0  0  0  0  0  0  0  0  0  0  0  0
    4.7880    0.9580   19.6910 C   0  0  0  0  0  0  0  0  0  0  0  0
    5.3210    0.5370   18.3450 C   0  0  0  0  0  0  0  0  0  0  0  0
    6.4330   -0.1040   18.1220 N   0  0  0  0  0  0  0  0  0  0  0  0
    7.1940   -0.4220   19.2220 C   0  0  0  0  0  0  0  0  0  0  0  0
  4  6  2  0
  6  7  1  0
  2  8  2  0
  3  8  2  0
  9 10  1  0
 10 11  2  0
 10 12  1  0
  1 14  1  0
 14 15  2  0
  8 16  1  0
 15 16  1  0
  5 17  1  0
 16 17  2  0
 17 18  1  0
 14 19  1  0
 18 19  2  0
  6 20  1  0
 20 21  1  0
 21 22  1  0
  8 23  1  0
 22 23  1  0
 24 12  1  6
 23 24  1  0
 20 25  1  0
 24 25  1  0
 12 26  1  0
 13 27  1  0
 26 27  2  0
 27 28  1  0
 28 29  2  0
 29 30  1  0
 26 31  1  0
 30 31  2  0
M  END
