x0107-x0395
     RDKit          3D

 25 27  0  0  0  0  0  0  0  0999 V2000
    9.0950    0.2250   21.6800 C   0  0  0  0  0  0  0  0  0  0  0  0
    9.1230    1.4020   21.2670 O   0  0  0  0  0  0  0  0  0  0  0  0
    8.0430   -0.6400   21.2810 N   0  0  0  0  0  0  0  0  0  0  0  0
    5.6140    0.8820   22.2150 C   0  0  0  0  0  0  0  0  0  0  0  0
   13.5150   -1.5540   21.7130 F   0  0  0  0  0  0  0  0  0  0  0  0
    7.1000   -0.1800   20.2800 C   0  0  0  0  0  0  0  0  0  0  0  0
    5.8530    0.6140   20.7760 C   0  0  0  0  0  0  0  0  0  0  0  0
    4.8970    1.1030   19.7120 C   0  0  0  0  0  0  0  0  0  0  0  0
    5.1410    0.8400   18.3540 C   0  0  0  0  0  0  0  0  0  0  0  0
    6.2020    0.1440   17.8510 N   0  0  0  0  0  0  0  0  0  0  0  0
    7.2130   -0.3870   18.8310 C   0  0  0  0  0  0  0  0  0  0  0  0
   10.5590    0.3760   23.7210 C   0  0  0  0  0  0  0  0  0  0  0  0
   11.6760    1.1590   23.3810 C   0  0  0  0  0  0  0  0  0  0  0  0
   12.7370    0.4150   22.8530 C   0  0  0  0  0  0  0  0  0  0  0  0
   12.5380   -0.8220   22.2380 C   0  0  0  0  0  0  0  0  0  0  0  0
   11.0700   -1.2790   22.2010 C   0  0  2  0  0  0  0  0  0  0  0  0
   10.1290   -0.2960   22.5650 N   0  0  0  0  0  0  0  0  0  0  0  0
    9.1450   -5.6010   26.7340 C   0  0  0  0  0  0  0  0  0  0  0  0
    8.8420   -4.2970   25.9520 C   0  0  0  0  0  0  0  0  0  0  0  0
    7.9650   -3.2300   26.3820 N   0  0  0  0  0  0  0  0  0  0  0  0
    7.9000   -2.2370   25.5220 N   0  0  0  0  0  0  0  0  0  0  0  0
    8.7320   -2.5880   24.4690 C   0  0  0  0  0  0  0  0  0  0  0  0
    9.6600   -4.1370   24.4130 S   0  0  0  0  0  0  0  0  0  0  0  0
   11.0710   -2.3080   23.0990 C   0  0  0  0  0  0  0  0  0  0  0  0
    9.7290   -3.0120   23.2060 C   0  0  0  0  0  0  0  0  0  0  0  0
  1  2  2  0
  1  3  1  0
  3  6  1  0
  4  7  1  0
  6  7  2  0
  7  8  1  0
  8  9  2  0
  9 10  1  0
  6 11  1  0
 10 11  2  0
 12 13  1  0
 13 14  1  0
  5 15  1  0
 14 15  2  0
 15 16  1  0
  1 17  1  0
 12 17  1  0
 16 17  1  0
 18 19  1  0
 19 20  1  0
 20 21  1  0
 21 22  2  0
 19 23  2  0
 22 23  1  0
 16 24  1  1
 23 25  1  0
 24 25  1  0
M  END
