x0107-x2908
     RDKit          3D

 18 19  0  0  0  0  0  0  0  0999 V2000
    4.7180    1.4420   21.6870 C   0  0  0  0  0  0  0  0  0  0  0  0
    8.5720    1.3470   21.0920 O   0  0  0  0  0  0  0  0  0  0  0  0
   13.1920   -2.4310   21.2930 Cl  0  0  0  0  0  0  0  0  0  0  0  0
    7.0760   -0.4380   21.1500 N   0  0  0  0  0  0  0  0  0  0  0  0
    8.6170   -0.2490   22.7470 N   0  0  0  0  0  0  0  0  0  0  0  0
    8.1060    0.3060   21.6110 C   0  0  0  0  0  0  0  0  0  0  0  0
    6.2810    0.5650   17.5180 N   0  0  0  0  0  0  0  0  0  0  0  0
    6.8860   -0.0500   18.5520 C   0  0  0  0  0  0  0  0  0  0  0  0
    6.4610    0.1620   20.0050 C   0  0  0  0  0  0  0  0  0  0  0  0
    5.3220    1.0780   20.2560 C   0  0  0  0  0  0  0  0  0  0  0  0
    4.7360    1.6810   19.1520 C   0  0  0  0  0  0  0  0  0  0  0  0
    5.1480    1.4820   17.8340 C   0  0  0  0  0  0  0  0  0  0  0  0
   10.6820    0.5910   23.7170 C   0  0  0  0  0  0  0  0  0  0  0  0
   12.0730    0.5510   23.8160 C   0  0  0  0  0  0  0  0  0  0  0  0
   12.8460   -0.3600   23.0910 C   0  0  0  0  0  0  0  0  0  0  0  0
   12.3290   -1.3120   22.2090 C   0  0  0  0  0  0  0  0  0  0  0  0
   10.8310   -1.2870   22.0920 C   0  0  0  0  0  0  0  0  0  0  0  0
   10.0440   -0.3030   22.8710 C   0  0  0  0  0  0  0  0  0  0  0  0
  2  6  2  0
  4  6  1  0
  5  6  1  0
  7  8  2  0
  4  9  1  0
  8  9  1  0
  1 10  1  0
  9 10  2  0
 10 11  1  0
  7 12  1  0
 11 12  2  0
 13 14  2  0
 14 15  1  0
  3 16  1  0
 15 16  2  0
 16 17  1  0
  5 18  1  0
 13 18  1  0
 17 18  2  0
M  END
