x0104-x1358
     RDKit          3D

 38 41  0  0  0  0  0  0  0  0999 V2000
    7.1540   -2.2370   25.8000 N   0  0  0  0  0  0  0  0  0  0  0  0
    5.2510    0.0360   25.4480 O   0  0  0  0  0  0  0  0  0  0  0  0
    5.1260   -3.3980   25.6600 O   0  0  0  0  0  0  0  0  0  0  0  0
    5.1860   -4.0680   19.6240 O   0  0  0  0  0  0  0  0  0  0  0  0
    6.2520   -3.1480   25.2390 C   0  0  0  0  0  0  0  0  0  0  0  0
    6.3170   -3.7960   19.9900 C   0  0  0  0  0  0  0  0  0  0  0  0
    7.3280   -3.1710   19.0520 C   0  0  0  0  0  0  0  0  0  0  0  0
    9.1210    6.5070   22.6220 C   0  0  0  0  0  0  0  0  0  0  0  0
   10.3340    6.0930   23.4410 C   0  0  0  0  0  0  0  0  0  0  0  0
   10.3830    6.2200   24.6620 O   0  0  0  0  0  0  0  0  0  0  0  0
   11.1930    5.6610   22.7940 N   0  0  0  0  0  0  0  0  0  0  0  0
   12.2640    4.9380   23.4130 C   0  0  0  0  0  0  0  0  0  0  0  0
   12.5770    3.5480   22.7840 C   0  0  0  0  0  0  0  0  0  0  0  0
   13.5770   -1.9400   21.6580 F   0  0  0  0  0  0  0  0  0  0  0  0
    8.3650   -1.7130   25.1430 C   0  0  0  0  0  0  0  0  0  0  0  0
    8.9840   -0.3720   25.5970 C   0  0  0  0  0  0  0  0  0  0  0  0
    8.7850    0.7810   24.8000 C   0  0  0  0  0  0  0  0  0  0  0  0
    5.8720   -0.1790   26.6490 C   0  0  0  0  0  0  0  0  0  0  0  0
    6.8430   -1.3160   26.9100 C   0  0  0  0  0  0  0  0  0  0  0  0
    7.4480   -1.5030   28.1220 C   0  0  0  0  0  0  0  0  0  0  0  0
    7.1630   -0.6030   29.1710 C   0  0  0  0  0  0  0  0  0  0  0  0
    6.2560    0.4910   28.9780 C   0  0  0  0  0  0  0  0  0  0  0  0
    5.6270    0.6790   27.7160 C   0  0  0  0  0  0  0  0  0  0  0  0
    6.7140   -4.0960   21.2710 N   0  0  0  0  0  0  0  0  0  0  0  0
    7.6900   -3.3110   21.8940 C   0  0  0  0  0  0  0  0  0  0  0  0
    7.4040   -2.8990   23.1760 C   0  0  0  0  0  0  0  0  0  0  0  0
    6.7600   -3.8730   23.9750 C   0  0  0  0  0  0  0  0  0  0  0  0
    5.7600   -4.6310   23.3360 C   0  0  0  0  0  0  0  0  0  0  0  0
    6.1210   -5.0980   22.0630 C   0  0  0  0  0  0  0  0  0  0  0  0
   11.7080    2.3840   23.2320 C   0  0  0  0  0  0  0  0  0  0  0  0
   10.5120    2.4600   23.9500 C   0  0  0  0  0  0  0  0  0  0  0  0
   10.0020    1.1930   24.1210 N   0  0  0  0  0  0  0  0  0  0  0  0
   10.8030    0.3110   23.5410 C   0  0  0  0  0  0  0  0  0  0  0  0
   11.8950    0.9800   23.0010 C   0  0  0  0  0  0  0  0  0  0  0  0
   10.6270   -1.0740   23.4510 C   0  0  0  0  0  0  0  0  0  0  0  0
   11.5710   -1.8380   22.7980 C   0  0  0  0  0  0  0  0  0  0  0  0
   12.6780   -1.2090   22.2770 C   0  0  0  0  0  0  0  0  0  0  0  0
   12.8630    0.1700   22.3810 C   0  0  0  0  0  0  0  0  0  0  0  0
  1  5  1  0
  3  5  2  0
  4  6  2  0
  6  7  1  0
  8  9  1  0
  9 10  2  0
  9 11  1  0
 11 12  1  0
 12 13  1  0
  1 15  1  0
 15 16  1  0
 16 17  1  0
  2 18  1  0
  1 19  1  0
 18 19  2  0
 19 20  1  0
 20 21  2  0
 21 22  1  0
 18 23  1  0
 22 23  2  0
  6 24  1  0
 24 25  1  0
 25 26  1  0
  5 27  1  0
 26 27  1  0
 27 28  1  0
 24 29  1  0
 28 29  1  0
 13 30  1  0
 30 31  2  0
 17 32  1  0
 31 32  1  0
 32 33  1  0
 30 34  1  0
 33 34  2  0
 33 35  1  0
 35 36  2  0
 14 37  1  0
 36 37  1  0
 34 38  1  0
 37 38  2  0
M  END
