x0107-x0736
     RDKit          3D

 27 30  0  0  0  0  0  0  0  0999 V2000
    7.3220   -3.0240   18.9510 C   0  0  0  0  0  0  0  0  0  0  0  0
    5.3730   -4.1780   19.7690 O   0  0  0  0  0  0  0  0  0  0  0  0
    6.3290   -3.4380   20.0290 C   0  0  0  0  0  0  0  0  0  0  0  0
    5.9390   -2.4230   24.8890 O   0  0  0  0  0  0  0  0  0  0  0  0
    7.3270   -2.2260   24.6820 C   0  0  0  0  0  0  0  0  0  0  0  0
    9.3950   -0.9960   22.5970 C   0  0  0  0  0  0  0  0  0  0  0  0
    8.8270   -0.0130   21.5690 C   0  0  0  0  0  0  0  0  0  0  0  0
    9.2580    1.1360   21.3310 O   0  0  0  0  0  0  0  0  0  0  0  0
    7.7670   -0.7020   21.0270 N   0  0  0  0  0  0  0  0  0  0  0  0
    5.3540    0.7990   22.1160 C   0  0  0  0  0  0  0  0  0  0  0  0
    6.5350   -2.9980   21.3540 N   0  0  0  0  0  0  0  0  0  0  0  0
    7.4050   -1.8310   21.7630 C   0  0  1  0  0  0  0  0  0  0  0  0
    8.4830   -2.2310   22.5100 C   0  0  2  0  0  0  0  0  0  0  0  0
    7.9240   -2.8560   23.6560 N   0  0  0  0  0  0  0  0  0  0  0  0
    7.2850   -4.0380   23.3440 C   0  0  0  0  0  0  0  0  0  0  0  0
    6.2170   -3.8110   22.4360 C   0  0  0  0  0  0  0  0  0  0  0  0
    8.4970   -0.0660   25.1690 O   0  0  0  0  0  0  0  0  0  0  0  0
    8.0570   -1.3430   25.6130 C   0  0  0  0  0  0  0  0  0  0  0  0
    8.4200   -1.6050   27.0610 C   0  0  0  0  0  0  0  0  0  0  0  0
    9.1330   -0.3920   27.5090 C   0  0  0  0  0  0  0  0  0  0  0  0
    9.0570    0.4090   26.1860 C   0  0  0  0  0  0  0  0  0  0  0  0
    6.8680   -0.0540   20.0680 C   0  0  0  0  0  0  0  0  0  0  0  0
    5.6790    0.6880   20.6530 C   0  0  0  0  0  0  0  0  0  0  0  0
    4.7500    1.3690   19.6150 C   0  0  0  0  0  0  0  0  0  0  0  0
    5.1770    1.1920   18.1500 C   0  0  0  0  0  0  0  0  0  0  0  0
    6.3540    0.4380   17.7710 N   0  0  0  0  0  0  0  0  0  0  0  0
    7.1020   -0.1220   18.7150 C   0  0  0  0  0  0  0  0  0  0  0  0
  1  3  1  0
  2  3  2  0
  4  5  2  0
  6  7  1  0
  7  8  2  0
  7  9  1  0
  3 11  1  0
 12  9  1  6
 11 12  1  0
 13  6  1  1
 12 13  1  0
  5 14  1  0
 13 14  1  0
 14 15  1  0
 11 16  1  0
 15 16  1  0
  5 18  1  0
 17 18  1  0
 18 19  2  0
 19 20  1  0
 17 21  1  0
 20 21  2  0
  9 22  1  0
 10 23  1  0
 22 23  2  0
 23 24  1  0
 24 25  2  0
 25 26  1  0
 22 27  1  0
 26 27  2  0
M  END
