x0107-x0786
     RDKit          3D

 31 33  0  0  0  0  0  0  0  0999 V2000
    5.9790   -3.5810   21.8060 N   0  0  0  0  0  0  0  0  0  0  0  0
    7.4310   -4.8850   20.4760 C   0  0  0  0  0  0  0  0  0  0  0  0
    5.1370   -4.5660   19.9060 O   0  0  0  0  0  0  0  0  0  0  0  0
    6.0620   -4.3580   20.6700 C   0  0  0  0  0  0  0  0  0  0  0  0
    3.7260   -8.1460   24.8550 O   0  0  0  0  0  0  0  0  0  0  0  0
    3.2960   -6.9310   24.2820 C   0  0  0  0  0  0  0  0  0  0  0  0
    9.9920   -0.5270   22.5540 C   0  0  0  0  0  0  0  0  0  0  0  0
    9.0250    0.2040   21.6510 C   0  0  0  0  0  0  0  0  0  0  0  0
    9.2290    1.3930   21.3410 O   0  0  0  0  0  0  0  0  0  0  0  0
    7.9290   -0.5290   21.1730 N   0  0  0  0  0  0  0  0  0  0  0  0
    5.5150    0.8880   22.1910 C   0  0  0  0  0  0  0  0  0  0  0  0
    6.3330   -2.2150   21.7420 C   0  0  0  0  0  0  0  0  0  0  0  0
    7.6590   -1.8030   21.8670 C   0  0  0  0  0  0  0  0  0  0  0  0
    5.4880   -4.0930   23.0250 C   0  0  0  0  0  0  0  0  0  0  0  0
    4.6720   -5.2300   23.0770 C   0  0  0  0  0  0  0  0  0  0  0  0
    4.1700   -5.7300   24.2800 C   0  0  0  0  0  0  0  0  0  0  0  0
    4.5600   -4.9730   25.5670 C   0  0  0  0  0  0  0  0  0  0  0  0
    5.4430   -3.7440   25.5670 C   0  0  0  0  0  0  0  0  0  0  0  0
    5.8850   -3.3590   24.1490 C   0  0  0  0  0  0  0  0  0  0  0  0
    1.5050   -5.6460   23.3240 C   0  0  0  0  0  0  0  0  0  0  0  0
    0.6420   -5.0910   24.4550 C   0  0  0  0  0  0  0  0  0  0  0  0
   -0.7860   -6.1110   24.2820 S   0  0  0  0  0  0  0  0  0  0  0  0
   -0.1220   -7.5740   24.7540 C   0  0  0  0  0  0  0  0  0  0  0  0
    1.1800   -7.8250   23.9430 C   0  0  0  0  0  0  0  0  0  0  0  0
    2.0790   -6.8300   23.7360 N   0  0  0  0  0  0  0  0  0  0  0  0
    6.9760   -0.0720   20.1720 C   0  0  0  0  0  0  0  0  0  0  0  0
    5.7440    0.6660   20.7130 C   0  0  0  0  0  0  0  0  0  0  0  0
    4.7670    1.1600   19.6580 C   0  0  0  0  0  0  0  0  0  0  0  0
    5.1940    0.8270   18.2360 C   0  0  0  0  0  0  0  0  0  0  0  0
    6.2880    0.1680   17.8500 N   0  0  0  0  0  0  0  0  0  0  0  0
    7.1360   -0.2620   18.8030 C   0  0  0  0  0  0  0  0  0  0  0  0
  1  4  1  0
  2  4  1  0
  3  4  2  0
  5  6  2  0
  7  8  1  0
  8  9  2  0
  8 10  1  0
  1 12  1  0
 10 13  1  0
 12 13  1  0
  1 14  1  0
 14 15  2  0
  6 16  1  0
 15 16  1  0
 16 17  2  0
 17 18  1  0
 14 19  1  0
 18 19  2  0
 20 21  1  0
 21 22  1  0
 22 23  1  0
 23 24  1  0
  6 25  1  0
 20 25  1  0
 24 25  1  0
 10 26  1  0
 11 27  1  0
 26 27  2  0
 27 28  1  0
 28 29  2  0
 29 30  1  0
 26 31  1  0
 30 31  2  0
M  END
