x0104-x0434
     RDKit          3D

 26 28  0  0  0  0  0  0  0  0999 V2000
    9.0820    6.6640   22.6560 C   0  0  0  0  0  0  0  0  0  0  0  0
   10.3360    6.1090   23.2730 C   0  0  0  0  0  0  0  0  0  0  0  0
   10.5720    6.1960   24.4780 O   0  0  0  0  0  0  0  0  0  0  0  0
   11.2110    5.4870   22.4370 N   0  0  0  0  0  0  0  0  0  0  0  0
   12.6510    5.3480   22.5440 C   0  0  0  0  0  0  0  0  0  0  0  0
   13.1260    3.9420   22.9120 C   0  0  0  0  0  0  0  0  0  0  0  0
   13.6290   -1.8790   22.3230 F   0  0  0  0  0  0  0  0  0  0  0  0
    8.5950    0.9280   21.3340 O   0  0  0  0  0  0  0  0  0  0  0  0
    8.3180   -0.2120   21.7040 C   0  0  0  0  0  0  0  0  0  0  0  0
    9.0910   -0.8800   22.6720 N   0  0  0  0  0  0  0  0  0  0  0  0
    7.4000   -0.7760   21.2420 N   0  0  0  0  0  0  0  0  0  0  0  0
   12.0280    2.8710   22.9650 C   0  0  0  0  0  0  0  0  0  0  0  0
   10.5700    3.1810   23.1620 C   0  0  0  0  0  0  0  0  0  0  0  0
    9.8480    1.9410   23.0900 N   0  0  0  0  0  0  0  0  0  0  0  0
   10.7260    0.9050   22.8770 C   0  0  0  0  0  0  0  0  0  0  0  0
   12.0480    1.3970   22.8280 C   0  0  0  0  0  0  0  0  0  0  0  0
   10.4000   -0.4460   22.7100 C   0  0  0  0  0  0  0  0  0  0  0  0
   11.3810   -1.3960   22.5290 C   0  0  0  0  0  0  0  0  0  0  0  0
   12.6960   -0.9650   22.5020 C   0  0  0  0  0  0  0  0  0  0  0  0
   13.0490    0.4120   22.6440 C   0  0  0  0  0  0  0  0  0  0  0  0
    5.4790    0.5410   20.4880 C   0  0  0  0  0  0  0  0  0  0  0  0
    4.7470    1.1590   19.4710 C   0  0  0  0  0  0  0  0  0  0  0  0
    5.2030    1.0620   18.1650 C   0  0  0  0  0  0  0  0  0  0  0  0
    6.3130    0.3910   17.8380 N   0  0  0  0  0  0  0  0  0  0  0  0
    7.0050   -0.2030   18.8420 C   0  0  0  0  0  0  0  0  0  0  0  0
    6.6520   -0.1660   20.1870 C   0  0  0  0  0  0  0  0  0  0  0  0
  1  2  1  0
  2  3  2  0
  2  4  1  0
  4  5  1  0
  5  6  1  0
  8  9  2  0
  9 10  1  0
  9 11  1  0
  6 12  1  0
 12 13  2  0
 13 14  1  0
 14 15  1  0
 12 16  1  0
 15 16  2  0
 10 17  1  0
 15 17  1  0
 17 18  2  0
  7 19  1  0
 18 19  1  0
 16 20  1  0
 19 20  2  0
 21 22  2  0
 22 23  1  0
 23 24  2  0
 24 25  1  0
 11 26  1  0
 21 26  1  0
 25 26  2  0
M  END
