x0107-x0161
     RDKit          3D

 27 28  0  0  0  0  0  0  0  0999 V2000
   13.3830   -2.1200   24.6530 C   0  0  0  0  0  0  0  0  0  0  0  0
   13.1960   -0.8880   24.6130 O   0  0  0  0  0  0  0  0  0  0  0  0
   12.9020   -0.4430   23.4950 C   0  0  1  0  0  0  0  0  0  0  0  0
   13.7620   -0.2950   22.6480 O   0  0  0  0  0  0  0  0  0  0  0  0
   10.3170    5.2210   23.6280 S   0  0  0  0  0  0  0  0  0  0  0  0
   11.2100    6.1620   22.9900 O   0  0  0  0  0  0  0  0  0  0  0  0
    9.8270    5.4740   24.9630 O   0  0  0  0  0  0  0  0  0  0  0  0
    8.9760    5.0590   22.6290 N   0  0  0  0  0  0  0  0  0  0  0  0
    9.5690   -1.6950   22.1370 C   0  0  0  0  0  0  0  0  0  0  0  0
    8.7860   -0.4830   21.5370 C   0  0  0  0  0  0  0  0  0  0  0  0
    9.2930    0.8440   21.5600 O   0  0  0  0  0  0  0  0  0  0  0  0
    7.5720   -0.8970   21.0120 N   0  0  0  0  0  0  0  0  0  0  0  0
    5.2660    0.7460   22.1140 C   0  0  0  0  0  0  0  0  0  0  0  0
   11.9500   -1.3050   22.8060 C   0  0  0  0  0  0  0  0  0  0  0  0
   10.6020   -1.2250   23.0650 C   0  0  0  0  0  0  0  0  0  0  0  0
   12.2010    0.9010   23.5550 C   0  0  0  0  0  0  0  0  0  0  0  0
   12.8140    2.0380   23.0030 C   0  0  0  0  0  0  0  0  0  0  0  0
   12.2680    3.3370   23.0020 C   0  0  0  0  0  0  0  0  0  0  0  0
   11.0320    3.6480   23.5660 C   0  0  0  0  0  0  0  0  0  0  0  0
   10.3100    2.4320   24.1760 C   0  0  0  0  0  0  0  0  0  0  0  0
   10.9440    1.0500   24.1480 C   0  0  0  0  0  0  0  0  0  0  0  0
    6.8040   -0.2180   20.1540 C   0  0  0  0  0  0  0  0  0  0  0  0
    5.6340    0.6220   20.6690 C   0  0  0  0  0  0  0  0  0  0  0  0
    4.8370    1.3510   19.5950 C   0  0  0  0  0  0  0  0  0  0  0  0
    5.2380    1.2110   18.1270 C   0  0  0  0  0  0  0  0  0  0  0  0
    6.3730    0.3790   17.7850 N   0  0  0  0  0  0  0  0  0  0  0  0
    7.0590   -0.2630   18.7930 C   0  0  0  0  0  0  0  0  0  0  0  0
  1  2  1  0
  3  2  1  0
  3  4  1  6
  5  6  2  0
  5  7  2  0
  5  8  1  0
  9 10  1  0
 10 11  2  0
 10 12  1  0
  3 14  1  0
  9 15  1  0
 14 15  1  0
  3 16  1  0
 16 17  2  0
 17 18  1  0
  5 19  1  0
 18 19  2  0
 19 20  1  0
 16 21  1  0
 20 21  2  0
 12 22  1  0
 13 23  1  0
 22 23  2  0
 23 24  1  0
 24 25  2  0
 25 26  1  0
 22 27  1  0
 26 27  2  0
M  END
