x0107-x1093
     RDKit          3D

 19 21  0  0  0  0  0  0  0  0999 V2000
   13.4020   -1.9460   23.7360 C   0  0  0  0  0  0  0  0  0  0  0  0
    9.0450    1.4840   21.2740 O   0  0  0  0  0  0  0  0  0  0  0  0
    9.0160    0.3050   21.6860 C   0  0  0  0  0  0  0  0  0  0  0  0
    8.0910   -0.7760   21.0900 C   0  0  0  0  0  0  0  0  0  0  0  0
   12.2310   -1.2020   23.7360 N   0  0  0  0  0  0  0  0  0  0  0  0
   12.1790    0.1820   23.2450 C   0  0  0  0  0  0  0  0  0  0  0  0
   10.7570    0.6900   23.2430 C   0  0  0  0  0  0  0  0  0  0  0  0
    9.8060   -0.2110   22.7350 N   0  0  0  0  0  0  0  0  0  0  0  0
    9.9360   -1.5460   23.1320 C   0  0  0  0  0  0  0  0  0  0  0  0
   11.2570   -1.9430   23.0270 C   0  0  0  0  0  0  0  0  0  0  0  0
    6.2900    0.0850   18.0190 N   0  0  0  0  0  0  0  0  0  0  0  0
    7.1650   -0.4450   18.6260 C   0  0  0  0  0  0  0  0  0  0  0  0
    7.1370   -0.2540   20.0160 C   0  0  0  0  0  0  0  0  0  0  0  0
    6.0230    0.5250   20.1550 C   0  0  0  0  0  0  0  0  0  0  0  0
    5.4400    0.7860   18.9680 C   0  0  0  0  0  0  0  0  0  0  0  0
    4.3220    1.5260   18.6950 N   0  0  0  0  0  0  0  0  0  0  0  0
    3.7180    2.0590   19.7870 C   0  0  0  0  0  0  0  0  0  0  0  0
    4.1660    1.9160   21.2480 C   0  0  0  0  0  0  0  0  0  0  0  0
    5.4410    1.0650   21.4050 C   0  0  0  0  0  0  0  0  0  0  0  0
  2  3  2  0
  3  4  1  0
  1  5  1  0
  5  6  1  0
  6  7  1  0
  3  8  1  0
  7  8  1  0
  8  9  1  0
  5 10  1  0
  9 10  1  0
 11 12  1  0
  4 13  1  0
 12 13  2  0
 13 14  1  0
 11 15  1  0
 14 15  2  0
 15 16  1  0
 16 17  2  0
 17 18  1  0
 14 19  1  0
 18 19  2  0
M  END
