x0104-x0395
     RDKit          3D

 23 25  0  0  0  0  0  0  0  0999 V2000
    8.9490    6.6180   22.6570 C   0  0  0  0  0  0  0  0  0  0  0  0
   10.1950    6.1000   23.3140 C   0  0  0  0  0  0  0  0  0  0  0  0
   10.4280    6.2560   24.5130 O   0  0  0  0  0  0  0  0  0  0  0  0
   11.0830    5.4360   22.5310 N   0  0  0  0  0  0  0  0  0  0  0  0
   12.5120    5.3100   22.7060 C   0  0  0  0  0  0  0  0  0  0  0  0
   13.0040    3.8770   22.8840 C   0  0  0  0  0  0  0  0  0  0  0  0
   13.6240   -1.8280   22.1660 F   0  0  0  0  0  0  0  0  0  0  0  0
    9.5420   -5.5450   26.2740 C   0  0  0  0  0  0  0  0  0  0  0  0
    9.0660   -1.0330   23.5710 C   0  0  0  0  0  0  0  0  0  0  0  0
   11.9570    2.7890   23.1420 C   0  0  0  0  0  0  0  0  0  0  0  0
   10.6580    3.0380   23.5820 C   0  0  0  0  0  0  0  0  0  0  0  0
    9.9840    1.8560   23.6750 N   0  0  0  0  0  0  0  0  0  0  0  0
   10.7890    0.8090   23.3110 C   0  0  0  0  0  0  0  0  0  0  0  0
   12.0430    1.3390   22.9920 C   0  0  0  0  0  0  0  0  0  0  0  0
   10.4530   -0.5570   23.2490 C   0  0  0  0  0  0  0  0  0  0  0  0
   11.4490   -1.4310   22.8550 C   0  0  0  0  0  0  0  0  0  0  0  0
   12.7170   -0.9470   22.5430 C   0  0  0  0  0  0  0  0  0  0  0  0
   13.0350    0.4070   22.6090 C   0  0  0  0  0  0  0  0  0  0  0  0
    9.1450   -4.2610   25.6470 C   0  0  0  0  0  0  0  0  0  0  0  0
    8.0140   -3.6410   25.8760 N   0  0  0  0  0  0  0  0  0  0  0  0
    7.9050   -2.4670   25.1730 N   0  0  0  0  0  0  0  0  0  0  0  0
    8.9550   -2.2400   24.4280 C   0  0  0  0  0  0  0  0  0  0  0  0
   10.1670   -3.4480   24.5330 S   0  0  0  0  0  0  0  0  0  0  0  0
  1  2  1  0
  2  3  2  0
  2  4  1  0
  4  5  1  0
  5  6  1  0
  6 10  1  0
 10 11  2  0
 11 12  1  0
 12 13  1  0
 10 14  1  0
 13 14  2  0
  9 15  1  0
 13 15  1  0
 15 16  2  0
  7 17  1  0
 16 17  1  0
 14 18  1  0
 17 18  2  0
  8 19  1  0
 19 20  2  0
 20 21  1  0
  9 22  1  0
 21 22  2  0
 19 23  1  0
 22 23  1  0
M  END
