x0104-x2562
     RDKit          3D

 32 36  0  0  0  0  0  0  0  0999 V2000
   13.0890   -3.0400   21.9040 F   0  0  0  0  0  0  0  0  0  0  0  0
   12.0620    1.7380   22.7820 C   0  0  0  0  0  0  0  0  0  0  0  0
   11.0370    2.5920   23.4210 C   0  0  0  0  0  0  0  0  0  0  0  0
   10.2420    1.4230   23.8130 N   0  0  0  0  0  0  0  0  0  0  0  0
   10.6300    0.0890   23.4890 C   0  0  0  0  0  0  0  0  0  0  0  0
   11.9030    0.3310   22.7730 C   0  0  0  0  0  0  0  0  0  0  0  0
   10.1200   -1.2420   23.6940 C   0  0  0  0  0  0  0  0  0  0  0  0
   11.0330   -2.0990   23.1290 C   0  0  0  0  0  0  0  0  0  0  0  0
   12.3670   -2.0290   22.3520 C   0  0  0  0  0  0  0  0  0  0  0  0
   12.7750   -0.7490   22.1920 C   0  0  0  0  0  0  0  0  0  0  0  0
    8.9970    0.1530   21.5970 C   0  0  0  0  0  0  0  0  0  0  0  0
    8.8460    1.3580   21.7760 O   0  0  0  0  0  0  0  0  0  0  0  0
    7.8870   -0.6610   21.1760 C   0  0  0  0  0  0  0  0  0  0  0  0
   10.2360   -0.5260   21.7200 N   0  0  0  0  0  0  0  0  0  0  0  0
    5.0500    1.3920   19.6200 N   0  0  0  0  0  0  0  0  0  0  0  0
    5.2320    1.1670   18.3010 C   0  0  0  0  0  0  0  0  0  0  0  0
    6.2390    0.3680   17.9080 N   0  0  0  0  0  0  0  0  0  0  0  0
    7.0450   -0.1870   18.8430 C   0  0  0  0  0  0  0  0  0  0  0  0
    6.9080    0.0160   20.2010 C   0  0  0  0  0  0  0  0  0  0  0  0
    5.8500    0.8490   20.6100 C   0  0  0  0  0  0  0  0  0  0  0  0
   11.1830   -0.6500   22.8890 C   0  0  0  0  0  0  0  0  0  0  0  0
    9.7180    6.7970   22.5100 C   0  0  0  0  0  0  0  0  0  0  0  0
   10.4660    6.9080   23.6620 C   0  0  0  0  0  0  0  0  0  0  0  0
   10.0230    7.4970   24.6380 O   0  0  0  0  0  0  0  0  0  0  0  0
   11.6830    6.3050   23.7360 N   0  0  0  0  0  0  0  0  0  0  0  0
   11.5660    5.1010   24.1850 C   0  0  0  0  0  0  0  0  0  0  0  0
   13.4300    7.3420   22.5290 O   0  0  0  0  0  0  0  0  0  0  0  0
   12.1120    5.4390   21.9960 N   0  0  0  0  0  0  0  0  0  0  0  0
   12.7740    6.2490   22.9520 C   0  0  2  0  0  0  0  0  0  0  0  0
   13.4460    5.0750   23.2760 C   0  0  0  0  0  0  0  0  0  0  0  0
   12.3390    4.5770   23.0000 C   0  0  1  0  0  0  0  0  0  0  0  0
   12.2040    3.2900   22.7670 C   0  0  0  0  0  0  0  0  0  0  0  0
  2  3  2  0
  3  4  1  0
  4  5  1  0
  2  6  1  0
  5  6  2  0
  5  7  1  0
  7  8  2  0
  1  9  1  0
  8  9  1  0
  6 10  1  0
  9 10  2  0
 11 12  2  0
 11 13  1  0
 11 14  1  0
 15 16  2  0
 16 17  1  0
 17 18  2  0
 13 19  1  0
 18 19  1  0
 15 20  1  0
 19 20  2  0
  8 21  1  0
 14 21  1  0
 22 23  1  0
 23 24  2  0
 23 25  1  0
 25 26  1  0
 25 29  1  0
 29 27  1  6
 28 29  1  0
 29 30  1  0
 26 31  1  0
 28 31  1  0
 30 31  1  0
  3 32  1  0
 31 32  1  6
M  END
