x0107-x2649
     RDKit          3D

 19 21  0  0  0  0  0  0  0  0999 V2000
    7.1740   -0.8670   20.7810 N   0  0  0  0  0  0  0  0  0  0  0  0
    7.8230   -1.2040   24.2300 C   0  0  0  0  0  0  0  0  0  0  0  0
    8.0420    0.8470   22.5570 N   0  0  0  0  0  0  0  0  0  0  0  0
   13.1810   -2.5300   21.1040 Cl  0  0  0  0  0  0  0  0  0  0  0  0
    8.5430   -0.5810   23.0040 C   0  0  2  0  0  0  0  0  0  0  0  0
    7.8330   -0.3510   21.9220 C   0  0  0  0  0  0  0  0  0  0  0  0
    5.0040    0.9880   21.7240 C   0  0  0  0  0  0  0  0  0  0  0  0
    6.1910    0.6190   17.5500 N   0  0  0  0  0  0  0  0  0  0  0  0
    5.1700    1.4880   17.9820 C   0  0  0  0  0  0  0  0  0  0  0  0
    4.7980    1.5930   19.3150 C   0  0  0  0  0  0  0  0  0  0  0  0
    5.4620    0.8110   20.2650 C   0  0  0  0  0  0  0  0  0  0  0  0
    6.4780   -0.0590   19.8550 C   0  0  0  0  0  0  0  0  0  0  0  0
    6.7800   -0.1030   18.5260 C   0  0  0  0  0  0  0  0  0  0  0  0
   10.6700    0.3760   23.8060 C   0  0  0  0  0  0  0  0  0  0  0  0
   12.0440    0.4750   23.8420 C   0  0  0  0  0  0  0  0  0  0  0  0
   12.9280   -0.4370   22.9910 C   0  0  0  0  0  0  0  0  0  0  0  0
   12.3080   -1.4780   22.0880 C   0  0  0  0  0  0  0  0  0  0  0  0
   10.7860   -1.5210   22.1080 C   0  0  0  0  0  0  0  0  0  0  0  0
   10.0320   -0.5570   22.9940 C   0  0  0  0  0  0  0  0  0  0  0  0
  5  2  1  1
  3  5  1  0
  1  6  1  0
  3  6  2  0
  5  6  1  0
  8  9  2  0
  9 10  1  0
  7 11  1  0
 10 11  2  0
  1 12  1  0
 11 12  1  0
  8 13  1  0
 12 13  2  0
 14 15  2  0
 15 16  1  0
  4 17  1  0
 16 17  2  0
 17 18  1  0
  5 19  1  0
 14 19  1  0
 18 19  2  0
M  END
