x0104-x1093
     RDKit          3D

 31 34  0  0  0  0  0  0  0  0999 V2000
    9.0470    6.5080   22.6460 C   0  0  0  0  0  0  0  0  0  0  0  0
   10.3230    6.1780   23.3670 C   0  0  0  0  0  0  0  0  0  0  0  0
   10.4350    6.2860   24.5890 O   0  0  0  0  0  0  0  0  0  0  0  0
   11.3760    5.7430   22.6270 N   0  0  0  0  0  0  0  0  0  0  0  0
   12.6580    5.2260   23.1050 C   0  0  0  0  0  0  0  0  0  0  0  0
   12.9560    3.8400   22.5360 C   0  0  0  0  0  0  0  0  0  0  0  0
   13.7680   -1.6460   22.4400 F   0  0  0  0  0  0  0  0  0  0  0  0
   12.8520   -2.4510   22.9370 C   0  0  0  0  0  0  0  0  0  0  0  0
   12.0270    2.7700   23.0320 C   0  0  0  0  0  0  0  0  0  0  0  0
   10.6890    2.9740   23.6340 C   0  0  0  0  0  0  0  0  0  0  0  0
    9.9840    1.8310   24.0060 N   0  0  0  0  0  0  0  0  0  0  0  0
   11.0040    0.9030   23.5950 C   0  0  0  0  0  0  0  0  0  0  0  0
   12.1270    1.4030   23.0640 C   0  0  0  0  0  0  0  0  0  0  0  0
   10.8460   -0.5140   23.7380 C   0  0  0  0  0  0  0  0  0  0  0  0
   11.7310   -1.5820   23.3950 C   0  0  0  0  0  0  0  0  0  0  0  0
   12.8010   -0.8620   22.8680 C   0  0  0  0  0  0  0  0  0  0  0  0
   13.0490    0.4900   22.6980 C   0  0  0  0  0  0  0  0  0  0  0  0
    8.9450    1.4560   21.3800 O   0  0  0  0  0  0  0  0  0  0  0  0
    8.5070    0.3980   21.8770 C   0  0  0  0  0  0  0  0  0  0  0  0
    8.1370   -0.7250   21.1450 C   0  0  0  0  0  0  0  0  0  0  0  0
    6.2420    0.0470   17.8410 N   0  0  0  0  0  0  0  0  0  0  0  0
    7.2960   -0.5900   18.6060 C   0  0  0  0  0  0  0  0  0  0  0  0
    7.2160   -0.2870   20.0750 C   0  0  0  0  0  0  0  0  0  0  0  0
    6.0710    0.4950   20.2190 C   0  0  0  0  0  0  0  0  0  0  0  0
    5.4330    0.7750   18.8160 C   0  0  0  0  0  0  0  0  0  0  0  0
    4.3510    1.5450   18.6190 N   0  0  0  0  0  0  0  0  0  0  0  0
    3.7270    2.0130   19.7130 C   0  0  0  0  0  0  0  0  0  0  0  0
    4.2610    1.7590   21.0880 C   0  0  0  0  0  0  0  0  0  0  0  0
    5.4310    1.0170   21.2710 C   0  0  0  0  0  0  0  0  0  0  0  0
    9.4280    0.5590   24.3150 C   0  0  0  0  0  0  0  0  0  0  0  0
    8.2770    0.2150   23.3660 C   0  0  0  0  0  0  0  0  0  0  0  0
  1  2  1  0
  2  3  2  0
  2  4  1  0
  4  5  1  0
  5  6  1  0
  6  9  1  0
  9 10  2  0
 10 11  1  0
 11 12  1  0
  9 13  1  0
 12 13  2  0
 12 14  1  0
  8 15  1  0
 14 15  2  0
  7 16  1  0
 15 16  1  0
 13 17  1  0
 16 17  2  0
 18 19  2  0
 19 20  1  0
 21 22  1  0
 20 23  1  0
 22 23  2  0
 23 24  1  0
 21 25  2  0
 24 25  1  0
 25 26  1  0
 26 27  1  0
 27 28  2  0
 24 29  2  0
 28 29  1  0
 11 30  1  0
 19 31  1  0
 30 31  1  0
M  END
