x0107-x0991
     RDKit          3D

 18 18  0  0  0  0  0  0  0  0999 V2000
   10.0300   -0.6030   22.4340 C   0  0  0  0  0  0  0  0  0  0  0  0
    9.0260    0.1930   21.5540 C   0  0  0  0  0  0  0  0  0  0  0  0
    9.2270    1.3850   21.2960 O   0  0  0  0  0  0  0  0  0  0  0  0
    7.9370   -0.5440   21.1170 N   0  0  0  0  0  0  0  0  0  0  0  0
    5.5230    0.6960   22.0490 C   0  0  0  0  0  0  0  0  0  0  0  0
    9.9590   -5.5350   25.0340 N   0  0  0  0  0  0  0  0  0  0  0  0
    8.4020   -3.9820   23.1540 C   0  0  0  0  0  0  0  0  0  0  0  0
    8.0160   -4.1040   24.6060 C   0  0  0  0  0  0  0  0  0  0  0  0
    8.2890   -5.0780   26.4600 N   0  0  0  0  0  0  0  0  0  0  0  0
    8.7790   -4.9460   25.4200 C   0  0  0  0  0  0  0  0  0  0  0  0
    9.3420   -1.6760   23.2210 C   0  0  0  0  0  0  0  0  0  0  0  0
    9.5280   -3.0150   22.8870 C   0  0  0  0  0  0  0  0  0  0  0  0
    6.9600   -0.0550   20.2000 C   0  0  0  0  0  0  0  0  0  0  0  0
    5.7810    0.5610   20.6460 C   0  0  0  0  0  0  0  0  0  0  0  0
    4.8600    1.0460   19.7080 C   0  0  0  0  0  0  0  0  0  0  0  0
    5.2200    0.8540   18.2290 C   0  0  0  0  0  0  0  0  0  0  0  0
    6.3220    0.2630   17.8020 N   0  0  0  0  0  0  0  0  0  0  0  0
    7.1670   -0.1750   18.6920 C   0  0  0  0  0  0  0  0  0  0  0  0
  1  2  1  0
  2  3  2  0
  2  4  1  0
  7  8  1  0
  6 10  2  3
  8 10  1  0
  9 10  1  0
  1 11  1  0
  7 12  1  0
 11 12  1  0
  4 13  1  0
  5 14  1  0
 13 14  2  0
 14 15  1  0
 15 16  2  0
 16 17  1  0
 13 18  1  0
 17 18  2  0
M  END
