x0104-x2119
     RDKit          3D

 26 28  0  0  0  0  0  0  0  0999 V2000
    9.0850    6.5020   22.6580 C   0  0  0  0  0  0  0  0  0  0  0  0
   10.3610    6.1120   23.3820 C   0  0  0  0  0  0  0  0  0  0  0  0
   10.2800    6.1870   24.6050 O   0  0  0  0  0  0  0  0  0  0  0  0
   11.4320    5.7320   22.6130 N   0  0  0  0  0  0  0  0  0  0  0  0
   12.5770    5.1710   23.1690 C   0  0  0  0  0  0  0  0  0  0  0  0
   12.8450    3.8020   22.5990 C   0  0  0  0  0  0  0  0  0  0  0  0
   13.7490   -2.0690   22.3490 F   0  0  0  0  0  0  0  0  0  0  0  0
    5.8770   -5.6000   20.0080 N   0  0  0  0  0  0  0  0  0  0  0  0
    6.3530   -4.4150   20.0080 C   0  0  0  0  0  0  0  0  0  0  0  0
    9.2920    0.1930   23.4460 C   0  0  0  0  0  0  0  0  0  0  0  0
    7.8170   -0.0350   23.1500 C   0  0  0  0  0  0  0  0  0  0  0  0
    7.5640   -1.0870   22.3000 C   0  0  0  0  0  0  0  0  0  0  0  0
   11.8910    2.6280   22.8560 C   0  0  0  0  0  0  0  0  0  0  0  0
   10.5330    2.7270   23.2020 C   0  0  0  0  0  0  0  0  0  0  0  0
    9.6370    1.5140   23.3990 N   0  0  0  0  0  0  0  0  0  0  0  0
   10.6810    0.7170   23.1380 C   0  0  0  0  0  0  0  0  0  0  0  0
   12.0920    1.1280   22.8050 C   0  0  0  0  0  0  0  0  0  0  0  0
   10.5240   -0.8380   23.1590 C   0  0  0  0  0  0  0  0  0  0  0  0
   11.5820   -1.6560   22.8880 C   0  0  0  0  0  0  0  0  0  0  0  0
   12.8310   -1.1690   22.5930 C   0  0  0  0  0  0  0  0  0  0  0  0
   13.1070    0.2120   22.5550 C   0  0  0  0  0  0  0  0  0  0  0  0
    5.9880   -3.5670   21.0820 C   0  0  0  0  0  0  0  0  0  0  0  0
    4.8270   -3.6080   21.8850 N   0  0  0  0  0  0  0  0  0  0  0  0
    5.0710   -2.4930   22.7700 C   0  0  0  0  0  0  0  0  0  0  0  0
    6.2730   -1.6830   22.6700 C   0  0  0  0  0  0  0  0  0  0  0  0
    6.6330   -2.5210   21.6140 N   0  0  0  0  0  0  0  0  0  0  0  0
  1  2  1  0
  2  3  2  0
  2  4  1  0
  4  5  1  0
  5  6  1  0
  8  9  2  3
 10 11  1  0
 11 12  1  0
  6 13  1  0
 13 14  2  0
 10 15  1  0
 14 15  1  0
 15 16  1  0
 13 17  1  0
 16 17  2  0
 16 18  1  0
 18 19  2  0
  7 20  1  0
 19 20  1  0
 17 21  1  0
 20 21  2  0
  9 22  1  0
 22 23  1  0
 23 24  1  0
 12 25  1  0
 24 25  2  0
 22 26  2  0
 25 26  1  0
M  END
