x0107-x2764
     RDKit          3D

 20 21  0  0  0  0  0  0  0  0999 V2000
    8.6490   -1.0640   21.6580 C   0  0  0  0  0  0  0  0  0  0  0  0
    7.2150   -1.3540   21.1200 C   0  0  0  0  0  0  0  0  0  0  0  0
    6.6210   -2.3790   21.4260 O   0  0  0  0  0  0  0  0  0  0  0  0
    9.2440   -2.2050   22.4090 C   0  0  0  0  0  0  0  0  0  0  0  0
    6.4400    1.2600   22.1640 O   0  0  0  0  0  0  0  0  0  0  0  0
    8.0240    4.4460   23.0860 N   0  0  0  0  0  0  0  0  0  0  0  0
    7.5820    2.0940   22.3250 C   0  0  0  0  0  0  0  0  0  0  0  0
    7.5070    3.5620   21.9980 C   0  0  0  0  0  0  0  0  0  0  0  0
    9.2810    0.1860   21.4590 O   0  0  0  0  0  0  0  0  0  0  0  0
   12.9760   -1.6210   22.4760 N   0  0  0  0  0  0  0  0  0  0  0  0
   11.7280   -1.8730   21.9020 C   0  0  0  0  0  0  0  0  0  0  0  0
   10.6590   -1.9430   22.8000 C   0  0  0  0  0  0  0  0  0  0  0  0
   10.9860   -1.7530   24.1430 C   0  0  0  0  0  0  0  0  0  0  0  0
   12.6610   -1.4810   24.3890 S   0  0  0  0  0  0  0  0  0  0  0  0
    6.3420   -0.6050   18.8840 C   0  0  0  0  0  0  0  0  0  0  0  0
    5.7330    0.3280   18.0620 C   0  0  0  0  0  0  0  0  0  0  0  0
    5.2900    1.5920   18.3830 C   0  0  0  0  0  0  0  0  0  0  0  0
    5.5080    2.0180   19.8540 C   0  0  0  0  0  0  0  0  0  0  0  0
    6.1730    1.0520   20.8360 C   0  0  0  0  0  0  0  0  0  0  0  0
    6.5760   -0.3170   20.2300 C   0  0  0  0  0  0  0  0  0  0  0  0
  1  2  1  0
  2  3  2  0
  1  4  1  0
  5  7  1  0
  6  8  3  0
  7  8  1  0
  1  9  2  0
 10 11  2  0
  4 12  1  0
 11 12  1  0
 12 13  2  0
 10 14  1  0
 13 14  1  0
 15 16  2  0
 16 17  1  0
 17 18  2  0
  5 19  1  0
 18 19  1  0
  2 20  1  0
 15 20  1  0
 19 20  2  0
M  END
