x0107-x3080
     RDKit          3D

 26 28  0  0  0  0  0  0  0  0999 V2000
    9.9730   -0.6180   23.3390 N   0  0  0  0  0  0  0  0  0  0  0  0
   10.9250    0.4760   23.5610 C   0  0  0  0  0  0  0  0  0  0  0  0
    9.0430    1.2250   21.2540 O   0  0  0  0  0  0  0  0  0  0  0  0
    9.7280   -0.9890   22.0600 C   0  0  0  0  0  0  0  0  0  0  0  0
    7.6600   -0.5960   20.8590 N   0  0  0  0  0  0  0  0  0  0  0  0
    7.3280   -1.0930   23.8950 O   0  0  0  0  0  0  0  0  0  0  0  0
    8.7960    0.0120   21.3580 C   0  0  0  0  0  0  0  0  0  0  0  0
    8.8130    0.3590   25.5490 O   0  0  0  0  0  0  0  0  0  0  0  0
    5.2450    0.9390   21.8860 C   0  0  0  0  0  0  0  0  0  0  0  0
    8.7620   -0.8740   24.5460 S   0  0  0  0  0  0  0  0  0  0  0  0
    6.2630    0.5820   17.6410 N   0  0  0  0  0  0  0  0  0  0  0  0
    5.1500    1.3150   18.1060 C   0  0  0  0  0  0  0  0  0  0  0  0
    4.8400    1.4140   19.4590 C   0  0  0  0  0  0  0  0  0  0  0  0
    5.6430    0.7860   20.4120 C   0  0  0  0  0  0  0  0  0  0  0  0
    6.7360    0.0800   19.9540 C   0  0  0  0  0  0  0  0  0  0  0  0
    6.9960    0.0010   18.6140 C   0  0  0  0  0  0  0  0  0  0  0  0
   11.5820   -1.4530   24.8290 N   0  0  0  0  0  0  0  0  0  0  0  0
   10.7670   -2.4480   25.2580 C   0  0  0  0  0  0  0  0  0  0  0  0
   11.2300   -3.6550   25.8170 C   0  0  0  0  0  0  0  0  0  0  0  0
   12.7810   -3.7660   25.9370 C   0  0  0  0  0  0  0  0  0  0  0  0
   13.6950   -2.6650   25.4730 C   0  0  0  0  0  0  0  0  0  0  0  0
   12.9160   -1.4880   24.8930 C   0  0  0  0  0  0  0  0  0  0  0  0
    8.4620   -3.1910   25.5390 C   0  0  0  0  0  0  0  0  0  0  0  0
    8.8450   -4.5190   26.1340 C   0  0  0  0  0  0  0  0  0  0  0  0
   10.3530   -4.6680   26.2420 C   0  0  0  0  0  0  0  0  0  0  0  0
    9.3820   -2.2890   25.1610 C   0  0  0  0  0  0  0  0  0  0  0  0
  1  2  1  0
  1  4  1  0
  3  7  2  0
  4  7  1  0
  5  7  1  0
 10  1  1  0
  6 10  2  0
  8 10  2  0
 11 12  2  0
 12 13  1  0
  9 14  1  0
 13 14  2  0
  5 15  1  0
 14 15  1  0
 11 16  1  0
 15 16  2  0
 17 18  2  0
 18 19  1  0
 19 20  2  0
 20 21  1  0
 17 22  1  0
 21 22  2  0
 23 24  1  0
 19 25  1  0
 24 25  2  0
 10 26  1  0
 18 26  1  0
 23 26  2  0
M  END
