x0107-x1425
     RDKit          3D

 29 31  0  0  0  0  0  0  0  0999 V2000
    1.5150   -2.2350   28.4460 C   0  0  0  0  0  0  0  0  0  0  0  0
    2.7340   -2.0560   28.3360 O   0  0  0  0  0  0  0  0  0  0  0  0
    5.1950   -4.4190   19.8220 O   0  0  0  0  0  0  0  0  0  0  0  0
    6.2870   -3.9700   20.1460 C   0  0  0  0  0  0  0  0  0  0  0  0
    7.1680   -3.1910   19.1800 C   0  0  0  0  0  0  0  0  0  0  0  0
    9.8030   -1.2880   22.1640 C   0  0  0  0  0  0  0  0  0  0  0  0
    8.8180   -0.2980   21.5860 C   0  0  0  0  0  0  0  0  0  0  0  0
    9.1110    0.9030   21.5450 O   0  0  0  0  0  0  0  0  0  0  0  0
    7.6270   -0.8760   21.1420 N   0  0  0  0  0  0  0  0  0  0  0  0
    5.4550    0.7170   22.0950 C   0  0  0  0  0  0  0  0  0  0  0  0
    6.8150   -1.8900   21.7500 C   0  0  0  0  0  0  0  0  0  0  0  0
    3.3360   -2.5740   27.2250 C   0  0  0  0  0  0  0  0  0  0  0  0
    4.6690   -2.1890   26.9950 C   0  0  0  0  0  0  0  0  0  0  0  0
    5.4320   -2.6280   25.9060 C   0  0  0  0  0  0  0  0  0  0  0  0
    4.9070   -3.5000   24.9480 C   0  0  0  0  0  0  0  0  0  0  0  0
    3.4490   -3.9570   25.1410 C   0  0  0  0  0  0  0  0  0  0  0  0
    2.7010   -3.4380   26.3410 C   0  0  0  0  0  0  0  0  0  0  0  0
    6.7880   -4.2350   21.4200 N   0  0  0  0  0  0  0  0  0  0  0  0
    7.3680   -3.2580   22.1870 C   0  0  2  0  0  0  0  0  0  0  0  0
    7.0350   -3.3570   23.6700 C   0  0  0  0  0  0  0  0  0  0  0  0
    5.7760   -3.9030   23.8530 N   0  0  0  0  0  0  0  0  0  0  0  0
    5.7890   -5.1500   23.4460 C   0  0  0  0  0  0  0  0  0  0  0  0
    6.4870   -5.4740   22.1240 C   0  0  0  0  0  0  0  0  0  0  0  0
    6.8490   -0.1810   20.1370 C   0  0  0  0  0  0  0  0  0  0  0  0
    5.7970    0.5850   20.6380 C   0  0  0  0  0  0  0  0  0  0  0  0
    4.9290    1.3410   19.6330 C   0  0  0  0  0  0  0  0  0  0  0  0
    5.3720    1.1280   18.2070 C   0  0  0  0  0  0  0  0  0  0  0  0
    6.3710    0.3920   17.8050 N   0  0  0  0  0  0  0  0  0  0  0  0
    7.0940   -0.2530   18.7670 C   0  0  0  0  0  0  0  0  0  0  0  0
  1  2  1  0
  3  4  2  0
  4  5  1  0
  6  7  1  0
  7  8  2  0
  7  9  1  0
  9 11  1  0
  2 12  1  0
 12 13  2  0
 13 14  1  0
 14 15  2  0
 15 16  1  0
 12 17  1  0
 16 17  2  0
  4 18  1  0
 19 11  1  6
 18 19  1  0
 19 20  1  0
 15 21  1  0
 20 21  1  0
 21 22  1  0
 18 23  1  0
 22 23  1  0
  9 24  1  0
 10 25  1  0
 24 25  2  0
 25 26  1  0
 26 27  2  0
 27 28  1  0
 24 29  1  0
 28 29  2  0
M  END
