x0107-x1334
     RDKit          3D

 27 29  0  0  0  0  0  0  0  0999 V2000
    7.5030   -3.0800   18.8230 C   0  0  0  0  0  0  0  0  0  0  0  0
    5.5860   -4.1740   19.8110 O   0  0  0  0  0  0  0  0  0  0  0  0
    7.4130   -5.8140   28.4670 Cl  0  0  0  0  0  0  0  0  0  0  0  0
    6.4960   -3.3320   19.9820 C   0  0  0  0  0  0  0  0  0  0  0  0
    9.6480   -3.2080   23.9810 C   0  0  0  0  0  0  0  0  0  0  0  0
    8.4310   -0.6500   23.6340 C   0  0  0  0  0  0  0  0  0  0  0  0
    8.1120   -0.5870   22.1700 C   0  0  0  0  0  0  0  0  0  0  0  0
    8.1350    0.4850   21.5630 O   0  0  0  0  0  0  0  0  0  0  0  0
    6.6440   -2.5850   21.2330 N   0  0  0  0  0  0  0  0  0  0  0  0
    7.8970   -1.7420   21.3870 C   0  0  2  0  0  0  0  0  0  0  0  0
    8.9130   -2.5920   21.8260 C   0  0  0  0  0  0  0  0  0  0  0  0
    8.5760   -3.1030   23.0170 N   0  0  0  0  0  0  0  0  0  0  0  0
    7.3630   -3.9440   23.0660 C   0  0  0  0  0  0  0  0  0  0  0  0
    6.3000   -3.3130   22.4050 C   0  0  0  0  0  0  0  0  0  0  0  0
    9.8300   -5.3490   25.3380 C   0  0  0  0  0  0  0  0  0  0  0  0
    9.2570   -4.0980   25.0980 C   0  0  0  0  0  0  0  0  0  0  0  0
    8.0240   -3.8270   26.3390 S   0  0  0  0  0  0  0  0  0  0  0  0
    8.2750   -5.2770   27.0950 C   0  0  0  0  0  0  0  0  0  0  0  0
    9.3670   -6.0380   26.3810 C   0  0  0  0  0  0  0  0  0  0  0  0
    4.4000    1.7000   21.9170 C   0  0  0  0  0  0  0  0  0  0  0  0
    6.1900    0.2600   20.6810 C   0  0  0  0  0  0  0  0  0  0  0  0
    5.0650    1.2300   20.5800 C   0  0  0  0  0  0  0  0  0  0  0  0
    4.7120    1.6420   19.1390 C   0  0  0  0  0  0  0  0  0  0  0  0
    5.5840    0.9860   18.0620 C   0  0  0  0  0  0  0  0  0  0  0  0
    6.5830    0.1200   18.3060 N   0  0  0  0  0  0  0  0  0  0  0  0
    6.8660   -0.2260   19.6020 C   0  0  0  0  0  0  0  0  0  0  0  0
    7.9490   -1.1830   20.0430 C   0  0  0  0  0  0  0  0  0  0  0  0
  1  4  1  0
  2  4  2  0
  6  7  1  0
  7  8  2  0
  4  9  1  0
 10  7  1  0
  9 10  1  0
 10 11  1  0
  5 12  1  0
 11 12  1  0
 12 13  1  0
  9 14  1  0
 13 14  1  0
  5 16  1  0
 15 16  2  0
 16 17  1  0
  3 18  1  0
 17 18  1  0
 15 19  1  0
 18 19  2  0
 20 22  1  0
 21 22  2  0
 22 23  1  0
 23 24  2  0
 24 25  1  0
 21 26  1  0
 25 26  2  0
 10 27  1  6
 26 27  1  0
M  END
