x0104-x0678
     RDKit          3D

 26 28  0  0  0  0  0  0  0  0999 V2000
    9.0500    6.6690   22.6690 C   0  0  0  0  0  0  0  0  0  0  0  0
   10.3030    6.1210   23.2890 C   0  0  0  0  0  0  0  0  0  0  0  0
   10.5440    6.2260   24.4940 O   0  0  0  0  0  0  0  0  0  0  0  0
   11.1790    5.4920   22.4650 N   0  0  0  0  0  0  0  0  0  0  0  0
   12.6170    5.3610   22.5800 C   0  0  0  0  0  0  0  0  0  0  0  0
   13.1070    3.9380   22.8610 C   0  0  0  0  0  0  0  0  0  0  0  0
   13.6910   -1.8500   22.3580 F   0  0  0  0  0  0  0  0  0  0  0  0
    8.9740    0.9020   21.5510 O   0  0  0  0  0  0  0  0  0  0  0  0
    8.4280   -0.1190   21.9820 C   0  0  0  0  0  0  0  0  0  0  0  0
    9.0390   -0.8130   23.0160 C   0  0  0  0  0  0  0  0  0  0  0  0
    7.2460   -0.5900   21.4760 N   0  0  0  0  0  0  0  0  0  0  0  0
   12.0370    2.8570   22.9730 C   0  0  0  0  0  0  0  0  0  0  0  0
   10.6910    3.1280   23.2060 C   0  0  0  0  0  0  0  0  0  0  0  0
    9.9950    1.9640   23.2080 N   0  0  0  0  0  0  0  0  0  0  0  0
   10.8330    0.9020   22.9910 C   0  0  0  0  0  0  0  0  0  0  0  0
   12.1230    1.3950   22.8590 C   0  0  0  0  0  0  0  0  0  0  0  0
   10.4710   -0.4440   22.9070 C   0  0  0  0  0  0  0  0  0  0  0  0
   11.4680   -1.3650   22.6960 C   0  0  0  0  0  0  0  0  0  0  0  0
   12.7800   -0.9250   22.5690 C   0  0  0  0  0  0  0  0  0  0  0  0
   13.1310    0.4310   22.6460 C   0  0  0  0  0  0  0  0  0  0  0  0
    5.5450    0.7990   20.5520 C   0  0  0  0  0  0  0  0  0  0  0  0
    4.8880    1.4140   19.4940 C   0  0  0  0  0  0  0  0  0  0  0  0
    5.3320    1.2240   18.0410 C   0  0  0  0  0  0  0  0  0  0  0  0
    6.4780    0.3660   17.7670 N   0  0  0  0  0  0  0  0  0  0  0  0
    7.1430   -0.2730   18.9130 C   0  0  0  0  0  0  0  0  0  0  0  0
    6.6470   -0.0290   20.3420 C   0  0  0  0  0  0  0  0  0  0  0  0
  1  2  1  0
  2  3  2  0
  2  4  1  0
  4  5  1  0
  5  6  1  0
  8  9  2  0
  9 10  1  0
  9 11  1  0
  6 12  1  0
 12 13  2  0
 13 14  1  0
 14 15  1  0
 12 16  1  0
 15 16  2  0
 10 17  1  0
 15 17  1  0
 17 18  2  0
  7 19  1  0
 18 19  1  0
 16 20  1  0
 19 20  2  0
 21 22  2  0
 22 23  1  0
 23 24  2  0
 24 25  1  0
 11 26  1  0
 21 26  1  0
 25 26  2  0
M  END
