x0107-x2572
     RDKit          3D

 19 20  0  0  0  0  0  0  0  0999 V2000
    4.8970    1.2240   21.6280 C   0  0  0  0  0  0  0  0  0  0  0  0
    8.7870    1.3590   21.2740 O   0  0  0  0  0  0  0  0  0  0  0  0
    7.1410   -0.2790   21.1740 N   0  0  0  0  0  0  0  0  0  0  0  0
   13.6340   -3.3910   20.5660 N   0  0  0  0  0  0  0  0  0  0  0  0
    8.2030    0.3460   21.7280 C   0  0  0  0  0  0  0  0  0  0  0  0
    8.6470   -0.3380   23.0220 C   0  0  0  0  0  0  0  0  0  0  0  0
   13.0800   -2.3770   21.3120 C   0  0  0  0  0  0  0  0  0  0  0  0
    6.2740    0.5870   17.5980 N   0  0  0  0  0  0  0  0  0  0  0  0
    6.8950    0.0540   18.7320 C   0  0  0  0  0  0  0  0  0  0  0  0
    6.4420    0.2760   20.0050 C   0  0  0  0  0  0  0  0  0  0  0  0
    5.3070    1.0510   20.2000 C   0  0  0  0  0  0  0  0  0  0  0  0
    4.6540    1.5980   19.1080 C   0  0  0  0  0  0  0  0  0  0  0  0
    5.1750    1.3450   17.8430 C   0  0  0  0  0  0  0  0  0  0  0  0
   10.8050    0.6820   23.7220 C   0  0  0  0  0  0  0  0  0  0  0  0
   12.1810    0.7710   23.7230 C   0  0  0  0  0  0  0  0  0  0  0  0
   13.0010   -0.2450   22.9180 C   0  0  0  0  0  0  0  0  0  0  0  0
   12.3650   -1.3500   22.1190 C   0  0  0  0  0  0  0  0  0  0  0  0
   10.8480   -1.3360   22.1970 C   0  0  0  0  0  0  0  0  0  0  0  0
   10.1280   -0.2950   23.0130 C   0  0  0  0  0  0  0  0  0  0  0  0
  2  5  2  0
  3  5  1  0
  5  6  1  0
  4  7  3  0
  8  9  2  0
  3 10  1  0
  9 10  1  0
  1 11  1  0
 10 11  2  0
 11 12  1  0
  8 13  1  0
 12 13  2  0
 14 15  2  0
 15 16  1  0
  7 17  1  0
 16 17  2  0
 17 18  1  0
  6 19  1  0
 14 19  1  0
 18 19  2  0
M  END
