x0107-x3303
     RDKit          3D

 27 30  0  0  0  0  0  0  0  0999 V2000
    6.5730   -0.9460   21.2900 C   0  0  0  0  0  0  0  0  0  0  0  0
    5.8250   -1.8160   21.7800 O   0  0  0  0  0  0  0  0  0  0  0  0
    6.4460    1.2430   16.8680 O   0  0  0  0  0  0  0  0  0  0  0  0
    8.5870   -0.4030   20.6840 O   0  0  0  0  0  0  0  0  0  0  0  0
    5.5370   -0.2990   21.6940 C   0  0  0  0  0  0  0  0  0  0  0  0
    8.0490   -0.8990   21.6240 C   0  0  1  0  0  0  0  0  0  0  0  0
    8.7440   -0.1690   22.8370 C   0  0  0  0  0  0  0  0  0  0  0  0
    9.3020   -1.1790   23.6340 N   0  0  0  0  0  0  0  0  0  0  0  0
    8.4610   -2.3660   23.9480 C   0  0  0  0  0  0  0  0  0  0  0  0
    8.0820   -3.0120   22.7790 C   0  0  0  0  0  0  0  0  0  0  0  0
    8.3360   -2.2870   21.6610 N   0  0  0  0  0  0  0  0  0  0  0  0
    4.8090    1.7740   18.4120 N   0  0  0  0  0  0  0  0  0  0  0  0
    4.1720    1.6510   19.7290 C   0  0  0  0  0  0  0  0  0  0  0  0
    4.7930    0.7560   20.6210 C   0  0  0  0  0  0  0  0  0  0  0  0
    5.9770    0.0020   20.2560 C   0  0  0  0  0  0  0  0  0  0  0  0
    6.5540    0.1380   18.9960 C   0  0  0  0  0  0  0  0  0  0  0  0
    5.9850    1.0080   18.0980 C   0  0  0  0  0  0  0  0  0  0  0  0
   11.4580   -1.5250   22.2440 C   0  0  0  0  0  0  0  0  0  0  0  0
   12.9130   -1.9610   22.1720 C   0  0  0  0  0  0  0  0  0  0  0  0
   13.5030   -2.4260   23.5270 C   0  0  0  0  0  0  0  0  0  0  0  0
   12.7850   -2.4610   24.8590 C   0  0  0  0  0  0  0  0  0  0  0  0
   11.3630   -1.9910   24.7350 C   0  0  0  0  0  0  0  0  0  0  0  0
   10.7300   -1.5400   23.4210 C   0  0  0  0  0  0  0  0  0  0  0  0
    4.3240    0.4530   22.0710 C   0  0  0  0  0  0  0  0  0  0  0  0
    3.1550    1.2620   22.2530 C   0  0  0  0  0  0  0  0  0  0  0  0
    2.4400    2.2470   21.3140 C   0  0  0  0  0  0  0  0  0  0  0  0
    3.0480    2.4020   19.9790 C   0  0  0  0  0  0  0  0  0  0  0  0
  1  2  2  0
  1  6  1  0
  6  4  1  6
  6  7  1  0
  7  8  1  0
  8  9  1  0
  9 10  1  0
  6 11  1  0
 10 11  1  0
 12 13  2  0
 13 14  1  0
  1 15  1  0
 14 15  2  0
 15 16  1  0
  3 17  1  0
 12 17  1  0
 16 17  2  0
 18 19  2  0
 19 20  1  0
 20 21  2  0
 21 22  1  0
  8 23  1  0
 18 23  1  0
 22 23  2  0
  5 24  1  0
 14 24  1  0
 24 25  2  0
 25 26  1  0
 13 27  1  0
 26 27  2  0
M  END
