x0104-x0770
     RDKit          3D

 26 28  0  0  0  0  0  0  0  0999 V2000
    9.0100    6.5330   22.6090 C   0  0  0  0  0  0  0  0  0  0  0  0
   10.2430    6.1480   23.3760 C   0  0  0  0  0  0  0  0  0  0  0  0
   10.3340    6.2940   24.5960 O   0  0  0  0  0  0  0  0  0  0  0  0
   11.2860    5.6190   22.6870 N   0  0  0  0  0  0  0  0  0  0  0  0
   12.4740    4.9700   23.2370 C   0  0  0  0  0  0  0  0  0  0  0  0
   12.6700    3.5460   22.6970 C   0  0  0  0  0  0  0  0  0  0  0  0
   13.6160   -1.9400   21.9660 F   0  0  0  0  0  0  0  0  0  0  0  0
    7.2310   -3.0030   18.7820 C   0  0  0  0  0  0  0  0  0  0  0  0
    5.4000   -4.1860   19.7750 O   0  0  0  0  0  0  0  0  0  0  0  0
    6.2780   -3.3210   19.9220 C   0  0  0  0  0  0  0  0  0  0  0  0
    9.4300   -1.8240   24.1960 C   0  0  0  0  0  0  0  0  0  0  0  0
   11.7430    2.4530   23.1930 C   0  0  0  0  0  0  0  0  0  0  0  0
   10.5480    2.6380   23.8520 C   0  0  0  0  0  0  0  0  0  0  0  0
    9.9790    1.4140   24.1080 N   0  0  0  0  0  0  0  0  0  0  0  0
   10.7720    0.3940   23.6290 C   0  0  0  0  0  0  0  0  0  0  0  0
   11.8970    1.0220   23.0660 C   0  0  0  0  0  0  0  0  0  0  0  0
   10.5920   -1.0260   23.6400 C   0  0  0  0  0  0  0  0  0  0  0  0
   11.6110   -1.7700   23.0500 C   0  0  0  0  0  0  0  0  0  0  0  0
   12.7060   -1.1690   22.5120 C   0  0  0  0  0  0  0  0  0  0  0  0
   12.8840    0.1950   22.5140 C   0  0  0  0  0  0  0  0  0  0  0  0
    6.4740   -2.6260   21.1110 N   0  0  0  0  0  0  0  0  0  0  0  0
    7.2760   -1.3880   21.1550 C   0  0  0  0  0  0  0  0  0  0  0  0
    8.6190   -1.5650   21.8810 C   0  0  0  0  0  0  0  0  0  0  0  0
    8.3040   -1.9280   23.2620 N   0  0  0  0  0  0  0  0  0  0  0  0
    7.5930   -3.2250   23.3080 C   0  0  0  0  0  0  0  0  0  0  0  0
    6.3420   -3.3370   22.3930 C   0  0  0  0  0  0  0  0  0  0  0  0
  1  2  1  0
  2  3  2  0
  2  4  1  0
  4  5  1  0
  5  6  1  0
  8 10  1  0
  9 10  2  0
  6 12  1  0
 12 13  2  0
 13 14  1  0
 14 15  1  0
 12 16  1  0
 15 16  2  0
 11 17  1  0
 15 17  1  0
 17 18  2  0
  7 19  1  0
 18 19  1  0
 16 20  1  0
 19 20  2  0
 10 21  1  0
 21 22  1  0
 22 23  1  0
 11 24  1  0
 23 24  1  0
 24 25  1  0
 21 26  1  0
 25 26  1  0
M  END
