x0161-x2908
     RDKit          3D

 29 31  0  0  0  0  0  0  0  0999 V2000
   13.2860   -2.1300   24.9300 C   0  0  0  0  0  0  0  0  0  0  0  0
   12.8790   -0.9550   24.8330 O   0  0  0  0  0  0  0  0  0  0  0  0
   13.9370    0.0170   23.0040 O   0  0  0  0  0  0  0  0  0  0  0  0
   10.0480    5.2530   23.5760 S   0  0  0  0  0  0  0  0  0  0  0  0
   10.9380    6.1650   22.8910 O   0  0  0  0  0  0  0  0  0  0  0  0
    9.5440    5.6380   24.8800 O   0  0  0  0  0  0  0  0  0  0  0  0
    8.7290    5.0040   22.5760 N   0  0  0  0  0  0  0  0  0  0  0  0
    4.8300    1.1820   21.5570 C   0  0  0  0  0  0  0  0  0  0  0  0
    8.5890    1.1450   21.4150 O   0  0  0  0  0  0  0  0  0  0  0  0
    6.9960   -0.5140   20.9770 N   0  0  0  0  0  0  0  0  0  0  0  0
    9.2490   -1.0330   21.4080 N   0  0  0  0  0  0  0  0  0  0  0  0
    8.2920   -0.0330   21.2940 C   0  0  0  0  0  0  0  0  0  0  0  0
   11.7920    0.7660   23.3930 C   0  0  1  0  0  0  0  0  0  0  0  0
   12.6050    1.9270   22.8360 C   0  0  0  0  0  0  0  0  0  0  0  0
   12.1620    3.3750   23.0150 C   0  0  0  0  0  0  0  0  0  0  0  0
   10.9110    3.7220   23.8420 C   0  0  2  0  0  0  0  0  0  0  0  0
   10.2090    2.5160   24.5490 C   0  0  0  0  0  0  0  0  0  0  0  0
   10.6980    1.0820   24.3510 C   0  0  0  0  0  0  0  0  0  0  0  0
    6.1740    0.6140   17.5040 N   0  0  0  0  0  0  0  0  0  0  0  0
    6.8380   -0.1010   18.5700 C   0  0  0  0  0  0  0  0  0  0  0  0
    6.3780    0.1170   19.8450 C   0  0  0  0  0  0  0  0  0  0  0  0
    5.3280    0.9530   20.1550 C   0  0  0  0  0  0  0  0  0  0  0  0
    4.6740    1.6460   19.1510 C   0  0  0  0  0  0  0  0  0  0  0  0
    5.0800    1.4990   17.8320 C   0  0  0  0  0  0  0  0  0  0  0  0
   10.6820    0.4070   22.4680 C   0  0  0  0  0  0  0  0  0  0  0  0
   12.7050   -0.4750   23.4900 C   0  0  2  0  0  0  0  0  0  0  0  0
   12.4600   -1.6730   22.5760 C   0  0  0  0  0  0  0  0  0  0  0  0
   11.0150   -2.0340   22.8350 C   0  0  0  0  0  0  0  0  0  0  0  0
   10.2850   -0.8870   22.2150 C   0  0  0  0  0  0  0  0  0  0  0  0
  1  2  1  0
  4  5  2  0
  4  6  2  0
  4  7  1  0
  9 12  2  0
 10 12  1  0
 11 12  1  0
 13 14  1  6
 14 15  2  0
 16  4  1  6
 15 16  1  0
 16 17  1  0
 13 18  1  0
 17 18  2  0
 19 20  2  0
 10 21  1  0
 20 21  1  0
  8 22  1  0
 21 22  2  0
 22 23  1  0
 19 24  1  0
 23 24  2  0
 13 25  1  0
 26  2  1  0
 26  3  1  6
 13 26  1  0
 26 27  1  0
 27 28  1  0
 11 29  1  0
 25 29  2  0
 28 29  1  0
M  END
