x0161-x1412
     RDKit          3D

 33 35  0  0  0  0  0  0  0  0999 V2000
   13.3900   -2.4030   23.4600 C   0  0  0  0  0  0  0  0  0  0  0  0
   13.2740   -1.1150   23.9990 N   0  0  0  0  0  0  0  0  0  0  0  0
   13.1240   -0.2020   22.9920 C   0  0  0  0  0  0  0  0  0  0  0  0
   13.5460   -0.4510   21.8850 O   0  0  0  0  0  0  0  0  0  0  0  0
   10.2440    5.2560   23.7510 S   0  0  0  0  0  0  0  0  0  0  0  0
   11.1220    6.2950   23.2580 O   0  0  0  0  0  0  0  0  0  0  0  0
    9.7380    5.5290   25.0760 O   0  0  0  0  0  0  0  0  0  0  0  0
    8.9310    5.1470   22.7150 N   0  0  0  0  0  0  0  0  0  0  0  0
    7.2860   -3.0040   18.7750 C   0  0  0  0  0  0  0  0  0  0  0  0
    5.1370   -3.8790   19.4610 O   0  0  0  0  0  0  0  0  0  0  0  0
    6.2050   -3.3880   19.7800 C   0  0  0  0  0  0  0  0  0  0  0  0
    9.0120   -1.4910   24.5330 N   0  0  0  0  0  0  0  0  0  0  0  0
    8.4420   -2.7460   24.5650 C   0  0  0  0  0  0  0  0  0  0  0  0
   12.4180   -1.0800   25.0980 C   0  0  0  0  0  0  0  0  0  0  0  0
   11.0960   -0.5170   24.6350 C   0  0  0  0  0  0  0  0  0  0  0  0
    9.9590   -1.0220   25.4740 C   0  0  0  0  0  0  0  0  0  0  0  0
   12.4230    1.1230   23.1790 C   0  0  0  0  0  0  0  0  0  0  0  0
   13.0220    2.4780   22.8020 C   0  0  0  0  0  0  0  0  0  0  0  0
   12.2980    3.6310   23.0050 C   0  0  0  0  0  0  0  0  0  0  0  0
   11.0380    3.6790   23.5470 C   0  0  0  0  0  0  0  0  0  0  0  0
   10.4030    2.4800   23.9320 C   0  0  0  0  0  0  0  0  0  0  0  0
   11.0250    1.2130   23.7740 C   0  0  0  0  0  0  0  0  0  0  0  0
    6.4710   -3.2070   21.1050 N   0  0  0  0  0  0  0  0  0  0  0  0
    7.1980   -2.1010   21.4190 C   0  0  0  0  0  0  0  0  0  0  0  0
    8.2640   -2.2900   22.2770 C   0  0  0  0  0  0  0  0  0  0  0  0
    7.6630   -2.9130   23.4800 N   0  0  0  0  0  0  0  0  0  0  0  0
    7.3050   -4.1600   23.1820 C   0  0  0  0  0  0  0  0  0  0  0  0
    6.4460   -4.2570   21.9530 C   0  0  0  0  0  0  0  0  0  0  0  0
    9.6050   -4.9530   25.5040 C   0  0  0  0  0  0  0  0  0  0  0  0
    8.6230   -3.8170   25.5340 C   0  0  0  0  0  0  0  0  0  0  0  0
    7.6750   -4.0010   26.9590 S   0  0  0  0  0  0  0  0  0  0  0  0
    8.4990   -5.4330   27.4560 C   0  0  0  0  0  0  0  0  0  0  0  0
    9.5030   -5.8190   26.5690 C   0  0  0  0  0  0  0  0  0  0  0  0
  1  2  1  0
  2  3  1  0
  3  4  2  0
  5  6  2  0
  5  7  2  0
  5  8  1  0
  9 11  1  0
 10 11  2  0
 12 13  2  3
  2 14  1  0
 14 15  1  0
 12 16  1  0
 15 16  1  0
  3 17  1  0
 17 18  2  0
 18 19  1  0
  5 20  1  0
 19 20  2  0
 20 21  1  0
 17 22  1  0
 21 22  2  0
 11 23  1  0
 23 24  1  0
 24 25  1  0
 13 26  1  0
 25 26  1  0
 26 27  1  0
 23 28  1  0
 27 28  1  0
 13 30  1  0
 29 30  2  0
 30 31  1  0
 31 32  1  0
 29 33  1  0
 32 33  2  0
M  END
