x0161-x2608
     RDKit          3D

 27 29  0  0  0  0  0  0  0  0999 V2000
   13.3440   -2.1850   24.7460 C   0  0  0  0  0  0  0  0  0  0  0  0
   12.9610   -1.0010   24.7220 O   0  0  0  0  0  0  0  0  0  0  0  0
   13.1620   -0.8600   22.4440 O   0  0  0  0  0  0  0  0  0  0  0  0
   10.2190    5.3230   23.4990 S   0  0  0  0  0  0  0  0  0  0  0  0
   11.0650    6.2010   22.7260 O   0  0  0  0  0  0  0  0  0  0  0  0
    9.7250    5.7530   24.7960 O   0  0  0  0  0  0  0  0  0  0  0  0
    8.9010    4.8700   22.5670 N   0  0  0  0  0  0  0  0  0  0  0  0
    9.0070   -1.2850   21.8780 N   0  0  0  0  0  0  0  0  0  0  0  0
    8.4240    0.7700   21.0510 O   0  0  0  0  0  0  0  0  0  0  0  0
    6.9490   -0.9380   20.8170 N   0  0  0  0  0  0  0  0  0  0  0  0
    8.1440   -0.4080   21.2350 C   0  0  0  0  0  0  0  0  0  0  0  0
   11.7110    0.8270   23.5250 C   0  0  2  0  0  0  0  0  0  0  0  0
   12.6490    1.8780   22.9510 C   0  0  0  0  0  0  0  0  0  0  0  0
   12.3540    3.4000   23.0200 C   0  0  0  0  0  0  0  0  0  0  0  0
   11.0870    3.8190   23.8090 C   0  0  2  0  0  0  0  0  0  0  0  0
   10.3150    2.6420   24.4880 C   0  0  0  0  0  0  0  0  0  0  0  0
   10.7020    1.1560   24.3500 C   0  0  0  0  0  0  0  0  0  0  0  0
   12.2500   -0.6470   23.5320 C   0  0  2  0  0  0  0  0  0  0  0  0
   11.0360   -1.5090   23.3510 C   0  0  0  0  0  0  0  0  0  0  0  0
   10.1570   -0.7490   22.5900 C   0  0  0  0  0  0  0  0  0  0  0  0
   10.2820    1.0470   22.3380 S   0  0  0  0  0  0  0  0  0  0  0  0
    6.0950    0.7080   17.7130 N   0  0  0  0  0  0  0  0  0  0  0  0
    6.6710   -0.0130   18.6600 C   0  0  0  0  0  0  0  0  0  0  0  0
    6.1610   -0.1320   19.9180 C   0  0  0  0  0  0  0  0  0  0  0  0
    4.9810    0.4910   20.3160 C   0  0  0  0  0  0  0  0  0  0  0  0
    4.3390    1.2670   19.3480 C   0  0  0  0  0  0  0  0  0  0  0  0
    4.9450    1.3370   18.0790 C   0  0  0  0  0  0  0  0  0  0  0  0
  1  2  1  0
  4  5  2  0
  4  6  2  0
  4  7  1  0
  8 11  1  0
  9 11  2  0
 10 11  1  0
 12 13  1  6
 13 14  2  0
 15  4  1  6
 14 15  1  0
 15 16  1  0
 12 17  1  0
 16 17  2  0
 18  2  1  0
 18  3  1  6
 12 18  1  0
 18 19  1  0
  8 20  1  0
 19 20  1  0
 12 21  1  0
 20 21  2  0
 22 23  2  0
 10 24  1  0
 23 24  1  0
 24 25  2  0
 25 26  1  0
 22 27  1  0
 26 27  2  0
M  END
