x0161-x1375
     RDKit          3D

 34 36  0  0  0  0  0  0  0  0999 V2000
    5.7410   -4.7830   20.0440 O   0  0  0  0  0  0  0  0  0  0  0  0
    6.5830   -4.4820   20.9300 C   0  0  0  0  0  0  0  0  0  0  0  0
    8.0090   -3.9150   20.6650 C   0  0  0  0  0  0  0  0  0  0  0  0
    6.3320   -4.5860   22.3290 N   0  0  0  0  0  0  0  0  0  0  0  0
    2.0990   -7.0830   23.7440 O   0  0  0  0  0  0  0  0  0  0  0  0
    4.4110   -7.7770   24.8210 O   0  0  0  0  0  0  0  0  0  0  0  0
   10.7570   -3.6420   25.9110 O   0  0  0  0  0  0  0  0  0  0  0  0
   13.1240   -2.0610   23.9090 C   0  0  0  0  0  0  0  0  0  0  0  0
   13.2510   -0.8390   24.0330 O   0  0  0  0  0  0  0  0  0  0  0  0
   13.0550   -0.2200   23.0260 C   0  0  0  0  0  0  0  0  0  0  0  0
   13.4330   -0.5990   21.9390 O   0  0  0  0  0  0  0  0  0  0  0  0
   10.0670    5.1450   23.8400 S   0  0  0  0  0  0  0  0  0  0  0  0
   10.9590    6.2090   23.4070 O   0  0  0  0  0  0  0  0  0  0  0  0
    9.3780    5.2340   25.1140 O   0  0  0  0  0  0  0  0  0  0  0  0
    8.8410    5.0540   22.6990 N   0  0  0  0  0  0  0  0  0  0  0  0
   11.8230   -3.6800   25.3630 C   0  0  0  0  0  0  0  0  0  0  0  0
   12.5970   -2.3980   25.2650 C   0  0  0  0  0  0  0  0  0  0  0  0
    7.7960   -3.0800   23.6120 C   0  0  0  0  0  0  0  0  0  0  0  0
    8.9510   -2.8240   24.5600 C   0  0  0  0  0  0  0  0  0  0  0  0
    9.7520   -3.9810   25.0840 C   0  0  0  0  0  0  0  0  0  0  0  0
    9.2850   -5.3680   24.5680 C   0  0  0  0  0  0  0  0  0  0  0  0
    8.1940   -5.4740   23.6850 C   0  0  0  0  0  0  0  0  0  0  0  0
    7.4740   -4.3720   23.2260 C   0  0  0  0  0  0  0  0  0  0  0  0
    4.9400   -4.5610   24.1740 C   0  0  0  0  0  0  0  0  0  0  0  0
    5.4540   -5.4130   23.1840 C   0  0  1  0  0  0  0  0  0  0  0  0
    4.4040   -6.0740   22.6010 C   0  0  0  0  0  0  0  0  0  0  0  0
    3.5830   -6.6380   24.0900 S   0  0  0  0  0  0  0  0  0  0  0  0
    3.6980   -5.1910   24.9010 C   0  0  0  0  0  0  0  0  0  0  0  0
   12.3230    1.0560   23.2460 C   0  0  0  0  0  0  0  0  0  0  0  0
   13.0090    2.3330   22.8300 C   0  0  0  0  0  0  0  0  0  0  0  0
   12.2890    3.6360   23.0120 C   0  0  0  0  0  0  0  0  0  0  0  0
   10.9110    3.5710   23.6240 C   0  0  0  0  0  0  0  0  0  0  0  0
   10.3580    2.3240   23.9930 C   0  0  0  0  0  0  0  0  0  0  0  0
   11.0370    1.0900   23.8130 C   0  0  0  0  0  0  0  0  0  0  0  0
  1  2  2  0
  2  3  1  0
  2  4  1  0
  8  9  1  0
  9 10  1  0
 10 11  2  0
 12 13  2  0
 12 14  2  0
 12 15  1  0
  7 16  1  0
  8 17  1  0
 16 17  1  0
 18 19  2  0
  7 20  1  0
 19 20  1  0
 20 21  2  0
 21 22  1  0
  4 23  1  0
 18 23  1  0
 22 23  2  0
 25  4  1  6
 24 25  1  0
 25 26  1  0
 27  5  1  0
  6 27  1  0
 26 27  1  0
 24 28  2  0
 27 28  1  0
 10 29  1  0
 29 30  2  0
 30 31  1  0
 12 32  1  0
 31 32  2  0
 32 33  1  0
 29 34  1  0
 33 34  2  0
M  END
