x0165-x2659
     RDKit          3D

 31 34  0  0  0  0  0  0  0  0999 V2000
   19.8070  -20.1780   16.1690 C   0  0  0  0  0  0  0  0  0  0  0  0
   21.6220  -19.7090   13.2240 O   0  0  0  0  0  0  0  0  0  0  0  0
   25.1930  -28.2610   19.6980 Cl  0  0  0  0  0  0  0  0  0  0  0  0
   20.7150  -20.9070   15.2190 C   0  0  1  0  0  0  0  0  0  0  0  0
   22.5030  -19.4710   15.3190 O   0  0  0  0  0  0  0  0  0  0  0  0
   21.6800  -19.9630   14.5550 C   0  0  0  0  0  0  0  0  0  0  0  0
   23.2320  -25.2700   14.7600 N   0  0  0  0  0  0  0  0  0  0  0  0
   22.6260  -24.1400   15.4440 C   0  0  0  0  0  0  0  0  0  0  0  0
   22.7780  -24.2980   16.8510 C   0  0  0  0  0  0  0  0  0  0  0  0
   23.4960  -25.5300   17.2010 C   0  0  0  0  0  0  0  0  0  0  0  0
   23.7470  -26.0960   15.7820 C   0  0  0  0  0  0  0  0  0  0  0  0
   21.4510  -22.0760   15.7750 C   0  0  0  0  0  0  0  0  0  0  0  0
   21.9880  -23.0580   14.9240 C   0  0  0  0  0  0  0  0  0  0  0  0
   22.2570  -23.3050   17.7560 C   0  0  0  0  0  0  0  0  0  0  0  0
   21.5060  -22.0210   17.3690 C   0  0  0  0  0  0  0  0  0  0  0  0
   24.4230  -27.3010   15.6870 C   0  0  0  0  0  0  0  0  0  0  0  0
   24.8640  -27.9530   17.0200 C   0  0  0  0  0  0  0  0  0  0  0  0
   24.6370  -27.4330   18.2950 C   0  0  0  0  0  0  0  0  0  0  0  0
   23.9660  -26.2460   18.4220 C   0  0  0  0  0  0  0  0  0  0  0  0
   23.2100  -17.5760   24.1730 C   0  0  0  0  0  0  0  0  0  0  0  0
   22.6600  -22.3940   21.6480 C   0  0  0  0  0  0  0  0  0  0  0  0
   21.4200  -22.8730   21.9600 O   0  0  0  0  0  0  0  0  0  0  0  0
   23.3730  -22.7280   20.5210 N   0  0  0  0  0  0  0  0  0  0  0  0
   23.6140  -18.9690   23.9940 N   0  0  0  0  0  0  0  0  0  0  0  0
   24.1980  -19.1790   22.7980 C   0  0  0  0  0  0  0  0  0  0  0  0
   24.3040  -20.4460   22.1990 C   0  0  0  0  0  0  0  0  0  0  0  0
   23.2790  -21.4220   22.5980 N   0  0  0  0  0  0  0  0  0  0  0  0
   22.5280  -21.1130   23.8090 C   0  0  0  0  0  0  0  0  0  0  0  0
   22.5360  -19.7400   24.0830 C   0  0  0  0  0  0  0  0  0  0  0  0
   21.7580  -22.3090   18.8310 C   0  0  0  0  0  0  0  0  0  0  0  0
   23.0790  -22.2230   19.2980 C   0  0  0  0  0  0  0  0  0  0  0  0
  4  1  1  1
  2  6  2  0
  4  6  1  0
  5  6  1  0
  7  8  1  0
  8  9  2  0
  9 10  1  0
  7 11  1  0
 10 11  2  0
  4 12  1  0
  8 13  1  0
 12 13  2  0
  9 14  1  0
 12 15  1  0
 14 15  2  0
 11 16  1  0
 16 17  2  0
  3 18  1  0
 17 18  1  0
 10 19  1  0
 18 19  2  0
 21 22  2  0
 21 23  1  0
 20 24  1  0
 24 25  1  0
 25 26  1  0
 21 27  1  0
 26 27  1  0
 27 28  1  0
 24 29  1  0
 28 29  1  0
 15 30  1  0
 23 31  1  0
 30 31  1  0
M  END
