x0161-x0991
     RDKit          3D

 22 22  0  0  0  0  0  0  0  0999 V2000
   13.2110   -1.6520   24.6210 C   0  0  0  0  0  0  0  0  0  0  0  0
   12.3270   -0.9560   24.1820 O   0  0  0  0  0  0  0  0  0  0  0  0
   12.7320   -0.2160   23.2970 C   0  0  0  0  0  0  0  0  0  0  0  0
   13.5340   -0.5400   22.4240 O   0  0  0  0  0  0  0  0  0  0  0  0
   10.2310    5.3420   23.7230 S   0  0  0  0  0  0  0  0  0  0  0  0
   11.0720    6.3760   23.1610 O   0  0  0  0  0  0  0  0  0  0  0  0
    9.7120    5.5100   25.0620 O   0  0  0  0  0  0  0  0  0  0  0  0
    8.9150    5.2010   22.6910 N   0  0  0  0  0  0  0  0  0  0  0  0
   10.0140   -5.0570   25.7480 N   0  0  0  0  0  0  0  0  0  0  0  0
    8.6110   -3.5740   22.9360 C   0  0  0  0  0  0  0  0  0  0  0  0
    8.4910   -3.4170   24.4650 C   0  0  0  0  0  0  0  0  0  0  0  0
    7.7210   -5.6910   25.3530 N   0  0  0  0  0  0  0  0  0  0  0  0
    8.7260   -4.7500   25.1830 C   0  0  0  0  0  0  0  0  0  0  0  0
   12.8880   -3.0840   24.3830 C   0  0  0  0  0  0  0  0  0  0  0  0
   11.3690   -3.3450   24.4480 C   0  0  0  0  0  0  0  0  0  0  0  0
   11.1500   -4.1250   25.7450 C   0  0  0  0  0  0  0  0  0  0  0  0
   12.1610    1.1360   23.3730 C   0  0  0  0  0  0  0  0  0  0  0  0
   12.8930    2.3900   22.8840 C   0  0  0  0  0  0  0  0  0  0  0  0
   12.2100    3.5880   23.0340 C   0  0  0  0  0  0  0  0  0  0  0  0
   10.9520    3.7260   23.5860 C   0  0  0  0  0  0  0  0  0  0  0  0
   10.2620    2.5920   24.0390 C   0  0  0  0  0  0  0  0  0  0  0  0
   10.7870    1.2980   23.9680 C   0  0  0  0  0  0  0  0  0  0  0  0
  1  2  1  0
  2  3  1  0
  3  4  2  0
  5  6  2  0
  5  7  2  0
  5  8  1  0
 10 11  1  0
  9 13  2  3
 11 13  1  0
 12 13  1  0
  1 14  1  0
 14 15  1  0
  9 16  1  0
 15 16  1  0
  3 17  1  0
 17 18  2  0
 18 19  1  0
  5 20  1  0
 19 20  2  0
 20 21  1  0
 17 22  1  0
 21 22  2  0
M  END
