x0161-x0434
     RDKit          3D

 26 27  0  0  0  0  0  0  0  0999 V2000
   13.3380   -2.2670   24.2620 C   0  0  0  0  0  0  0  0  0  0  0  0
   13.0610   -1.0640   24.3960 O   0  0  0  0  0  0  0  0  0  0  0  0
   13.0510   -0.3860   23.3570 C   0  0  0  0  0  0  0  0  0  0  0  0
   13.5860   -0.7490   22.3190 O   0  0  0  0  0  0  0  0  0  0  0  0
   10.1720    5.1290   23.6780 S   0  0  0  0  0  0  0  0  0  0  0  0
   11.0940    6.0770   23.0810 O   0  0  0  0  0  0  0  0  0  0  0  0
    9.6530    5.3900   25.0030 O   0  0  0  0  0  0  0  0  0  0  0  0
    8.8570    5.0110   22.6420 N   0  0  0  0  0  0  0  0  0  0  0  0
   12.3260    0.9670   23.4190 C   0  0  0  0  0  0  0  0  0  0  0  0
   13.0120    2.1680   22.8990 C   0  0  0  0  0  0  0  0  0  0  0  0
   12.2940    3.4670   22.9850 C   0  0  0  0  0  0  0  0  0  0  0  0
   10.9020    3.4940   23.6030 C   0  0  0  0  0  0  0  0  0  0  0  0
   10.0670    2.2520   24.1830 C   0  0  0  0  0  0  0  0  0  0  0  0
   11.0670    1.0460   23.9560 C   0  0  0  0  0  0  0  0  0  0  0  0
    9.0530    1.2100   21.1540 O   0  0  0  0  0  0  0  0  0  0  0  0
    8.4410   -0.0160   21.5720 C   0  0  0  0  0  0  0  0  0  0  0  0
    8.9590   -0.3420   22.6920 N   0  0  0  0  0  0  0  0  0  0  0  0
    7.4150   -0.6720   20.8950 N   0  0  0  0  0  0  0  0  0  0  0  0
    5.2540    0.7470   20.3230 C   0  0  0  0  0  0  0  0  0  0  0  0
    4.6170    1.3590   19.2390 C   0  0  0  0  0  0  0  0  0  0  0  0
    5.1520    1.2920   17.9470 C   0  0  0  0  0  0  0  0  0  0  0  0
    6.3250    0.6110   17.6870 N   0  0  0  0  0  0  0  0  0  0  0  0
    6.9440    0.0200   18.7090 C   0  0  0  0  0  0  0  0  0  0  0  0
    6.5240    0.0300   20.0040 C   0  0  0  0  0  0  0  0  0  0  0  0
    9.5360    0.9120   24.6430 C   0  0  0  0  0  0  0  0  0  0  0  0
    8.5000    0.4580   23.8320 C   0  0  0  0  0  0  0  0  0  0  0  0
  1  2  1  0
  2  3  1  0
  3  4  2  0
  5  6  2  0
  5  7  2  0
  5  8  1  0
  3  9  1  0
  9 10  2  0
 10 11  1  0
  5 12  1  0
 11 12  2  0
 12 13  1  0
  9 14  1  0
 13 14  2  0
 15 16  2  0
 16 17  1  0
 16 18  1  0
 19 20  2  0
 20 21  1  0
 21 22  2  0
 22 23  1  0
 18 24  1  0
 19 24  1  0
 23 24  2  0
 13 25  1  0
 17 26  1  0
 25 26  1  0
M  END
