x0161-x2562
     RDKit          3D

 31 33  0  0  0  0  0  0  0  0999 V2000
   13.3520   -2.4180   24.1580 C   0  0  0  0  0  0  0  0  0  0  0  0
   13.1000   -1.2130   24.2750 O   0  0  0  0  0  0  0  0  0  0  0  0
   12.9730   -0.5710   23.2200 C   0  0  0  0  0  0  0  0  0  0  0  0
   13.4890   -0.8950   22.1600 O   0  0  0  0  0  0  0  0  0  0  0  0
    9.8380    4.9440   23.7280 S   0  0  0  0  0  0  0  0  0  0  0  0
   10.7410    5.9850   23.2870 O   0  0  0  0  0  0  0  0  0  0  0  0
    9.2080    5.1080   25.0280 O   0  0  0  0  0  0  0  0  0  0  0  0
    8.6190    4.8870   22.5740 N   0  0  0  0  0  0  0  0  0  0  0  0
   13.5650    7.2350   22.5590 O   0  0  0  0  0  0  0  0  0  0  0  0
   12.1250    0.6940   23.3230 C   0  0  0  0  0  0  0  0  0  0  0  0
   12.8110    2.0140   23.1120 C   0  0  0  0  0  0  0  0  0  0  0  0
   12.0770    3.3480   23.2510 C   0  0  0  0  0  0  0  0  0  0  0  0
   10.6470    3.3420   23.5630 C   0  0  0  0  0  0  0  0  0  0  0  0
    9.9860    1.9860   23.7170 C   0  0  0  0  0  0  0  0  0  0  0  0
   10.7850    0.6690   23.6030 C   0  0  0  0  0  0  0  0  0  0  0  0
   12.0960    5.5220   22.0820 N   0  0  0  0  0  0  0  0  0  0  0  0
   13.4930    5.9380   21.9780 C   0  0  2  0  0  0  0  0  0  0  0  0
   14.0230    4.8070   22.8140 C   0  0  0  0  0  0  0  0  0  0  0  0
   12.7650    4.7060   23.1100 C   0  0  2  0  0  0  0  0  0  0  0  0
    8.1070   -0.1320   21.4540 C   0  0  0  0  0  0  0  0  0  0  0  0
    7.3930    1.0390   21.9520 N   0  0  0  0  0  0  0  0  0  0  0  0
    7.2600   -1.0310   20.8760 C   0  0  0  0  0  0  0  0  0  0  0  0
    9.4540   -0.3580   21.5170 N   0  0  0  0  0  0  0  0  0  0  0  0
    4.5320    1.4430   19.4300 N   0  0  0  0  0  0  0  0  0  0  0  0
    5.0980    1.3850   18.0850 C   0  0  0  0  0  0  0  0  0  0  0  0
    6.1610    0.6810   17.6540 N   0  0  0  0  0  0  0  0  0  0  0  0
    6.8090   -0.0670   18.5620 C   0  0  0  0  0  0  0  0  0  0  0  0
    6.4340   -0.1380   19.8740 C   0  0  0  0  0  0  0  0  0  0  0  0
    5.2230    0.6710   20.2950 C   0  0  0  0  0  0  0  0  0  0  0  0
    8.5470    1.8280   23.9530 C   0  0  0  0  0  0  0  0  0  0  0  0
    7.9600    2.0650   22.5760 C   0  0  0  0  0  0  0  0  0  0  0  0
  1  2  1  0
  2  3  1  0
  3  4  2  0
  5  6  2  0
  5  7  2  0
  5  8  1  0
  3 10  1  0
 10 11  2  0
 11 12  1  0
  5 13  1  0
 12 13  2  0
 13 14  1  0
 10 15  1  0
 14 15  2  0
 17  9  1  1
 16 17  1  0
 17 18  1  0
 19 12  1  6
 16 19  1  0
 18 19  1  0
 20 21  2  3
 20 22  1  0
 20 23  1  0
 24 25  2  0
 25 26  1  0
 26 27  2  0
 22 28  1  0
 27 28  1  0
 24 29  1  0
 28 29  2  0
 14 30  1  0
 21 31  1  0
 30 31  1  0
M  END
