x0161-x1336
     RDKit          3D

 36 38  0  0  0  0  0  0  0  0999 V2000
    6.1710   -5.1010   29.1830 C   0  0  0  0  0  0  0  0  0  0  0  0
    8.6590   -1.0370   25.2660 O   0  0  0  0  0  0  0  0  0  0  0  0
    5.8370   -1.2530   25.7430 O   0  0  0  0  0  0  0  0  0  0  0  0
    5.3950   -4.0890   19.6980 O   0  0  0  0  0  0  0  0  0  0  0  0
    9.9440   -3.9030   24.8200 C   0  0  0  0  0  0  0  0  0  0  0  0
    6.4750   -3.5340   19.9270 C   0  0  0  0  0  0  0  0  0  0  0  0
    7.4130   -3.1050   18.8190 C   0  0  0  0  0  0  0  0  0  0  0  0
    7.4940   -1.8860   25.2830 S   0  0  0  0  0  0  0  0  0  0  0  0
   13.2420   -2.1120   24.6720 C   0  0  0  0  0  0  0  0  0  0  0  0
   12.8270   -0.9750   24.6070 O   0  0  0  0  0  0  0  0  0  0  0  0
   12.9310   -0.3780   23.3850 C   0  0  0  0  0  0  0  0  0  0  0  0
   13.4730   -0.8260   22.3900 O   0  0  0  0  0  0  0  0  0  0  0  0
   10.1910    5.3660   23.6980 S   0  0  0  0  0  0  0  0  0  0  0  0
   11.0820    6.3140   23.0720 O   0  0  0  0  0  0  0  0  0  0  0  0
    9.7040    5.5580   25.0420 O   0  0  0  0  0  0  0  0  0  0  0  0
    8.8590    5.1940   22.6920 N   0  0  0  0  0  0  0  0  0  0  0  0
   10.9290   -2.7660   24.9650 C   0  0  0  0  0  0  0  0  0  0  0  0
   12.0580   -3.1390   24.7840 C   0  0  0  0  0  0  0  0  0  0  0  0
    7.2060   -4.8540   28.0870 C   0  0  0  0  0  0  0  0  0  0  0  0
    7.0100   -3.7310   27.2950 C   0  0  0  0  0  0  0  0  0  0  0  0
    7.8340   -3.3450   26.2410 C   0  0  0  0  0  0  0  0  0  0  0  0
    8.9420   -4.1440   25.9490 C   0  0  0  0  0  0  0  0  0  0  0  0
    9.1350   -5.2700   26.7620 C   0  0  0  0  0  0  0  0  0  0  0  0
    8.3130   -5.6570   27.8210 C   0  0  0  0  0  0  0  0  0  0  0  0
    6.9450   -3.3110   21.2080 N   0  0  0  0  0  0  0  0  0  0  0  0
    6.6190   -4.0570   22.2460 C   0  0  0  0  0  0  0  0  0  0  0  0
    6.1880   -3.2560   23.2980 C   0  0  0  0  0  0  0  0  0  0  0  0
    7.3560   -2.4510   23.7200 N   0  0  0  0  0  0  0  0  0  0  0  0
    7.9030   -1.7070   22.7440 C   0  0  0  0  0  0  0  0  0  0  0  0
    7.9650   -2.3000   21.5110 C   0  0  0  0  0  0  0  0  0  0  0  0
   12.2760    0.9780   23.4370 C   0  0  0  0  0  0  0  0  0  0  0  0
   12.8890    2.1160   22.9500 C   0  0  0  0  0  0  0  0  0  0  0  0
   12.3140    3.5250   22.9740 C   0  0  0  0  0  0  0  0  0  0  0  0
   10.9370    3.7610   23.5920 C   0  0  0  0  0  0  0  0  0  0  0  0
   10.2890    2.4620   24.1110 C   0  0  0  0  0  0  0  0  0  0  0  0
   11.0090    1.1210   24.0020 C   0  0  0  0  0  0  0  0  0  0  0  0
  4  6  2  0
  6  7  1  0
  2  8  2  0
  3  8  2  0
  9 10  1  0
 10 11  1  0
 11 12  2  0
 13 14  2  0
 13 15  2  0
 13 16  1  0
  5 17  1  0
  9 18  1  0
 17 18  1  0
  1 19  1  0
 19 20  2  0
  8 21  1  0
 20 21  1  0
  5 22  1  0
 21 22  2  0
 22 23  1  0
 19 24  1  0
 23 24  2  0
  6 25  1  0
 25 26  1  0
 26 27  1  0
  8 28  1  0
 27 28  1  0
 28 29  1  0
 25 30  1  0
 29 30  1  0
 11 31  1  0
 31 32  2  0
 32 33  1  0
 13 34  1  0
 33 34  2  0
 34 35  1  0
 31 36  1  0
 35 36  2  0
M  END
