x0161-x1334
     RDKit          3D

 32 34  0  0  0  0  0  0  0  0999 V2000
   13.3770   -2.2180   24.2430 C   0  0  0  0  0  0  0  0  0  0  0  0
   12.4860   -1.1280   24.0840 N   0  0  0  0  0  0  0  0  0  0  0  0
   13.0020   -0.1830   23.2570 C   0  0  0  0  0  0  0  0  0  0  0  0
   13.8540   -0.3590   22.4320 O   0  0  0  0  0  0  0  0  0  0  0  0
   10.1370    5.2880   23.7350 S   0  0  0  0  0  0  0  0  0  0  0  0
   11.0120    6.3370   23.2540 O   0  0  0  0  0  0  0  0  0  0  0  0
    9.6630    5.4860   25.0840 O   0  0  0  0  0  0  0  0  0  0  0  0
    8.8260    5.1310   22.7000 N   0  0  0  0  0  0  0  0  0  0  0  0
    7.3430   -2.9990   18.7570 C   0  0  0  0  0  0  0  0  0  0  0  0
    5.4000   -4.0650   19.6870 O   0  0  0  0  0  0  0  0  0  0  0  0
    7.3090   -5.9560   28.4730 Cl  0  0  0  0  0  0  0  0  0  0  0  0
    6.3700   -3.3190   19.8760 C   0  0  0  0  0  0  0  0  0  0  0  0
    9.2880   -2.9730   24.2950 C   0  0  1  0  0  0  0  0  0  0  0  0
   11.1570   -1.4660   23.6920 C   0  0  0  0  0  0  0  0  0  0  0  0
   10.7660   -2.9010   23.9220 C   0  0  0  0  0  0  0  0  0  0  0  0
   12.3370    1.1730   23.3530 C   0  0  0  0  0  0  0  0  0  0  0  0
   12.9900    2.4320   22.8610 C   0  0  0  0  0  0  0  0  0  0  0  0
   12.2310    3.7390   23.0010 C   0  0  0  0  0  0  0  0  0  0  0  0
   10.9750    3.7340   23.5780 C   0  0  0  0  0  0  0  0  0  0  0  0
   10.4140    2.5280   24.0180 C   0  0  0  0  0  0  0  0  0  0  0  0
   11.0540    1.2760   23.9190 C   0  0  0  0  0  0  0  0  0  0  0  0
    6.6130   -2.7990   21.1380 N   0  0  0  0  0  0  0  0  0  0  0  0
    7.5930   -1.7370   21.4230 C   0  0  0  0  0  0  0  0  0  0  0  0
    8.7780   -2.2750   21.9620 C   0  0  0  0  0  0  0  0  0  0  0  0
    8.4140   -2.9150   23.2410 N   0  0  0  0  0  0  0  0  0  0  0  0
    7.5780   -3.9550   23.0690 C   0  0  0  0  0  0  0  0  0  0  0  0
    6.4200   -3.6620   22.1410 C   0  0  0  0  0  0  0  0  0  0  0  0
    9.7670   -5.3280   25.4450 C   0  0  0  0  0  0  0  0  0  0  0  0
    9.0450   -4.0260   25.2820 C   0  0  0  0  0  0  0  0  0  0  0  0
    7.8340   -3.9210   26.4760 S   0  0  0  0  0  0  0  0  0  0  0  0
    8.2230   -5.4260   27.1390 C   0  0  0  0  0  0  0  0  0  0  0  0
    9.2780   -6.0970   26.5060 C   0  0  0  0  0  0  0  0  0  0  0  0
  1  2  1  0
  2  3  1  0
  3  4  2  0
  5  6  2  0
  5  7  2  0
  5  8  1  0
  9 12  1  0
 10 12  2  0
  2 14  1  0
 13 15  1  6
 14 15  1  0
  3 16  1  0
 16 17  2  0
 17 18  1  0
  5 19  1  0
 18 19  2  0
 19 20  1  0
 16 21  1  0
 20 21  2  0
 12 22  1  0
 22 23  1  0
 23 24  1  0
 13 25  1  0
 24 25  1  0
 25 26  1  0
 22 27  1  0
 26 27  1  0
 13 29  1  0
 28 29  2  0
 29 30  1  0
 11 31  1  0
 30 31  1  0
 28 32  1  0
 31 32  2  0
M  END
