x0161-x1374
     RDKit          3D

 34 36  0  0  0  0  0  0  0  0999 V2000
   10.3240   -3.3690   25.8530 C   0  0  0  0  0  0  0  0  0  0  0  0
    6.4200   -4.8840   22.0320 N   0  0  0  0  0  0  0  0  0  0  0  0
    6.5660   -4.3760   20.7290 C   0  0  0  0  0  0  0  0  0  0  0  0
    5.6420   -4.4120   19.8950 O   0  0  0  0  0  0  0  0  0  0  0  0
    7.9580   -3.7420   20.4760 C   0  0  0  0  0  0  0  0  0  0  0  0
    2.3080   -6.8800   23.3700 O   0  0  0  0  0  0  0  0  0  0  0  0
    4.2220   -7.8960   24.9030 O   0  0  0  0  0  0  0  0  0  0  0  0
   13.0730   -2.1110   24.0040 C   0  0  0  0  0  0  0  0  0  0  0  0
   13.2300   -0.9080   24.1690 O   0  0  0  0  0  0  0  0  0  0  0  0
   13.0770   -0.2140   23.0450 C   0  0  0  0  0  0  0  0  0  0  0  0
   13.5030   -0.5780   21.9740 O   0  0  0  0  0  0  0  0  0  0  0  0
   10.2170    5.3020   23.7760 S   0  0  0  0  0  0  0  0  0  0  0  0
   11.1330    6.2480   23.1810 O   0  0  0  0  0  0  0  0  0  0  0  0
    9.6750    5.5080   25.1060 O   0  0  0  0  0  0  0  0  0  0  0  0
    8.8670    5.2110   22.7250 N   0  0  0  0  0  0  0  0  0  0  0  0
   11.6960   -3.7500   25.2490 C   0  0  0  0  0  0  0  0  0  0  0  0
   12.4050   -2.5010   25.1090 C   0  0  0  0  0  0  0  0  0  0  0  0
    9.3160   -3.8100   24.8750 C   0  0  0  0  0  0  0  0  0  0  0  0
    8.5750   -2.7930   24.0110 C   0  0  0  0  0  0  0  0  0  0  0  0
    7.6510   -3.2600   23.1140 C   0  0  0  0  0  0  0  0  0  0  0  0
    7.3580   -4.5880   22.9510 C   0  0  0  0  0  0  0  0  0  0  0  0
    7.9760   -5.5680   23.6790 C   0  0  0  0  0  0  0  0  0  0  0  0
    8.9500   -5.2930   24.6480 C   0  0  0  0  0  0  0  0  0  0  0  0
    4.8320   -4.4320   23.7690 C   0  0  0  0  0  0  0  0  0  0  0  0
    5.1080   -5.0640   22.5570 C   0  0  2  0  0  0  0  0  0  0  0  0
    4.8960   -6.4290   22.6990 C   0  0  0  0  0  0  0  0  0  0  0  0
    3.7690   -6.6910   23.9730 S   0  0  0  0  0  0  0  0  0  0  0  0
    4.1050   -5.1660   24.6670 C   0  0  0  0  0  0  0  0  0  0  0  0
   12.3290    1.0570   23.2590 C   0  0  0  0  0  0  0  0  0  0  0  0
   12.9040    2.2560   22.8840 C   0  0  0  0  0  0  0  0  0  0  0  0
   12.2860    3.4820   23.0300 C   0  0  0  0  0  0  0  0  0  0  0  0
   10.9050    3.6620   23.6290 C   0  0  0  0  0  0  0  0  0  0  0  0
   10.2400    2.3290   24.0640 C   0  0  0  0  0  0  0  0  0  0  0  0
   11.0500    1.0280   23.8340 C   0  0  0  0  0  0  0  0  0  0  0  0
  2  3  1  0
  3  4  2  0
  3  5  1  0
  8  9  1  0
  9 10  1  0
 10 11  2  0
 12 13  2  0
 12 14  2  0
 12 15  1  0
  1 16  1  0
  8 17  1  0
 16 17  1  0
  1 18  1  0
 18 19  2  0
 19 20  1  0
  2 21  1  0
 20 21  2  0
 21 22  1  0
 18 23  1  0
 22 23  2  0
 25  2  1  1
 24 25  1  0
 25 26  1  0
 27  6  1  0
  7 27  1  0
 26 27  1  0
 24 28  2  0
 27 28  1  0
 10 29  1  0
 29 30  2  0
 30 31  1  0
 12 32  1  0
 31 32  2  0
 32 33  1  0
 29 34  1  0
 33 34  2  0
M  END
