x0161-x0692
     RDKit          3D

 27 29  0  0  0  0  0  0  0  0999 V2000
   13.5600   -2.3750   24.6500 C   0  0  0  0  0  0  0  0  0  0  0  0
   13.5990   -1.1910   24.2860 O   0  0  0  0  0  0  0  0  0  0  0  0
   13.2470   -0.8160   22.1800 O   0  0  0  0  0  0  0  0  0  0  0  0
   10.3910    5.2390   23.7180 S   0  0  0  0  0  0  0  0  0  0  0  0
   11.3140    6.1740   23.1120 O   0  0  0  0  0  0  0  0  0  0  0  0
    9.8850    5.5210   25.0440 O   0  0  0  0  0  0  0  0  0  0  0  0
    9.0350    5.2370   22.7220 N   0  0  0  0  0  0  0  0  0  0  0  0
    5.4310   -4.1090   19.7090 O   0  0  0  0  0  0  0  0  0  0  0  0
    9.3410   -2.6260   23.6440 C   0  0  0  0  0  0  0  0  0  0  0  0
    6.2810   -3.2230   19.8520 C   0  0  0  0  0  0  0  0  0  0  0  0
    7.3380   -2.9980   18.7710 C   0  0  0  0  0  0  0  0  0  0  0  0
   12.2140    0.6920   23.8140 C   0  0  1  0  0  0  0  0  0  0  0  0
   12.9240    1.7580   22.9970 C   0  0  0  0  0  0  0  0  0  0  0  0
   12.3290    3.1930   22.8500 C   0  0  0  0  0  0  0  0  0  0  0  0
   10.9880    3.4920   23.5720 C   0  0  0  0  0  0  0  0  0  0  0  0
   10.1810    2.3320   24.1470 C   0  0  0  0  0  0  0  0  0  0  0  0
   10.7370    0.9000   23.9560 C   0  0  0  0  0  0  0  0  0  0  0  0
    9.8990   -0.1850   23.8870 C   0  0  0  0  0  0  0  0  0  0  0  0
   10.2860   -1.4750   23.6650 C   0  0  0  0  0  0  0  0  0  0  0  0
   11.6100   -1.7730   23.4210 C   0  0  0  0  0  0  0  0  0  0  0  0
   12.6020   -0.7910   23.4540 C   0  0  2  0  0  0  0  0  0  0  0  0
    6.2950   -2.4460   21.0020 N   0  0  0  0  0  0  0  0  0  0  0  0
    7.1520   -1.2460   21.0090 C   0  0  0  0  0  0  0  0  0  0  0  0
    8.3650   -1.7210   21.5330 C   0  0  0  0  0  0  0  0  0  0  0  0
    8.2540   -2.3030   22.8880 N   0  0  0  0  0  0  0  0  0  0  0  0
    7.4050   -3.3380   22.8940 C   0  0  0  0  0  0  0  0  0  0  0  0
    6.0420   -3.0370   22.2930 C   0  0  0  0  0  0  0  0  0  0  0  0
  1  2  1  0
  4  5  2  0
  4  6  2  0
  4  7  1  0
  8 10  2  0
 10 11  1  0
 12 13  1  6
 13 14  2  0
  4 15  1  0
 14 15  1  0
 15 16  2  0
 12 17  1  0
 16 17  1  0
 17 18  2  0
  9 19  1  0
 18 19  1  0
 19 20  2  0
 21  2  1  0
 21  3  1  6
 12 21  1  0
 20 21  1  0
 10 22  1  0
 22 23  1  0
 23 24  1  0
  9 25  1  0
 24 25  1  0
 25 26  1  0
 22 27  1  0
 26 27  1  0
M  END
