x0165-x0194
     RDKit          3D

 25 27  0  0  0  0  0  0  0  0999 V2000
   24.4650  -14.4290   24.6680 C   0  0  0  0  0  0  0  0  0  0  0  0
   24.0120  -15.0940   25.9510 C   0  0  0  0  0  0  0  0  0  0  0  0
   24.3530  -14.4910   26.9530 O   0  0  0  0  0  0  0  0  0  0  0  0
   23.2710  -16.2600   25.8840 N   0  0  0  0  0  0  0  0  0  0  0  0
   24.8670  -20.8360   22.9640 O   0  0  0  0  0  0  0  0  0  0  0  0
   22.1860  -22.1940   19.9730 C   0  0  0  0  0  0  0  0  0  0  0  0
   21.5120  -22.6970   21.1060 O   0  0  0  0  0  0  0  0  0  0  0  0
   23.7570  -17.4110   25.1470 C   0  0  0  0  0  0  0  0  0  0  0  0
   22.6770  -18.1110   24.4270 C   0  0  0  0  0  0  0  0  0  0  0  0
   22.9600  -19.3500   23.6100 C   0  0  0  0  0  0  0  0  0  0  0  0
   24.4620  -19.8130   23.5850 C   0  0  0  0  0  0  0  0  0  0  0  0
   25.5150  -18.9580   24.3970 C   0  0  0  0  0  0  0  0  0  0  0  0
   25.0740  -17.8260   25.1130 C   0  0  0  0  0  0  0  0  0  0  0  0
   24.9470  -19.9980   20.7790 N   0  0  0  0  0  0  0  0  0  0  0  0
   25.1130  -20.2880   19.3650 C   0  0  0  0  0  0  0  0  0  0  0  0
   24.3700  -21.5170   18.7940 C   0  0  0  0  0  0  0  0  0  0  0  0
   23.5050  -22.4350   19.6890 C   0  0  1  0  0  0  0  0  0  0  0  0
   23.8550  -22.3350   21.1400 N   0  0  0  0  0  0  0  0  0  0  0  0
   24.5310  -21.0910   21.6020 C   0  0  0  0  0  0  0  0  0  0  0  0
   22.6210  -24.7990   19.6430 C   0  0  0  0  0  0  0  0  0  0  0  0
   22.0790  -25.7780   18.8300 C   0  0  0  0  0  0  0  0  0  0  0  0
   21.8700  -25.6100   17.4790 C   0  0  0  0  0  0  0  0  0  0  0  0
   22.2020  -24.4130   16.8660 C   0  0  0  0  0  0  0  0  0  0  0  0
   22.7420  -23.4310   17.6780 C   0  0  0  0  0  0  0  0  0  0  0  0
   22.9660  -23.5840   19.0400 C   0  0  0  0  0  0  0  0  0  0  0  0
  1  2  1  0
  2  3  2  0
  2  4  1  0
  6  7  2  0
  4  8  1  0
  8  9  2  0
  9 10  1  0
  5 11  1  0
 10 11  2  0
 11 12  1  0
  8 13  1  0
 12 13  2  0
 14 15  1  0
 15 16  2  0
 17  6  1  1
 16 17  1  0
 17 18  1  0
  5 19  1  0
 14 19  1  0
 18 19  2  0
 20 21  2  0
 21 22  1  0
 22 23  2  0
 23 24  1  0
 17 25  1  0
 20 25  1  0
 24 25  2  0
M  END
