x0161-x2912
     RDKit          3D

 31 33  0  0  0  0  0  0  0  0999 V2000
    6.8650   -0.6060   20.9340 N   0  0  0  0  0  0  0  0  0  0  0  0
    7.7510   -1.6290   23.5310 C   0  0  0  0  0  0  0  0  0  0  0  0
    8.5980    0.8570   21.2230 O   0  0  0  0  0  0  0  0  0  0  0  0
    8.6510   -1.2740   22.3090 C   0  0  1  0  0  0  0  0  0  0  0  0
    8.0550   -0.2250   21.4400 C   0  0  0  0  0  0  0  0  0  0  0  0
   13.0620   -1.8980   20.9870 N   0  0  0  0  0  0  0  0  0  0  0  0
    4.7170    1.3960   21.7420 C   0  0  0  0  0  0  0  0  0  0  0  0
   13.4670   -1.0680   22.1130 C   0  0  0  0  0  0  0  0  0  0  0  0
   13.5000   -2.3130   24.8990 C   0  0  0  0  0  0  0  0  0  0  0  0
   13.1590   -0.9780   24.5170 O   0  0  0  0  0  0  0  0  0  0  0  0
   10.2420    4.9190   23.6820 S   0  0  0  0  0  0  0  0  0  0  0  0
   11.2800    5.8350   23.2530 O   0  0  0  0  0  0  0  0  0  0  0  0
    9.6010    5.1150   24.9610 O   0  0  0  0  0  0  0  0  0  0  0  0
    8.9290    5.2350   22.6320 N   0  0  0  0  0  0  0  0  0  0  0  0
    6.0690    0.6310   17.6160 N   0  0  0  0  0  0  0  0  0  0  0  0
    5.2180    1.4540   17.7370 C   0  0  0  0  0  0  0  0  0  0  0  0
    4.6250    1.8430   19.1070 C   0  0  0  0  0  0  0  0  0  0  0  0
    5.1720    1.1370   20.3040 C   0  0  0  0  0  0  0  0  0  0  0  0
    6.2420    0.1370   19.9100 C   0  0  0  0  0  0  0  0  0  0  0  0
    6.6360   -0.0710   18.6160 C   0  0  0  0  0  0  0  0  0  0  0  0
   10.6800    0.3420   22.5280 C   0  0  0  0  0  0  0  0  0  0  0  0
   11.8050    0.4150   23.2670 C   0  0  1  0  0  0  0  0  0  0  0  0
   12.4980   -0.8390   23.2640 C   0  0  1  0  0  0  0  0  0  0  0  0
   11.8250   -2.0430   23.2680 C   0  0  0  0  0  0  0  0  0  0  0  0
   10.5950   -1.7770   23.7480 C   0  0  0  0  0  0  0  0  0  0  0  0
    9.9620   -0.8280   22.8030 C   0  0  0  0  0  0  0  0  0  0  0  0
   12.5840    1.5290   22.8830 C   0  0  0  0  0  0  0  0  0  0  0  0
   12.0810    2.9650   22.8760 C   0  0  0  0  0  0  0  0  0  0  0  0
   10.6520    3.1780   23.3280 C   0  0  1  0  0  0  0  0  0  0  0  0
   10.4010    2.2390   24.3520 C   0  0  0  0  0  0  0  0  0  0  0  0
   10.9620    0.9230   24.3730 C   0  0  0  0  0  0  0  0  0  0  0  0
  4  2  1  1
  1  5  1  0
  3  5  2  0
  4  5  1  0
  6  8  1  0
  9 10  1  0
 11 12  2  0
 11 13  2  0
 11 14  1  0
 15 16  2  0
 16 17  1  0
  7 18  1  0
 17 18  2  0
  1 19  1  0
 18 19  1  0
 15 20  1  0
 19 20  2  0
 22 21  1  6
 23  8  1  6
 23 10  1  0
 22 23  1  0
 23 24  1  0
 24 25  1  0
  4 26  1  0
 21 26  2  0
 25 26  1  0
 22 27  1  0
 27 28  2  0
 29 11  1  1
 28 29  1  0
 29 30  1  0
 22 31  1  0
 30 31  2  0
M  END
