x0194-x1226
     RDKit          3D

 25 31  0  0  0  0  0  0  0  0999 V2000
   24.1980  -14.2640   24.7710 C   0  0  0  0  0  0  0  0  0  0  0  0
   23.8310  -14.9930   26.0680 C   0  0  0  0  0  0  0  0  0  0  0  0
   24.1220  -14.4490   27.1120 O   0  0  0  0  0  0  0  0  0  0  0  0
   23.1980  -16.2800   25.9350 N   0  0  0  0  0  0  0  0  0  0  0  0
   23.5950  -20.5660   23.0900 C   0  0  1  0  0  0  0  0  0  0  0  0
   24.3940  -18.0800   23.3250 C   0  0  1  0  0  0  0  0  0  0  0  0
   22.3200  -21.1110   23.7060 C   0  0  0  0  0  0  0  0  0  0  0  0
   20.5240  -25.5910   24.6100 C   0  0  0  0  0  0  0  0  0  0  0  0
   23.7650  -17.1940   24.9770 C   0  0  0  0  0  0  0  0  0  0  0  0
   23.0370  -18.0110   24.1510 C   0  0  2  0  0  0  0  0  0  0  0  0
   23.7080  -19.0560   23.5610 C   0  0  1  0  0  0  0  0  0  0  0  0
   24.6620  -19.8550   24.0260 C   0  0  2  0  0  0  0  0  0  0  0  0
   25.5720  -18.6270   23.8330 C   0  0  2  0  0  0  0  0  0  0  0  0
   25.1220  -17.5500   24.7070 C   0  0  0  0  0  0  0  0  0  0  0  0
   24.8790  -20.1000   20.9450 N   0  0  0  0  0  0  0  0  0  0  0  0
   25.1310  -20.4460   19.5630 C   0  0  0  0  0  0  0  0  0  0  0  0
   24.4920  -21.5000   18.9480 C   0  0  0  0  0  0  0  0  0  0  0  0
   23.6050  -22.2190   19.7180 C   0  0  0  0  0  0  0  0  0  0  0  0
   23.3200  -21.9630   21.0110 N   0  0  0  0  0  0  0  0  0  0  0  0
   23.9390  -20.9080   21.6240 C   0  0  0  0  0  0  0  0  0  0  0  0
   20.9600  -24.4420   24.0510 N   0  0  0  0  0  0  0  0  0  0  0  0
   20.8990  -24.2300   22.7060 N   0  0  0  0  0  0  0  0  0  0  0  0
   21.3960  -22.9870   22.4120 N   0  0  0  0  0  0  0  0  0  0  0  0
   21.7490  -22.4760   23.5930 C   0  0  0  0  0  0  0  0  0  0  0  0
   21.4900  -23.3570   24.6000 C   0  0  0  0  0  0  0  0  0  0  0  0
  1  2  1  0
  2  3  2  0
  2  4  1  0
  5  7  1  1
  4  9  1  0
  6 10  1  0
 10  9  1  1
 11  5  1  6
  6 11  1  0
 10 11  1  0
 12  5  1  6
 11 12  1  0
  6 13  1  0
 12 13  1  0
  6 14  1  6
  9 14  2  0
 13 14  1  1
 15 16  2  0
 16 17  1  0
 17 18  2  0
 18 19  1  0
  5 20  1  0
 15 20  1  0
 19 20  2  0
  8 21  1  0
 21 22  1  0
 22 23  2  0
  7 24  1  0
 23 24  1  0
 21 25  1  0
 24 25  2  0
M  END
