x0194-x0177
     RDKit          3D

 26 29  0  0  0  0  0  0  0  0999 V2000
   23.5660  -16.4420   25.7250 N   0  0  0  0  0  0  0  0  0  0  0  0
   24.5110  -17.5110   25.4270 C   0  0  0  0  0  0  0  0  0  0  0  0
   25.6500  -17.5350   25.9010 O   0  0  0  0  0  0  0  0  0  0  0  0
   22.8250  -21.9210   22.1650 C   0  0  0  0  0  0  0  0  0  0  0  0
   21.7900  -22.6060   22.2240 O   0  0  0  0  0  0  0  0  0  0  0  0
   24.4500  -14.2540   24.5790 C   0  0  0  0  0  0  0  0  0  0  0  0
   24.0110  -15.0560   25.8570 C   0  0  0  0  0  0  0  0  0  0  0  0
   24.0620  -14.4780   26.9240 O   0  0  0  0  0  0  0  0  0  0  0  0
   24.0500  -18.6930   24.4560 C   0  0  0  0  0  0  0  0  0  0  0  0
   22.9230  -19.3890   24.8280 C   0  0  0  0  0  0  0  0  0  0  0  0
   22.5720  -20.5910   24.1830 C   0  0  0  0  0  0  0  0  0  0  0  0
   23.3360  -21.0630   23.1740 N   0  0  0  0  0  0  0  0  0  0  0  0
   24.2770  -20.1750   22.4780 C   0  0  0  0  0  0  0  0  0  0  0  0
   24.7700  -19.0950   23.2020 C   0  0  0  0  0  0  0  0  0  0  0  0
   22.5050  -23.4100   18.0680 C   0  0  0  0  0  0  0  0  0  0  0  0
   21.7680  -24.4330   17.5160 C   0  0  0  0  0  0  0  0  0  0  0  0
   21.2750  -25.5850   18.4370 C   0  0  0  0  0  0  0  0  0  0  0  0
   21.5990  -25.5840   19.9300 C   0  0  0  0  0  0  0  0  0  0  0  0
   22.4360  -24.3710   20.3980 C   0  0  0  0  0  0  0  0  0  0  0  0
   22.8650  -23.3030   19.3920 C   0  0  0  0  0  0  0  0  0  0  0  0
   25.2720  -19.9920   20.3290 N   0  0  0  0  0  0  0  0  0  0  0  0
   25.2410  -20.3920   19.0780 C   0  0  0  0  0  0  0  0  0  0  0  0
   24.3690  -21.5530   18.5770 C   0  0  0  0  0  0  0  0  0  0  0  0
   23.6060  -22.2450   19.7160 C   0  0  0  0  0  0  0  0  0  0  0  0
   23.7410  -21.7550   21.0740 N   0  0  0  0  0  0  0  0  0  0  0  0
   24.4710  -20.6100   21.2410 C   0  0  0  0  0  0  0  0  0  0  0  0
  1  2  1  0
  2  3  2  0
  4  5  2  0
  1  7  1  0
  6  7  1  0
  7  8  2  0
  2  9  1  0
  9 10  1  0
 10 11  2  0
  4 12  1  0
 11 12  1  0
 12 13  1  0
  9 14  2  0
 13 14  1  0
 15 16  2  0
 16 17  1  0
 17 18  2  0
 18 19  1  0
 15 20  1  0
 19 20  2  0
 21 22  2  0
 22 23  1  0
 20 24  1  0
 23 24  2  0
  4 25  1  0
 24 25  1  0
 13 26  2  0
 21 26  1  0
 25 26  1  0
M  END
