x0195-x0692
     RDKit          3D

 23 25  0  0  0  0  0  0  0  0999 V2000
    5.4540   -4.0460   19.7100 O   0  0  0  0  0  0  0  0  0  0  0  0
    9.2960   -2.0700   24.0530 C   0  0  0  0  0  0  0  0  0  0  0  0
    6.3390   -3.1800   19.8480 C   0  0  0  0  0  0  0  0  0  0  0  0
    7.3070   -2.9600   18.7090 C   0  0  0  0  0  0  0  0  0  0  0  0
   10.0740    4.4730   23.3300 S   0  0  0  0  0  0  0  0  0  0  0  0
    9.4870    4.6240   24.6830 O   0  0  0  0  0  0  0  0  0  0  0  0
    9.1840    4.0260   22.3000 O   0  0  0  0  0  0  0  0  0  0  0  0
   11.1320    5.6090   22.6180 N   0  0  0  0  0  0  0  0  0  0  0  0
   11.7790    0.8160   23.7260 C   0  0  1  0  0  0  0  0  0  0  0  0
   10.4710    0.2690   23.9900 C   0  0  0  0  0  0  0  0  0  0  0  0
   10.4540   -1.1290   23.8370 C   0  0  0  0  0  0  0  0  0  0  0  0
   11.7090   -1.5230   23.4770 C   0  0  0  0  0  0  0  0  0  0  0  0
   12.5810   -0.4160   22.8140 C   0  0  0  0  0  0  0  0  0  0  0  0
   12.1400    0.9160   22.5390 C   0  0  0  0  0  0  0  0  0  0  0  0
    6.5020   -2.4220   21.0150 N   0  0  0  0  0  0  0  0  0  0  0  0
    7.5710   -1.3820   21.0630 C   0  0  0  0  0  0  0  0  0  0  0  0
    8.6430   -1.8910   21.8320 C   0  0  0  0  0  0  0  0  0  0  0  0
    8.2600   -2.1750   23.0520 N   0  0  0  0  0  0  0  0  0  0  0  0
    7.3370   -3.3540   23.0100 C   0  0  0  0  0  0  0  0  0  0  0  0
    6.1980   -2.9480   22.3250 C   0  0  0  0  0  0  0  0  0  0  0  0
   12.1780    2.3440   23.3790 C   0  0  0  0  0  0  0  0  0  0  0  0
   11.0390    2.9370   23.4560 C   0  0  0  0  0  0  0  0  0  0  0  0
   11.2730    1.6550   23.7150 C   0  0  0  0  0  0  0  0  0  0  0  0
  1  3  2  0
  3  4  1  0
  5  6  2  0
  5  7  2  0
  5  8  1  0
  9 10  1  6
  2 11  1  0
 10 11  2  0
 11 12  1  0
 12 13  2  0
  9 14  1  0
 13 14  1  0
  3 15  1  0
 15 16  1  0
 16 17  1  0
  2 18  1  0
 17 18  1  0
 18 19  1  0
 15 20  1  0
 19 20  1  0
  9 21  1  0
  5 22  1  0
 21 22  2  0
 14 23  2  0
 22 23  1  0
M  END
