x0195-x2908
     RDKit          3D

 27 30  0  0  0  0  0  0  0  0999 V2000
    4.9320    1.2060   21.6320 C   0  0  0  0  0  0  0  0  0  0  0  0
    8.7270    1.5650   21.0410 O   0  0  0  0  0  0  0  0  0  0  0  0
   13.3670   -2.3200   23.3630 Cl  0  0  0  0  0  0  0  0  0  0  0  0
    7.2260   -0.2670   20.9670 N   0  0  0  0  0  0  0  0  0  0  0  0
    9.2760   -0.3230   22.4300 N   0  0  0  0  0  0  0  0  0  0  0  0
    8.4160    0.3240   21.4980 C   0  0  0  0  0  0  0  0  0  0  0  0
   10.2500    4.5180   23.7150 S   0  0  0  0  0  0  0  0  0  0  0  0
    9.6590    4.7700   24.9920 O   0  0  0  0  0  0  0  0  0  0  0  0
    9.4820    4.9030   22.5740 O   0  0  0  0  0  0  0  0  0  0  0  0
   11.6070    5.5220   23.6470 N   0  0  0  0  0  0  0  0  0  0  0  0
    6.2130    0.6450   17.4860 N   0  0  0  0  0  0  0  0  0  0  0  0
    6.8360    0.1310   18.5430 C   0  0  0  0  0  0  0  0  0  0  0  0
    6.4660    0.2950   19.8460 C   0  0  0  0  0  0  0  0  0  0  0  0
    5.3380    1.0390   20.1780 C   0  0  0  0  0  0  0  0  0  0  0  0
    4.6780    1.5850   19.0820 C   0  0  0  0  0  0  0  0  0  0  0  0
    5.1470    1.3700   17.7970 C   0  0  0  0  0  0  0  0  0  0  0  0
   11.6230    0.9450   22.7120 C   0  0  1  0  0  0  0  0  0  0  0  0
   11.9410    0.9170   24.0120 C   0  0  2  0  0  0  0  0  0  0  0  0
   12.9340    0.2240   23.0420 C   0  0  1  0  0  0  0  0  0  0  0  0
   12.7110   -1.0270   22.3870 C   0  0  2  0  0  0  0  0  0  0  0  0
   11.3850   -1.3190   22.2500 C   0  0  0  0  0  0  0  0  0  0  0  0
   10.7080   -0.1610   22.4490 C   0  0  0  0  0  0  0  0  0  0  0  0
   11.5960    2.4480   22.5100 C   0  0  0  0  0  0  0  0  0  0  0  0
   10.7760    2.8820   23.4560 C   0  0  0  0  0  0  0  0  0  0  0  0
   10.5010    1.6380   24.0700 C   0  0  0  0  0  0  0  0  0  0  0  0
    9.6580   -0.7730   24.6700 C   0  0  0  0  0  0  0  0  0  0  0  0
    8.6600   -0.7300   23.6870 C   0  0  0  0  0  0  0  0  0  0  0  0
  2  6  2  0
  4  6  1  0
  5  6  1  0
  7  8  2  0
  7  9  2  0
  7 10  1  0
 11 12  2  0
  4 13  1  0
 12 13  1  0
  1 14  1  0
 13 14  2  0
 14 15  1  0
 11 16  1  0
 15 16  2  0
 17 18  1  0
 17 19  1  0
 18 19  1  0
 20  3  1  1
 19 20  1  1
 20 21  1  0
  5 22  1  0
 17 22  1  0
 21 22  2  0
 17 23  1  6
  7 24  1  0
 23 24  2  0
 18 25  1  1
 24 25  1  0
  5 27  1  0
 26 27  1  0
M  END
