x0195-x0104
     RDKit          3D

 17 18  0  0  0  0  0  0  0  0999 V2000
    9.0400    6.5080   22.6350 C   0  0  0  0  0  0  0  0  0  0  0  0
   10.2950    6.1330   23.4160 C   0  0  0  0  0  0  0  0  0  0  0  0
   10.3680    6.2750   24.6320 O   0  0  0  0  0  0  0  0  0  0  0  0
   11.3510    5.5990   22.5430 N   0  0  0  0  0  0  0  0  0  0  0  0
   12.5150    4.9210   23.1360 C   0  0  0  0  0  0  0  0  0  0  0  0
   12.7210    3.6610   22.5550 C   0  0  0  0  0  0  0  0  0  0  0  0
   13.5430   -2.1540   22.1300 F   0  0  0  0  0  0  0  0  0  0  0  0
    9.5220    0.1750   24.6970 C   0  0  0  0  0  0  0  0  0  0  0  0
   11.8930    2.4740   23.1230 C   0  0  0  0  0  0  0  0  0  0  0  0
   10.7600    2.6780   23.8250 C   0  0  0  0  0  0  0  0  0  0  0  0
    9.9460    1.5420   24.3770 N   0  0  0  0  0  0  0  0  0  0  0  0
   10.8360    0.6100   23.8350 C   0  0  0  0  0  0  0  0  0  0  0  0
   11.9990    0.9820   23.0990 C   0  0  0  0  0  0  0  0  0  0  0  0
   10.7090   -0.9270   23.9340 C   0  0  0  0  0  0  0  0  0  0  0  0
   11.6320   -1.7440   23.3500 C   0  0  0  0  0  0  0  0  0  0  0  0
   12.7120   -1.2870   22.6670 C   0  0  0  0  0  0  0  0  0  0  0  0
   12.9350    0.0700   22.5340 C   0  0  0  0  0  0  0  0  0  0  0  0
  1  2  1  0
  2  3  2  0
  2  4  1  0
  4  5  1  0
  5  6  1  0
  6  9  1  0
  9 10  2  0
  8 11  1  0
 10 11  1  0
 11 12  1  0
  9 13  1  0
 12 13  2  0
 12 14  1  0
 14 15  2  0
  7 16  1  0
 15 16  1  0
 13 17  1  0
 16 17  2  0
M  END
