x0195-x2649
     RDKit          3D

 29 32  0  0  0  0  0  0  0  0999 V2000
    6.8710   -0.6100   21.0740 N   0  0  0  0  0  0  0  0  0  0  0  0
    8.1420   -1.4840   23.6720 C   0  0  0  0  0  0  0  0  0  0  0  0
    8.6770    0.8720   21.1910 O   0  0  0  0  0  0  0  0  0  0  0  0
   13.5310   -2.5400   23.5110 Cl  0  0  0  0  0  0  0  0  0  0  0  0
    8.8950   -1.1840   22.3780 C   0  0  1  0  0  0  0  0  0  0  0  0
    8.1780   -0.1920   21.5090 C   0  0  0  0  0  0  0  0  0  0  0  0
    5.1470    0.7670   21.4220 C   0  0  0  0  0  0  0  0  0  0  0  0
    9.9230    4.5080   23.3470 S   0  0  0  0  0  0  0  0  0  0  0  0
    9.5720    4.7790   24.7610 O   0  0  0  0  0  0  0  0  0  0  0  0
    8.8880    4.7670   22.3920 O   0  0  0  0  0  0  0  0  0  0  0  0
   11.2500    5.4930   22.9570 N   0  0  0  0  0  0  0  0  0  0  0  0
    6.2280    0.6660   17.5710 N   0  0  0  0  0  0  0  0  0  0  0  0
    5.0670    1.6290   17.7890 C   0  0  0  0  0  0  0  0  0  0  0  0
    4.5450    1.7880   19.0840 C   0  0  0  0  0  0  0  0  0  0  0  0
    5.1450    1.0610   20.0510 C   0  0  0  0  0  0  0  0  0  0  0  0
    6.3130    0.0850   19.9210 C   0  0  0  0  0  0  0  0  0  0  0  0
    6.8490   -0.1100   18.6710 C   0  0  0  0  0  0  0  0  0  0  0  0
   10.8100    0.5380   22.6510 C   0  0  1  0  0  0  0  0  0  0  0  0
   11.5190    0.7620   23.7400 C   0  0  2  0  0  0  0  0  0  0  0  0
   12.3720   -0.2610   24.1680 C   0  0  0  0  0  0  0  0  0  0  0  0
   12.5530   -1.2260   23.1150 C   0  0  2  0  0  0  0  0  0  0  0  0
   11.2980   -1.6960   22.8490 C   0  0  0  0  0  0  0  0  0  0  0  0
   10.3290   -0.7880   22.6150 C   0  0  0  0  0  0  0  0  0  0  0  0
   10.0220    1.8200   22.3950 C   0  0  0  0  0  0  0  0  0  0  0  0
   10.4210    2.8650   23.1720 C   0  0  0  0  0  0  0  0  0  0  0  0
   11.4870    2.2430   23.9600 C   0  0  0  0  0  0  0  0  0  0  0  0
   12.1760    0.6850   22.3350 C   0  0  0  0  0  0  0  0  0  0  0  0
    9.7110   -0.3510   25.1560 C   0  0  0  0  0  0  0  0  0  0  0  0
    8.3540   -0.4320   24.7680 C   0  0  0  0  0  0  0  0  0  0  0  0
  5  2  1  1
  1  6  1  0
  3  6  2  0
  5  6  1  0
  8  9  2  0
  8 10  2  0
  8 11  1  0
 12 13  2  0
 13 14  1  0
  7 15  1  0
 14 15  2  0
  1 16  1  0
 15 16  1  0
 12 17  1  0
 16 17  2  0
 18 19  1  0
 19 20  1  6
 21  4  1  1
 20 21  1  0
 21 22  1  0
  5 23  1  0
 18 23  1  0
 22 23  2  0
 18 24  1  6
  8 25  1  0
 24 25  2  0
 19 26  1  0
 25 26  1  0
 18 27  1  0
 19 27  1  0
  2 29  1  0
 28 29  1  0
M  END
