x0195-x3077
     RDKit          3D

 25 29  0  0  0  0  0  0  0  0999 V2000
    7.0040   -3.2250   19.2400 C   0  0  0  0  0  0  0  0  0  0  0  0
    5.5080   -4.9190   20.0340 O   0  0  0  0  0  0  0  0  0  0  0  0
   13.4980   -2.4730   23.2580 Cl  0  0  0  0  0  0  0  0  0  0  0  0
    6.2690   -3.9930   20.3430 C   0  0  0  0  0  0  0  0  0  0  0  0
    8.9640   -0.8520   23.3250 C   0  0  0  0  0  0  0  0  0  0  0  0
   10.0190    4.4390   23.7030 S   0  0  0  0  0  0  0  0  0  0  0  0
    9.4650    4.8020   24.9750 O   0  0  0  0  0  0  0  0  0  0  0  0
    9.2370    4.7190   22.5390 O   0  0  0  0  0  0  0  0  0  0  0  0
   11.3960    5.4050   23.5300 N   0  0  0  0  0  0  0  0  0  0  0  0
    6.4880   -3.6170   21.6800 N   0  0  0  0  0  0  0  0  0  0  0  0
    7.3860   -4.0590   22.3250 C   0  0  0  0  0  0  0  0  0  0  0  0
    7.8260   -3.0440   23.2240 C   0  0  2  0  0  0  0  0  0  0  0  0
    6.6580   -2.3360   23.4300 C   0  0  0  0  0  0  0  0  0  0  0  0
    6.3750   -2.2110   22.1050 C   0  0  1  0  0  0  0  0  0  0  0  0
    8.4830   -1.9350   22.6000 N   0  0  0  0  0  0  0  0  0  0  0  0
    7.4790   -1.5090   21.7040 C   0  0  0  0  0  0  0  0  0  0  0  0
   11.4080    0.7160   22.9310 C   0  0  1  0  0  0  0  0  0  0  0  0
   11.8660    0.9020   24.0990 C   0  0  2  0  0  0  0  0  0  0  0  0
   12.7560    0.0660   23.1370 C   0  0  1  0  0  0  0  0  0  0  0  0
   12.5610   -1.1940   22.4980 C   0  0  2  0  0  0  0  0  0  0  0  0
   11.2770   -1.5670   22.6840 C   0  0  0  0  0  0  0  0  0  0  0  0
   10.4350   -0.5530   22.9870 C   0  0  0  0  0  0  0  0  0  0  0  0
   11.2470    2.2210   22.6340 C   0  0  0  0  0  0  0  0  0  0  0  0
   10.5220    2.7880   23.5570 C   0  0  0  0  0  0  0  0  0  0  0  0
   10.3640    1.4680   24.3150 C   0  0  0  0  0  0  0  0  0  0  0  0
  1  4  1  0
  2  4  2  0
  6  7  2  0
  6  8  2  0
  6  9  1  0
  4 10  1  0
 10 11  1  0
 12 11  1  6
 12 13  1  0
 10 14  1  0
 13 14  1  0
  5 15  1  0
 12 15  1  0
 14 16  1  6
 15 16  1  0
 17 18  1  0
 17 19  1  0
 18 19  1  0
 20  3  1  1
 19 20  1  1
 20 21  1  0
  5 22  1  0
 17 22  1  0
 21 22  2  0
 17 23  1  6
  6 24  1  0
 23 24  2  0
 18 25  1  1
 24 25  1  0
M  END
