x0305-x2649
     RDKit          3D

 23 24  0  0  0  0  0  0  0  0999 V2000
    6.9540   -0.7810   21.0460 N   0  0  0  0  0  0  0  0  0  0  0  0
    7.8100   -1.4530   23.9400 C   0  0  0  0  0  0  0  0  0  0  0  0
    8.7730    0.6180   21.4640 O   0  0  0  0  0  0  0  0  0  0  0  0
   13.2630   -1.9550   21.2900 N   0  0  0  0  0  0  0  0  0  0  0  0
    8.7100   -1.4790   22.7410 C   0  0  1  0  0  0  0  0  0  0  0  0
    8.1770   -0.4370   21.7020 C   0  0  0  0  0  0  0  0  0  0  0  0
    4.8040    1.1570   21.5680 C   0  0  0  0  0  0  0  0  0  0  0  0
    8.5890    0.3810   26.9250 C   0  0  0  0  0  0  0  0  0  0  0  0
    9.4420   -0.2850   26.0360 C   0  0  0  0  0  0  0  0  0  0  0  0
    9.6760    0.4010   24.8930 N   0  0  0  0  0  0  0  0  0  0  0  0
   13.9460   -1.1730   20.3680 N   0  0  0  0  0  0  0  0  0  0  0  0
    6.2090    0.5890   17.6190 N   0  0  0  0  0  0  0  0  0  0  0  0
    5.2130    1.4690   17.9080 C   0  0  0  0  0  0  0  0  0  0  0  0
    4.7200    1.6850   19.1870 C   0  0  0  0  0  0  0  0  0  0  0  0
    5.2520    0.9790   20.2650 C   0  0  0  0  0  0  0  0  0  0  0  0
    6.3640   -0.0100   19.9480 C   0  0  0  0  0  0  0  0  0  0  0  0
    6.7620   -0.1280   18.6270 C   0  0  0  0  0  0  0  0  0  0  0  0
   10.5800   -0.2040   23.9030 C   0  0  0  0  0  0  0  0  0  0  0  0
   11.9150    0.1530   23.9960 C   0  0  0  0  0  0  0  0  0  0  0  0
   12.8590   -0.3940   23.1390 C   0  0  0  0  0  0  0  0  0  0  0  0
   12.4490   -1.3610   22.1300 C   0  0  0  0  0  0  0  0  0  0  0  0
   11.1050   -1.6240   22.1040 C   0  0  0  0  0  0  0  0  0  0  0  0
   10.1520   -1.0900   22.9310 C   0  0  0  0  0  0  0  0  0  0  0  0
  5  2  1  1
  1  6  1  0
  3  6  2  0
  5  6  1  0
  8  9  1  0
  9 10  1  0
  4 11  1  0
 12 13  2  0
 13 14  1  0
  7 15  1  0
 14 15  2  0
  1 16  1  0
 15 16  1  0
 12 17  1  0
 16 17  2  0
 10 18  1  0
 18 19  2  0
 19 20  1  0
  4 21  1  0
 20 21  2  0
 21 22  1  0
  5 23  1  0
 18 23  1  0
 22 23  2  0
M  END
