x0305-x2908
     RDKit          3D

 22 23  0  0  0  0  0  0  0  0999 V2000
    4.8970    1.1740   21.6460 C   0  0  0  0  0  0  0  0  0  0  0  0
    8.7780    1.2160   21.1650 O   0  0  0  0  0  0  0  0  0  0  0  0
   13.3020   -2.0690   21.5670 N   0  0  0  0  0  0  0  0  0  0  0  0
    7.2420   -0.4430   20.9200 N   0  0  0  0  0  0  0  0  0  0  0  0
    8.8460   -0.6070   22.5560 N   0  0  0  0  0  0  0  0  0  0  0  0
    8.3200    0.1170   21.5330 C   0  0  0  0  0  0  0  0  0  0  0  0
    8.4650    0.6290   27.0460 C   0  0  0  0  0  0  0  0  0  0  0  0
    9.2140   -0.2010   26.2010 C   0  0  0  0  0  0  0  0  0  0  0  0
    9.6690    0.5020   25.0180 N   0  0  0  0  0  0  0  0  0  0  0  0
   13.8060   -1.3460   20.5130 N   0  0  0  0  0  0  0  0  0  0  0  0
    6.2610    0.6110   17.5760 N   0  0  0  0  0  0  0  0  0  0  0  0
    6.8970    0.0280   18.6250 C   0  0  0  0  0  0  0  0  0  0  0  0
    6.4530    0.2200   19.9070 C   0  0  0  0  0  0  0  0  0  0  0  0
    5.3580    0.9870   20.1940 C   0  0  0  0  0  0  0  0  0  0  0  0
    4.7040    1.5800   19.1460 C   0  0  0  0  0  0  0  0  0  0  0  0
    5.1700    1.3860   17.8460 C   0  0  0  0  0  0  0  0  0  0  0  0
   10.5810   -0.0920   24.2090 C   0  0  0  0  0  0  0  0  0  0  0  0
   11.9370   -0.2030   24.5050 C   0  0  0  0  0  0  0  0  0  0  0  0
   12.8780   -0.8860   23.5780 C   0  0  0  0  0  0  0  0  0  0  0  0
   12.4270   -1.4270   22.4150 C   0  0  0  0  0  0  0  0  0  0  0  0
   11.0900   -1.3430   22.0690 C   0  0  0  0  0  0  0  0  0  0  0  0
   10.1910   -0.6590   22.9930 C   0  0  0  0  0  0  0  0  0  0  0  0
  2  6  2  0
  4  6  1  0
  5  6  1  0
  7  8  1  0
  8  9  1  0
  3 10  1  0
 11 12  2  0
  4 13  1  0
 12 13  1  0
  1 14  1  0
 13 14  2  0
 14 15  1  0
 11 16  1  0
 15 16  2  0
  9 17  1  0
 17 18  2  0
 18 19  1  0
  3 20  1  0
 19 20  2  0
 20 21  1  0
  5 22  1  0
 17 22  1  0
 21 22  2  0
M  END
