x0305-x1458
     RDKit          3D

 28 29  0  0  0  0  0  0  0  0999 V2000
    7.0840   -3.7410   26.4740 N   0  0  0  0  0  0  0  0  0  0  0  0
    8.7140   -5.3420   26.9230 C   0  0  0  0  0  0  0  0  0  0  0  0
    4.6870   -3.8330   25.8650 O   0  0  0  0  0  0  0  0  0  0  0  0
    7.4780   -4.6480   27.4410 C   0  0  0  0  0  0  0  0  0  0  0  0
    5.2520   -4.6240   19.9110 O   0  0  0  0  0  0  0  0  0  0  0  0
    6.4180   -5.7890   27.5610 C   0  0  0  0  0  0  0  0  0  0  0  0
    7.7970   -2.5130   26.2950 C   0  0  0  0  0  0  0  0  0  0  0  0
    6.0640   -3.8580   25.4870 C   0  0  0  0  0  0  0  0  0  0  0  0
    6.3080   -4.1390   20.2800 C   0  0  0  0  0  0  0  0  0  0  0  0
    7.1950   -3.2750   19.3680 C   0  0  0  0  0  0  0  0  0  0  0  0
    8.9370   -0.2960   27.6020 C   0  0  0  0  0  0  0  0  0  0  0  0
    8.6350   -0.1460   26.2450 C   0  0  1  0  0  0  0  0  0  0  0  0
    9.6120    0.6740   25.5040 N   0  0  0  0  0  0  0  0  0  0  0  0
   12.9720   -1.3800   21.6680 C   0  0  0  0  0  0  0  0  0  0  0  0
   13.8190   -1.7790   20.5950 N   0  0  0  0  0  0  0  0  0  0  0  0
    8.6470   -1.5190   25.6110 C   0  0  0  0  0  0  0  0  0  0  0  0
    6.8180   -4.4020   21.6320 N   0  0  0  0  0  0  0  0  0  0  0  0
    7.6790   -3.5370   22.2130 C   0  0  0  0  0  0  0  0  0  0  0  0
    7.4640   -3.2060   23.5260 C   0  0  0  0  0  0  0  0  0  0  0  0
    6.3980   -3.9620   23.9660 C   0  0  0  0  0  0  0  0  0  0  0  0
    6.7780   -5.3400   23.7290 C   0  0  0  0  0  0  0  0  0  0  0  0
    6.4970   -5.6500   22.3770 C   0  0  0  0  0  0  0  0  0  0  0  0
   10.4280    0.0540   24.4530 C   0  0  0  0  0  0  0  0  0  0  0  0
   11.6400    0.6100   24.2850 N   0  0  0  0  0  0  0  0  0  0  0  0
   12.5010    0.1640   23.3820 C   0  0  0  0  0  0  0  0  0  0  0  0
   12.0950   -0.9080   22.6090 C   0  0  0  0  0  0  0  0  0  0  0  0
   10.8640   -1.5280   22.7180 C   0  0  0  0  0  0  0  0  0  0  0  0
   10.0020   -1.0150   23.6850 C   0  0  0  0  0  0  0  0  0  0  0  0
  1  4  1  0
  2  4  1  0
  4  6  1  0
  1  7  1  0
  1  8  1  0
  3  8  2  0
  5  9  2  0
  9 10  1  0
 12 11  1  1
 12 13  1  0
 14 15  3  0
  7 16  1  0
 12 16  1  0
  9 17  1  0
 17 18  1  0
 18 19  1  0
  8 20  1  0
 19 20  1  0
 20 21  1  0
 17 22  1  0
 21 22  1  0
 13 23  1  0
 23 24  2  0
 24 25  1  0
 14 26  1  0
 25 26  2  0
 26 27  1  0
 23 28  1  0
 27 28  2  0
M  END
