x0305-x2779
     RDKit          3D

 20 21  0  0  0  0  0  0  0  0999 V2000
    7.4190   -3.0050   18.7280 C   0  0  0  0  0  0  0  0  0  0  0  0
    5.4850   -4.0440   19.7030 O   0  0  0  0  0  0  0  0  0  0  0  0
    6.4720   -3.3150   19.8780 C   0  0  0  0  0  0  0  0  0  0  0  0
   10.1370   -2.6400   23.4300 C   0  0  0  0  0  0  0  0  0  0  0  0
    9.5890    0.0000   26.5240 C   0  0  0  0  0  0  0  0  0  0  0  0
    9.3250   -0.3020   25.1860 C   0  0  1  0  0  0  0  0  0  0  0  0
    8.4360    0.7740   24.7930 N   0  0  0  0  0  0  0  0  0  0  0  0
   13.1150   -2.1420   22.2960 C   0  0  0  0  0  0  0  0  0  0  0  0
   13.3910   -1.7400   21.0160 N   0  0  0  0  0  0  0  0  0  0  0  0
    6.7870   -2.7810   21.1300 N   0  0  0  0  0  0  0  0  0  0  0  0
    7.5220   -1.6190   21.2060 C   0  0  0  0  0  0  0  0  0  0  0  0
    8.7990   -2.0060   21.6500 C   0  0  0  0  0  0  0  0  0  0  0  0
    8.7620   -2.3700   22.9810 N   0  0  0  0  0  0  0  0  0  0  0  0
    7.9800   -3.4390   23.1850 C   0  0  0  0  0  0  0  0  0  0  0  0
    6.7920   -3.5150   22.2370 C   0  0  0  0  0  0  0  0  0  0  0  0
   12.3080   -1.2300   22.9900 C   0  0  0  0  0  0  0  0  0  0  0  0
   10.8930   -1.4420   23.5300 C   0  0  0  0  0  0  0  0  0  0  0  0
   10.4450   -0.2440   24.0870 C   0  0  2  0  0  0  0  0  0  0  0  0
   11.5080    0.6820   24.0580 C   0  0  0  0  0  0  0  0  0  0  0  0
   12.6200    0.0630   23.3520 C   0  0  0  0  0  0  0  0  0  0  0  0
  1  3  1  0
  2  3  2  0
  6  5  1  1
  6  7  1  0
  8  9  3  0
  3 10  1  0
 10 11  1  0
 11 12  1  0
  4 13  1  0
 12 13  1  0
 13 14  1  0
 10 15  1  0
 14 15  1  0
  8 16  1  0
  4 17  1  0
 16 17  2  0
  6 18  1  0
 17 18  1  0
 18 19  1  1
 16 20  1  0
 19 20  2  0
M  END
