x0305-x0354
     RDKit          3D

 20 22  0  0  0  0  0  0  0  0999 V2000
   13.0590   -0.7060   22.5590 C   0  0  0  0  0  0  0  0  0  0  0  0
    7.4360   -2.2010   24.8070 O   0  0  0  0  0  0  0  0  0  0  0  0
    7.7700   -0.5290   27.1690 O   0  0  0  0  0  0  0  0  0  0  0  0
    8.3620   -1.4270   25.0040 C   0  0  0  0  0  0  0  0  0  0  0  0
    8.2570   -0.2280   26.0470 C   0  0  2  0  0  0  0  0  0  0  0  0
    5.5730    3.4910   30.8230 C   0  0  0  0  0  0  0  0  0  0  0  0
    9.6670    0.1980   26.1710 N   0  0  0  0  0  0  0  0  0  0  0  0
   13.2170   -1.6340   21.5440 N   0  0  0  0  0  0  0  0  0  0  0  0
   12.0550   -1.0940   23.5260 N   0  0  0  0  0  0  0  0  0  0  0  0
   11.6710   -2.3660   23.6260 C   0  0  0  0  0  0  0  0  0  0  0  0
   10.2870   -2.5580   23.7550 C   0  0  0  0  0  0  0  0  0  0  0  0
    9.6580   -1.4340   24.4380 N   0  0  0  0  0  0  0  0  0  0  0  0
   10.4810   -0.5670   25.2490 C   0  0  1  0  0  0  0  0  0  0  0  0
   11.2390   -0.1820   24.1350 C   0  0  0  0  0  0  0  0  0  0  0  0
    7.7440    1.7790   28.0460 C   0  0  0  0  0  0  0  0  0  0  0  0
    7.1610    2.8180   29.0100 C   0  0  0  0  0  0  0  0  0  0  0  0
    6.1330    2.4550   29.8830 C   0  0  0  0  0  0  0  0  0  0  0  0
    5.6540    0.9960   29.8010 C   0  0  0  0  0  0  0  0  0  0  0  0
    6.2400    0.0980   28.8920 C   0  0  0  0  0  0  0  0  0  0  0  0
    7.2730    0.4570   28.0160 C   0  0  0  0  0  0  0  0  0  0  0  0
  2  4  2  0
  5  3  1  1
  4  5  1  0
  5  7  1  0
  1  8  3  0
  1  9  1  0
  9 10  1  0
 10 11  1  0
  4 12  1  0
 11 12  1  0
  7 13  1  0
 12 13  1  0
  9 14  1  0
 13 14  1  6
 15 16  2  0
  6 17  1  0
 16 17  1  0
 17 18  2  0
 18 19  1  0
  3 20  1  0
 15 20  1  0
 19 20  2  0
M  END
