x0305-x0387
     RDKit          3D

 19 20  0  0  0  0  0  0  0  0999 V2000
    7.9920    0.5920   27.2090 C   0  0  0  0  0  0  0  0  0  0  0  0
    8.4220   -0.2980   26.0830 C   0  0  1  0  0  0  0  0  0  0  0  0
    9.8550   -0.0800   25.8780 N   0  0  0  0  0  0  0  0  0  0  0  0
   13.1420   -1.3330   21.5020 C   0  0  0  0  0  0  0  0  0  0  0  0
   13.9880   -1.4500   20.3880 N   0  0  0  0  0  0  0  0  0  0  0  0
   10.6650   -0.4120   24.7190 C   0  0  0  0  0  0  0  0  0  0  0  0
   11.8580    0.2740   24.5040 N   0  0  0  0  0  0  0  0  0  0  0  0
   12.5830   -0.0580   23.4810 C   0  0  0  0  0  0  0  0  0  0  0  0
   12.2090   -1.0600   22.6110 C   0  0  0  0  0  0  0  0  0  0  0  0
   11.0390   -1.7920   22.7210 C   0  0  0  0  0  0  0  0  0  0  0  0
   10.2070   -1.4980   23.7840 C   0  0  0  0  0  0  0  0  0  0  0  0
    8.0840   -5.8950   27.2020 O   0  0  0  0  0  0  0  0  0  0  0  0
    8.5940   -4.7520   26.5630 C   0  0  2  0  0  0  0  0  0  0  0  0
    7.4390   -4.0080   25.9150 C   0  0  0  0  0  0  0  0  0  0  0  0
    8.0340   -2.8360   25.4020 C   0  0  2  0  0  0  0  0  0  0  0  0
    9.2790   -2.8870   24.9200 N   0  0  0  0  0  0  0  0  0  0  0  0
    9.7310   -4.1320   24.6890 C   0  0  0  0  0  0  0  0  0  0  0  0
    9.5680   -5.1360   25.6510 C   0  0  0  0  0  0  0  0  0  0  0  0
    8.1160   -1.7240   26.4590 C   0  0  0  0  0  0  0  0  0  0  0  0
  2  1  1  1
  2  3  1  0
  4  5  3  0
  3  6  1  0
  6  7  2  0
  7  8  1  0
  4  9  1  0
  8  9  2  0
  9 10  1  0
  6 11  1  0
 10 11  2  0
 13 12  1  6
 13 14  1  0
 14 15  1  0
 15 16  1  0
 16 17  1  0
 13 18  1  0
 17 18  1  0
  2 19  1  0
 15 19  1  1
M  END
