x0305-x2705
     RDKit          3D

 36 38  0  0  0  0  0  0  0  0999 V2000
    7.1200   -1.6600   21.6040 N   0  0  0  0  0  0  0  0  0  0  0  0
    6.8760   -5.0020   20.5610 C   0  0  0  0  0  0  0  0  0  0  0  0
    4.8990   -3.0620   21.1660 O   0  0  0  0  0  0  0  0  0  0  0  0
    6.9120   -4.1600   21.8140 C   0  0  0  0  0  0  0  0  0  0  0  0
    7.2870    1.9880   22.7210 N   0  0  0  0  0  0  0  0  0  0  0  0
    8.5720    1.2260   20.9840 O   0  0  0  0  0  0  0  0  0  0  0  0
    6.2010   -2.8720   21.5010 C   0  0  0  0  0  0  0  0  0  0  0  0
    6.6660   -0.2020   21.5000 C   0  0  1  0  0  0  0  0  0  0  0  0
    7.5950    1.0620   21.7220 C   0  0  0  0  0  0  0  0  0  0  0  0
    9.8780    1.8850   24.0980 C   0  0  0  0  0  0  0  0  0  0  0  0
    8.8890    1.3200   25.1330 C   0  0  0  0  0  0  0  0  0  0  0  0
    6.2040    4.4440   21.7500 C   0  0  0  0  0  0  0  0  0  0  0  0
   11.8870   -1.4500   23.2180 C   0  0  0  0  0  0  0  0  0  0  0  0
   12.2690   -0.1290   23.5150 C   0  0  0  0  0  0  0  0  0  0  0  0
   12.6230   -2.3650   24.2350 C   0  0  0  0  0  0  0  0  0  0  0  0
   12.4880   -1.8520   21.8620 C   0  0  0  0  0  0  0  0  0  0  0  0
    8.4740   -0.0410   27.2390 C   0  0  0  0  0  0  0  0  0  0  0  0
    9.2120    0.0370   25.9060 C   0  0  0  0  0  0  0  0  0  0  0  0
   13.0510   -2.1280   20.8880 N   0  0  0  0  0  0  0  0  0  0  0  0
    6.3900    0.4700   17.7350 N   0  0  0  0  0  0  0  0  0  0  0  0
    5.2170    1.3060   17.7570 C   0  0  0  0  0  0  0  0  0  0  0  0
    4.6190    1.5570   18.9690 C   0  0  0  0  0  0  0  0  0  0  0  0
    5.0650    1.0740   20.1850 C   0  0  0  0  0  0  0  0  0  0  0  0
    6.1890    0.2740   20.2580 C   0  0  0  0  0  0  0  0  0  0  0  0
    6.9020   -0.0670   18.9700 C   0  0  0  0  0  0  0  0  0  0  0  0
    9.3580   -1.8850   24.4330 N   0  0  0  0  0  0  0  0  0  0  0  0
    8.1310   -1.9180   23.8340 N   0  0  0  0  0  0  0  0  0  0  0  0
    8.3540   -1.6960   22.4900 C   0  0  0  0  0  0  0  0  0  0  0  0
    9.7710   -1.5170   22.1890 C   0  0  0  0  0  0  0  0  0  0  0  0
   10.3570   -1.6420   23.4420 C   0  0  0  0  0  0  0  0  0  0  0  0
    9.2870    3.1690   23.5490 C   0  0  0  0  0  0  0  0  0  0  0  0
    9.9900    4.3630   23.6940 C   0  0  0  0  0  0  0  0  0  0  0  0
    9.5050    5.6060   23.2250 C   0  0  0  0  0  0  0  0  0  0  0  0
    8.2530    5.6240   22.5830 C   0  0  0  0  0  0  0  0  0  0  0  0
    7.5420    4.3820   22.4390 C   0  0  0  0  0  0  0  0  0  0  0  0
    8.0530    3.1860   22.9090 C   0  0  0  0  0  0  0  0  0  0  0  0
  2  4  1  0
  1  7  1  0
  3  7  2  0
  4  7  1  0
  1  8  1  0
  5  9  1  0
  6  9  2  0
  8  9  1  6
 10 11  1  0
 13 14  1  0
 13 15  1  0
 13 16  1  0
 11 18  1  0
 17 18  1  0
 16 19  3  0
 20 21  2  0
 21 22  1  0
 22 23  2  0
  8 24  1  0
 23 24  1  0
 20 25  1  0
 24 25  2  0
 26 27  1  0
  1 28  1  0
 27 28  2  0
 28 29  1  0
 13 30  1  0
 26 30  1  0
 29 30  2  0
 10 31  1  0
 31 32  2  0
 32 33  1  0
 33 34  2  0
 12 35  1  0
 34 35  1  0
  5 36  1  0
 31 36  1  0
 35 36  2  0
M  END
