x0305-x2912
     RDKit          3D

 23 24  0  0  0  0  0  0  0  0999 V2000
    6.9310   -0.7140   21.1620 N   0  0  0  0  0  0  0  0  0  0  0  0
    7.8210   -1.2070   24.0920 C   0  0  0  0  0  0  0  0  0  0  0  0
    8.7640    0.6830   21.4580 O   0  0  0  0  0  0  0  0  0  0  0  0
    8.6970   -1.3060   22.8810 C   0  0  1  0  0  0  0  0  0  0  0  0
    8.1610   -0.3460   21.7780 C   0  0  0  0  0  0  0  0  0  0  0  0
   14.1050   -1.4980   20.3070 N   0  0  0  0  0  0  0  0  0  0  0  0
    4.8410    1.2440   21.8320 C   0  0  0  0  0  0  0  0  0  0  0  0
   13.2900   -1.3770   21.2830 C   0  0  0  0  0  0  0  0  0  0  0  0
    8.6080    0.3870   26.9160 C   0  0  0  0  0  0  0  0  0  0  0  0
    9.4680   -0.3240   26.0770 C   0  0  0  0  0  0  0  0  0  0  0  0
    9.7240    0.3100   25.1280 N   0  0  0  0  0  0  0  0  0  0  0  0
    6.2070    0.4960   17.6410 N   0  0  0  0  0  0  0  0  0  0  0  0
    5.1390    1.5110   17.8630 C   0  0  0  0  0  0  0  0  0  0  0  0
    4.7420    1.7040   19.1970 C   0  0  0  0  0  0  0  0  0  0  0  0
    5.3100    0.9750   20.4150 C   0  0  0  0  0  0  0  0  0  0  0  0
    6.2960    0.0530   20.1000 C   0  0  0  0  0  0  0  0  0  0  0  0
    6.7310   -0.1690   18.6820 C   0  0  0  0  0  0  0  0  0  0  0  0
   10.6110   -0.0850   24.1850 C   0  0  0  0  0  0  0  0  0  0  0  0
   11.9580    0.2510   24.2180 C   0  0  0  0  0  0  0  0  0  0  0  0
   12.8720   -0.1860   23.2400 C   0  0  0  0  0  0  0  0  0  0  0  0
   12.3360   -0.9550   22.2800 C   0  0  0  0  0  0  0  0  0  0  0  0
   11.0250   -1.2890   22.2140 C   0  0  0  0  0  0  0  0  0  0  0  0
   10.1150   -0.8730   23.1370 C   0  0  0  0  0  0  0  0  0  0  0  0
  4  2  1  1
  1  5  1  0
  3  5  2  0
  4  5  1  0
  6  8  3  0
  9 10  1  0
 10 11  1  0
 12 13  2  0
 13 14  1  0
  7 15  1  0
 14 15  2  0
  1 16  1  0
 15 16  1  0
 12 17  1  0
 16 17  2  0
 11 18  1  0
 18 19  2  0
 19 20  1  0
  8 21  1  0
 20 21  2  0
 21 22  1  0
  4 23  1  0
 18 23  1  0
 22 23  2  0
M  END
