x0305-x0678
     RDKit          3D

 21 22  0  0  0  0  0  0  0  0999 V2000
    8.3510    0.6750   27.0670 C   0  0  0  0  0  0  0  0  0  0  0  0
    9.0350   -0.2410   26.1050 C   0  0  0  0  0  0  0  0  0  0  0  0
    9.4850    0.3900   24.8500 N   0  0  0  0  0  0  0  0  0  0  0  0
   13.4230   -2.0980   22.0550 C   0  0  0  0  0  0  0  0  0  0  0  0
   13.6480   -1.6020   20.7180 N   0  0  0  0  0  0  0  0  0  0  0  0
    8.8130    1.3600   21.7170 O   0  0  0  0  0  0  0  0  0  0  0  0
    8.1880    0.2330   22.2120 C   0  0  0  0  0  0  0  0  0  0  0  0
    8.7640   -0.3670   23.3440 C   0  0  0  0  0  0  0  0  0  0  0  0
    7.0830   -0.3460   21.5960 N   0  0  0  0  0  0  0  0  0  0  0  0
   10.4930   -0.2590   24.0520 C   0  0  0  0  0  0  0  0  0  0  0  0
   11.8370   -0.1880   24.5220 N   0  0  0  0  0  0  0  0  0  0  0  0
   12.9180   -0.8160   23.8440 C   0  0  0  0  0  0  0  0  0  0  0  0
   12.4580   -1.4670   22.7510 C   0  0  0  0  0  0  0  0  0  0  0  0
   11.1730   -1.5150   22.3370 C   0  0  0  0  0  0  0  0  0  0  0  0
    9.8610   -0.9370   22.8160 C   0  0  0  0  0  0  0  0  0  0  0  0
    5.4160    1.0140   20.4440 C   0  0  0  0  0  0  0  0  0  0  0  0
    4.8350    1.5470   19.1460 C   0  0  0  0  0  0  0  0  0  0  0  0
    5.3650    1.2100   17.9170 C   0  0  0  0  0  0  0  0  0  0  0  0
    6.5260    0.2960   17.8940 N   0  0  0  0  0  0  0  0  0  0  0  0
    7.1000   -0.2340   19.1600 C   0  0  0  0  0  0  0  0  0  0  0  0
    6.5030    0.1660   20.4070 C   0  0  0  0  0  0  0  0  0  0  0  0
  1  2  1  0
  2  3  1  0
  4  5  3  0
  6  7  2  0
  7  8  1  0
  7  9  1  0
  3 10  1  0
 10 11  2  0
 11 12  1  0
  4 13  1  0
 12 13  2  0
 13 14  1  0
  8 15  1  0
 10 15  1  0
 14 15  2  0
 16 17  2  0
 17 18  1  0
 18 19  2  0
 19 20  1  0
  9 21  1  0
 16 21  1  0
 20 21  2  0
M  END
