x0305-x1384
     RDKit          3D

 28 31  0  0  0  0  0  0  0  0999 V2000
    6.6930   -3.4830   21.6310 N   0  0  0  0  0  0  0  0  0  0  0  0
    7.3660   -3.1070   19.2150 C   0  0  0  0  0  0  0  0  0  0  0  0
    5.4590   -4.3830   19.8690 O   0  0  0  0  0  0  0  0  0  0  0  0
    6.4190   -3.7180   20.2530 C   0  0  0  0  0  0  0  0  0  0  0  0
    5.5830   -2.1760   26.7180 O   0  0  0  0  0  0  0  0  0  0  0  0
    8.4610    0.1940   27.5020 C   0  0  0  0  0  0  0  0  0  0  0  0
    8.8940   -0.6090   26.4390 C   0  0  2  0  0  0  0  0  0  0  0  0
    9.1850    0.2010   25.3630 N   0  0  0  0  0  0  0  0  0  0  0  0
   13.0450   -1.4320   21.5800 C   0  0  0  0  0  0  0  0  0  0  0  0
   13.8260   -1.7190   20.5920 N   0  0  0  0  0  0  0  0  0  0  0  0
    6.4650   -1.2930   26.0780 C   0  0  0  0  0  0  0  0  0  0  0  0
    7.8400   -1.6330   26.0280 C   0  0  0  0  0  0  0  0  0  0  0  0
    3.9740   -3.7180   23.7260 C   0  0  2  0  0  0  0  0  0  0  0  0
    5.2730   -3.4460   23.5610 C   0  0  1  0  0  0  0  0  0  0  0  0
    5.1540   -3.7590   24.9670 C   0  0  2  0  0  0  0  0  0  0  0  0
    5.1900   -5.1700   25.2400 C   0  0  0  0  0  0  0  0  0  0  0  0
    4.4670   -5.9080   24.1140 C   0  0  0  0  0  0  0  0  0  0  0  0
    3.7980   -5.0540   23.2930 C   0  0  0  0  0  0  0  0  0  0  0  0
    4.5830   -2.8040   25.9800 C   0  0  2  0  0  0  0  0  0  0  0  0
    4.4510   -2.6090   24.6800 C   0  0  0  0  0  0  0  0  0  0  0  0
    3.4980   -3.6270   25.0510 C   0  0  0  0  0  0  0  0  0  0  0  0
   10.1710   -0.2530   24.3860 C   0  0  0  0  0  0  0  0  0  0  0  0
   11.4700    0.4770   24.3230 N   0  0  0  0  0  0  0  0  0  0  0  0
   12.3900    0.0770   23.4090 C   0  0  0  0  0  0  0  0  0  0  0  0
   12.0840   -0.9900   22.5820 C   0  0  0  0  0  0  0  0  0  0  0  0
   10.8870   -1.6670   22.6450 C   0  0  0  0  0  0  0  0  0  0  0  0
    9.9120   -1.3050   23.5530 C   0  0  0  0  0  0  0  0  0  0  0  0
    6.1100   -4.2830   22.6540 C   0  0  0  0  0  0  0  0  0  0  0  0
  1  4  1  0
  2  4  1  0
  3  4  2  0
  7  6  1  1
  7  8  1  0
  9 10  3  0
  5 11  1  0
  7 12  1  0
 11 12  1  0
 13 14  1  0
 13 15  1  0
 14 15  1  0
 15 16  1  1
 16 17  1  0
 13 18  1  6
 17 18  2  0
 19  5  1  6
 15 19  1  0
 19 20  1  0
 13 21  1  0
 20 21  2  0
  8 22  1  0
 22 23  2  0
 23 24  1  0
  9 25  1  0
 24 25  2  0
 25 26  1  0
 22 27  1  0
 26 27  2  0
  1 28  1  0
 14 28  1  6
M  END
