x0305-x1348
     RDKit          3D

 29 31  0  0  0  0  0  0  0  0999 V2000
    6.9790   -3.6860   21.4140 N   0  0  0  0  0  0  0  0  0  0  0  0
    7.7120   -5.2380   27.8800 C   0  0  0  0  0  0  0  0  0  0  0  0
    7.3960   -4.8550   26.5980 N   0  0  0  0  0  0  0  0  0  0  0  0
    5.3590   -4.2280   19.7980 O   0  0  0  0  0  0  0  0  0  0  0  0
    6.4440   -3.7240   20.0970 C   0  0  0  0  0  0  0  0  0  0  0  0
    7.3730   -3.1220   19.0570 C   0  0  0  0  0  0  0  0  0  0  0  0
    8.7910   -0.4200   27.5840 C   0  0  0  0  0  0  0  0  0  0  0  0
    8.7000   -0.3960   26.1900 C   0  0  1  0  0  0  0  0  0  0  0  0
    9.5940    0.3810   25.5290 N   0  0  0  0  0  0  0  0  0  0  0  0
   13.0390   -1.3850   21.5940 C   0  0  0  0  0  0  0  0  0  0  0  0
   13.8840   -1.6540   20.5290 N   0  0  0  0  0  0  0  0  0  0  0  0
    8.1900   -3.9790   25.7130 C   0  0  0  0  0  0  0  0  0  0  0  0
    7.9860   -2.7210   26.2450 C   0  0  0  0  0  0  0  0  0  0  0  0
    8.6330   -1.7380   25.5010 C   0  0  0  0  0  0  0  0  0  0  0  0
    6.3680   -5.4270   25.8680 C   0  0  0  0  0  0  0  0  0  0  0  0
    6.1600   -5.2120   24.4960 C   0  0  0  0  0  0  0  0  0  0  0  0
    5.0070   -5.9090   23.8050 C   0  0  0  0  0  0  0  0  0  0  0  0
    4.1560   -6.7430   24.5010 C   0  0  0  0  0  0  0  0  0  0  0  0
    4.3410   -6.9570   25.8680 C   0  0  0  0  0  0  0  0  0  0  0  0
    5.4670   -6.2800   26.5250 C   0  0  0  0  0  0  0  0  0  0  0  0
    6.9110   -4.4050   23.6670 N   0  0  0  0  0  0  0  0  0  0  0  0
    6.4640   -4.4110   22.4650 C   0  0  0  0  0  0  0  0  0  0  0  0
    5.0940   -5.3940   22.1130 S   0  0  0  0  0  0  0  0  0  0  0  0
   10.3850   -0.1030   24.5390 C   0  0  0  0  0  0  0  0  0  0  0  0
   11.5810    0.5100   24.4190 N   0  0  0  0  0  0  0  0  0  0  0  0
   12.4900    0.0390   23.3820 C   0  0  0  0  0  0  0  0  0  0  0  0
   12.1550   -0.9850   22.5520 C   0  0  0  0  0  0  0  0  0  0  0  0
   10.9280   -1.5810   22.6930 C   0  0  0  0  0  0  0  0  0  0  0  0
   10.0340   -1.1490   23.6820 C   0  0  0  0  0  0  0  0  0  0  0  0
  2  3  1  0
  1  5  1  0
  4  5  2  0
  5  6  1  0
  8  7  1  1
  8  9  1  0
 10 11  3  0
  3 12  1  0
 12 13  1  0
  8 14  1  0
 13 14  1  0
  3 15  1  0
 15 16  2  0
 16 17  1  0
 17 18  2  0
 18 19  1  0
 15 20  1  0
 19 20  2  0
 16 21  1  0
  1 22  1  0
 21 22  2  0
 17 23  1  0
 22 23  1  0
  9 24  1  0
 24 25  2  0
 25 26  1  0
 10 27  1  0
 26 27  2  0
 27 28  1  0
 24 29  1  0
 28 29  2  0
M  END
