x0305-x3303
     RDKit          3D

 31 34  0  0  0  0  0  0  0  0999 V2000
    6.2080   -1.6990   21.0060 C   0  0  0  0  0  0  0  0  0  0  0  0
    5.3460   -2.5810   21.0540 O   0  0  0  0  0  0  0  0  0  0  0  0
    6.5280    1.2560   16.9330 O   0  0  0  0  0  0  0  0  0  0  0  0
   13.3210   -0.7590   21.8270 C   0  0  0  0  0  0  0  0  0  0  0  0
   13.5430   -1.7520   20.7740 N   0  0  0  0  0  0  0  0  0  0  0  0
    8.1700   -0.4930   21.4840 C   0  0  0  0  0  0  0  0  0  0  0  0
    9.5060   -0.5670   21.9140 C   0  0  0  0  0  0  0  0  0  0  0  0
    9.6670   -1.1780   23.1720 C   0  0  0  0  0  0  0  0  0  0  0  0
    8.7140   -2.1320   23.5770 C   0  0  0  0  0  0  0  0  0  0  0  0
    8.0420   -2.6570   22.4790 C   0  0  0  0  0  0  0  0  0  0  0  0
    7.4160   -1.7180   21.6600 N   0  0  0  0  0  0  0  0  0  0  0  0
    4.9350    1.8000   18.5570 N   0  0  0  0  0  0  0  0  0  0  0  0
    4.3090    1.5950   19.7210 C   0  0  0  0  0  0  0  0  0  0  0  0
    4.6950    0.4870   20.5280 C   0  0  0  0  0  0  0  0  0  0  0  0
    5.8070   -0.5100   20.1290 C   0  0  0  0  0  0  0  0  0  0  0  0
    6.4480   -0.2790   18.9080 C   0  0  0  0  0  0  0  0  0  0  0  0
    5.9820    0.9240   18.1150 C   0  0  0  0  0  0  0  0  0  0  0  0
   12.0760   -1.1130   22.5490 C   0  0  0  0  0  0  0  0  0  0  0  0
   13.2670   -1.6720   23.0050 C   0  0  0  0  0  0  0  0  0  0  0  0
   13.4840   -2.5640   24.0920 C   0  0  0  0  0  0  0  0  0  0  0  0
   12.4560   -2.9690   24.8120 C   0  0  0  0  0  0  0  0  0  0  0  0
   11.2440   -2.4980   24.4710 C   0  0  0  0  0  0  0  0  0  0  0  0
   11.0820   -1.6310   23.4180 C   0  0  0  0  0  0  0  0  0  0  0  0
    3.9980    0.3240   21.7560 C   0  0  0  0  0  0  0  0  0  0  0  0
    2.9780    1.1930   22.1750 C   0  0  0  0  0  0  0  0  0  0  0  0
    2.5790    2.2980   21.3830 C   0  0  0  0  0  0  0  0  0  0  0  0
    3.2110    2.5300   20.1680 C   0  0  0  0  0  0  0  0  0  0  0  0
    8.7580    0.1990   27.6370 C   0  0  0  0  0  0  0  0  0  0  0  0
    8.4980   -0.1470   26.3180 C   0  0  0  0  0  0  0  0  0  0  0  0
    9.7340   -0.2830   25.5630 N   0  0  0  0  0  0  0  0  0  0  0  0
    9.5200    0.0360   24.1520 C   0  0  0  0  0  0  0  0  0  0  0  0
  1  2  2  0
  4  5  3  0
  6  7  1  0
  7  8  1  0
  8  9  1  0
  9 10  1  0
  1 11  1  0
  6 11  1  0
 10 11  1  0
 12 13  2  0
 13 14  1  0
  1 15  1  0
 14 15  2  0
 15 16  1  0
  3 17  1  0
 12 17  1  0
 16 17  2  0
  4 18  1  0
 18 19  2  0
 19 20  1  0
 20 21  2  0
 21 22  1  0
  8 23  1  0
 18 23  1  0
 22 23  2  0
 14 24  1  0
 24 25  2  0
 25 26  1  0
 13 27  1  0
 26 27  2  0
 28 29  1  0
 29 30  1  0
  8 31  1  0
 30 31  1  0
M  END
