x0305-x0769
     RDKit          3D

 32 34  0  0  0  0  0  0  0  0999 V2000
    5.7820   -5.1650   26.8350 O   0  0  0  0  0  0  0  0  0  0  0  0
    3.7010   -6.5000   25.9380 O   0  0  0  0  0  0  0  0  0  0  0  0
    5.4840   -4.6920   19.9800 O   0  0  0  0  0  0  0  0  0  0  0  0
    6.5000   -4.5770   20.6800 C   0  0  0  0  0  0  0  0  0  0  0  0
    7.6930   -3.6870   20.3330 C   0  0  0  0  0  0  0  0  0  0  0  0
    5.7770   -2.6020   25.9320 O   0  0  0  0  0  0  0  0  0  0  0  0
    4.7200   -5.2770   25.8590 S   0  0  0  0  0  0  0  0  0  0  0  0
    8.1390    0.3210   27.3400 C   0  0  0  0  0  0  0  0  0  0  0  0
    8.3700    0.0360   25.9830 C   0  0  1  0  0  0  0  0  0  0  0  0
    9.8150   -0.2400   25.9660 N   0  0  0  0  0  0  0  0  0  0  0  0
   13.0970   -1.4030   21.5780 C   0  0  0  0  0  0  0  0  0  0  0  0
   13.9560   -1.4640   20.4300 N   0  0  0  0  0  0  0  0  0  0  0  0
    6.5390   -1.5410   26.5270 C   0  0  0  0  0  0  0  0  0  0  0  0
    7.4720   -1.1070   25.5750 C   0  0  0  0  0  0  0  0  0  0  0  0
    4.3430   -2.5540   25.9440 C   0  0  0  0  0  0  0  0  0  0  0  0
    3.7800   -3.8410   25.9050 C   0  0  0  0  0  0  0  0  0  0  0  0
    2.2640   -4.0900   25.9000 C   0  0  0  0  0  0  0  0  0  0  0  0
    1.4880   -2.9200   25.9440 C   0  0  0  0  0  0  0  0  0  0  0  0
    2.1660   -1.5400   25.9930 C   0  0  0  0  0  0  0  0  0  0  0  0
    3.5480   -1.3970   25.9900 C   0  0  0  0  0  0  0  0  0  0  0  0
    6.6560   -5.2730   21.8690 N   0  0  0  0  0  0  0  0  0  0  0  0
    5.7010   -6.1850   22.1930 C   0  0  0  0  0  0  0  0  0  0  0  0
    4.7320   -5.8180   23.2160 C   0  0  0  0  0  0  0  0  0  0  0  0
    5.3920   -5.3020   24.3150 N   0  0  0  0  0  0  0  0  0  0  0  0
    6.4590   -4.3520   23.9660 C   0  0  0  0  0  0  0  0  0  0  0  0
    7.2860   -4.7560   22.9360 C   0  0  0  0  0  0  0  0  0  0  0  0
   10.5880   -0.5760   24.8460 C   0  0  0  0  0  0  0  0  0  0  0  0
   11.7150    0.3040   24.5500 N   0  0  0  0  0  0  0  0  0  0  0  0
   12.5150   -0.0470   23.4280 C   0  0  0  0  0  0  0  0  0  0  0  0
   12.2060   -1.1570   22.6920 C   0  0  0  0  0  0  0  0  0  0  0  0
   11.1300   -2.0280   22.9320 C   0  0  0  0  0  0  0  0  0  0  0  0
   10.2550   -1.8170   23.9990 C   0  0  0  0  0  0  0  0  0  0  0  0
  3  4  2  0
  4  5  1  0
  1  7  2  0
  2  7  2  0
  9  8  1  1
  9 10  1  0
 11 12  3  0
  6 13  1  0
  9 14  1  0
 13 14  1  0
  6 15  1  0
  7 16  1  0
 15 16  1  0
 16 17  2  0
 17 18  1  0
 18 19  2  0
 15 20  2  0
 19 20  1  0
  4 21  1  0
 21 22  1  0
 22 23  1  0
  7 24  1  0
 23 24  1  0
 24 25  1  0
 21 26  1  0
 25 26  1  0
 10 27  1  0
 27 28  2  0
 28 29  1  0
 11 30  1  0
 29 30  2  0
 30 31  1  0
 27 32  1  0
 31 32  2  0
M  END
