x0305-x3117
     RDKit          3D

 37 39  0  0  0  0  0  0  0  0999 V2000
    6.9950   -1.4590   21.6880 N   0  0  0  0  0  0  0  0  0  0  0  0
    6.6190   -4.1430   20.1090 C   0  0  0  0  0  0  0  0  0  0  0  0
    4.9800   -3.3180   21.3560 O   0  0  0  0  0  0  0  0  0  0  0  0
    6.8120   -3.4350   21.4570 C   0  0  0  0  0  0  0  0  0  0  0  0
    7.6780    1.9540   22.6750 N   0  0  0  0  0  0  0  0  0  0  0  0
    9.0170    0.6840   21.4080 O   0  0  0  0  0  0  0  0  0  0  0  0
    5.8010   -2.3110   21.5210 C   0  0  0  0  0  0  0  0  0  0  0  0
    6.7730    0.0060   21.5460 C   0  0  1  0  0  0  0  0  0  0  0  0
    7.8940    0.8610   21.8570 C   0  0  0  0  0  0  0  0  0  0  0  0
   12.1490   -1.7650   24.5180 C   0  0  0  0  0  0  0  0  0  0  0  0
   12.3640   -0.6430   25.2630 C   0  0  0  0  0  0  0  0  0  0  0  0
   13.2460   -1.6130   23.5280 C   0  0  0  0  0  0  0  0  0  0  0  0
   12.6320   -3.0350   25.2000 C   0  0  0  0  0  0  0  0  0  0  0  0
    8.2550   -0.4500   26.5190 C   0  0  0  0  0  0  0  0  0  0  0  0
    9.4570   -0.2590   25.7880 C   0  0  2  0  0  0  0  0  0  0  0  0
    9.6730    0.9700   25.3730 N   0  0  0  0  0  0  0  0  0  0  0  0
    6.2500    0.3930   17.8050 N   0  0  0  0  0  0  0  0  0  0  0  0
    5.1720    1.1750   17.8230 C   0  0  0  0  0  0  0  0  0  0  0  0
    4.5350    1.6130   18.9370 C   0  0  0  0  0  0  0  0  0  0  0  0
    4.9990    1.2620   20.1680 C   0  0  0  0  0  0  0  0  0  0  0  0
    6.1830    0.4140   20.2390 C   0  0  0  0  0  0  0  0  0  0  0  0
    6.8300   -0.0470   19.0770 C   0  0  0  0  0  0  0  0  0  0  0  0
    9.7290    5.0800   24.0660 O   0  0  0  0  0  0  0  0  0  0  0  0
   10.4630    3.9640   23.5950 C   0  0  0  0  0  0  0  0  0  0  0  0
    9.5750    2.8810   23.6670 C   0  0  0  0  0  0  0  0  0  0  0  0
    8.5640    3.0160   22.7150 C   0  0  0  0  0  0  0  0  0  0  0  0
    7.9290    4.2480   22.9770 C   0  0  0  0  0  0  0  0  0  0  0  0
    8.7660    5.4000   23.1660 C   0  0  0  0  0  0  0  0  0  0  0  0
    9.4210   -2.2340   21.9030 C   0  0  0  0  0  0  0  0  0  0  0  0
   10.6080   -2.2590   22.6460 C   0  0  0  0  0  0  0  0  0  0  0  0
   10.7130   -1.6570   23.9020 C   0  0  0  0  0  0  0  0  0  0  0  0
    9.5650   -1.0120   24.4510 C   0  0  0  0  0  0  0  0  0  0  0  0
    8.3880   -0.9860   23.7370 C   0  0  0  0  0  0  0  0  0  0  0  0
    8.2660   -1.6110   22.3730 C   0  0  0  0  0  0  0  0  0  0  0  0
   13.0470   -1.8380   21.1510 C   0  0  0  0  0  0  0  0  0  0  0  0
   13.8610   -1.4300   20.4830 N   0  0  0  0  0  0  0  0  0  0  0  0
   12.8470   -0.8780   22.3040 C   0  0  0  0  0  0  0  0  0  0  0  0
  2  4  1  0
  1  7  1  0
  3  7  2  0
  4  7  1  0
  1  8  1  0
  5  9  1  0
  6  9  2  0
  8  9  1  6
 10 11  1  0
 10 12  1  0
 10 13  1  0
 15 14  1  6
 15 16  1  0
 17 18  2  0
 18 19  1  0
 19 20  2  0
  8 21  1  0
 20 21  1  0
 17 22  1  0
 21 22  2  0
 23 24  1  0
 24 25  1  0
  5 26  1  0
 25 26  1  0
 26 27  1  0
 23 28  1  0
 27 28  1  0
 29 30  2  0
 10 31  1  0
 30 31  1  0
 15 32  1  0
 31 32  2  0
 32 33  1  0
  1 34  1  0
 29 34  1  0
 33 34  2  0
 35 36  3  0
 12 37  1  0
 35 37  1  0
M  END
