x0305-x1375
     RDKit          3D

 32 34  0  0  0  0  0  0  0  0999 V2000
    5.4230   -4.4370   19.8800 O   0  0  0  0  0  0  0  0  0  0  0  0
    6.3390   -4.4710   20.6860 C   0  0  0  0  0  0  0  0  0  0  0  0
    7.7180   -3.7560   20.5110 C   0  0  0  0  0  0  0  0  0  0  0  0
    6.1660   -5.1540   21.8910 N   0  0  0  0  0  0  0  0  0  0  0  0
    2.2210   -6.6400   24.0510 O   0  0  0  0  0  0  0  0  0  0  0  0
    4.3910   -7.7820   25.0960 O   0  0  0  0  0  0  0  0  0  0  0  0
   10.6930   -3.9250   24.5380 F   0  0  0  0  0  0  0  0  0  0  0  0
    7.7280    0.4190   26.9280 C   0  0  0  0  0  0  0  0  0  0  0  0
    8.9370   -0.1260   26.4940 C   0  0  2  0  0  0  0  0  0  0  0  0
    9.4860    0.6160   25.4550 N   0  0  0  0  0  0  0  0  0  0  0  0
   13.0160   -1.4180   21.6600 C   0  0  0  0  0  0  0  0  0  0  0  0
   13.7530   -1.8050   20.6620 N   0  0  0  0  0  0  0  0  0  0  0  0
    9.6670   -3.2470   25.0290 C   0  0  1  0  0  0  0  0  0  0  0  0
    9.6670   -1.9150   25.2780 C   0  0  0  0  0  0  0  0  0  0  0  0
    8.6910   -1.5190   26.1080 C   0  0  0  0  0  0  0  0  0  0  0  0
    7.5410   -3.8110   23.2090 C   0  0  0  0  0  0  0  0  0  0  0  0
    8.5990   -3.3250   24.1430 C   0  0  0  0  0  0  0  0  0  0  0  0
    9.1750   -4.6080   24.4340 C   0  0  0  0  0  0  0  0  0  0  0  0
    8.8620   -6.0020   23.9790 C   0  0  0  0  0  0  0  0  0  0  0  0
    7.8560   -6.1920   23.1320 C   0  0  0  0  0  0  0  0  0  0  0  0
    7.2390   -5.0630   22.7860 C   0  0  0  0  0  0  0  0  0  0  0  0
    4.9890   -4.4410   23.8330 C   0  0  0  0  0  0  0  0  0  0  0  0
    4.9710   -5.1250   22.5930 C   0  0  2  0  0  0  0  0  0  0  0  0
    4.6420   -6.4830   22.7270 C   0  0  0  0  0  0  0  0  0  0  0  0
    3.7970   -6.5780   24.2660 S   0  0  0  0  0  0  0  0  0  0  0  0
    4.3770   -5.0600   24.9340 C   0  0  0  0  0  0  0  0  0  0  0  0
   10.3740    0.1270   24.5310 C   0  0  0  0  0  0  0  0  0  0  0  0
   11.6730    0.7730   24.2840 N   0  0  0  0  0  0  0  0  0  0  0  0
   12.4960    0.2320   23.3520 C   0  0  0  0  0  0  0  0  0  0  0  0
   12.1550   -0.9130   22.6130 C   0  0  0  0  0  0  0  0  0  0  0  0
   10.9250   -1.5080   22.8560 C   0  0  0  0  0  0  0  0  0  0  0  0
   10.0280   -1.0130   23.7960 C   0  0  0  0  0  0  0  0  0  0  0  0
  1  2  2  0
  2  3  1  0
  2  4  1  0
  9  8  1  6
  9 10  1  0
 11 12  3  0
 13  7  1  6
 13 14  1  0
  9 15  1  0
 14 15  1  0
 13 17  1  0
 16 17  2  0
 17 18  1  0
 18 19  2  0
 19 20  1  0
  4 21  1  0
 16 21  1  0
 20 21  2  0
 23  4  1  1
 22 23  1  0
 23 24  1  0
 25  5  1  0
  6 25  1  0
 24 25  1  0
 22 26  2  0
 25 26  1  0
 10 27  1  0
 27 28  2  0
 28 29  1  0
 11 30  1  0
 29 30  2  0
 30 31  1  0
 27 32  1  0
 31 32  2  0
M  END
