x0305-x2694
     RDKit          3D

 37 39  0  0  0  0  0  0  0  0999 V2000
    7.0470   -1.4430   21.7140 N   0  0  0  0  0  0  0  0  0  0  0  0
    6.8410   -4.7090   20.4220 C   0  0  0  0  0  0  0  0  0  0  0  0
    4.8470   -2.9910   21.1890 O   0  0  0  0  0  0  0  0  0  0  0  0
    6.9520   -3.9420   21.7340 C   0  0  0  0  0  0  0  0  0  0  0  0
    7.5870    1.9480   22.7960 N   0  0  0  0  0  0  0  0  0  0  0  0
    8.7300    1.1640   21.0510 O   0  0  0  0  0  0  0  0  0  0  0  0
    6.1570   -2.6950   21.5170 C   0  0  0  0  0  0  0  0  0  0  0  0
   10.9440    6.5900   23.8800 O   0  0  0  0  0  0  0  0  0  0  0  0
    6.6830    0.0210   21.5120 C   0  0  1  0  0  0  0  0  0  0  0  0
    7.7310    1.0340   21.7640 C   0  0  0  0  0  0  0  0  0  0  0  0
   10.2860    1.8200   24.0450 C   0  0  0  0  0  0  0  0  0  0  0  0
   11.8430    6.3950   24.9680 C   0  0  0  0  0  0  0  0  0  0  0  0
   12.0150   -1.3730   23.4210 C   0  0  0  0  0  0  0  0  0  0  0  0
   12.4530   -2.5500   22.9190 C   0  0  0  0  0  0  0  0  0  0  0  0
   12.8370   -1.4510   22.1530 C   0  0  0  0  0  0  0  0  0  0  0  0
   12.6730   -1.2170   24.6660 C   0  0  0  0  0  0  0  0  0  0  0  0
    8.7680   -0.0600   27.6970 C   0  0  0  0  0  0  0  0  0  0  0  0
    8.6410    0.1150   26.3330 C   0  0  0  0  0  0  0  0  0  0  0  0
    9.8190   -0.4180   25.6460 N   0  0  0  0  0  0  0  0  0  0  0  0
   13.4530   -1.5330   21.1590 N   0  0  0  0  0  0  0  0  0  0  0  0
    6.3560    0.4460   17.8660 N   0  0  0  0  0  0  0  0  0  0  0  0
    5.1550    1.3010   17.7640 C   0  0  0  0  0  0  0  0  0  0  0  0
    4.4600    1.6900   18.9550 C   0  0  0  0  0  0  0  0  0  0  0  0
    4.9930    1.2330   20.1400 C   0  0  0  0  0  0  0  0  0  0  0  0
    6.1310    0.4410   20.1900 C   0  0  0  0  0  0  0  0  0  0  0  0
    6.8080    0.0410   19.0410 C   0  0  0  0  0  0  0  0  0  0  0  0
    8.2950   -0.9160   23.8200 N   0  0  0  0  0  0  0  0  0  0  0  0
    9.6600   -0.8490   24.3790 C   0  0  0  0  0  0  0  0  0  0  0  0
   10.4790   -1.2750   23.3420 C   0  0  0  0  0  0  0  0  0  0  0  0
    9.6700   -1.5860   22.2090 C   0  0  0  0  0  0  0  0  0  0  0  0
    8.2880   -1.3460   22.5070 C   0  0  0  0  0  0  0  0  0  0  0  0
    9.6830    3.1280   23.6330 C   0  0  0  0  0  0  0  0  0  0  0  0
   10.4770    4.2820   23.8840 C   0  0  0  0  0  0  0  0  0  0  0  0
   10.0610    5.5790   23.5640 C   0  0  0  0  0  0  0  0  0  0  0  0
    8.8150    5.7320   22.9630 C   0  0  0  0  0  0  0  0  0  0  0  0
    7.9860    4.4720   22.7050 C   0  0  0  0  0  0  0  0  0  0  0  0
    8.3980    3.1730   23.0340 C   0  0  0  0  0  0  0  0  0  0  0  0
  2  4  1  0
  1  7  1  0
  3  7  2  0
  4  7  1  0
  1  9  1  0
  5 10  1  0
  6 10  2  0
  9 10  1  6
  8 12  1  0
 13 14  1  0
 13 15  1  0
 13 16  1  0
 17 18  1  0
 18 19  1  0
 15 20  3  0
 21 22  2  0
 22 23  1  0
 23 24  2  0
  9 25  1  0
 24 25  1  0
 21 26  1  0
 25 26  2  0
 19 28  1  0
 27 28  1  0
 13 29  1  0
 28 29  2  0
 29 30  1  0
  1 31  1  0
 27 31  1  0
 30 31  2  0
 11 32  1  0
 32 33  2  0
  8 34  1  0
 33 34  1  0
 34 35  2  0
 35 36  1  0
  5 37  1  0
 32 37  1  0
 36 37  2  0
M  END
