x0305-x0946
     RDKit          3D

 21 22  0  0  0  0  0  0  0  0999 V2000
    8.0710   -0.1650   27.4610 C   0  0  0  0  0  0  0  0  0  0  0  0
    8.4240   -0.3570   26.0150 C   0  0  0  0  0  0  0  0  0  0  0  0
    9.8220    0.0010   25.7700 N   0  0  0  0  0  0  0  0  0  0  0  0
   12.9990   -1.9990   21.7060 C   0  0  0  0  0  0  0  0  0  0  0  0
   13.6110   -2.7250   20.6610 N   0  0  0  0  0  0  0  0  0  0  0  0
    9.2820    5.7360   22.8750 N   0  0  0  0  0  0  0  0  0  0  0  0
   10.1190    5.7740   25.2510 O   0  0  0  0  0  0  0  0  0  0  0  0
   11.6400    6.7680   23.3100 O   0  0  0  0  0  0  0  0  0  0  0  0
   10.5950    5.7220   23.8870 S   0  0  0  0  0  0  0  0  0  0  0  0
   10.6490   -0.5560   24.7130 C   0  0  0  0  0  0  0  0  0  0  0  0
   11.3490    0.2930   23.7880 N   0  0  0  0  0  0  0  0  0  0  0  0
   12.2010    0.0820   22.6920 C   0  0  0  0  0  0  0  0  0  0  0  0
   12.1910   -1.3320   22.7580 C   0  0  0  0  0  0  0  0  0  0  0  0
   11.5750   -2.2500   23.5620 C   0  0  0  0  0  0  0  0  0  0  0  0
   10.7760   -1.9850   24.5680 C   0  0  0  0  0  0  0  0  0  0  0  0
   11.8810    1.4880   23.0180 C   0  0  0  0  0  0  0  0  0  0  0  0
   13.0010    2.4760   22.7740 C   0  0  0  0  0  0  0  0  0  0  0  0
   12.6250    3.7920   23.0350 C   0  0  0  0  0  0  0  0  0  0  0  0
   11.2160    4.1130   23.5300 C   0  0  0  0  0  0  0  0  0  0  0  0
   10.2990    3.1090   23.7290 C   0  0  0  0  0  0  0  0  0  0  0  0
   10.6040    1.8120   23.4810 C   0  0  0  0  0  0  0  0  0  0  0  0
  1  2  1  0
  2  3  1  0
  4  5  3  0
  9  6  1  0
  7  9  2  0
  8  9  2  0
  3 10  1  0
 10 11  2  0
 11 12  1  0
  4 13  1  0
 12 13  2  0
 13 14  1  0
 10 15  1  0
 14 15  2  0
 12 16  1  0
 16 17  2  0
 17 18  1  0
  9 19  1  0
 18 19  2  0
 19 20  1  0
 16 21  1  0
 20 21  2  0
M  END
