x0305-x2572
     RDKit          3D

 22 23  0  0  0  0  0  0  0  0999 V2000
    4.8550    1.3760   21.6270 C   0  0  0  0  0  0  0  0  0  0  0  0
    8.8840    1.2020   21.2770 O   0  0  0  0  0  0  0  0  0  0  0  0
    7.0350   -0.2330   21.1580 N   0  0  0  0  0  0  0  0  0  0  0  0
   13.9410   -1.7430   20.4710 N   0  0  0  0  0  0  0  0  0  0  0  0
    8.1920    0.2500   21.6900 C   0  0  0  0  0  0  0  0  0  0  0  0
    8.5730   -0.5570   22.9650 C   0  0  0  0  0  0  0  0  0  0  0  0
   13.1450   -1.5160   21.4790 C   0  0  0  0  0  0  0  0  0  0  0  0
    8.2430    0.6480   27.2460 C   0  0  0  0  0  0  0  0  0  0  0  0
    9.0630   -0.1930   26.4960 C   0  0  0  0  0  0  0  0  0  0  0  0
    9.6860    0.4070   25.5020 N   0  0  0  0  0  0  0  0  0  0  0  0
    6.2780    0.5580   17.6680 N   0  0  0  0  0  0  0  0  0  0  0  0
    7.0430   -0.1110   18.7480 C   0  0  0  0  0  0  0  0  0  0  0  0
    6.4530    0.2680   19.9630 C   0  0  0  0  0  0  0  0  0  0  0  0
    5.3540    1.0890   20.2360 C   0  0  0  0  0  0  0  0  0  0  0  0
    4.6780    1.6900   19.0470 C   0  0  0  0  0  0  0  0  0  0  0  0
    5.2170    1.3670   17.8350 C   0  0  0  0  0  0  0  0  0  0  0  0
   10.5470   -0.1400   24.4520 C   0  0  0  0  0  0  0  0  0  0  0  0
   11.9070   -0.1950   24.6870 C   0  0  0  0  0  0  0  0  0  0  0  0
   12.7820   -0.6330   23.7740 C   0  0  0  0  0  0  0  0  0  0  0  0
   12.2780   -1.0620   22.5240 C   0  0  0  0  0  0  0  0  0  0  0  0
   10.9170   -1.0250   22.3170 C   0  0  0  0  0  0  0  0  0  0  0  0
   10.0340   -0.5710   23.2610 C   0  0  0  0  0  0  0  0  0  0  0  0
  2  5  2  0
  3  5  1  0
  5  6  1  0
  4  7  3  0
  8  9  1  0
  9 10  1  0
 11 12  2  0
  3 13  1  0
 12 13  1  0
  1 14  1  0
 13 14  2  0
 14 15  1  0
 11 16  1  0
 15 16  2  0
 10 17  1  0
 17 18  2  0
 18 19  1  0
  7 20  1  0
 19 20  2  0
 20 21  1  0
  6 22  1  0
 17 22  1  0
 21 22  2  0
M  END
