x0305-x0692
     RDKit          3D

 22 23  0  0  0  0  0  0  0  0999 V2000
   10.7670    2.1710   24.0880 C   0  0  0  0  0  0  0  0  0  0  0  0
    5.2650   -4.1000   19.6970 O   0  0  0  0  0  0  0  0  0  0  0  0
    9.1330   -2.6060   24.1370 C   0  0  0  0  0  0  0  0  0  0  0  0
    6.1780   -3.3010   19.8870 C   0  0  0  0  0  0  0  0  0  0  0  0
    7.2080   -2.9780   18.8060 C   0  0  0  0  0  0  0  0  0  0  0  0
    8.5740   -0.2920   27.2600 C   0  0  0  0  0  0  0  0  0  0  0  0
    8.9660   -0.7460   25.9980 C   0  0  0  0  0  0  0  0  0  0  0  0
    9.1040    0.2840   24.9470 N   0  0  0  0  0  0  0  0  0  0  0  0
   13.1650   -1.2490   21.6140 C   0  0  0  0  0  0  0  0  0  0  0  0
   13.9330   -1.5620   20.5490 N   0  0  0  0  0  0  0  0  0  0  0  0
   11.0060    0.7990   23.6760 C   0  0  0  0  0  0  0  0  0  0  0  0
   10.1020   -0.1570   24.1120 C   0  0  0  0  0  0  0  0  0  0  0  0
   10.1940   -1.6180   23.6830 C   0  0  0  0  0  0  0  0  0  0  0  0
   11.2340   -1.9680   22.8610 C   0  0  0  0  0  0  0  0  0  0  0  0
   12.1860   -0.8790   22.4530 C   0  0  0  0  0  0  0  0  0  0  0  0
   12.0740    0.4480   22.8510 C   0  0  0  0  0  0  0  0  0  0  0  0
    6.3360   -2.6960   21.1390 N   0  0  0  0  0  0  0  0  0  0  0  0
    7.2330   -1.6650   21.2510 C   0  0  0  0  0  0  0  0  0  0  0  0
    8.4190   -1.8640   22.0750 C   0  0  0  0  0  0  0  0  0  0  0  0
    8.0470   -2.3510   23.3210 N   0  0  0  0  0  0  0  0  0  0  0  0
    7.1650   -3.5120   23.1850 C   0  0  0  0  0  0  0  0  0  0  0  0
    6.1060   -3.3680   22.2860 C   0  0  0  0  0  0  0  0  0  0  0  0
  2  4  2  0
  4  5  1  0
  6  7  1  0
  7  8  1  0
  9 10  3  0
  1 11  1  0
  8 12  1  0
 11 12  2  0
  3 13  1  0
 12 13  1  0
 13 14  2  0
  9 15  1  0
 14 15  1  0
 11 16  1  0
 15 16  2  0
  4 17  1  0
 17 18  1  0
 18 19  1  0
  3 20  1  0
 19 20  1  0
 20 21  1  0
 17 22  1  0
 21 22  1  0
M  END
