x0305-x0759
     RDKit          3D

 21 22  0  0  0  0  0  0  0  0999 V2000
    5.4050   -4.2650   19.8080 O   0  0  0  0  0  0  0  0  0  0  0  0
    6.3710   -3.5540   20.0790 C   0  0  0  0  0  0  0  0  0  0  0  0
    7.3430   -3.0490   19.0060 C   0  0  0  0  0  0  0  0  0  0  0  0
   12.9930    0.5050   23.6250 F   0  0  0  0  0  0  0  0  0  0  0  0
    8.0370    0.8230   25.5750 C   0  0  0  0  0  0  0  0  0  0  0  0
    8.5240   -0.4740   25.4480 C   0  0  2  0  0  0  0  0  0  0  0  0
    9.2740   -0.6680   26.6990 N   0  0  0  0  0  0  0  0  0  0  0  0
   12.7980   -1.3970   21.6090 C   0  0  0  0  0  0  0  0  0  0  0  0
   13.8260   -1.5620   20.5960 N   0  0  0  0  0  0  0  0  0  0  0  0
    6.6380   -3.2110   21.4110 N   0  0  0  0  0  0  0  0  0  0  0  0
    7.6120   -2.2960   21.8200 C   0  0  0  0  0  0  0  0  0  0  0  0
    8.1780   -2.4810   23.0850 C   0  0  1  0  0  0  0  0  0  0  0  0
    8.5080   -3.8570   23.3270 O   0  0  0  0  0  0  0  0  0  0  0  0
    7.4460   -4.7630   23.0130 C   0  0  0  0  0  0  0  0  0  0  0  0
    6.3790   -4.1640   22.3230 C   0  0  0  0  0  0  0  0  0  0  0  0
    9.5680   -0.7310   24.3720 C   0  0  0  0  0  0  0  0  0  0  0  0
   10.7310    0.0060   24.4810 C   0  0  0  0  0  0  0  0  0  0  0  0
   11.8710   -0.1970   23.5160 C   0  0  0  0  0  0  0  0  0  0  0  0
   11.6790   -1.1380   22.5510 C   0  0  0  0  0  0  0  0  0  0  0  0
   10.5290   -1.8680   22.3840 C   0  0  0  0  0  0  0  0  0  0  0  0
    9.4340   -1.6560   23.3180 C   0  0  0  0  0  0  0  0  0  0  0  0
  1  2  2  0
  2  3  1  0
  6  5  1  1
  6  7  1  0
  8  9  3  0
  2 10  1  0
 10 11  1  0
 11 12  1  0
 12 13  1  0
 13 14  1  0
 10 15  1  0
 14 15  1  0
  6 16  1  0
 16 17  2  0
  4 18  1  0
 17 18  1  0
  8 19  1  0
 18 19  2  0
 19 20  1  0
 12 21  1  6
 16 21  1  0
 20 21  2  0
M  END
