x0305-x2097
     RDKit          3D

 21 22  0  0  0  0  0  0  0  0999 V2000
    8.0860   -0.2700   27.1650 C   0  0  0  0  0  0  0  0  0  0  0  0
    8.4260   -0.0130   25.7220 C   0  0  1  0  0  0  0  0  0  0  0  0
    9.8570    0.2990   25.5910 N   0  0  0  0  0  0  0  0  0  0  0  0
   13.1360   -2.1250   21.5260 C   0  0  0  0  0  0  0  0  0  0  0  0
   13.8080   -1.3030   20.5640 N   0  0  0  0  0  0  0  0  0  0  0  0
    5.9110   -5.3830   20.0330 N   0  0  0  0  0  0  0  0  0  0  0  0
    6.5140   -4.2460   20.0910 C   0  0  0  0  0  0  0  0  0  0  0  0
    8.1300   -1.1900   24.8010 C   0  0  0  0  0  0  0  0  0  0  0  0
    7.9150   -0.9160   23.4520 C   0  0  0  0  0  0  0  0  0  0  0  0
   10.7220   -0.2460   24.5610 C   0  0  0  0  0  0  0  0  0  0  0  0
   11.7730    0.5400   24.0640 N   0  0  0  0  0  0  0  0  0  0  0  0
   12.6030   -0.1160   23.0240 C   0  0  0  0  0  0  0  0  0  0  0  0
   12.3500   -1.4140   22.5650 C   0  0  0  0  0  0  0  0  0  0  0  0
   11.1860   -2.1780   23.1590 C   0  0  0  0  0  0  0  0  0  0  0  0
   10.4330   -1.5430   24.1340 C   0  0  0  0  0  0  0  0  0  0  0  0
    6.2580   -3.3950   21.2960 C   0  0  0  0  0  0  0  0  0  0  0  0
    7.2100   -2.5630   21.7870 N   0  0  0  0  0  0  0  0  0  0  0  0
    6.8870   -1.8420   22.8830 C   0  0  0  0  0  0  0  0  0  0  0  0
    5.6580   -1.9230   23.4940 C   0  0  0  0  0  0  0  0  0  0  0  0
    4.7320   -2.8410   22.8800 C   0  0  0  0  0  0  0  0  0  0  0  0
    5.0080   -3.5750   21.7980 N   0  0  0  0  0  0  0  0  0  0  0  0
  2  1  1  1
  2  3  1  0
  4  5  3  0
  6  7  2  3
  2  8  1  0
  8  9  1  0
  3 10  1  0
 10 11  2  0
 11 12  1  0
  4 13  1  0
 12 13  2  0
 13 14  1  0
 10 15  1  0
 14 15  2  0
  7 16  1  0
 16 17  2  0
  9 18  1  0
 17 18  1  0
 18 19  2  0
 19 20  1  0
 16 21  1  0
 20 21  2  0
M  END
