x0305-x0072
     RDKit          3D

 18 18  0  0  0  0  0  0  0  0999 V2000
    6.5080   -5.3310   26.4460 C   0  0  0  0  0  0  0  0  0  0  0  0
    8.2590   -4.8120   26.2870 S   0  0  0  0  0  0  0  0  0  0  0  0
    9.0640   -5.9430   25.9200 O   0  0  0  0  0  0  0  0  0  0  0  0
    8.5910   -4.0400   27.4410 O   0  0  0  0  0  0  0  0  0  0  0  0
    8.2420   -3.7460   24.9940 N   0  0  0  0  0  0  0  0  0  0  0  0
    9.4210   -3.1170   24.6920 C   0  0  0  0  0  0  0  0  0  0  0  0
    9.3320   -2.1140   23.5020 C   0  0  0  0  0  0  0  0  0  0  0  0
    7.7310    0.6780   26.2860 C   0  0  0  0  0  0  0  0  0  0  0  0
    8.3900   -0.1390   25.3510 C   0  0  0  0  0  0  0  0  0  0  0  0
    9.8190    0.2320   25.2060 N   0  0  0  0  0  0  0  0  0  0  0  0
   12.5660   -2.1670   21.4340 C   0  0  0  0  0  0  0  0  0  0  0  0
   13.6110   -2.2930   20.6920 N   0  0  0  0  0  0  0  0  0  0  0  0
   10.5800   -1.3550   23.3610 C   0  0  0  0  0  0  0  0  0  0  0  0
   11.4390   -1.8870   22.3760 C   0  0  0  0  0  0  0  0  0  0  0  0
   12.5580   -1.0000   22.3950 C   0  0  0  0  0  0  0  0  0  0  0  0
   12.9150    0.2360   23.1740 C   0  0  0  0  0  0  0  0  0  0  0  0
   11.9890    0.6010   24.0670 C   0  0  0  0  0  0  0  0  0  0  0  0
   10.7610   -0.2380   24.1810 C   0  0  0  0  0  0  0  0  0  0  0  0
  1  2  1  0
  2  3  2  0
  2  4  2  0
  2  5  1  0
  5  6  1  0
  6  7  1  0
  8  9  1  0
  9 10  1  0
 11 12  3  0
  7 13  1  0
 11 14  1  0
 13 14  2  0
 14 15  1  0
 15 16  2  0
 16 17  1  0
 10 18  1  0
 13 18  1  0
 17 18  2  0
M  END
