x0305-x3113
     RDKit          3D

 37 38  0  0  0  0  0  0  0  0999 V2000
    7.1350   -1.8520   21.8940 N   0  0  0  0  0  0  0  0  0  0  0  0
    8.2110   -4.5580   20.9570 C   0  0  0  0  0  0  0  0  0  0  0  0
    4.9150   -3.0890   21.1700 O   0  0  0  0  0  0  0  0  0  0  0  0
    6.8180   -4.4100   21.6090 C   0  0  0  0  0  0  0  0  0  0  0  0
    8.0480    1.4640   22.8120 N   0  0  0  0  0  0  0  0  0  0  0  0
    9.1290    0.2250   21.3190 O   0  0  0  0  0  0  0  0  0  0  0  0
    6.2070   -3.0150   21.5290 C   0  0  0  0  0  0  0  0  0  0  0  0
   11.5450    3.9170   23.1340 O   0  0  0  0  0  0  0  0  0  0  0  0
    6.8950   -0.3750   21.6620 C   0  0  1  0  0  0  0  0  0  0  0  0
    8.0800    0.4220   21.9070 C   0  0  0  0  0  0  0  0  0  0  0  0
    9.1560    2.4670   22.7930 C   0  0  0  0  0  0  0  0  0  0  0  0
   10.3600    1.8790   23.2350 C   0  0  0  0  0  0  0  0  0  0  0  0
   11.5970    2.5400   23.0940 C   0  0  0  0  0  0  0  0  0  0  0  0
   12.8050    4.5350   22.8630 C   0  0  0  0  0  0  0  0  0  0  0  0
   12.4200   -2.0440   24.5310 C   0  0  0  0  0  0  0  0  0  0  0  0
   13.2900   -2.1840   23.5180 C   0  0  0  0  0  0  0  0  0  0  0  0
   12.8190   -3.1800   25.4870 C   0  0  0  0  0  0  0  0  0  0  0  0
   12.5460   -0.8580   25.1510 C   0  0  0  0  0  0  0  0  0  0  0  0
    6.4190    0.2210   17.9460 N   0  0  0  0  0  0  0  0  0  0  0  0
    5.2940    0.9710   17.9410 C   0  0  0  0  0  0  0  0  0  0  0  0
    4.5670    1.3450   19.1270 C   0  0  0  0  0  0  0  0  0  0  0  0
    5.1040    0.8840   20.3330 C   0  0  0  0  0  0  0  0  0  0  0  0
    6.2740    0.1100   20.3610 C   0  0  0  0  0  0  0  0  0  0  0  0
    6.8800   -0.1910   19.1410 C   0  0  0  0  0  0  0  0  0  0  0  0
    9.6120   -2.3630   21.8740 C   0  0  0  0  0  0  0  0  0  0  0  0
   10.8880   -2.4240   22.4600 C   0  0  0  0  0  0  0  0  0  0  0  0
   11.0700   -2.0450   23.8100 C   0  0  0  0  0  0  0  0  0  0  0  0
    9.9530   -1.6310   24.4800 C   0  0  0  0  0  0  0  0  0  0  0  0
    8.6990   -1.5670   23.8890 C   0  0  0  0  0  0  0  0  0  0  0  0
    8.4650   -1.9360   22.5520 C   0  0  0  0  0  0  0  0  0  0  0  0
   13.4850   -1.2190   21.4980 C   0  0  0  0  0  0  0  0  0  0  0  0
   13.7930   -1.4850   20.4720 N   0  0  0  0  0  0  0  0  0  0  0  0
   13.1880   -0.8920   22.7620 C   0  0  0  0  0  0  0  0  0  0  0  0
    7.6570    0.8470   26.6080 C   0  0  0  0  0  0  0  0  0  0  0  0
    8.3980    0.1010   25.6950 C   0  0  2  0  0  0  0  0  0  0  0  0
    8.9800    0.8310   25.0320 N   0  0  0  0  0  0  0  0  0  0  0  0
    7.7220   -1.0360   24.8790 C   0  0  0  0  0  0  0  0  0  0  0  0
  2  4  1  0
  1  7  1  0
  3  7  2  0
  4  7  1  0
  1  9  1  0
  5 10  1  0
  6 10  2  0
  9 10  1  6
  5 11  1  0
 11 12  1  0
  8 13  1  0
 12 13  1  0
  8 14  1  0
 15 16  1  0
 15 17  1  0
 15 18  1  0
 19 20  2  0
 20 21  1  0
 21 22  2  0
  9 23  1  0
 22 23  1  0
 19 24  1  0
 23 24  2  0
 25 26  2  0
 15 27  1  0
 26 27  1  0
 27 28  2  0
 28 29  1  0
  1 30  1  0
 25 30  1  0
 29 30  2  0
 31 32  3  0
 16 33  1  0
 31 33  1  0
 35 34  1  6
 35 36  1  0
 29 37  1  0
 35 37  1  0
M  END
