x0305-x2608
     RDKit          3D

 24 25  0  0  0  0  0  0  0  0999 V2000
    8.5310   -1.1130   22.8020 N   0  0  0  0  0  0  0  0  0  0  0  0
   12.5910    2.3190   22.7980 C   0  0  0  0  0  0  0  0  0  0  0  0
    7.0010    0.5930   22.6550 O   0  0  0  0  0  0  0  0  0  0  0  0
    6.8080   -1.0660   21.1890 N   0  0  0  0  0  0  0  0  0  0  0  0
    7.4370   -0.4820   22.2550 C   0  0  0  0  0  0  0  0  0  0  0  0
   11.6020    1.2330   22.8110 C   0  0  0  0  0  0  0  0  0  0  0  0
   11.7340   -0.1070   22.7190 C   0  0  0  0  0  0  0  0  0  0  0  0
   11.0400   -1.2910   22.6830 C   0  0  0  0  0  0  0  0  0  0  0  0
    9.8260   -0.4530   22.7950 C   0  0  0  0  0  0  0  0  0  0  0  0
    9.9440    1.3380   22.9050 S   0  0  0  0  0  0  0  0  0  0  0  0
    6.2930    0.4180   17.9280 N   0  0  0  0  0  0  0  0  0  0  0  0
    6.9230   -0.3420   18.8920 C   0  0  0  0  0  0  0  0  0  0  0  0
    6.3020   -0.3830   20.1490 C   0  0  0  0  0  0  0  0  0  0  0  0
    5.1090    0.2730   20.4690 C   0  0  0  0  0  0  0  0  0  0  0  0
    4.3930    1.1090   19.4250 C   0  0  0  0  0  0  0  0  0  0  0  0
    5.0300    1.1450   18.1880 C   0  0  0  0  0  0  0  0  0  0  0  0
   12.8470   -1.8580   21.2740 C   0  0  0  0  0  0  0  0  0  0  0  0
   13.2420   -2.8280   20.8170 N   0  0  0  0  0  0  0  0  0  0  0  0
   12.4840   -1.7560   22.5810 C   0  0  0  0  0  0  0  0  0  0  0  0
    8.9040   -0.6320   27.2220 C   0  0  0  0  0  0  0  0  0  0  0  0
    8.5620   -0.9460   25.8500 C   0  0  0  0  0  0  0  0  0  0  0  0
    9.7690   -0.9290   25.0370 N   0  0  0  0  0  0  0  0  0  0  0  0
   10.2490    0.0820   22.8830 C   0  0  0  0  0  0  0  0  0  0  0  0
    9.9070    0.3220   24.2660 C   0  0  0  0  0  0  0  0  0  0  0  0
  1  5  1  0
  3  5  2  0
  4  5  1  0
  2  6  1  0
  6  7  2  0
  7  8  1  0
  1  9  1  0
  8  9  2  0
  6 10  1  0
  9 10  1  0
 11 12  2  0
  4 13  1  0
 12 13  1  0
 13 14  2  0
 14 15  1  0
 11 16  1  0
 15 16  2  0
 17 18  3  0
  8 19  1  0
 17 19  1  0
 20 21  1  0
 21 22  1  0
  7 23  1  0
 22 24  1  0
 23 24  1  0
M  END
