x0305-x0770
     RDKit          3D

 21 22  0  0  0  0  0  0  0  0999 V2000
    7.2590   -2.9970   18.8050 C   0  0  0  0  0  0  0  0  0  0  0  0
    5.4240   -4.1840   19.7980 O   0  0  0  0  0  0  0  0  0  0  0  0
   13.4930   -1.3970   21.5410 N   0  0  0  0  0  0  0  0  0  0  0  0
    6.3140   -3.3320   19.9430 C   0  0  0  0  0  0  0  0  0  0  0  0
    9.3260   -2.4090   23.9480 C   0  0  0  0  0  0  0  0  0  0  0  0
    8.8190    0.1840   27.4790 C   0  0  0  0  0  0  0  0  0  0  0  0
    9.1560   -0.5770   26.3510 C   0  0  0  0  0  0  0  0  0  0  0  0
    9.5040    0.2210   25.1540 N   0  0  0  0  0  0  0  0  0  0  0  0
   13.2510   -2.5910   20.8710 N   0  0  0  0  0  0  0  0  0  0  0  0
    6.6140   -2.5550   21.1610 N   0  0  0  0  0  0  0  0  0  0  0  0
    7.2300   -1.3710   21.2060 C   0  0  0  0  0  0  0  0  0  0  0  0
    8.4420   -1.4500   21.8800 C   0  0  0  0  0  0  0  0  0  0  0  0
    8.1370   -2.2630   23.0850 N   0  0  0  0  0  0  0  0  0  0  0  0
    7.5320   -3.5400   22.6830 C   0  0  0  0  0  0  0  0  0  0  0  0
    6.2870   -2.9210   22.4310 C   0  0  0  0  0  0  0  0  0  0  0  0
   10.5020   -0.1610   24.2740 C   0  0  0  0  0  0  0  0  0  0  0  0
   11.5770    0.6890   23.9720 C   0  0  0  0  0  0  0  0  0  0  0  0
   12.6500    0.2590   23.0090 C   0  0  0  0  0  0  0  0  0  0  0  0
   12.5280   -0.9830   22.4410 C   0  0  0  0  0  0  0  0  0  0  0  0
   11.4840   -1.8550   22.7110 C   0  0  0  0  0  0  0  0  0  0  0  0
   10.4490   -1.4320   23.6540 C   0  0  0  0  0  0  0  0  0  0  0  0
  1  4  1  0
  2  4  2  0
  6  7  1  0
  7  8  1  0
  3  9  1  0
  4 10  1  0
 10 11  1  0
 11 12  1  0
  5 13  1  0
 12 13  1  0
 13 14  1  0
 10 15  1  0
 14 15  1  0
  8 16  1  0
 16 17  2  0
 17 18  1  0
  3 19  1  0
 18 19  2  0
 19 20  1  0
  5 21  1  0
 16 21  1  0
 20 21  2  0
M  END
