x0305-x1336
     RDKit          3D

 30 32  0  0  0  0  0  0  0  0999 V2000
    5.7280   -4.9840   29.4140 C   0  0  0  0  0  0  0  0  0  0  0  0
    8.6320   -0.6070   25.8010 C   0  0  0  0  0  0  0  0  0  0  0  0
    8.3080   -1.5170   26.6050 O   0  0  0  0  0  0  0  0  0  0  0  0
    5.5150   -4.1190   19.7520 O   0  0  0  0  0  0  0  0  0  0  0  0
    9.4960   -4.4320   25.0270 C   0  0  0  0  0  0  0  0  0  0  0  0
    6.5250   -3.4200   19.9170 C   0  0  0  0  0  0  0  0  0  0  0  0
    7.4600   -3.0350   18.7900 C   0  0  0  0  0  0  0  0  0  0  0  0
    8.0040   -2.2870   25.4420 S   0  0  2  0  0  0  0  0  0  0  0  0
    8.9140   -0.0300   27.1520 C   0  0  0  0  0  0  0  0  0  0  0  0
    8.9680    0.1830   24.6320 N   0  0  0  0  0  0  0  0  0  0  0  0
   13.3840   -1.8240   21.6620 C   0  0  0  0  0  0  0  0  0  0  0  0
   13.8250   -1.2720   20.4880 N   0  0  0  0  0  0  0  0  0  0  0  0
    6.7080   -4.8910   28.3340 C   0  0  0  0  0  0  0  0  0  0  0  0
    6.7310   -3.7040   27.5830 C   0  0  0  0  0  0  0  0  0  0  0  0
    7.7210   -3.5620   26.4480 C   0  0  0  0  0  0  0  0  0  0  0  0
    8.5820   -4.6380   26.1690 C   0  0  0  0  0  0  0  0  0  0  0  0
    8.5000   -5.8730   27.0370 C   0  0  0  0  0  0  0  0  0  0  0  0
    7.5880   -5.9600   28.0710 C   0  0  0  0  0  0  0  0  0  0  0  0
    6.9150   -2.9510   21.1640 N   0  0  0  0  0  0  0  0  0  0  0  0
    6.9190   -3.8500   22.1610 C   0  0  0  0  0  0  0  0  0  0  0  0
    6.7110   -3.2940   23.4660 C   0  0  0  0  0  0  0  0  0  0  0  0
    7.7330   -2.4160   23.7690 N   0  0  0  0  0  0  0  0  0  0  0  0
    7.8560   -1.3990   22.7000 C   0  0  0  0  0  0  0  0  0  0  0  0
    7.7590   -1.9000   21.3860 C   0  0  0  0  0  0  0  0  0  0  0  0
   10.1180   -0.2060   23.9050 C   0  0  0  0  0  0  0  0  0  0  0  0
   11.3530    0.6080   23.9050 N   0  0  0  0  0  0  0  0  0  0  0  0
   12.4600    0.0470   23.1320 C   0  0  0  0  0  0  0  0  0  0  0  0
   12.3110   -1.1640   22.4600 C   0  0  0  0  0  0  0  0  0  0  0  0
   11.1440   -1.9260   22.4510 C   0  0  0  0  0  0  0  0  0  0  0  0
   10.0090   -1.5350   23.1390 C   0  0  0  0  0  0  0  0  0  0  0  0
  4  6  2  0
  6  7  1  0
  2  8  2  0
  3  8  2  0
  2  9  1  0
  2 10  1  0
 11 12  3  0
  1 13  1  0
 13 14  2  0
  8 15  1  6
 14 15  1  0
  5 16  1  0
 15 16  2  0
 16 17  1  0
 13 18  1  0
 17 18  2  0
  6 19  1  0
 19 20  1  0
 20 21  1  0
  8 22  1  0
 21 22  1  0
 22 23  1  0
 19 24  1  0
 23 24  1  0
 10 25  1  0
 25 26  2  0
 26 27  1  0
 11 28  1  0
 27 28  2  0
 28 29  1  0
 25 30  1  0
 29 30  2  0
M  END
