x0305-x1412
     RDKit          3D

 26 28  0  0  0  0  0  0  0  0999 V2000
    7.3010   -3.0020   18.7870 C   0  0  0  0  0  0  0  0  0  0  0  0
    5.2290   -3.9530   19.5610 O   0  0  0  0  0  0  0  0  0  0  0  0
    6.2780   -3.3940   19.8430 C   0  0  0  0  0  0  0  0  0  0  0  0
    8.7150   -1.0400   24.7570 C   0  0  0  0  0  0  0  0  0  0  0  0
    8.2280   -2.3780   24.7840 C   0  0  0  0  0  0  0  0  0  0  0  0
    9.1760   -1.2510   26.2030 C   0  0  0  0  0  0  0  0  0  0  0  0
    9.3940    0.1950   25.1730 N   0  0  0  0  0  0  0  0  0  0  0  0
   13.5320   -1.1010   21.5600 C   0  0  0  0  0  0  0  0  0  0  0  0
   13.2600   -2.2190   20.8690 N   0  0  0  0  0  0  0  0  0  0  0  0
    6.5990   -3.1640   21.1520 N   0  0  0  0  0  0  0  0  0  0  0  0
    7.1420   -1.9460   21.5040 C   0  0  0  0  0  0  0  0  0  0  0  0
    8.1930   -2.3000   22.3470 C   0  0  0  0  0  0  0  0  0  0  0  0
    7.5970   -2.6800   23.5350 N   0  0  0  0  0  0  0  0  0  0  0  0
    7.1930   -3.9290   23.3890 C   0  0  0  0  0  0  0  0  0  0  0  0
    6.5040   -4.1270   22.0690 C   0  0  0  0  0  0  0  0  0  0  0  0
    9.2170   -4.7480   25.5200 C   0  0  0  0  0  0  0  0  0  0  0  0
    8.3660   -3.4880   25.8250 C   0  0  0  0  0  0  0  0  0  0  0  0
    7.7180   -3.7490   27.4580 S   0  0  0  0  0  0  0  0  0  0  0  0
    8.4220   -5.2550   27.7440 C   0  0  0  0  0  0  0  0  0  0  0  0
    9.1890   -5.7200   26.7000 C   0  0  0  0  0  0  0  0  0  0  0  0
   10.4930   -0.0200   24.2980 C   0  0  0  0  0  0  0  0  0  0  0  0
   11.7130    0.7640   24.2030 N   0  0  0  0  0  0  0  0  0  0  0  0
   12.5900    0.3820   23.3500 C   0  0  0  0  0  0  0  0  0  0  0  0
   12.4720   -0.7160   22.5130 C   0  0  0  0  0  0  0  0  0  0  0  0
   11.3290   -1.4790   22.5610 C   0  0  0  0  0  0  0  0  0  0  0  0
   10.3420   -1.1350   23.4480 C   0  0  0  0  0  0  0  0  0  0  0  0
  1  3  1  0
  2  3  2  0
  4  5  2  3
  4  6  1  0
  4  7  1  0
  8  9  3  0
  3 10  1  0
 10 11  1  0
 11 12  1  0
  5 13  1  0
 12 13  1  0
 13 14  1  0
 10 15  1  0
 14 15  1  0
  5 17  1  0
 16 17  2  0
 17 18  1  0
 18 19  1  0
 16 20  1  0
 19 20  2  0
  7 21  1  0
 21 22  2  0
 22 23  1  0
  8 24  1  0
 23 24  2  0
 24 25  1  0
 21 26  1  0
 25 26  2  0
M  END
