x0305-x3077
     RDKit          3D

 22 24  0  0  0  0  0  0  0  0999 V2000
    6.9400   -3.2430   19.2870 C   0  0  0  0  0  0  0  0  0  0  0  0
    5.3220   -4.8680   19.9740 O   0  0  0  0  0  0  0  0  0  0  0  0
   13.5910   -1.3900   21.7050 N   0  0  0  0  0  0  0  0  0  0  0  0
    6.1460   -4.0410   20.3130 C   0  0  0  0  0  0  0  0  0  0  0  0
    9.3250   -2.3170   24.2260 C   0  0  0  0  0  0  0  0  0  0  0  0
    8.4330    0.5830   27.3330 C   0  0  0  0  0  0  0  0  0  0  0  0
    9.1540   -0.1680   26.4000 C   0  0  0  0  0  0  0  0  0  0  0  0
    9.5500    0.5350   25.1590 N   0  0  0  0  0  0  0  0  0  0  0  0
   13.2250   -2.3330   20.7720 N   0  0  0  0  0  0  0  0  0  0  0  0
    6.4880   -3.7820   21.7040 N   0  0  0  0  0  0  0  0  0  0  0  0
    7.2690   -4.5820   22.4540 C   0  0  0  0  0  0  0  0  0  0  0  0
    7.4880   -3.8020   23.5280 C   0  0  2  0  0  0  0  0  0  0  0  0
    6.4720   -2.9430   23.4310 C   0  0  0  0  0  0  0  0  0  0  0  0
    6.6940   -2.4800   22.1610 C   0  0  1  0  0  0  0  0  0  0  0  0
    8.6350   -2.9060   23.0860 N   0  0  0  0  0  0  0  0  0  0  0  0
    8.1380   -1.9910   22.1780 C   0  0  0  0  0  0  0  0  0  0  0  0
   10.5780   -0.0170   24.2580 C   0  0  0  0  0  0  0  0  0  0  0  0
   11.7230    0.8800   23.8310 C   0  0  0  0  0  0  0  0  0  0  0  0
   12.6870    0.3940   23.0010 C   0  0  0  0  0  0  0  0  0  0  0  0
   12.5670   -0.9200   22.5760 C   0  0  0  0  0  0  0  0  0  0  0  0
   11.4820   -1.8020   22.9670 C   0  0  0  0  0  0  0  0  0  0  0  0
   10.4950   -1.3250   23.8150 C   0  0  0  0  0  0  0  0  0  0  0  0
  1  4  1  0
  2  4  2  0
  6  7  1  0
  7  8  1  0
  3  9  1  0
  4 10  1  0
 10 11  1  0
 12 11  1  6
 12 13  1  0
 10 14  1  0
 13 14  1  0
  5 15  1  0
 12 15  1  0
 14 16  1  1
 15 16  1  0
  8 17  1  0
 17 18  2  0
 18 19  1  0
  3 20  1  0
 19 20  2  0
 20 21  1  0
  5 22  1  0
 17 22  1  0
 21 22  2  0
M  END
