x0305-x1374
     RDKit          3D

 31 33  0  0  0  0  0  0  0  0999 V2000
   10.0350   -3.8170   24.9310 C   0  0  0  0  0  0  0  0  0  0  0  0
    6.0370   -5.2510   21.7200 N   0  0  0  0  0  0  0  0  0  0  0  0
    6.2610   -4.4130   20.5860 C   0  0  0  0  0  0  0  0  0  0  0  0
    5.3810   -4.1770   19.7660 O   0  0  0  0  0  0  0  0  0  0  0  0
    7.7270   -3.8430   20.5340 C   0  0  0  0  0  0  0  0  0  0  0  0
    2.1190   -6.6310   23.8540 O   0  0  0  0  0  0  0  0  0  0  0  0
    4.1490   -7.8500   25.0940 O   0  0  0  0  0  0  0  0  0  0  0  0
    7.8630   -0.1600   27.2630 C   0  0  0  0  0  0  0  0  0  0  0  0
    8.8530   -0.7980   26.5100 C   0  0  2  0  0  0  0  0  0  0  0  0
    9.4770    0.1810   25.5360 N   0  0  0  0  0  0  0  0  0  0  0  0
   13.0920   -1.4040   21.5700 C   0  0  0  0  0  0  0  0  0  0  0  0
   13.8400   -1.6990   20.5700 N   0  0  0  0  0  0  0  0  0  0  0  0
    9.6250   -2.3140   25.0300 C   0  0  0  0  0  0  0  0  0  0  0  0
    8.5790   -2.0710   25.8900 C   0  0  0  0  0  0  0  0  0  0  0  0
    9.0280   -4.3000   24.1230 C   0  0  0  0  0  0  0  0  0  0  0  0
    8.3140   -3.1590   23.4670 C   0  0  0  0  0  0  0  0  0  0  0  0
    7.3240   -3.5600   22.6790 C   0  0  0  0  0  0  0  0  0  0  0  0
    7.0620   -5.0340   22.5470 C   0  0  0  0  0  0  0  0  0  0  0  0
    7.7650   -6.0270   23.1820 C   0  0  0  0  0  0  0  0  0  0  0  0
    8.7760   -5.6530   23.9970 C   0  0  0  0  0  0  0  0  0  0  0  0
    4.9120   -4.5360   23.7380 C   0  0  0  0  0  0  0  0  0  0  0  0
    4.9260   -5.2670   22.5400 C   0  0  2  0  0  0  0  0  0  0  0  0
    4.5940   -6.6010   22.7090 C   0  0  0  0  0  0  0  0  0  0  0  0
    3.6740   -6.6300   24.2010 S   0  0  0  0  0  0  0  0  0  0  0  0
    4.2600   -5.0940   24.8460 C   0  0  0  0  0  0  0  0  0  0  0  0
   10.3880   -0.1580   24.5840 C   0  0  0  0  0  0  0  0  0  0  0  0
   11.6380    0.5910   24.3800 N   0  0  0  0  0  0  0  0  0  0  0  0
   12.4590    0.1500   23.4120 C   0  0  0  0  0  0  0  0  0  0  0  0
   12.1790   -0.9610   22.6120 C   0  0  0  0  0  0  0  0  0  0  0  0
   10.9990   -1.6650   22.7940 C   0  0  0  0  0  0  0  0  0  0  0  0
   10.1050   -1.2620   23.7770 C   0  0  0  0  0  0  0  0  0  0  0  0
  2  3  1  0
  3  4  2  0
  3  5  1  0
  9  8  1  6
  9 10  1  0
 11 12  3  0
  1 13  1  0
  9 14  1  0
 13 14  1  0
  1 15  1  0
 15 16  2  0
 16 17  1  0
  2 18  1  0
 17 18  2  0
 18 19  1  0
 15 20  1  0
 19 20  2  0
 22  2  1  1
 21 22  1  0
 22 23  1  0
 24  6  1  0
  7 24  1  0
 23 24  1  0
 21 25  2  0
 24 25  1  0
 10 26  1  0
 26 27  2  0
 27 28  1  0
 11 29  1  0
 28 29  2  0
 29 30  1  0
 26 31  1  0
 30 31  2  0
M  END
