x0354-x3108
     RDKit          3D

 36 40  0  0  0  0  0  0  0  0999 V2000
    5.8940    1.7470   21.8350 C   0  0  0  0  0  0  0  0  0  0  0  0
    9.3470    1.4830   21.5530 O   0  0  0  0  0  0  0  0  0  0  0  0
    7.8650   -0.3360   21.2900 N   0  0  0  0  0  0  0  0  0  0  0  0
    7.7360    0.1380   25.6850 N   0  0  0  0  0  0  0  0  0  0  0  0
    9.4250   -0.6720   24.1200 N   0  0  0  0  0  0  0  0  0  0  0  0
    9.0270    0.3220   21.8560 C   0  0  0  0  0  0  0  0  0  0  0  0
    9.7700   -0.6630   22.8030 C   0  0  1  0  0  0  0  0  0  0  0  0
    8.1810   -0.9920   24.7800 C   0  0  0  0  0  0  0  0  0  0  0  0
    7.3840   -2.2630   24.7420 C   0  0  0  0  0  0  0  0  0  0  0  0
    6.5990   -0.1400   26.4630 O   0  0  0  0  0  0  0  0  0  0  0  0
    6.0640    3.3880   31.1940 C   0  0  0  0  0  0  0  0  0  0  0  0
   13.4380   -1.2780   22.6590 C   0  0  0  0  0  0  0  0  0  0  0  0
    6.3600    0.1840   18.0180 N   0  0  0  0  0  0  0  0  0  0  0  0
    7.1820   -0.3360   19.0010 C   0  0  0  0  0  0  0  0  0  0  0  0
    7.0460    0.1670   20.2660 C   0  0  0  0  0  0  0  0  0  0  0  0
    6.1110    1.1420   20.4810 C   0  0  0  0  0  0  0  0  0  0  0  0
    5.3230    1.6060   19.4390 C   0  0  0  0  0  0  0  0  0  0  0  0
    5.3800    1.1670   18.1120 C   0  0  0  0  0  0  0  0  0  0  0  0
    9.8780   -5.1340   24.8640 N   0  0  0  0  0  0  0  0  0  0  0  0
    9.1390   -3.9220   24.4160 C   0  0  0  0  0  0  0  0  0  0  0  0
    8.0790   -3.4450   25.1990 C   0  0  0  0  0  0  0  0  0  0  0  0
    7.6640   -4.0560   26.3930 C   0  0  0  0  0  0  0  0  0  0  0  0
    8.3280   -5.1890   26.8400 C   0  0  0  0  0  0  0  0  0  0  0  0
    9.4730   -5.7070   26.0020 C   0  0  0  0  0  0  0  0  0  0  0  0
    7.3790    1.8750   27.7770 C   0  0  0  0  0  0  0  0  0  0  0  0
    7.2560    2.8040   29.0000 C   0  0  0  0  0  0  0  0  0  0  0  0
    6.2360    2.5840   30.0740 C   0  0  0  0  0  0  0  0  0  0  0  0
    5.3690    1.3790   29.8460 C   0  0  0  0  0  0  0  0  0  0  0  0
    5.4800    0.5330   28.7350 C   0  0  0  0  0  0  0  0  0  0  0  0
    6.4790    0.6810   27.5830 C   0  0  0  0  0  0  0  0  0  0  0  0
   12.0240   -1.4960   22.6290 N   0  0  0  0  0  0  0  0  0  0  0  0
   11.6070   -2.5410   23.3620 C   0  0  0  0  0  0  0  0  0  0  0  0
   11.2630   -2.2570   24.6910 C   0  0  0  0  0  0  0  0  0  0  0  0
   10.5860   -0.9190   24.9540 N   0  0  0  0  0  0  0  0  0  0  0  0
   11.4560    0.0910   24.3760 C   0  0  0  0  0  0  0  0  0  0  0  0
   11.2710   -0.2810   22.9240 C   0  0  2  0  0  0  0  0  0  0  0  0
  2  6  2  0
  3  6  1  0
  5  7  1  0
  7  6  1  6
  4  8  2  3
  5  8  1  0
  8  9  1  0
  4 10  1  0
 13 14  2  0
  3 15  1  0
 14 15  1  0
  1 16  1  0
 15 16  2  0
 16 17  1  0
 13 18  1  0
 17 18  2  0
 19 20  2  0
  9 21  1  0
 20 21  1  0
 21 22  2  0
 22 23  1  0
 19 24  1  0
 23 24  2  0
 25 26  2  0
 11 27  1  0
 26 27  1  0
 27 28  2  0
 28 29  1  0
 10 30  1  0
 25 30  1  0
 29 30  2  0
 12 31  1  0
 31 32  1  0
 32 33  1  0
  5 34  1  0
 33 34  1  0
 34 35  1  0
  7 36  1  0
 36 31  1  1
 35 36  1  0
M  END
