x0354-x0769
     RDKit          3D

 38 41  0  0  0  0  0  0  0  0999 V2000
    5.6510   -5.3440   26.7480 O   0  0  0  0  0  0  0  0  0  0  0  0
    3.6430   -6.7350   25.7690 O   0  0  0  0  0  0  0  0  0  0  0  0
    5.2690   -4.8310   19.9610 O   0  0  0  0  0  0  0  0  0  0  0  0
    6.2650   -4.4910   20.5770 C   0  0  0  0  0  0  0  0  0  0  0  0
    7.1500   -3.4370   19.9140 C   0  0  0  0  0  0  0  0  0  0  0  0
    5.5990   -2.8530   26.2230 O   0  0  0  0  0  0  0  0  0  0  0  0
    4.6220   -5.4750   25.7440 S   0  0  0  0  0  0  0  0  0  0  0  0
   13.2650   -1.1790   22.3830 C   0  0  0  0  0  0  0  0  0  0  0  0
    7.6100   -2.0310   25.1110 N   0  0  0  0  0  0  0  0  0  0  0  0
    7.6210   -0.4180   27.3390 O   0  0  0  0  0  0  0  0  0  0  0  0
    8.6880   -1.1390   25.4910 C   0  0  0  0  0  0  0  0  0  0  0  0
    8.4860   -0.0500   26.5150 C   0  0  0  0  0  0  0  0  0  0  0  0
    5.4630    3.5500   30.9970 C   0  0  0  0  0  0  0  0  0  0  0  0
    6.3560   -1.7370   25.7930 C   0  0  0  0  0  0  0  0  0  0  0  0
    4.1790   -2.7710   26.0670 C   0  0  0  0  0  0  0  0  0  0  0  0
    3.6270   -3.9990   25.8290 C   0  0  0  0  0  0  0  0  0  0  0  0
    2.2480   -4.0810   25.6540 C   0  0  0  0  0  0  0  0  0  0  0  0
    1.4460   -2.9370   25.7220 C   0  0  0  0  0  0  0  0  0  0  0  0
    2.0270   -1.6900   25.9670 C   0  0  0  0  0  0  0  0  0  0  0  0
    3.4260   -1.5870   26.1440 C   0  0  0  0  0  0  0  0  0  0  0  0
    6.5040   -5.0930   21.8470 N   0  0  0  0  0  0  0  0  0  0  0  0
    5.8300   -6.1940   22.2350 C   0  0  0  0  0  0  0  0  0  0  0  0
    4.8710   -5.8800   23.2080 C   0  0  0  0  0  0  0  0  0  0  0  0
    5.4620   -5.4320   24.3000 N   0  0  0  0  0  0  0  0  0  0  0  0
    6.3320   -4.2700   24.1050 C   0  0  0  0  0  0  0  0  0  0  0  0
    7.1890   -4.5100   22.8500 C   0  0  0  0  0  0  0  0  0  0  0  0
   11.9770   -1.0630   23.0410 N   0  0  0  0  0  0  0  0  0  0  0  0
   11.3190   -2.3830   23.1360 C   0  0  0  0  0  0  0  0  0  0  0  0
   10.5120   -2.5720   24.4410 C   0  0  0  0  0  0  0  0  0  0  0  0
    9.9460   -1.2840   24.9060 N   0  0  0  0  0  0  0  0  0  0  0  0
   10.8850   -0.3770   25.0910 C   0  0  0  0  0  0  0  0  0  0  0  0
   12.1030   -0.5230   24.2590 C   0  0  0  0  0  0  0  0  0  0  0  0
    7.7360    1.8470   28.2250 C   0  0  0  0  0  0  0  0  0  0  0  0
    7.2130    2.9190   29.1640 C   0  0  0  0  0  0  0  0  0  0  0  0
    6.0360    2.4890   30.0230 C   0  0  0  0  0  0  0  0  0  0  0  0
    5.4550    1.2210   29.9820 C   0  0  0  0  0  0  0  0  0  0  0  0
    5.9730    0.2550   29.0980 C   0  0  0  0  0  0  0  0  0  0  0  0
    7.1710    0.5710   28.1720 C   0  0  0  0  0  0  0  0  0  0  0  0
  3  4  2  0
  4  5  1  0
  1  7  2  0
  2  7  2  0
  9 11  2  3
 10 12  1  0
 11 12  1  0
  6 14  1  0
  9 14  1  0
  6 15  1  0
  7 16  1  0
 15 16  1  0
 16 17  2  0
 17 18  1  0
 18 19  2  0
 15 20  2  0
 19 20  1  0
  4 21  1  0
 21 22  1  0
 22 23  1  0
  7 24  1  0
 23 24  1  0
 24 25  1  0
 21 26  1  0
 25 26  1  0
  8 27  1  0
 27 28  1  0
 28 29  1  0
 11 30  1  0
 29 30  1  0
 30 31  1  0
 27 32  1  0
 31 32  1  0
 33 34  2  0
 13 35  1  0
 34 35  1  0
 35 36  2  0
 36 37  1  0
 10 38  1  0
 33 38  1  0
 37 38  2  0
M  END
