x0354-x1402
     RDKit          3D

 38 41  0  0  0  0  0  0  0  0999 V2000
    7.1630   -3.4700   19.9530 C   0  0  0  0  0  0  0  0  0  0  0  0
    5.2820   -4.8920   19.9750 O   0  0  0  0  0  0  0  0  0  0  0  0
    0.7450   -1.1560   26.2680 Cl  0  0  0  0  0  0  0  0  0  0  0  0
    6.3090   -4.5880   20.5520 C   0  0  0  0  0  0  0  0  0  0  0  0
    4.0350   -6.7480   25.9420 O   0  0  0  0  0  0  0  0  0  0  0  0
    5.9760   -5.2030   26.9710 N   0  0  0  0  0  0  0  0  0  0  0  0
    4.8730   -5.4070   25.7350 S   0  0  1  0  0  0  0  0  0  0  0  0
   13.2040   -1.1590   22.3890 C   0  0  0  0  0  0  0  0  0  0  0  0
    8.0020   -2.7270   25.6280 N   0  0  0  0  0  0  0  0  0  0  0  0
    7.5160   -0.6870   27.4380 O   0  0  0  0  0  0  0  0  0  0  0  0
    8.8280   -1.4870   25.7040 C   0  0  0  0  0  0  0  0  0  0  0  0
    8.5640   -0.5010   26.8180 C   0  0  0  0  0  0  0  0  0  0  0  0
    5.6780    3.7380   30.8360 C   0  0  0  0  0  0  0  0  0  0  0  0
    7.1590   -4.4030   26.6940 C   0  0  0  0  0  0  0  0  0  0  0  0
    7.0370   -3.0170   26.5560 C   0  0  0  0  0  0  0  0  0  0  0  0
    6.6640   -5.2940   21.6970 N   0  0  0  0  0  0  0  0  0  0  0  0
    7.4130   -4.8000   22.7470 C   0  0  0  0  0  0  0  0  0  0  0  0
    6.4880   -4.3820   23.7190 C   0  0  0  0  0  0  0  0  0  0  0  0
    5.6540   -5.5000   24.2300 N   0  0  0  0  0  0  0  0  0  0  0  0
    4.8920   -6.1770   23.1580 C   0  0  0  0  0  0  0  0  0  0  0  0
    5.7560   -6.3740   22.0940 C   0  0  0  0  0  0  0  0  0  0  0  0
    2.0750   -3.8550   25.9760 S   0  0  0  0  0  0  0  0  0  0  0  0
    3.7780   -3.9070   25.8870 C   0  0  0  0  0  0  0  0  0  0  0  0
    4.3460   -2.6640   25.9430 C   0  0  0  0  0  0  0  0  0  0  0  0
    3.4530   -1.6360   26.0660 C   0  0  0  0  0  0  0  0  0  0  0  0
    2.1460   -2.1310   26.1040 C   0  0  0  0  0  0  0  0  0  0  0  0
   12.2710   -1.3010   23.4140 N   0  0  0  0  0  0  0  0  0  0  0  0
   11.2130   -1.9800   22.9560 C   0  0  0  0  0  0  0  0  0  0  0  0
   10.2810   -2.4250   23.8540 C   0  0  0  0  0  0  0  0  0  0  0  0
    9.8120   -1.3270   24.7330 N   0  0  0  0  0  0  0  0  0  0  0  0
   10.8420   -0.3020   24.9670 C   0  0  0  0  0  0  0  0  0  0  0  0
   11.8280   -0.1290   23.8500 C   0  0  0  0  0  0  0  0  0  0  0  0
    7.7870    1.6170   28.2620 C   0  0  0  0  0  0  0  0  0  0  0  0
    7.3430    2.6630   29.0740 C   0  0  0  0  0  0  0  0  0  0  0  0
    6.1250    2.5770   29.9700 C   0  0  0  0  0  0  0  0  0  0  0  0
    5.4090    1.2320   29.9120 C   0  0  0  0  0  0  0  0  0  0  0  0
    5.8680    0.1910   29.0930 C   0  0  0  0  0  0  0  0  0  0  0  0
    7.0080    0.2860   28.2630 C   0  0  0  0  0  0  0  0  0  0  0  0
  1  4  1  0
  2  4  2  0
  5  7  2  0
  6  7  2  0
  9 11  2  3
 10 12  1  0
 11 12  1  0
  6 14  1  0
  9 15  1  0
 14 15  1  0
  4 16  1  0
 16 17  1  0
 17 18  1  0
  7 19  1  0
 18 19  1  0
 19 20  1  0
 16 21  1  0
 20 21  1  0
  7 23  1  6
 22 23  1  0
 23 24  2  0
 24 25  1  0
  3 26  1  0
 22 26  1  0
 25 26  2  0
  8 27  1  0
 27 28  1  0
 28 29  1  0
 11 30  1  0
 29 30  1  0
 30 31  1  0
 27 32  1  0
 31 32  1  0
 33 34  2  0
 13 35  1  0
 34 35  1  0
 35 36  2  0
 36 37  1  0
 10 38  1  0
 33 38  1  0
 37 38  2  0
M  END
