x0350-x1132
     RDKit          3D

 24 26  0  0  0  0  0  0  0  0999 V2000
    9.9250  -24.5470   -0.3060 C   0  0  0  0  0  0  0  0  0  0  0  0
    8.8070  -23.6020   -0.1950 N   0  0  0  0  0  0  0  0  0  0  0  0
    7.9650  -23.3320   -1.2810 C   0  0  0  0  0  0  0  0  0  0  0  0
   10.9090  -26.9070    4.0010 F   0  0  0  0  0  0  0  0  0  0  0  0
   11.2160  -26.0080    3.0460 C   0  0  0  0  0  0  0  0  0  0  0  0
   10.3990  -25.7790    1.8990 C   0  0  0  0  0  0  0  0  0  0  0  0
   10.7560  -24.8300    0.9340 C   0  0  0  0  0  0  0  0  0  0  0  0
   11.9540  -24.1280    1.1420 C   0  0  0  0  0  0  0  0  0  0  0  0
   12.7630  -24.3510    2.2640 C   0  0  0  0  0  0  0  0  0  0  0  0
   12.4140  -25.2720    3.2200 C   0  0  0  0  0  0  0  0  0  0  0  0
    7.5830  -20.8140   -1.7940 C   0  0  0  0  0  0  0  0  0  0  0  0
    7.1330  -22.0670   -1.2100 C   0  0  0  0  0  0  0  0  0  0  0  0
    5.9280  -22.1850   -0.5650 O   0  0  0  0  0  0  0  0  0  0  0  0
    5.4740  -20.9860   -0.6660 C   0  0  0  0  0  0  0  0  0  0  0  0
    6.3420  -20.2050   -1.3280 C   0  0  0  0  0  0  0  0  0  0  0  0
    6.9020  -19.0760   -3.3460 C   0  0  0  0  0  0  0  0  0  0  0  0
    5.8650  -18.4360   -3.1960 O   0  0  0  0  0  0  0  0  0  0  0  0
    7.3490  -19.4910   -4.5660 C   0  0  0  0  0  0  0  0  0  0  0  0
    9.5600  -18.3420   -3.9380 C   0  0  0  0  0  0  0  0  0  0  0  0
    8.5680  -18.9640   -4.8730 N   0  0  0  0  0  0  0  0  0  0  0  0
    8.9540  -19.0040   -6.2060 N   0  0  0  0  0  0  0  0  0  0  0  0
   10.1600  -18.4460   -6.1480 C   0  0  0  0  0  0  0  0  0  0  0  0
   10.6090  -18.0110   -4.8370 C   0  0  0  0  0  0  0  0  0  0  0  0
    7.6530  -19.3850   -2.2340 C   0  0  0  0  0  0  0  0  0  0  0  0
  1  2  1  0
  2  3  1  0
  4  5  1  0
  5  6  2  0
  1  7  1  0
  6  7  1  0
  7  8  2  0
  8  9  1  0
  5 10  1  0
  9 10  2  0
  3 12  1  0
 11 12  2  0
 12 13  1  0
 13 14  1  0
 11 15  1  0
 14 15  2  0
 16 17  2  0
 16 18  1  0
 18 20  1  0
 19 20  1  0
 20 21  1  0
 21 22  2  0
 19 23  2  0
 22 23  1  0
 11 24  1  0
 16 24  1  0
M  END
