x0354-x0689
     RDKit          3D

 37 40  0  0  0  0  0  0  0  0999 V2000
    7.6090   -3.7010   20.4550 C   0  0  0  0  0  0  0  0  0  0  0  0
    5.3880   -4.4980   19.9090 O   0  0  0  0  0  0  0  0  0  0  0  0
    6.3760   -4.5820   20.6490 C   0  0  0  0  0  0  0  0  0  0  0  0
    3.7990   -6.6040   26.1750 O   0  0  0  0  0  0  0  0  0  0  0  0
    5.5120   -4.5280   26.6100 N   0  0  0  0  0  0  0  0  0  0  0  0
    4.3980   -5.2340   25.6220 S   0  0  1  0  0  0  0  0  0  0  0  0
   13.1860   -1.2040   22.3860 C   0  0  0  0  0  0  0  0  0  0  0  0
    7.7260   -2.2950   25.2990 N   0  0  0  0  0  0  0  0  0  0  0  0
    7.5450   -0.5140   27.3390 O   0  0  0  0  0  0  0  0  0  0  0  0
    8.7240   -1.2190   25.4820 C   0  0  0  0  0  0  0  0  0  0  0  0
    8.4220   -0.1790   26.5350 C   0  0  0  0  0  0  0  0  0  0  0  0
    5.6550    3.7130   30.9180 C   0  0  0  0  0  0  0  0  0  0  0  0
    6.2370   -3.6220   25.7420 C   0  0  0  0  0  0  0  0  0  0  0  0
    6.5960   -2.3400   26.0700 C   0  0  0  0  0  0  0  0  0  0  0  0
    6.4340   -5.4670   21.7090 N   0  0  0  0  0  0  0  0  0  0  0  0
    5.4990   -6.4010   22.0230 C   0  0  0  0  0  0  0  0  0  0  0  0
    4.5960   -5.7720   22.8910 C   0  0  0  0  0  0  0  0  0  0  0  0
    5.2640   -5.4430   24.1700 N   0  0  0  0  0  0  0  0  0  0  0  0
    6.5220   -4.6550   24.0040 C   0  0  0  0  0  0  0  0  0  0  0  0
    7.2030   -5.0840   22.8870 C   0  0  0  0  0  0  0  0  0  0  0  0
    3.5990   -2.1520   26.0000 S   0  0  0  0  0  0  0  0  0  0  0  0
    3.2310   -3.7850   25.6370 C   0  0  0  0  0  0  0  0  0  0  0  0
    1.9200   -3.9810   25.3430 C   0  0  0  0  0  0  0  0  0  0  0  0
    1.1610   -2.8420   25.4040 C   0  0  0  0  0  0  0  0  0  0  0  0
    1.9400   -1.7320   25.7580 C   0  0  0  0  0  0  0  0  0  0  0  0
   11.9890   -1.1200   23.1160 N   0  0  0  0  0  0  0  0  0  0  0  0
   11.4850   -2.3590   23.3300 C   0  0  0  0  0  0  0  0  0  0  0  0
   10.5020   -2.5610   24.2920 C   0  0  0  0  0  0  0  0  0  0  0  0
    9.8740   -1.2770   24.7010 N   0  0  0  0  0  0  0  0  0  0  0  0
   10.9060   -0.3040   25.0210 C   0  0  0  0  0  0  0  0  0  0  0  0
   12.1880   -0.5110   24.2850 C   0  0  0  0  0  0  0  0  0  0  0  0
    7.7380    1.7650   28.2160 C   0  0  0  0  0  0  0  0  0  0  0  0
    7.3020    2.7900   29.0670 C   0  0  0  0  0  0  0  0  0  0  0  0
    6.1240    2.5990   30.0000 C   0  0  0  0  0  0  0  0  0  0  0  0
    5.4610    1.2270   29.9450 C   0  0  0  0  0  0  0  0  0  0  0  0
    5.9270    0.2260   29.0830 C   0  0  0  0  0  0  0  0  0  0  0  0
    7.0200    0.4020   28.2150 C   0  0  0  0  0  0  0  0  0  0  0  0
  1  3  1  0
  2  3  2  0
  4  6  2  0
  5  6  2  0
  8 10  2  3
  9 11  1  0
 10 11  1  0
  5 13  1  0
  8 14  1  0
 13 14  1  0
  3 15  1  0
 15 16  1  0
 16 17  1  0
  6 18  1  0
 17 18  1  0
 18 19  1  0
 15 20  1  0
 19 20  1  0
  6 22  1  6
 21 22  1  0
 22 23  2  0
 23 24  1  0
 21 25  1  0
 24 25  2  0
  7 26  1  0
 26 27  1  0
 27 28  1  0
 10 29  1  0
 28 29  1  0
 29 30  1  0
 26 31  1  0
 30 31  1  0
 32 33  2  0
 12 34  1  0
 33 34  1  0
 34 35  2  0
 35 36  1  0
  9 37  1  0
 32 37  1  0
 36 37  2  0
M  END
