x0354-x0387
     RDKit          3D

 23 26  0  0  0  0  0  0  0  0999 V2000
   13.0640   -1.5180   22.4630 C   0  0  0  0  0  0  0  0  0  0  0  0
    7.1270   -0.7390   27.5370 O   0  0  0  0  0  0  0  0  0  0  0  0
    8.7200   -1.6170   25.7850 C   0  0  0  0  0  0  0  0  0  0  0  0
    8.4120   -1.0230   27.2040 C   0  0  0  0  0  0  0  0  0  0  0  0
    5.8030    3.7250   30.9050 C   0  0  0  0  0  0  0  0  0  0  0  0
    8.6260   -5.4770   26.5000 O   0  0  0  0  0  0  0  0  0  0  0  0
   11.7940   -1.3720   23.0270 N   0  0  0  0  0  0  0  0  0  0  0  0
   11.1260   -2.6940   23.3630 C   0  0  0  0  0  0  0  0  0  0  0  0
    9.9110   -2.7340   24.3330 C   0  0  1  0  0  0  0  0  0  0  0  0
    9.6230   -1.3700   24.8910 N   0  0  0  0  0  0  0  0  0  0  0  0
   10.6890   -0.3190   25.0260 C   0  0  0  0  0  0  0  0  0  0  0  0
   11.4530   -0.2310   23.8620 C   0  0  0  0  0  0  0  0  0  0  0  0
    7.7330    1.4600   28.2740 C   0  0  0  0  0  0  0  0  0  0  0  0
    7.4670    2.7090   29.1380 C   0  0  0  0  0  0  0  0  0  0  0  0
    6.2030    2.5870   30.0050 C   0  0  0  0  0  0  0  0  0  0  0  0
    5.4180    1.4350   29.9680 C   0  0  0  0  0  0  0  0  0  0  0  0
    5.7490    0.3620   29.1520 C   0  0  0  0  0  0  0  0  0  0  0  0
    6.8650    0.3560   28.3240 C   0  0  0  0  0  0  0  0  0  0  0  0
    8.5570   -4.3370   26.0550 C   0  0  2  0  0  0  0  0  0  0  0  0
    7.3970   -3.7180   25.5680 C   0  0  0  0  0  0  0  0  0  0  0  0
    8.1520   -2.8420   25.0860 C   0  0  0  0  0  0  0  0  0  0  0  0
    8.7480   -2.9580   23.7300 N   0  0  0  0  0  0  0  0  0  0  0  0
    9.6170   -4.1520   25.1030 C   0  0  0  0  0  0  0  0  0  0  0  0
  2  4  1  0
  3  4  1  0
  1  7  1  0
  7  8  1  0
  9  8  1  6
  3 10  1  0
  9 10  1  0
 10 11  1  0
  7 12  1  0
 11 12  1  0
 13 14  2  0
  5 15  1  0
 14 15  1  0
 15 16  2  0
 16 17  1  0
  2 18  1  0
 13 18  1  0
 17 18  2  0
 19  6  1  6
 19 20  1  0
  3 21  2  0
 20 21  1  0
  9 22  1  0
 21 22  1  0
  9 23  1  0
 19 23  1  0
M  END
