x0354-x1418
     RDKit          3D

 28 30  0  0  0  0  0  0  0  0999 V2000
   13.0790   -1.4550   22.3350 C   0  0  0  0  0  0  0  0  0  0  0  0
    7.8540   -2.3090   25.1950 O   0  0  0  0  0  0  0  0  0  0  0  0
    7.4620   -0.5380   27.4120 O   0  0  0  0  0  0  0  0  0  0  0  0
    8.5790   -1.3790   25.5160 C   0  0  0  0  0  0  0  0  0  0  0  0
    8.2400   -0.2340   26.5060 C   0  0  0  0  0  0  0  0  0  0  0  0
    5.7430    3.7090   30.8600 C   0  0  0  0  0  0  0  0  0  0  0  0
    7.3110   -2.9700   18.7390 C   0  0  0  0  0  0  0  0  0  0  0  0
    5.4450   -4.0920   19.7320 O   0  0  0  0  0  0  0  0  0  0  0  0
    6.3420   -3.2460   19.8760 C   0  0  0  0  0  0  0  0  0  0  0  0
   10.3100   -2.3310   22.4480 C   0  0  0  0  0  0  0  0  0  0  0  0
   12.2190   -1.3460   23.4340 N   0  0  0  0  0  0  0  0  0  0  0  0
   11.1910   -2.4760   23.5120 C   0  0  1  0  0  0  0  0  0  0  0  0
   10.5550   -2.6030   24.7210 C   0  0  0  0  0  0  0  0  0  0  0  0
    9.9140   -1.3950   24.8960 N   0  0  0  0  0  0  0  0  0  0  0  0
   10.8020   -0.3700   25.0870 C   0  0  0  0  0  0  0  0  0  0  0  0
   11.6150   -0.1480   23.9760 C   0  0  0  0  0  0  0  0  0  0  0  0
    7.6800    1.6390   28.3040 C   0  0  0  0  0  0  0  0  0  0  0  0
    7.2970    2.7020   29.1320 C   0  0  0  0  0  0  0  0  0  0  0  0
    6.1830    2.5920   29.9650 C   0  0  0  0  0  0  0  0  0  0  0  0
    5.4530    1.3920   29.9580 C   0  0  0  0  0  0  0  0  0  0  0  0
    5.7630    0.2780   29.1660 C   0  0  0  0  0  0  0  0  0  0  0  0
    6.9990    0.4330   28.2570 C   0  0  0  0  0  0  0  0  0  0  0  0
    6.5320   -2.5470   21.0630 N   0  0  0  0  0  0  0  0  0  0  0  0
    6.6990   -3.3150   22.2280 C   0  0  0  0  0  0  0  0  0  0  0  0
    8.1820   -3.3060   22.6650 C   0  0  0  0  0  0  0  0  0  0  0  0
    8.8680   -2.1400   22.6420 N   0  0  0  0  0  0  0  0  0  0  0  0
    8.4870   -1.1960   21.7390 C   0  0  0  0  0  0  0  0  0  0  0  0
    7.1330   -1.3590   21.1040 C   0  0  0  0  0  0  0  0  0  0  0  0
  2  4  2  0
  3  5  1  0
  4  5  1  0
  7  9  1  0
  8  9  2  0
  1 11  1  0
 12 10  1  6
 11 12  1  0
 12 13  1  0
  4 14  1  0
 13 14  1  0
 14 15  1  0
 11 16  1  0
 15 16  1  0
 17 18  2  0
  6 19  1  0
 18 19  1  0
 19 20  2  0
 20 21  1  0
  3 22  1  0
 17 22  1  0
 21 22  2  0
  9 23  1  0
 23 24  1  0
 24 25  1  0
 10 26  1  0
 25 26  1  0
 26 27  1  0
 23 28  1  0
 27 28  1  0
M  END
