x0354-x3110
     RDKit          3D

 43 45  0  0  0  0  0  0  0  0999 V2000
    7.9340    0.9830   23.1520 N   0  0  0  0  0  0  0  0  0  0  0  0
   13.4940    5.1140   22.5220 C   0  0  0  0  0  0  0  0  0  0  0  0
   11.9790    3.2140   22.6960 O   0  0  0  0  0  0  0  0  0  0  0  0
   12.1710    4.4760   22.0420 C   0  0  0  0  0  0  0  0  0  0  0  0
    7.0190   -1.7530   21.4880 N   0  0  0  0  0  0  0  0  0  0  0  0
   10.8350    4.0890   24.4850 O   0  0  0  0  0  0  0  0  0  0  0  0
   11.0130    3.2120   23.6490 C   0  0  0  0  0  0  0  0  0  0  0  0
    8.5030    1.2520   20.9640 O   0  0  0  0  0  0  0  0  0  0  0  0
   10.2260    2.0530   23.5630 C   0  0  0  0  0  0  0  0  0  0  0  0
    4.8090   -2.9770   21.1640 O   0  0  0  0  0  0  0  0  0  0  0  0
    8.6940    2.2240   23.5410 C   0  0  0  0  0  0  0  0  0  0  0  0
    7.7570    0.6820   21.7860 C   0  0  0  0  0  0  0  0  0  0  0  0
    6.6800   -0.2210   21.4360 C   0  0  1  0  0  0  0  0  0  0  0  0
    6.1060   -2.9030   21.2240 C   0  0  0  0  0  0  0  0  0  0  0  0
    6.7260   -4.2540   20.9830 C   0  0  0  0  0  0  0  0  0  0  0  0
    8.1980   -4.0300   20.6670 C   0  0  0  0  0  0  0  0  0  0  0  0
   11.9850   -1.7880   24.6000 C   0  0  0  0  0  0  0  0  0  0  0  0
   12.6180   -0.5730   24.8050 C   0  0  0  0  0  0  0  0  0  0  0  0
   13.0230   -1.3320   23.5790 C   0  0  0  0  0  0  0  0  0  0  0  0
   12.4960   -2.9640   24.9560 C   0  0  0  0  0  0  0  0  0  0  0  0
    7.6680   -1.9390   25.9040 O   0  0  0  0  0  0  0  0  0  0  0  0
    7.8050   -0.2850   27.5380 O   0  0  0  0  0  0  0  0  0  0  0  0
    8.6020   -1.1720   25.6790 C   0  0  0  0  0  0  0  0  0  0  0  0
    8.8400   -0.1140   26.5600 C   0  0  0  0  0  0  0  0  0  0  0  0
    5.4320    3.6920   30.8070 C   0  0  0  0  0  0  0  0  0  0  0  0
    6.3250    0.5310   17.7350 N   0  0  0  0  0  0  0  0  0  0  0  0
    5.2070    1.2820   17.7490 C   0  0  0  0  0  0  0  0  0  0  0  0
    4.4130    1.6030   19.0290 C   0  0  0  0  0  0  0  0  0  0  0  0
    4.9360    1.0750   20.1860 C   0  0  0  0  0  0  0  0  0  0  0  0
    6.1020    0.3120   20.1480 C   0  0  0  0  0  0  0  0  0  0  0  0
    6.7120    0.0870   18.9370 C   0  0  0  0  0  0  0  0  0  0  0  0
    9.4910   -2.0740   21.7630 C   0  0  0  0  0  0  0  0  0  0  0  0
   10.6810   -2.0710   22.5190 C   0  0  0  0  0  0  0  0  0  0  0  0
   10.6050   -1.7700   23.8920 C   0  0  0  0  0  0  0  0  0  0  0  0
    9.2980   -1.5000   24.4120 C   0  0  0  0  0  0  0  0  0  0  0  0
    8.2280   -1.5290   23.5750 C   0  0  0  0  0  0  0  0  0  0  0  0
    8.2350   -1.7920   22.2690 C   0  0  0  0  0  0  0  0  0  0  0  0
    7.7150    2.0630   28.2350 C   0  0  0  0  0  0  0  0  0  0  0  0
    7.1010    2.9990   29.0590 C   0  0  0  0  0  0  0  0  0  0  0  0
    6.0620    2.6520   29.9320 C   0  0  0  0  0  0  0  0  0  0  0  0
    5.6380    1.3270   29.9650 C   0  0  0  0  0  0  0  0  0  0  0  0
    6.2640    0.3940   29.1340 C   0  0  0  0  0  0  0  0  0  0  0  0
    7.3000    0.7420   28.2710 C   0  0  0  0  0  0  0  0  0  0  0  0
  2  4  1  0
  3  4  1  0
  3  7  1  0
  6  7  2  0
  7  9  1  0
  1 11  1  0
  9 11  1  0
  1 12  1  0
  8 12  2  0
  5 13  1  0
 13 12  1  6
  5 14  1  0
 10 14  2  0
 14 15  1  0
 15 16  1  0
 17 18  1  0
 17 19  1  0
 17 20  1  0
 21 23  2  0
 22 24  1  0
 23 24  1  0
 26 27  2  0
 27 28  1  0
 28 29  2  0
 13 30  1  0
 29 30  1  0
 26 31  1  0
 30 31  2  0
 32 33  2  0
 17 34  1  0
 33 34  1  0
 23 35  1  0
 34 35  2  0
 35 36  1  0
  5 37  1  0
 32 37  1  0
 36 37  2  0
 38 39  2  0
 25 40  1  0
 39 40  1  0
 40 41  2  0
 41 42  1  0
 22 43  1  0
 38 43  1  0
 42 43  2  0
M  END
