x0354-x0981
     RDKit          3D

 35 36  0  0  0  0  0  0  0  0999 V2000
    1.2390   -8.6880   21.4080 C   0  0  0  0  0  0  0  0  0  0  0  0
    2.6850   -7.0420   22.7510 N   0  0  0  0  0  0  0  0  0  0  0  0
    0.4440   -6.6200   22.2340 O   0  0  0  0  0  0  0  0  0  0  0  0
    1.3940   -7.3880   22.1540 C   0  0  0  0  0  0  0  0  0  0  0  0
    2.4700   -8.3380   26.3090 N   0  0  0  0  0  0  0  0  0  0  0  0
    3.9740   -8.2030   24.6120 O   0  0  0  0  0  0  0  0  0  0  0  0
    2.9500   -5.8830   23.6160 C   0  0  1  0  0  0  0  0  0  0  0  0
    5.1670   -5.6380   22.3160 N   0  0  0  0  0  0  0  0  0  0  0  0
    4.8200   -4.3500   24.2790 N   0  0  0  0  0  0  0  0  0  0  0  0
    2.7330   -6.2620   25.0800 C   0  0  0  0  0  0  0  0  0  0  0  0
    3.1210   -7.6780   25.3010 C   0  0  0  0  0  0  0  0  0  0  0  0
    4.3700   -5.2730   23.3900 C   0  0  0  0  0  0  0  0  0  0  0  0
    6.1920   -4.7380   21.7760 C   0  0  0  0  0  0  0  0  0  0  0  0
    6.3730   -4.9770   20.3030 C   0  0  0  0  0  0  0  0  0  0  0  0
    5.6860   -6.2330   19.8300 C   0  0  0  0  0  0  0  0  0  0  0  0
   13.2030   -1.0890   22.4890 C   0  0  0  0  0  0  0  0  0  0  0  0
    7.8520   -2.6080   24.8980 N   0  0  0  0  0  0  0  0  0  0  0  0
    7.5340   -0.7450   27.2610 O   0  0  0  0  0  0  0  0  0  0  0  0
    8.4870   -1.4810   25.2530 C   0  0  0  0  0  0  0  0  0  0  0  0
    7.7270   -0.4820   25.9210 C   0  0  0  0  0  0  0  0  0  0  0  0
    5.7810    3.6120   30.7740 C   0  0  0  0  0  0  0  0  0  0  0  0
    6.1420   -3.7630   24.0840 C   0  0  0  0  0  0  0  0  0  0  0  0
    6.5460   -2.8900   25.0950 C   0  0  0  0  0  0  0  0  0  0  0  0
   11.9270   -1.0430   23.1780 N   0  0  0  0  0  0  0  0  0  0  0  0
   11.2980   -2.3780   23.1490 C   0  0  0  0  0  0  0  0  0  0  0  0
   10.5620   -2.6450   24.4760 C   0  0  0  0  0  0  0  0  0  0  0  0
    9.8370   -1.4150   24.8950 N   0  0  0  0  0  0  0  0  0  0  0  0
   10.7070   -0.3530   25.2950 C   0  0  0  0  0  0  0  0  0  0  0  0
   12.0420   -0.4670   24.5300 C   0  0  0  0  0  0  0  0  0  0  0  0
    7.8210    1.4780   28.1860 C   0  0  0  0  0  0  0  0  0  0  0  0
    7.3790    2.6140   29.0930 C   0  0  0  0  0  0  0  0  0  0  0  0
    6.2290    2.4940   29.8770 C   0  0  0  0  0  0  0  0  0  0  0  0
    5.4570    1.1950   29.7810 C   0  0  0  0  0  0  0  0  0  0  0  0
    5.9430    0.0780   28.8540 C   0  0  0  0  0  0  0  0  0  0  0  0
    7.1100    0.2650   28.0890 C   0  0  0  0  0  0  0  0  0  0  0  0
  1  4  1  0
  2  4  1  0
  3  4  2  0
  2  7  1  0
  7 10  1  1
  5 11  1  0
  6 11  2  0
 10 11  1  0
  7 12  1  0
  8 12  1  0
  9 12  2  3
  8 13  1  0
 13 14  1  0
 14 15  2  3
 17 19  2  3
 18 20  1  0
 19 20  1  0
  9 22  1  0
 17 23  1  0
 22 23  1  0
 16 24  1  0
 24 25  1  0
 25 26  1  0
 19 27  1  0
 26 27  1  0
 27 28  1  0
 24 29  1  0
 28 29  1  0
 30 31  2  0
 21 32  1  0
 31 32  1  0
 32 33  2  0
 33 34  1  0
 18 35  1  0
 30 35  1  0
 34 35  2  0
M  END
