x0354-x0755
     RDKit          3D

 39 42  0  0  0  0  0  0  0  0999 V2000
    4.1800   -6.5410   25.9790 O   0  0  0  0  0  0  0  0  0  0  0  0
    5.9400   -4.9170   27.0340 O   0  0  0  0  0  0  0  0  0  0  0  0
    5.6200   -4.5580   19.9470 O   0  0  0  0  0  0  0  0  0  0  0  0
    6.6030   -4.5290   20.7100 C   0  0  0  0  0  0  0  0  0  0  0  0
    7.8290   -3.6600   20.3750 C   0  0  0  0  0  0  0  0  0  0  0  0
    1.8760   -5.3760   25.4530 F   0  0  0  0  0  0  0  0  0  0  0  0
    5.5480   -2.4460   26.2980 O   0  0  0  0  0  0  0  0  0  0  0  0
    4.9190   -5.3040   25.8840 S   0  0  0  0  0  0  0  0  0  0  0  0
   13.0810   -1.1840   22.2430 C   0  0  0  0  0  0  0  0  0  0  0  0
    7.4900   -1.8970   24.8840 N   0  0  0  0  0  0  0  0  0  0  0  0
    7.5290   -0.4150   27.2810 O   0  0  0  0  0  0  0  0  0  0  0  0
    8.5900   -1.1050   25.4120 C   0  0  0  0  0  0  0  0  0  0  0  0
    8.3800   -0.0310   26.4490 C   0  0  0  0  0  0  0  0  0  0  0  0
    5.4990    3.5350   31.0280 C   0  0  0  0  0  0  0  0  0  0  0  0
    6.1670   -1.5360   25.3980 C   0  0  0  0  0  0  0  0  0  0  0  0
    2.3880   -4.1590   25.6600 C   0  0  0  0  0  0  0  0  0  0  0  0
    3.7410   -3.9780   25.8660 C   0  0  0  0  0  0  0  0  0  0  0  0
    4.2210   -2.6950   26.0810 C   0  0  0  0  0  0  0  0  0  0  0  0
    3.3780   -1.5800   26.0930 C   0  0  0  0  0  0  0  0  0  0  0  0
    2.0170   -1.7660   25.8850 C   0  0  0  0  0  0  0  0  0  0  0  0
    1.5030   -3.0620   25.6650 C   0  0  0  0  0  0  0  0  0  0  0  0
    6.5830   -5.2990   21.9090 N   0  0  0  0  0  0  0  0  0  0  0  0
    7.3740   -5.0460   22.9790 C   0  0  0  0  0  0  0  0  0  0  0  0
    6.5660   -4.5160   24.0010 C   0  0  0  0  0  0  0  0  0  0  0  0
    5.6400   -5.3880   24.3700 N   0  0  0  0  0  0  0  0  0  0  0  0
    4.7630   -5.8490   23.2880 C   0  0  0  0  0  0  0  0  0  0  0  0
    5.6910   -6.2690   22.1340 C   0  0  0  0  0  0  0  0  0  0  0  0
   12.3390   -1.4890   23.4480 N   0  0  0  0  0  0  0  0  0  0  0  0
   11.1420   -2.2610   23.1030 C   0  0  0  0  0  0  0  0  0  0  0  0
   10.3590   -2.6120   24.3650 C   0  0  0  0  0  0  0  0  0  0  0  0
    9.8910   -1.3280   24.9440 N   0  0  0  0  0  0  0  0  0  0  0  0
   10.8190   -0.3770   25.0400 C   0  0  0  0  0  0  0  0  0  0  0  0
   11.9590   -0.3620   24.0660 C   0  0  0  0  0  0  0  0  0  0  0  0
    7.7260    1.8220   28.2220 C   0  0  0  0  0  0  0  0  0  0  0  0
    7.2370    2.8930   29.1870 C   0  0  0  0  0  0  0  0  0  0  0  0
    6.0420    2.4800   30.0290 C   0  0  0  0  0  0  0  0  0  0  0  0
    5.4180    1.2370   29.9570 C   0  0  0  0  0  0  0  0  0  0  0  0
    5.9020    0.2710   29.0530 C   0  0  0  0  0  0  0  0  0  0  0  0
    7.1130    0.5700   28.1400 C   0  0  0  0  0  0  0  0  0  0  0  0
  3  4  2  0
  4  5  1  0
  1  8  2  0
  2  8  2  0
 10 12  2  3
 11 13  1  0
 12 13  1  0
  7 15  1  0
 10 15  1  0
  6 16  1  0
  8 17  1  0
 16 17  2  0
  7 18  1  0
 17 18  1  0
 18 19  2  0
 19 20  1  0
 16 21  1  0
 20 21  2  0
  4 22  1  0
 22 23  1  0
 23 24  1  0
  8 25  1  0
 24 25  1  0
 25 26  1  0
 22 27  1  0
 26 27  1  0
  9 28  1  0
 28 29  1  0
 29 30  1  0
 12 31  1  0
 30 31  1  0
 31 32  1  0
 28 33  1  0
 32 33  1  0
 34 35  2  0
 14 36  1  0
 35 36  1  0
 36 37  2  0
 37 38  1  0
 11 39  1  0
 34 39  1  0
 38 39  2  0
M  END
