x0354-x2649
     RDKit          3D

 31 33  0  0  0  0  0  0  0  0999 V2000
    6.7680   -0.6940   21.0450 N   0  0  0  0  0  0  0  0  0  0  0  0
    7.7680   -1.5180   23.5760 C   0  0  0  0  0  0  0  0  0  0  0  0
    8.5820    0.8310   21.2640 O   0  0  0  0  0  0  0  0  0  0  0  0
   13.3100   -2.2540   21.1440 Cl  0  0  0  0  0  0  0  0  0  0  0  0
    8.6760   -1.2730   22.4320 C   0  0  1  0  0  0  0  0  0  0  0  0
    8.0400   -0.2400   21.5270 C   0  0  0  0  0  0  0  0  0  0  0  0
    4.8060    1.1710   21.6590 C   0  0  0  0  0  0  0  0  0  0  0  0
    6.1590    0.6400   17.5330 N   0  0  0  0  0  0  0  0  0  0  0  0
    5.1940    1.5520   17.8240 C   0  0  0  0  0  0  0  0  0  0  0  0
    4.6940    1.7960   19.0840 C   0  0  0  0  0  0  0  0  0  0  0  0
    5.2660    0.9840   20.2530 C   0  0  0  0  0  0  0  0  0  0  0  0
    6.2400    0.0800   19.8580 C   0  0  0  0  0  0  0  0  0  0  0  0
    6.6520   -0.0740   18.5850 C   0  0  0  0  0  0  0  0  0  0  0  0
   10.4830    0.1360   23.5930 C   0  0  0  0  0  0  0  0  0  0  0  0
   11.8530    0.4050   23.7160 C   0  0  0  0  0  0  0  0  0  0  0  0
   12.8380   -0.2760   23.0030 C   0  0  0  0  0  0  0  0  0  0  0  0
   12.3710   -1.2790   22.1320 C   0  0  0  0  0  0  0  0  0  0  0  0
   11.0560   -1.5100   22.0410 C   0  0  0  0  0  0  0  0  0  0  0  0
   10.0860   -0.8650   22.7120 C   0  0  0  0  0  0  0  0  0  0  0  0
    8.0690   -2.2480   25.7570 N   0  0  0  0  0  0  0  0  0  0  0  0
    7.5750   -0.5950   27.8880 O   0  0  0  0  0  0  0  0  0  0  0  0
    8.8500   -1.0260   25.9250 C   0  0  0  0  0  0  0  0  0  0  0  0
    8.7840   -0.3830   27.2950 C   0  0  0  0  0  0  0  0  0  0  0  0
    5.5060    3.9890   30.8690 C   0  0  0  0  0  0  0  0  0  0  0  0
    7.7460    1.6060   28.6260 C   0  0  0  0  0  0  0  0  0  0  0  0
    7.3090    2.8510   29.3630 C   0  0  0  0  0  0  0  0  0  0  0  0
    6.0040    2.7960   30.1120 C   0  0  0  0  0  0  0  0  0  0  0  0
    5.2740    1.6170   30.0870 C   0  0  0  0  0  0  0  0  0  0  0  0
    5.6910    0.3620   29.3580 C   0  0  0  0  0  0  0  0  0  0  0  0
    7.0130    0.4120   28.6010 C   0  0  0  0  0  0  0  0  0  0  0  0
    8.1180   -2.7510   24.4210 C   0  0  0  0  0  0  0  0  0  0  0  0
  5  2  1  1
  1  6  1  0
  3  6  2  0
  5  6  1  0
  8  9  2  0
  9 10  1  0
  7 11  1  0
 10 11  2  0
  1 12  1  0
 11 12  1  0
  8 13  1  0
 12 13  2  0
 14 15  2  0
 15 16  1  0
  4 17  1  0
 16 17  2  0
 17 18  1  0
  5 19  1  0
 14 19  1  0
 18 19  2  0
 20 22  2  3
 21 23  1  0
 22 23  1  0
 25 26  2  0
 24 27  1  0
 26 27  1  0
 27 28  2  0
 28 29  1  0
 21 30  1  0
 25 30  1  0
 29 30  2  0
  2 31  1  0
 20 31  1  0
M  END
