x0354-x1384
     RDKit          3D

 34 38  0  0  0  0  0  0  0  0999 V2000
   13.1590   -0.9690   22.7200 C   0  0  0  0  0  0  0  0  0  0  0  0
    7.8560   -3.0190   25.9520 N   0  0  0  0  0  0  0  0  0  0  0  0
    7.4870    0.5540   26.2810 O   0  0  0  0  0  0  0  0  0  0  0  0
    8.2980   -1.7000   25.5460 C   0  0  0  0  0  0  0  0  0  0  0  0
    7.2450   -0.6040   25.9620 C   0  0  0  0  0  0  0  0  0  0  0  0
    5.2130    3.3320   30.7900 C   0  0  0  0  0  0  0  0  0  0  0  0
    5.5940   -2.8090   26.7360 O   0  0  0  0  0  0  0  0  0  0  0  0
    6.6370   -3.4520   26.6830 C   0  0  0  0  0  0  0  0  0  0  0  0
   12.1040   -1.1630   23.5950 N   0  0  0  0  0  0  0  0  0  0  0  0
   11.3510   -2.3900   23.3550 C   0  0  0  0  0  0  0  0  0  0  0  0
   10.4130   -2.6800   24.5140 C   0  0  0  0  0  0  0  0  0  0  0  0
    9.5880   -1.4680   24.8390 N   0  0  0  0  0  0  0  0  0  0  0  0
   10.3910   -0.3610   25.1100 C   0  0  0  0  0  0  0  0  0  0  0  0
   11.4420   -0.1100   24.2160 C   0  0  0  0  0  0  0  0  0  0  0  0
    7.4380    2.3580   27.8930 C   0  0  0  0  0  0  0  0  0  0  0  0
    6.8720    3.0000   28.9860 C   0  0  0  0  0  0  0  0  0  0  0  0
    5.7260    2.5520   29.6150 C   0  0  0  0  0  0  0  0  0  0  0  0
    5.1340    1.3790   29.0750 C   0  0  0  0  0  0  0  0  0  0  0  0
    5.7230    0.7370   27.9660 C   0  0  0  0  0  0  0  0  0  0  0  0
    6.9020    1.2140   27.3590 C   0  0  0  0  0  0  0  0  0  0  0  0
    3.5500   -3.9680   23.9490 C   0  0  2  0  0  0  0  0  0  0  0  0
    4.7310   -3.3670   23.4080 C   0  0  1  0  0  0  0  0  0  0  0  0
    5.0640   -3.5950   24.6260 C   0  0  2  0  0  0  0  0  0  0  0  0
    5.5000   -5.0560   24.9700 C   0  0  0  0  0  0  0  0  0  0  0  0
    4.6750   -6.0350   24.2110 C   0  0  0  0  0  0  0  0  0  0  0  0
    3.5220   -5.3440   23.6210 C   0  0  0  0  0  0  0  0  0  0  0  0
    4.8810   -2.6840   25.5350 C   0  0  1  0  0  0  0  0  0  0  0  0
    3.4420   -2.6820   25.8810 C   0  0  0  0  0  0  0  0  0  0  0  0
    2.4430   -3.4590   24.9580 C   0  0  0  0  0  0  0  0  0  0  0  0
    6.1420   -3.1650   21.5770 N   0  0  0  0  0  0  0  0  0  0  0  0
    8.1290   -3.6600   20.3300 C   0  0  0  0  0  0  0  0  0  0  0  0
    5.8240   -3.7180   19.4300 O   0  0  0  0  0  0  0  0  0  0  0  0
    6.6030   -3.5220   20.3580 C   0  0  0  0  0  0  0  0  0  0  0  0
    5.5040   -4.0890   22.3770 C   0  0  0  0  0  0  0  0  0  0  0  0
  2  4  2  3
  3  5  1  0
  4  5  1  0
  2  8  1  0
  7  8  1  0
  1  9  1  0
  9 10  1  0
 10 11  1  0
  4 12  1  0
 11 12  1  0
 12 13  1  0
  9 14  1  0
 13 14  1  0
 15 16  2  0
  6 17  1  0
 16 17  1  0
 17 18  2  0
 18 19  1  0
  3 20  1  0
 15 20  1  0
 19 20  2  0
 21 22  1  0
 21 23  1  0
 22 23  1  0
 23 24  1  6
 24 25  1  0
 21 26  1  6
 25 26  2  0
 27  7  1  1
 23 27  1  0
 27 28  1  0
 21 29  1  0
 28 29  2  0
 30 33  1  0
 31 33  1  0
 32 33  2  0
 22 34  1  6
 30 34  1  0
M  END
