x0354-x0104
     RDKit          3D

 29 31  0  0  0  0  0  0  0  0999 V2000
    9.0380    6.5270   22.6280 C   0  0  0  0  0  0  0  0  0  0  0  0
   10.2740    6.1400   23.3890 C   0  0  0  0  0  0  0  0  0  0  0  0
   10.3660    6.2770   24.6090 O   0  0  0  0  0  0  0  0  0  0  0  0
   11.3180    5.6180   22.6930 N   0  0  0  0  0  0  0  0  0  0  0  0
   12.5330    5.0060   23.2310 C   0  0  0  0  0  0  0  0  0  0  0  0
   12.7650    3.5900   22.6850 C   0  0  0  0  0  0  0  0  0  0  0  0
   13.4620   -2.0220   21.7650 F   0  0  0  0  0  0  0  0  0  0  0  0
   11.8630    2.4940   23.1950 C   0  0  0  0  0  0  0  0  0  0  0  0
   10.7210    2.7030   23.9360 C   0  0  0  0  0  0  0  0  0  0  0  0
   10.1370    1.4950   24.1930 N   0  0  0  0  0  0  0  0  0  0  0  0
   10.8570    0.4860   23.6290 C   0  0  0  0  0  0  0  0  0  0  0  0
   11.9660    1.0550   23.0200 C   0  0  0  0  0  0  0  0  0  0  0  0
   10.5970   -0.8840   23.6170 C   0  0  0  0  0  0  0  0  0  0  0  0
   11.4850   -1.7250   22.9680 C   0  0  0  0  0  0  0  0  0  0  0  0
   12.6140   -1.2040   22.3750 C   0  0  0  0  0  0  0  0  0  0  0  0
   12.8740    0.1590   22.4010 C   0  0  0  0  0  0  0  0  0  0  0  0
    8.1630   -2.9290   25.3200 O   0  0  0  0  0  0  0  0  0  0  0  0
    7.6550   -0.6570   27.6350 O   0  0  0  0  0  0  0  0  0  0  0  0
    8.2710   -1.7680   25.6660 C   0  0  0  0  0  0  0  0  0  0  0  0
    7.9550   -0.5840   26.3030 C   0  0  2  0  0  0  0  0  0  0  0  0
    5.2530    3.9120   30.7160 C   0  0  0  0  0  0  0  0  0  0  0  0
    7.3790    1.7540   28.0640 C   0  0  0  0  0  0  0  0  0  0  0  0
    6.7620    2.9020   28.8560 C   0  0  0  0  0  0  0  0  0  0  0  0
    5.8770    2.6970   29.8950 C   0  0  0  0  0  0  0  0  0  0  0  0
    5.5310    1.2290   30.2140 C   0  0  0  0  0  0  0  0  0  0  0  0
    6.1170    0.0560   29.4580 C   0  0  0  0  0  0  0  0  0  0  0  0
    7.0780    0.4310   28.3530 C   0  0  0  0  0  0  0  0  0  0  0  0
    8.9540    1.3170   24.9310 C   0  0  0  0  0  0  0  0  0  0  0  0
    9.1160    0.3960   26.1440 C   0  0  0  0  0  0  0  0  0  0  0  0
  1  2  1  0
  2  3  2  0
  2  4  1  0
  4  5  1  0
  5  6  1  0
  6  8  1  0
  8  9  2  0
  9 10  1  0
 10 11  1  0
  8 12  1  0
 11 12  2  0
 11 13  1  0
 13 14  2  0
  7 15  1  0
 14 15  1  0
 12 16  1  0
 15 16  2  0
 17 19  2  0
 18 20  1  0
 20 19  1  1
 22 23  2  0
 21 24  1  0
 23 24  1  0
 24 25  2  0
 25 26  1  0
 18 27  1  0
 22 27  1  0
 26 27  2  0
 10 28  1  0
 20 29  1  0
 28 29  1  0
M  END
