x0354-x3077
     RDKit          3D

 28 31  0  0  0  0  0  0  0  0999 V2000
    7.0870   -3.1910   19.1820 C   0  0  0  0  0  0  0  0  0  0  0  0
    5.4700   -4.7450   19.9810 O   0  0  0  0  0  0  0  0  0  0  0  0
   13.0870   -2.0550   21.2910 Cl  0  0  0  0  0  0  0  0  0  0  0  0
    6.2900   -3.8700   20.2800 C   0  0  0  0  0  0  0  0  0  0  0  0
    8.9040   -1.6250   24.4970 C   0  0  2  0  0  0  0  0  0  0  0  0
    9.3390   -2.9090   24.8030 O   0  0  0  0  0  0  0  0  0  0  0  0
    7.6880   -0.8370   26.5320 O   0  0  0  0  0  0  0  0  0  0  0  0
    8.5400   -0.5030   25.6240 C   0  0  0  0  0  0  0  0  0  0  0  0
    5.8300    3.1000   30.6230 C   0  0  0  0  0  0  0  0  0  0  0  0
    6.5320   -3.4780   21.6190 N   0  0  0  0  0  0  0  0  0  0  0  0
    7.3760   -4.0500   22.6160 C   0  0  0  0  0  0  0  0  0  0  0  0
    7.0820   -3.0920   23.7970 C   0  0  2  0  0  0  0  0  0  0  0  0
    5.9610   -2.4110   23.3820 C   0  0  0  0  0  0  0  0  0  0  0  0
    6.3580   -2.1750   22.1080 C   0  0  1  0  0  0  0  0  0  0  0  0
    7.8040   -1.9120   23.6000 N   0  0  0  0  0  0  0  0  0  0  0  0
    7.5550   -1.4550   22.2950 C   0  0  0  0  0  0  0  0  0  0  0  0
   10.6900    0.2400   24.3090 C   0  0  0  0  0  0  0  0  0  0  0  0
   11.8670    0.7720   23.7880 C   0  0  0  0  0  0  0  0  0  0  0  0
   12.6090    0.0520   22.8530 C   0  0  0  0  0  0  0  0  0  0  0  0
   12.1660   -1.1960   22.4390 C   0  0  0  0  0  0  0  0  0  0  0  0
   10.9800   -1.7630   22.9420 C   0  0  0  0  0  0  0  0  0  0  0  0
   10.2030   -1.0760   23.8860 C   0  0  0  0  0  0  0  0  0  0  0  0
    7.9160    1.3970   27.7260 C   0  0  0  0  0  0  0  0  0  0  0  0
    7.4950    2.3410   28.6830 C   0  0  0  0  0  0  0  0  0  0  0  0
    6.3030    2.1250   29.6070 C   0  0  0  0  0  0  0  0  0  0  0  0
    5.6370    0.8060   29.3870 C   0  0  0  0  0  0  0  0  0  0  0  0
    6.1470   -0.1730   28.3290 C   0  0  0  0  0  0  0  0  0  0  0  0
    7.2830    0.1360   27.5060 C   0  0  0  0  0  0  0  0  0  0  0  0
  1  4  1  0
  2  4  2  0
  5  6  1  1
  5  8  1  0
  7  8  1  0
  4 10  1  0
 10 11  1  0
 12 11  1  6
 12 13  1  0
 10 14  1  0
 13 14  1  0
  5 15  1  0
 12 15  1  0
 14 16  1  1
 15 16  1  0
 17 18  2  0
 18 19  1  0
  3 20  1  0
 19 20  2  0
 20 21  1  0
  5 22  1  0
 17 22  1  0
 21 22  2  0
 23 24  2  0
  9 25  1  0
 24 25  1  0
 25 26  2  0
 26 27  1  0
  7 28  1  0
 23 28  1  0
 27 28  2  0
M  END
