x0354-x3115
     RDKit          3D

 40 42  0  0  0  0  0  0  0  0999 V2000
    6.8900   -1.7780   21.6230 N   0  0  0  0  0  0  0  0  0  0  0  0
    6.7170   -5.0250   20.4920 C   0  0  0  0  0  0  0  0  0  0  0  0
    4.8030   -2.9930   21.1810 O   0  0  0  0  0  0  0  0  0  0  0  0
    6.6830   -4.2430   21.8070 C   0  0  0  0  0  0  0  0  0  0  0  0
    7.4140    1.5650   22.8930 N   0  0  0  0  0  0  0  0  0  0  0  0
    8.7790    0.5770   21.4110 O   0  0  0  0  0  0  0  0  0  0  0  0
    6.0250   -2.9230   21.5130 C   0  0  0  0  0  0  0  0  0  0  0  0
    8.7150    5.0450   23.0450 O   0  0  0  0  0  0  0  0  0  0  0  0
    6.5210   -0.3380   21.5630 C   0  0  1  0  0  0  0  0  0  0  0  0
    7.6670    0.6080   21.9370 C   0  0  0  0  0  0  0  0  0  0  0  0
    8.3090    2.6850   22.4940 C   0  0  0  0  0  0  0  0  0  0  0  0
    7.7050    4.0310   22.9360 C   0  0  0  0  0  0  0  0  0  0  0  0
    8.3790    6.2430   22.3340 C   0  0  0  0  0  0  0  0  0  0  0  0
   12.2230   -1.6540   24.2880 C   0  0  0  0  0  0  0  0  0  0  0  0
   13.0540   -1.4300   23.1860 C   0  0  0  0  0  0  0  0  0  0  0  0
   12.5100   -2.8320   24.9750 C   0  0  0  0  0  0  0  0  0  0  0  0
   12.3340   -0.6610   25.1500 C   0  0  0  0  0  0  0  0  0  0  0  0
    7.6070   -2.0100   25.9220 O   0  0  0  0  0  0  0  0  0  0  0  0
    7.9040   -0.4440   27.6050 O   0  0  0  0  0  0  0  0  0  0  0  0
    8.6060   -1.1280   25.6660 C   0  0  0  0  0  0  0  0  0  0  0  0
    8.7450   -0.0740   26.5490 C   0  0  0  0  0  0  0  0  0  0  0  0
    5.4750    3.6870   30.7450 C   0  0  0  0  0  0  0  0  0  0  0  0
    6.3680    0.4460   17.8490 N   0  0  0  0  0  0  0  0  0  0  0  0
    5.1630    1.2900   17.7660 C   0  0  0  0  0  0  0  0  0  0  0  0
    4.3590    1.5670   19.0390 C   0  0  0  0  0  0  0  0  0  0  0  0
    4.7360    1.0670   20.2640 C   0  0  0  0  0  0  0  0  0  0  0  0
    5.9860    0.2050   20.3930 C   0  0  0  0  0  0  0  0  0  0  0  0
    6.7700   -0.0880   19.1540 C   0  0  0  0  0  0  0  0  0  0  0  0
    9.4340   -2.0890   21.6400 C   0  0  0  0  0  0  0  0  0  0  0  0
   10.6460   -2.0350   22.3070 C   0  0  0  0  0  0  0  0  0  0  0  0
   10.7470   -1.6870   23.7710 C   0  0  0  0  0  0  0  0  0  0  0  0
    9.3070   -1.4430   24.3940 C   0  0  0  0  0  0  0  0  0  0  0  0
    8.1770   -1.5100   23.6320 C   0  0  0  0  0  0  0  0  0  0  0  0
    8.1320   -1.7920   22.3150 C   0  0  0  0  0  0  0  0  0  0  0  0
    7.8320    1.7630   28.3000 C   0  0  0  0  0  0  0  0  0  0  0  0
    7.3120    2.8340   29.0330 C   0  0  0  0  0  0  0  0  0  0  0  0
    6.0910    2.5950   29.9260 C   0  0  0  0  0  0  0  0  0  0  0  0
    5.5950    1.3040   29.9280 C   0  0  0  0  0  0  0  0  0  0  0  0
    6.1470    0.2630   29.1830 C   0  0  0  0  0  0  0  0  0  0  0  0
    7.2640    0.4950   28.3750 C   0  0  0  0  0  0  0  0  0  0  0  0
  2  4  1  0
  1  7  1  0
  3  7  2  0
  4  7  1  0
  1  9  1  0
  5 10  1  0
  6 10  2  0
  9 10  1  6
  5 11  1  0
  8 12  1  0
 11 12  1  0
  8 13  1  0
 14 15  1  0
 14 16  1  0
 14 17  1  0
 18 20  2  0
 19 21  1  0
 20 21  1  0
 23 24  2  0
 24 25  1  0
 25 26  2  0
  9 27  1  0
 26 27  1  0
 23 28  1  0
 27 28  2  0
 29 30  2  0
 14 31  1  0
 30 31  1  0
 20 32  1  0
 31 32  2  0
 32 33  1  0
  1 34  1  0
 29 34  1  0
 33 34  2  0
 35 36  2  0
 22 37  1  0
 36 37  1  0
 37 38  2  0
 38 39  1  0
 19 40  1  0
 35 40  1  0
 39 40  2  0
M  END
