x0354-x2600
     RDKit          3D

 30 32  0  0  0  0  0  0  0  0999 V2000
   13.2640   -1.1720   22.4390 C   0  0  0  0  0  0  0  0  0  0  0  0
    7.5890   -2.3630   25.4500 O   0  0  0  0  0  0  0  0  0  0  0  0
    7.3650   -0.4960   27.4330 O   0  0  0  0  0  0  0  0  0  0  0  0
    8.5630   -1.3170   25.5290 C   0  0  0  0  0  0  0  0  0  0  0  0
    8.2560   -0.2220   26.6190 C   0  0  0  0  0  0  0  0  0  0  0  0
    5.6370    3.5340   30.9010 C   0  0  0  0  0  0  0  0  0  0  0  0
   13.1760   -1.9320   21.2630 N   0  0  0  0  0  0  0  0  0  0  0  0
   12.1600   -1.3360   23.3650 N   0  0  0  0  0  0  0  0  0  0  0  0
   11.6470   -2.3870   23.3510 C   0  0  0  0  0  0  0  0  0  0  0  0
   10.2780   -2.4380   24.0720 C   0  0  0  0  0  0  0  0  0  0  0  0
    9.8100   -1.2430   24.6390 C   0  0  0  0  0  0  0  0  0  0  0  0
   10.8170   -0.4530   25.1650 C   0  0  0  0  0  0  0  0  0  0  0  0
   12.0970   -0.5810   24.6180 C   0  0  0  0  0  0  0  0  0  0  0  0
    7.7890    1.6340   28.2400 C   0  0  0  0  0  0  0  0  0  0  0  0
    7.3090    2.7340   29.1940 C   0  0  0  0  0  0  0  0  0  0  0  0
    6.1660    2.4780   29.9390 C   0  0  0  0  0  0  0  0  0  0  0  0
    5.4680    1.2820   29.8450 C   0  0  0  0  0  0  0  0  0  0  0  0
    5.8990    0.2720   28.9780 C   0  0  0  0  0  0  0  0  0  0  0  0
    7.0510    0.4460   28.1790 C   0  0  0  0  0  0  0  0  0  0  0  0
    8.4530    0.1150   21.4670 C   0  0  0  0  0  0  0  0  0  0  0  0
    8.7110    1.2700   21.0900 O   0  0  0  0  0  0  0  0  0  0  0  0
    9.3950   -0.5950   22.1140 C   0  0  0  0  0  0  0  0  0  0  0  0
    7.2400   -0.4710   21.2650 N   0  0  0  0  0  0  0  0  0  0  0  0
    6.2650    0.5510   17.6980 N   0  0  0  0  0  0  0  0  0  0  0  0
    6.8990   -0.0250   18.7530 C   0  0  0  0  0  0  0  0  0  0  0  0
    6.5620    0.1290   20.2600 C   0  0  0  0  0  0  0  0  0  0  0  0
    5.4630    0.9720   20.3920 C   0  0  0  0  0  0  0  0  0  0  0  0
    4.8240    1.5550   19.3000 C   0  0  0  0  0  0  0  0  0  0  0  0
    5.2220    1.3450   18.0030 C   0  0  0  0  0  0  0  0  0  0  0  0
    9.1600   -0.4000   23.5850 C   0  0  0  0  0  0  0  0  0  0  0  0
  2  4  2  0
  3  5  1  0
  4  5  1  0
  1  7  3  0
  1  8  1  0
  8  9  1  0
  9 10  1  0
 11  4  1  0
 10 11  1  0
 11 12  1  0
  8 13  1  0
 12 13  1  0
 14 15  2  0
  6 16  1  0
 15 16  1  0
 16 17  2  0
 17 18  1  0
  3 19  1  0
 14 19  1  0
 18 19  2  0
 20 21  2  0
 20 22  1  0
 20 23  1  0
 24 25  2  0
 23 26  1  0
 25 26  1  0
 26 27  2  0
 27 28  1  0
 24 29  1  0
 28 29  2  0
 11 30  1  0
 22 30  1  0
M  END
