x0354-x1308
     RDKit          3D

 39 42  0  0  0  0  0  0  0  0999 V2000
    7.2860   -3.4490   19.9380 C   0  0  0  0  0  0  0  0  0  0  0  0
    5.3570   -4.8170   19.9820 O   0  0  0  0  0  0  0  0  0  0  0  0
    0.4340   -1.1090   26.5430 Cl  0  0  0  0  0  0  0  0  0  0  0  0
    6.4040   -4.5420   20.5520 C   0  0  0  0  0  0  0  0  0  0  0  0
    5.9460   -4.6820   26.8270 N   0  0  0  0  0  0  0  0  0  0  0  0
    4.6270   -6.8960   26.2180 O   0  0  0  0  0  0  0  0  0  0  0  0
    4.9880   -5.4220   25.7180 S   0  0  2  0  0  0  0  0  0  0  0  0
   13.1770   -1.1140   22.6030 C   0  0  0  0  0  0  0  0  0  0  0  0
    7.5950   -2.3500   24.9900 N   0  0  0  0  0  0  0  0  0  0  0  0
    7.4020   -0.6470   27.3220 O   0  0  0  0  0  0  0  0  0  0  0  0
    8.6240   -1.3410   25.4210 C   0  0  0  0  0  0  0  0  0  0  0  0
    8.3130   -0.3680   26.5390 C   0  0  0  0  0  0  0  0  0  0  0  0
    5.6510    3.6140   30.9360 C   0  0  0  0  0  0  0  0  0  0  0  0
    6.6930   -3.4630   26.4970 C   0  0  0  0  0  0  0  0  0  0  0  0
    6.3670   -2.4560   25.6180 C   0  0  0  0  0  0  0  0  0  0  0  0
    6.7650   -5.2540   21.6930 N   0  0  0  0  0  0  0  0  0  0  0  0
    7.5620   -4.8050   22.7270 C   0  0  0  0  0  0  0  0  0  0  0  0
    6.7140   -4.4260   23.7780 C   0  0  0  0  0  0  0  0  0  0  0  0
    5.7370   -5.4700   24.2020 N   0  0  0  0  0  0  0  0  0  0  0  0
    4.9950   -6.1390   23.1120 C   0  0  0  0  0  0  0  0  0  0  0  0
    5.8880   -6.3570   22.0880 C   0  0  0  0  0  0  0  0  0  0  0  0
    3.8950   -3.0540   26.4680 C   0  0  0  0  0  0  0  0  0  0  0  0
    2.8750   -2.1270   26.6360 C   0  0  0  0  0  0  0  0  0  0  0  0
    1.5580   -2.3590   26.2370 C   0  0  0  0  0  0  0  0  0  0  0  0
    1.2410   -3.5750   25.6310 C   0  0  0  0  0  0  0  0  0  0  0  0
    2.3850   -4.5690   25.4620 C   0  0  0  0  0  0  0  0  0  0  0  0
    3.6600   -4.3000   25.8760 C   0  0  0  0  0  0  0  0  0  0  0  0
   11.9800   -1.2410   23.3320 N   0  0  0  0  0  0  0  0  0  0  0  0
   11.8030   -2.4920   23.7580 C   0  0  0  0  0  0  0  0  0  0  0  0
   10.3930   -2.6330   24.2740 C   0  0  0  0  0  0  0  0  0  0  0  0
    9.8620   -1.3240   24.7740 N   0  0  0  0  0  0  0  0  0  0  0  0
   10.7120   -0.3460   25.0960 C   0  0  0  0  0  0  0  0  0  0  0  0
   11.8590   -0.3560   24.3120 C   0  0  0  0  0  0  0  0  0  0  0  0
    7.7340    1.5990   28.2860 C   0  0  0  0  0  0  0  0  0  0  0  0
    7.2700    2.7100   29.2340 C   0  0  0  0  0  0  0  0  0  0  0  0
    6.1220    2.5250   29.9990 C   0  0  0  0  0  0  0  0  0  0  0  0
    5.4150    1.3210   29.8880 C   0  0  0  0  0  0  0  0  0  0  0  0
    5.8930    0.2070   28.9300 C   0  0  0  0  0  0  0  0  0  0  0  0
    7.0410    0.3850   28.1570 C   0  0  0  0  0  0  0  0  0  0  0  0
  1  4  1  0
  2  4  2  0
  5  7  2  0
  6  7  2  0
  9 11  2  3
 10 12  1  0
 11 12  1  0
  5 14  1  0
  9 15  1  0
 14 15  1  0
  4 16  1  0
 16 17  1  0
 17 18  1  0
  7 19  1  0
 18 19  1  0
 19 20  1  0
 16 21  1  0
 20 21  1  0
 22 23  2  0
  3 24  1  0
 23 24  1  0
 24 25  2  0
 25 26  1  0
  7 27  1  6
 22 27  1  0
 26 27  2  0
  8 28  1  0
 28 29  1  0
 29 30  1  0
 11 31  1  0
 30 31  1  0
 31 32  1  0
 28 33  1  0
 32 33  1  0
 34 35  2  0
 13 36  1  0
 35 36  1  0
 36 37  2  0
 37 38  1  0
 10 39  1  0
 34 39  1  0
 38 39  2  0
M  END
