x0354-x2703
     RDKit          3D

 46 49  0  0  0  0  0  0  0  0999 V2000
    6.9390   -1.7140   21.4370 N   0  0  0  0  0  0  0  0  0  0  0  0
    6.7140   -5.0070   20.4540 C   0  0  0  0  0  0  0  0  0  0  0  0
    4.8130   -2.9650   21.0780 O   0  0  0  0  0  0  0  0  0  0  0  0
    6.6920   -4.1780   21.7420 C   0  0  0  0  0  0  0  0  0  0  0  0
    7.2920    1.8050   22.6630 N   0  0  0  0  0  0  0  0  0  0  0  0
    8.7820    0.6720   21.4240 O   0  0  0  0  0  0  0  0  0  0  0  0
    6.0440   -2.8640   21.3910 C   0  0  0  0  0  0  0  0  0  0  0  0
    6.5290   -0.2810   21.4970 C   0  0  1  0  0  0  0  0  0  0  0  0
    7.6290    0.7380   21.8510 C   0  0  0  0  0  0  0  0  0  0  0  0
   10.0900    1.9140   23.8270 C   0  0  0  0  0  0  0  0  0  0  0  0
    9.3890    1.4260   25.0830 C   0  0  0  0  0  0  0  0  0  0  0  0
    6.0080    4.2440   21.7610 C   0  0  0  0  0  0  0  0  0  0  0  0
   11.9450   -1.7270   24.3960 C   0  0  0  0  0  0  0  0  0  0  0  0
   12.2360   -2.9560   24.9240 C   0  0  0  0  0  0  0  0  0  0  0  0
   12.2110   -0.5290   25.0560 C   0  0  0  0  0  0  0  0  0  0  0  0
    7.5140   -2.0600   25.9940 O   0  0  0  0  0  0  0  0  0  0  0  0
    7.8330   -0.4150   27.6560 O   0  0  0  0  0  0  0  0  0  0  0  0
    8.5160   -1.1780   25.7430 C   0  0  0  0  0  0  0  0  0  0  0  0
    8.7330   -0.1460   26.6670 C   0  0  0  0  0  0  0  0  0  0  0  0
    5.6080    3.7920   30.7280 C   0  0  0  0  0  0  0  0  0  0  0  0
    6.3310    0.6200   17.6830 N   0  0  0  0  0  0  0  0  0  0  0  0
    5.1070    1.4420   17.6850 C   0  0  0  0  0  0  0  0  0  0  0  0
    4.4060    1.6360   18.8710 C   0  0  0  0  0  0  0  0  0  0  0  0
    4.9190    1.0120   20.1640 C   0  0  0  0  0  0  0  0  0  0  0  0
    6.0600    0.2550   20.2010 C   0  0  0  0  0  0  0  0  0  0  0  0
    6.8170    0.0210   18.9100 C   0  0  0  0  0  0  0  0  0  0  0  0
   10.5650   -1.9550   22.4170 N   0  0  0  0  0  0  0  0  0  0  0  0
   10.5340   -1.7090   23.7670 C   0  0  0  0  0  0  0  0  0  0  0  0
    9.1440   -1.4540   24.4470 C   0  0  0  0  0  0  0  0  0  0  0  0
    7.9980   -1.4610   23.7280 C   0  0  0  0  0  0  0  0  0  0  0  0
    8.0440   -1.7080   22.3080 C   0  0  0  0  0  0  0  0  0  0  0  0
    9.4040   -1.9570   21.7510 C   0  0  0  0  0  0  0  0  0  0  0  0
    9.3490    3.1310   23.3510 C   0  0  0  0  0  0  0  0  0  0  0  0
   10.0400    4.3590   23.4860 C   0  0  0  0  0  0  0  0  0  0  0  0
    9.3740    5.6510   23.0300 C   0  0  0  0  0  0  0  0  0  0  0  0
    8.1170    5.5720   22.4960 C   0  0  0  0  0  0  0  0  0  0  0  0
    7.3880    4.2300   22.3620 C   0  0  0  0  0  0  0  0  0  0  0  0
    8.0240    3.0410   22.7980 C   0  0  0  0  0  0  0  0  0  0  0  0
    7.8340    1.7820   28.4100 C   0  0  0  0  0  0  0  0  0  0  0  0
    7.3220    2.8430   29.1540 C   0  0  0  0  0  0  0  0  0  0  0  0
    6.1710    2.6590   29.9190 C   0  0  0  0  0  0  0  0  0  0  0  0
    5.5670    1.4200   29.9160 C   0  0  0  0  0  0  0  0  0  0  0  0
    6.0660    0.3470   29.1800 C   0  0  0  0  0  0  0  0  0  0  0  0
    7.2160    0.5320   28.4200 C   0  0  0  0  0  0  0  0  0  0  0  0
   13.1310   -0.4260   22.4460 C   0  0  0  0  0  0  0  0  0  0  0  0
   12.9880   -1.7120   23.2350 C   0  0  0  0  0  0  0  0  0  0  0  0
  2  4  1  0
  1  7  1  0
  3  7  2  0
  4  7  1  0
  1  8  1  0
  5  9  1  0
  6  9  2  0
  8  9  1  6
 10 11  1  0
 13 14  1  0
 13 15  1  0
 16 18  2  0
 17 19  1  0
 18 19  1  0
 21 22  2  0
 22 23  1  0
 23 24  2  0
  8 25  1  0
 24 25  1  0
 21 26  1  0
 25 26  2  0
 13 28  1  0
 27 28  2  0
 18 29  1  0
 28 29  1  0
 29 30  2  0
  1 31  1  0
 30 31  1  0
 27 32  1  0
 31 32  2  0
 10 33  1  0
 33 34  2  0
 34 35  1  0
 35 36  2  0
 12 37  1  0
 36 37  1  0
  5 38  1  0
 33 38  1  0
 37 38  2  0
 39 40  2  0
 20 41  1  0
 40 41  1  0
 41 42  2  0
 42 43  1  0
 17 44  1  0
 39 44  1  0
 43 44  2  0
 13 46  1  0
 45 46  1  0
M  END
