x0354-x2705
     RDKit          3D

 44 47  0  0  0  0  0  0  0  0999 V2000
    7.0460   -1.5950   21.6090 N   0  0  0  0  0  0  0  0  0  0  0  0
    6.8370   -4.9430   20.5500 C   0  0  0  0  0  0  0  0  0  0  0  0
    4.8680   -3.0350   21.1740 O   0  0  0  0  0  0  0  0  0  0  0  0
    6.9030   -4.0800   21.8140 C   0  0  0  0  0  0  0  0  0  0  0  0
    7.4170    1.9120   22.6990 N   0  0  0  0  0  0  0  0  0  0  0  0
    8.8850    0.8020   21.4000 O   0  0  0  0  0  0  0  0  0  0  0  0
    6.1590   -2.8110   21.5050 C   0  0  0  0  0  0  0  0  0  0  0  0
    6.6320   -0.1600   21.5260 C   0  0  1  0  0  0  0  0  0  0  0  0
    7.7450    0.8570   21.8590 C   0  0  0  0  0  0  0  0  0  0  0  0
   10.2820    2.1300   23.8760 C   0  0  0  0  0  0  0  0  0  0  0  0
    9.5070    1.2210   24.8180 C   0  0  0  0  0  0  0  0  0  0  0  0
    6.0410    4.4720   21.7940 C   0  0  0  0  0  0  0  0  0  0  0  0
   11.9440   -1.4810   23.4130 C   0  0  0  0  0  0  0  0  0  0  0  0
   12.4140   -0.1990   23.7210 C   0  0  0  0  0  0  0  0  0  0  0  0
   12.3430   -2.5220   24.2870 C   0  0  0  0  0  0  0  0  0  0  0  0
   12.4300   -1.8990   22.2190 C   0  0  0  0  0  0  0  0  0  0  0  0
    7.5330   -2.2140   25.5150 O   0  0  0  0  0  0  0  0  0  0  0  0
    7.5170   -0.5640   27.4100 O   0  0  0  0  0  0  0  0  0  0  0  0
    8.5050   -1.2650   25.5320 C   0  0  0  0  0  0  0  0  0  0  0  0
    8.4670   -0.2280   26.4800 C   0  0  0  0  0  0  0  0  0  0  0  0
    5.3880    3.6270   30.6440 C   0  0  0  0  0  0  0  0  0  0  0  0
    6.4070    0.4780   17.8160 N   0  0  0  0  0  0  0  0  0  0  0  0
    5.1640    1.2620   17.7210 C   0  0  0  0  0  0  0  0  0  0  0  0
    4.3600    1.5490   18.9910 C   0  0  0  0  0  0  0  0  0  0  0  0
    4.7710    1.1100   20.2220 C   0  0  0  0  0  0  0  0  0  0  0  0
    6.0610    0.3130   20.3580 C   0  0  0  0  0  0  0  0  0  0  0  0
    6.8430    0.0100   19.1270 C   0  0  0  0  0  0  0  0  0  0  0  0
    9.5640   -1.3620   24.5750 N   0  0  0  0  0  0  0  0  0  0  0  0
    8.3540   -1.4240   23.8600 N   0  0  0  0  0  0  0  0  0  0  0  0
    8.3010   -1.5620   22.4160 C   0  0  0  0  0  0  0  0  0  0  0  0
    9.6190   -1.6050   22.1270 C   0  0  0  0  0  0  0  0  0  0  0  0
   10.3530   -1.4780   23.4280 C   0  0  0  0  0  0  0  0  0  0  0  0
    9.4160    3.3010   23.3800 C   0  0  0  0  0  0  0  0  0  0  0  0
   10.0910    4.5260   23.5310 C   0  0  0  0  0  0  0  0  0  0  0  0
    9.4860    5.7220   23.1350 C   0  0  0  0  0  0  0  0  0  0  0  0
    8.0800    5.6860   22.5320 C   0  0  0  0  0  0  0  0  0  0  0  0
    7.4230    4.4630   22.3910 C   0  0  0  0  0  0  0  0  0  0  0  0
    8.1130    3.1570   22.8420 C   0  0  0  0  0  0  0  0  0  0  0  0
    7.2140    1.7170   27.9290 C   0  0  0  0  0  0  0  0  0  0  0  0
    6.7040    2.7610   28.7040 C   0  0  0  0  0  0  0  0  0  0  0  0
    5.9270    2.5010   29.8140 C   0  0  0  0  0  0  0  0  0  0  0  0
    5.6540    1.1710   30.1410 C   0  0  0  0  0  0  0  0  0  0  0  0
    6.1690    0.1360   29.3560 C   0  0  0  0  0  0  0  0  0  0  0  0
    6.9630    0.3900   28.2340 C   0  0  0  0  0  0  0  0  0  0  0  0
  2  4  1  0
  1  7  1  0
  3  7  2  0
  4  7  1  0
  1  8  1  0
  5  9  1  0
  6  9  2  0
  8  9  1  6
 10 11  1  0
 13 14  1  0
 13 15  1  0
 13 16  1  0
 17 19  2  0
 18 20  1  0
 19 20  1  0
 22 23  2  0
 23 24  1  0
 24 25  2  0
  8 26  1  0
 25 26  1  0
 22 27  1  0
 26 27  2  0
 19 28  1  0
 28 29  1  0
  1 30  1  0
 29 30  2  0
 30 31  1  0
 13 32  1  0
 28 32  1  0
 31 32  2  0
 10 33  1  0
 33 34  2  0
 34 35  1  0
 35 36  2  0
 12 37  1  0
 36 37  1  0
  5 38  1  0
 33 38  1  0
 37 38  2  0
 39 40  2  0
 21 41  1  0
 40 41  1  0
 41 42  2  0
 42 43  1  0
 18 44  1  0
 39 44  1  0
 43 44  2  0
M  END
