x0354-x0991
     RDKit          3D

 24 25  0  0  0  0  0  0  0  0999 V2000
   13.2750   -0.8920   22.5190 C   0  0  0  0  0  0  0  0  0  0  0  0
    7.8060   -2.1410   24.7770 N   0  0  0  0  0  0  0  0  0  0  0  0
    7.5800   -0.4910   27.1840 O   0  0  0  0  0  0  0  0  0  0  0  0
    8.7930   -1.1560   25.1740 C   0  0  0  0  0  0  0  0  0  0  0  0
    8.3040   -0.1150   26.2390 C   0  0  0  0  0  0  0  0  0  0  0  0
    5.7650    3.6440   30.8830 C   0  0  0  0  0  0  0  0  0  0  0  0
    9.9330   -5.5040   25.0350 N   0  0  0  0  0  0  0  0  0  0  0  0
    7.3880   -4.1050   23.4160 C   0  0  0  0  0  0  0  0  0  0  0  0
    7.6740   -5.3550   23.9550 C   0  0  0  0  0  0  0  0  0  0  0  0
    7.8830   -5.8590   26.4250 N   0  0  0  0  0  0  0  0  0  0  0  0
    8.5830   -5.5780   25.1790 C   0  0  0  0  0  0  0  0  0  0  0  0
    8.3790   -3.1650   23.7810 C   0  0  0  0  0  0  0  0  0  0  0  0
   12.3350   -1.0210   23.5000 N   0  0  0  0  0  0  0  0  0  0  0  0
   11.5640   -2.1990   23.1830 C   0  0  0  0  0  0  0  0  0  0  0  0
   10.6940   -2.4520   24.2020 C   0  0  0  0  0  0  0  0  0  0  0  0
   10.0960   -1.2480   24.6280 N   0  0  0  0  0  0  0  0  0  0  0  0
   10.9780   -0.2830   24.8530 C   0  0  0  0  0  0  0  0  0  0  0  0
   11.5450    0.1020   23.6290 C   0  0  0  0  0  0  0  0  0  0  0  0
    7.7150    1.6460   28.1960 C   0  0  0  0  0  0  0  0  0  0  0  0
    7.3090    2.6670   29.0740 C   0  0  0  0  0  0  0  0  0  0  0  0
    6.2090    2.5340   29.9290 C   0  0  0  0  0  0  0  0  0  0  0  0
    5.5220    1.3300   29.8760 C   0  0  0  0  0  0  0  0  0  0  0  0
    5.9650    0.2160   28.9200 C   0  0  0  0  0  0  0  0  0  0  0  0
    7.0650    0.4070   28.0930 C   0  0  0  0  0  0  0  0  0  0  0  0
  2  4  2  3
  3  5  1  0
  4  5  1  0
  8  9  1  0
  7 11  2  3
  9 11  1  0
 10 11  1  0
  2 12  1  0
  8 12  1  0
  1 13  1  0
 13 14  1  0
 14 15  1  0
  4 16  1  0
 15 16  1  0
 16 17  1  0
 13 18  1  0
 17 18  1  0
 19 20  2  0
  6 21  1  0
 20 21  1  0
 21 22  2  0
 22 23  1  0
  3 24  1  0
 19 24  1  0
 23 24  2  0
M  END
