x0354-x2964
     RDKit          3D

 30 32  0  0  0  0  0  0  0  0999 V2000
   12.9280   -0.8880   22.5180 C   0  0  0  0  0  0  0  0  0  0  0  0
    7.6870   -2.2410   25.1180 O   0  0  0  0  0  0  0  0  0  0  0  0
    7.3720   -0.5110   27.4000 O   0  0  0  0  0  0  0  0  0  0  0  0
    8.4520   -1.3430   25.4530 C   0  0  0  0  0  0  0  0  0  0  0  0
    8.1740   -0.2280   26.5020 C   0  0  0  0  0  0  0  0  0  0  0  0
    5.5920    3.5470   30.9490 C   0  0  0  0  0  0  0  0  0  0  0  0
   12.1420   -1.3100   23.5930 N   0  0  0  0  0  0  0  0  0  0  0  0
   11.0620   -2.2390   23.1620 C   0  0  1  0  0  0  0  0  0  0  0  0
   10.2150   -2.5570   24.2040 C   0  0  0  0  0  0  0  0  0  0  0  0
    9.7690   -1.3950   24.7860 N   0  0  0  0  0  0  0  0  0  0  0  0
   10.8450   -0.8070   25.3570 C   0  0  0  0  0  0  0  0  0  0  0  0
   11.5640   -0.1360   24.3790 C   0  0  0  0  0  0  0  0  0  0  0  0
    7.6810    1.7780   28.1920 C   0  0  0  0  0  0  0  0  0  0  0  0
    7.2140    2.7390   29.0770 C   0  0  0  0  0  0  0  0  0  0  0  0
    6.1620    2.5150   29.9390 C   0  0  0  0  0  0  0  0  0  0  0  0
    5.5230    1.2840   29.9480 C   0  0  0  0  0  0  0  0  0  0  0  0
    5.9490    0.2480   29.0680 C   0  0  0  0  0  0  0  0  0  0  0  0
    7.0140    0.3980   28.1600 C   0  0  0  0  0  0  0  0  0  0  0  0
    3.5050    2.2350   19.6660 N   0  0  0  0  0  0  0  0  0  0  0  0
    8.7140    1.4340   21.0510 O   0  0  0  0  0  0  0  0  0  0  0  0
    7.4240   -0.6650   21.1970 N   0  0  0  0  0  0  0  0  0  0  0  0
    9.4770   -0.4880   22.3970 N   0  0  0  0  0  0  0  0  0  0  0  0
    8.5670    0.0960   21.5560 C   0  0  0  0  0  0  0  0  0  0  0  0
    4.6960    1.4470   19.3260 C   0  0  0  0  0  0  0  0  0  0  0  0
    5.4640    0.7770   20.4850 C   0  0  0  0  0  0  0  0  0  0  0  0
    6.5930    0.0260   20.1830 C   0  0  0  0  0  0  0  0  0  0  0  0
    7.0200   -0.1120   18.7250 C   0  0  0  0  0  0  0  0  0  0  0  0
    6.2550    0.5520   17.6610 N   0  0  0  0  0  0  0  0  0  0  0  0
    5.1720    1.2710   18.0370 C   0  0  0  0  0  0  0  0  0  0  0  0
   10.2920   -1.6300   22.0060 C   0  0  0  0  0  0  0  0  0  0  0  0
  2  4  2  0
  3  5  1  0
  4  5  1  0
  1  7  1  0
  7  8  1  0
  8  9  1  0
  4 10  1  0
  9 10  1  0
 10 11  1  0
  7 12  1  0
 11 12  1  0
 13 14  2  0
  6 15  1  0
 14 15  1  0
 15 16  2  0
 16 17  1  0
  3 18  1  0
 13 18  1  0
 17 18  2  0
 20 23  2  0
 21 23  1  0
 22 23  1  0
 19 24  1  0
 24 25  2  0
 21 26  1  0
 25 26  1  0
 26 27  2  0
 27 28  1  0
 24 29  1  0
 28 29  2  0
  8 30  1  6
 22 30  1  0
M  END
