x0354-x2581
     RDKit          3D

 40 45  0  0  0  0  0  0  0  0999 V2000
   10.0740   -2.4890   23.0540 C   0  0  0  0  0  0  0  0  0  0  0  0
   10.7280   -1.2630   22.9150 N   0  0  0  0  0  0  0  0  0  0  0  0
   10.1530    3.5260   22.3430 N   0  0  0  0  0  0  0  0  0  0  0  0
   11.9840    2.6960   23.5050 O   0  0  0  0  0  0  0  0  0  0  0  0
   11.3990    3.5880   22.9380 C   0  0  0  0  0  0  0  0  0  0  0  0
   11.9940    5.0100   22.8030 C   0  0  0  0  0  0  0  0  0  0  0  0
   13.1900   -1.4800   22.6040 C   0  0  0  0  0  0  0  0  0  0  0  0
    7.6090   -2.1920   25.2230 O   0  0  0  0  0  0  0  0  0  0  0  0
    7.5380   -0.5770   27.3740 O   0  0  0  0  0  0  0  0  0  0  0  0
    8.4600   -1.3610   25.5490 C   0  0  0  0  0  0  0  0  0  0  0  0
    8.0970   -0.2480   26.3160 C   0  0  0  0  0  0  0  0  0  0  0  0
    5.7610    3.6630   30.8220 C   0  0  0  0  0  0  0  0  0  0  0  0
    8.5790    2.0090   21.2810 N   0  0  0  0  0  0  0  0  0  0  0  0
    9.7010    2.2390   22.0810 C   0  0  0  0  0  0  0  0  0  0  0  0
   10.4200    1.1770   22.6380 C   0  0  0  0  0  0  0  0  0  0  0  0
    9.9900   -0.1320   22.3650 C   0  0  0  0  0  0  0  0  0  0  0  0
    8.8900   -0.4340   21.5890 C   0  0  0  0  0  0  0  0  0  0  0  0
    8.1850    0.6070   21.0530 C   0  0  0  0  0  0  0  0  0  0  0  0
    9.9590    6.5970   22.8550 C   0  0  0  0  0  0  0  0  0  0  0  0
    9.2670    7.6810   23.3880 C   0  0  0  0  0  0  0  0  0  0  0  0
    9.7150    8.4690   24.4470 C   0  0  0  0  0  0  0  0  0  0  0  0
   10.9500    8.1480   25.0200 C   0  0  0  0  0  0  0  0  0  0  0  0
   11.6900    6.9490   24.4140 C   0  0  0  0  0  0  0  0  0  0  0  0
   11.2120    6.1920   23.3580 C   0  0  0  0  0  0  0  0  0  0  0  0
    8.9440    9.5470   24.9040 C   0  0  0  0  0  0  0  0  0  0  0  0
    9.4030   10.4230   26.0390 C   0  0  0  0  0  0  0  0  0  0  0  0
   10.7320    9.9920   26.5820 C   0  0  0  0  0  0  0  0  0  0  0  0
   11.4470    8.9100   26.0840 C   0  0  0  0  0  0  0  0  0  0  0  0
   11.9980   -1.3600   23.5400 C   0  0  2  0  0  0  0  0  0  0  0  0
   11.7350   -2.6290   24.3080 C   0  0  0  0  0  0  0  0  0  0  0  0
   10.3660   -2.7570   24.5090 C   0  0  1  0  0  0  0  0  0  0  0  0
    9.8820   -1.5100   25.1820 N   0  0  0  0  0  0  0  0  0  0  0  0
   10.7480   -0.3590   25.3890 C   0  0  0  0  0  0  0  0  0  0  0  0
   12.0930   -0.3600   24.6520 C   0  0  0  0  0  0  0  0  0  0  0  0
    7.8650    1.5330   28.3120 C   0  0  0  0  0  0  0  0  0  0  0  0
    7.4310    2.6880   29.2180 C   0  0  0  0  0  0  0  0  0  0  0  0
    6.2350    2.5580   29.9180 C   0  0  0  0  0  0  0  0  0  0  0  0
    5.4620    1.3940   29.7870 C   0  0  0  0  0  0  0  0  0  0  0  0
    5.8680    0.3410   28.9550 C   0  0  0  0  0  0  0  0  0  0  0  0
    7.0600    0.4020   28.2170 C   0  0  0  0  0  0  0  0  0  0  0  0
  1  2  1  0
  3  5  1  0
  4  5  2  0
  5  6  1  0
  8 10  2  0
  9 11  1  0
 10 11  1  0
  3 14  1  0
 13 14  2  0
 14 15  1  0
  2 16  1  0
 15 16  2  0
 16 17  1  0
 13 18  1  0
 17 18  2  0
 19 20  2  0
 20 21  1  0
 21 22  2  0
 22 23  1  0
  6 24  1  0
 19 24  1  0
 23 24  2  0
 21 25  1  0
 25 26  2  0
 26 27  1  0
 22 28  1  0
 27 28  2  0
  2 29  1  0
 29  7  1  6
 29 30  1  0
 31  1  1  6
 30 31  1  0
 10 32  1  0
 31 32  1  0
 32 33  1  0
 29 34  1  0
 33 34  1  0
 35 36  2  0
 12 37  1  0
 36 37  1  0
 37 38  2  0
 38 39  1  0
  9 40  1  0
 35 40  1  0
 39 40  2  0
M  END
