x0354-x0771
     RDKit          3D

 40 43  0  0  0  0  0  0  0  0999 V2000
    0.4320   -1.3780   26.2300 C   0  0  0  0  0  0  0  0  0  0  0  0
    4.3880   -6.9130   25.8000 O   0  0  0  0  0  0  0  0  0  0  0  0
    6.0160   -5.3030   26.8900 N   0  0  0  0  0  0  0  0  0  0  0  0
    5.2160   -4.4630   19.8630 O   0  0  0  0  0  0  0  0  0  0  0  0
    1.9320   -6.0630   24.8730 C   0  0  0  0  0  0  0  0  0  0  0  0
    6.3040   -4.2500   20.3740 C   0  0  0  0  0  0  0  0  0  0  0  0
    7.2740   -3.3220   19.6560 C   0  0  0  0  0  0  0  0  0  0  0  0
    4.8850   -5.5580   25.6880 S   0  0  2  0  0  0  0  0  0  0  0  0
   13.2780   -1.0560   22.4770 C   0  0  0  0  0  0  0  0  0  0  0  0
    8.1000   -2.7670   25.5480 N   0  0  0  0  0  0  0  0  0  0  0  0
    6.8290   -0.3890   26.7980 O   0  0  0  0  0  0  0  0  0  0  0  0
    8.5570   -1.4040   25.2660 C   0  0  0  0  0  0  0  0  0  0  0  0
    7.6500   -0.1720   25.6230 C   0  0  0  0  0  0  0  0  0  0  0  0
    5.8940    3.5850   30.9790 C   0  0  0  0  0  0  0  0  0  0  0  0
    7.0700   -4.3920   26.6400 C   0  0  0  0  0  0  0  0  0  0  0  0
    6.9000   -3.1000   26.1140 C   0  0  0  0  0  0  0  0  0  0  0  0
    1.5670   -2.4410   26.0800 C   0  0  0  0  0  0  0  0  0  0  0  0
    1.3280   -3.7160   25.5760 C   0  0  0  0  0  0  0  0  0  0  0  0
    2.3040   -4.7140   25.4280 C   0  0  0  0  0  0  0  0  0  0  0  0
    3.5830   -4.3760   25.8200 C   0  0  0  0  0  0  0  0  0  0  0  0
    3.9260   -3.1280   26.3300 C   0  0  0  0  0  0  0  0  0  0  0  0
    2.9630   -2.1310   26.4790 C   0  0  0  0  0  0  0  0  0  0  0  0
    6.6540   -4.8660   21.5670 N   0  0  0  0  0  0  0  0  0  0  0  0
    6.0930   -6.0890   21.9590 C   0  0  0  0  0  0  0  0  0  0  0  0
    5.1870   -6.0930   23.0200 C   0  0  0  0  0  0  0  0  0  0  0  0
    5.6670   -5.3780   24.2020 N   0  0  0  0  0  0  0  0  0  0  0  0
    6.2120   -4.0740   23.8410 C   0  0  0  0  0  0  0  0  0  0  0  0
    7.1920   -4.1520   22.7270 C   0  0  0  0  0  0  0  0  0  0  0  0
   11.9910   -1.0860   23.1430 N   0  0  0  0  0  0  0  0  0  0  0  0
   11.7400   -2.3740   23.7500 C   0  0  0  0  0  0  0  0  0  0  0  0
   10.4180   -2.4490   24.2360 C   0  0  0  0  0  0  0  0  0  0  0  0
    9.8410   -1.2980   24.7130 N   0  0  0  0  0  0  0  0  0  0  0  0
   10.6940   -0.2770   24.9840 C   0  0  0  0  0  0  0  0  0  0  0  0
   11.8650   -0.1130   24.0390 C   0  0  0  0  0  0  0  0  0  0  0  0
    7.4380    1.8010   27.8990 C   0  0  0  0  0  0  0  0  0  0  0  0
    7.2030    2.7410   28.9110 C   0  0  0  0  0  0  0  0  0  0  0  0
    6.0800    2.4970   29.9170 C   0  0  0  0  0  0  0  0  0  0  0  0
    5.3180    1.3530   29.8190 C   0  0  0  0  0  0  0  0  0  0  0  0
    5.6330    0.3650   28.6860 C   0  0  0  0  0  0  0  0  0  0  0  0
    6.6720    0.6090   27.7610 C   0  0  0  0  0  0  0  0  0  0  0  0
  4  6  2  0
  6  7  1  0
  2  8  2  0
  3  8  2  0
 10 12  2  3
 11 13  1  0
 12 13  1  0
  3 15  1  0
 10 16  1  0
 15 16  1  0
  1 17  1  0
 17 18  2  0
  5 19  1  0
 18 19  1  0
  8 20  1  1
 19 20  2  0
 20 21  1  0
 17 22  1  0
 21 22  2  0
  6 23  1  0
 23 24  1  0
 24 25  1  0
  8 26  1  0
 25 26  1  0
 26 27  1  0
 23 28  1  0
 27 28  1  0
  9 29  1  0
 29 30  1  0
 30 31  1  0
 12 32  1  0
 31 32  1  0
 32 33  1  0
 29 34  1  0
 33 34  1  0
 35 36  2  0
 14 37  1  0
 36 37  1  0
 37 38  2  0
 38 39  1  0
 11 40  1  0
 35 40  1  0
 39 40  2  0
M  END
