x0350-x1002
     RDKit          3D

 15 16  0  0  0  0  0  0  0  0999 V2000
    9.8580  -24.6930   -0.2050 C   0  0  0  0  0  0  0  0  0  0  0  0
    9.0480  -23.4740   -0.2450 N   0  0  0  0  0  0  0  0  0  0  0  0
    8.0100  -23.2950   -1.1640 C   0  0  0  0  0  0  0  0  0  0  0  0
   10.9830  -26.9220    4.0730 F   0  0  0  0  0  0  0  0  0  0  0  0
   11.2670  -26.0290    3.1130 C   0  0  0  0  0  0  0  0  0  0  0  0
   10.4320  -25.8390    1.9770 C   0  0  0  0  0  0  0  0  0  0  0  0
   10.7450  -24.9000    0.9990 C   0  0  0  0  0  0  0  0  0  0  0  0
   11.9190  -24.1610    1.1720 C   0  0  0  0  0  0  0  0  0  0  0  0
   12.7540  -24.3440    2.2840 C   0  0  0  0  0  0  0  0  0  0  0  0
   12.4450  -25.2610    3.2590 C   0  0  0  0  0  0  0  0  0  0  0  0
    7.7270  -20.7370   -1.6760 C   0  0  0  0  0  0  0  0  0  0  0  0
    7.2890  -21.9610   -1.1600 C   0  0  0  0  0  0  0  0  0  0  0  0
    6.0200  -21.8210   -0.6100 O   0  0  0  0  0  0  0  0  0  0  0  0
    5.7080  -20.5000   -0.7960 C   0  0  0  0  0  0  0  0  0  0  0  0
    6.7060  -19.7990   -1.4350 C   0  0  0  0  0  0  0  0  0  0  0  0
  1  2  1  0
  2  3  1  0
  4  5  1  0
  5  6  2  0
  1  7  1  0
  6  7  1  0
  7  8  2  0
  8  9  1  0
  5 10  1  0
  9 10  2  0
  3 12  1  0
 11 12  2  0
 12 13  1  0
 13 14  1  0
 11 15  1  0
 14 15  2  0
M  END
