x0354-x2779
     RDKit          3D

 28 30  0  0  0  0  0  0  0  0999 V2000
   13.0400   -1.3540   22.3110 C   0  0  0  0  0  0  0  0  0  0  0  0
    7.8180   -2.2620   25.0740 O   0  0  0  0  0  0  0  0  0  0  0  0
    7.4740   -0.5420   27.3690 O   0  0  0  0  0  0  0  0  0  0  0  0
    8.5600   -1.3550   25.4320 C   0  0  0  0  0  0  0  0  0  0  0  0
    8.2350   -0.2280   26.4510 C   0  0  0  0  0  0  0  0  0  0  0  0
    5.7490    3.6860   30.8550 C   0  0  0  0  0  0  0  0  0  0  0  0
    7.3290   -3.0020   18.7960 C   0  0  0  0  0  0  0  0  0  0  0  0
    5.4060   -4.0790   19.7230 O   0  0  0  0  0  0  0  0  0  0  0  0
    6.3380   -3.2830   19.9140 C   0  0  0  0  0  0  0  0  0  0  0  0
   10.3300   -2.2690   22.4320 C   0  0  0  0  0  0  0  0  0  0  0  0
   12.2790   -1.4280   23.4850 N   0  0  0  0  0  0  0  0  0  0  0  0
   11.1900   -2.4860   23.4920 C   0  0  1  0  0  0  0  0  0  0  0  0
   10.5440   -2.5960   24.6740 C   0  0  0  0  0  0  0  0  0  0  0  0
    9.9100   -1.3810   24.8360 N   0  0  0  0  0  0  0  0  0  0  0  0
   10.7840   -0.3630   25.1260 C   0  0  0  0  0  0  0  0  0  0  0  0
   12.0500   -0.4290   24.5150 C   0  0  0  0  0  0  0  0  0  0  0  0
    7.6890    1.6320   28.2790 C   0  0  0  0  0  0  0  0  0  0  0  0
    7.3030    2.6920   29.1180 C   0  0  0  0  0  0  0  0  0  0  0  0
    6.1920    2.5720   29.9480 C   0  0  0  0  0  0  0  0  0  0  0  0
    5.4620    1.3740   29.9350 C   0  0  0  0  0  0  0  0  0  0  0  0
    5.7760    0.2640   29.1310 C   0  0  0  0  0  0  0  0  0  0  0  0
    7.0090    0.4260   28.2250 C   0  0  0  0  0  0  0  0  0  0  0  0
    6.5400   -2.6660   21.1420 N   0  0  0  0  0  0  0  0  0  0  0  0
    7.0300   -1.3410   21.1280 C   0  0  0  0  0  0  0  0  0  0  0  0
    8.4540   -1.2370   21.7080 C   0  0  0  0  0  0  0  0  0  0  0  0
    8.8910   -2.1040   22.6410 N   0  0  0  0  0  0  0  0  0  0  0  0
    8.2520   -3.3090   22.7540 C   0  0  0  0  0  0  0  0  0  0  0  0
    6.8440   -3.3450   22.2390 C   0  0  0  0  0  0  0  0  0  0  0  0
  2  4  2  0
  3  5  1  0
  4  5  1  0
  7  9  1  0
  8  9  2  0
  1 11  1  0
 12 10  1  6
 11 12  1  0
 12 13  1  0
  4 14  1  0
 13 14  1  0
 14 15  1  0
 11 16  1  0
 15 16  1  0
 17 18  2  0
  6 19  1  0
 18 19  1  0
 19 20  2  0
 20 21  1  0
  3 22  1  0
 17 22  1  0
 21 22  2  0
  9 23  1  0
 23 24  1  0
 24 25  1  0
 10 26  1  0
 25 26  1  0
 26 27  1  0
 23 28  1  0
 27 28  1  0
M  END
