x0354-x0305
     RDKit          3D

 20 22  0  0  0  0  0  0  0  0999 V2000
   12.7290   -1.2240   22.4460 C   0  0  0  0  0  0  0  0  0  0  0  0
    7.3410   -2.3010   25.2690 O   0  0  0  0  0  0  0  0  0  0  0  0
    7.8620   -0.4810   27.3950 O   0  0  0  0  0  0  0  0  0  0  0  0
    8.2770   -1.5230   25.3510 C   0  0  0  0  0  0  0  0  0  0  0  0
    8.2300   -0.2790   26.2140 C   0  0  2  0  0  0  0  0  0  0  0  0
    5.4520    3.4020   30.7310 C   0  0  0  0  0  0  0  0  0  0  0  0
    9.6300    0.2420   26.0690 N   0  0  0  0  0  0  0  0  0  0  0  0
   13.5860   -1.2440   21.3640 N   0  0  0  0  0  0  0  0  0  0  0  0
   11.7750   -1.3370   23.4390 N   0  0  0  0  0  0  0  0  0  0  0  0
   10.7840   -2.4040   23.1550 C   0  0  0  0  0  0  0  0  0  0  0  0
   10.1730   -2.8550   24.2760 C   0  0  0  0  0  0  0  0  0  0  0  0
    9.5000   -1.6480   24.7130 N   0  0  0  0  0  0  0  0  0  0  0  0
   10.4600   -0.6740   25.1980 C   0  0  1  0  0  0  0  0  0  0  0  0
   11.2150   -0.1910   24.0900 C   0  0  0  0  0  0  0  0  0  0  0  0
    7.7520    1.8840   28.0310 C   0  0  0  0  0  0  0  0  0  0  0  0
    7.1450    2.8170   28.8700 C   0  0  0  0  0  0  0  0  0  0  0  0
    6.1710    2.4190   29.7650 C   0  0  0  0  0  0  0  0  0  0  0  0
    5.7440    1.1040   29.8860 C   0  0  0  0  0  0  0  0  0  0  0  0
    6.3370    0.1100   29.0550 C   0  0  0  0  0  0  0  0  0  0  0  0
    7.3430    0.4090   28.1100 C   0  0  0  0  0  0  0  0  0  0  0  0
  2  4  2  0
  5  3  1  1
  4  5  1  0
  5  7  1  0
  1  8  3  0
  1  9  1  0
  9 10  1  0
 10 11  1  0
  4 12  1  0
 11 12  1  0
  7 13  1  0
 12 13  1  0
  9 14  1  0
 13 14  1  6
 15 16  2  0
  6 17  1  0
 16 17  1  0
 17 18  2  0
 18 19  1  0
  3 20  1  0
 15 20  1  0
 19 20  2  0
M  END
