x0354-x0731
     RDKit          3D

 39 42  0  0  0  0  0  0  0  0999 V2000
    0.5270   -1.1080   26.0280 C   0  0  0  0  0  0  0  0  0  0  0  0
    5.9310   -4.6630   26.8460 N   0  0  0  0  0  0  0  0  0  0  0  0
    4.3600   -6.4780   26.0680 O   0  0  0  0  0  0  0  0  0  0  0  0
    5.2460   -5.0200   19.9860 O   0  0  0  0  0  0  0  0  0  0  0  0
    6.2770   -4.6130   20.4790 C   0  0  0  0  0  0  0  0  0  0  0  0
    7.0140   -3.4930   19.7720 C   0  0  0  0  0  0  0  0  0  0  0  0
    4.8850   -5.1850   25.6900 S   0  0  1  0  0  0  0  0  0  0  0  0
   13.2350   -1.1190   22.4700 C   0  0  0  0  0  0  0  0  0  0  0  0
    7.6750   -2.3730   25.3580 N   0  0  0  0  0  0  0  0  0  0  0  0
    7.5040   -0.5740   27.3330 O   0  0  0  0  0  0  0  0  0  0  0  0
    8.5470   -1.3280   25.5300 C   0  0  0  0  0  0  0  0  0  0  0  0
    8.1980   -0.2520   26.3480 C   0  0  0  0  0  0  0  0  0  0  0  0
    5.6580    3.6100   30.8850 C   0  0  0  0  0  0  0  0  0  0  0  0
    6.1500   -3.1570   27.0750 C   0  0  0  0  0  0  0  0  0  0  0  0
    6.4490   -2.3230   25.9960 C   0  0  0  0  0  0  0  0  0  0  0  0
    1.6650   -2.0710   25.9580 C   0  0  0  0  0  0  0  0  0  0  0  0
    1.5040   -3.3560   25.3910 C   0  0  0  0  0  0  0  0  0  0  0  0
    2.5280   -4.2850   25.3210 C   0  0  0  0  0  0  0  0  0  0  0  0
    3.6900   -3.7780   25.8710 C   0  0  0  0  0  0  0  0  0  0  0  0
    3.9970   -2.5680   26.4430 C   0  0  0  0  0  0  0  0  0  0  0  0
    2.9140   -1.7100   26.4660 C   0  0  0  0  0  0  0  0  0  0  0  0
    6.7860   -5.1980   21.6190 N   0  0  0  0  0  0  0  0  0  0  0  0
    7.4320   -4.4630   22.7040 C   0  0  0  0  0  0  0  0  0  0  0  0
    6.3680   -4.0520   23.7070 C   0  0  0  0  0  0  0  0  0  0  0  0
    5.7200   -5.2570   24.2380 N   0  0  0  0  0  0  0  0  0  0  0  0
    5.1410   -6.1140   23.1890 C   0  0  0  0  0  0  0  0  0  0  0  0
    6.1240   -6.4160   22.0550 C   0  0  0  0  0  0  0  0  0  0  0  0
   12.1970   -1.3450   23.3560 N   0  0  0  0  0  0  0  0  0  0  0  0
   11.4710   -2.4660   23.3720 C   0  0  0  0  0  0  0  0  0  0  0  0
   10.2870   -2.6210   24.2880 C   0  0  0  0  0  0  0  0  0  0  0  0
    9.7960   -1.3630   24.8740 N   0  0  0  0  0  0  0  0  0  0  0  0
   10.7540   -0.2840   25.0230 C   0  0  0  0  0  0  0  0  0  0  0  0
   11.5760   -0.0900   23.7610 C   0  0  0  0  0  0  0  0  0  0  0  0
    7.7180    1.7130   28.2690 C   0  0  0  0  0  0  0  0  0  0  0  0
    7.2520    2.7190   29.1430 C   0  0  0  0  0  0  0  0  0  0  0  0
    6.1340    2.5220   29.9670 C   0  0  0  0  0  0  0  0  0  0  0  0
    5.3920    1.1780   29.9230 C   0  0  0  0  0  0  0  0  0  0  0  0
    5.8880    0.2250   29.0530 C   0  0  0  0  0  0  0  0  0  0  0  0
    7.1080    0.4520   28.1590 C   0  0  0  0  0  0  0  0  0  0  0  0
  4  5  2  0
  5  6  1  0
  2  7  2  0
  3  7  2  0
  9 11  2  3
 10 12  1  0
 11 12  1  0
  2 14  1  0
  9 15  1  0
 14 15  1  0
  1 16  1  0
 16 17  2  0
 17 18  1  0
  7 19  1  6
 18 19  2  0
 19 20  1  0
 16 21  1  0
 20 21  2  0
  5 22  1  0
 22 23  1  0
 23 24  1  0
  7 25  1  0
 24 25  1  0
 25 26  1  0
 22 27  1  0
 26 27  1  0
  8 28  1  0
 28 29  1  0
 29 30  1  0
 11 31  1  0
 30 31  1  0
 31 32  1  0
 28 33  1  0
 32 33  1  0
 34 35  2  0
 13 36  1  0
 35 36  1  0
 36 37  2  0
 37 38  1  0
 10 39  1  0
 34 39  1  0
 38 39  2  0
M  END
