x0354-x2563
     RDKit          3D

 34 37  0  0  0  0  0  0  0  0999 V2000
   13.1460   -0.8070   22.6320 C   0  0  0  0  0  0  0  0  0  0  0  0
    8.0310   -2.2010   25.0830 O   0  0  0  0  0  0  0  0  0  0  0  0
    7.4780   -0.4880   27.3480 O   0  0  0  0  0  0  0  0  0  0  0  0
    8.7650   -1.3190   25.5190 C   0  0  0  0  0  0  0  0  0  0  0  0
    8.3620   -0.1970   26.5230 C   0  0  0  0  0  0  0  0  0  0  0  0
    5.5680    3.4900   30.9290 C   0  0  0  0  0  0  0  0  0  0  0  0
   12.6640   -1.4060   23.8080 N   0  0  0  0  0  0  0  0  0  0  0  0
   11.6070   -2.3700   23.4750 C   0  0  1  0  0  0  0  0  0  0  0  0
   10.6910   -2.5700   24.5010 C   0  0  0  0  0  0  0  0  0  0  0  0
   10.1730   -1.3980   25.0380 N   0  0  0  0  0  0  0  0  0  0  0  0
   10.7990   -0.2800   24.5610 C   0  0  0  0  0  0  0  0  0  0  0  0
   12.1680   -0.3620   24.7870 C   0  0  0  0  0  0  0  0  0  0  0  0
    7.6670    1.8220   28.1200 C   0  0  0  0  0  0  0  0  0  0  0  0
    7.1740    2.7610   29.0100 C   0  0  0  0  0  0  0  0  0  0  0  0
    6.1620    2.4850   29.9110 C   0  0  0  0  0  0  0  0  0  0  0  0
    5.5990    1.2180   29.9450 C   0  0  0  0  0  0  0  0  0  0  0  0
    6.0580    0.2000   29.0610 C   0  0  0  0  0  0  0  0  0  0  0  0
    7.0870    0.4060   28.1140 C   0  0  0  0  0  0  0  0  0  0  0  0
    8.3990    0.1920   21.3730 C   0  0  0  0  0  0  0  0  0  0  0  0
    8.4930    1.3400   20.9110 O   0  0  0  0  0  0  0  0  0  0  0  0
    7.5040   -0.6800   20.7610 C   0  0  0  0  0  0  0  0  0  0  0  0
    9.0460   -0.3400   22.3680 N   0  0  0  0  0  0  0  0  0  0  0  0
    6.2530    0.6920   17.5730 N   0  0  0  0  0  0  0  0  0  0  0  0
    5.1330    1.3550   17.9360 C   0  0  0  0  0  0  0  0  0  0  0  0
    4.6140    1.4490   19.2270 C   0  0  0  0  0  0  0  0  0  0  0  0
    5.4450    0.7100   20.3310 C   0  0  0  0  0  0  0  0  0  0  0  0
    6.6710    0.0030   19.9000 C   0  0  0  0  0  0  0  0  0  0  0  0
    6.9900    0.0490   18.4880 C   0  0  0  0  0  0  0  0  0  0  0  0
    3.5050    2.0880   19.6300 C   0  0  0  0  0  0  0  0  0  0  0  0
    3.0670    2.1030   21.0780 C   0  0  0  0  0  0  0  0  0  0  0  0
    3.9070    1.3760   22.1040 C   0  0  0  0  0  0  0  0  0  0  0  0
    5.0470    0.7170   21.6850 C   0  0  0  0  0  0  0  0  0  0  0  0
   10.8310   -1.9920   22.1930 C   0  0  0  0  0  0  0  0  0  0  0  0
    9.3470   -1.7410   22.3610 C   0  0  0  0  0  0  0  0  0  0  0  0
  2  4  2  0
  3  5  1  0
  4  5  1  0
  1  7  1  0
  7  8  1  0
  8  9  1  0
  4 10  1  0
  9 10  1  0
 10 11  1  0
  7 12  1  0
 11 12  1  0
 13 14  2  0
  6 15  1  0
 14 15  1  0
 15 16  2  0
 16 17  1  0
  3 18  1  0
 13 18  1  0
 17 18  2  0
 19 20  2  0
 19 21  1  0
 19 22  1  0
 23 24  2  0
 24 25  1  0
 25 26  2  0
 21 27  1  0
 26 27  1  0
 23 28  1  0
 27 28  2  0
 25 29  1  0
 29 30  2  0
 30 31  1  0
 26 32  1  0
 31 32  2  0
  8 33  1  6
 22 34  1  0
 33 34  1  0
M  END
