x0354-x1382
     RDKit          3D

 25 26  0  0  0  0  0  0  0  0999 V2000
   13.3260   -2.1780   21.1780 Cl  0  0  0  0  0  0  0  0  0  0  0  0
    7.3550   -1.7220   23.3560 C   0  0  0  0  0  0  0  0  0  0  0  0
    8.2590   -1.8270   22.1820 C   0  0  1  0  0  0  0  0  0  0  0  0
    7.7000   -1.6460   20.8960 N   0  0  0  0  0  0  0  0  0  0  0  0
    7.2710   -2.6720   20.0010 C   0  0  0  0  0  0  0  0  0  0  0  0
    6.4860   -2.7470   19.0010 O   0  0  0  0  0  0  0  0  0  0  0  0
    7.9360   -3.9240   20.3980 C   0  0  0  0  0  0  0  0  0  0  0  0
    9.6620   -1.2290   22.4400 C   0  0  0  0  0  0  0  0  0  0  0  0
   10.7670   -1.7650   21.8750 C   0  0  0  0  0  0  0  0  0  0  0  0
   12.1660   -1.2530   22.0770 C   0  0  0  0  0  0  0  0  0  0  0  0
   12.3240   -0.1590   22.9040 C   0  0  0  0  0  0  0  0  0  0  0  0
   11.2260    0.4060   23.4940 C   0  0  0  0  0  0  0  0  0  0  0  0
    9.9210   -0.0960   23.2840 C   0  0  0  0  0  0  0  0  0  0  0  0
    7.6680   -2.1080   25.7040 N   0  0  0  0  0  0  0  0  0  0  0  0
    7.5330   -0.6250   27.7650 O   0  0  0  0  0  0  0  0  0  0  0  0
    8.6990   -1.0990   25.8380 C   0  0  0  0  0  0  0  0  0  0  0  0
    8.7300   -0.3740   27.0100 C   0  0  0  0  0  0  0  0  0  0  0  0
    5.6490    3.9540   30.8330 C   0  0  0  0  0  0  0  0  0  0  0  0
    7.7020    1.6460   28.5880 C   0  0  0  0  0  0  0  0  0  0  0  0
    7.2670    2.7580   29.3170 C   0  0  0  0  0  0  0  0  0  0  0  0
    6.0720    2.6640   30.0310 C   0  0  0  0  0  0  0  0  0  0  0  0
    5.2690    1.3550   29.9970 C   0  0  0  0  0  0  0  0  0  0  0  0
    5.6760    0.2450   29.2860 C   0  0  0  0  0  0  0  0  0  0  0  0
    6.9970    0.4490   28.5410 C   0  0  0  0  0  0  0  0  0  0  0  0
    7.7260   -2.7630   24.4160 C   0  0  0  0  0  0  0  0  0  0  0  0
  3  2  1  1
  3  4  1  0
  4  5  1  0
  5  6  2  0
  5  7  1  0
  3  8  1  0
  8  9  2  0
  1 10  1  0
  9 10  1  0
 10 11  2  0
 11 12  1  0
  8 13  1  0
 12 13  2  0
 14 16  2  3
 15 17  1  0
 16 17  1  0
 19 20  2  0
 18 21  1  0
 20 21  1  0
 21 22  2  0
 22 23  1  0
 15 24  1  0
 19 24  1  0
 23 24  2  0
  2 25  1  0
 14 25  1  0
M  END
