x0354-x3303
     RDKit          3D

 36 42  0  0  0  0  0  0  0  0999 V2000
   12.4520   -1.2110   22.5320 C   0  0  0  0  0  0  0  0  0  0  0  0
    7.6370   -2.4440   24.7580 N   0  0  0  0  0  0  0  0  0  0  0  0
    7.1030   -0.7680   27.3240 O   0  0  0  0  0  0  0  0  0  0  0  0
    8.5700   -1.6220   25.4970 C   0  0  0  0  0  0  0  0  0  0  0  0
    8.2340   -0.8990   26.8440 C   0  0  0  0  0  0  0  0  0  0  0  0
    5.7570    3.5000   30.8370 C   0  0  0  0  0  0  0  0  0  0  0  0
    6.8730   -0.6890   21.9250 C   0  0  0  0  0  0  0  0  0  0  0  0
    6.2840   -0.5600   22.9690 O   0  0  0  0  0  0  0  0  0  0  0  0
    6.6430    1.1010   17.0780 O   0  0  0  0  0  0  0  0  0  0  0  0
    9.2870   -1.2730   22.4550 C   0  0  1  0  0  0  0  0  0  0  0  0
    9.4540   -2.4730   23.1010 C   0  0  2  0  0  0  0  0  0  0  0  0
   10.2220   -2.4150   24.1310 C   0  0  0  0  0  0  0  0  0  0  0  0
    9.8880   -1.4050   25.0120 N   0  0  0  0  0  0  0  0  0  0  0  0
   10.1660   -0.1300   24.6110 C   0  0  0  0  0  0  0  0  0  0  0  0
   10.0380   -0.1220   23.2140 C   0  0  1  0  0  0  0  0  0  0  0  0
    7.7360    1.5510   28.2070 C   0  0  0  0  0  0  0  0  0  0  0  0
    7.3710    2.5770   29.0840 C   0  0  0  0  0  0  0  0  0  0  0  0
    6.2180    2.4590   29.8880 C   0  0  0  0  0  0  0  0  0  0  0  0
    5.4480    1.3100   29.8040 C   0  0  0  0  0  0  0  0  0  0  0  0
    5.7470    0.2450   28.9570 C   0  0  0  0  0  0  0  0  0  0  0  0
    6.8840    0.3320   28.1410 C   0  0  0  0  0  0  0  0  0  0  0  0
   10.1290   -2.3530   21.7200 C   0  0  0  0  0  0  0  0  0  0  0  0
    8.1200   -3.0040   23.5090 C   0  0  2  0  0  0  0  0  0  0  0  0
    7.3060   -2.5450   22.3310 C   0  0  0  0  0  0  0  0  0  0  0  0
    7.7820   -1.4420   21.8780 N   0  0  0  0  0  0  0  0  0  0  0  0
    5.0210    1.5450   18.4800 N   0  0  0  0  0  0  0  0  0  0  0  0
    4.4290    1.4710   19.6850 C   0  0  0  0  0  0  0  0  0  0  0  0
    4.9810    0.7350   20.8790 C   0  0  0  0  0  0  0  0  0  0  0  0
    6.2260    0.0600   20.7470 C   0  0  0  0  0  0  0  0  0  0  0  0
    6.9040    0.1130   19.3930 C   0  0  0  0  0  0  0  0  0  0  0  0
    6.1720    0.9250   18.3140 C   0  0  0  0  0  0  0  0  0  0  0  0
    4.4070    0.6490   22.0790 C   0  0  0  0  0  0  0  0  0  0  0  0
    3.1840    1.3010   22.2570 C   0  0  0  0  0  0  0  0  0  0  0  0
    2.5540    2.0810   21.0850 C   0  0  0  0  0  0  0  0  0  0  0  0
    3.2160    2.1220   19.8590 C   0  0  0  0  0  0  0  0  0  0  0  0
   11.6020    0.0210   22.9110 C   0  0  0  0  0  0  0  0  0  0  0  0
  2  4  2  0
  3  5  1  0
  4  5  1  0
  7  8  2  0
 10 11  1  0
 11 12  1  0
  4 13  1  0
 12 13  1  0
 13 14  1  0
 10 15  1  0
 14 15  1  0
 16 17  2  0
  6 18  1  0
 17 18  1  0
 18 19  2  0
 19 20  1  0
  3 21  1  0
 16 21  1  0
 20 21  2  0
 10 22  1  6
 11 22  1  6
  2 23  1  0
 11 23  1  0
 23 24  1  6
  7 25  1  0
 10 25  1  0
 24 25  1  0
 26 27  2  0
 27 28  1  0
  7 29  1  0
 28 29  2  0
 29 30  1  0
  9 31  1  0
 26 31  1  0
 30 31  2  0
 28 32  1  0
 32 33  2  0
 33 34  1  0
 27 35  1  0
 34 35  2  0
  1 36  1  0
 15 36  1  6
M  END
