x0354-x1478
     RDKit          3D

 32 35  0  0  0  0  0  0  0  0999 V2000
   13.1540   -1.4080   22.4250 C   0  0  0  0  0  0  0  0  0  0  0  0
    7.8310   -1.6160   25.4280 N   0  0  0  0  0  0  0  0  0  0  0  0
    7.7450   -0.1730   27.4870 O   0  0  0  0  0  0  0  0  0  0  0  0
    8.9860   -0.8440   25.6480 C   0  0  0  0  0  0  0  0  0  0  0  0
    8.5970    0.2150   26.6730 C   0  0  0  0  0  0  0  0  0  0  0  0
    5.5120    3.7810   30.9360 C   0  0  0  0  0  0  0  0  0  0  0  0
    6.8220   -3.1120   21.4330 N   0  0  0  0  0  0  0  0  0  0  0  0
    7.9470   -3.4980   19.4150 C   0  0  0  0  0  0  0  0  0  0  0  0
    5.6170   -3.5160   19.4850 O   0  0  0  0  0  0  0  0  0  0  0  0
    5.3760   -5.3010   21.0120 Cl  0  0  0  0  0  0  0  0  0  0  0  0
    6.6830   -3.3530   20.0900 C   0  0  0  0  0  0  0  0  0  0  0  0
    7.8870   -2.7570   24.6280 C   0  0  0  0  0  0  0  0  0  0  0  0
    7.5020   -2.8360   23.3460 C   0  0  0  0  0  0  0  0  0  0  0  0
    6.7710   -2.5630   22.3370 C   0  0  0  0  0  0  0  0  0  0  0  0
   12.2580   -1.3670   23.4700 N   0  0  0  0  0  0  0  0  0  0  0  0
   11.2640   -2.3030   23.2740 C   0  0  0  0  0  0  0  0  0  0  0  0
   10.5580   -2.3560   24.4870 C   0  0  0  0  0  0  0  0  0  0  0  0
   10.2380   -1.1400   25.0440 N   0  0  0  0  0  0  0  0  0  0  0  0
   11.1490   -0.1680   24.8720 C   0  0  0  0  0  0  0  0  0  0  0  0
   11.7530   -0.1050   23.6180 C   0  0  0  0  0  0  0  0  0  0  0  0
    7.6480    1.9700   28.3230 C   0  0  0  0  0  0  0  0  0  0  0  0
    7.1570    2.9890   29.1390 C   0  0  0  0  0  0  0  0  0  0  0  0
    6.1040    2.7440   30.0220 C   0  0  0  0  0  0  0  0  0  0  0  0
    5.4830    1.3340   30.0880 C   0  0  0  0  0  0  0  0  0  0  0  0
    5.9770    0.3290   29.2790 C   0  0  0  0  0  0  0  0  0  0  0  0
    7.1360    0.6870   28.3430 C   0  0  0  0  0  0  0  0  0  0  0  0
    4.5530   -5.1290   23.3630 N   0  0  0  0  0  0  0  0  0  0  0  0
    5.4550   -4.6370   22.5440 C   0  0  0  0  0  0  0  0  0  0  0  0
    6.4250   -3.5850   22.8450 C   0  0  0  0  0  0  0  0  0  0  0  0
    6.7170   -3.0680   24.3700 C   0  0  0  0  0  0  0  0  0  0  0  0
    5.4970   -3.6000   25.1180 C   0  0  0  0  0  0  0  0  0  0  0  0
    4.5070   -4.5940   24.5580 C   0  0  0  0  0  0  0  0  0  0  0  0
  2  4  2  3
  3  5  1  0
  4  5  1  0
  7 11  1  0
  8 11  1  0
  9 11  2  0
  2 12  1  0
 12 13  1  0
  7 14  1  0
 13 14  2  0
  1 15  1  0
 15 16  1  0
 16 17  1  0
  4 18  1  0
 17 18  1  0
 18 19  1  0
 15 20  1  0
 19 20  1  0
 21 22  2  0
  6 23  1  0
 22 23  1  0
 23 24  2  0
 24 25  1  0
  3 26  1  0
 21 26  1  0
 25 26  2  0
 10 28  1  0
 27 28  1  0
  7 29  1  0
 28 29  2  0
 13 30  1  0
 29 30  1  0
 30 31  2  0
 27 32  2  0
 31 32  1  0
M  END
