x0354-x0770
     RDKit          3D

 28 30  0  0  0  0  0  0  0  0999 V2000
   13.0750   -1.4050   22.3650 C   0  0  0  0  0  0  0  0  0  0  0  0
    7.8790   -2.1170   24.9970 O   0  0  0  0  0  0  0  0  0  0  0  0
    7.5040   -0.4950   27.3340 O   0  0  0  0  0  0  0  0  0  0  0  0
    8.6450   -1.2670   25.4180 C   0  0  0  0  0  0  0  0  0  0  0  0
    8.3100   -0.1650   26.4570 C   0  0  0  0  0  0  0  0  0  0  0  0
    5.7210    3.6690   30.8640 C   0  0  0  0  0  0  0  0  0  0  0  0
    7.2170   -2.9840   18.8440 C   0  0  0  0  0  0  0  0  0  0  0  0
    5.3650   -4.1720   19.7700 O   0  0  0  0  0  0  0  0  0  0  0  0
    6.2230   -3.2980   19.9570 C   0  0  0  0  0  0  0  0  0  0  0  0
   10.0240   -2.7240   22.5510 C   0  0  0  0  0  0  0  0  0  0  0  0
   11.8240   -1.1490   22.9510 N   0  0  0  0  0  0  0  0  0  0  0  0
   11.0910   -2.4360   23.3870 C   0  0  1  0  0  0  0  0  0  0  0  0
   10.6690   -2.5440   24.6650 C   0  0  0  0  0  0  0  0  0  0  0  0
   10.0260   -1.3510   24.8890 N   0  0  0  0  0  0  0  0  0  0  0  0
   10.9460   -0.3700   25.0450 C   0  0  0  0  0  0  0  0  0  0  0  0
   11.4820   -0.0250   23.8140 C   0  0  0  0  0  0  0  0  0  0  0  0
    7.6490    1.6840   28.2250 C   0  0  0  0  0  0  0  0  0  0  0  0
    7.2490    2.7320   29.0730 C   0  0  0  0  0  0  0  0  0  0  0  0
    6.1780    2.5690   29.9450 C   0  0  0  0  0  0  0  0  0  0  0  0
    5.5020    1.3380   29.9670 C   0  0  0  0  0  0  0  0  0  0  0  0
    5.8350    0.2370   29.1570 C   0  0  0  0  0  0  0  0  0  0  0  0
    7.0220    0.4510   28.2040 C   0  0  0  0  0  0  0  0  0  0  0  0
    6.3290   -2.6170   21.1720 N   0  0  0  0  0  0  0  0  0  0  0  0
    6.9410   -1.3420   21.1600 C   0  0  0  0  0  0  0  0  0  0  0  0
    8.3430   -1.3530   21.8280 C   0  0  0  0  0  0  0  0  0  0  0  0
    8.6520   -2.2620   22.7770 N   0  0  0  0  0  0  0  0  0  0  0  0
    7.8560   -3.3770   22.8890 C   0  0  0  0  0  0  0  0  0  0  0  0
    6.4720   -3.2440   22.3240 C   0  0  0  0  0  0  0  0  0  0  0  0
  2  4  2  0
  3  5  1  0
  4  5  1  0
  7  9  1  0
  8  9  2  0
  1 11  1  0
 12 10  1  6
 11 12  1  0
 12 13  1  0
  4 14  1  0
 13 14  1  0
 14 15  1  0
 11 16  1  0
 15 16  1  0
 17 18  2  0
  6 19  1  0
 18 19  1  0
 19 20  2  0
 20 21  1  0
  3 22  1  0
 17 22  1  0
 21 22  2  0
  9 23  1  0
 23 24  1  0
 24 25  1  0
 10 26  1  0
 25 26  1  0
 26 27  1  0
 23 28  1  0
 27 28  1  0
M  END
