x0354-x0397
     RDKit          3D

 35 38  0  0  0  0  0  0  0  0999 V2000
    8.1960   -1.5440   21.0720 C   0  0  0  0  0  0  0  0  0  0  0  0
    7.0230   -1.8880   20.3680 N   0  0  0  0  0  0  0  0  0  0  0  0
    6.9520   -1.5360   18.9530 C   0  0  0  0  0  0  0  0  0  0  0  0
    3.5480    2.5210   19.2230 C   0  0  0  0  0  0  0  0  0  0  0  0
    6.2060   -3.0560   20.7450 C   0  0  0  0  0  0  0  0  0  0  0  0
    5.3920   -3.5220   19.9440 O   0  0  0  0  0  0  0  0  0  0  0  0
    6.4340   -3.5990   22.0640 N   0  0  0  0  0  0  0  0  0  0  0  0
   13.2080   -1.1960   22.4110 C   0  0  0  0  0  0  0  0  0  0  0  0
    7.4790   -1.9340   25.0520 N   0  0  0  0  0  0  0  0  0  0  0  0
    7.4870   -0.5770   27.4320 O   0  0  0  0  0  0  0  0  0  0  0  0
    8.5810   -1.1790   25.3570 C   0  0  0  0  0  0  0  0  0  0  0  0
    8.5400   -0.1650   26.5230 C   0  0  0  0  0  0  0  0  0  0  0  0
    5.6470    3.7170   30.9280 C   0  0  0  0  0  0  0  0  0  0  0  0
    6.4410   -2.6400   23.0570 C   0  0  0  0  0  0  0  0  0  0  0  0
    7.4800   -2.8020   23.9840 C   0  0  0  0  0  0  0  0  0  0  0  0
    5.1050    0.2010   19.5380 C   0  0  0  0  0  0  0  0  0  0  0  0
    6.1460   -0.3280   18.7780 C   0  0  0  0  0  0  0  0  0  0  0  0
    6.2730    0.6570   17.6800 N   0  0  0  0  0  0  0  0  0  0  0  0
    5.3750    1.6860   17.7910 O   0  0  0  0  0  0  0  0  0  0  0  0
    4.6350    1.4890   18.8810 C   0  0  0  0  0  0  0  0  0  0  0  0
    6.4540   -5.6030   23.1370 C   0  0  0  0  0  0  0  0  0  0  0  0
    5.8730   -4.7530   22.4480 C   0  0  0  0  0  0  0  0  0  0  0  0
    6.1930   -6.0200   21.7700 C   0  0  0  0  0  0  0  0  0  0  0  0
   11.9540   -1.1290   23.1430 N   0  0  0  0  0  0  0  0  0  0  0  0
   11.4320   -2.3680   23.3190 C   0  0  0  0  0  0  0  0  0  0  0  0
   10.4420   -2.5630   24.2750 C   0  0  0  0  0  0  0  0  0  0  0  0
    9.7830   -1.2810   24.6220 N   0  0  0  0  0  0  0  0  0  0  0  0
   10.8120   -0.3230   25.0210 C   0  0  0  0  0  0  0  0  0  0  0  0
   12.1240   -0.5340   24.3270 C   0  0  0  0  0  0  0  0  0  0  0  0
    7.7790    1.6780   28.3490 C   0  0  0  0  0  0  0  0  0  0  0  0
    7.3580    2.7220   29.1820 C   0  0  0  0  0  0  0  0  0  0  0  0
    6.1120    2.6050   30.0330 C   0  0  0  0  0  0  0  0  0  0  0  0
    5.3620    1.2810   29.9200 C   0  0  0  0  0  0  0  0  0  0  0  0
    5.8140    0.2570   29.0770 C   0  0  0  0  0  0  0  0  0  0  0  0
    6.9700    0.3660   28.2850 C   0  0  0  0  0  0  0  0  0  0  0  0
  1  2  1  0
  2  3  1  0
  2  5  1  0
  5  6  2  0
  5  7  1  0
  9 11  2  3
 10 12  1  0
 11 12  1  0
  7 14  1  0
  9 15  1  0
 14 15  1  0
  3 17  1  0
 16 17  1  0
 17 18  2  0
 18 19  1  0
  4 20  1  0
 16 20  2  0
 19 20  1  0
  7 22  1  0
 21 22  1  0
 21 23  1  0
 22 23  1  0
  8 24  1  0
 24 25  1  0
 25 26  1  0
 11 27  1  0
 26 27  1  0
 27 28  1  0
 24 29  1  0
 28 29  1  0
 30 31  2  0
 13 32  1  0
 31 32  1  0
 32 33  2  0
 33 34  1  0
 10 35  1  0
 30 35  1  0
 34 35  2  0
M  END
