x0354-x0705
     RDKit          3D

 35 38  0  0  0  0  0  0  0  0999 V2000
    1.1220   -2.5420   27.8290 C   0  0  0  0  0  0  0  0  0  0  0  0
    7.3710   -1.1910   26.1880 C   0  0  0  0  0  0  0  0  0  0  0  0
    5.4580   -3.3670   19.3130 O   0  0  0  0  0  0  0  0  0  0  0  0
    6.3370   -2.0210   25.4760 C   0  0  0  0  0  0  0  0  0  0  0  0
    6.4410   -3.2240   20.0550 C   0  0  0  0  0  0  0  0  0  0  0  0
    7.7030   -3.7450   19.5850 C   0  0  0  0  0  0  0  0  0  0  0  0
   13.1380   -1.3550   22.2920 C   0  0  0  0  0  0  0  0  0  0  0  0
    8.2160   -0.3460   28.0290 O   0  0  0  0  0  0  0  0  0  0  0  0
    8.7840   -0.7470   25.9040 C   0  0  0  0  0  0  0  0  0  0  0  0
    9.1280    0.0360   26.9740 C   0  0  0  0  0  0  0  0  0  0  0  0
    5.2270    3.7050   30.7960 C   0  0  0  0  0  0  0  0  0  0  0  0
    2.4960   -2.4400   27.2470 C   0  0  0  0  0  0  0  0  0  0  0  0
    2.7090   -1.5250   26.1960 C   0  0  0  0  0  0  0  0  0  0  0  0
    3.9750   -1.4070   25.6320 C   0  0  0  0  0  0  0  0  0  0  0  0
    4.9860   -2.2230   26.1550 C   0  0  0  0  0  0  0  0  0  0  0  0
    4.8050   -3.1220   27.1800 C   0  0  0  0  0  0  0  0  0  0  0  0
    3.5400   -3.2310   27.7320 C   0  0  0  0  0  0  0  0  0  0  0  0
    6.4440   -2.7330   21.3360 N   0  0  0  0  0  0  0  0  0  0  0  0
    5.7360   -3.5440   22.1790 C   0  0  0  0  0  0  0  0  0  0  0  0
    5.3620   -2.9130   23.4860 C   0  0  0  0  0  0  0  0  0  0  0  0
    6.6000   -2.5540   24.2080 N   0  0  0  0  0  0  0  0  0  0  0  0
    7.7650   -2.0520   23.4390 C   0  0  0  0  0  0  0  0  0  0  0  0
    7.6570   -2.3450   21.9430 C   0  0  0  0  0  0  0  0  0  0  0  0
   12.2790   -1.3570   23.4700 N   0  0  0  0  0  0  0  0  0  0  0  0
   11.0820   -2.1610   23.2180 C   0  0  0  0  0  0  0  0  0  0  0  0
   10.3260   -2.2440   24.5060 C   0  0  0  0  0  0  0  0  0  0  0  0
    9.7110   -1.0200   24.7620 N   0  0  0  0  0  0  0  0  0  0  0  0
   10.5100    0.0980   24.3440 C   0  0  0  0  0  0  0  0  0  0  0  0
   11.9810   -0.2740   24.3120 C   0  0  0  0  0  0  0  0  0  0  0  0
    8.1040    1.7250   29.3090 C   0  0  0  0  0  0  0  0  0  0  0  0
    7.3660    2.7040   29.9750 C   0  0  0  0  0  0  0  0  0  0  0  0
    5.9730    2.6280   30.0670 C   0  0  0  0  0  0  0  0  0  0  0  0
    5.2370    1.4440   29.4240 C   0  0  0  0  0  0  0  0  0  0  0  0
    5.9980    0.4950   28.7680 C   0  0  0  0  0  0  0  0  0  0  0  0
    7.5260    0.6210   28.6890 C   0  0  0  0  0  0  0  0  0  0  0  0
  2  4  2  0
  3  5  2  0
  5  6  1  0
  2  9  2  0
  8 10  1  0
  9 10  1  0
  1 12  1  0
 12 13  2  0
 13 14  1  0
  4 15  1  0
 14 15  2  0
 15 16  1  0
 12 17  1  0
 16 17  2  0
  5 18  1  0
 18 19  1  0
 19 20  1  0
  4 21  1  0
 20 21  1  0
 21 22  1  0
 18 23  1  0
 22 23  1  0
  7 24  1  0
 24 25  1  0
 25 26  1  0
  9 27  1  0
 26 27  1  0
 27 28  1  0
 24 29  1  0
 28 29  1  0
 30 31  2  0
 11 32  1  0
 31 32  1  0
 32 33  2  0
 33 34  1  0
  8 35  1  0
 30 35  1  0
 34 35  2  0
M  END
