x0354-x1425
     RDKit          3D

 36 39  0  0  0  0  0  0  0  0999 V2000
   13.1990   -1.1640   22.4590 C   0  0  0  0  0  0  0  0  0  0  0  0
    7.6230   -2.1040   25.4040 N   0  0  0  0  0  0  0  0  0  0  0  0
    7.6610   -0.4690   27.4780 O   0  0  0  0  0  0  0  0  0  0  0  0
    8.7620   -1.2370   25.5170 C   0  0  0  0  0  0  0  0  0  0  0  0
    8.4600   -0.1570   26.5810 C   0  0  0  0  0  0  0  0  0  0  0  0
    5.6710    3.8260   30.8210 C   0  0  0  0  0  0  0  0  0  0  0  0
    1.4150   -2.3080   28.3790 C   0  0  0  0  0  0  0  0  0  0  0  0
    2.6370   -2.1960   28.3150 O   0  0  0  0  0  0  0  0  0  0  0  0
    5.0620   -4.2690   19.7010 O   0  0  0  0  0  0  0  0  0  0  0  0
    6.1680   -3.9630   20.0860 C   0  0  0  0  0  0  0  0  0  0  0  0
    7.1450   -3.2210   19.1810 C   0  0  0  0  0  0  0  0  0  0  0  0
    7.7100   -3.2660   24.4370 C   0  0  0  0  0  0  0  0  0  0  0  0
   12.2150   -1.3400   23.4010 N   0  0  0  0  0  0  0  0  0  0  0  0
   11.3180   -2.3780   23.2900 C   0  0  0  0  0  0  0  0  0  0  0  0
   10.6410   -2.4860   24.4940 C   0  0  0  0  0  0  0  0  0  0  0  0
   10.0630   -1.2860   24.8340 N   0  0  0  0  0  0  0  0  0  0  0  0
   10.8710   -0.2530   24.9690 C   0  0  0  0  0  0  0  0  0  0  0  0
   11.5800   -0.0970   23.7850 C   0  0  0  0  0  0  0  0  0  0  0  0
    7.6810    1.7160   28.3100 C   0  0  0  0  0  0  0  0  0  0  0  0
    7.2270    2.7560   29.0990 C   0  0  0  0  0  0  0  0  0  0  0  0
    6.1440    2.6580   29.9630 C   0  0  0  0  0  0  0  0  0  0  0  0
    5.4870    1.4280   30.0240 C   0  0  0  0  0  0  0  0  0  0  0  0
    5.9950    0.2590   29.1440 C   0  0  0  0  0  0  0  0  0  0  0  0
    7.0960    0.4570   28.3050 C   0  0  0  0  0  0  0  0  0  0  0  0
    3.2440   -2.6760   27.1120 C   0  0  0  0  0  0  0  0  0  0  0  0
    4.5640   -2.0490   26.7780 C   0  0  0  0  0  0  0  0  0  0  0  0
    5.2830   -2.4830   25.5390 C   0  0  0  0  0  0  0  0  0  0  0  0
    4.7710   -3.4600   24.6740 C   0  0  0  0  0  0  0  0  0  0  0  0
    3.4250   -4.1080   25.0000 C   0  0  0  0  0  0  0  0  0  0  0  0
    2.7010   -3.6510   26.2720 C   0  0  0  0  0  0  0  0  0  0  0  0
    6.5780   -4.3240   21.3380 N   0  0  0  0  0  0  0  0  0  0  0  0
    7.3680   -3.3950   22.0920 C   0  0  0  0  0  0  0  0  0  0  0  0
    6.7770   -3.0940   23.3000 C   0  0  1  0  0  0  0  0  0  0  0  0
    5.4870   -3.8400   23.5230 N   0  0  0  0  0  0  0  0  0  0  0  0
    5.5270   -5.2940   23.2260 C   0  0  0  0  0  0  0  0  0  0  0  0
    6.2470   -5.5380   22.0610 C   0  0  0  0  0  0  0  0  0  0  0  0
  2  4  2  3
  3  5  1  0
  4  5  1  0
  7  8  1  0
  9 10  2  0
 10 11  1  0
  2 12  1  0
  1 13  1  0
 13 14  1  0
 14 15  1  0
  4 16  1  0
 15 16  1  0
 16 17  1  0
 13 18  1  0
 17 18  1  0
 19 20  2  0
  6 21  1  0
 20 21  1  0
 21 22  2  0
 22 23  1  0
  3 24  1  0
 19 24  1  0
 23 24  2  0
  8 25  1  0
 25 26  2  0
 26 27  1  0
 27 28  2  0
 28 29  1  0
 25 30  1  0
 29 30  2  0
 10 31  1  0
 31 32  1  0
 33 12  1  1
 32 33  1  0
 28 34  1  0
 33 34  1  0
 34 35  1  0
 31 36  1  0
 35 36  1  0
M  END
