x0387-x0692
     RDKit          3D

 25 27  0  0  0  0  0  0  0  0999 V2000
    5.3290   -4.1100   19.6870 O   0  0  0  0  0  0  0  0  0  0  0  0
    6.1490   -3.1880   19.7590 C   0  0  0  0  0  0  0  0  0  0  0  0
    7.1810   -2.9680   18.6710 C   0  0  0  0  0  0  0  0  0  0  0  0
    6.1630   -2.3480   20.8490 N   0  0  0  0  0  0  0  0  0  0  0  0
    7.2680   -1.3840   20.9480 C   0  0  0  0  0  0  0  0  0  0  0  0
    8.4860   -1.9850   21.6860 C   0  0  0  0  0  0  0  0  0  0  0  0
    8.1130   -2.8170   22.8630 N   0  0  0  0  0  0  0  0  0  0  0  0
    6.9330   -3.6530   22.6930 C   0  0  0  0  0  0  0  0  0  0  0  0
    5.7610   -2.8660   22.1320 C   0  0  0  0  0  0  0  0  0  0  0  0
    9.3800   -4.6190   27.8110 O   0  0  0  0  0  0  0  0  0  0  0  0
    9.3230   -4.8310   26.4020 C   0  0  1  0  0  0  0  0  0  0  0  0
    8.1230   -4.3080   25.9220 C   0  0  0  0  0  0  0  0  0  0  0  0
    8.2020   -3.0270   25.3830 C   0  0  0  0  0  0  0  0  0  0  0  0
    9.3490   -2.7670   24.6300 C   0  0  1  0  0  0  0  0  0  0  0  0
   10.5910   -3.1770   25.1550 C   0  0  0  0  0  0  0  0  0  0  0  0
   10.5420   -4.3970   25.8580 C   0  0  0  0  0  0  0  0  0  0  0  0
    9.0950   -3.3760   23.4740 C   0  0  0  0  0  0  0  0  0  0  0  0
   10.9870    2.0590   23.8180 C   0  0  0  0  0  0  0  0  0  0  0  0
   11.2680    0.7170   23.5940 C   0  0  0  0  0  0  0  0  0  0  0  0
   10.2010   -0.1700   23.8880 C   0  0  0  0  0  0  0  0  0  0  0  0
   10.7620   -1.4310   23.5450 C   0  0  0  0  0  0  0  0  0  0  0  0
   12.0020   -1.8280   23.0480 C   0  0  0  0  0  0  0  0  0  0  0  0
   13.0540   -0.8390   22.7740 C   0  0  0  0  0  0  0  0  0  0  0  0
   12.5610    0.5060   23.1020 C   0  0  0  0  0  0  0  0  0  0  0  0
    9.1770   -1.2600   24.1460 C   0  0  0  0  0  0  0  0  0  0  0  0
  1  2  2  0
  2  3  1  0
  2  4  1  0
  4  5  1  0
  5  6  1  0
  6  7  1  0
  7  8  1  0
  4  9  1  0
  8  9  1  0
 11 10  1  1
 11 12  1  0
 12 13  1  0
 13 14  1  0
 14 15  1  0
 11 16  1  0
 15 16  1  0
  7 17  1  0
 14 17  1  6
 18 19  1  0
 19 20  2  0
 20 21  1  0
 21 22  2  0
 22 23  1  0
 19 24  1  0
 23 24  2  0
 14 25  1  0
 20 25  1  0
M  END
