x0387-x0689
     RDKit          3D

 32 36  0  0  0  0  0  0  0  0999 V2000
    7.1180   -3.3940   19.8400 C   0  0  0  0  0  0  0  0  0  0  0  0
    5.1290   -4.6490   19.8960 O   0  0  0  0  0  0  0  0  0  0  0  0
    6.2060   -4.4660   20.4250 C   0  0  0  0  0  0  0  0  0  0  0  0
    4.3290   -6.4810   26.2080 O   0  0  0  0  0  0  0  0  0  0  0  0
    5.8180   -3.8130   26.2880 N   0  0  0  0  0  0  0  0  0  0  0  0
    4.9310   -4.8430   25.6400 S   0  0  1  0  0  0  0  0  0  0  0  0
    8.7340   -5.5880   27.0770 O   0  0  0  0  0  0  0  0  0  0  0  0
    9.1620   -2.5150   23.5770 C   0  0  0  0  0  0  0  0  0  0  0  0
    7.2650   -3.9630   26.6880 C   0  0  1  0  0  0  0  0  0  0  0  0
    7.6160   -5.2440   27.4380 C   0  0  0  0  0  0  0  0  0  0  0  0
    6.5750   -5.2450   21.5360 N   0  0  0  0  0  0  0  0  0  0  0  0
    5.7290   -6.3330   22.0010 C   0  0  0  0  0  0  0  0  0  0  0  0
    4.8600   -5.8770   23.0880 C   0  0  0  0  0  0  0  0  0  0  0  0
    5.5170   -5.0050   24.0710 N   0  0  0  0  0  0  0  0  0  0  0  0
    6.2000   -3.9600   23.5240 C   0  0  0  0  0  0  0  0  0  0  0  0
    7.2330   -4.6080   22.5820 C   0  0  0  0  0  0  0  0  0  0  0  0
    3.7980   -2.1330   26.0380 S   0  0  0  0  0  0  0  0  0  0  0  0
    3.5710   -3.8090   25.6070 C   0  0  0  0  0  0  0  0  0  0  0  0
    2.2240   -3.9910   25.3020 C   0  0  0  0  0  0  0  0  0  0  0  0
    1.4420   -2.8870   25.4100 C   0  0  0  0  0  0  0  0  0  0  0  0
    2.1350   -1.7640   25.8060 C   0  0  0  0  0  0  0  0  0  0  0  0
    9.2970   -4.4230   26.5330 C   0  0  2  0  0  0  0  0  0  0  0  0
    8.3660   -3.9190   25.5970 C   0  0  2  0  0  0  0  0  0  0  0  0
    8.8150   -2.6440   25.0960 C   0  0  1  0  0  0  0  0  0  0  0  0
   10.1560   -2.4220   25.5870 N   0  0  0  0  0  0  0  0  0  0  0  0
   10.9720   -3.5640   25.1500 C   0  0  0  0  0  0  0  0  0  0  0  0
   10.6560   -4.6460   25.9110 C   0  0  0  0  0  0  0  0  0  0  0  0
   11.4950   -1.3120   24.1450 C   0  0  0  0  0  0  0  0  0  0  0  0
   10.6340   -1.9760   23.2750 C   0  0  0  0  0  0  0  0  0  0  0  0
   11.3700   -2.1080   21.9620 C   0  0  0  0  0  0  0  0  0  0  0  0
   12.9390   -1.4330   21.9820 S   0  0  0  0  0  0  0  0  0  0  0  0
   12.7420   -0.9550   23.6240 C   0  0  0  0  0  0  0  0  0  0  0  0
  1  3  1  0
  2  3  2  0
  4  6  2  0
  5  6  2  0
  9  5  1  6
  7 10  1  0
  9 10  1  0
  3 11  1  0
 11 12  1  0
 12 13  1  0
  6 14  1  0
 13 14  1  0
 14 15  1  0
 11 16  1  0
 15 16  1  0
  6 18  1  6
 17 18  1  0
 18 19  2  0
 19 20  1  0
 17 21  1  0
 20 21  2  0
  7 22  1  0
 23  9  1  1
 22 23  1  0
 24  8  1  6
 23 24  1  0
 24 25  1  0
 25 26  1  0
 22 27  1  6
 26 27  1  0
  8 29  1  0
 28 29  1  0
 29 30  2  0
 30 31  1  0
 28 32  2  0
 31 32  1  0
M  END
