x0387-x2646
     RDKit          3D

 26 28  0  0  0  0  0  0  0  0999 V2000
    4.5470    1.4280   21.4090 C   0  0  0  0  0  0  0  0  0  0  0  0
    8.9590    0.5910   21.4460 O   0  0  0  0  0  0  0  0  0  0  0  0
   13.2980   -2.0470   21.1220 Cl  0  0  0  0  0  0  0  0  0  0  0  0
    7.2180   -0.8510   21.3280 N   0  0  0  0  0  0  0  0  0  0  0  0
    8.3360   -0.3510   21.9240 C   0  0  0  0  0  0  0  0  0  0  0  0
    8.8040   -0.8680   23.1030 C   0  0  2  0  0  0  0  0  0  0  0  0
    6.2260    0.5760   17.6330 N   0  0  0  0  0  0  0  0  0  0  0  0
    6.7760   -0.0770   18.7450 C   0  0  0  0  0  0  0  0  0  0  0  0
    6.5140   -0.0980   20.2950 C   0  0  0  0  0  0  0  0  0  0  0  0
    5.4260    0.8530   20.2120 C   0  0  0  0  0  0  0  0  0  0  0  0
    4.9980    1.4190   18.9960 C   0  0  0  0  0  0  0  0  0  0  0  0
    5.2160    1.4100   17.8880 C   0  0  0  0  0  0  0  0  0  0  0  0
   10.7910    0.3700   23.8990 C   0  0  0  0  0  0  0  0  0  0  0  0
   12.1530    0.5740   23.8130 C   0  0  0  0  0  0  0  0  0  0  0  0
   12.9900   -0.1340   22.9820 C   0  0  0  0  0  0  0  0  0  0  0  0
   12.4120   -1.1020   22.1950 C   0  0  0  0  0  0  0  0  0  0  0  0
   11.0620   -1.3420   22.2380 C   0  0  0  0  0  0  0  0  0  0  0  0
   10.2620   -0.6080   23.0800 C   0  0  0  0  0  0  0  0  0  0  0  0
    9.2040   -4.4340   27.7290 O   0  0  0  0  0  0  0  0  0  0  0  0
    9.2120   -4.9510   26.4720 C   0  0  0  0  0  0  0  0  0  0  0  0
    8.1140   -4.7470   25.6410 C   0  0  0  0  0  0  0  0  0  0  0  0
    7.8680   -3.3840   25.5150 C   0  0  0  0  0  0  0  0  0  0  0  0
    8.9320   -2.7340   24.7310 N   0  0  0  0  0  0  0  0  0  0  0  0
   10.2650   -3.2910   24.9310 C   0  0  0  0  0  0  0  0  0  0  0  0
   10.4150   -4.4130   25.7650 C   0  0  0  0  0  0  0  0  0  0  0  0
    8.5070   -2.3540   23.3960 C   0  0  0  0  0  0  0  0  0  0  0  0
  2  5  2  0
  4  5  1  0
  5  6  1  0
  7  8  2  0
  4  9  1  0
  8  9  1  0
  1 10  1  0
  9 10  2  0
 10 11  1  0
  7 12  1  0
 11 12  2  0
 13 14  2  0
 14 15  1  0
  3 16  1  0
 15 16  2  0
 16 17  1  0
  6 18  1  0
 13 18  1  0
 17 18  2  0
 19 20  1  0
 20 21  1  0
 21 22  1  0
 22 23  1  0
 23 24  1  0
 20 25  1  0
 24 25  1  0
  6 26  1  6
 23 26  1  0
M  END
