x0387-x0786
     RDKit          3D

 33 36  0  0  0  0  0  0  0  0999 V2000
    6.2730   -3.8990   22.0130 N   0  0  0  0  0  0  0  0  0  0  0  0
    7.2890   -5.1580   20.2160 C   0  0  0  0  0  0  0  0  0  0  0  0
    5.2190   -4.2710   19.8720 O   0  0  0  0  0  0  0  0  0  0  0  0
    6.1390   -4.4000   20.6990 C   0  0  0  0  0  0  0  0  0  0  0  0
    3.7360   -8.0160   24.8240 O   0  0  0  0  0  0  0  0  0  0  0  0
    3.1790   -7.0540   24.3060 C   0  0  0  0  0  0  0  0  0  0  0  0
    8.2180   -5.4230   26.4960 O   0  0  0  0  0  0  0  0  0  0  0  0
    9.3570   -1.6220   23.5170 C   0  0  0  0  0  0  0  0  0  0  0  0
    7.6030   -3.8590   22.6040 C   0  0  0  0  0  0  0  0  0  0  0  0
    7.5400   -4.1490   24.1300 C   0  0  0  0  0  0  0  0  0  0  0  0
    5.3990   -4.2100   23.0830 C   0  0  0  0  0  0  0  0  0  0  0  0
    4.7670   -5.4310   23.1290 C   0  0  0  0  0  0  0  0  0  0  0  0
    3.9290   -5.7490   24.1720 C   0  0  0  0  0  0  0  0  0  0  0  0
    3.7390   -4.8030   25.1870 C   0  0  0  0  0  0  0  0  0  0  0  0
    4.3810   -3.5640   25.1400 C   0  0  0  0  0  0  0  0  0  0  0  0
    5.2140   -3.2630   24.0830 C   0  0  0  0  0  0  0  0  0  0  0  0
    1.2600   -5.7800   23.2670 C   0  0  0  0  0  0  0  0  0  0  0  0
    0.3090   -5.1690   24.1100 C   0  0  0  0  0  0  0  0  0  0  0  0
   -1.0550   -6.2950   24.5120 S   0  0  0  0  0  0  0  0  0  0  0  0
   -0.0490   -7.7320   25.0420 C   0  0  0  0  0  0  0  0  0  0  0  0
    0.9230   -8.1180   24.1190 C   0  0  0  0  0  0  0  0  0  0  0  0
    1.8380   -7.0280   23.7830 N   0  0  0  0  0  0  0  0  0  0  0  0
    9.0530   -4.3550   26.1140 C   0  0  2  0  0  0  0  0  0  0  0  0
    8.8790   -3.8580   24.8140 C   0  0  2  0  0  0  0  0  0  0  0  0
    9.2590   -2.3940   24.8530 C   0  0  1  0  0  0  0  0  0  0  0  0
   10.5610   -2.3360   25.4750 N   0  0  0  0  0  0  0  0  0  0  0  0
   11.2550   -3.6170   25.4350 C   0  0  0  0  0  0  0  0  0  0  0  0
   10.5010   -4.7250   26.1610 C   0  0  0  0  0  0  0  0  0  0  0  0
   11.5640   -0.1950   23.7900 C   0  0  0  0  0  0  0  0  0  0  0  0
   10.7930   -1.2580   23.1950 C   0  0  0  0  0  0  0  0  0  0  0  0
   11.5500   -1.9290   22.2590 C   0  0  0  0  0  0  0  0  0  0  0  0
   13.1300   -1.3130   22.0950 S   0  0  0  0  0  0  0  0  0  0  0  0
   12.8390   -0.1200   23.2750 C   0  0  0  0  0  0  0  0  0  0  0  0
  1  4  1  0
  2  4  1  0
  3  4  2  0
  5  6  2  0
  1  9  1  0
  9 10  1  0
  1 11  1  0
 11 12  2  0
  6 13  1  0
 12 13  1  0
 13 14  2  0
 14 15  1  0
 11 16  1  0
 15 16  2  0
 17 18  1  0
 18 19  1  0
 19 20  1  0
 20 21  1  0
  6 22  1  0
 17 22  1  0
 21 22  1  0
 23  7  1  6
 24 10  1  1
 23 24  1  0
 25  8  1  6
 24 25  1  0
 25 26  1  0
 26 27  1  0
 23 28  1  0
 27 28  1  0
  8 30  1  0
 29 30  1  0
 30 31  2  0
 31 32  1  0
 29 33  2  0
 32 33  1  0
M  END
