x0387-x1093
     RDKit          3D

 27 30  0  0  0  0  0  0  0  0999 V2000
   13.0510   -1.3840   24.4740 C   0  0  0  0  0  0  0  0  0  0  0  0
    9.0120    1.3640   21.3880 O   0  0  0  0  0  0  0  0  0  0  0  0
    8.9080   -0.0150   21.8110 C   0  0  0  0  0  0  0  0  0  0  0  0
    7.9370   -0.9410   21.0980 C   0  0  0  0  0  0  0  0  0  0  0  0
    8.5430   -4.4100   27.5520 O   0  0  0  0  0  0  0  0  0  0  0  0
    8.8320   -1.2010   23.9880 C   0  0  0  0  0  0  0  0  0  0  0  0
   12.5490   -0.9250   23.1980 N   0  0  0  0  0  0  0  0  0  0  0  0
   12.0370    0.4340   23.2730 C   0  0  0  0  0  0  0  0  0  0  0  0
   10.5190    0.4540   23.4520 C   0  0  0  0  0  0  0  0  0  0  0  0
    9.7330   -0.5430   22.8570 C   0  0  0  0  0  0  0  0  0  0  0  0
   10.3810   -1.6340   22.2600 C   0  0  0  0  0  0  0  0  0  0  0  0
   11.7160   -1.9520   22.5580 C   0  0  0  0  0  0  0  0  0  0  0  0
    6.3140    0.1580   17.9220 N   0  0  0  0  0  0  0  0  0  0  0  0
    7.2800   -0.5570   18.7580 C   0  0  0  0  0  0  0  0  0  0  0  0
    7.0990   -0.3490   20.0770 C   0  0  0  0  0  0  0  0  0  0  0  0
    6.0050    0.4700   20.2880 C   0  0  0  0  0  0  0  0  0  0  0  0
    5.5720    0.7540   18.8380 C   0  0  0  0  0  0  0  0  0  0  0  0
    4.4070    1.6410   18.6280 N   0  0  0  0  0  0  0  0  0  0  0  0
    3.6970    2.1550   19.8000 C   0  0  0  0  0  0  0  0  0  0  0  0
    4.1270    1.8550   21.0810 C   0  0  0  0  0  0  0  0  0  0  0  0
    5.2130    1.0770   21.4210 C   0  0  0  0  0  0  0  0  0  0  0  0
    8.8050   -4.4670   26.1510 C   0  0  1  0  0  0  0  0  0  0  0  0
    8.2270   -3.3000   25.5400 C   0  0  0  0  0  0  0  0  0  0  0  0
    8.8430   -2.7730   24.2090 C   0  0  2  0  0  0  0  0  0  0  0  0
   10.2010   -3.2200   24.0480 N   0  0  0  0  0  0  0  0  0  0  0  0
   10.8770   -3.4640   25.2870 C   0  0  0  0  0  0  0  0  0  0  0  0
   10.3000   -4.6460   26.0080 C   0  0  0  0  0  0  0  0  0  0  0  0
  2  3  2  0
  3  4  1  0
  1  7  1  0
  7  8  1  0
  8  9  1  0
 10  3  1  0
  6 10  1  0
  9 10  1  0
 10 11  1  0
  7 12  1  0
 11 12  1  0
 13 14  1  0
  4 15  1  0
 14 15  2  0
 15 16  1  0
 13 17  2  0
 16 17  1  0
 17 18  1  0
 18 19  1  0
 19 20  2  0
 16 21  2  0
 20 21  1  0
 22  5  1  1
 22 23  1  0
 24  6  1  1
 23 24  1  0
 24 25  1  0
 25 26  1  0
 22 27  1  0
 26 27  1  0
M  END
