x0387-x0104
     RDKit          3D

 24 26  0  0  0  0  0  0  0  0999 V2000
    9.0290    6.5080   22.6500 C   0  0  0  0  0  0  0  0  0  0  0  0
   10.2680    6.1870   23.4380 C   0  0  0  0  0  0  0  0  0  0  0  0
   10.3260    6.3360   24.6570 O   0  0  0  0  0  0  0  0  0  0  0  0
   11.3460    5.6840   22.5860 N   0  0  0  0  0  0  0  0  0  0  0  0
   12.5310    4.9920   23.1210 C   0  0  0  0  0  0  0  0  0  0  0  0
   12.7250    3.5540   22.6170 C   0  0  0  0  0  0  0  0  0  0  0  0
   13.4540   -2.1200   22.1180 F   0  0  0  0  0  0  0  0  0  0  0  0
    8.7200   -5.3850   27.0380 O   0  0  0  0  0  0  0  0  0  0  0  0
    9.3360   -1.4150   24.6090 C   0  0  0  0  0  0  0  0  0  0  0  0
   11.8800    2.5510   23.1260 C   0  0  0  0  0  0  0  0  0  0  0  0
   10.6510    2.8640   23.8560 C   0  0  0  0  0  0  0  0  0  0  0  0
   10.0040    1.7130   24.2290 N   0  0  0  0  0  0  0  0  0  0  0  0
   10.6950    0.6450   23.8130 C   0  0  0  0  0  0  0  0  0  0  0  0
   11.9510    1.1210   23.0810 C   0  0  0  0  0  0  0  0  0  0  0  0
   10.4930   -0.9050   23.9140 C   0  0  0  0  0  0  0  0  0  0  0  0
   11.4720   -1.7380   23.3100 C   0  0  0  0  0  0  0  0  0  0  0  0
   12.6020   -1.2520   22.6540 C   0  0  0  0  0  0  0  0  0  0  0  0
   12.9010    0.0920   22.5180 C   0  0  0  0  0  0  0  0  0  0  0  0
    9.1820   -4.2300   26.5140 C   0  0  2  0  0  0  0  0  0  0  0  0
    8.3130   -3.6080   25.5510 C   0  0  0  0  0  0  0  0  0  0  0  0
    8.8840   -2.8890   24.4410 C   0  0  2  0  0  0  0  0  0  0  0  0
   10.1050   -3.5320   24.0330 N   0  0  0  0  0  0  0  0  0  0  0  0
   10.8920   -3.5760   25.0930 C   0  0  0  0  0  0  0  0  0  0  0  0
   10.5600   -4.5560   25.9690 C   0  0  0  0  0  0  0  0  0  0  0  0
  1  2  1  0
  2  3  2  0
  2  4  1  0
  4  5  1  0
  5  6  1  0
  6 10  1  0
 10 11  2  0
 11 12  1  0
 12 13  1  0
 10 14  1  0
 13 14  2  0
  9 15  1  0
 13 15  1  0
 15 16  2  0
  7 17  1  0
 16 17  1  0
 14 18  1  0
 17 18  2  0
 19  8  1  6
 19 20  1  0
 21  9  1  1
 20 21  1  0
 21 22  1  0
 22 23  1  0
 19 24  1  0
 23 24  1  0
M  END
