x0387-x2776
     RDKit          3D

 43 47  0  0  0  0  0  0  0  0999 V2000
    7.2050   -1.6370   21.5770 N   0  0  0  0  0  0  0  0  0  0  0  0
    6.8650   -4.9840   20.5150 C   0  0  0  0  0  0  0  0  0  0  0  0
    4.9180   -3.0540   21.0840 O   0  0  0  0  0  0  0  0  0  0  0  0
    6.9040   -4.1460   21.7850 C   0  0  0  0  0  0  0  0  0  0  0  0
    7.6080    1.7990   22.8880 N   0  0  0  0  0  0  0  0  0  0  0  0
    8.7080    1.1930   20.9980 O   0  0  0  0  0  0  0  0  0  0  0  0
    6.2320   -2.8470   21.4510 C   0  0  0  0  0  0  0  0  0  0  0  0
   10.7340    6.5920   23.7960 O   0  0  0  0  0  0  0  0  0  0  0  0
    6.7070   -0.1750   21.5270 C   0  0  1  0  0  0  0  0  0  0  0  0
   11.7860   -2.6600   24.2540 O   0  0  0  0  0  0  0  0  0  0  0  0
    7.7710    0.9620   21.7670 C   0  0  0  0  0  0  0  0  0  0  0  0
   10.6330    1.6440   23.8530 C   0  0  0  0  0  0  0  0  0  0  0  0
   11.7970    6.5840   24.6660 C   0  0  0  0  0  0  0  0  0  0  0  0
   11.6230   -1.3500   23.6150 C   0  0  0  0  0  0  0  0  0  0  0  0
   12.8390   -2.8570   24.8930 C   0  0  0  0  0  0  0  0  0  0  0  0
    9.5580   -4.6420   28.0950 O   0  0  0  0  0  0  0  0  0  0  0  0
    6.4030    0.4160   17.8250 N   0  0  0  0  0  0  0  0  0  0  0  0
    5.2210    1.2650   17.7650 C   0  0  0  0  0  0  0  0  0  0  0  0
    4.5900    1.5660   18.9540 C   0  0  0  0  0  0  0  0  0  0  0  0
    5.0530    1.1020   20.1580 C   0  0  0  0  0  0  0  0  0  0  0  0
    6.1900    0.3010   20.1980 C   0  0  0  0  0  0  0  0  0  0  0  0
    6.8150   -0.0100   18.9960 C   0  0  0  0  0  0  0  0  0  0  0  0
    9.9350    2.9870   23.5950 C   0  0  0  0  0  0  0  0  0  0  0  0
   10.6770    4.1520   23.8110 C   0  0  0  0  0  0  0  0  0  0  0  0
   10.1040    5.3910   23.6020 C   0  0  0  0  0  0  0  0  0  0  0  0
    8.7890    5.4510   23.1620 C   0  0  0  0  0  0  0  0  0  0  0  0
    7.9420    4.3580   22.9070 C   0  0  0  0  0  0  0  0  0  0  0  0
    8.4730    3.0650   23.1190 C   0  0  0  0  0  0  0  0  0  0  0  0
    9.7330   -1.0370   21.9130 C   0  0  0  0  0  0  0  0  0  0  0  0
   11.0060   -1.0760   22.8350 C   0  0  0  0  0  0  0  0  0  0  0  0
   10.9860   -1.7950   24.2000 C   0  0  0  0  0  0  0  0  0  0  0  0
    9.7290   -2.5520   24.7070 C   0  0  0  0  0  0  0  0  0  0  0  0
    8.6070   -2.3330   23.5900 C   0  0  0  0  0  0  0  0  0  0  0  0
    8.5420   -1.6670   22.3510 C   0  0  0  0  0  0  0  0  0  0  0  0
    8.8070   -5.0080   26.9530 C   0  0  0  0  0  0  0  0  0  0  0  0
    7.6610   -4.2000   26.8580 C   0  0  0  0  0  0  0  0  0  0  0  0
    7.5360   -3.0810   25.9900 C   0  0  0  0  0  0  0  0  0  0  0  0
    8.4290   -3.1490   24.8610 N   0  0  0  0  0  0  0  0  0  0  0  0
    8.7620   -4.4880   24.6040 C   0  0  0  0  0  0  0  0  0  0  0  0
    9.6750   -4.9680   25.7200 C   0  0  0  0  0  0  0  0  0  0  0  0
   12.3780   -1.5450   24.7640 C   0  0  0  0  0  0  0  0  0  0  0  0
   12.4680   -0.2740   22.3240 S   0  0  0  0  0  0  0  0  0  0  0  0
   12.9420   -0.8270   23.8020 C   0  0  0  0  0  0  0  0  0  0  0  0
  2  4  1  0
  1  7  1  0
  3  7  2  0
  4  7  1  0
  1  9  1  0
  5 11  1  0
  6 11  2  0
  9 11  1  6
  8 13  1  0
 10 14  1  0
 10 15  1  0
 17 18  2  0
 18 19  1  0
 19 20  2  0
  9 21  1  0
 20 21  1  0
 17 22  1  0
 21 22  2  0
 12 23  1  0
 23 24  2  0
  8 25  1  0
 24 25  1  0
 25 26  2  0
 26 27  1  0
  5 28  1  0
 23 28  1  0
 27 28  2  0
 29 30  2  0
 30 31  1  0
 31 32  2  0
 32 33  1  0
  1 34  1  0
 29 34  1  0
 33 34  2  0
 16 35  1  0
 35 36  1  0
 36 37  1  0
 32 38  1  0
 37 38  1  0
 38 39  1  0
 35 40  1  0
 39 40  1  0
 31 41  1  0
 30 42  1  0
 14 43  1  0
 41 43  2  0
 42 43  1  0
M  END
