x0387-x2779
     RDKit          3D

 22 24  0  0  0  0  0  0  0  0999 V2000
    7.3090   -2.9850   18.7470 C   0  0  0  0  0  0  0  0  0  0  0  0
    5.4930   -4.1110   19.7760 O   0  0  0  0  0  0  0  0  0  0  0  0
    6.4310   -3.3000   19.9320 C   0  0  0  0  0  0  0  0  0  0  0  0
    9.2500   -4.5020   27.7340 O   0  0  0  0  0  0  0  0  0  0  0  0
    6.7540   -2.6690   21.1420 N   0  0  0  0  0  0  0  0  0  0  0  0
    7.6250   -1.4920   21.3150 C   0  0  0  0  0  0  0  0  0  0  0  0
    8.9920   -1.7540   22.0020 C   0  0  0  0  0  0  0  0  0  0  0  0
    8.7660   -2.7370   23.1170 N   0  0  0  0  0  0  0  0  0  0  0  0
    7.8510   -3.7500   22.7930 C   0  0  0  0  0  0  0  0  0  0  0  0
    6.5410   -3.2360   22.3940 C   0  0  0  0  0  0  0  0  0  0  0  0
    9.1000   -4.7290   26.3360 C   0  0  1  0  0  0  0  0  0  0  0  0
    8.1060   -4.1610   25.9710 C   0  0  0  0  0  0  0  0  0  0  0  0
    8.2600   -2.7560   25.3380 C   0  0  0  0  0  0  0  0  0  0  0  0
    9.3360   -2.6250   24.4530 C   0  0  1  0  0  0  0  0  0  0  0  0
   10.4680   -3.3700   24.8310 C   0  0  0  0  0  0  0  0  0  0  0  0
   10.3320   -4.4340   25.7350 C   0  0  0  0  0  0  0  0  0  0  0  0
   12.6180   -1.4350   22.5620 C   0  0  0  0  0  0  0  0  0  0  0  0
   11.2890   -1.7190   22.7650 C   0  0  0  0  0  0  0  0  0  0  0  0
   10.6560   -0.7180   23.5290 C   0  0  0  0  0  0  0  0  0  0  0  0
   11.6880    0.1980   23.8580 C   0  0  0  0  0  0  0  0  0  0  0  0
   12.8980   -0.1480   23.2770 C   0  0  0  0  0  0  0  0  0  0  0  0
    9.9430   -1.2450   24.5850 C   0  0  0  0  0  0  0  0  0  0  0  0
  1  3  1  0
  2  3  2  0
  3  5  1  0
  5  6  1  0
  6  7  1  0
  7  8  1  0
  8  9  1  0
  5 10  1  0
  9 10  1  0
 11  4  1  1
 11 12  1  0
 12 13  1  0
  8 14  1  0
 13 14  1  0
 14 15  1  0
 11 16  1  0
 15 16  1  0
 17 18  2  0
 18 19  1  0
 19 20  1  0
 17 21  1  0
 20 21  2  0
 14 22  1  6
 19 22  1  0
M  END
