x0387-x2608
     RDKit          3D

 24 26  0  0  0  0  0  0  0  0999 V2000
    8.2110   -0.6320   22.5240 N   0  0  0  0  0  0  0  0  0  0  0  0
   13.0050    1.4250   22.9980 C   0  0  0  0  0  0  0  0  0  0  0  0
    8.4200    1.2790   20.8810 O   0  0  0  0  0  0  0  0  0  0  0  0
    6.7720   -0.5980   20.7500 N   0  0  0  0  0  0  0  0  0  0  0  0
    7.8140    0.0590   21.3480 C   0  0  0  0  0  0  0  0  0  0  0  0
    8.5130   -4.2560   27.3390 O   0  0  0  0  0  0  0  0  0  0  0  0
    9.9890   -2.7940   23.4460 C   0  0  0  0  0  0  0  0  0  0  0  0
   11.8960    0.4520   23.0220 C   0  0  0  0  0  0  0  0  0  0  0  0
   11.7940   -0.9160   23.3370 C   0  0  0  0  0  0  0  0  0  0  0  0
   10.3580   -1.3520   23.1580 C   0  0  0  0  0  0  0  0  0  0  0  0
    9.5820   -0.3560   22.7560 C   0  0  0  0  0  0  0  0  0  0  0  0
   10.3800    1.1090   22.5750 S   0  0  0  0  0  0  0  0  0  0  0  0
    6.1620    0.9250   17.5840 N   0  0  0  0  0  0  0  0  0  0  0  0
    6.6520    0.2410   18.6080 C   0  0  0  0  0  0  0  0  0  0  0  0
    6.0590    0.1280   19.8340 C   0  0  0  0  0  0  0  0  0  0  0  0
    4.8450    0.7430   20.0670 C   0  0  0  0  0  0  0  0  0  0  0  0
    4.2920    1.4720   19.0240 C   0  0  0  0  0  0  0  0  0  0  0  0
    4.9910    1.5350   17.8180 C   0  0  0  0  0  0  0  0  0  0  0  0
    8.9370   -4.8310   26.1040 C   0  0  1  0  0  0  0  0  0  0  0  0
    8.5060   -4.0540   25.0090 C   0  0  0  0  0  0  0  0  0  0  0  0
    9.1760   -2.8480   24.7570 C   0  0  1  0  0  0  0  0  0  0  0  0
   10.2100   -2.6230   25.7140 N   0  0  0  0  0  0  0  0  0  0  0  0
   11.0550   -3.8050   25.6200 C   0  0  0  0  0  0  0  0  0  0  0  0
   10.4440   -4.9250   26.1520 C   0  0  0  0  0  0  0  0  0  0  0  0
  1  5  1  0
  3  5  2  0
  4  5  1  0
  2  8  1  0
  8  9  2  0
  7 10  1  0
  9 10  1  0
  1 11  1  0
 10 11  2  0
  8 12  1  0
 11 12  1  0
 13 14  2  0
  4 15  1  0
 14 15  1  0
 15 16  2  0
 16 17  1  0
 13 18  1  0
 17 18  2  0
 19  6  1  1
 19 20  1  0
 21  7  1  6
 20 21  1  0
 21 22  1  0
 22 23  1  0
 19 24  1  0
 23 24  1  0
M  END
