x0387-x0354
     RDKit          3D

 23 26  0  0  0  0  0  0  0  0999 V2000
   13.2130   -1.0950   22.3460 C   0  0  0  0  0  0  0  0  0  0  0  0
    7.4150   -0.7170   27.4150 O   0  0  0  0  0  0  0  0  0  0  0  0
    8.7530   -1.1170   25.4130 C   0  0  0  0  0  0  0  0  0  0  0  0
    8.4360   -0.4040   26.5560 C   0  0  0  0  0  0  0  0  0  0  0  0
    5.7750    3.6850   30.8300 C   0  0  0  0  0  0  0  0  0  0  0  0
    8.3120   -5.4240   24.8650 O   0  0  0  0  0  0  0  0  0  0  0  0
   12.3990   -1.2560   23.4420 N   0  0  0  0  0  0  0  0  0  0  0  0
   11.4250   -2.2840   23.1290 C   0  0  0  0  0  0  0  0  0  0  0  0
   10.2750   -2.3510   23.9810 C   0  0  1  0  0  0  0  0  0  0  0  0
    9.8990   -1.0200   24.5550 N   0  0  0  0  0  0  0  0  0  0  0  0
   11.0130   -0.0750   24.7380 C   0  0  0  0  0  0  0  0  0  0  0  0
   11.7260   -0.0570   23.7830 C   0  0  0  0  0  0  0  0  0  0  0  0
    7.7240    1.4510   28.3150 C   0  0  0  0  0  0  0  0  0  0  0  0
    7.3630    2.5590   29.1380 C   0  0  0  0  0  0  0  0  0  0  0  0
    6.2030    2.5010   29.9250 C   0  0  0  0  0  0  0  0  0  0  0  0
    5.4690    1.3330   29.8430 C   0  0  0  0  0  0  0  0  0  0  0  0
    5.8150    0.2490   29.0430 C   0  0  0  0  0  0  0  0  0  0  0  0
    6.9530    0.2740   28.2530 C   0  0  0  0  0  0  0  0  0  0  0  0
    8.4250   -4.1700   24.3900 C   0  0  1  0  0  0  0  0  0  0  0  0
    7.5160   -3.1680   24.8390 C   0  0  0  0  0  0  0  0  0  0  0  0
    8.3910   -2.1970   24.6760 C   0  0  0  0  0  0  0  0  0  0  0  0
    9.1670   -2.2770   23.4020 N   0  0  0  0  0  0  0  0  0  0  0  0
    9.8280   -3.7650   24.4480 C   0  0  0  0  0  0  0  0  0  0  0  0
  2  4  1  0
  3  4  1  0
  1  7  1  0
  7  8  1  0
  9  8  1  6
  3 10  1  0
  9 10  1  0
 10 11  1  0
  7 12  1  0
 11 12  1  0
 13 14  2  0
  5 15  1  0
 14 15  1  0
 15 16  2  0
 16 17  1  0
  2 18  1  0
 13 18  1  0
 17 18  2  0
 19  6  1  1
 19 20  1  0
  3 21  2  0
 20 21  1  0
  9 22  1  0
 21 22  1  0
  9 23  1  0
 19 23  1  0
M  END
