x0387-x3077
     RDKit          3D

 25 28  0  0  0  0  0  0  0  0999 V2000
    6.9930   -3.2070   19.1840 C   0  0  0  0  0  0  0  0  0  0  0  0
    5.2230   -4.6430   19.8810 O   0  0  0  0  0  0  0  0  0  0  0  0
    6.1630   -3.9520   20.2130 C   0  0  0  0  0  0  0  0  0  0  0  0
    8.6630   -5.5540   27.4980 O   0  0  0  0  0  0  0  0  0  0  0  0
    6.5050   -3.9070   21.5310 N   0  0  0  0  0  0  0  0  0  0  0  0
    7.0630   -4.9540   22.3150 C   0  0  0  0  0  0  0  0  0  0  0  0
    7.4130   -4.1610   23.5340 C   0  0  2  0  0  0  0  0  0  0  0  0
    6.3620   -3.0080   23.5820 C   0  0  0  0  0  0  0  0  0  0  0  0
    6.9080   -2.7640   22.2200 C   0  0  1  0  0  0  0  0  0  0  0  0
    8.7390   -3.5410   23.2850 N   0  0  0  0  0  0  0  0  0  0  0  0
    8.3540   -2.5690   22.2130 C   0  0  0  0  0  0  0  0  0  0  0  0
    9.1670   -4.3830   26.9160 C   0  0  2  0  0  0  0  0  0  0  0  0
    7.9890   -3.6600   26.2480 C   0  0  0  0  0  0  0  0  0  0  0  0
    8.3480   -2.7040   25.2880 C   0  0  0  0  0  0  0  0  0  0  0  0
    9.4070   -2.9670   24.4330 C   0  0  1  0  0  0  0  0  0  0  0  0
   10.4440   -3.7120   24.9740 C   0  0  0  0  0  0  0  0  0  0  0  0
   10.2300   -4.7430   25.8880 C   0  0  0  0  0  0  0  0  0  0  0  0
   13.1270   -2.0450   21.3870 Cl  0  0  0  0  0  0  0  0  0  0  0  0
   11.3270    0.7700   24.0470 C   0  0  0  0  0  0  0  0  0  0  0  0
   12.4450    1.1160   23.4100 C   0  0  0  0  0  0  0  0  0  0  0  0
   12.9330    0.1630   22.6160 C   0  0  0  0  0  0  0  0  0  0  0  0
   12.2880   -1.0550   22.4950 C   0  0  0  0  0  0  0  0  0  0  0  0
   11.1100   -1.5790   23.1010 C   0  0  0  0  0  0  0  0  0  0  0  0
   10.7850   -0.4600   23.8630 C   0  0  0  0  0  0  0  0  0  0  0  0
    9.8580   -1.7400   23.9380 C   0  0  0  0  0  0  0  0  0  0  0  0
  1  3  1  0
  2  3  2  0
  3  5  1  0
  5  6  1  0
  7  6  1  6
  7  8  1  0
  5  9  1  0
  8  9  1  0
  7 10  1  0
  9 11  1  1
 10 11  1  0
 12  4  1  6
 12 13  1  0
 13 14  1  0
 10 15  1  0
 14 15  1  0
 15 16  1  0
 12 17  1  0
 16 17  1  0
 19 20  2  0
 20 21  1  0
 18 22  1  0
 21 22  2  0
 22 23  1  0
 19 24  1  0
 23 24  2  0
 15 25  1  6
 23 25  1  0
M  END
