x0387-x0755
     RDKit          3D

 35 39  0  0  0  0  0  0  0  0999 V2000
    4.7190   -3.9610   26.7050 O   0  0  0  0  0  0  0  0  0  0  0  0
    6.8430   -3.9160   26.8100 C   0  0  0  0  0  0  0  0  0  0  0  0
    5.4730   -4.4440   19.9040 O   0  0  0  0  0  0  0  0  0  0  0  0
    6.4620   -4.5970   20.6320 C   0  0  0  0  0  0  0  0  0  0  0  0
    7.7380   -3.7810   20.4010 C   0  0  0  0  0  0  0  0  0  0  0  0
    2.9900   -5.7810   25.4470 F   0  0  0  0  0  0  0  0  0  0  0  0
    4.8590   -1.4320   25.9030 F   0  0  0  0  0  0  0  0  0  0  0  0
    5.6110   -4.0500   25.5730 S   0  0  2  0  0  0  0  0  0  0  0  0
    8.7470   -5.8370   27.2740 O   0  0  0  0  0  0  0  0  0  0  0  0
    8.9560   -1.7230   24.5650 C   0  0  0  0  0  0  0  0  0  0  0  0
    8.0450   -3.8490   27.6620 C   0  0  0  0  0  0  0  0  0  0  0  0
    8.6000   -5.0570   28.1700 C   0  0  0  0  0  0  0  0  0  0  0  0
    2.9270   -4.4570   25.5980 C   0  0  0  0  0  0  0  0  0  0  0  0
    3.9210   -3.7430   25.6530 C   0  0  0  0  0  0  0  0  0  0  0  0
    3.7830   -2.2280   25.8330 C   0  0  0  0  0  0  0  0  0  0  0  0
    2.5260   -1.7080   25.9260 C   0  0  0  0  0  0  0  0  0  0  0  0
    1.4120   -2.5000   25.8630 C   0  0  0  0  0  0  0  0  0  0  0  0
    1.6180   -3.8770   25.6990 C   0  0  0  0  0  0  0  0  0  0  0  0
    6.4380   -5.5240   21.6600 N   0  0  0  0  0  0  0  0  0  0  0  0
    7.3800   -5.4790   22.7360 C   0  0  0  0  0  0  0  0  0  0  0  0
    7.0820   -4.3220   23.4000 C   0  0  0  0  0  0  0  0  0  0  0  0
    5.7360   -4.4210   23.9270 N   0  0  0  0  0  0  0  0  0  0  0  0
    5.0250   -5.4920   23.5280 C   0  0  0  0  0  0  0  0  0  0  0  0
    5.1240   -5.8050   22.1710 C   0  0  0  0  0  0  0  0  0  0  0  0
    8.9070   -5.2130   26.0850 C   0  0  1  0  0  0  0  0  0  0  0  0
    8.2340   -3.9970   25.9340 C   0  0  1  0  0  0  0  0  0  0  0  0
    8.4370   -3.2110   24.7020 C   0  0  2  0  0  0  0  0  0  0  0  0
    9.6020   -3.7740   24.0380 N   0  0  0  0  0  0  0  0  0  0  0  0
   10.6180   -3.8110   25.0150 C   0  0  0  0  0  0  0  0  0  0  0  0
   10.3990   -4.9270   26.0120 C   0  0  0  0  0  0  0  0  0  0  0  0
   11.3190   -0.3310   24.2900 C   0  0  0  0  0  0  0  0  0  0  0  0
   10.3510   -1.4570   23.8900 C   0  0  0  0  0  0  0  0  0  0  0  0
   11.0790   -2.1660   22.7530 C   0  0  0  0  0  0  0  0  0  0  0  0
   12.6200   -1.5340   22.3230 S   0  0  0  0  0  0  0  0  0  0  0  0
   12.5380   -0.2970   23.5150 C   0  0  0  0  0  0  0  0  0  0  0  0
  3  4  2  0
  4  5  1  0
  1  8  2  0
  2  8  2  0
  2 11  1  0
  9 12  1  0
 11 12  1  0
  6 13  1  0
  8 14  1  6
 13 14  2  0
  7 15  1  0
 14 15  1  0
 15 16  2  0
 16 17  1  0
 13 18  1  0
 17 18  2  0
  4 19  1  0
 19 20  1  0
 20 21  1  0
  8 22  1  0
 21 22  1  0
 22 23  1  0
 19 24  1  0
 23 24  1  0
  9 25  1  0
 26  2  1  6
 25 26  1  0
 27 10  1  1
 26 27  1  0
 27 28  1  0
 28 29  1  0
 25 30  1  1
 29 30  1  0
 10 32  1  0
 31 32  1  0
 32 33  2  0
 33 34  1  0
 31 35  2  0
 34 35  1  0
M  END
