x0387-x2643
     RDKit          3D

 24 26  0  0  0  0  0  0  0  0999 V2000
    6.7430   -0.8840   20.8750 N   0  0  0  0  0  0  0  0  0  0  0  0
    8.7500    0.4950   21.4440 O   0  0  0  0  0  0  0  0  0  0  0  0
   13.4730   -0.0480   22.6420 Cl  0  0  0  0  0  0  0  0  0  0  0  0
    8.2760   -1.5430   22.8490 C   0  0  0  0  0  0  0  0  0  0  0  0
    7.9090   -0.6330   21.6890 C   0  0  0  0  0  0  0  0  0  0  0  0
    8.1510   -4.4130   27.6860 O   0  0  0  0  0  0  0  0  0  0  0  0
    8.6470   -1.9000   24.5250 C   0  0  0  0  0  0  0  0  0  0  0  0
   11.9560   -0.6000   23.0490 C   0  0  0  0  0  0  0  0  0  0  0  0
   11.5010   -1.0500   24.2100 C   0  0  0  0  0  0  0  0  0  0  0  0
   10.1030   -1.5300   24.6070 C   0  0  0  0  0  0  0  0  0  0  0  0
    9.7350   -1.2590   23.2340 C   0  0  0  0  0  0  0  0  0  0  0  0
   10.7110   -0.6690   22.0170 S   0  0  0  0  0  0  0  0  0  0  0  0
    6.3300    0.7670   17.6180 N   0  0  0  0  0  0  0  0  0  0  0  0
    6.8470   -0.0360   18.6960 C   0  0  0  0  0  0  0  0  0  0  0  0
    6.1250   -0.0620   19.8610 C   0  0  0  0  0  0  0  0  0  0  0  0
    4.9430    0.6410   20.0090 C   0  0  0  0  0  0  0  0  0  0  0  0
    4.4490    1.4160   18.9620 C   0  0  0  0  0  0  0  0  0  0  0  0
    5.1740    1.4590   17.7760 C   0  0  0  0  0  0  0  0  0  0  0  0
    8.2390   -5.0650   26.4250 C   0  0  1  0  0  0  0  0  0  0  0  0
    7.8230   -4.1520   25.4120 C   0  0  0  0  0  0  0  0  0  0  0  0
    8.8030   -3.2000   25.2830 C   0  0  1  0  0  0  0  0  0  0  0  0
    9.9930   -3.8140   24.7570 N   0  0  0  0  0  0  0  0  0  0  0  0
   10.5180   -4.5030   25.9090 C   0  0  0  0  0  0  0  0  0  0  0  0
    9.6910   -5.5330   26.3050 C   0  0  0  0  0  0  0  0  0  0  0  0
  1  5  1  0
  2  5  2  0
  4  5  1  0
  3  8  1  0
  8  9  2  0
  7 10  1  0
  9 10  1  0
  4 11  1  0
 10 11  2  0
  8 12  1  0
 11 12  1  0
 13 14  2  0
  1 15  1  0
 14 15  1  0
 15 16  2  0
 16 17  1  0
 13 18  1  0
 17 18  2  0
 19  6  1  1
 19 20  1  0
 21  7  1  6
 20 21  1  0
 21 22  1  0
 22 23  1  0
 19 24  1  0
 23 24  1  0
M  END
