x0387-x1374
     RDKit          3D

 26 28  0  0  0  0  0  0  0  0999 V2000
   10.6090   -4.1070   26.0020 C   0  0  0  0  0  0  0  0  0  0  0  0
    6.4160   -4.6670   21.9420 N   0  0  0  0  0  0  0  0  0  0  0  0
    6.5660   -4.2080   20.6330 C   0  0  0  0  0  0  0  0  0  0  0  0
    5.6390   -4.2470   19.8160 O   0  0  0  0  0  0  0  0  0  0  0  0
    7.9860   -3.6380   20.3710 C   0  0  0  0  0  0  0  0  0  0  0  0
    2.2230   -6.8090   23.1910 O   0  0  0  0  0  0  0  0  0  0  0  0
    4.3050   -7.8300   24.8360 O   0  0  0  0  0  0  0  0  0  0  0  0
    9.7860   -2.1000   24.6710 C   0  0  0  0  0  0  0  0  0  0  0  0
    9.5860   -4.1700   24.9330 C   0  0  0  0  0  0  0  0  0  0  0  0
    8.9930   -3.1410   24.1020 C   0  0  0  0  0  0  0  0  0  0  0  0
    8.0030   -3.5910   23.2260 C   0  0  0  0  0  0  0  0  0  0  0  0
    7.4380   -4.5280   22.8780 C   0  0  0  0  0  0  0  0  0  0  0  0
    8.0160   -5.7030   23.6820 C   0  0  0  0  0  0  0  0  0  0  0  0
    9.0480   -5.4780   24.6620 C   0  0  0  0  0  0  0  0  0  0  0  0
    4.9880   -4.2880   23.6580 C   0  0  0  0  0  0  0  0  0  0  0  0
    5.1990   -5.0350   22.4980 C   0  0  2  0  0  0  0  0  0  0  0  0
    5.0930   -6.4310   22.5640 C   0  0  0  0  0  0  0  0  0  0  0  0
    3.9110   -6.6130   23.8830 S   0  0  0  0  0  0  0  0  0  0  0  0
    4.1720   -5.1530   24.6400 C   0  0  0  0  0  0  0  0  0  0  0  0
   11.7470   -0.5280   24.1630 C   0  0  0  0  0  0  0  0  0  0  0  0
   11.0070   -1.6620   23.8200 C   0  0  0  0  0  0  0  0  0  0  0  0
   11.4970   -2.2880   22.6960 C   0  0  0  0  0  0  0  0  0  0  0  0
   12.8770   -1.4940   22.0620 S   0  0  0  0  0  0  0  0  0  0  0  0
   12.8020   -0.3010   23.2940 C   0  0  0  0  0  0  0  0  0  0  0  0
    8.8970   -4.2610   27.6740 O   0  0  0  0  0  0  0  0  0  0  0  0
    9.9930   -4.8920   27.1680 C   0  0  0  0  0  0  0  0  0  0  0  0
  2  3  1  0
  3  4  2  0
  3  5  1  0
  1  9  1  0
  8 10  1  0
  9 10  2  0
 10 11  1  0
  2 12  1  0
 11 12  2  0
 12 13  1  0
  9 14  1  0
 13 14  2  0
 16  2  1  1
 15 16  1  0
 16 17  1  0
 18  6  1  0
  7 18  1  0
 17 18  1  0
 15 19  2  0
 18 19  1  0
  8 21  1  0
 20 21  1  0
 21 22  2  0
 22 23  1  0
 20 24  2  0
 23 24  1  0
  1 26  1  0
 25 26  1  0
M  END
