x0387-x1380
     RDKit          3D

 30 34  0  0  0  0  0  0  0  0999 V2000
    7.1440   -3.2510   19.2670 C   0  0  0  0  0  0  0  0  0  0  0  0
    5.2290   -4.5580   19.8770 O   0  0  0  0  0  0  0  0  0  0  0  0
    6.2740   -4.0390   20.2390 C   0  0  0  0  0  0  0  0  0  0  0  0
    4.6280   -2.8910   25.2920 O   0  0  0  0  0  0  0  0  0  0  0  0
    5.7920   -3.2500   25.3200 C   0  0  0  0  0  0  0  0  0  0  0  0
    8.8380   -3.8120   27.1630 O   0  0  0  0  0  0  0  0  0  0  0  0
    9.3760   -2.0240   24.6740 C   0  0  0  0  0  0  0  0  0  0  0  0
    6.7150   -4.2060   21.5280 N   0  0  0  0  0  0  0  0  0  0  0  0
    6.3100   -5.3600   22.3990 C   0  0  0  0  0  0  0  0  0  0  0  0
    5.9140   -5.0180   23.7670 C   0  0  0  0  0  0  0  0  0  0  0  0
    6.4520   -3.7100   24.0110 C   0  0  0  0  0  0  0  0  0  0  0  0
    6.8290   -2.6940   23.5880 C   0  0  0  0  0  0  0  0  0  0  0  0
    7.3050   -3.0110   22.1580 C   0  0  0  0  0  0  0  0  0  0  0  0
    7.7950   -4.1660   26.6450 C   0  0  1  0  0  0  0  0  0  0  0  0
    7.4390   -5.3200   27.3490 C   0  0  0  0  0  0  0  0  0  0  0  0
    7.0650   -4.9730   28.6190 C   0  0  0  0  0  0  0  0  0  0  0  0
    5.9640   -4.1170   28.7230 C   0  0  0  0  0  0  0  0  0  0  0  0
    5.9490   -2.9950   27.8800 C   0  0  0  0  0  0  0  0  0  0  0  0
    6.5840   -3.2510   26.5740 N   0  0  0  0  0  0  0  0  0  0  0  0
    9.4250   -4.8370   26.3590 C   0  0  1  0  0  0  0  0  0  0  0  0
    8.5870   -4.4290   25.3050 C   0  0  2  0  0  0  0  0  0  0  0  0
    9.0780   -3.4690   24.2970 C   0  0  2  0  0  0  0  0  0  0  0  0
   10.4290   -3.8100   23.9620 N   0  0  0  0  0  0  0  0  0  0  0  0
   11.1530   -3.6600   25.1700 C   0  0  0  0  0  0  0  0  0  0  0  0
   10.8310   -4.6570   26.0220 C   0  0  0  0  0  0  0  0  0  0  0  0
   11.5260   -0.2950   24.3020 C   0  0  0  0  0  0  0  0  0  0  0  0
   10.6660   -1.5080   23.9450 C   0  0  0  0  0  0  0  0  0  0  0  0
   11.2850   -2.1910   22.7000 C   0  0  0  0  0  0  0  0  0  0  0  0
   12.7160   -1.3720   22.1770 S   0  0  0  0  0  0  0  0  0  0  0  0
   12.6130   -0.1260   23.4550 C   0  0  0  0  0  0  0  0  0  0  0  0
  1  3  1  0
  2  3  2  0
  4  5  2  0
  3  8  1  0
  8  9  1  0
  9 10  1  0
  5 11  1  0
 10 11  1  0
 11 12  1  0
  8 13  1  0
 12 13  1  0
 14  6  1  0
 14 15  1  1
 15 16  1  0
 16 17  1  0
 17 18  1  0
  5 19  1  0
 14 19  1  0
 18 19  1  0
  6 20  1  0
 14 21  1  0
 20 21  1  0
 22  7  1  1
 21 22  1  1
 22 23  1  0
 23 24  1  0
 20 25  1  6
 24 25  1  0
  7 27  1  0
 26 27  1  0
 27 28  2  0
 28 29  1  0
 26 30  2  0
 29 30  1  0
M  END
