x0387-x1336
     RDKit          3D

 28 30  0  0  0  0  0  0  0  0999 V2000
    5.9620   -5.6190   28.8650 C   0  0  0  0  0  0  0  0  0  0  0  0
    8.5750   -0.9910   25.3580 O   0  0  0  0  0  0  0  0  0  0  0  0
    5.7990   -1.5080   25.7310 O   0  0  0  0  0  0  0  0  0  0  0  0
    5.4210   -4.1330   19.7280 O   0  0  0  0  0  0  0  0  0  0  0  0
   10.3520   -3.1280   25.3930 C   0  0  0  0  0  0  0  0  0  0  0  0
    6.4640   -3.5200   19.9840 C   0  0  0  0  0  0  0  0  0  0  0  0
    7.3910   -3.0700   18.8640 C   0  0  0  0  0  0  0  0  0  0  0  0
    7.5280   -1.9850   25.3470 S   0  0  0  0  0  0  0  0  0  0  0  0
    8.1390   -4.3870   27.1360 O   0  0  0  0  0  0  0  0  0  0  0  0
    7.0310   -4.9950   27.9890 C   0  0  0  0  0  0  0  0  0  0  0  0
    6.8640   -3.8180   27.0710 C   0  0  0  0  0  0  0  0  0  0  0  0
    8.0660   -3.3980   26.3300 C   0  0  0  0  0  0  0  0  0  0  0  0
    9.2140   -3.6890   26.1980 C   0  0  0  0  0  0  0  0  0  0  0  0
    9.2340   -4.8630   27.1510 C   0  0  0  0  0  0  0  0  0  0  0  0
    8.3650   -5.5360   27.9870 C   0  0  0  0  0  0  0  0  0  0  0  0
    6.8390   -3.2710   21.2850 N   0  0  0  0  0  0  0  0  0  0  0  0
    6.7660   -4.2450   22.2510 C   0  0  0  0  0  0  0  0  0  0  0  0
    6.4520   -3.6280   23.4500 C   0  0  0  0  0  0  0  0  0  0  0  0
    7.4990   -2.6120   23.7600 N   0  0  0  0  0  0  0  0  0  0  0  0
    7.6670   -1.6200   22.7020 C   0  0  0  0  0  0  0  0  0  0  0  0
    7.8940   -2.2550   21.4870 C   0  0  0  0  0  0  0  0  0  0  0  0
   12.0300    0.1490   23.7420 C   0  0  0  0  0  0  0  0  0  0  0  0
   11.2870   -0.9740   23.4600 C   0  0  0  0  0  0  0  0  0  0  0  0
   11.6100   -2.0340   22.5530 C   0  0  0  0  0  0  0  0  0  0  0  0
   13.1240   -1.2630   22.1290 S   0  0  0  0  0  0  0  0  0  0  0  0
   13.1340    0.1430   23.0420 C   0  0  0  0  0  0  0  0  0  0  0  0
   10.4640   -3.4960   23.9350 C   0  0  0  0  0  0  0  0  0  0  0  0
   10.3950   -2.4480   23.0270 C   0  0  0  0  0  0  0  0  0  0  0  0
  4  6  2  0
  6  7  1  0
  2  8  2  0
  3  8  2  0
  1 10  1  0
 10 11  2  0
  8 12  1  0
 11 12  1  0
  5 13  1  0
 12 13  2  0
  9 14  1  0
 13 14  1  0
 10 15  1  0
 14 15  2  0
  6 16  1  0
 16 17  1  0
 17 18  1  0
  8 19  1  0
 18 19  1  0
 19 20  1  0
 16 21  1  0
 20 21  1  0
 22 23  1  0
 23 24  2  0
 24 25  1  0
 22 26  2  0
 25 26  1  0
  5 27  1  0
 24 28  1  0
 27 28  1  0
M  END
