x0387-x0830
     RDKit          3D

 27 30  0  0  0  0  0  0  0  0999 V2000
    7.7200   -3.5840   19.5760 C   0  0  0  0  0  0  0  0  0  0  0  0
    5.5050   -3.1430   19.0430 O   0  0  0  0  0  0  0  0  0  0  0  0
    6.4720   -2.8270   19.7680 C   0  0  0  0  0  0  0  0  0  0  0  0
    9.4240   -2.0240   23.7310 C   0  0  2  0  0  0  0  0  0  0  0  0
    9.2440   -5.4010   27.9560 O   0  0  0  0  0  0  0  0  0  0  0  0
    6.5000   -1.9080   20.7830 N   0  0  0  0  0  0  0  0  0  0  0  0
    6.2020   -2.5190   22.0820 C   0  0  0  0  0  0  0  0  0  0  0  0
    7.3880   -2.9740   22.6790 C   0  0  0  0  0  0  0  0  0  0  0  0
    8.3630   -1.8760   22.7740 N   0  0  0  0  0  0  0  0  0  0  0  0
    8.7330   -1.4040   21.4480 C   0  0  0  0  0  0  0  0  0  0  0  0
    7.5710   -0.8950   20.8340 C   0  0  0  0  0  0  0  0  0  0  0  0
   11.8930   -1.9390   22.7750 C   0  0  0  0  0  0  0  0  0  0  0  0
   13.0390   -1.2350   22.4610 C   0  0  0  0  0  0  0  0  0  0  0  0
   13.0160    0.1280   22.7440 C   0  0  0  0  0  0  0  0  0  0  0  0
   11.8820    0.7200   23.3060 C   0  0  0  0  0  0  0  0  0  0  0  0
   10.6970    0.0730   23.6520 C   0  0  0  0  0  0  0  0  0  0  0  0
   10.7740   -1.3430   23.3380 C   0  0  0  0  0  0  0  0  0  0  0  0
   11.9070    2.0840   23.5500 C   0  0  0  0  0  0  0  0  0  0  0  0
   10.8310    2.7650   24.1100 C   0  0  0  0  0  0  0  0  0  0  0  0
    9.6820    2.0830   24.4470 C   0  0  0  0  0  0  0  0  0  0  0  0
    9.6050    0.7370   24.2160 C   0  0  0  0  0  0  0  0  0  0  0  0
    9.3440   -4.6110   26.7870 C   0  0  0  0  0  0  0  0  0  0  0  0
    8.2910   -4.9190   25.7850 C   0  0  0  0  0  0  0  0  0  0  0  0
    8.1780   -3.6510   24.9910 C   0  0  0  0  0  0  0  0  0  0  0  0
    9.4460   -3.3520   24.3010 N   0  0  0  0  0  0  0  0  0  0  0  0
   10.6840   -3.5400   25.0840 C   0  0  0  0  0  0  0  0  0  0  0  0
   10.6770   -4.6600   26.1030 C   0  0  0  0  0  0  0  0  0  0  0  0
  1  3  1  0
  2  3  2  0
  3  6  1  0
  6  7  1  0
  7  8  1  0
  4  9  1  0
  8  9  1  0
  9 10  1  0
  6 11  1  0
 10 11  1  0
 12 13  2  0
 13 14  1  0
 14 15  2  0
 15 16  1  0
  4 17  1  6
 12 17  1  0
 16 17  2  0
 15 18  1  0
 18 19  2  0
 19 20  1  0
 16 21  1  0
 20 21  2  0
  5 22  1  0
 22 23  1  0
 23 24  1  0
  4 25  1  0
 24 25  1  0
 25 26  1  0
 22 27  1  0
 26 27  1  0
M  END
