x0387-x1358
     RDKit          3D

 32 35  0  0  0  0  0  0  0  0999 V2000
    6.8200   -2.7940   25.7780 N   0  0  0  0  0  0  0  0  0  0  0  0
    6.0270   -0.2200   24.8890 O   0  0  0  0  0  0  0  0  0  0  0  0
    4.5890   -3.2720   25.3420 O   0  0  0  0  0  0  0  0  0  0  0  0
    5.1090   -3.9880   19.5490 O   0  0  0  0  0  0  0  0  0  0  0  0
    5.7870   -3.3210   25.0320 C   0  0  0  0  0  0  0  0  0  0  0  0
    6.2480   -3.7750   19.9290 C   0  0  0  0  0  0  0  0  0  0  0  0
    7.3010   -3.1230   19.0260 C   0  0  0  0  0  0  0  0  0  0  0  0
    8.2170   -3.9050   27.8560 O   0  0  0  0  0  0  0  0  0  0  0  0
    9.2700   -1.6090   24.1240 C   0  0  0  0  0  0  0  0  0  0  0  0
    6.0600   -0.4820   26.2920 C   0  0  0  0  0  0  0  0  0  0  0  0
    6.4640   -1.8190   26.7450 C   0  0  0  0  0  0  0  0  0  0  0  0
    6.4150   -1.9010   28.1720 C   0  0  0  0  0  0  0  0  0  0  0  0
    6.1720   -1.2550   29.1210 C   0  0  0  0  0  0  0  0  0  0  0  0
    5.7600    0.1760   28.7160 C   0  0  0  0  0  0  0  0  0  0  0  0
    5.7230    0.4790   27.3160 C   0  0  0  0  0  0  0  0  0  0  0  0
    6.6430   -4.1500   21.1990 N   0  0  0  0  0  0  0  0  0  0  0  0
    7.5950   -3.3400   21.9640 C   0  0  0  0  0  0  0  0  0  0  0  0
    6.9260   -2.9580   23.0920 C   0  0  0  0  0  0  0  0  0  0  0  0
    6.3370   -4.0140   23.7710 C   0  0  0  0  0  0  0  0  0  0  0  0
    5.3900   -4.6590   22.9960 C   0  0  0  0  0  0  0  0  0  0  0  0
    6.0710   -5.1620   21.8670 C   0  0  0  0  0  0  0  0  0  0  0  0
    8.4060   -4.4220   26.5460 C   0  0  1  0  0  0  0  0  0  0  0  0
    8.1730   -3.4650   25.5470 C   0  0  2  0  0  0  0  0  0  0  0  0
    9.3270   -2.7160   25.2400 C   0  0  1  0  0  0  0  0  0  0  0  0
   10.2270   -3.6650   24.6130 N   0  0  0  0  0  0  0  0  0  0  0  0
   10.5850   -4.7680   25.4880 C   0  0  0  0  0  0  0  0  0  0  0  0
    9.8100   -4.9850   26.6160 C   0  0  0  0  0  0  0  0  0  0  0  0
   11.5390   -0.0210   23.8340 C   0  0  0  0  0  0  0  0  0  0  0  0
   10.6620   -1.2630   23.5740 C   0  0  0  0  0  0  0  0  0  0  0  0
   11.4960   -2.1060   22.6220 C   0  0  0  0  0  0  0  0  0  0  0  0
   13.0200   -1.4020   22.2180 S   0  0  0  0  0  0  0  0  0  0  0  0
   12.7610   -0.0120   23.1780 C   0  0  0  0  0  0  0  0  0  0  0  0
  1  5  1  0
  3  5  2  0
  4  6  2  0
  6  7  1  0
  2 10  1  0
  1 11  1  0
 10 11  2  0
 11 12  1  0
 12 13  2  0
 13 14  1  0
 10 15  1  0
 14 15  2  0
  6 16  1  0
 16 17  1  0
 17 18  1  0
  5 19  1  0
 18 19  1  0
 19 20  1  0
 16 21  1  0
 20 21  1  0
 22  8  1  1
 23  1  1  1
 22 23  1  0
 24  9  1  6
 23 24  1  0
 24 25  1  0
 25 26  1  0
 22 27  1  0
 26 27  1  0
  9 29  1  0
 28 29  1  0
 29 30  2  0
 30 31  1  0
 28 32  2  0
 31 32  1  0
M  END
