x0387-x2705
     RDKit          3D

 42 47  0  0  0  0  0  0  0  0999 V2000
    6.8940   -1.3430   21.3820 N   0  0  0  0  0  0  0  0  0  0  0  0
    6.8280   -4.7740   20.4920 C   0  0  0  0  0  0  0  0  0  0  0  0
    4.8010   -2.9190   21.0410 O   0  0  0  0  0  0  0  0  0  0  0  0
    6.8660   -3.8350   21.6880 C   0  0  0  0  0  0  0  0  0  0  0  0
    7.4840    2.0630   22.8400 N   0  0  0  0  0  0  0  0  0  0  0  0
    8.5640    1.2390   21.0300 O   0  0  0  0  0  0  0  0  0  0  0  0
    6.0550   -2.6090   21.3300 C   0  0  0  0  0  0  0  0  0  0  0  0
    6.4400    0.0940   21.5870 C   0  0  1  0  0  0  0  0  0  0  0  0
    7.5850    1.1470   21.7890 C   0  0  0  0  0  0  0  0  0  0  0  0
   10.3800    2.3070   23.7260 C   0  0  0  0  0  0  0  0  0  0  0  0
    9.6440    1.3470   24.5100 C   0  0  0  0  0  0  0  0  0  0  0  0
    5.9640    4.4920   21.9870 C   0  0  0  0  0  0  0  0  0  0  0  0
   12.1320   -1.5000   23.8450 C   0  0  1  0  0  0  0  0  0  0  0  0
   13.0210   -1.5630   24.9140 C   0  0  0  0  0  0  0  0  0  0  0  0
    9.3890   -5.4960   28.0090 O   0  0  0  0  0  0  0  0  0  0  0  0
    6.3420    0.2890   17.7360 N   0  0  0  0  0  0  0  0  0  0  0  0
    5.2040    1.2100   17.7150 C   0  0  0  0  0  0  0  0  0  0  0  0
    4.5980    1.6290   18.8870 C   0  0  0  0  0  0  0  0  0  0  0  0
    5.0620    1.2000   20.1200 C   0  0  0  0  0  0  0  0  0  0  0  0
    6.1410    0.3430   20.1610 C   0  0  0  0  0  0  0  0  0  0  0  0
    6.7840   -0.1260   19.0410 C   0  0  0  0  0  0  0  0  0  0  0  0
    9.5310   -2.2560   23.7830 C   0  0  0  0  0  0  0  0  0  0  0  0
    8.1410   -2.2490   23.3640 N   0  0  0  0  0  0  0  0  0  0  0  0
    8.1550   -1.5180   22.1430 C   0  0  0  0  0  0  0  0  0  0  0  0
    9.4520   -1.0890   21.9020 C   0  0  0  0  0  0  0  0  0  0  0  0
   10.4530   -1.4770   22.7930 C   0  0  1  0  0  0  0  0  0  0  0  0
    9.5180    3.4520   23.3160 C   0  0  0  0  0  0  0  0  0  0  0  0
   10.1840    4.8370   23.3710 C   0  0  0  0  0  0  0  0  0  0  0  0
    9.4630    6.1300   22.9730 C   0  0  0  0  0  0  0  0  0  0  0  0
    8.0110    5.9670   22.5000 C   0  0  0  0  0  0  0  0  0  0  0  0
    7.3890    4.5770   22.4650 C   0  0  0  0  0  0  0  0  0  0  0  0
    8.1720    3.3240   22.8920 C   0  0  0  0  0  0  0  0  0  0  0  0
    9.4970   -4.6490   26.8830 C   0  0  0  0  0  0  0  0  0  0  0  0
    8.4280   -4.7230   26.0710 C   0  0  0  0  0  0  0  0  0  0  0  0
    8.3670   -3.6880   25.1910 C   0  0  0  0  0  0  0  0  0  0  0  0
    9.6750   -2.9970   24.9920 N   0  0  0  0  0  0  0  0  0  0  0  0
   10.9530   -3.6690   25.2390 C   0  0  0  0  0  0  0  0  0  0  0  0
   10.7800   -4.7450   26.1020 C   0  0  0  0  0  0  0  0  0  0  0  0
   11.3850   -0.3330   23.3160 C   0  0  2  0  0  0  0  0  0  0  0  0
   11.3980   -2.1150   21.8670 C   0  0  0  0  0  0  0  0  0  0  0  0
   13.0580   -1.6270   22.3390 S   0  0  0  0  0  0  0  0  0  0  0  0
   12.9510   -0.4680   23.5860 C   0  0  0  0  0  0  0  0  0  0  0  0
  2  4  1  0
  1  7  1  0
  3  7  2  0
  4  7  1  0
  1  8  1  0
  5  9  1  0
  6  9  2  0
  8  9  1  6
 10 11  1  0
 13 14  1  1
 16 17  2  0
 17 18  1  0
 18 19  2  0
  8 20  1  0
 19 20  1  0
 16 21  1  0
 20 21  2  0
 22 23  2  0
  1 24  1  0
 23 24  1  0
 24 25  2  0
 26 22  1  0
 26 25  1  6
 10 27  1  0
 27 28  2  0
 28 29  1  0
 29 30  2  0
 12 31  1  0
 30 31  1  0
  5 32  1  0
 27 32  1  0
 31 32  2  0
 15 33  1  0
 33 34  1  0
 34 35  1  0
 22 36  1  0
 35 36  1  0
 36 37  1  0
 33 38  1  0
 37 38  1  0
 13 39  1  0
 26 39  1  0
 26 40  1  0
 13 41  1  0
 40 41  2  0
 39 42  1  6
 41 42  1  6
M  END
