x0387-x1308
     RDKit          3D

 34 38  0  0  0  0  0  0  0  0999 V2000
    7.4000   -3.4480   19.8270 C   0  0  0  0  0  0  0  0  0  0  0  0
    5.3020   -4.5590   19.9230 O   0  0  0  0  0  0  0  0  0  0  0  0
    0.4910   -1.8040   27.0780 Cl  0  0  0  0  0  0  0  0  0  0  0  0
    6.4310   -4.4830   20.3930 C   0  0  0  0  0  0  0  0  0  0  0  0
    6.5690   -3.8990   26.5490 C   0  0  0  0  0  0  0  0  0  0  0  0
    3.9450   -5.1920   24.8820 O   0  0  0  0  0  0  0  0  0  0  0  0
    5.6680   -4.7500   25.2960 S   0  0  0  0  0  0  0  0  0  0  0  0
    9.2210   -4.8350   27.5790 O   0  0  0  0  0  0  0  0  0  0  0  0
    8.9490   -2.3140   23.9570 C   0  0  0  0  0  0  0  0  0  0  0  0
    7.6620   -3.3100   27.3890 C   0  0  0  0  0  0  0  0  0  0  0  0
    8.4620   -4.1740   28.2280 C   0  0  0  0  0  0  0  0  0  0  0  0
    6.8290   -5.3560   21.3970 N   0  0  0  0  0  0  0  0  0  0  0  0
    7.8160   -5.0840   22.3690 C   0  0  0  0  0  0  0  0  0  0  0  0
    7.3590   -4.6640   23.3650 C   0  0  0  0  0  0  0  0  0  0  0  0
    6.3120   -5.4980   23.9650 N   0  0  0  0  0  0  0  0  0  0  0  0
    5.3750   -6.0140   23.0690 C   0  0  0  0  0  0  0  0  0  0  0  0
    5.9060   -6.3720   21.8530 C   0  0  0  0  0  0  0  0  0  0  0  0
    4.2570   -2.7330   26.1180 C   0  0  0  0  0  0  0  0  0  0  0  0
    3.0940   -2.1160   26.4930 C   0  0  0  0  0  0  0  0  0  0  0  0
    1.8650   -2.7290   26.6200 C   0  0  0  0  0  0  0  0  0  0  0  0
    1.7900   -4.1050   26.3600 C   0  0  0  0  0  0  0  0  0  0  0  0
    2.9580   -4.8110   25.9670 C   0  0  0  0  0  0  0  0  0  0  0  0
    4.1780   -4.1150   25.8390 C   0  0  0  0  0  0  0  0  0  0  0  0
    8.7040   -5.1840   26.3730 C   0  0  1  0  0  0  0  0  0  0  0  0
    7.9450   -4.1960   25.7300 C   0  0  2  0  0  0  0  0  0  0  0  0
    8.6740   -2.9510   25.3770 C   0  0  1  0  0  0  0  0  0  0  0  0
   10.0510   -2.9930   25.8710 N   0  0  0  0  0  0  0  0  0  0  0  0
   10.7290   -4.1290   25.4030 C   0  0  0  0  0  0  0  0  0  0  0  0
    9.9220   -5.4160   25.5120 C   0  0  0  0  0  0  0  0  0  0  0  0
   11.1570   -0.6430   24.3480 C   0  0  0  0  0  0  0  0  0  0  0  0
   10.3710   -1.7570   23.6130 C   0  0  0  0  0  0  0  0  0  0  0  0
   11.2890   -2.1740   22.4850 C   0  0  0  0  0  0  0  0  0  0  0  0
   12.7930   -1.3700   22.3690 S   0  0  0  0  0  0  0  0  0  0  0  0
   12.4500   -0.3860   23.7390 C   0  0  0  0  0  0  0  0  0  0  0  0
  1  4  1  0
  2  4  2  0
  5  7  2  0
  6  7  2  0
  5 10  1  0
  8 11  1  0
 10 11  1  0
  4 12  1  0
 12 13  1  0
 13 14  1  0
  7 15  1  0
 14 15  1  0
 15 16  1  0
 12 17  1  0
 16 17  1  0
 18 19  2  0
  3 20  1  0
 19 20  1  0
 20 21  2  0
 21 22  1  0
  7 23  1  0
 18 23  1  0
 22 23  2  0
  8 24  1  0
 25  5  1  1
 24 25  1  0
 26  9  1  6
 25 26  1  0
 26 27  1  0
 27 28  1  0
 24 29  1  6
 28 29  1  0
  9 31  1  0
 30 31  1  0
 31 32  2  0
 32 33  1  0
 30 34  2  0
 33 34  1  0
M  END
