x0387-x1249
     RDKit          3D

 26 28  0  0  0  0  0  0  0  0999 V2000
    8.1040    0.7070   24.9070 N   0  0  0  0  0  0  0  0  0  0  0  0
    7.4760    1.4680   23.9770 C   0  0  0  0  0  0  0  0  0  0  0  0
    8.0380    2.3540   23.3430 O   0  0  0  0  0  0  0  0  0  0  0  0
    9.4450    1.1970   25.1540 C   0  0  0  0  0  0  0  0  0  0  0  0
   13.5560   -2.1680   20.7870 N   0  0  0  0  0  0  0  0  0  0  0  0
   12.6620   -1.5840   21.7520 C   0  0  0  0  0  0  0  0  0  0  0  0
    8.3550   -4.2340   27.5710 O   0  0  0  0  0  0  0  0  0  0  0  0
    9.1320   -2.1790   23.3360 C   0  0  0  0  0  0  0  0  0  0  0  0
    3.3750    0.8310   23.5910 O   0  0  0  0  0  0  0  0  0  0  0  0
    4.1270    0.9700   22.3840 C   0  0  0  0  0  0  0  0  0  0  0  0
    5.4990    1.6300   22.6020 C   0  0  0  0  0  0  0  0  0  0  0  0
    6.1480    1.1530   23.8290 N   0  0  0  0  0  0  0  0  0  0  0  0
    5.2610    0.8930   24.9750 C   0  0  0  0  0  0  0  0  0  0  0  0
    4.1190    0.1660   24.6140 C   0  0  0  0  0  0  0  0  0  0  0  0
   11.5920    1.0470   23.8770 C   0  0  0  0  0  0  0  0  0  0  0  0
   12.2780    0.2660   23.0490 C   0  0  0  0  0  0  0  0  0  0  0  0
   11.7480   -0.9660   22.6210 C   0  0  0  0  0  0  0  0  0  0  0  0
   10.5270   -1.7340   22.8360 C   0  0  0  0  0  0  0  0  0  0  0  0
   10.0040   -0.6810   23.7460 C   0  0  0  0  0  0  0  0  0  0  0  0
   10.4080    0.5330   24.2340 C   0  0  0  0  0  0  0  0  0  0  0  0
    8.7520   -4.6040   26.2560 C   0  0  1  0  0  0  0  0  0  0  0  0
    8.4380   -3.5860   25.3350 C   0  0  0  0  0  0  0  0  0  0  0  0
    9.2130   -3.4710   24.1620 C   0  0  2  0  0  0  0  0  0  0  0  0
   10.6430   -3.5650   24.3820 N   0  0  0  0  0  0  0  0  0  0  0  0
   10.9900   -3.7370   25.7420 C   0  0  0  0  0  0  0  0  0  0  0  0
   10.2300   -4.9060   26.3020 C   0  0  0  0  0  0  0  0  0  0  0  0
  1  2  1  0
  2  3  2  0
  1  4  1  0
  5  6  3  0
  9 10  1  0
 10 11  1  0
  2 12  1  0
 11 12  1  0
 12 13  1  0
  9 14  1  0
 13 14  1  0
 15 16  2  0
  6 17  1  0
 16 17  1  0
  8 18  1  0
 17 18  2  0
 18 19  1  0
  4 20  1  0
 15 20  1  0
 19 20  2  0
 21  7  1  1
 21 22  1  0
 23  8  1  1
 22 23  1  0
 23 24  1  0
 24 25  1  0
 21 26  1  0
 25 26  1  0
M  END
