x0387-x0305
     RDKit          3D

 19 20  0  0  0  0  0  0  0  0999 V2000
    7.9380    0.1220   27.5270 C   0  0  0  0  0  0  0  0  0  0  0  0
    8.2710   -0.2020   26.0980 C   0  0  1  0  0  0  0  0  0  0  0  0
    9.6530    0.1750   25.8080 N   0  0  0  0  0  0  0  0  0  0  0  0
   13.1060   -1.4410   21.5600 C   0  0  0  0  0  0  0  0  0  0  0  0
   13.9450   -1.6380   20.4600 N   0  0  0  0  0  0  0  0  0  0  0  0
   10.5210   -0.2860   24.6910 C   0  0  0  0  0  0  0  0  0  0  0  0
   11.8370    0.4230   24.4440 N   0  0  0  0  0  0  0  0  0  0  0  0
   12.5880    0.0450   23.4920 C   0  0  0  0  0  0  0  0  0  0  0  0
   12.2370   -1.0310   22.6450 C   0  0  0  0  0  0  0  0  0  0  0  0
   10.9870   -1.5610   23.0250 C   0  0  0  0  0  0  0  0  0  0  0  0
   10.1280   -1.4410   23.7860 C   0  0  0  0  0  0  0  0  0  0  0  0
    9.0170   -4.6980   27.8470 O   0  0  0  0  0  0  0  0  0  0  0  0
    9.0430   -4.9700   26.4540 C   0  0  1  0  0  0  0  0  0  0  0  0
    8.1910   -4.0320   25.8580 C   0  0  0  0  0  0  0  0  0  0  0  0
    8.7470   -2.7890   26.1150 C   0  0  1  0  0  0  0  0  0  0  0  0
   10.0240   -2.5940   25.4560 N   0  0  0  0  0  0  0  0  0  0  0  0
   10.8830   -3.7200   25.2150 C   0  0  0  0  0  0  0  0  0  0  0  0
   10.4980   -4.8110   26.0030 C   0  0  0  0  0  0  0  0  0  0  0  0
    7.8750   -1.6140   25.6990 C   0  0  0  0  0  0  0  0  0  0  0  0
  2  1  1  1
  2  3  1  0
  4  5  3  0
  3  6  1  0
  6  7  2  0
  7  8  1  0
  4  9  1  0
  8  9  2  0
  9 10  1  0
  6 11  1  0
 10 11  2  0
 13 12  1  1
 13 14  1  0
 14 15  1  0
 15 16  1  0
 16 17  1  0
 13 18  1  0
 17 18  1  0
  2 19  1  0
 15 19  1  6
M  END
