x0387-x2540
     RDKit          3D

 37 41  0  0  0  0  0  0  0  0999 V2000
    6.5860   -1.1630   21.8890 N   0  0  0  0  0  0  0  0  0  0  0  0
    6.8110   -3.9070   19.9410 C   0  0  0  0  0  0  0  0  0  0  0  0
    4.7150   -2.9780   21.4600 O   0  0  0  0  0  0  0  0  0  0  0  0
    6.3120   -2.4970   19.8130 C   0  0  0  0  0  0  0  0  0  0  0  0
    7.8810    1.5010   23.3520 N   0  0  0  0  0  0  0  0  0  0  0  0
    8.5300    1.5410   20.9370 O   0  0  0  0  0  0  0  0  0  0  0  0
    5.7860   -2.2030   21.1560 C   0  0  0  0  0  0  0  0  0  0  0  0
    6.4200    0.3030   21.6650 C   0  0  1  0  0  0  0  0  0  0  0  0
    7.6120    1.0900   21.9520 C   0  0  0  0  0  0  0  0  0  0  0  0
    8.9170    2.5750   23.4020 C   0  0  0  0  0  0  0  0  0  0  0  0
    8.5730    3.7820   22.8360 C   0  0  0  0  0  0  0  0  0  0  0  0
    8.6480    3.8250   24.2720 C   0  0  0  0  0  0  0  0  0  0  0  0
   10.3920    2.2520   23.1030 C   0  0  0  0  0  0  0  0  0  0  0  0
   12.0740   -1.5280   23.9950 C   0  0  1  0  0  0  0  0  0  0  0  0
   13.0560   -1.5790   24.9660 C   0  0  0  0  0  0  0  0  0  0  0  0
    9.3630   -5.5390   28.0110 O   0  0  0  0  0  0  0  0  0  0  0  0
    6.3190    0.5780   17.7790 N   0  0  0  0  0  0  0  0  0  0  0  0
    5.2420    1.3750   17.7160 C   0  0  0  0  0  0  0  0  0  0  0  0
    4.4650    1.8640   18.8640 C   0  0  0  0  0  0  0  0  0  0  0  0
    4.9140    1.4580   20.1200 C   0  0  0  0  0  0  0  0  0  0  0  0
    6.0240    0.6460   20.2630 C   0  0  0  0  0  0  0  0  0  0  0  0
    6.6970    0.2210   19.1410 C   0  0  0  0  0  0  0  0  0  0  0  0
    9.4130   -2.1810   23.8820 C   0  0  0  0  0  0  0  0  0  0  0  0
    8.0150   -2.1230   23.5010 N   0  0  0  0  0  0  0  0  0  0  0  0
    7.9510   -1.3220   22.3780 C   0  0  0  0  0  0  0  0  0  0  0  0
    9.3470   -0.8440   22.0450 C   0  0  0  0  0  0  0  0  0  0  0  0
   10.4270   -1.4110   22.9700 C   0  0  1  0  0  0  0  0  0  0  0  0
    9.4440   -4.6480   26.9200 C   0  0  0  0  0  0  0  0  0  0  0  0
    8.3210   -4.7760   25.9550 C   0  0  0  0  0  0  0  0  0  0  0  0
    8.2620   -3.4670   25.4060 C   0  0  0  0  0  0  0  0  0  0  0  0
    9.5860   -2.9000   25.0010 N   0  0  0  0  0  0  0  0  0  0  0  0
   10.8560   -3.5860   25.2310 C   0  0  0  0  0  0  0  0  0  0  0  0
   10.7480   -4.7340   26.1830 C   0  0  0  0  0  0  0  0  0  0  0  0
   11.3880   -0.3080   23.5460 C   0  0  2  0  0  0  0  0  0  0  0  0
   11.2500   -2.0840   21.9390 C   0  0  0  0  0  0  0  0  0  0  0  0
   12.9640   -1.6670   22.2380 S   0  0  0  0  0  0  0  0  0  0  0  0
   12.9700   -0.3820   23.6180 C   0  0  0  0  0  0  0  0  0  0  0  0
  2  4  1  0
  1  7  1  0
  3  7  2  0
  4  7  1  0
  1  8  1  0
  5  9  1  0
  6  9  2  0
  8  9  1  6
 10  5  1  0
 10 11  1  0
 10 12  1  0
 10 13  1  0
 14 15  1  1
 17 18  2  0
 18 19  1  0
 19 20  2  0
  8 21  1  0
 20 21  1  0
 17 22  1  0
 21 22  2  0
 23 24  2  0
  1 25  1  0
 24 25  1  0
 25 26  2  0
 27 23  1  0
 27 26  1  6
 16 28  1  0
 28 29  1  0
 29 30  1  0
 23 31  1  0
 30 31  1  0
 31 32  1  0
 28 33  1  0
 32 33  1  0
 14 34  1  0
 27 34  1  0
 27 35  1  0
 14 36  1  0
 35 36  2  0
 34 37  1  6
 36 37  1  6
M  END
