x0387-x2562
     RDKit          3D

 31 34  0  0  0  0  0  0  0  0999 V2000
    8.5180    0.0090   21.4760 C   0  0  0  0  0  0  0  0  0  0  0  0
    8.7490    1.1970   21.1100 O   0  0  0  0  0  0  0  0  0  0  0  0
    7.4310   -0.8310   20.9010 C   0  0  0  0  0  0  0  0  0  0  0  0
   12.0870    2.8770   23.4000 O   0  0  0  0  0  0  0  0  0  0  0  0
    9.2160   -0.6750   22.4570 N   0  0  0  0  0  0  0  0  0  0  0  0
   12.8860    6.7890   22.4770 O   0  0  0  0  0  0  0  0  0  0  0  0
    4.6340    1.5100   19.2640 N   0  0  0  0  0  0  0  0  0  0  0  0
    5.0660    1.4970   17.9830 C   0  0  0  0  0  0  0  0  0  0  0  0
    6.1030    0.8340   17.5810 N   0  0  0  0  0  0  0  0  0  0  0  0
    6.7340    0.1700   18.5390 C   0  0  0  0  0  0  0  0  0  0  0  0
    6.5590   -0.0330   20.0270 C   0  0  0  0  0  0  0  0  0  0  0  0
    5.3340    0.7680   20.3170 C   0  0  0  0  0  0  0  0  0  0  0  0
   12.5320    4.5280   21.8080 N   0  0  0  0  0  0  0  0  0  0  0  0
   13.4730    5.5800   22.3170 C   0  0  2  0  0  0  0  0  0  0  0  0
   13.5730    4.8740   23.2220 C   0  0  0  0  0  0  0  0  0  0  0  0
   13.0610    3.6090   22.6880 C   0  0  1  0  0  0  0  0  0  0  0  0
   11.6450   -1.1580   22.3980 C   0  0  0  0  0  0  0  0  0  0  0  0
   12.9500   -0.6860   22.5440 C   0  0  0  0  0  0  0  0  0  0  0  0
   13.1210    0.6470   22.8720 C   0  0  0  0  0  0  0  0  0  0  0  0
   12.0470    1.5070   23.0610 C   0  0  0  0  0  0  0  0  0  0  0  0
   10.7780    1.0610   22.9210 C   0  0  0  0  0  0  0  0  0  0  0  0
   10.5600   -0.2620   22.5900 C   0  0  0  0  0  0  0  0  0  0  0  0
    8.8950   -5.2220   27.4070 O   0  0  0  0  0  0  0  0  0  0  0  0
    8.8040   -1.6450   24.8290 C   0  0  0  0  0  0  0  0  0  0  0  0
    9.2500   -4.2120   26.4780 C   0  0  2  0  0  0  0  0  0  0  0  0
    8.3120   -3.9860   25.4680 C   0  0  0  0  0  0  0  0  0  0  0  0
    8.7210   -3.1170   24.4260 C   0  0  2  0  0  0  0  0  0  0  0  0
    9.9910   -3.2830   23.8990 N   0  0  0  0  0  0  0  0  0  0  0  0
   10.9960   -3.4050   24.9430 C   0  0  0  0  0  0  0  0  0  0  0  0
   10.6300   -4.5140   25.9290 C   0  0  0  0  0  0  0  0  0  0  0  0
    8.4590   -0.6460   23.7210 C   0  0  0  0  0  0  0  0  0  0  0  0
  1  2  2  0
  1  3  1  0
  1  5  1  0
  7  8  2  0
  8  9  1  0
  9 10  2  0
  3 11  1  0
 10 11  1  0
  7 12  1  0
 11 12  2  0
 14  6  1  1
 13 14  1  0
 14 15  1  0
 16  4  1  1
 13 16  1  0
 15 16  1  0
 17 18  2  0
 18 19  1  0
  4 20  1  0
 19 20  2  0
 20 21  1  0
  5 22  1  0
 17 22  1  0
 21 22  2  0
 25 23  1  6
 25 26  1  0
 27 24  1  1
 26 27  1  0
 27 28  1  0
 28 29  1  0
 25 30  1  0
 29 30  1  0
  5 31  1  0
 24 31  1  0
M  END
