x0387-x0981
     RDKit          3D

 30 31  0  0  0  0  0  0  0  0999 V2000
    1.2310   -8.7190   21.3900 C   0  0  0  0  0  0  0  0  0  0  0  0
    2.6940   -7.1220   22.7220 N   0  0  0  0  0  0  0  0  0  0  0  0
    0.2660   -6.5070   22.1910 O   0  0  0  0  0  0  0  0  0  0  0  0
    1.3770   -7.3960   22.1350 C   0  0  0  0  0  0  0  0  0  0  0  0
    2.4490   -8.1790   26.5150 N   0  0  0  0  0  0  0  0  0  0  0  0
    4.0770   -8.2320   24.5640 O   0  0  0  0  0  0  0  0  0  0  0  0
    2.9990   -5.9340   23.5320 C   0  0  1  0  0  0  0  0  0  0  0  0
    5.2780   -5.7490   22.3280 N   0  0  0  0  0  0  0  0  0  0  0  0
    4.7750   -4.4420   24.2100 N   0  0  0  0  0  0  0  0  0  0  0  0
    2.8300   -6.2480   25.0290 C   0  0  0  0  0  0  0  0  0  0  0  0
    3.1310   -7.5630   25.3590 C   0  0  0  0  0  0  0  0  0  0  0  0
    4.4310   -5.3430   23.3500 C   0  0  0  0  0  0  0  0  0  0  0  0
    6.1480   -4.6990   21.7440 C   0  0  0  0  0  0  0  0  0  0  0  0
    6.3500   -4.9610   20.2720 C   0  0  0  0  0  0  0  0  0  0  0  0
    5.6950   -6.2360   19.8160 C   0  0  0  0  0  0  0  0  0  0  0  0
    8.6450   -4.2840   27.3710 O   0  0  0  0  0  0  0  0  0  0  0  0
    9.1870   -2.3850   23.4200 C   0  0  0  0  0  0  0  0  0  0  0  0
    6.0920   -3.7990   24.1430 C   0  0  0  0  0  0  0  0  0  0  0  0
    6.8940   -4.1640   25.2180 C   0  0  0  0  0  0  0  0  0  0  0  0
    9.0310   -4.8620   26.1260 C   0  0  1  0  0  0  0  0  0  0  0  0
    8.4370   -4.1560   25.0480 C   0  0  2  0  0  0  0  0  0  0  0  0
    8.8770   -2.8180   24.8810 C   0  0  1  0  0  0  0  0  0  0  0  0
    9.9940   -2.5830   25.5970 N   0  0  0  0  0  0  0  0  0  0  0  0
   10.9590   -3.6370   25.4050 C   0  0  0  0  0  0  0  0  0  0  0  0
   10.5410   -4.7810   26.0550 C   0  0  0  0  0  0  0  0  0  0  0  0
   11.6400   -1.3260   24.2190 C   0  0  0  0  0  0  0  0  0  0  0  0
   10.7140   -1.9130   23.1970 C   0  0  0  0  0  0  0  0  0  0  0  0
   11.4870   -1.9850   21.9140 C   0  0  0  0  0  0  0  0  0  0  0  0
   13.0780   -1.3850   22.0650 S   0  0  0  0  0  0  0  0  0  0  0  0
   12.8880   -1.0150   23.7170 C   0  0  0  0  0  0  0  0  0  0  0  0
  1  4  1  0
  2  4  1  0
  3  4  2  0
  2  7  1  0
  7 10  1  1
  5 11  1  0
  6 11  2  0
 10 11  1  0
  7 12  1  0
  8 12  1  0
  9 12  2  3
  8 13  1  0
 13 14  1  0
 14 15  2  3
  9 18  1  0
 18 19  1  0
 20 16  1  1
 21 19  1  1
 20 21  1  0
 22 17  1  6
 21 22  1  0
 22 23  1  0
 23 24  1  0
 20 25  1  0
 24 25  1  0
 17 27  1  0
 26 27  1  0
 27 28  2  0
 28 29  1  0
 26 30  2  0
 29 30  1  0
M  END
