x0387-x2097
     RDKit          3D

 22 24  0  0  0  0  0  0  0  0999 V2000
    8.4720   -3.8800   26.9510 O   0  0  0  0  0  0  0  0  0  0  0  0
    9.3150   -1.2640   24.2090 C   0  0  1  0  0  0  0  0  0  0  0  0
    5.9370   -5.4330   20.0350 N   0  0  0  0  0  0  0  0  0  0  0  0
    6.5790   -4.3250   20.0760 C   0  0  0  0  0  0  0  0  0  0  0  0
    8.3230   -0.8810   23.0890 C   0  0  0  0  0  0  0  0  0  0  0  0
    8.9040   -4.5050   25.7400 C   0  0  1  0  0  0  0  0  0  0  0  0
    8.4460   -3.7490   24.4500 C   0  0  0  0  0  0  0  0  0  0  0  0
    8.9880   -2.5530   25.1390 C   0  0  1  0  0  0  0  0  0  0  0  0
   10.2710   -2.7780   25.7550 N   0  0  0  0  0  0  0  0  0  0  0  0
   11.0270   -3.9870   25.4890 C   0  0  0  0  0  0  0  0  0  0  0  0
   10.3470   -4.8690   25.8640 C   0  0  0  0  0  0  0  0  0  0  0  0
   11.6160   -0.1020   23.9790 C   0  0  0  0  0  0  0  0  0  0  0  0
   10.7510   -1.1480   23.6180 C   0  0  0  0  0  0  0  0  0  0  0  0
   11.3000   -2.0370   22.6860 C   0  0  0  0  0  0  0  0  0  0  0  0
   12.8970   -1.7040   22.1530 S   0  0  0  0  0  0  0  0  0  0  0  0
   12.9460   -0.2660   23.2000 C   0  0  0  0  0  0  0  0  0  0  0  0
    6.2970   -3.4700   21.2660 C   0  0  0  0  0  0  0  0  0  0  0  0
    7.3780   -2.5780   21.6690 N   0  0  0  0  0  0  0  0  0  0  0  0
    7.1850   -1.8110   22.7080 C   0  0  0  0  0  0  0  0  0  0  0  0
    5.9590   -1.8630   23.4040 C   0  0  0  0  0  0  0  0  0  0  0  0
    4.9130   -2.7130   23.0280 C   0  0  0  0  0  0  0  0  0  0  0  0
    5.0940   -3.5940   21.8560 N   0  0  0  0  0  0  0  0  0  0  0  0
  3  4  2  3
  2  5  1  6
  6  1  1  1
  6  7  1  0
  2  8  1  0
  8  7  1  6
  8  9  1  0
  9 10  1  0
  6 11  1  0
 10 11  1  0
  2 13  1  0
 12 13  1  0
 13 14  2  0
 14 15  1  0
 12 16  2  0
 15 16  1  0
  4 17  1  0
 17 18  2  0
  5 19  1  0
 18 19  1  0
 19 20  2  0
 20 21  1  0
 17 22  1  0
 21 22  2  0
M  END
