x0387-x0769
     RDKit          3D

 34 38  0  0  0  0  0  0  0  0999 V2000
    5.9790   -5.0660   26.6340 N   0  0  0  0  0  0  0  0  0  0  0  0
    3.9730   -6.2700   25.5900 O   0  0  0  0  0  0  0  0  0  0  0  0
    5.3110   -4.6080   19.9200 O   0  0  0  0  0  0  0  0  0  0  0  0
    6.3790   -4.4110   20.4830 C   0  0  0  0  0  0  0  0  0  0  0  0
    7.3620   -3.4000   19.8760 C   0  0  0  0  0  0  0  0  0  0  0  0
    5.8210   -2.4060   26.0210 F   0  0  0  0  0  0  0  0  0  0  0  0
    4.8500   -5.1200   25.6370 S   0  0  1  0  0  0  0  0  0  0  0  0
    8.9500   -5.3680   27.3860 O   0  0  0  0  0  0  0  0  0  0  0  0
    9.1230   -2.6390   23.5950 C   0  0  0  0  0  0  0  0  0  0  0  0
    7.2080   -4.1780   26.7350 C   0  0  1  0  0  0  0  0  0  0  0  0
    8.0120   -4.7870   27.8960 C   0  0  0  0  0  0  0  0  0  0  0  0
    4.5010   -2.5610   25.9630 C   0  0  0  0  0  0  0  0  0  0  0  0
    3.6870   -3.7410   25.7840 C   0  0  0  0  0  0  0  0  0  0  0  0
    2.5840   -4.1370   25.7020 C   0  0  0  0  0  0  0  0  0  0  0  0
    1.5570   -3.0060   25.8230 C   0  0  0  0  0  0  0  0  0  0  0  0
    2.0900   -1.7070   26.0100 C   0  0  0  0  0  0  0  0  0  0  0  0
    3.4770   -1.4010   26.0880 C   0  0  0  0  0  0  0  0  0  0  0  0
    6.6710   -5.1100   21.6670 N   0  0  0  0  0  0  0  0  0  0  0  0
    5.8470   -6.2400   22.0550 C   0  0  0  0  0  0  0  0  0  0  0  0
    4.9420   -6.0280   23.0870 C   0  0  0  0  0  0  0  0  0  0  0  0
    5.5490   -5.1490   24.1020 N   0  0  0  0  0  0  0  0  0  0  0  0
    6.2430   -4.1290   23.6170 C   0  0  0  0  0  0  0  0  0  0  0  0
    7.2480   -4.5650   22.7210 C   0  0  0  0  0  0  0  0  0  0  0  0
    9.3780   -4.3750   26.4940 C   0  0  2  0  0  0  0  0  0  0  0  0
    8.3390   -4.0270   25.6570 C   0  0  2  0  0  0  0  0  0  0  0  0
    8.7350   -2.7510   25.1170 C   0  0  1  0  0  0  0  0  0  0  0  0
   10.0790   -2.4910   25.5990 N   0  0  0  0  0  0  0  0  0  0  0  0
   11.0050   -3.5470   25.1070 C   0  0  0  0  0  0  0  0  0  0  0  0
   10.6640   -4.6930   25.8080 C   0  0  0  0  0  0  0  0  0  0  0  0
   11.5280   -1.3370   24.2080 C   0  0  0  0  0  0  0  0  0  0  0  0
   10.5460   -2.0820   23.2970 C   0  0  0  0  0  0  0  0  0  0  0  0
   11.3150   -2.1620   21.9870 C   0  0  0  0  0  0  0  0  0  0  0  0
   12.8790   -1.4520   22.0030 S   0  0  0  0  0  0  0  0  0  0  0  0
   12.7390   -0.9710   23.6400 C   0  0  0  0  0  0  0  0  0  0  0  0
  3  4  2  0
  4  5  1  0
  1  7  2  0
  2  7  2  0
 10  1  1  6
  8 11  1  0
 10 11  1  0
  6 12  1  0
  7 13  1  6
 12 13  2  0
 13 14  1  0
 14 15  2  0
 15 16  1  0
 12 17  1  0
 16 17  2  0
  4 18  1  0
 18 19  1  0
 19 20  1  0
  7 21  1  0
 20 21  1  0
 21 22  1  0
 18 23  1  0
 22 23  1  0
  8 24  1  0
 25 10  1  1
 24 25  1  0
 26  9  1  6
 25 26  1  0
 26 27  1  0
 27 28  1  0
 24 29  1  6
 28 29  1  0
  9 31  1  0
 30 31  1  0
 31 32  2  0
 32 33  1  0
 30 34  2  0
 33 34  1  0
M  END
