x0387-x0708
     RDKit          3D

 23 25  0  0  0  0  0  0  0  0999 V2000
    6.5360   -4.6660   21.1480 N   0  0  0  0  0  0  0  0  0  0  0  0
    7.3310   -3.1510   19.2650 C   0  0  0  0  0  0  0  0  0  0  0  0
    5.1090   -3.8710   19.5100 O   0  0  0  0  0  0  0  0  0  0  0  0
    6.2280   -3.9090   19.9930 C   0  0  0  0  0  0  0  0  0  0  0  0
    7.5950   -4.2960   21.9560 N   0  0  0  0  0  0  0  0  0  0  0  0
    6.5860   -2.4390   22.9700 O   0  0  0  0  0  0  0  0  0  0  0  0
    7.6230   -2.9830   22.6040 C   0  0  0  0  0  0  0  0  0  0  0  0
    9.2610   -5.6050   27.5290 O   0  0  0  0  0  0  0  0  0  0  0  0
    8.9750   -2.2950   22.7940 C   0  0  0  0  0  0  0  0  0  0  0  0
   10.0300   -2.4040   21.9200 C   0  0  0  0  0  0  0  0  0  0  0  0
   11.0780   -1.5170   22.4340 C   0  0  0  0  0  0  0  0  0  0  0  0
   10.5560   -0.9650   23.5620 C   0  0  0  0  0  0  0  0  0  0  0  0
    9.2700   -1.4730   23.9130 C   0  0  2  0  0  0  0  0  0  0  0  0
   12.4800   -1.0770   22.0360 C   0  0  0  0  0  0  0  0  0  0  0  0
   13.0870   -0.1200   22.8180 C   0  0  0  0  0  0  0  0  0  0  0  0
   12.4450    0.4090   23.9310 C   0  0  0  0  0  0  0  0  0  0  0  0
   11.1880   -0.0190   24.3160 C   0  0  0  0  0  0  0  0  0  0  0  0
    9.2900   -4.4260   26.7700 C   0  0  0  0  0  0  0  0  0  0  0  0
    8.1880   -4.3150   25.9310 C   0  0  0  0  0  0  0  0  0  0  0  0
    8.0470   -3.0250   25.4150 C   0  0  0  0  0  0  0  0  0  0  0  0
    9.3370   -2.3650   25.0850 N   0  0  0  0  0  0  0  0  0  0  0  0
   10.5590   -3.2410   25.1120 C   0  0  0  0  0  0  0  0  0  0  0  0
   10.5610   -4.3520   25.9600 C   0  0  0  0  0  0  0  0  0  0  0  0
  1  4  1  0
  2  4  1  0
  3  4  2  0
  1  5  1  0
  5  7  1  0
  6  7  2  0
  7  9  1  0
  9 10  2  0
 10 11  1  0
 11 12  2  0
  9 13  1  0
 12 13  1  0
 11 14  1  0
 14 15  2  0
 15 16  1  0
 12 17  1  0
 16 17  2  0
  8 18  1  0
 18 19  1  0
 19 20  1  0
 13 21  1  1
 20 21  1  0
 21 22  1  0
 18 23  1  0
 22 23  1  0
M  END
