x0387-x2193
     RDKit          3D

 22 24  0  0  0  0  0  0  0  0999 V2000
   10.8440    3.1650   22.7860 C   0  0  0  0  0  0  0  0  0  0  0  0
    9.1680    2.0660   21.0780 O   0  0  0  0  0  0  0  0  0  0  0  0
    8.0640    2.8220   23.5650 O   0  0  0  0  0  0  0  0  0  0  0  0
    9.4040    2.1920   22.4900 S   0  0  0  0  0  0  0  0  0  0  0  0
    8.5000   -4.5230   27.6470 O   0  0  0  0  0  0  0  0  0  0  0  0
    9.8010    0.5910   23.0740 C   0  0  0  0  0  0  0  0  0  0  0  0
   10.9700    0.2050   23.6390 C   0  0  0  0  0  0  0  0  0  0  0  0
   11.0050   -1.3520   24.1340 C   0  0  0  0  0  0  0  0  0  0  0  0
    9.9810   -2.5590   24.0900 C   0  0  0  0  0  0  0  0  0  0  0  0
    8.9530   -1.8620   23.4740 C   0  0  0  0  0  0  0  0  0  0  0  0
    8.9850   -0.5330   23.1000 C   0  0  0  0  0  0  0  0  0  0  0  0
    8.3000   -5.8410   25.7810 N   0  0  0  0  0  0  0  0  0  0  0  0
    9.2340   -5.1780   26.6140 C   0  0  1  0  0  0  0  0  0  0  0  0
   10.2390   -4.1640   26.0070 C   0  0  0  0  0  0  0  0  0  0  0  0
   10.0530   -3.9300   24.5560 N   0  0  0  0  0  0  0  0  0  0  0  0
    9.0550   -4.7230   24.0080 C   0  0  0  0  0  0  0  0  0  0  0  0
    8.8490   -5.9710   24.5240 C   0  0  0  0  0  0  0  0  0  0  0  0
   11.2420   -0.7780   24.7750 C   0  0  0  0  0  0  0  0  0  0  0  0
   10.5140   -0.9260   23.5880 C   0  0  0  0  0  0  0  0  0  0  0  0
   11.3280   -1.4920   22.5720 C   0  0  0  0  0  0  0  0  0  0  0  0
   12.9440   -1.8100   23.0720 S   0  0  0  0  0  0  0  0  0  0  0  0
   12.5760   -1.2100   24.6580 C   0  0  0  0  0  0  0  0  0  0  0  0
  4  1  1  0
  2  4  2  0
  3  4  2  0
  4  6  1  0
  6  7  2  0
  7  8  1  0
  8  9  2  0
  9 10  1  0
  6 11  1  0
 10 11  2  0
 13  5  1  1
 12 13  1  0
 13 14  1  0
  9 15  1  0
 14 15  1  0
 15 16  1  0
 12 17  1  0
 16 17  1  0
 11 19  1  0
 18 19  1  0
 19 20  2  0
 20 21  1  0
 18 22  2  0
 21 22  1  0
M  END
