x0387-x1425
     RDKit          3D

 31 34  0  0  0  0  0  0  0  0999 V2000
    1.4920   -2.3940   28.1410 C   0  0  0  0  0  0  0  0  0  0  0  0
    2.7060   -2.1320   28.1460 O   0  0  0  0  0  0  0  0  0  0  0  0
    5.1190   -4.4230   19.7920 O   0  0  0  0  0  0  0  0  0  0  0  0
    6.1680   -3.9750   20.2170 C   0  0  0  0  0  0  0  0  0  0  0  0
    7.1080   -3.2280   19.2780 C   0  0  0  0  0  0  0  0  0  0  0  0
    3.4760   -2.5890   27.0290 C   0  0  0  0  0  0  0  0  0  0  0  0
    4.9750   -2.0960   27.1260 C   0  0  0  0  0  0  0  0  0  0  0  0
    5.5190   -2.6990   25.8900 C   0  0  0  0  0  0  0  0  0  0  0  0
    4.6890   -3.4710   25.0190 C   0  0  0  0  0  0  0  0  0  0  0  0
    3.6430   -3.8930   24.8190 C   0  0  0  0  0  0  0  0  0  0  0  0
    2.7620   -3.4470   25.9630 C   0  0  0  0  0  0  0  0  0  0  0  0
    6.5200   -4.1940   21.5260 N   0  0  0  0  0  0  0  0  0  0  0  0
    7.1940   -3.1560   22.3050 C   0  0  0  0  0  0  0  0  0  0  0  0
    6.4890   -2.6740   23.4340 C   0  0  1  0  0  0  0  0  0  0  0  0
    5.6740   -3.7660   24.0960 N   0  0  0  0  0  0  0  0  0  0  0  0
    5.4890   -5.0920   23.4660 C   0  0  0  0  0  0  0  0  0  0  0  0
    6.1460   -5.3680   22.2780 C   0  0  0  0  0  0  0  0  0  0  0  0
    8.4210   -4.0570   27.0040 O   0  0  0  0  0  0  0  0  0  0  0  0
    9.5430   -2.7900   23.3650 C   0  0  0  0  0  0  0  0  0  0  0  0
    9.1000   -4.8660   26.0160 C   0  0  1  0  0  0  0  0  0  0  0  0
    8.4820   -4.3170   24.8540 C   0  0  0  0  0  0  0  0  0  0  0  0
    8.8460   -2.9710   24.5460 C   0  0  1  0  0  0  0  0  0  0  0  0
    9.8470   -2.4310   25.4340 N   0  0  0  0  0  0  0  0  0  0  0  0
   10.9200   -3.4000   25.4100 C   0  0  0  0  0  0  0  0  0  0  0  0
   10.5430   -4.5850   26.0040 C   0  0  0  0  0  0  0  0  0  0  0  0
   11.3060   -0.6910   24.2110 C   0  0  0  0  0  0  0  0  0  0  0  0
   10.7890   -1.8420   23.3440 C   0  0  0  0  0  0  0  0  0  0  0  0
   11.7680   -2.0610   22.2090 C   0  0  0  0  0  0  0  0  0  0  0  0
   13.1050   -0.9900   22.2720 S   0  0  0  0  0  0  0  0  0  0  0  0
   12.5040   -0.1640   23.7500 C   0  0  0  0  0  0  0  0  0  0  0  0
    7.5270   -2.1490   24.4180 C   0  0  0  0  0  0  0  0  0  0  0  0
  1  2  1  0
  3  4  2  0
  4  5  1  0
  2  6  1  0
  6  7  2  0
  7  8  1  0
  8  9  2  0
  9 10  1  0
  6 11  1  0
 10 11  2  0
  4 12  1  0
 12 13  1  0
 13 14  1  0
  9 15  1  0
 14 15  1  0
 15 16  1  0
 12 17  1  0
 16 17  1  0
 20 18  1  1
 20 21  1  0
 22 19  1  6
 21 22  1  0
 22 23  1  0
 23 24  1  0
 20 25  1  0
 24 25  1  0
 19 27  1  0
 26 27  1  0
 27 28  2  0
 28 29  1  0
 26 30  2  0
 29 30  1  0
 14 31  1  1
 22 31  1  0
M  END
