x0387-x2964
     RDKit          3D

 27 29  0  0  0  0  0  0  0  0999 V2000
    3.3130    2.0500   19.2930 N   0  0  0  0  0  0  0  0  0  0  0  0
    8.7870    1.4950   21.1760 O   0  0  0  0  0  0  0  0  0  0  0  0
   13.3000   -2.1870   21.3060 Cl  0  0  0  0  0  0  0  0  0  0  0  0
    7.1960   -0.2000   21.1360 N   0  0  0  0  0  0  0  0  0  0  0  0
    8.9460   -0.2650   22.6630 N   0  0  0  0  0  0  0  0  0  0  0  0
    8.3290    0.4340   21.6150 C   0  0  0  0  0  0  0  0  0  0  0  0
    4.5190    1.4070   19.2050 C   0  0  0  0  0  0  0  0  0  0  0  0
    5.1250    0.9720   20.3640 C   0  0  0  0  0  0  0  0  0  0  0  0
    6.4840    0.2580   20.1050 C   0  0  0  0  0  0  0  0  0  0  0  0
    6.9380    0.1210   18.6850 C   0  0  0  0  0  0  0  0  0  0  0  0
    6.3060    0.5690   17.6240 N   0  0  0  0  0  0  0  0  0  0  0  0
    5.1660    1.1820   17.8600 C   0  0  0  0  0  0  0  0  0  0  0  0
   10.9510    0.9750   23.4120 C   0  0  0  0  0  0  0  0  0  0  0  0
   12.1360    1.0850   23.4460 C   0  0  0  0  0  0  0  0  0  0  0  0
   13.0520    0.0770   22.7790 C   0  0  0  0  0  0  0  0  0  0  0  0
   12.4660   -0.9860   22.1260 C   0  0  0  0  0  0  0  0  0  0  0  0
   11.1120   -1.0800   22.1120 C   0  0  0  0  0  0  0  0  0  0  0  0
   10.3700   -0.1120   22.7400 C   0  0  0  0  0  0  0  0  0  0  0  0
    8.9950   -4.8220   27.8070 O   0  0  0  0  0  0  0  0  0  0  0  0
    8.4380   -1.9560   24.4080 C   0  0  0  0  0  0  0  0  0  0  0  0
    9.0150   -4.8070   26.4490 C   0  0  1  0  0  0  0  0  0  0  0  0
    8.2750   -3.7320   25.8930 C   0  0  0  0  0  0  0  0  0  0  0  0
    8.6580   -3.2850   24.6080 C   0  0  2  0  0  0  0  0  0  0  0  0
   10.0750   -3.4000   24.3020 N   0  0  0  0  0  0  0  0  0  0  0  0
   10.7600   -3.6080   25.4030 C   0  0  0  0  0  0  0  0  0  0  0  0
   10.4920   -4.7450   26.1020 C   0  0  0  0  0  0  0  0  0  0  0  0
    8.4850   -1.6160   22.9230 C   0  0  0  0  0  0  0  0  0  0  0  0
  2  6  2  0
  4  6  1  0
  5  6  1  0
  1  7  1  0
  7  8  2  0
  4  9  1  0
  8  9  1  0
  9 10  2  0
 10 11  1  0
  7 12  1  0
 11 12  2  0
 13 14  2  0
 14 15  1  0
  3 16  1  0
 15 16  2  0
 16 17  1  0
  5 18  1  0
 13 18  1  0
 17 18  2  0
 21 19  1  1
 21 22  1  0
 23 20  1  1
 22 23  1  0
 23 24  1  0
 24 25  1  0
 21 26  1  0
 25 26  1  0
  5 27  1  0
 20 27  1  0
M  END
