x0387-x1493
     RDKit          3D

 25 27  0  0  0  0  0  0  0  0999 V2000
    4.9730   -6.3580   25.9750 C   0  0  0  0  0  0  0  0  0  0  0  0
    7.1760   -5.2630   26.4260 N   0  0  0  0  0  0  0  0  0  0  0  0
    6.1360   -5.4940   25.5390 C   0  0  0  0  0  0  0  0  0  0  0  0
    5.2870   -4.5800   19.9200 O   0  0  0  0  0  0  0  0  0  0  0  0
    6.3930   -4.3770   20.4000 C   0  0  0  0  0  0  0  0  0  0  0  0
    7.3100   -3.3720   19.7090 C   0  0  0  0  0  0  0  0  0  0  0  0
    8.8500   -4.1650   27.5940 O   0  0  0  0  0  0  0  0  0  0  0  0
    9.4250   -1.6320   23.9660 C   0  0  0  0  0  0  0  0  0  0  0  0
    6.0800   -4.9260   24.1660 N   0  0  0  0  0  0  0  0  0  0  0  0
    6.9800   -3.9240   23.6210 C   0  0  0  0  0  0  0  0  0  0  0  0
    7.7240   -4.5070   22.5310 C   0  0  0  0  0  0  0  0  0  0  0  0
    6.8290   -5.0710   21.5330 N   0  0  0  0  0  0  0  0  0  0  0  0
    6.0710   -6.1140   21.9920 C   0  0  0  0  0  0  0  0  0  0  0  0
    5.2660   -5.5550   23.2010 C   0  0  0  0  0  0  0  0  0  0  0  0
    8.4150   -4.4540   26.3380 C   0  0  2  0  0  0  0  0  0  0  0  0
    8.2860   -3.3280   25.4900 C   0  0  0  0  0  0  0  0  0  0  0  0
    9.4740   -2.6700   25.1120 C   0  0  1  0  0  0  0  0  0  0  0  0
   10.4860   -3.6340   24.7600 N   0  0  0  0  0  0  0  0  0  0  0  0
   10.6330   -4.4220   25.8160 C   0  0  0  0  0  0  0  0  0  0  0  0
    9.5800   -5.3130   25.8120 C   0  0  0  0  0  0  0  0  0  0  0  0
   11.5690   -0.2220   23.9220 C   0  0  0  0  0  0  0  0  0  0  0  0
   10.8380   -1.3040   23.4320 C   0  0  0  0  0  0  0  0  0  0  0  0
   11.5280   -2.0030   22.4470 C   0  0  0  0  0  0  0  0  0  0  0  0
   13.0850   -1.3850   22.0810 S   0  0  0  0  0  0  0  0  0  0  0  0
   12.7880   -0.1270   23.2980 C   0  0  0  0  0  0  0  0  0  0  0  0
  1  3  1  0
  2  3  2  3
  4  5  2  0
  5  6  1  0
  3  9  1  0
  9 10  1  0
 10 11  1  0
  5 12  1  0
 11 12  1  0
 12 13  1  0
  9 14  1  0
 13 14  1  0
 15  2  1  0
 15  7  1  1
 15 16  1  0
 17  8  1  6
 16 17  1  0
 17 18  1  0
 18 19  1  0
 15 20  1  0
 19 20  1  0
  8 22  1  0
 21 22  1  0
 22 23  2  0
 23 24  1  0
 21 25  2  0
 24 25  1  0
M  END
