x0387-x2569
     RDKit          3D

 26 28  0  0  0  0  0  0  0  0999 V2000
    8.4250   -0.0470   21.8830 C   0  0  0  0  0  0  0  0  0  0  0  0
    9.0260    0.9140   21.3740 O   0  0  0  0  0  0  0  0  0  0  0  0
    9.0340   -0.6900   23.1410 C   0  0  2  0  0  0  0  0  0  0  0  0
   13.3330   -2.9370   20.8650 N   0  0  0  0  0  0  0  0  0  0  0  0
    7.2230   -0.5120   21.3760 N   0  0  0  0  0  0  0  0  0  0  0  0
   13.5730   -1.5390   21.0750 C   0  0  0  0  0  0  0  0  0  0  0  0
   11.9450    0.5130   24.2230 N   0  0  0  0  0  0  0  0  0  0  0  0
   12.7830   -0.0500   23.2880 C   0  0  0  0  0  0  0  0  0  0  0  0
   12.5600   -0.9880   22.0570 C   0  0  0  0  0  0  0  0  0  0  0  0
   11.1130   -1.1300   22.1530 C   0  0  0  0  0  0  0  0  0  0  0  0
   10.5100   -0.4380   23.2060 C   0  0  0  0  0  0  0  0  0  0  0  0
   10.6430    0.2400   24.1050 C   0  0  0  0  0  0  0  0  0  0  0  0
    6.4390    0.4100   17.8820 N   0  0  0  0  0  0  0  0  0  0  0  0
    6.9990   -0.0980   19.0000 C   0  0  0  0  0  0  0  0  0  0  0  0
    6.4960    0.0740   20.2910 C   0  0  0  0  0  0  0  0  0  0  0  0
    5.3110    0.8170   20.4130 C   0  0  0  0  0  0  0  0  0  0  0  0
    4.7160    1.3430   19.2690 C   0  0  0  0  0  0  0  0  0  0  0  0
    5.3090    1.1220   18.0250 C   0  0  0  0  0  0  0  0  0  0  0  0
    9.1470   -4.3850   27.6940 O   0  0  0  0  0  0  0  0  0  0  0  0
    9.1870   -4.8860   26.4300 C   0  0  0  0  0  0  0  0  0  0  0  0
    8.0990   -4.6060   25.6080 C   0  0  0  0  0  0  0  0  0  0  0  0
    7.8540   -3.2510   25.4380 C   0  0  0  0  0  0  0  0  0  0  0  0
    9.0180   -2.6350   24.7860 N   0  0  0  0  0  0  0  0  0  0  0  0
   10.2050   -3.3280   24.8540 C   0  0  0  0  0  0  0  0  0  0  0  0
   10.4560   -4.3800   25.7650 C   0  0  0  0  0  0  0  0  0  0  0  0
    8.6780   -2.1640   23.4080 C   0  0  0  0  0  0  0  0  0  0  0  0
  1  2  2  0
  1  3  1  0
  1  5  1  0
  4  6  3  0
  7  8  2  0
  6  9  1  0
  8  9  1  0
  9 10  2  0
  3 11  1  0
 10 11  1  0
  7 12  1  0
 11 12  2  0
 13 14  2  0
  5 15  1  0
 14 15  1  0
 15 16  2  0
 16 17  1  0
 13 18  1  0
 17 18  2  0
 19 20  1  0
 20 21  1  0
 21 22  1  0
 22 23  1  0
 23 24  1  0
 20 25  1  0
 24 25  1  0
  3 26  1  6
 23 26  1  0
M  END
