x0395-x2119
     RDKit          3D

 22 24  0  0  0  0  0  0  0  0999 V2000
    9.5860   -5.3830   26.2340 C   0  0  0  0  0  0  0  0  0  0  0  0
    8.8090   -0.6910   23.6360 C   0  0  1  0  0  0  0  0  0  0  0  0
   13.7250   -1.2800   21.3420 F   0  0  0  0  0  0  0  0  0  0  0  0
    5.9070   -5.3550   20.0410 N   0  0  0  0  0  0  0  0  0  0  0  0
    6.5380   -4.2410   20.0410 C   0  0  0  0  0  0  0  0  0  0  0  0
    7.9030   -0.9920   22.4780 C   0  0  0  0  0  0  0  0  0  0  0  0
    9.1500   -4.0030   25.6620 C   0  0  0  0  0  0  0  0  0  0  0  0
    8.0070   -3.1910   26.1540 N   0  0  0  0  0  0  0  0  0  0  0  0
    7.8470   -2.0290   25.4830 N   0  0  0  0  0  0  0  0  0  0  0  0
    8.8870   -1.9460   24.4550 C   0  0  0  0  0  0  0  0  0  0  0  0
    9.9890   -3.2450   24.3420 S   0  0  0  0  0  0  0  0  0  0  0  0
   10.1340   -0.1510   23.1150 C   0  0  1  0  0  0  0  0  0  0  0  0
   11.4720    0.1670   23.9090 C   0  0  0  0  0  0  0  0  0  0  0  0
   12.6330    0.0330   23.1080 C   0  0  0  0  0  0  0  0  0  0  0  0
   12.7160   -1.0290   22.1450 C   0  0  0  0  0  0  0  0  0  0  0  0
   11.4770   -1.8520   22.1020 C   0  0  0  0  0  0  0  0  0  0  0  0
   10.4130   -1.0980   22.1620 N   0  0  0  0  0  0  0  0  0  0  0  0
    6.2920   -3.3370   21.1230 C   0  0  0  0  0  0  0  0  0  0  0  0
    5.1700   -3.3050   21.8860 N   0  0  0  0  0  0  0  0  0  0  0  0
    5.3260   -2.4330   22.6820 C   0  0  0  0  0  0  0  0  0  0  0  0
    6.5280   -1.6400   22.7120 C   0  0  0  0  0  0  0  0  0  0  0  0
    7.1180   -2.3760   21.5680 N   0  0  0  0  0  0  0  0  0  0  0  0
  4  5  2  3
  2  6  1  6
  1  7  1  0
  7  8  2  0
  8  9  1  0
  2 10  1  0
  9 10  2  0
  7 11  1  0
 10 11  1  0
  2 12  1  0
 12 13  1  1
 13 14  1  0
  3 15  1  0
 14 15  2  0
 15 16  1  0
 12 17  1  0
 16 17  1  0
  5 18  1  0
 18 19  2  0
 19 20  1  0
  6 21  1  0
 20 21  2  0
 18 22  1  0
 21 22  1  0
M  END
