x0397-x2600
     RDKit          3D

 26 28  0  0  0  0  0  0  0  0999 V2000
    8.0380   -1.6970   21.2020 C   0  0  0  0  0  0  0  0  0  0  0  0
    6.8920   -1.9240   20.2990 N   0  0  0  0  0  0  0  0  0  0  0  0
    6.9860   -1.4290   18.9970 C   0  0  0  0  0  0  0  0  0  0  0  0
    3.6220    2.5130   19.1090 C   0  0  0  0  0  0  0  0  0  0  0  0
    6.1050   -3.1450   20.5910 C   0  0  0  0  0  0  0  0  0  0  0  0
    5.4490   -3.7850   19.7480 O   0  0  0  0  0  0  0  0  0  0  0  0
    6.2390   -3.5250   22.0050 N   0  0  0  0  0  0  0  0  0  0  0  0
   13.9150   -1.6240   20.4950 N   0  0  0  0  0  0  0  0  0  0  0  0
    8.2740   -0.2870   21.7000 C   0  0  0  0  0  0  0  0  0  0  0  0
    8.1750    0.6680   20.9200 O   0  0  0  0  0  0  0  0  0  0  0  0
    8.6330   -0.1450   23.1800 C   0  0  0  0  0  0  0  0  0  0  0  0
   13.1290   -1.3780   21.6080 C   0  0  0  0  0  0  0  0  0  0  0  0
    4.9900    0.2030   19.7710 C   0  0  0  0  0  0  0  0  0  0  0  0
    6.1350   -0.2440   18.8210 C   0  0  0  0  0  0  0  0  0  0  0  0
    6.3370    0.5570   17.7430 N   0  0  0  0  0  0  0  0  0  0  0  0
    5.4430    1.5570   17.8240 O   0  0  0  0  0  0  0  0  0  0  0  0
    4.6770    1.4130   18.9220 C   0  0  0  0  0  0  0  0  0  0  0  0
    6.4880   -5.3220   23.2520 C   0  0  0  0  0  0  0  0  0  0  0  0
    5.5960   -4.8060   22.4610 C   0  0  0  0  0  0  0  0  0  0  0  0
    6.0210   -5.7870   21.7390 C   0  0  0  0  0  0  0  0  0  0  0  0
   10.6790   -0.1790   24.5990 C   0  0  0  0  0  0  0  0  0  0  0  0
   12.0300   -0.3840   24.8140 C   0  0  0  0  0  0  0  0  0  0  0  0
   12.8690   -0.7840   23.8480 C   0  0  0  0  0  0  0  0  0  0  0  0
   12.3090   -0.9830   22.6280 C   0  0  0  0  0  0  0  0  0  0  0  0
   10.8780   -0.7990   22.3030 C   0  0  0  0  0  0  0  0  0  0  0  0
   10.1150   -0.3930   23.3270 C   0  0  0  0  0  0  0  0  0  0  0  0
  1  2  1  0
  2  3  1  0
  2  5  1  0
  5  6  2  0
  5  7  1  0
  1  9  1  0
  9 10  2  0
  9 11  1  0
  8 12  3  0
  3 14  1  0
 13 14  1  0
 14 15  2  0
 15 16  1  0
  4 17  1  0
 13 17  2  0
 16 17  1  0
  7 19  1  0
 18 19  1  0
 18 20  1  0
 19 20  1  0
 21 22  2  0
 22 23  1  0
 12 24  1  0
 23 24  2  0
 24 25  1  0
 11 26  1  0
 21 26  1  0
 25 26  2  0
M  END
