x0395-x1311-x0755-x3113
     RDKit          3D

 62 68  0  0  0  0  0  0  0  0999 V2000
    7.3510   -1.0810   22.4180 N   0  0  0  0  0  0  0  0  0  0  0  0
    8.3990    1.6790   23.5000 N   0  0  0  0  0  0  0  0  0  0  0  0
    9.0110    1.7370   21.0890 O   0  0  0  0  0  0  0  0  0  0  0  0
   12.4770    3.7800   22.5550 O   0  0  0  0  0  0  0  0  0  0  0  0
    7.0650    0.2860   21.9420 C   0  0  1  0  0  0  0  0  0  0  0  0
    8.1960    1.2320   22.1220 C   0  0  0  0  0  0  0  0  0  0  0  0
    9.2860    2.7850   23.7300 C   0  0  0  0  0  0  0  0  0  0  0  0
   10.7290    2.4820   23.5160 C   0  0  0  0  0  0  0  0  0  0  0  0
   11.4370    3.7790   23.1940 C   0  0  0  0  0  0  0  0  0  0  0  0
   13.1310    4.8050   22.7260 C   0  0  0  0  0  0  0  0  0  0  0  0
   12.5210   -1.7440   24.3050 C   0  0  0  0  0  0  0  0  0  0  0  0
   13.5310   -1.6940   23.1830 C   0  0  0  0  0  0  0  0  0  0  0  0
   13.0340   -2.8610   25.2480 C   0  0  0  0  0  0  0  0  0  0  0  0
   12.4970   -0.4200   25.0220 C   0  0  0  0  0  0  0  0  0  0  0  0
    8.8380   -5.6410   26.3440 C   0  0  0  0  0  0  0  0  0  0  0  0
    6.4240    0.1120   18.0470 N   0  0  0  0  0  0  0  0  0  0  0  0
    5.2270    0.9560   17.8590 C   0  0  0  0  0  0  0  0  0  0  0  0
    4.6210    1.5690   19.0370 C   0  0  0  0  0  0  0  0  0  0  0  0
    5.2540    1.3150   20.3820 C   0  0  0  0  0  0  0  0  0  0  0  0
    6.4600    0.4640   20.5050 C   0  0  0  0  0  0  0  0  0  0  0  0
    6.9820   -0.1090   19.2790 C   0  0  0  0  0  0  0  0  0  0  0  0
    9.6240   -1.6350   21.9440 C   0  0  0  0  0  0  0  0  0  0  0  0
   10.9630   -2.2170   22.3870 C   0  0  0  0  0  0  0  0  0  0  0  0
   11.1800   -1.9510   23.7300 C   0  0  0  0  0  0  0  0  0  0  0  0
   10.1410   -1.8820   24.6160 C   0  0  0  0  0  0  0  0  0  0  0  0
    8.9010   -2.1700   24.1520 C   0  0  2  0  0  0  0  0  0  0  0  0
    8.5960   -1.6030   22.7730 C   0  0  0  0  0  0  0  0  0  0  0  0
    8.6890   -4.3300   25.6610 C   0  0  0  0  0  0  0  0  0  0  0  0
    7.9100   -3.1960   26.0720 C   0  0  0  0  0  0  0  0  0  0  0  0
    7.9560   -2.0670   25.3190 N   0  0  0  0  0  0  0  0  0  0  0  0
    9.4120   -3.8870   24.1550 S   0  0  0  0  0  0  0  0  0  0  0  0
   13.6870   -1.1440   20.9490 F   0  0  0  0  0  0  0  0  0  0  0  0
   13.0580   -1.9550   21.7980 C   0  0  0  0  0  0  0  0  0  0  0  0
    5.9480   -5.7670   19.9420 O   0  0  0  0  0  0  0  0  0  0  0  0
    6.5250   -5.0000   20.6850 C   0  0  0  0  0  0  0  0  0  0  0  0
    7.8090   -4.1960   20.5320 C   0  0  0  0  0  0  0  0  0  0  0  0
    4.2660   -7.7460   25.0780 O   0  0  0  0  0  0  0  0  0  0  0  0
    2.1230   -6.6080   23.8830 O   0  0  0  0  0  0  0  0  0  0  0  0
    4.4060   -6.1240   26.4020 O   0  0  0  0  0  0  0  0  0  0  0  0
    6.2930   -4.5700   27.3030 N   0  0  0  0  0  0  0  0  0  0  0  0
    4.7900   -3.4390   20.3370 O   0  0  0  0  0  0  0  0  0  0  0  0
    5.6540   -3.3550   21.1940 C   0  0  0  0  0  0  0  0  0  0  0  0
    6.3530   -2.2140   21.3500 C   0  0  0  0  0  0  0  0  0  0  0  0
    2.2560   -5.3840   26.1010 F   0  0  0  0  0  0  0  0  0  0  0  0
    5.4650   -1.8500   26.4440 F   0  0  0  0  0  0  0  0  0  0  0  0
    5.0910   -4.8440   26.3950 S   0  0  2  0  0  0  0  0  0  0  0  0
    4.7040   -5.3160   22.4800 C   0  0  1  0  0  0  0  0  0  0  0  0
    3.9240   -4.5150   23.0560 C   0  0  0  0  0  0  0  0  0  0  0  0
    4.4560   -5.0270   24.0900 C   0  0  1  0  0  0  0  0  0  0  0  0
    3.7100   -6.6530   24.0710 S   0  0  0  0  0  0  0  0  0  0  0  0
    4.4860   -6.6430   22.5850 C   0  0  0  0  0  0  0  0  0  0  0  0
    2.5770   -4.0820   26.1410 C   0  0  0  0  0  0  0  0  0  0  0  0
    3.8820   -3.6230   26.2850 C   0  0  0  0  0  0  0  0  0  0  0  0
    4.2090   -2.2750   26.3160 C   0  0  0  0  0  0  0  0  0  0  0  0
    3.2060   -1.3130   26.2050 C   0  0  0  0  0  0  0  0  0  0  0  0
    1.7850   -1.8030   26.0530 C   0  0  0  0  0  0  0  0  0  0  0  0
    1.5280   -3.1740   26.0250 C   0  0  0  0  0  0  0  0  0  0  0  0
    5.9420   -4.6210   21.9730 C   0  0  0  0  0  0  0  0  0  0  0  0
    7.0440   -4.6090   22.9920 C   0  0  0  0  0  0  0  0  0  0  0  0
    6.8510   -5.0850   24.2090 C   0  0  0  0  0  0  0  0  0  0  0  0
    5.5690   -4.6870   24.7880 N   0  0  0  0  0  0  0  0  0  0  0  0
    7.0690   -3.3210   27.2740 C   0  0  0  0  0  0  0  0  0  0  0  0
  5  1  1  6
  2  6  1  0
  3  6  2  0
  5  6  1  0
  2  7  1  0
  7  8  1  0
  4  9  1  0
  8  9  1  0
  4 10  1  0
 11 12  1  0
 11 13  1  0
 11 14  1  0
 16 17  2  0
 17 18  1  0
 18 19  2  0
  5 20  1  0
 19 20  1  0
 16 21  1  0
 20 21  2  0
 22 23  1  0
 11 24  1  0
 23 24  1  0
 24 25  2  0
 26 25  1  1
  1 27  1  0
 22 27  2  0
 26 27  1  0
 15 28  1  0
 28 29  1  0
 26 30  1  0
 29 30  2  0
 26 31  1  0
 28 31  2  0
 12 33  1  0
 32 33  1  0
 34 35  2  0
 35 36  1  0
 41 42  2  0
 42 43  1  0
 39 46  2  0
 40 46  2  0
 47 48  1  6
 47 49  1  0
 49 48  1  6
 50 37  1  0
 38 50  1  0
 49 50  1  0
 47 51  1  0
 50 51  1  0
 44 52  1  0
 46 53  1  1
 52 53  2  0
 45 54  1  0
 53 54  1  0
 54 55  2  0
 55 56  1  0
 52 57  1  0
 56 57  2  0
 58 35  1  0
 42 58  1  0
 47 58  1  0
 58 59  1  0
 59 60  1  0
 46 61  1  0
 49 61  1  0
 60 61  1  0
 29 62  1  0
 40 62  1  0
M  END
