x0395-x1093
     RDKit          3D

 27 30  0  0  0  0  0  0  0  0999 V2000
   13.3450   -1.1230   23.1310 C   0  0  0  0  0  0  0  0  0  0  0  0
    8.8460    1.5830   21.2060 O   0  0  0  0  0  0  0  0  0  0  0  0
    8.7980    0.2880   21.8460 C   0  0  0  0  0  0  0  0  0  0  0  0
    8.0240   -0.8010   21.1320 C   0  0  0  0  0  0  0  0  0  0  0  0
    9.1510   -5.3340   26.9470 C   0  0  0  0  0  0  0  0  0  0  0  0
   12.0220   -1.0290   23.5200 N   0  0  0  0  0  0  0  0  0  0  0  0
   11.7540    0.3890   23.5380 C   0  0  0  0  0  0  0  0  0  0  0  0
   10.3070    0.7800   23.7760 C   0  0  0  0  0  0  0  0  0  0  0  0
    9.3880   -0.0950   23.0360 N   0  0  0  0  0  0  0  0  0  0  0  0
    9.6370   -1.5660   23.0650 C   0  0  1  0  0  0  0  0  0  0  0  0
   11.0670   -1.7840   22.6590 C   0  0  0  0  0  0  0  0  0  0  0  0
    6.3200    0.1360   17.7930 N   0  0  0  0  0  0  0  0  0  0  0  0
    7.2410   -0.4760   18.6300 C   0  0  0  0  0  0  0  0  0  0  0  0
    7.1440   -0.2820   20.0540 C   0  0  0  0  0  0  0  0  0  0  0  0
    5.8890    0.5860   20.1320 C   0  0  0  0  0  0  0  0  0  0  0  0
    5.4400    0.8490   18.7050 C   0  0  0  0  0  0  0  0  0  0  0  0
    4.2480    1.7490   18.6690 N   0  0  0  0  0  0  0  0  0  0  0  0
    3.6400    2.1310   19.7960 C   0  0  0  0  0  0  0  0  0  0  0  0
    4.1010    1.8110   21.0580 C   0  0  0  0  0  0  0  0  0  0  0  0
    5.2270    1.0620   21.2570 C   0  0  0  0  0  0  0  0  0  0  0  0
    8.9590   -4.1160   26.0510 C   0  0  0  0  0  0  0  0  0  0  0  0
    7.9150   -3.0500   26.1030 N   0  0  0  0  0  0  0  0  0  0  0  0
    8.0850   -2.1180   25.1050 N   0  0  0  0  0  0  0  0  0  0  0  0
    9.1500   -2.3610   24.2870 C   0  0  0  0  0  0  0  0  0  0  0  0
   10.0250   -3.7640   24.7160 S   0  0  0  0  0  0  0  0  0  0  0  0
   12.2270   -1.8580   21.2730 F   0  0  0  0  0  0  0  0  0  0  0  0
   13.4030   -1.8600   21.8660 C   0  0  0  0  0  0  0  0  0  0  0  0
  2  3  2  0
  3  4  1  0
  1  6  1  0
  6  7  1  0
  7  8  1  0
  3  9  1  0
  8  9  1  0
  9 10  1  0
  6 11  1  0
 10 11  1  0
 12 13  1  0
  4 14  1  0
 13 14  2  0
 14 15  1  0
 12 16  2  0
 15 16  1  0
 16 17  1  0
 17 18  1  0
 18 19  2  0
 15 20  2  0
 19 20  1  0
  5 21  1  0
 21 22  2  0
 22 23  1  0
 10 24  1  1
 23 24  2  0
 21 25  1  0
 24 25  1  0
  1 27  1  0
 26 27  1  0
M  END
