x0397-x1093
     RDKit          3D

 27 30  0  0  0  0  0  0  0  0999 V2000
    8.2700   -1.6410   21.2040 C   0  0  0  0  0  0  0  0  0  0  0  0
    7.0730   -1.7690   20.3510 N   0  0  0  0  0  0  0  0  0  0  0  0
    7.1210   -1.4060   18.9880 C   0  0  0  0  0  0  0  0  0  0  0  0
    6.2780   -2.8330   20.7150 C   0  0  0  0  0  0  0  0  0  0  0  0
    5.4420   -3.3540   19.9660 O   0  0  0  0  0  0  0  0  0  0  0  0
    6.3890   -3.4570   22.0510 N   0  0  0  0  0  0  0  0  0  0  0  0
   13.3920   -1.2300   23.1280 C   0  0  0  0  0  0  0  0  0  0  0  0
    8.5090    0.7750   21.0800 O   0  0  0  0  0  0  0  0  0  0  0  0
    8.7820   -0.2810   21.6570 C   0  0  0  0  0  0  0  0  0  0  0  0
    5.5730    0.5850   19.6360 C   0  0  0  0  0  0  0  0  0  0  0  0
    6.3160   -0.2060   18.6910 C   0  0  0  0  0  0  0  0  0  0  0  0
    6.0990    0.4310   17.3920 N   0  0  0  0  0  0  0  0  0  0  0  0
    5.2460    1.5410   17.6030 O   0  0  0  0  0  0  0  0  0  0  0  0
    4.8980    1.6770   18.9290 C   0  0  0  0  0  0  0  0  0  0  0  0
    6.2440   -5.6340   23.2760 C   0  0  0  0  0  0  0  0  0  0  0  0
    5.6960   -4.7710   22.2740 C   0  0  0  0  0  0  0  0  0  0  0  0
    6.1210   -5.8210   21.6740 C   0  0  0  0  0  0  0  0  0  0  0  0
   12.0090   -0.8860   22.9700 N   0  0  0  0  0  0  0  0  0  0  0  0
   11.7390    0.4060   23.6090 C   0  0  0  0  0  0  0  0  0  0  0  0
   10.5050    0.8840   23.1650 C   0  0  0  0  0  0  0  0  0  0  0  0
    9.6370   -0.2670   22.8500 N   0  0  0  0  0  0  0  0  0  0  0  0
    9.8870   -1.4560   23.6870 C   0  0  0  0  0  0  0  0  0  0  0  0
   11.1390   -1.9900   23.4350 C   0  0  0  0  0  0  0  0  0  0  0  0
    4.1150    2.5670   19.6120 C   0  0  0  0  0  0  0  0  0  0  0  0
    4.0290    2.3500   21.0100 C   0  0  0  0  0  0  0  0  0  0  0  0
    4.7050    1.2530   21.8030 C   0  0  0  0  0  0  0  0  0  0  0  0
    5.4410    0.4210   21.0910 C   0  0  0  0  0  0  0  0  0  0  0  0
  1  2  1  0
  2  3  1  0
  2  4  1  0
  4  5  2  0
  4  6  1  0
  1  9  1  0
  8  9  2  0
  3 11  1  0
 10 11  1  0
 11 12  2  0
 12 13  1  0
 10 14  2  0
 13 14  1  0
  6 16  1  0
 15 16  1  0
 15 17  1  0
 16 17  1  0
  7 18  1  0
 18 19  1  0
 19 20  1  0
  9 21  1  0
 20 21  1  0
 21 22  1  0
 18 23  1  0
 22 23  1  0
 14 24  1  0
 24 25  2  0
 25 26  1  0
 10 27  1  0
 26 27  2  0
M  END
