x0395-x0755
     RDKit          3D

 36 39  0  0  0  0  0  0  0  0999 V2000
    4.4170   -6.3550   26.1160 O   0  0  0  0  0  0  0  0  0  0  0  0
    6.2920   -4.5660   26.6780 N   0  0  0  0  0  0  0  0  0  0  0  0
    5.3080   -5.1500   19.9830 O   0  0  0  0  0  0  0  0  0  0  0  0
    6.2760   -4.7460   20.5820 C   0  0  0  0  0  0  0  0  0  0  0  0
    7.0090   -3.5380   20.0460 C   0  0  0  0  0  0  0  0  0  0  0  0
    1.9560   -5.4670   25.6750 F   0  0  0  0  0  0  0  0  0  0  0  0
    5.4610   -2.1310   26.1210 F   0  0  0  0  0  0  0  0  0  0  0  0
    5.0660   -5.0860   25.8750 S   0  0  2  0  0  0  0  0  0  0  0  0
    9.1490   -5.2960   25.8050 C   0  0  0  0  0  0  0  0  0  0  0  0
    8.6460   -0.5160   23.2940 C   0  0  0  0  0  0  0  0  0  0  0  0
   13.7620   -1.3540   21.7300 F   0  0  0  0  0  0  0  0  0  0  0  0
    7.0480   -5.5670   27.3890 C   0  0  0  0  0  0  0  0  0  0  0  0
    8.5660   -5.5640   27.2320 C   0  0  0  0  0  0  0  0  0  0  0  0
    2.3460   -4.1920   25.7950 C   0  0  0  0  0  0  0  0  0  0  0  0
    3.8450   -3.8310   25.9030 C   0  0  0  0  0  0  0  0  0  0  0  0
    4.1740   -2.4770   26.0260 C   0  0  0  0  0  0  0  0  0  0  0  0
    3.2560   -1.3610   26.0660 C   0  0  0  0  0  0  0  0  0  0  0  0
    1.7740   -1.7680   25.9600 C   0  0  0  0  0  0  0  0  0  0  0  0
    1.3600   -3.2300   25.8200 C   0  0  0  0  0  0  0  0  0  0  0  0
    6.6720   -5.4120   21.7420 N   0  0  0  0  0  0  0  0  0  0  0  0
    7.3530   -4.6850   22.7570 C   0  0  0  0  0  0  0  0  0  0  0  0
    6.5080   -4.1760   23.7280 C   0  0  0  0  0  0  0  0  0  0  0  0
    5.7230   -5.2700   24.3110 N   0  0  0  0  0  0  0  0  0  0  0  0
    5.0480   -5.9050   23.3370 C   0  0  0  0  0  0  0  0  0  0  0  0
    5.7840   -6.2960   22.2370 C   0  0  0  0  0  0  0  0  0  0  0  0
    8.8930   -3.8220   25.3110 C   0  0  0  0  0  0  0  0  0  0  0  0
    8.1900   -2.8240   26.1290 N   0  0  0  0  0  0  0  0  0  0  0  0
    8.0570   -1.7060   25.5760 N   0  0  0  0  0  0  0  0  0  0  0  0
    8.6720   -1.7180   24.2120 C   0  0  0  0  0  0  0  0  0  0  0  0
    9.3870   -3.2150   23.7830 S   0  0  0  0  0  0  0  0  0  0  0  0
    9.8610   -0.2490   22.4560 C   0  0  1  0  0  0  0  0  0  0  0  0
   10.9060    0.2890   23.1850 C   0  0  0  0  0  0  0  0  0  0  0  0
   12.1890    0.0540   22.7640 C   0  0  0  0  0  0  0  0  0  0  0  0
   12.5440   -1.1230   22.1580 C   0  0  0  0  0  0  0  0  0  0  0  0
   11.5520   -2.0740   21.9950 C   0  0  0  0  0  0  0  0  0  0  0  0
   10.2480   -1.4710   21.7380 N   0  0  0  0  0  0  0  0  0  0  0  0
  3  4  2  0
  4  5  1  0
  1  8  2  0
  2  8  2  0
  2 12  1  0
  9 13  1  0
 12 13  1  0
  6 14  1  0
  8 15  1  6
 14 15  2  0
  7 16  1  0
 15 16  1  0
 16 17  2  0
 17 18  1  0
 14 19  1  0
 18 19  2  0
  4 20  1  0
 20 21  1  0
 21 22  1  0
  8 23  1  0
 22 23  1  0
 23 24  1  0
 20 25  1  0
 24 25  1  0
  9 26  1  0
 26 27  2  0
 27 28  1  0
 10 29  1  0
 28 29  2  0
 26 30  1  0
 29 30  1  0
 31 10  1  1
 31 32  1  0
 32 33  1  0
 11 34  1  0
 33 34  2  0
 34 35  1  0
 31 36  1  0
 35 36  1  0
M  END
