x0395-x1374
     RDKit          3D

 27 29  0  0  0  0  0  0  0  0999 V2000
   10.4700   -4.1680   25.9550 C   0  0  0  0  0  0  0  0  0  0  0  0
    6.3810   -4.8910   22.0130 N   0  0  0  0  0  0  0  0  0  0  0  0
    6.5430   -4.3650   20.7120 C   0  0  0  0  0  0  0  0  0  0  0  0
    5.6080   -4.4010   19.8950 O   0  0  0  0  0  0  0  0  0  0  0  0
    7.9520   -3.7450   20.4660 C   0  0  0  0  0  0  0  0  0  0  0  0
    2.4740   -6.8010   23.4680 O   0  0  0  0  0  0  0  0  0  0  0  0
    4.2530   -7.9610   24.7760 O   0  0  0  0  0  0  0  0  0  0  0  0
    9.3990   -4.3000   24.9250 C   0  0  0  0  0  0  0  0  0  0  0  0
    8.6640   -3.1990   24.4450 C   0  0  0  0  0  0  0  0  0  0  0  0
    7.6820   -3.3720   23.4930 C   0  0  0  0  0  0  0  0  0  0  0  0
    7.4050   -4.6280   23.0050 C   0  0  0  0  0  0  0  0  0  0  0  0
    8.0870   -5.7310   23.4380 C   0  0  0  0  0  0  0  0  0  0  0  0
    9.0840   -5.5810   24.3950 C   0  0  0  0  0  0  0  0  0  0  0  0
    4.9230   -4.5610   23.9410 C   0  0  0  0  0  0  0  0  0  0  0  0
    5.1010   -5.1270   22.6820 C   0  0  2  0  0  0  0  0  0  0  0  0
    4.9230   -6.4960   22.7240 C   0  0  0  0  0  0  0  0  0  0  0  0
    3.8160   -6.8240   24.0020 S   0  0  0  0  0  0  0  0  0  0  0  0
    4.2330   -5.3710   24.7700 C   0  0  0  0  0  0  0  0  0  0  0  0
    9.1040   -0.5780   24.1240 C   0  0  0  0  0  0  0  0  0  0  0  0
   13.7510   -1.4550   21.3340 F   0  0  0  0  0  0  0  0  0  0  0  0
   10.5460   -0.6040   23.6540 C   0  0  2  0  0  0  0  0  0  0  0  0
   11.4360    0.6610   23.5390 C   0  0  0  0  0  0  0  0  0  0  0  0
   12.7170    0.2990   22.7910 C   0  0  0  0  0  0  0  0  0  0  0  0
   12.7070   -1.0620   22.0330 C   0  0  0  0  0  0  0  0  0  0  0  0
   11.6070   -1.8970   22.0390 C   0  0  0  0  0  0  0  0  0  0  0  0
   10.4190   -1.1650   22.3510 N   0  0  0  0  0  0  0  0  0  0  0  0
    8.9590   -1.8300   25.0100 C   0  0  0  0  0  0  0  0  0  0  0  0
  2  3  1  0
  3  4  2  0
  3  5  1  0
  1  8  1  0
  8  9  2  0
  9 10  1  0
  2 11  1  0
 10 11  2  0
 11 12  1  0
  8 13  1  0
 12 13  2  0
 15  2  1  1
 14 15  1  0
 15 16  1  0
 17  6  1  0
  7 17  1  0
 16 17  1  0
 14 18  2  0
 17 18  1  0
 21 19  1  6
 21 22  1  0
 22 23  1  0
 20 24  1  0
 23 24  2  0
 24 25  1  0
 21 26  1  0
 25 26  1  0
  9 27  1  0
 19 27  1  0
M  END
