x0395-x1478
     RDKit          3D

 27 29  0  0  0  0  0  0  0  0999 V2000
    6.7410   -2.6290   21.4180 N   0  0  0  0  0  0  0  0  0  0  0  0
    7.9200   -4.2640   20.2990 C   0  0  0  0  0  0  0  0  0  0  0  0
    5.8540   -3.4050   19.3910 O   0  0  0  0  0  0  0  0  0  0  0  0
    6.2210   -5.7850   22.2800 Cl  0  0  0  0  0  0  0  0  0  0  0  0
    6.7150   -3.3900   20.2890 C   0  0  0  0  0  0  0  0  0  0  0  0
    9.2740   -5.3940   26.9240 C   0  0  0  0  0  0  0  0  0  0  0  0
    8.9510   -1.4750   23.4560 C   0  0  2  0  0  0  0  0  0  0  0  0
   13.8650   -0.9680   22.0050 F   0  0  0  0  0  0  0  0  0  0  0  0
    7.4400   -1.3600   21.4920 C   0  0  0  0  0  0  0  0  0  0  0  0
    7.7380   -0.7660   22.8790 C   0  0  0  0  0  0  0  0  0  0  0  0
    4.6620   -4.6430   24.0960 N   0  0  0  0  0  0  0  0  0  0  0  0
    5.5700   -4.3610   22.9750 C   0  0  0  0  0  0  0  0  0  0  0  0
    5.8310   -2.8850   22.5580 C   0  0  0  0  0  0  0  0  0  0  0  0
    5.1970   -1.8970   23.2740 C   0  0  0  0  0  0  0  0  0  0  0  0
    4.3130   -2.1530   24.3710 C   0  0  0  0  0  0  0  0  0  0  0  0
    4.0810   -3.6350   24.7420 C   0  0  0  0  0  0  0  0  0  0  0  0
    9.1450   -4.2900   26.0160 C   0  0  0  0  0  0  0  0  0  0  0  0
    8.0530   -3.3520   26.4020 N   0  0  0  0  0  0  0  0  0  0  0  0
    7.9710   -2.3170   25.4920 N   0  0  0  0  0  0  0  0  0  0  0  0
    8.8930   -2.4590   24.5250 C   0  0  0  0  0  0  0  0  0  0  0  0
   10.0060   -3.9010   24.6190 S   0  0  0  0  0  0  0  0  0  0  0  0
   10.3100   -0.8700   23.2870 C   0  0  2  0  0  0  0  0  0  0  0  0
   10.8490    0.3920   23.5010 C   0  0  0  0  0  0  0  0  0  0  0  0
   12.2030    0.2610   23.1510 C   0  0  0  0  0  0  0  0  0  0  0  0
   12.6450   -0.8110   22.3440 C   0  0  0  0  0  0  0  0  0  0  0  0
   11.7870   -1.7540   21.8540 C   0  0  0  0  0  0  0  0  0  0  0  0
   10.5180   -1.1530   21.9100 N   0  0  0  0  0  0  0  0  0  0  0  0
  1  5  1  0
  2  5  1  0
  3  5  2  0
  1  9  1  0
  7 10  1  1
  9 10  1  0
  4 12  1  0
 11 12  2  0
  1 13  1  0
 12 13  1  0
 13 14  2  0
 14 15  1  0
 11 16  1  0
 15 16  2  0
  6 17  1  0
 17 18  2  0
 18 19  1  0
  7 20  1  0
 19 20  2  0
 17 21  1  0
 20 21  1  0
  7 22  1  0
 22 23  1  6
 23 24  1  0
  8 25  1  0
 24 25  2  0
 25 26  1  0
 22 27  1  0
 26 27  1  0
M  END
