x0395-x0755-x0978-x3110-x3113
     RDKit          3D

 65 69  0  0  0  0  0  0  0  0999 V2000
    8.1800    1.3980   23.3500 N   0  0  0  0  0  0  0  0  0  0  0  0
   13.3790    5.2390   22.9390 C   0  0  0  0  0  0  0  0  0  0  0  0
   12.0810    3.3050   22.3900 O   0  0  0  0  0  0  0  0  0  0  0  0
   12.4870    4.5830   21.8980 C   0  0  0  0  0  0  0  0  0  0  0  0
    7.3480   -1.4150   22.1520 N   0  0  0  0  0  0  0  0  0  0  0  0
   11.1010    4.3610   24.1560 O   0  0  0  0  0  0  0  0  0  0  0  0
   11.2340    3.3840   23.4380 C   0  0  0  0  0  0  0  0  0  0  0  0
    8.7460    1.6020   21.1450 O   0  0  0  0  0  0  0  0  0  0  0  0
   10.4780    2.1030   23.5880 C   0  0  0  0  0  0  0  0  0  0  0  0
    8.9900    2.4580   23.7140 C   0  0  0  0  0  0  0  0  0  0  0  0
    8.0490    1.0550   22.0180 C   0  0  0  0  0  0  0  0  0  0  0  0
    6.9800   -0.0040   21.7610 C   0  0  1  0  0  0  0  0  0  0  0  0
   12.5080   -1.7660   24.3880 C   0  0  0  0  0  0  0  0  0  0  0  0
   12.4370   -0.4990   25.1980 C   0  0  0  0  0  0  0  0  0  0  0  0
   13.5090   -1.5190   23.3210 C   0  0  0  0  0  0  0  0  0  0  0  0
   13.0520   -2.9440   25.2150 C   0  0  0  0  0  0  0  0  0  0  0  0
    9.1040   -5.2420   26.3000 C   0  0  0  0  0  0  0  0  0  0  0  0
    2.3930   -5.9160   22.8140 N   0  0  0  0  0  0  0  0  0  0  0  0
    1.8690   -8.2390   24.1860 C   0  0  0  0  0  0  0  0  0  0  0  0
    4.2300   -8.1320   24.5790 O   0  0  0  0  0  0  0  0  0  0  0  0
    3.0270   -7.3970   24.7110 C   0  0  1  0  0  0  0  0  0  0  0  0
    0.7040   -7.3990   22.0610 O   0  0  0  0  0  0  0  0  0  0  0  0
    3.2310   -6.0620   24.0250 C   0  0  1  0  0  0  0  0  0  0  0  0
    1.0010   -6.3580   22.6340 C   0  0  0  0  0  0  0  0  0  0  0  0
   -0.0950   -5.4220   23.1780 C   0  0  0  0  0  0  0  0  0  0  0  0
    6.3320   -2.0780   22.8270 C   0  0  0  0  0  0  0  0  0  0  0  0
    5.5260   -3.1390   22.0940 C   0  0  0  0  0  0  0  0  0  0  0  0
    4.3600   -6.2260   26.5180 O   0  0  0  0  0  0  0  0  0  0  0  0
    6.2910   -4.4050   27.1240 O   0  0  0  0  0  0  0  0  0  0  0  0
    5.5900   -5.3990   19.9380 O   0  0  0  0  0  0  0  0  0  0  0  0
    6.2640   -4.5680   20.4860 C   0  0  0  0  0  0  0  0  0  0  0  0
    7.1520   -3.5370   19.8080 C   0  0  0  0  0  0  0  0  0  0  0  0
    1.9790   -5.3200   26.0260 F   0  0  0  0  0  0  0  0  0  0  0  0
    5.4490   -2.0150   26.1090 F   0  0  0  0  0  0  0  0  0  0  0  0
    4.9860   -4.9740   26.1730 S   0  0  0  0  0  0  0  0  0  0  0  0
    6.3800    0.1760   17.9570 N   0  0  0  0  0  0  0  0  0  0  0  0
    5.2950    0.9500   17.9010 C   0  0  0  0  0  0  0  0  0  0  0  0
    4.6840    1.4430   19.0220 C   0  0  0  0  0  0  0  0  0  0  0  0
    5.2190    1.1320   20.2550 C   0  0  0  0  0  0  0  0  0  0  0  0
    6.3750    0.3210   20.4030 C   0  0  0  0  0  0  0  0  0  0  0  0
    6.8830   -0.1170   19.1800 C   0  0  0  0  0  0  0  0  0  0  0  0
    9.7740   -1.5710   21.8740 C   0  0  0  0  0  0  0  0  0  0  0  0
   11.0480   -1.9790   22.3360 C   0  0  0  0  0  0  0  0  0  0  0  0
   11.1660   -1.9820   23.7250 C   0  0  0  0  0  0  0  0  0  0  0  0
   10.0740   -2.1810   24.4800 C   0  0  0  0  0  0  0  0  0  0  0  0
    8.8660   -2.4350   23.9120 C   0  0  2  0  0  0  0  0  0  0  0  0
    8.6380   -1.8010   22.6470 C   0  0  0  0  0  0  0  0  0  0  0  0
    8.9130   -4.0470   25.4260 C   0  0  0  0  0  0  0  0  0  0  0  0
    8.4050   -2.9180   25.9650 N   0  0  0  0  0  0  0  0  0  0  0  0
    7.9300   -2.1850   24.9860 N   0  0  0  0  0  0  0  0  0  0  0  0
    9.3440   -4.1860   23.6840 S   0  0  0  0  0  0  0  0  0  0  0  0
    2.4100   -4.0480   26.0040 C   0  0  0  0  0  0  0  0  0  0  0  0
    3.7710   -3.7160   26.0680 C   0  0  0  0  0  0  0  0  0  0  0  0
    4.1620   -2.3790   26.0470 C   0  0  0  0  0  0  0  0  0  0  0  0
    3.2000   -1.3740   25.9620 C   0  0  0  0  0  0  0  0  0  0  0  0
    1.8470   -1.7000   25.8980 C   0  0  0  0  0  0  0  0  0  0  0  0
    1.4570   -3.0390   25.9190 C   0  0  0  0  0  0  0  0  0  0  0  0
    6.1650   -4.5590   21.9760 C   0  0  1  0  0  0  0  0  0  0  0  0
    7.3350   -4.8270   22.8650 C   0  0  0  0  0  0  0  0  0  0  0  0
    6.9670   -4.9260   24.3480 C   0  0  0  0  0  0  0  0  0  0  0  0
    5.5260   -5.0900   24.5920 N   0  0  0  0  0  0  0  0  0  0  0  0
    4.7590   -5.9590   23.6520 C   0  0  2  0  0  0  0  0  0  0  0  0
    5.1550   -5.6840   22.2370 C   0  0  0  0  0  0  0  0  0  0  0  0
   13.4440   -1.9480   21.0250 F   0  0  0  0  0  0  0  0  0  0  0  0
   13.0130   -1.1090   21.9770 C   0  0  0  0  0  0  0  0  0  0  0  0
  2  4  1  0
  3  4  1  0
  3  7  1  0
  6  7  2  0
  7  9  1  0
  1 10  1  0
  9 10  1  0
  1 11  1  0
  8 11  2  0
  5 12  1  0
 12 11  1  6
 13 14  1  0
 13 15  1  0
 13 16  1  0
 21 19  1  6
 20 21  1  0
 23 18  1  6
 21 23  1  0
 18 24  1  0
 22 24  2  0
 24 25  1  0
  5 26  1  0
 26 27  1  0
 30 31  2  0
 31 32  1  0
 28 35  2  0
 29 35  2  0
 36 37  2  0
 37 38  1  0
 38 39  2  0
 12 40  1  0
 39 40  1  0
 36 41  1  0
 40 41  2  0
 42 43  1  0
 13 44  1  0
 43 44  1  0
 44 45  2  0
 46 45  1  1
  5 47  1  0
 42 47  2  0
 46 47  1  0
 17 48  1  0
 48 49  1  0
 46 50  1  0
 49 50  2  0
 46 51  1  0
 48 51  2  0
 33 52  1  0
 35 53  1  0
 52 53  2  0
 34 54  1  0
 53 54  1  0
 54 55  2  0
 55 56  1  0
 52 57  1  0
 56 57  2  0
 58 27  1  1
 58 31  1  0
 58 59  1  0
 59 60  1  0
 35 61  1  0
 60 61  1  0
 23 62  1  0
 61 62  1  0
 58 63  1  0
 62 63  1  6
 15 65  1  0
 64 65  1  0
M  END
