x0395-x1402
     RDKit          3D

 34 37  0  0  0  0  0  0  0  0999 V2000
    7.2830   -3.4870   19.9740 C   0  0  0  0  0  0  0  0  0  0  0  0
    5.2620   -4.7840   19.9620 O   0  0  0  0  0  0  0  0  0  0  0  0
    0.8290   -1.3360   26.2240 Cl  0  0  0  0  0  0  0  0  0  0  0  0
    6.3360   -4.5670   20.4920 C   0  0  0  0  0  0  0  0  0  0  0  0
    3.8670   -6.5480   25.7350 O   0  0  0  0  0  0  0  0  0  0  0  0
    5.8740   -5.7800   26.9290 N   0  0  0  0  0  0  0  0  0  0  0  0
    4.8890   -5.5270   25.7360 S   0  0  1  0  0  0  0  0  0  0  0  0
    9.2570   -5.3120   25.6910 C   0  0  0  0  0  0  0  0  0  0  0  0
    8.7980   -0.5760   23.1860 C   0  0  0  0  0  0  0  0  0  0  0  0
   13.7240   -1.5200   21.5170 F   0  0  0  0  0  0  0  0  0  0  0  0
    7.0810   -5.0000   27.0750 C   0  0  0  0  0  0  0  0  0  0  0  0
    8.4190   -5.7320   26.9360 C   0  0  0  0  0  0  0  0  0  0  0  0
    6.7070   -5.3620   21.5890 N   0  0  0  0  0  0  0  0  0  0  0  0
    7.4700   -4.8240   22.7320 C   0  0  0  0  0  0  0  0  0  0  0  0
    6.5010   -4.5990   23.9270 C   0  0  0  0  0  0  0  0  0  0  0  0
    5.7240   -5.6030   24.2440 N   0  0  0  0  0  0  0  0  0  0  0  0
    4.9980   -5.9710   23.1260 C   0  0  0  0  0  0  0  0  0  0  0  0
    5.7810   -6.3740   22.0030 C   0  0  0  0  0  0  0  0  0  0  0  0
    2.4320   -3.9000   25.8870 S   0  0  0  0  0  0  0  0  0  0  0  0
    4.1640   -3.9980   25.9470 C   0  0  0  0  0  0  0  0  0  0  0  0
    4.6750   -2.5840   26.1810 C   0  0  0  0  0  0  0  0  0  0  0  0
    3.5560   -1.5810   26.2860 C   0  0  0  0  0  0  0  0  0  0  0  0
    2.3220   -2.1880   26.1460 C   0  0  0  0  0  0  0  0  0  0  0  0
    9.0210   -3.8630   25.1910 C   0  0  0  0  0  0  0  0  0  0  0  0
    8.3840   -2.8820   25.9490 N   0  0  0  0  0  0  0  0  0  0  0  0
    8.2860   -1.7910   25.3560 N   0  0  0  0  0  0  0  0  0  0  0  0
    8.8190   -1.7970   24.1020 C   0  0  0  0  0  0  0  0  0  0  0  0
    9.5120   -3.3120   23.6440 S   0  0  0  0  0  0  0  0  0  0  0  0
   10.0760   -0.2450   22.4460 C   0  0  1  0  0  0  0  0  0  0  0  0
   11.1510    0.2870   23.1890 C   0  0  0  0  0  0  0  0  0  0  0  0
   12.4270    0.0180   22.6960 C   0  0  0  0  0  0  0  0  0  0  0  0
   12.5830   -1.1660   22.0330 C   0  0  0  0  0  0  0  0  0  0  0  0
   11.5080   -1.9800   21.8940 C   0  0  0  0  0  0  0  0  0  0  0  0
   10.3270   -1.4080   21.7560 N   0  0  0  0  0  0  0  0  0  0  0  0
  1  4  1  0
  2  4  2  0
  5  7  2  0
  6  7  2  0
  6 11  1  0
  8 12  1  0
 11 12  1  0
  4 13  1  0
 13 14  1  0
 14 15  1  0
  7 16  1  0
 15 16  1  0
 16 17  1  0
 13 18  1  0
 17 18  1  0
  7 20  1  1
 19 20  1  0
 20 21  2  0
 21 22  1  0
  3 23  1  0
 19 23  1  0
 22 23  2  0
  8 24  1  0
 24 25  2  0
 25 26  1  0
  9 27  1  0
 26 27  2  0
 24 28  1  0
 27 28  1  0
 29  9  1  1
 29 30  1  0
 30 31  1  0
 10 32  1  0
 31 32  2  0
 32 33  1  0
 29 34  1  0
 33 34  1  0
M  END
