x0395-x3108
     RDKit          3D

 27 29  0  0  0  0  0  0  0  0999 V2000
    6.1120    1.6320   22.2630 C   0  0  0  0  0  0  0  0  0  0  0  0
    9.4760    1.6750   21.5450 O   0  0  0  0  0  0  0  0  0  0  0  0
    8.1880   -0.4710   21.2000 N   0  0  0  0  0  0  0  0  0  0  0  0
    8.3660    0.1440   25.1430 O   0  0  0  0  0  0  0  0  0  0  0  0
    9.1930   -1.3200   23.5680 N   0  0  0  0  0  0  0  0  0  0  0  0
    9.2530    0.2890   21.8730 C   0  0  0  0  0  0  0  0  0  0  0  0
    8.3500   -0.9560   24.6050 C   0  0  0  0  0  0  0  0  0  0  0  0
    7.3950   -2.0400   25.0140 C   0  0  0  0  0  0  0  0  0  0  0  0
   13.3390   -1.7060   21.8080 F   0  0  0  0  0  0  0  0  0  0  0  0
    6.3300    0.0770   17.9710 N   0  0  0  0  0  0  0  0  0  0  0  0
    7.1930   -0.3810   18.8640 C   0  0  0  0  0  0  0  0  0  0  0  0
    7.2440    0.0440   20.3190 C   0  0  0  0  0  0  0  0  0  0  0  0
    6.1740    1.0930   20.7430 C   0  0  0  0  0  0  0  0  0  0  0  0
    5.2110    1.5580   19.6220 C   0  0  0  0  0  0  0  0  0  0  0  0
    5.4010    0.9990   18.3740 C   0  0  0  0  0  0  0  0  0  0  0  0
    9.6240   -5.1860   24.7140 N   0  0  0  0  0  0  0  0  0  0  0  0
    9.0360   -4.0380   24.3710 C   0  0  0  0  0  0  0  0  0  0  0  0
    8.0820   -3.3320   25.3500 C   0  0  0  0  0  0  0  0  0  0  0  0
    7.8690   -4.0230   26.6950 C   0  0  0  0  0  0  0  0  0  0  0  0
    8.6230   -5.3380   26.9290 C   0  0  0  0  0  0  0  0  0  0  0  0
    9.4380   -5.8020   25.9100 C   0  0  0  0  0  0  0  0  0  0  0  0
   10.6060    0.4490   23.8560 C   0  0  0  0  0  0  0  0  0  0  0  0
   11.6900    1.1650   23.3600 C   0  0  0  0  0  0  0  0  0  0  0  0
   12.6560    0.3120   22.8750 C   0  0  0  0  0  0  0  0  0  0  0  0
   12.3660   -0.9060   22.2850 C   0  0  0  0  0  0  0  0  0  0  0  0
   11.0180   -1.2510   22.1990 C   0  0  0  0  0  0  0  0  0  0  0  0
   10.0860   -0.5180   22.9590 C   0  0  1  0  0  0  0  0  0  0  0  0
  2  6  2  0
  3  6  1  0
  4  7  2  0
  5  7  1  0
  7  8  1  0
 10 11  2  0
  3 12  1  0
 11 12  1  0
  1 13  1  0
 12 13  2  0
 13 14  1  0
 10 15  1  0
 14 15  2  0
 16 17  2  0
  8 18  1  0
 17 18  1  0
 18 19  2  0
 19 20  1  0
 16 21  1  0
 20 21  2  0
 22 23  1  0
 23 24  1  0
  9 25  1  0
 24 25  2  0
 25 26  1  0
 27  5  1  1
 27  6  1  0
 22 27  1  0
 26 27  1  0
M  END
