x0395-x0978-x1308-x3113
     RDKit          3D

 62 66  0  0  0  0  0  0  0  0999 V2000
    7.2900   -1.2520   22.2960 N   0  0  0  0  0  0  0  0  0  0  0  0
    8.3960    1.5310   23.4430 N   0  0  0  0  0  0  0  0  0  0  0  0
    8.9240    1.6380   21.0180 O   0  0  0  0  0  0  0  0  0  0  0  0
   12.4390    3.7500   22.5370 O   0  0  0  0  0  0  0  0  0  0  0  0
    6.9950    0.1520   21.9240 C   0  0  1  0  0  0  0  0  0  0  0  0
    8.1410    1.1060   22.0620 C   0  0  0  0  0  0  0  0  0  0  0  0
    9.2590    2.6590   23.6780 C   0  0  0  0  0  0  0  0  0  0  0  0
   10.7130    2.3840   23.4810 C   0  0  0  0  0  0  0  0  0  0  0  0
   11.4080    3.6970   23.1930 C   0  0  0  0  0  0  0  0  0  0  0  0
   13.0770    4.7810   22.7380 C   0  0  0  0  0  0  0  0  0  0  0  0
   12.4780   -1.8560   24.3420 C   0  0  0  0  0  0  0  0  0  0  0  0
   13.3300   -2.0760   23.1200 C   0  0  0  0  0  0  0  0  0  0  0  0
   12.9650   -2.9360   25.3350 C   0  0  0  0  0  0  0  0  0  0  0  0
   12.6610   -0.4630   24.8880 C   0  0  0  0  0  0  0  0  0  0  0  0
    9.0350   -5.5980   26.2360 C   0  0  0  0  0  0  0  0  0  0  0  0
    2.1550   -5.6340   23.1250 N   0  0  0  0  0  0  0  0  0  0  0  0
    2.1250   -8.1840   24.6370 C   0  0  0  0  0  0  0  0  0  0  0  0
    4.4340   -8.0620   24.5110 O   0  0  0  0  0  0  0  0  0  0  0  0
    3.2800   -7.2840   24.4640 C   0  0  1  0  0  0  0  0  0  0  0  0
    0.8310   -7.3680   21.9080 O   0  0  0  0  0  0  0  0  0  0  0  0
    3.3920   -6.4180   23.2190 C   0  0  2  0  0  0  0  0  0  0  0  0
    4.2190   -4.2140   22.8040 O   0  0  0  0  0  0  0  0  0  0  0  0
    0.9890   -6.1490   22.6380 C   0  0  0  0  0  0  0  0  0  0  0  0
   -0.2670   -5.4420   22.8310 C   0  0  0  0  0  0  0  0  0  0  0  0
    6.5770   -4.2690   20.0850 C   0  0  0  0  0  0  0  0  0  0  0  0
    5.5660   -3.6540   19.5220 C   0  0  0  0  0  0  0  0  0  0  0  0
    6.3610   -2.1730   21.6140 C   0  0  0  0  0  0  0  0  0  0  0  0
    6.1520   -3.3290   22.3600 C   0  0  0  0  0  0  0  0  0  0  0  0
    0.4330   -0.9690   26.5560 Cl  0  0  0  0  0  0  0  0  0  0  0  0
    6.5950   -5.0230   26.5340 O   0  0  0  0  0  0  0  0  0  0  0  0
    4.9900   -6.7940   26.2670 O   0  0  0  0  0  0  0  0  0  0  0  0
    5.4580   -5.5090   25.7830 S   0  0  0  0  0  0  0  0  0  0  0  0
    6.4700    0.1080   18.0530 N   0  0  0  0  0  0  0  0  0  0  0  0
    5.4020    0.9310   17.9840 C   0  0  0  0  0  0  0  0  0  0  0  0
    4.7100    1.5920   19.1330 C   0  0  0  0  0  0  0  0  0  0  0  0
    5.3380    1.2500   20.4220 C   0  0  0  0  0  0  0  0  0  0  0  0
    6.4560    0.3940   20.5000 C   0  0  0  0  0  0  0  0  0  0  0  0
    6.9700   -0.1440   19.2990 C   0  0  0  0  0  0  0  0  0  0  0  0
    9.6780   -1.7420   21.9610 C   0  0  0  0  0  0  0  0  0  0  0  0
   10.8950   -2.2540   22.4420 C   0  0  0  0  0  0  0  0  0  0  0  0
   11.0930   -2.0350   23.8020 C   0  0  0  0  0  0  0  0  0  0  0  0
   10.0300   -1.9980   24.5990 C   0  0  0  0  0  0  0  0  0  0  0  0
    8.8640   -2.2840   24.0290 C   0  0  2  0  0  0  0  0  0  0  0  0
    8.5560   -1.7510   22.7880 C   0  0  0  0  0  0  0  0  0  0  0  0
    8.8220   -4.2790   25.5760 C   0  0  0  0  0  0  0  0  0  0  0  0
    8.1740   -3.2130   26.1400 N   0  0  0  0  0  0  0  0  0  0  0  0
    7.8780   -2.2760   25.1710 N   0  0  0  0  0  0  0  0  0  0  0  0
    9.3590   -3.8850   23.9570 S   0  0  0  0  0  0  0  0  0  0  0  0
    6.4360   -4.6790   21.6110 C   0  0  2  0  0  0  0  0  0  0  0  0
    7.4800   -5.1390   22.3590 C   0  0  0  0  0  0  0  0  0  0  0  0
    7.1770   -5.1230   23.7420 C   0  0  0  0  0  0  0  0  0  0  0  0
    5.7760   -5.5340   24.1010 N   0  0  0  0  0  0  0  0  0  0  0  0
    4.7320   -5.5360   23.0240 C   0  0  1  0  0  0  0  0  0  0  0  0
    5.3640   -5.7380   21.8110 C   0  0  0  0  0  0  0  0  0  0  0  0
    4.1450   -2.8060   26.4040 C   0  0  0  0  0  0  0  0  0  0  0  0
    3.0910   -1.9190   26.5470 C   0  0  0  0  0  0  0  0  0  0  0  0
    1.6800   -2.1210   26.3520 C   0  0  0  0  0  0  0  0  0  0  0  0
    1.5130   -3.5740   25.9290 C   0  0  0  0  0  0  0  0  0  0  0  0
    2.4400   -4.5140   25.7590 C   0  0  0  0  0  0  0  0  0  0  0  0
    3.8770   -4.1120   26.0150 C   0  0  0  0  0  0  0  0  0  0  0  0
   13.6090   -1.4440   20.9190 F   0  0  0  0  0  0  0  0  0  0  0  0
   13.2860   -0.9620   22.1370 C   0  0  0  0  0  0  0  0  0  0  0  0
  1  5  1  0
  2  6  1  0
  3  6  2  0
  5  6  1  6
  2  7  1  0
  7  8  1  0
  4  9  1  0
  8  9  1  0
  4 10  1  0
 11 12  1  0
 11 13  1  0
 11 14  1  0
 19 17  1  6
 18 19  1  0
 21 16  1  1
 19 21  1  0
 16 23  1  0
 20 23  2  0
 23 24  1  0
 25 26  2  3
  1 27  1  0
 27 28  1  0
 30 32  2  0
 31 32  2  0
 33 34  2  0
 34 35  1  0
 35 36  2  0
  5 37  1  0
 36 37  1  0
 33 38  1  0
 37 38  2  0
 39 40  1  0
 11 41  1  0
 40 41  1  0
 41 42  2  0
 43 42  1  1
  1 44  1  0
 39 44  2  0
 43 44  1  0
 15 45  1  0
 45 46  1  0
 43 47  1  0
 46 47  2  0
 43 48  1  0
 45 48  2  0
 49 25  1  6
 28 49  1  0
 49 50  1  0
 50 51  1  0
 32 52  1  0
 51 52  1  0
 21 53  1  0
 53 22  1  6
 52 53  1  0
 49 54  1  0
 53 54  1  0
 55 56  2  0
 29 57  1  0
 56 57  1  0
 57 58  2  0
 58 59  1  0
 32 60  1  0
 55 60  1  0
 59 60  2  0
 12 62  1  0
 61 62  1  0
M  END
