x0395-x0354
     RDKit          3D

 23 25  0  0  0  0  0  0  0  0999 V2000
   13.1990   -2.8190   25.0840 C   0  0  0  0  0  0  0  0  0  0  0  0
    7.8840    0.7200   24.1930 O   0  0  0  0  0  0  0  0  0  0  0  0
    9.2580    0.2900   24.1310 C   0  0  0  0  0  0  0  0  0  0  0  0
    5.2570   -0.0490   29.2810 C   0  0  0  0  0  0  0  0  0  0  0  0
   10.2690   -4.7390   25.3190 C   0  0  0  0  0  0  0  0  0  0  0  0
    8.1480   -1.1310   21.5020 C   0  0  0  0  0  0  0  0  0  0  0  0
   12.0500   -2.4480   24.2840 N   0  0  0  0  0  0  0  0  0  0  0  0
   10.7890   -2.5940   24.8740 C   0  0  0  0  0  0  0  0  0  0  0  0
    9.5930   -2.0880   23.9510 C   0  0  1  0  0  0  0  0  0  0  0  0
    9.9280   -1.0890   22.9720 N   0  0  0  0  0  0  0  0  0  0  0  0
   11.2480   -0.6590   23.0500 C   0  0  0  0  0  0  0  0  0  0  0  0
   12.1560   -1.6960   23.1050 C   0  0  0  0  0  0  0  0  0  0  0  0
    7.4370    1.5870   26.4240 C   0  0  0  0  0  0  0  0  0  0  0  0
    6.7650    1.4490   27.8050 C   0  0  0  0  0  0  0  0  0  0  0  0
    5.9260    0.1980   28.0400 C   0  0  0  0  0  0  0  0  0  0  0  0
    5.8510   -0.7730   26.8600 C   0  0  0  0  0  0  0  0  0  0  0  0
    6.5060   -0.5470   25.6440 C   0  0  0  0  0  0  0  0  0  0  0  0
    7.2840    0.5990   25.4180 C   0  0  0  0  0  0  0  0  0  0  0  0
    9.8370   -3.4890   24.5380 C   0  0  0  0  0  0  0  0  0  0  0  0
    9.8980   -2.0380   24.9120 N   0  0  0  0  0  0  0  0  0  0  0  0
    9.3170   -1.1810   23.8830 N   0  0  0  0  0  0  0  0  0  0  0  0
    8.8200   -1.7680   22.7190 C   0  0  0  0  0  0  0  0  0  0  0  0
    9.0920   -3.4030   22.9910 S   0  0  0  0  0  0  0  0  0  0  0  0
  2  3  1  0
  1  7  1  0
  7  8  1  0
  8  9  1  0
  9 10  1  0
 10 11  1  0
  7 12  1  0
 11 12  1  0
 13 14  2  0
  4 15  1  0
 14 15  1  0
 15 16  2  0
 16 17  1  0
  2 18  1  0
 13 18  1  0
 17 18  2  0
  5 19  1  0
 19 20  2  0
  3 21  1  0
 20 21  1  0
  6 22  1  0
 21 22  1  0
  9 23  1  6
 19 23  1  0
 22 23  2  0
M  END
