x0397-x0708
     RDKit          3D

 27 30  0  0  0  0  0  0  0  0999 V2000
    6.6030   -4.3340   21.4700 N   0  0  0  0  0  0  0  0  0  0  0  0
    7.3310   -2.9930   19.5230 C   0  0  2  0  0  0  0  0  0  0  0  0
    5.1580   -4.0800   19.6850 O   0  0  0  0  0  0  0  0  0  0  0  0
    6.2400   -3.8280   20.1970 C   0  0  0  0  0  0  0  0  0  0  0  0
    7.8090   -3.8870   22.0500 N   0  0  0  0  0  0  0  0  0  0  0  0
    6.8240   -2.7080   23.6020 O   0  0  0  0  0  0  0  0  0  0  0  0
    7.7990   -2.9190   22.8870 C   0  0  0  0  0  0  0  0  0  0  0  0
    7.9850   -1.9880   20.5070 C   0  0  0  0  0  0  0  0  0  0  0  0
    6.8640   -2.0670   18.3830 C   0  0  0  0  0  0  0  0  0  0  0  0
    3.9630    1.9270   19.6720 C   0  0  0  0  0  0  0  0  0  0  0  0
    9.0310   -2.0930   22.8750 C   0  0  0  0  0  0  0  0  0  0  0  0
   10.4790   -2.4760   22.6110 C   0  0  0  0  0  0  0  0  0  0  0  0
   11.2420   -1.2220   22.7190 C   0  0  0  0  0  0  0  0  0  0  0  0
   10.6080   -0.0160   23.0120 C   0  0  0  0  0  0  0  0  0  0  0  0
    8.9270   -0.4000   23.1900 S   0  0  0  0  0  0  0  0  0  0  0  0
   12.7500   -0.8730   22.5690 C   0  0  0  0  0  0  0  0  0  0  0  0
   13.2540    0.3710   22.7100 C   0  0  0  0  0  0  0  0  0  0  0  0
   12.5450    1.4680   22.9910 C   0  0  0  0  0  0  0  0  0  0  0  0
   11.2000    1.4000   23.1600 C   0  0  0  0  0  0  0  0  0  0  0  0
    5.1500   -0.5920   19.6180 C   0  0  0  0  0  0  0  0  0  0  0  0
    6.1330   -0.7460   18.6010 C   0  0  0  0  0  0  0  0  0  0  0  0
    6.4390    0.2720   17.7840 N   0  0  0  0  0  0  0  0  0  0  0  0
    5.6910    1.3250   18.1030 O   0  0  0  0  0  0  0  0  0  0  0  0
    4.8900    0.8980   19.1760 C   0  0  0  0  0  0  0  0  0  0  0  0
    6.0130   -5.4780   23.3810 C   0  0  0  0  0  0  0  0  0  0  0  0
    5.6210   -4.8910   22.3950 C   0  0  0  0  0  0  0  0  0  0  0  0
    5.5310   -6.2810   22.2540 C   0  0  0  0  0  0  0  0  0  0  0  0
  1  4  1  0
  2  4  1  0
  3  4  2  0
  1  5  1  0
  5  7  1  0
  6  7  2  0
  2  8  1  1
  2  9  1  0
  7 11  1  0
 11 12  2  0
 12 13  1  0
 13 14  2  0
 11 15  1  0
 14 15  1  0
 13 16  1  0
 16 17  2  0
 17 18  1  0
 14 19  1  0
 18 19  2  0
  9 21  1  0
 20 21  1  0
 21 22  2  0
 22 23  1  0
 10 24  1  0
 20 24  2  0
 23 24  1  0
  1 26  1  0
 25 26  1  0
 25 27  1  0
 26 27  1  0
M  END
