x0395-x3110
     RDKit          3D

 39 41  0  0  0  0  0  0  0  0999 V2000
    8.0890    0.9380   23.2680 N   0  0  0  0  0  0  0  0  0  0  0  0
   13.3600    5.0620   22.8500 C   0  0  0  0  0  0  0  0  0  0  0  0
   11.9260    3.1770   22.4880 O   0  0  0  0  0  0  0  0  0  0  0  0
   12.2780    4.4700   21.9670 C   0  0  0  0  0  0  0  0  0  0  0  0
    6.8900   -1.7710   21.9890 N   0  0  0  0  0  0  0  0  0  0  0  0
   10.7490    4.1830   24.1350 O   0  0  0  0  0  0  0  0  0  0  0  0
   10.9510    3.2090   23.4290 C   0  0  0  0  0  0  0  0  0  0  0  0
    8.5380    0.7250   21.0730 O   0  0  0  0  0  0  0  0  0  0  0  0
   10.1900    2.0110   23.5090 C   0  0  0  0  0  0  0  0  0  0  0  0
    4.7430   -3.0310   21.4500 O   0  0  0  0  0  0  0  0  0  0  0  0
    8.8010    2.1620   23.4920 C   0  0  0  0  0  0  0  0  0  0  0  0
    7.8050    0.4270   22.0120 C   0  0  0  0  0  0  0  0  0  0  0  0
    6.6350   -0.3920   21.8060 C   0  0  1  0  0  0  0  0  0  0  0  0
    6.0300   -2.8530   21.4160 C   0  0  0  0  0  0  0  0  0  0  0  0
    6.6820   -3.9830   20.6670 C   0  0  0  0  0  0  0  0  0  0  0  0
    8.1630   -3.6950   20.4500 C   0  0  0  0  0  0  0  0  0  0  0  0
   12.2090   -1.5270   24.2690 C   0  0  0  0  0  0  0  0  0  0  0  0
   12.1380   -0.4410   25.0940 C   0  0  0  0  0  0  0  0  0  0  0  0
   13.3490   -1.3000   23.3490 C   0  0  0  0  0  0  0  0  0  0  0  0
   12.5770   -2.8170   25.0250 C   0  0  0  0  0  0  0  0  0  0  0  0
    8.7890   -5.6470   26.3360 C   0  0  0  0  0  0  0  0  0  0  0  0
    6.4730    0.2830   17.9790 N   0  0  0  0  0  0  0  0  0  0  0  0
    5.3830    1.0720   17.8820 C   0  0  0  0  0  0  0  0  0  0  0  0
    4.5500    1.4700   19.0650 C   0  0  0  0  0  0  0  0  0  0  0  0
    5.0200    0.9290   20.4040 C   0  0  0  0  0  0  0  0  0  0  0  0
    6.1600    0.1230   20.4380 C   0  0  0  0  0  0  0  0  0  0  0  0
    6.8100   -0.1500   19.2210 C   0  0  0  0  0  0  0  0  0  0  0  0
    9.3510   -1.5590   21.7480 C   0  0  0  0  0  0  0  0  0  0  0  0
   10.6820   -1.6860   22.1300 C   0  0  0  0  0  0  0  0  0  0  0  0
   10.9630   -1.7550   23.4860 C   0  0  0  0  0  0  0  0  0  0  0  0
    9.8830   -2.1420   24.2590 C   0  0  0  0  0  0  0  0  0  0  0  0
    8.6390   -2.4890   23.8070 C   0  0  2  0  0  0  0  0  0  0  0  0
    8.2840   -1.9550   22.5400 C   0  0  0  0  0  0  0  0  0  0  0  0
    8.6070   -4.3420   25.5110 C   0  0  0  0  0  0  0  0  0  0  0  0
    8.1090   -3.1600   26.0110 N   0  0  0  0  0  0  0  0  0  0  0  0
    7.7380   -2.3140   25.0070 N   0  0  0  0  0  0  0  0  0  0  0  0
    8.9810   -4.1460   23.8590 S   0  0  0  0  0  0  0  0  0  0  0  0
   13.6610   -1.2590   21.0120 F   0  0  0  0  0  0  0  0  0  0  0  0
   13.1380   -1.9990   22.0070 C   0  0  0  0  0  0  0  0  0  0  0  0
  2  4  1  0
  3  4  1  0
  3  7  1  0
  6  7  2  0
  7  9  1  0
  1 11  1  0
  9 11  1  0
  1 12  1  0
  8 12  2  0
  5 13  1  0
 13 12  1  6
  5 14  1  0
 10 14  2  0
 14 15  1  0
 15 16  1  0
 17 18  1  0
 17 19  1  0
 17 20  1  0
 22 23  2  0
 23 24  1  0
 24 25  2  0
 13 26  1  0
 25 26  1  0
 22 27  1  0
 26 27  2  0
 28 29  1  0
 17 30  1  0
 29 30  1  0
 30 31  2  0
 32 31  1  1
  5 33  1  0
 28 33  2  0
 32 33  1  0
 21 34  1  0
 34 35  1  0
 32 36  1  0
 35 36  2  0
 32 37  1  0
 34 37  2  0
 19 39  1  0
 38 39  1  0
M  END
