x0395-x3117
     RDKit          3D

 38 41  0  0  0  0  0  0  0  0999 V2000
    6.8400   -1.6130   22.0990 N   0  0  0  0  0  0  0  0  0  0  0  0
    6.6710   -4.6280   20.2590 C   0  0  0  0  0  0  0  0  0  0  0  0
    4.7720   -3.0080   21.3640 O   0  0  0  0  0  0  0  0  0  0  0  0
    6.8750   -4.0480   21.6420 C   0  0  0  0  0  0  0  0  0  0  0  0
    8.1090    1.5510   23.1240 N   0  0  0  0  0  0  0  0  0  0  0  0
    8.4530    0.9900   21.3710 O   0  0  0  0  0  0  0  0  0  0  0  0
    6.0400   -2.8140   21.6860 C   0  0  0  0  0  0  0  0  0  0  0  0
    6.5970   -0.1830   21.7580 C   0  0  1  0  0  0  0  0  0  0  0  0
    7.6500    0.8260   22.3030 C   0  0  0  0  0  0  0  0  0  0  0  0
   12.2130   -1.6950   24.2400 C   0  0  0  0  0  0  0  0  0  0  0  0
   12.1530   -0.5270   25.2090 C   0  0  0  0  0  0  0  0  0  0  0  0
   13.2590   -1.3980   23.2060 C   0  0  0  0  0  0  0  0  0  0  0  0
   12.7830   -2.8900   25.0300 C   0  0  0  0  0  0  0  0  0  0  0  0
    8.6240   -5.1140   26.3800 C   0  0  0  0  0  0  0  0  0  0  0  0
    6.3930    0.2860   17.9260 N   0  0  0  0  0  0  0  0  0  0  0  0
    5.2280    1.1300   17.8080 C   0  0  0  0  0  0  0  0  0  0  0  0
    4.4630    1.5460   19.0390 C   0  0  0  0  0  0  0  0  0  0  0  0
    4.9760    1.0520   20.3770 C   0  0  0  0  0  0  0  0  0  0  0  0
    6.1130    0.2510   20.3900 C   0  0  0  0  0  0  0  0  0  0  0  0
    6.7360   -0.0790   19.1860 C   0  0  0  0  0  0  0  0  0  0  0  0
    9.7420    5.0800   24.0240 O   0  0  0  0  0  0  0  0  0  0  0  0
   10.5850    4.0170   23.6530 C   0  0  0  0  0  0  0  0  0  0  0  0
    9.9240    2.7930   23.7240 C   0  0  0  0  0  0  0  0  0  0  0  0
    8.7550    2.7500   22.9200 C   0  0  0  0  0  0  0  0  0  0  0  0
    7.9230    3.8600   23.2410 C   0  0  0  0  0  0  0  0  0  0  0  0
    8.6150    5.0870   23.1700 C   0  0  0  0  0  0  0  0  0  0  0  0
    9.3130   -1.5660   21.8140 C   0  0  0  0  0  0  0  0  0  0  0  0
   10.6610   -1.7870   22.1970 C   0  0  0  0  0  0  0  0  0  0  0  0
   10.8340   -1.8930   23.5960 C   0  0  0  0  0  0  0  0  0  0  0  0
    9.7720   -2.1790   24.4160 C   0  0  0  0  0  0  0  0  0  0  0  0
    8.5140   -2.4040   23.8930 C   0  0  2  0  0  0  0  0  0  0  0  0
    8.1920   -1.8610   22.6210 C   0  0  0  0  0  0  0  0  0  0  0  0
    8.4820   -3.9510   25.4570 C   0  0  0  0  0  0  0  0  0  0  0  0
    8.1250   -2.7430   25.9290 N   0  0  0  0  0  0  0  0  0  0  0  0
    7.6480   -2.0960   25.0000 N   0  0  0  0  0  0  0  0  0  0  0  0
    8.7650   -4.2140   23.7130 S   0  0  0  0  0  0  0  0  0  0  0  0
   13.6430   -1.3220   20.9340 F   0  0  0  0  0  0  0  0  0  0  0  0
   13.0810   -2.0850   21.8840 C   0  0  0  0  0  0  0  0  0  0  0  0
  2  4  1  0
  1  7  1  0
  3  7  2  0
  4  7  1  0
  1  8  1  0
  5  9  1  0
  6  9  2  0
  8  9  1  6
 10 11  1  0
 10 12  1  0
 10 13  1  0
 15 16  2  0
 16 17  1  0
 17 18  2  0
  8 19  1  0
 18 19  1  0
 15 20  1  0
 19 20  2  0
 21 22  1  0
 22 23  1  0
  5 24  1  0
 23 24  1  0
 24 25  1  0
 21 26  1  0
 25 26  1  0
 27 28  1  0
 10 29  1  0
 28 29  1  0
 29 30  2  0
 31 30  1  1
  1 32  1  0
 27 32  2  0
 31 32  1  0
 14 33  1  0
 33 34  1  0
 31 35  1  0
 34 35  2  0
 31 36  1  0
 33 36  2  0
 12 38  1  0
 37 38  1  0
M  END
