x0395-x0770
     RDKit          3D

 23 25  0  0  0  0  0  0  0  0999 V2000
    7.2460   -2.9670   18.6860 C   0  0  0  0  0  0  0  0  0  0  0  0
    5.4410   -4.1390   19.7660 O   0  0  0  0  0  0  0  0  0  0  0  0
    6.2950   -3.2370   19.8120 C   0  0  0  0  0  0  0  0  0  0  0  0
    9.7940   -5.0850   27.3530 C   0  0  0  0  0  0  0  0  0  0  0  0
    6.4640   -2.3890   20.9130 N   0  0  0  0  0  0  0  0  0  0  0  0
    7.5560   -1.4520   21.1040 C   0  0  0  0  0  0  0  0  0  0  0  0
    8.5070   -1.8850   22.2070 C   0  0  0  0  0  0  0  0  0  0  0  0
    7.8320   -2.0540   23.5520 N   0  0  0  0  0  0  0  0  0  0  0  0
    6.5080   -2.7290   23.4170 C   0  0  0  0  0  0  0  0  0  0  0  0
    5.7590   -2.5200   22.0750 C   0  0  0  0  0  0  0  0  0  0  0  0
    9.0590   -4.1450   26.3380 C   0  0  0  0  0  0  0  0  0  0  0  0
    7.8460   -3.8500   26.5360 N   0  0  0  0  0  0  0  0  0  0  0  0
    7.5030   -3.1110   25.5370 N   0  0  0  0  0  0  0  0  0  0  0  0
    8.3890   -2.8540   24.6410 C   0  0  0  0  0  0  0  0  0  0  0  0
    9.9600   -3.5550   24.9760 S   0  0  0  0  0  0  0  0  0  0  0  0
   13.5380   -1.6470   20.9640 Cl  0  0  0  0  0  0  0  0  0  0  0  0
   10.6750   -0.4050   24.2870 C   0  0  0  0  0  0  0  0  0  0  0  0
   11.8460    0.5620   24.0330 C   0  0  0  0  0  0  0  0  0  0  0  0
   12.8110    0.1690   22.9470 C   0  0  0  0  0  0  0  0  0  0  0  0
   12.5530   -1.1250   22.1930 C   0  0  0  0  0  0  0  0  0  0  0  0
   11.4750   -1.8550   22.5430 C   0  0  0  0  0  0  0  0  0  0  0  0
   10.5630   -1.5790   23.5040 C   0  0  0  0  0  0  0  0  0  0  0  0
    9.5900   -2.5160   23.6130 C   0  0  0  0  0  0  0  0  0  0  0  0
  1  3  1  0
  2  3  2  0
  3  5  1  0
  5  6  1  0
  6  7  1  0
  7  8  1  0
  8  9  1  0
  5 10  1  0
  9 10  1  0
  4 11  1  0
 11 12  2  0
 12 13  1  0
  8 14  1  0
 13 14  1  0
 11 15  1  0
 14 15  2  0
 17 18  2  0
 18 19  1  0
 16 20  1  0
 19 20  2  0
 20 21  1  0
 17 22  1  0
 21 22  2  0
 15 23  1  0
 22 23  1  0
M  END
