x0397-x2649
     RDKit          3D

 27 29  0  0  0  0  0  0  0  0999 V2000
    7.8920   -1.0930   21.2120 C   0  0  0  0  0  0  0  0  0  0  0  0
    7.0960   -1.9230   20.2430 N   0  0  0  0  0  0  0  0  0  0  0  0
    7.0790   -1.5220   18.8920 C   0  0  0  0  0  0  0  0  0  0  0  0
    3.6760    2.3990   19.3410 C   0  0  0  0  0  0  0  0  0  0  0  0
    6.2910   -3.1020   20.6690 C   0  0  0  0  0  0  0  0  0  0  0  0
    5.5850   -3.7800   19.8890 O   0  0  0  0  0  0  0  0  0  0  0  0
    6.4450   -3.4070   22.0940 N   0  0  0  0  0  0  0  0  0  0  0  0
    8.1000    0.2530   20.8430 O   0  0  0  0  0  0  0  0  0  0  0  0
    7.5190   -1.2170   23.6900 C   0  0  0  0  0  0  0  0  0  0  0  0
   13.3320   -2.1250   21.1200 Cl  0  0  0  0  0  0  0  0  0  0  0  0
    8.4500   -1.6380   22.5550 C   0  0  2  0  0  0  0  0  0  0  0  0
    5.1620    0.1690   19.6140 C   0  0  0  0  0  0  0  0  0  0  0  0
    6.2630   -0.3330   18.7350 C   0  0  0  0  0  0  0  0  0  0  0  0
    6.3690    0.5590   17.7220 N   0  0  0  0  0  0  0  0  0  0  0  0
    5.4490    1.6000   17.8600 O   0  0  0  0  0  0  0  0  0  0  0  0
    4.6990    1.4310   18.9740 C   0  0  0  0  0  0  0  0  0  0  0  0
    6.5820   -5.2570   23.2820 C   0  0  0  0  0  0  0  0  0  0  0  0
    5.7900   -4.6790   22.4210 C   0  0  0  0  0  0  0  0  0  0  0  0
    6.0670   -5.8040   21.8190 C   0  0  0  0  0  0  0  0  0  0  0  0
   10.2210   -0.1070   23.7070 C   0  0  0  0  0  0  0  0  0  0  0  0
   11.5590    0.2820   23.8220 C   0  0  0  0  0  0  0  0  0  0  0  0
   12.5100   -0.3450   23.0250 C   0  0  0  0  0  0  0  0  0  0  0  0
   12.2270   -1.3480   22.1050 C   0  0  0  0  0  0  0  0  0  0  0  0
   10.9140   -1.7260   21.9940 C   0  0  0  0  0  0  0  0  0  0  0  0
    9.8560   -1.1230   22.7880 C   0  0  0  0  0  0  0  0  0  0  0  0
    4.5540    1.7460   21.4710 C   0  0  0  0  0  0  0  0  0  0  0  0
    3.3920    2.1670   20.8050 C   0  0  0  0  0  0  0  0  0  0  0  0
  1  2  1  0
  2  3  1  0
  2  5  1  0
  5  6  2  0
  5  7  1  0
  1  8  2  0
  1 11  1  0
 11  9  1  1
  3 13  1  0
 12 13  1  0
 13 14  2  0
 14 15  1  0
  4 16  1  0
 12 16  2  0
 15 16  1  0
  7 18  1  0
 17 18  1  0
 17 19  1  0
 18 19  1  0
 20 21  2  0
 21 22  1  0
 10 23  1  0
 22 23  2  0
 23 24  1  0
 11 25  1  0
 20 25  1  0
 24 25  2  0
  4 27  1  0
 26 27  1  0
M  END
