x0395-x1493-x0978-x3113
     RDKit          3D

 56 59  0  0  0  0  0  0  0  0999 V2000
    7.3170   -1.2200   22.2920 N   0  0  0  0  0  0  0  0  0  0  0  0
    8.4210    1.6620   23.3430 N   0  0  0  0  0  0  0  0  0  0  0  0
    8.9450    1.6880   20.9950 O   0  0  0  0  0  0  0  0  0  0  0  0
   11.8800    4.1940   23.3350 O   0  0  0  0  0  0  0  0  0  0  0  0
    7.0100    0.2390   21.9580 C   0  0  1  0  0  0  0  0  0  0  0  0
    8.1580    1.2000   22.0720 C   0  0  0  0  0  0  0  0  0  0  0  0
    9.4430    2.6760   23.4900 C   0  0  0  0  0  0  0  0  0  0  0  0
   10.8370    2.0510   23.4320 C   0  0  0  0  0  0  0  0  0  0  0  0
   11.9120    3.0240   22.9350 C   0  0  0  0  0  0  0  0  0  0  0  0
   13.0490    4.9020   22.9310 C   0  0  0  0  0  0  0  0  0  0  0  0
   12.5720   -1.9110   24.3450 C   0  0  0  0  0  0  0  0  0  0  0  0
   13.3870   -2.0860   23.1090 C   0  0  0  0  0  0  0  0  0  0  0  0
   13.1140   -2.9500   25.3420 C   0  0  0  0  0  0  0  0  0  0  0  0
   12.6750   -0.5070   24.8960 C   0  0  0  0  0  0  0  0  0  0  0  0
    9.0510   -5.2590   26.4190 C   0  0  0  0  0  0  0  0  0  0  0  0
    2.1150   -5.6430   23.2040 N   0  0  0  0  0  0  0  0  0  0  0  0
    2.2110   -8.2300   24.4310 C   0  0  0  0  0  0  0  0  0  0  0  0
    4.4070   -7.9090   24.7750 O   0  0  0  0  0  0  0  0  0  0  0  0
    3.1790   -7.2540   24.5230 C   0  0  1  0  0  0  0  0  0  0  0  0
    0.9770   -7.2500   22.0240 O   0  0  0  0  0  0  0  0  0  0  0  0
    3.3570   -6.4080   23.4230 C   0  0  2  0  0  0  0  0  0  0  0  0
    4.2820   -4.2740   23.6570 O   0  0  0  0  0  0  0  0  0  0  0  0
    0.9770   -6.1920   22.6440 C   0  0  0  0  0  0  0  0  0  0  0  0
   -0.2090   -5.4620   22.8240 C   0  0  0  0  0  0  0  0  0  0  0  0
    6.2920   -2.1800   21.7660 C   0  0  0  0  0  0  0  0  0  0  0  0
    6.0610   -3.2770   22.6250 C   0  0  0  0  0  0  0  0  0  0  0  0
    4.5560   -5.9110   26.3600 C   0  0  0  0  0  0  0  0  0  0  0  0
    6.7450   -5.4170   26.4950 O   0  0  0  0  0  0  0  0  0  0  0  0
    5.7900   -5.6680   25.7600 C   0  0  0  0  0  0  0  0  0  0  0  0
    5.6950   -4.2360   19.7740 O   0  0  0  0  0  0  0  0  0  0  0  0
    6.6270   -4.2160   20.5750 C   0  0  0  0  0  0  0  0  0  0  0  0
    8.0380   -3.7130   20.2970 C   0  0  0  0  0  0  0  0  0  0  0  0
    6.4780    0.1110   18.0790 N   0  0  0  0  0  0  0  0  0  0  0  0
    5.3870    0.8750   17.9500 C   0  0  0  0  0  0  0  0  0  0  0  0
    4.6840    1.5120   19.0850 C   0  0  0  0  0  0  0  0  0  0  0  0
    5.1170    1.3640   20.3830 C   0  0  0  0  0  0  0  0  0  0  0  0
    6.3700    0.5000   20.5790 C   0  0  0  0  0  0  0  0  0  0  0  0
    6.9580   -0.0810   19.3220 C   0  0  0  0  0  0  0  0  0  0  0  0
    9.7810   -1.5920   21.9560 C   0  0  0  0  0  0  0  0  0  0  0  0
   10.9490   -2.1480   22.4710 C   0  0  0  0  0  0  0  0  0  0  0  0
   11.1690   -2.0860   23.8470 C   0  0  0  0  0  0  0  0  0  0  0  0
   10.0190   -2.2020   24.7790 C   0  0  0  0  0  0  0  0  0  0  0  0
    8.7320   -2.4800   24.1110 C   0  0  2  0  0  0  0  0  0  0  0  0
    8.5750   -1.7360   22.7580 C   0  0  0  0  0  0  0  0  0  0  0  0
    8.8130   -4.0720   25.5540 C   0  0  0  0  0  0  0  0  0  0  0  0
    8.1800   -2.9930   26.0660 N   0  0  0  0  0  0  0  0  0  0  0  0
    7.7460   -2.3150   25.1470 N   0  0  0  0  0  0  0  0  0  0  0  0
    9.3620   -4.1600   23.8490 S   0  0  0  0  0  0  0  0  0  0  0  0
    5.8910   -5.7250   24.3670 N   0  0  0  0  0  0  0  0  0  0  0  0
    7.2550   -5.3170   23.9320 C   0  0  0  0  0  0  0  0  0  0  0  0
    7.4840   -5.0900   22.5950 C   0  0  0  0  0  0  0  0  0  0  0  0
    6.3520   -4.6630   21.9870 C   0  0  1  0  0  0  0  0  0  0  0  0
    5.2910   -5.5030   22.1390 C   0  0  0  0  0  0  0  0  0  0  0  0
    4.7250   -5.5410   23.4170 C   0  0  1  0  0  0  0  0  0  0  0  0
   13.6050   -1.4120   20.9380 F   0  0  0  0  0  0  0  0  0  0  0  0
   13.3050   -0.9220   22.1690 C   0  0  0  0  0  0  0  0  0  0  0  0
  1  5  1  0
  2  6  1  0
  3  6  2  0
  5  6  1  6
  2  7  1  0
  7  8  1  0
  4  9  1  0
  8  9  1  0
  4 10  1  0
 11 12  1  0
 11 13  1  0
 11 14  1  0
 19 17  1  6
 18 19  1  0
 21 16  1  1
 19 21  1  0
 16 23  1  0
 20 23  2  0
 23 24  1  0
  1 25  1  0
 25 26  1  0
 27 29  1  0
 28 29  2  0
 30 31  2  0
 31 32  1  0
 33 34  2  0
 34 35  1  0
 35 36  2  0
  5 37  1  0
 36 37  1  0
 33 38  1  0
 37 38  2  0
 39 40  1  0
 11 41  1  0
 40 41  1  0
 41 42  2  0
 43 42  1  1
  1 44  1  0
 39 44  2  0
 43 44  1  0
 15 45  1  0
 45 46  1  0
 43 47  1  0
 46 47  2  0
 43 48  1  0
 45 48  2  0
 29 49  1  0
 49 50  1  0
 50 51  1  0
 52 26  1  1
 52 31  1  0
 51 52  1  0
 52 53  1  0
 21 54  1  0
 54 22  1  1
 49 54  1  0
 53 54  1  0
 12 56  1  0
 55 56  1  0
M  END
