x0395-x0771
     RDKit          3D

 36 39  0  0  0  0  0  0  0  0999 V2000
    0.6570   -1.3670   26.2360 C   0  0  0  0  0  0  0  0  0  0  0  0
    4.5600   -6.8470   25.6640 O   0  0  0  0  0  0  0  0  0  0  0  0
    6.2600   -4.9680   26.5140 N   0  0  0  0  0  0  0  0  0  0  0  0
    5.2060   -4.5570   19.8840 O   0  0  0  0  0  0  0  0  0  0  0  0
    1.9940   -6.1990   24.8870 C   0  0  0  0  0  0  0  0  0  0  0  0
    6.2740   -4.2590   20.3780 C   0  0  0  0  0  0  0  0  0  0  0  0
    7.1590   -3.2860   19.6400 C   0  0  0  0  0  0  0  0  0  0  0  0
    5.0840   -5.4970   25.6340 S   0  0  2  0  0  0  0  0  0  0  0  0
    9.0600   -5.2640   26.1400 C   0  0  0  0  0  0  0  0  0  0  0  0
    9.1970   -0.3110   24.1270 C   0  0  0  0  0  0  0  0  0  0  0  0
   13.7450   -1.4330   21.5820 F   0  0  0  0  0  0  0  0  0  0  0  0
    6.8460   -5.8210   27.4310 C   0  0  0  0  0  0  0  0  0  0  0  0
    8.3730   -5.5290   27.4900 C   0  0  0  0  0  0  0  0  0  0  0  0
    1.7070   -2.4220   26.0640 C   0  0  0  0  0  0  0  0  0  0  0  0
    1.3040   -3.7210   25.5760 C   0  0  0  0  0  0  0  0  0  0  0  0
    2.3560   -4.8380   25.3900 C   0  0  0  0  0  0  0  0  0  0  0  0
    3.7910   -4.4470   25.7570 C   0  0  0  0  0  0  0  0  0  0  0  0
    4.0750   -3.0320   26.2600 C   0  0  0  0  0  0  0  0  0  0  0  0
    3.0450   -2.1110   26.3860 C   0  0  0  0  0  0  0  0  0  0  0  0
    6.6620   -4.8170   21.5990 N   0  0  0  0  0  0  0  0  0  0  0  0
    6.0780   -6.0350   21.9120 C   0  0  0  0  0  0  0  0  0  0  0  0
    5.2160   -6.1610   22.9770 C   0  0  0  0  0  0  0  0  0  0  0  0
    5.6890   -5.3020   24.0470 N   0  0  0  0  0  0  0  0  0  0  0  0
    6.9660   -4.6050   23.9250 C   0  0  0  0  0  0  0  0  0  0  0  0
    7.0840   -4.0730   22.6360 C   0  0  0  0  0  0  0  0  0  0  0  0
    8.9090   -3.8500   25.6630 C   0  0  0  0  0  0  0  0  0  0  0  0
    7.7820   -3.0300   26.0690 N   0  0  0  0  0  0  0  0  0  0  0  0
    7.8130   -1.8730   25.5880 N   0  0  0  0  0  0  0  0  0  0  0  0
    8.9090   -1.6570   24.8010 C   0  0  0  0  0  0  0  0  0  0  0  0
    9.9660   -3.0110   24.6320 S   0  0  0  0  0  0  0  0  0  0  0  0
   10.5920   -0.3410   23.5910 C   0  0  2  0  0  0  0  0  0  0  0  0
   11.4300    0.7770   23.3890 C   0  0  0  0  0  0  0  0  0  0  0  0
   12.6170    0.2820   22.8010 C   0  0  0  0  0  0  0  0  0  0  0  0
   12.6410   -0.9750   22.1570 C   0  0  0  0  0  0  0  0  0  0  0  0
   11.5240   -1.7690   22.0750 C   0  0  0  0  0  0  0  0  0  0  0  0
   10.4180   -0.9220   22.4170 N   0  0  0  0  0  0  0  0  0  0  0  0
  4  6  2  0
  6  7  1  0
  2  8  2  0
  3  8  2  0
  3 12  1  0
  9 13  1  0
 12 13  1  0
  1 14  1  0
 14 15  2  0
  5 16  1  0
 15 16  1  0
  8 17  1  6
 16 17  2  0
 17 18  1  0
 14 19  1  0
 18 19  2  0
  6 20  1  0
 20 21  1  0
 21 22  1  0
  8 23  1  0
 22 23  1  0
 23 24  1  0
 20 25  1  0
 24 25  1  0
  9 26  1  0
 26 27  2  0
 27 28  1  0
 10 29  1  0
 28 29  2  0
 26 30  1  0
 29 30  1  0
 31 10  1  6
 31 32  1  0
 32 33  1  0
 11 34  1  0
 33 34  2  0
 34 35  1  0
 31 36  1  0
 35 36  1  0
M  END
