x0395-x2097
     RDKit          3D

 22 24  0  0  0  0  0  0  0  0999 V2000
    9.5870   -5.6200   26.6290 C   0  0  0  0  0  0  0  0  0  0  0  0
    8.6940   -1.0260   23.6920 C   0  0  1  0  0  0  0  0  0  0  0  0
   13.6810   -1.3300   21.8710 F   0  0  0  0  0  0  0  0  0  0  0  0
    5.9290   -5.1040   20.0280 N   0  0  0  0  0  0  0  0  0  0  0  0
    6.6510   -4.0390   20.0050 C   0  0  0  0  0  0  0  0  0  0  0  0
    9.1410   -4.2660   26.0090 C   0  0  0  0  0  0  0  0  0  0  0  0
    8.0850   -3.3590   26.4720 N   0  0  0  0  0  0  0  0  0  0  0  0
    7.9370   -2.2370   25.6880 N   0  0  0  0  0  0  0  0  0  0  0  0
    8.7810   -2.1880   24.6580 C   0  0  0  0  0  0  0  0  0  0  0  0
    9.8390   -3.5440   24.5890 S   0  0  0  0  0  0  0  0  0  0  0  0
   10.0990   -0.7910   23.2070 C   0  0  2  0  0  0  0  0  0  0  0  0
   10.8230    0.6060   23.3070 C   0  0  0  0  0  0  0  0  0  0  0  0
   12.3010    0.2460   22.9360 C   0  0  0  0  0  0  0  0  0  0  0  0
   12.4810   -0.9470   22.2410 C   0  0  0  0  0  0  0  0  0  0  0  0
   11.3910   -1.7920   21.8880 C   0  0  0  0  0  0  0  0  0  0  0  0
   10.3400   -1.0600   21.9220 N   0  0  0  0  0  0  0  0  0  0  0  0
    6.4910   -3.1580   21.1970 C   0  0  0  0  0  0  0  0  0  0  0  0
    7.6380   -2.5690   21.7100 N   0  0  0  0  0  0  0  0  0  0  0  0
    7.5310   -1.7110   22.9160 C   0  0  0  0  0  0  0  0  0  0  0  0
    6.0910   -1.5660   23.4510 C   0  0  0  0  0  0  0  0  0  0  0  0
    5.0420   -2.2080   22.8200 C   0  0  0  0  0  0  0  0  0  0  0  0
    5.2170   -3.0600   21.6420 N   0  0  0  0  0  0  0  0  0  0  0  0
  4  5  2  3
  1  6  1  0
  6  7  2  0
  7  8  1  0
  2  9  1  1
  8  9  2  0
  6 10  1  0
  9 10  1  0
  2 11  1  0
 11 12  1  6
 12 13  1  0
  3 14  1  0
 13 14  2  0
 14 15  1  0
 11 16  1  0
 15 16  1  0
  5 17  1  0
 17 18  2  0
  2 19  1  0
 18 19  1  0
 19 20  2  0
 20 21  1  0
 17 22  1  0
 21 22  2  0
M  END
