x0395-x3115-x0786-x3113
     RDKit          3D

 54 58  0  0  0  0  0  0  0  0999 V2000
    7.1410   -1.7090   21.8030 N   0  0  0  0  0  0  0  0  0  0  0  0
    7.8440   -4.2780   21.1330 C   0  0  0  0  0  0  0  0  0  0  0  0
    5.0910   -3.3240   20.8340 O   0  0  0  0  0  0  0  0  0  0  0  0
    6.5470   -3.9220   21.4990 C   0  0  2  0  0  0  0  0  0  0  0  0
    8.2920    1.4700   22.9900 N   0  0  0  0  0  0  0  0  0  0  0  0
    8.7680    1.1710   20.8970 O   0  0  0  0  0  0  0  0  0  0  0  0
    5.9890   -2.5020   21.2580 C   0  0  0  0  0  0  0  0  0  0  0  0
   12.3540    3.5930   22.7430 O   0  0  0  0  0  0  0  0  0  0  0  0
    6.9240   -0.1890   21.6610 C   0  0  1  0  0  0  0  0  0  0  0  0
    8.0620    0.8240   21.8190 C   0  0  0  0  0  0  0  0  0  0  0  0
    8.9770    2.6050   22.8520 C   0  0  2  0  0  0  0  0  0  0  0  0
   10.3310    2.5430   23.5900 C   0  0  0  0  0  0  0  0  0  0  0  0
   11.1190    3.8380   23.3960 C   0  0  0  0  0  0  0  0  0  0  0  0
   13.1880    4.7450   22.6930 C   0  0  0  0  0  0  0  0  0  0  0  0
   12.3980   -1.8040   24.2890 C   0  0  0  0  0  0  0  0  0  0  0  0
   13.4720   -1.6840   23.2740 C   0  0  0  0  0  0  0  0  0  0  0  0
   12.8590   -2.9560   25.2000 C   0  0  0  0  0  0  0  0  0  0  0  0
   12.4110   -0.5180   25.0970 C   0  0  0  0  0  0  0  0  0  0  0  0
    8.8250    5.0560   23.1180 O   0  0  0  0  0  0  0  0  0  0  0  0
    8.0870    3.8220   23.2210 C   0  0  0  0  0  0  0  0  0  0  0  0
    8.1940    6.0330   22.2930 C   0  0  0  0  0  0  0  0  0  0  0  0
    8.7650   -5.6870   26.4980 C   0  0  0  0  0  0  0  0  0  0  0  0
    3.9200   -7.9950   24.7520 O   0  0  0  0  0  0  0  0  0  0  0  0
    3.4640   -6.9550   24.2730 C   0  0  0  0  0  0  0  0  0  0  0  0
    6.4100    0.3010   17.9320 N   0  0  0  0  0  0  0  0  0  0  0  0
    5.3220    1.0700   17.9400 C   0  0  0  0  0  0  0  0  0  0  0  0
    4.6450    1.4980   19.0570 C   0  0  0  0  0  0  0  0  0  0  0  0
    5.1250    1.1070   20.3110 C   0  0  0  0  0  0  0  0  0  0  0  0
    6.2720    0.3000   20.3730 C   0  0  0  0  0  0  0  0  0  0  0  0
    6.8600   -0.0680   19.1520 C   0  0  0  0  0  0  0  0  0  0  0  0
    9.5560   -1.7200   21.7440 C   0  0  0  0  0  0  0  0  0  0  0  0
   10.8590   -1.9740   22.2220 C   0  0  0  0  0  0  0  0  0  0  0  0
   11.0580   -2.0600   23.6130 C   0  0  0  0  0  0  0  0  0  0  0  0
   10.0150   -2.3900   24.4220 C   0  0  0  0  0  0  0  0  0  0  0  0
    8.7880   -2.6830   23.8690 C   0  0  2  0  0  0  0  0  0  0  0  0
    8.4100   -2.0580   22.4670 C   0  0  0  0  0  0  0  0  0  0  0  0
    8.6840   -4.4890   25.6280 C   0  0  0  0  0  0  0  0  0  0  0  0
    8.3010   -3.2360   26.0630 N   0  0  0  0  0  0  0  0  0  0  0  0
    7.9890   -2.4230   25.0940 N   0  0  0  0  0  0  0  0  0  0  0  0
    9.0360   -4.4420   23.9490 S   0  0  0  0  0  0  0  0  0  0  0  0
    5.9030   -4.3150   22.8230 C   0  0  0  0  0  0  0  0  0  0  0  0
    5.0290   -5.4760   22.8930 C   0  0  0  0  0  0  0  0  0  0  0  0
    4.3850   -5.7980   24.1540 C   0  0  0  0  0  0  0  0  0  0  0  0
    4.5930   -5.0160   25.3290 C   0  0  0  0  0  0  0  0  0  0  0  0
    5.4350   -3.9050   25.2790 C   0  0  0  0  0  0  0  0  0  0  0  0
    6.1270   -3.5330   23.9450 C   0  0  0  0  0  0  0  0  0  0  0  0
    1.5210   -5.5620   23.4430 C   0  0  0  0  0  0  0  0  0  0  0  0
    0.5480   -5.1070   24.3450 C   0  0  0  0  0  0  0  0  0  0  0  0
   -0.8460   -6.2700   24.3530 S   0  0  0  0  0  0  0  0  0  0  0  0
    0.1390   -7.7200   24.8700 C   0  0  0  0  0  0  0  0  0  0  0  0
    1.2190   -7.9590   23.9700 C   0  0  0  0  0  0  0  0  0  0  0  0
    2.1390   -6.8150   23.8640 N   0  0  0  0  0  0  0  0  0  0  0  0
   13.6630   -0.8910   21.1420 F   0  0  0  0  0  0  0  0  0  0  0  0
   13.0830   -1.8560   21.8410 C   0  0  0  0  0  0  0  0  0  0  0  0
  4  2  1  1
  1  7  1  0
  3  7  2  0
  4  7  1  0
  1  9  1  0
  5 10  1  0
  6 10  2  0
  9 10  1  6
  5 11  1  0
 11 12  1  1
  8 13  1  0
 12 13  1  0
  8 14  1  0
 15 16  1  0
 15 17  1  0
 15 18  1  0
 11 20  1  0
 19 20  1  0
 19 21  1  0
 23 24  2  0
 25 26  2  0
 26 27  1  0
 27 28  2  0
  9 29  1  0
 28 29  1  0
 25 30  1  0
 29 30  2  0
 31 32  1  0
 15 33  1  0
 32 33  1  0
 33 34  2  0
 35 34  1  1
  1 36  1  0
 31 36  2  0
 35 36  1  0
 22 37  1  0
 37 38  1  0
 35 39  1  0
 38 39  2  0
 35 40  1  0
 37 40  2  0
  4 41  1  0
 41 42  2  0
 24 43  1  0
 42 43  1  0
 43 44  2  0
 44 45  1  0
 41 46  1  0
 45 46  2  0
 47 48  1  0
 48 49  1  0
 49 50  1  0
 50 51  1  0
 24 52  1  0
 47 52  1  0
 51 52  1  0
 16 54  1  0
 53 54  1  0
M  END
