x0395-x0540
     RDKit          3D

 35 38  0  0  0  0  0  0  0  0999 V2000
    2.9280    1.5280   24.3190 O   0  0  0  0  0  0  0  0  0  0  0  0
    2.8520    2.4070   23.4610 C   0  0  0  0  0  0  0  0  0  0  0  0
    3.9370    2.4370   22.4880 N   0  0  0  0  0  0  0  0  0  0  0  0
    5.1000    1.7020   22.5690 C   0  0  0  0  0  0  0  0  0  0  0  0
    4.9040    0.3520   21.8540 C   0  0  2  0  0  0  0  0  0  0  0  0
    1.9080    3.3930   23.2460 N   0  0  0  0  0  0  0  0  0  0  0  0
    9.4850   -5.4360   26.2340 C   0  0  0  0  0  0  0  0  0  0  0  0
    9.0800   -0.6390   23.8150 C   0  0  1  0  0  0  0  0  0  0  0  0
   13.7870   -1.3370   21.7170 F   0  0  0  0  0  0  0  0  0  0  0  0
    5.7410   -0.6360   22.4290 C   0  0  0  0  0  0  0  0  0  0  0  0
    6.8880   -0.1810   23.0960 C   0  0  0  0  0  0  0  0  0  0  0  0
    8.0880   -0.6930   22.6340 C   0  0  0  0  0  0  0  0  0  0  0  0
    6.5070   -0.4370   19.9590 C   0  0  0  0  0  0  0  0  0  0  0  0
    6.8790   -0.3600   18.6410 C   0  0  0  0  0  0  0  0  0  0  0  0
    6.1770    0.5140   17.6880 N   0  0  0  0  0  0  0  0  0  0  0  0
    5.1180    1.2660   18.1620 C   0  0  0  0  0  0  0  0  0  0  0  0
    4.6710    1.2490   19.4770 C   0  0  0  0  0  0  0  0  0  0  0  0
    5.2990    0.4430   20.4180 C   0  0  0  0  0  0  0  0  0  0  0  0
    0.5020    4.7710   24.4690 C   0  0  0  0  0  0  0  0  0  0  0  0
   -0.7850    4.8720   25.3150 C   0  0  0  0  0  0  0  0  0  0  0  0
   -1.9970    4.5370   24.3920 C   0  0  0  0  0  0  0  0  0  0  0  0
   -1.7320    3.1300   23.8650 C   0  0  0  0  0  0  0  0  0  0  0  0
   -0.4490    3.2000   23.0310 C   0  0  0  0  0  0  0  0  0  0  0  0
    0.6880    3.3740   23.8300 C   0  0  0  0  0  0  0  0  0  0  0  0
    9.0790   -4.0610   25.7330 C   0  0  0  0  0  0  0  0  0  0  0  0
    7.8700   -3.3050   26.1820 N   0  0  0  0  0  0  0  0  0  0  0  0
    7.7790   -2.1290   25.5790 N   0  0  0  0  0  0  0  0  0  0  0  0
    8.8940   -1.8960   24.6410 C   0  0  0  0  0  0  0  0  0  0  0  0
   10.0120   -3.2170   24.5610 S   0  0  0  0  0  0  0  0  0  0  0  0
   10.4390   -0.5450   23.4230 C   0  0  2  0  0  0  0  0  0  0  0  0
   11.1640    0.6480   23.3990 C   0  0  0  0  0  0  0  0  0  0  0  0
   12.4230    0.2250   22.8830 C   0  0  0  0  0  0  0  0  0  0  0  0
   12.6210   -0.9770   22.1980 C   0  0  0  0  0  0  0  0  0  0  0  0
   11.5550   -1.8090   22.0000 C   0  0  0  0  0  0  0  0  0  0  0  0
   10.3680   -1.0050   22.1860 N   0  0  0  0  0  0  0  0  0  0  0  0
  1  2  2  0
  2  3  1  0
  3  4  1  0
  5  4  1  1
  2  6  1  0
  5 10  1  0
 10 11  1  0
  8 12  1  6
 11 12  1  0
 13 14  2  0
 14 15  1  0
 15 16  2  0
 16 17  1  0
  5 18  1  0
 13 18  1  0
 17 18  2  0
 19 20  1  0
 20 21  1  0
 21 22  1  0
 22 23  1  0
  6 24  1  0
 19 24  1  0
 23 24  1  0
  7 25  1  0
 25 26  2  0
 26 27  1  0
  8 28  1  0
 27 28  2  0
 25 29  1  0
 28 29  1  0
  8 30  1  0
 30 31  1  6
 31 32  1  0
  9 33  1  0
 32 33  2  0
 33 34  1  0
 30 35  1  0
 34 35  1  0
M  END
