x0395-x2754-x3113
     RDKit          3D

 46 49  0  0  0  0  0  0  0  0999 V2000
    7.6050   -1.6330   21.9820 N   0  0  0  0  0  0  0  0  0  0  0  0
    8.3600    1.3640   23.3250 N   0  0  0  0  0  0  0  0  0  0  0  0
    8.9120    1.4140   21.1320 O   0  0  0  0  0  0  0  0  0  0  0  0
   11.6820    4.0750   23.3710 O   0  0  0  0  0  0  0  0  0  0  0  0
    7.1290   -0.1930   21.7790 C   0  0  1  0  0  0  0  0  0  0  0  0
    8.2260    0.9080   22.0290 C   0  0  0  0  0  0  0  0  0  0  0  0
    9.3250    2.4200   23.5500 C   0  0  0  0  0  0  0  0  0  0  0  0
   10.7350    1.7930   23.5710 C   0  0  0  0  0  0  0  0  0  0  0  0
   11.8690    2.7100   23.0580 C   0  0  0  0  0  0  0  0  0  0  0  0
   12.8190    4.8340   22.9640 C   0  0  0  0  0  0  0  0  0  0  0  0
   12.5490   -1.9370   24.3550 C   0  0  0  0  0  0  0  0  0  0  0  0
   13.4000   -2.1810   23.1520 C   0  0  0  0  0  0  0  0  0  0  0  0
   12.9510   -3.0060   25.3810 C   0  0  0  0  0  0  0  0  0  0  0  0
   12.7650   -0.5370   24.8780 C   0  0  0  0  0  0  0  0  0  0  0  0
    8.5520   -5.5930   26.2670 C   0  0  0  0  0  0  0  0  0  0  0  0
    4.5730   -3.2670   25.3890 C   0  0  0  0  0  0  0  0  0  0  0  0
    3.3670   -3.1250   25.2400 O   0  0  0  0  0  0  0  0  0  0  0  0
    5.2460   -3.1970   26.6950 N   0  0  0  0  0  0  0  0  0  0  0  0
    5.1700   -4.4780   19.8460 O   0  0  0  0  0  0  0  0  0  0  0  0
    6.1340   -3.8550   20.2640 C   0  0  0  0  0  0  0  0  0  0  0  0
    7.0090   -3.1180   19.2660 C   0  0  0  0  0  0  0  0  0  0  0  0
    4.9300   -2.0930   27.4010 C   0  0  0  0  0  0  0  0  0  0  0  0
    6.3880    0.1670   17.9710 N   0  0  0  0  0  0  0  0  0  0  0  0
    5.2310    0.8550   17.9410 C   0  0  0  0  0  0  0  0  0  0  0  0
    4.4690    1.3060   19.1700 C   0  0  0  0  0  0  0  0  0  0  0  0
    5.0720    0.9590   20.5320 C   0  0  0  0  0  0  0  0  0  0  0  0
    6.3870    0.1880   20.5140 C   0  0  0  0  0  0  0  0  0  0  0  0
    6.9530   -0.1610   19.1430 C   0  0  0  0  0  0  0  0  0  0  0  0
    9.9350   -1.5600   21.8780 C   0  0  0  0  0  0  0  0  0  0  0  0
   11.1710   -1.7950   22.4130 C   0  0  0  0  0  0  0  0  0  0  0  0
   11.2970   -2.0030   23.7860 C   0  0  0  0  0  0  0  0  0  0  0  0
   10.1930   -2.2560   24.5120 C   0  0  0  0  0  0  0  0  0  0  0  0
    8.9620   -2.3590   23.9270 C   0  0  2  0  0  0  0  0  0  0  0  0
    8.8160   -1.8430   22.5950 C   0  0  0  0  0  0  0  0  0  0  0  0
    8.5700   -4.3060   25.5340 C   0  0  0  0  0  0  0  0  0  0  0  0
    8.1060   -3.0750   25.9950 N   0  0  0  0  0  0  0  0  0  0  0  0
    7.9460   -2.2250   24.9170 N   0  0  0  0  0  0  0  0  0  0  0  0
    9.1480   -4.0330   23.9350 S   0  0  0  0  0  0  0  0  0  0  0  0
    6.4350   -3.8850   21.6150 N   0  0  0  0  0  0  0  0  0  0  0  0
    6.7090   -2.7020   22.4400 C   0  0  2  0  0  0  0  0  0  0  0  0
    5.5020   -2.3550   23.2470 C   0  0  0  0  0  0  0  0  0  0  0  0
    5.4740   -3.5320   24.2040 C   0  0  2  0  0  0  0  0  0  0  0  0
    5.1600   -4.8120   23.4270 C   0  0  0  0  0  0  0  0  0  0  0  0
    6.0970   -5.0770   22.4000 C   0  0  0  0  0  0  0  0  0  0  0  0
   13.5880   -1.5410   20.9320 F   0  0  0  0  0  0  0  0  0  0  0  0
   13.3290   -1.0520   22.1660 C   0  0  0  0  0  0  0  0  0  0  0  0
  1  5  1  0
  2  6  1  0
  3  6  2  0
  5  6  1  6
  2  7  1  0
  7  8  1  0
  4  9  1  0
  8  9  1  0
  4 10  1  0
 11 12  1  0
 11 13  1  0
 11 14  1  0
 16 17  2  0
 16 18  1  0
 19 20  2  0
 20 21  1  0
 18 22  1  0
 23 24  2  0
 24 25  1  0
 25 26  2  0
  5 27  1  0
 26 27  1  0
 23 28  1  0
 27 28  2  0
 29 30  1  0
 11 31  1  0
 30 31  1  0
 31 32  2  0
 33 32  1  1
  1 34  1  0
 29 34  2  0
 33 34  1  0
 15 35  1  0
 35 36  1  0
 33 37  1  0
 36 37  2  0
 33 38  1  0
 35 38  2  0
 20 39  1  0
 40  1  1  6
 39 40  1  0
 40 41  1  0
 42 16  1  1
 41 42  1  0
 42 43  1  0
 39 44  1  0
 43 44  1  0
 12 46  1  0
 45 46  1  0
M  END
