x0395-x0434
     RDKit          3D

 23 25  0  0  0  0  0  0  0  0999 V2000
    8.5880    0.4320   21.6200 O   0  0  0  0  0  0  0  0  0  0  0  0
    8.0900   -0.6640   21.8720 C   0  0  0  0  0  0  0  0  0  0  0  0
    9.0170   -1.2810   22.7900 N   0  0  0  0  0  0  0  0  0  0  0  0
    6.8380   -1.0990   21.2100 N   0  0  0  0  0  0  0  0  0  0  0  0
   13.7690   -1.5460   21.4560 F   0  0  0  0  0  0  0  0  0  0  0  0
    9.2370   -5.1820   26.3380 C   0  0  0  0  0  0  0  0  0  0  0  0
   10.6760    0.5780   23.6250 C   0  0  0  0  0  0  0  0  0  0  0  0
   12.0230    1.1280   23.6460 C   0  0  0  0  0  0  0  0  0  0  0  0
   13.0950    0.3930   22.9000 C   0  0  0  0  0  0  0  0  0  0  0  0
   12.8560   -0.8990   22.1210 C   0  0  0  0  0  0  0  0  0  0  0  0
   11.4240   -1.4650   22.1090 C   0  0  0  0  0  0  0  0  0  0  0  0
   10.3370   -0.7150   22.8620 C   0  0  0  0  0  0  0  0  0  0  0  0
    5.0040    0.5570   20.3000 C   0  0  0  0  0  0  0  0  0  0  0  0
    4.4690    1.3580   19.2360 C   0  0  0  0  0  0  0  0  0  0  0  0
    5.2170    1.3460   17.8870 C   0  0  0  0  0  0  0  0  0  0  0  0
    6.3300    0.5870   17.7640 N   0  0  0  0  0  0  0  0  0  0  0  0
    6.9460   -0.2610   18.7970 C   0  0  0  0  0  0  0  0  0  0  0  0
    6.2730   -0.3050   20.1680 C   0  0  0  0  0  0  0  0  0  0  0  0
    8.9040   -3.9680   25.5420 C   0  0  0  0  0  0  0  0  0  0  0  0
    7.8530   -2.9510   25.8340 N   0  0  0  0  0  0  0  0  0  0  0  0
    7.8130   -2.0170   24.9620 N   0  0  0  0  0  0  0  0  0  0  0  0
    8.7250   -2.1460   23.9570 C   0  0  0  0  0  0  0  0  0  0  0  0
    9.7490   -3.5890   24.1180 S   0  0  0  0  0  0  0  0  0  0  0  0
  1  2  2  0
  2  3  1  0
  2  4  1  0
  7  8  2  0
  8  9  1  0
  5 10  1  0
  9 10  2  0
 10 11  1  0
  3 12  1  0
  7 12  1  0
 11 12  2  0
 13 14  2  0
 14 15  1  0
 15 16  2  0
 16 17  1  0
  4 18  1  0
 13 18  1  0
 17 18  2  0
  6 19  1  0
 19 20  2  0
 20 21  1  0
  3 22  1  0
 21 22  2  0
 19 23  1  0
 22 23  1  0
M  END
