x0397-x0991
     RDKit          3D

 20 21  0  0  0  0  0  0  0  0999 V2000
    8.0030   -1.5510   20.9800 C   0  0  0  0  0  0  0  0  0  0  0  0
    6.9260   -2.0510   20.1290 N   0  0  0  0  0  0  0  0  0  0  0  0
    6.8840   -1.5700   18.8290 C   0  0  0  0  0  0  0  0  0  0  0  0
    3.6990    2.4570   19.1850 C   0  0  0  0  0  0  0  0  0  0  0  0
    6.2140   -3.2710   20.5610 C   0  0  0  0  0  0  0  0  0  0  0  0
    5.5360   -3.9930   19.8110 O   0  0  0  0  0  0  0  0  0  0  0  0
    6.4260   -3.5440   21.9900 N   0  0  0  0  0  0  0  0  0  0  0  0
    9.8070   -5.7900   24.8630 N   0  0  0  0  0  0  0  0  0  0  0  0
    8.7130   -3.9500   23.1250 C   0  0  0  0  0  0  0  0  0  0  0  0
    7.6180   -4.4070   24.0900 C   0  0  2  0  0  0  0  0  0  0  0  0
    8.2130   -4.8570   26.1910 N   0  0  0  0  0  0  0  0  0  0  0  0
    8.5980   -5.0490   25.1090 C   0  0  0  0  0  0  0  0  0  0  0  0
    4.9330    0.0450   19.7480 C   0  0  0  0  0  0  0  0  0  0  0  0
    6.0720   -0.3450   18.7540 C   0  0  0  0  0  0  0  0  0  0  0  0
    6.3490    0.5590   17.6860 N   0  0  0  0  0  0  0  0  0  0  0  0
    5.4860    1.5540   17.8620 O   0  0  0  0  0  0  0  0  0  0  0  0
    4.7140    1.3270   18.9450 C   0  0  0  0  0  0  0  0  0  0  0  0
    6.5750   -5.1950   23.5370 C   0  0  1  0  0  0  0  0  0  0  0  0
    5.8760   -4.8520   22.4840 C   0  0  2  0  0  0  0  0  0  0  0  0
    6.6030   -5.7950   21.9950 C   0  0  0  0  0  0  0  0  0  0  0  0
  1  2  1  0
  2  3  1  0
  2  5  1  0
  5  6  2  0
  5  7  1  0
 10  9  1  6
  8 12  2  3
 10 12  1  0
 11 12  1  0
  3 14  1  0
 13 14  1  0
 14 15  2  0
 15 16  1  0
  4 17  1  0
 13 17  2  0
 16 17  1  0
 10 18  1  0
 19  7  1  6
 18 19  1  0
 18 20  1  6
 19 20  1  0
M  END
