x0395-x0874
     RDKit          3D

 20 22  0  0  0  0  0  0  0  0999 V2000
    9.3310   -5.5870   26.8760 C   0  0  0  0  0  0  0  0  0  0  0  0
   13.4370   -1.5740   21.8150 F   0  0  0  0  0  0  0  0  0  0  0  0
    9.0480   -4.3500   26.0420 C   0  0  0  0  0  0  0  0  0  0  0  0
    7.9670   -3.5750   26.3700 N   0  0  0  0  0  0  0  0  0  0  0  0
    7.8360   -2.4750   25.5050 N   0  0  0  0  0  0  0  0  0  0  0  0
    8.8920   -2.5090   24.5310 C   0  0  0  0  0  0  0  0  0  0  0  0
   10.0380   -3.8250   24.6460 S   0  0  0  0  0  0  0  0  0  0  0  0
   10.4110    0.2810   23.9540 C   0  0  2  0  0  0  0  0  0  0  0  0
   11.4660    1.0430   23.4380 C   0  0  0  0  0  0  0  0  0  0  0  0
   12.5340    0.3360   22.8840 C   0  0  0  0  0  0  0  0  0  0  0  0
   12.3900   -0.9420   22.3480 C   0  0  0  0  0  0  0  0  0  0  0  0
   11.1280   -1.5210   22.3770 C   0  0  0  0  0  0  0  0  0  0  0  0
   10.2500   -0.9970   23.4480 N   0  0  0  0  0  0  0  0  0  0  0  0
    9.0850    0.7220   23.5920 C   0  0  2  0  0  0  0  0  0  0  0  0
    8.1730   -0.3130   23.6410 C   0  0  0  0  0  0  0  0  0  0  0  0
    8.9410   -1.4350   23.5240 C   0  0  2  0  0  0  0  0  0  0  0  0
    9.7800    3.2260   22.2420 N   0  0  0  0  0  0  0  0  0  0  0  0
    9.0410    2.2140   21.7320 C   0  0  0  0  0  0  0  0  0  0  0  0
    8.2480    2.4590   20.8670 O   0  0  0  0  0  0  0  0  0  0  0  0
    9.1490    0.9200   22.0830 C   0  0  0  0  0  0  0  0  0  0  0  0
  1  3  1  0
  3  4  2  0
  4  5  1  0
  5  6  2  0
  3  7  1  0
  6  7  1  0
  8  9  1  6
  9 10  1  0
  2 11  1  0
 10 11  2  0
 11 12  1  0
  8 13  1  0
 12 13  1  0
  8 14  1  0
 14 15  1  0
 16  6  1  1
 13 16  1  0
 15 16  1  0
 17 18  1  0
 18 19  2  0
 14 20  1  6
 18 20  1  0
M  END
