x0398-x1012
     RDKit          3D

 17 18  0  0  0  0  0  0  0  0999 V2000
   26.1860  -10.2870    4.1930 C   0  0  0  0  0  0  0  0  0  0  0  0
   26.2890  -10.1470    5.5820 C   0  0  0  0  0  0  0  0  0  0  0  0
   24.5290  -10.6870    3.7150 S   0  0  0  0  0  0  0  0  0  0  0  0
   24.7760   -7.6050    3.4190 O   0  0  0  0  0  0  0  0  0  0  0  0
   21.0870   -7.8100    7.0240 O   0  0  0  0  0  0  0  0  0  0  0  0
   27.9480  -10.8580    7.3390 C   0  0  0  0  0  0  0  0  0  0  0  0
   27.7030  -11.7690    8.3710 C   0  0  0  0  0  0  0  0  0  0  0  0
   27.8340  -13.1220    7.9270 O   0  0  0  0  0  0  0  0  0  0  0  0
   26.9510  -13.4000    6.8340 C   0  0  0  0  0  0  0  0  0  0  0  0
   27.1840  -12.5660    5.7260 C   0  0  0  0  0  0  0  0  0  0  0  0
   27.1960  -11.1460    6.0990 N   0  0  0  0  0  0  0  0  0  0  0  0
   23.8550   -8.0580    4.3240 C   0  0  0  0  0  0  0  0  0  0  0  0
   23.1320   -7.0700    5.0070 C   0  0  0  0  0  0  0  0  0  0  0  0
   22.0050   -7.2060    6.1120 C   0  0  0  0  0  0  0  0  0  0  0  0
   21.9250   -8.5910    6.2090 C   0  0  0  0  0  0  0  0  0  0  0  0
   22.7090   -9.6670    5.4740 C   0  0  0  0  0  0  0  0  0  0  0  0
   23.6480   -9.3910    4.5540 C   0  0  0  0  0  0  0  0  0  0  0  0
  1  2  1  0
  1  3  1  0
  6  7  1  0
  7  8  1  0
  8  9  1  0
  9 10  1  0
  2 11  1  0
  6 11  1  0
 10 11  1  0
  4 12  1  0
 12 13  2  0
  5 14  1  0
 13 14  1  0
 14 15  2  0
 15 16  1  0
  3 17  1  0
 12 17  1  0
 16 17  2  0
M  END
