x0397-x0755
     RDKit          3D

 29 31  0  0  0  0  0  0  0  0999 V2000
    4.5260   -6.3890   26.1110 O   0  0  0  0  0  0  0  0  0  0  0  0
    6.2310   -4.6700   26.7720 O   0  0  0  0  0  0  0  0  0  0  0  0
    5.2790   -5.0020   20.0010 O   0  0  0  0  0  0  0  0  0  0  0  0
    6.2940   -4.5710   20.5120 C   0  0  0  0  0  0  0  0  0  0  0  0
    7.0450   -3.5430   19.6750 C   0  0  0  0  0  0  0  0  0  0  0  0
    2.0250   -5.4470   25.6540 F   0  0  0  0  0  0  0  0  0  0  0  0
    5.5580   -1.9200   26.0810 F   0  0  0  0  0  0  0  0  0  0  0  0
    5.1930   -5.1290   25.8840 S   0  0  0  0  0  0  0  0  0  0  0  0
    8.1520   -1.7180   21.0200 C   0  0  0  0  0  0  0  0  0  0  0  0
    7.0420   -2.1200   20.1240 N   0  0  0  0  0  0  0  0  0  0  0  0
    7.1080   -1.3710   18.8610 C   0  0  0  0  0  0  0  0  0  0  0  0
    3.6590    2.2910   19.2600 C   0  0  0  0  0  0  0  0  0  0  0  0
    2.4640   -4.1850   25.7520 C   0  0  0  0  0  0  0  0  0  0  0  0
    3.9590   -3.8830   25.8660 C   0  0  0  0  0  0  0  0  0  0  0  0
    4.3030   -2.3700   25.9740 C   0  0  0  0  0  0  0  0  0  0  0  0
    3.1260   -1.3350   25.9580 C   0  0  0  0  0  0  0  0  0  0  0  0
    1.8350   -1.8600   25.8490 C   0  0  0  0  0  0  0  0  0  0  0  0
    1.5100   -3.1950   25.7490 C   0  0  0  0  0  0  0  0  0  0  0  0
    6.6630   -5.1240   21.7200 N   0  0  0  0  0  0  0  0  0  0  0  0
    7.4630   -4.5150   22.8420 C   0  0  0  0  0  0  0  0  0  0  0  0
    6.5590   -3.9670   23.7730 C   0  0  0  0  0  0  0  0  0  0  0  0
    5.8270   -5.1730   24.3060 N   0  0  0  0  0  0  0  0  0  0  0  0
    5.1470   -5.9260   23.3640 C   0  0  0  0  0  0  0  0  0  0  0  0
    5.7980   -6.1900   22.1770 C   0  0  0  0  0  0  0  0  0  0  0  0
    5.1680    0.0380   19.7610 C   0  0  0  0  0  0  0  0  0  0  0  0
    6.1770   -0.2240   18.7990 C   0  0  0  0  0  0  0  0  0  0  0  0
    6.3370    0.5810   17.7550 N   0  0  0  0  0  0  0  0  0  0  0  0
    5.4280    1.5410   17.8690 O   0  0  0  0  0  0  0  0  0  0  0  0
    4.7320    1.2940   18.9830 C   0  0  0  0  0  0  0  0  0  0  0  0
  3  4  2  0
  4  5  1  0
  1  8  2  0
  2  8  2  0
  5 10  1  0
  9 10  1  0
 10 11  1  0
  6 13  1  0
  8 14  1  0
 13 14  2  0
  7 15  1  0
 14 15  1  0
 15 16  2  0
 16 17  1  0
 13 18  1  0
 17 18  2  0
  4 19  1  0
 19 20  1  0
 20 21  1  0
  8 22  1  0
 21 22  1  0
 22 23  1  0
 19 24  1  0
 23 24  1  0
 11 26  1  0
 25 26  1  0
 26 27  2  0
 27 28  1  0
 12 29  1  0
 25 29  2  0
 28 29  1  0
M  END
