x0395-x1336
     RDKit          3D

 29 33  0  0  0  0  0  0  0  0999 V2000
    6.0660   -4.9250   29.2560 C   0  0  0  0  0  0  0  0  0  0  0  0
    6.9770   -1.0970   25.6430 O   0  0  0  0  0  0  0  0  0  0  0  0
    5.3780   -4.1170   19.6930 O   0  0  0  0  0  0  0  0  0  0  0  0
    9.9540   -5.1870   25.5960 C   0  0  0  0  0  0  0  0  0  0  0  0
    6.3790   -3.4390   19.9100 C   0  0  0  0  0  0  0  0  0  0  0  0
    7.3740   -3.0370   18.8240 C   0  0  0  0  0  0  0  0  0  0  0  0
    9.0860   -1.4210   23.4890 C   0  0  2  0  0  0  0  0  0  0  0  0
   13.6030   -1.3010   21.7990 F   0  0  0  0  0  0  0  0  0  0  0  0
    7.0370   -4.6380   28.1510 C   0  0  0  0  0  0  0  0  0  0  0  0
    6.9400   -3.4810   27.3840 C   0  0  0  0  0  0  0  0  0  0  0  0
    7.8000   -3.2320   26.3320 C   0  0  0  0  0  0  0  0  0  0  0  0
    8.7610   -4.1330   26.0040 C   0  0  0  0  0  0  0  0  0  0  0  0
    8.9060   -5.2890   26.8110 C   0  0  0  0  0  0  0  0  0  0  0  0
    8.0530   -5.5640   27.8850 C   0  0  0  0  0  0  0  0  0  0  0  0
    6.6430   -3.0560   21.1880 N   0  0  0  0  0  0  0  0  0  0  0  0
    6.6310   -4.1310   22.2320 C   0  0  0  0  0  0  0  0  0  0  0  0
    7.7980   -3.9540   22.9420 C   0  0  0  0  0  0  0  0  0  0  0  0
    7.7150   -2.6960   23.6670 N   0  0  0  0  0  0  0  0  0  0  0  0
    7.7360   -1.6020   22.9000 C   0  0  2  0  0  0  0  0  0  0  0  0
    7.5500   -1.9760   21.4330 C   0  0  0  0  0  0  0  0  0  0  0  0
    7.7770   -2.0910   25.5240 N   0  0  0  0  0  0  0  0  0  0  0  0
    8.6720   -2.3420   24.5630 C   0  0  2  0  0  0  0  0  0  0  0  0
    9.7580   -3.7380   24.5960 S   0  0  0  0  0  0  0  0  0  0  0  0
    9.9200   -0.1500   23.3230 C   0  0  1  0  0  0  0  0  0  0  0  0
   11.1930    0.3070   24.0760 C   0  0  0  0  0  0  0  0  0  0  0  0
   12.4210   -0.0480   23.4530 C   0  0  0  0  0  0  0  0  0  0  0  0
   12.4540   -0.9540   22.3900 C   0  0  0  0  0  0  0  0  0  0  0  0
   11.2990   -1.4970   21.9250 C   0  0  0  0  0  0  0  0  0  0  0  0
   10.2790   -0.4470   21.9750 N   0  0  0  0  0  0  0  0  0  0  0  0
  3  5  2  0
  5  6  1  0
  1  9  1  0
  9 10  2  0
 10 11  1  0
 11 12  1  0
 12 13  1  0
  9 14  1  0
 13 14  2  0
  5 15  1  0
 15 16  1  0
 16 17  1  0
 17 18  1  0
  7 19  1  0
 18 19  1  0
 15 20  1  0
 19 20  1  6
  2 21  1  0
 11 21  2  0
  7 22  1  0
 18 22  1  0
 22 21  1  1
  4 23  1  0
 12 23  2  0
 22 23  1  0
  7 24  1  1
 24 25  1  1
 25 26  1  0
  8 27  1  0
 26 27  2  0
 27 28  1  0
 24 29  1  0
 28 29  1  0
M  CHG  2   2  -1  21   1
M  END
