x0395-x2563
     RDKit          3D

 30 33  0  0  0  0  0  0  0  0999 V2000
    8.2260   -0.3470   21.5660 C   0  0  0  0  0  0  0  0  0  0  0  0
    8.5020    0.8090   21.2410 O   0  0  0  0  0  0  0  0  0  0  0  0
    7.3580   -1.1490   20.6770 C   0  0  0  0  0  0  0  0  0  0  0  0
    8.7690   -0.8280   22.7980 N   0  0  0  0  0  0  0  0  0  0  0  0
    6.1820    0.7370   17.4120 N   0  0  0  0  0  0  0  0  0  0  0  0
    5.1250    1.4630   17.8920 C   0  0  0  0  0  0  0  0  0  0  0  0
    4.6680    1.4260   19.2940 C   0  0  0  0  0  0  0  0  0  0  0  0
    5.3960    0.5560   20.2690 C   0  0  0  0  0  0  0  0  0  0  0  0
    6.5770   -0.2740   19.8110 C   0  0  0  0  0  0  0  0  0  0  0  0
    6.9460   -0.1500   18.3260 C   0  0  0  0  0  0  0  0  0  0  0  0
    3.4900    2.2590   19.7290 C   0  0  0  0  0  0  0  0  0  0  0  0
    3.0780    2.2230   21.0450 C   0  0  0  0  0  0  0  0  0  0  0  0
    3.7300    1.4160   22.0470 C   0  0  0  0  0  0  0  0  0  0  0  0
    4.9330    0.5600   21.5930 C   0  0  0  0  0  0  0  0  0  0  0  0
   11.1880    0.0310   23.3280 C   0  0  0  0  0  0  0  0  0  0  0  0
   12.2400    1.1090   23.7340 C   0  0  0  0  0  0  0  0  0  0  0  0
   11.2710    2.1520   23.9330 C   0  0  0  0  0  0  0  0  0  0  0  0
    9.9110    2.2580   23.8610 C   0  0  0  0  0  0  0  0  0  0  0  0
    9.1400    1.2720   23.5120 C   0  0  0  0  0  0  0  0  0  0  0  0
    9.7420    0.1540   23.2240 C   0  0  0  0  0  0  0  0  0  0  0  0
    8.6830   -5.3860   26.7420 C   0  0  0  0  0  0  0  0  0  0  0  0
    8.6590   -4.2890   25.8730 C   0  0  0  0  0  0  0  0  0  0  0  0
    8.1760   -3.0730   26.1340 N   0  0  0  0  0  0  0  0  0  0  0  0
    8.3080   -2.2000   25.0720 N   0  0  0  0  0  0  0  0  0  0  0  0
    8.9460   -2.8860   23.9600 C   0  0  0  0  0  0  0  0  0  0  0  0
    9.3120   -4.4870   24.3200 S   0  0  0  0  0  0  0  0  0  0  0  0
    9.1620   -2.1590   22.7900 C   0  0  0  0  0  0  0  0  0  0  0  0
   13.4650   -1.9110   22.0060 F   0  0  0  0  0  0  0  0  0  0  0  0
   12.7830   -0.3140   23.4110 C   0  0  0  0  0  0  0  0  0  0  0  0
   12.9250   -0.6820   22.0980 C   0  0  0  0  0  0  0  0  0  0  0  0
  1  2  2  0
  1  3  1  0
  1  4  1  0
  5  6  2  0
  6  7  1  0
  7  8  2  0
  3  9  1  0
  8  9  1  0
  5 10  1  0
  9 10  2  0
  7 11  1  0
 11 12  2  0
 12 13  1  0
  8 14  1  0
 13 14  2  0
 15 16  2  0
 16 17  1  0
 17 18  2  0
 18 19  1  0
  4 20  1  0
 15 20  1  0
 19 20  2  0
 21 22  1  0
 22 23  2  0
 23 24  1  0
 24 25  2  0
 22 26  1  0
 25 26  1  0
  4 27  1  0
 25 27  1  0
 16 29  1  0
 28 30  1  0
 29 30  1  0
M  END
