x0390-x1163
     RDKit          3D

 26 29  0  0  0  0  0  0  0  0999 V2000
   22.8030   17.7770    2.6960 O   0  0  0  0  0  0  0  0  0  0  0  0
   23.4220   16.1770    5.1010 C   0  0  0  0  0  0  0  0  0  0  0  0
   22.7360   15.0060    4.7390 N   0  0  0  0  0  0  0  0  0  0  0  0
   20.5390   21.2040    4.7730 O   0  0  0  0  0  0  0  0  0  0  0  0
   21.4980   22.1080    4.2350 C   0  0  0  0  0  0  0  0  0  0  0  0
   22.3850   18.1930    3.7710 C   0  0  0  0  0  0  0  0  0  0  0  0
   22.6310   17.4430    5.0940 C   0  0  0  0  0  0  0  0  0  0  0  0
   22.0880   18.0260    6.2420 C   0  0  0  0  0  0  0  0  0  0  0  0
   21.3250   19.3410    6.1530 C   0  0  0  0  0  0  0  0  0  0  0  0
   21.1710   19.9660    4.9320 C   0  0  0  0  0  0  0  0  0  0  0  0
   21.6800   19.3850    3.7910 C   0  0  0  0  0  0  0  0  0  0  0  0
   24.9430   13.8810    5.0460 N   0  0  0  0  0  0  0  0  0  0  0  0
   23.6600   13.9890    4.3190 C   0  0  0  0  0  0  0  0  0  0  0  0
   23.5660   13.0250    3.3300 N   0  0  0  0  0  0  0  0  0  0  0  0
   24.6860   12.2830    3.3630 C   0  0  0  0  0  0  0  0  0  0  0  0
   25.5340   12.7420    4.3560 C   0  0  0  0  0  0  0  0  0  0  0  0
   26.7900   12.2530    4.7260 C   0  0  0  0  0  0  0  0  0  0  0  0
   27.2920   11.0530    3.9310 C   0  0  0  0  0  0  0  0  0  0  0  0
   26.3920   10.5040    2.8200 C   0  0  0  0  0  0  0  0  0  0  0  0
   25.0610   11.1910    2.5830 C   0  0  0  0  0  0  0  0  0  0  0  0
   22.1300   14.5610    5.8890 C   0  0  0  0  0  0  0  0  0  0  0  0
   21.9310   13.0600    6.1260 C   0  0  0  0  0  0  0  0  0  0  0  0
   21.2670   12.6600    7.4480 C   0  0  0  0  0  0  0  0  0  0  0  0
   20.9140   13.6970    8.2930 C   0  0  0  0  0  0  0  0  0  0  0  0
   21.1440   15.0470    7.9730 C   0  0  0  0  0  0  0  0  0  0  0  0
   21.7360   15.4890    6.8010 C   0  0  0  0  0  0  0  0  0  0  0  0
  2  3  1  0
  4  5  1  0
  1  6  1  0
  2  7  1  0
  6  7  2  0
  7  8  1  0
  8  9  2  0
  4 10  1  0
  9 10  1  0
  6 11  1  0
 10 11  2  0
  3 13  1  0
 12 13  1  0
 13 14  2  0
 14 15  1  0
 12 16  1  0
 15 16  2  0
 16 17  1  0
 17 18  2  0
 18 19  1  0
 15 20  1  0
 19 20  2  0
  3 21  1  0
 21 22  2  0
 22 23  1  0
 23 24  2  0
 24 25  1  0
 21 26  1  0
 25 26  2  0
M  END
