x0395-x2910
     RDKit          3D

 31 34  0  0  0  0  0  0  0  0999 V2000
    6.5950   -1.5570   21.8220 N   0  0  0  0  0  0  0  0  0  0  0  0
   10.2730    2.6070   23.6130 C   0  0  0  0  0  0  0  0  0  0  0  0
   10.1330    1.4330   23.9400 O   0  0  0  0  0  0  0  0  0  0  0  0
    9.4000   -1.3990   23.0720 N   0  0  0  0  0  0  0  0  0  0  0  0
    5.2640   -2.8220   20.3910 O   0  0  0  0  0  0  0  0  0  0  0  0
    6.3260    1.2920   16.8220 O   0  0  0  0  0  0  0  0  0  0  0  0
    8.9260   -2.0680   21.8930 C   0  0  0  0  0  0  0  0  0  0  0  0
    7.5500   -2.5610   22.2110 C   0  0  0  0  0  0  0  0  0  0  0  0
    5.7370   -1.7380   20.7060 C   0  0  0  0  0  0  0  0  0  0  0  0
    8.7170   -5.3320   26.4320 C   0  0  0  0  0  0  0  0  0  0  0  0
   11.0700    0.6190   23.3840 C   0  0  0  0  0  0  0  0  0  0  0  0
   10.7560   -0.8320   22.9220 C   0  0  0  0  0  0  0  0  0  0  0  0
   11.8940   -1.6590   22.2950 C   0  0  0  0  0  0  0  0  0  0  0  0
   13.1370   -1.1020   22.1670 C   0  0  0  0  0  0  0  0  0  0  0  0
   13.4250    0.2330   22.5970 C   0  0  0  0  0  0  0  0  0  0  0  0
   12.3440    1.0960   23.2190 C   0  0  0  0  0  0  0  0  0  0  0  0
    4.7750    1.8570   18.3780 N   0  0  0  0  0  0  0  0  0  0  0  0
    4.0680    1.6080   19.6250 C   0  0  0  0  0  0  0  0  0  0  0  0
    4.4410    0.3650   20.3970 C   0  0  0  0  0  0  0  0  0  0  0  0
    5.4090   -0.4940   19.9120 C   0  0  0  0  0  0  0  0  0  0  0  0
    6.0420   -0.1910   18.7200 C   0  0  0  0  0  0  0  0  0  0  0  0
    5.6970    0.9580   18.0250 C   0  0  0  0  0  0  0  0  0  0  0  0
    3.0480    2.5590   20.0590 C   0  0  0  0  0  0  0  0  0  0  0  0
    2.3980    2.2850   21.2620 C   0  0  0  0  0  0  0  0  0  0  0  0
    2.7290    1.1470   22.0040 C   0  0  0  0  0  0  0  0  0  0  0  0
    3.7060    0.2190   21.6010 C   0  0  0  0  0  0  0  0  0  0  0  0
    8.7300   -4.0010   25.7330 C   0  0  0  0  0  0  0  0  0  0  0  0
    8.2290   -2.8290   26.1980 N   0  0  0  0  0  0  0  0  0  0  0  0
    8.4020   -1.8560   25.3860 N   0  0  0  0  0  0  0  0  0  0  0  0
    9.0890   -2.1830   24.1310 C   0  0  0  0  0  0  0  0  0  0  0  0
    9.4800   -3.8360   24.1110 S   0  0  0  0  0  0  0  0  0  0  0  0
  2  3  1  0
  4  7  1  0
  1  8  1  0
  7  8  1  0
  1  9  1  0
  5  9  2  0
  3 11  1  0
  4 12  1  0
 11 12  2  0
 12 13  1  0
 13 14  2  0
 14 15  1  0
 11 16  1  0
 15 16  2  0
 17 18  2  0
 18 19  1  0
  9 20  1  0
 19 20  2  0
 20 21  1  0
  6 22  1  0
 17 22  1  0
 21 22  2  0
 18 23  1  0
 23 24  2  0
 24 25  1  0
 19 26  1  0
 25 26  2  0
 10 27  1  0
 27 28  2  0
 28 29  1  0
  4 30  1  0
 29 30  2  0
 27 31  1  0
 30 31  1  0
M  END
