x0395-x1375
     RDKit          3D

 27 29  0  0  0  0  0  0  0  0999 V2000
    5.5980   -5.2300   20.0990 O   0  0  0  0  0  0  0  0  0  0  0  0
    6.3750   -4.5410   20.7870 C   0  0  0  0  0  0  0  0  0  0  0  0
    7.2380   -3.5160   20.0560 C   0  0  0  0  0  0  0  0  0  0  0  0
    6.4440   -4.6260   22.2330 N   0  0  0  0  0  0  0  0  0  0  0  0
    2.2500   -6.7500   24.1470 O   0  0  0  0  0  0  0  0  0  0  0  0
    4.4800   -7.8940   24.3350 O   0  0  0  0  0  0  0  0  0  0  0  0
   10.8300   -4.4200   25.7970 F   0  0  0  0  0  0  0  0  0  0  0  0
    8.3260   -3.2330   23.6410 C   0  0  0  0  0  0  0  0  0  0  0  0
    9.4720   -2.8640   24.5650 C   0  0  0  0  0  0  0  0  0  0  0  0
    9.8140   -4.3360   24.9310 C   0  0  0  0  0  0  0  0  0  0  0  0
    9.2720   -5.7220   24.5450 C   0  0  0  0  0  0  0  0  0  0  0  0
    8.0970   -5.8780   23.5680 C   0  0  0  0  0  0  0  0  0  0  0  0
    7.6270   -4.5250   23.1310 C   0  0  0  0  0  0  0  0  0  0  0  0
    5.3630   -4.8060   24.2850 C   0  0  0  0  0  0  0  0  0  0  0  0
    5.6010   -5.4630   23.0140 C   0  0  1  0  0  0  0  0  0  0  0  0
    4.2020   -5.9820   22.6630 C   0  0  0  0  0  0  0  0  0  0  0  0
    3.6920   -6.7180   24.1220 S   0  0  0  0  0  0  0  0  0  0  0  0
    4.2370   -5.4840   25.0660 C   0  0  0  0  0  0  0  0  0  0  0  0
    9.8160   -0.3430   24.3860 C   0  0  0  0  0  0  0  0  0  0  0  0
   13.5120   -1.6700   21.6800 F   0  0  0  0  0  0  0  0  0  0  0  0
   10.2940    0.3780   23.3000 C   0  0  1  0  0  0  0  0  0  0  0  0
   11.6070    0.8820   23.4680 C   0  0  0  0  0  0  0  0  0  0  0  0
   12.6640    0.1850   22.8730 C   0  0  0  0  0  0  0  0  0  0  0  0
   12.4780   -1.0410   22.2450 C   0  0  0  0  0  0  0  0  0  0  0  0
   11.2240   -1.6080   22.1870 C   0  0  0  0  0  0  0  0  0  0  0  0
   10.2320   -0.5490   22.1790 N   0  0  0  0  0  0  0  0  0  0  0  0
    8.9400   -1.5630   24.0480 C   0  0  0  0  0  0  0  0  0  0  0  0
  1  2  2  0
  2  3  1  0
  2  4  1  0
  8  9  2  0
  7 10  1  0
  9 10  1  0
 10 11  2  0
 11 12  1  0
  4 13  1  0
  8 13  1  0
 12 13  2  0
 15  4  1  6
 14 15  1  0
 15 16  1  0
 17  5  1  0
  6 17  1  0
 16 17  1  0
 14 18  2  0
 17 18  1  0
 21 19  1  1
 21 22  1  0
 22 23  1  0
 20 24  1  0
 23 24  2  0
 24 25  1  0
 21 26  1  0
 25 26  1  0
  9 27  1  0
 19 27  1  0
M  END
