x0390-x0464
     RDKit          3D

 26 30  0  0  0  0  0  0  0  0999 V2000
   22.5030   17.7240    2.9210 O   0  0  0  0  0  0  0  0  0  0  0  0
   22.9030   16.3180    5.5910 C   0  0  1  0  0  0  0  0  0  0  0  0
   23.4460   15.7760    4.4220 N   0  0  0  0  0  0  0  0  0  0  0  0
   22.1800   14.9240    8.7690 C   0  0  0  0  0  0  0  0  0  0  0  0
   19.8670   13.2960    8.0430 O   0  0  0  0  0  0  0  0  0  0  0  0
   22.0520   18.2510    3.9350 C   0  0  0  0  0  0  0  0  0  0  0  0
   22.2090   17.6190    5.3530 C   0  0  0  0  0  0  0  0  0  0  0  0
   21.6470   18.3340    6.4060 C   0  0  0  0  0  0  0  0  0  0  0  0
   20.9220   19.6540    6.1630 C   0  0  0  0  0  0  0  0  0  0  0  0
   20.8160   20.1530    4.8760 C   0  0  0  0  0  0  0  0  0  0  0  0
   21.3630   19.4690    3.8030 C   0  0  0  0  0  0  0  0  0  0  0  0
   25.2050   14.1910    5.0890 N   0  0  0  0  0  0  0  0  0  0  0  0
   23.8040   14.3710    4.6230 C   0  0  0  0  0  0  0  0  0  0  0  0
   23.5030   13.3340    3.7200 N   0  0  0  0  0  0  0  0  0  0  0  0
   24.5450   12.4770    3.6190 C   0  0  0  0  0  0  0  0  0  0  0  0
   25.5660   12.9400    4.4190 C   0  0  0  0  0  0  0  0  0  0  0  0
   26.8140   12.3490    4.6170 C   0  0  0  0  0  0  0  0  0  0  0  0
   27.0960   11.0600    3.8730 C   0  0  0  0  0  0  0  0  0  0  0  0
   26.0110   10.5020    2.9550 C   0  0  0  0  0  0  0  0  0  0  0  0
   24.7090   11.2960    2.8690 C   0  0  0  0  0  0  0  0  0  0  0  0
   21.3360   14.9750    7.2750 C   0  0  1  0  0  0  0  0  0  0  0  0
   22.1140   15.1460    6.0220 N   0  0  0  0  0  0  0  0  0  0  0  0
   23.0750   14.0330    5.8060 C   0  0  1  0  0  0  0  0  0  0  0  0
   22.2640   12.7460    5.6380 C   0  0  0  0  0  0  0  0  0  0  0  0
   21.6110   12.6270    6.8620 C   0  0  0  0  0  0  0  0  0  0  0  0
   20.7440   13.7240    7.0100 C   0  0  1  0  0  0  0  0  0  0  0  0
  2  3  1  0
  1  6  1  0
  2  7  1  6
  6  7  2  0
  7  8  1  0
  8  9  2  0
  9 10  1  0
  6 11  1  0
 10 11  2  0
  3 13  1  0
 13 12  1  0
 13 14  1  0
 14 15  2  0
 12 16  2  0
 15 16  1  0
 16 17  1  0
 17 18  2  0
 18 19  1  0
 15 20  1  0
 19 20  2  0
 21  4  1  1
  2 22  1  0
 21 22  1  0
 13 23  1  0
 22 23  1  0
 23 24  1  6
 24 25  1  0
 26  5  1  1
 21 26  1  0
 25 26  1  0
M  END
