x0395-x1334-x0771-x3113
     RDKit          3D

 61 66  0  0  0  0  0  0  0  0999 V2000
    8.2930    1.4220   23.2270 N   0  0  0  0  0  0  0  0  0  0  0  0
    8.8280    1.5820   21.0610 O   0  0  0  0  0  0  0  0  0  0  0  0
   11.8740    3.9270   22.3610 O   0  0  0  0  0  0  0  0  0  0  0  0
    7.0930   -0.1470   21.5510 C   0  0  1  0  0  0  0  0  0  0  0  0
    8.1160    0.9720   21.8610 C   0  0  0  0  0  0  0  0  0  0  0  0
    9.2420    2.5510   23.4270 C   0  0  0  0  0  0  0  0  0  0  0  0
   10.5660    2.1410   23.3010 C   0  0  0  0  0  0  0  0  0  0  0  0
   11.6710    3.1610   23.2900 C   0  0  0  0  0  0  0  0  0  0  0  0
   12.9350    4.5440   22.5250 C   0  0  0  0  0  0  0  0  0  0  0  0
   12.6120   -1.7330   24.4450 C   0  0  0  0  0  0  0  0  0  0  0  0
   13.4750   -1.6100   23.2250 C   0  0  0  0  0  0  0  0  0  0  0  0
   13.1880   -2.8580   25.3320 C   0  0  0  0  0  0  0  0  0  0  0  0
   12.5440   -0.4510   25.1900 C   0  0  0  0  0  0  0  0  0  0  0  0
    8.7730   -4.7900   26.8510 C   0  0  0  0  0  0  0  0  0  0  0  0
    6.8440   -5.6180   29.0660 Cl  0  0  0  0  0  0  0  0  0  0  0  0
    7.6830   -2.9870   18.6270 C   0  0  0  0  0  0  0  0  0  0  0  0
    5.6430   -3.6860   19.3290 O   0  0  0  0  0  0  0  0  0  0  0  0
    6.7060   -3.1120   19.5910 C   0  0  0  0  0  0  0  0  0  0  0  0
    0.6740   -1.3060   26.2790 C   0  0  0  0  0  0  0  0  0  0  0  0
    4.2200   -7.1250   25.8920 O   0  0  0  0  0  0  0  0  0  0  0  0
    5.9800   -5.1540   26.6760 N   0  0  0  0  0  0  0  0  0  0  0  0
    7.2260   -3.9430   21.3950 N   0  0  0  0  0  0  0  0  0  0  0  0
    1.6350   -6.0130   24.9050 C   0  0  0  0  0  0  0  0  0  0  0  0
    8.4040   -4.2010   21.7060 C   0  0  0  0  0  0  0  0  0  0  0  0
    9.4700   -3.0990   21.6660 C   0  0  0  0  0  0  0  0  0  0  0  0
    4.7790   -5.6330   25.8890 S   0  0  2  0  0  0  0  0  0  0  0  0
    6.6450   -6.1750   27.4390 C   0  0  0  0  0  0  0  0  0  0  0  0
    6.3860    0.4730   17.8430 N   0  0  0  0  0  0  0  0  0  0  0  0
    5.2920    1.2410   17.9300 C   0  0  0  0  0  0  0  0  0  0  0  0
    4.7100    1.6020   19.1460 C   0  0  0  0  0  0  0  0  0  0  0  0
    5.2730    1.1640   20.3490 C   0  0  0  0  0  0  0  0  0  0  0  0
    6.4110    0.3680   20.2850 C   0  0  0  0  0  0  0  0  0  0  0  0
    6.9200    0.0510   19.0320 C   0  0  0  0  0  0  0  0  0  0  0  0
    9.9550   -2.4250   21.8820 C   0  0  0  0  0  0  0  0  0  0  0  0
   11.0430   -2.8030   22.6880 C   0  0  0  0  0  0  0  0  0  0  0  0
   11.2270   -2.0740   24.0070 C   0  0  0  0  0  0  0  0  0  0  0  0
    9.9150   -1.7820   24.7060 C   0  0  0  0  0  0  0  0  0  0  0  0
    8.8540   -2.3470   24.0600 C   0  0  2  0  0  0  0  0  0  0  0  0
    8.6910   -2.3370   22.5280 C   0  0  1  0  0  0  0  0  0  0  0  0
    8.6640   -3.7460   25.8090 C   0  0  0  0  0  0  0  0  0  0  0  0
    7.9130   -2.6360   26.0010 N   0  0  0  0  0  0  0  0  0  0  0  0
    7.6720   -2.1210   24.9180 N   0  0  0  0  0  0  0  0  0  0  0  0
    9.5540   -4.0580   24.3150 S   0  0  0  0  0  0  0  0  0  0  0  0
    6.8060   -2.5820   21.0480 C   0  0  1  0  0  0  0  0  0  0  0  0
    7.7350   -1.6110   21.4430 C   0  0  1  0  0  0  0  0  0  0  0  0
    8.1230   -3.7560   22.4910 N   0  0  0  0  0  0  0  0  0  0  0  0
    6.6620   -4.0510   22.6240 C   0  0  1  0  0  0  0  0  0  0  0  0
    5.9330   -2.9410   22.1820 C   0  0  0  0  0  0  0  0  0  0  0  0
    1.6410   -2.4410   26.1280 C   0  0  0  0  0  0  0  0  0  0  0  0
    1.1900   -3.6400   25.5980 C   0  0  0  0  0  0  0  0  0  0  0  0
    2.1240   -4.7170   25.4770 C   0  0  0  0  0  0  0  0  0  0  0  0
    3.5650   -4.4930   25.9380 C   0  0  0  0  0  0  0  0  0  0  0  0
    3.8830   -3.2340   26.4420 C   0  0  0  0  0  0  0  0  0  0  0  0
    2.9440   -2.2300   26.5360 C   0  0  0  0  0  0  0  0  0  0  0  0
    6.4670   -5.2050   21.7240 N   0  0  0  0  0  0  0  0  0  0  0  0
    5.6540   -6.3190   22.2010 C   0  0  0  0  0  0  0  0  0  0  0  0
    4.7560   -5.9000   23.1650 C   0  0  0  0  0  0  0  0  0  0  0  0
    5.4450   -5.4790   24.3660 N   0  0  0  0  0  0  0  0  0  0  0  0
    6.3930   -4.4160   24.1200 C   0  0  0  0  0  0  0  0  0  0  0  0
   13.6120   -1.4680   20.9110 F   0  0  0  0  0  0  0  0  0  0  0  0
   12.7420   -1.6280   21.9230 C   0  0  0  0  0  0  0  0  0  0  0  0
  1  5  1  0
  2  5  2  0
  4  5  1  6
  1  6  1  0
  6  7  1  0
  3  8  1  0
  7  8  1  0
  3  9  1  0
 10 11  1  0
 10 12  1  0
 10 13  1  0
 16 18  1  0
 17 18  2  0
 22 24  2  3
 24 25  1  0
 20 26  2  0
 21 26  2  0
 15 27  1  0
 21 27  1  0
 28 29  2  0
 29 30  1  0
 30 31  2  0
  4 32  1  0
 31 32  1  0
 28 33  1  0
 32 33  2  0
 34 35  1  0
 10 36  1  0
 35 36  1  0
 36 37  2  0
 38 37  1  6
 39 34  1  6
 38 39  1  0
 14 40  1  0
 40 41  1  0
 38 42  1  0
 41 42  2  0
 38 43  1  0
 40 43  2  0
 18 44  1  0
 44 22  1  1
 45  4  1  1
 39 45  1  0
 44 45  1  0
 39 46  1  0
 47 46  1  0
 44 48  1  0
 47 48  1  6
 19 49  1  0
 49 50  2  0
 23 51  1  0
 50 51  1  0
 26 52  1  6
 51 52  2  0
 52 53  1  0
 49 54  1  0
 53 54  2  0
 47 55  1  0
 55 56  1  0
 56 57  1  0
 26 58  1  0
 57 58  1  0
 47 59  1  0
 58 59  1  0
 11 61  1  0
 60 61  1  0
M  END
