x0397-x2646
     RDKit          3D

 27 29  0  0  0  0  0  0  0  0999 V2000
    8.0030   -1.5820   20.7800 C   0  0  0  0  0  0  0  0  0  0  0  0
    6.7500   -1.9720   20.1350 N   0  0  0  0  0  0  0  0  0  0  0  0
    6.7610   -1.6630   18.7750 C   0  0  0  0  0  0  0  0  0  0  0  0
    3.6820    2.4790   19.3080 C   0  0  0  0  0  0  0  0  0  0  0  0
    6.0970   -3.2140   20.6040 C   0  0  0  0  0  0  0  0  0  0  0  0
    5.4420   -3.9760   19.8690 O   0  0  0  0  0  0  0  0  0  0  0  0
    6.3380   -3.4640   22.0290 N   0  0  0  0  0  0  0  0  0  0  0  0
    7.7250    0.6690   21.3810 O   0  0  0  0  0  0  0  0  0  0  0  0
   13.1490   -2.3240   21.2020 Cl  0  0  0  0  0  0  0  0  0  0  0  0
    8.0380   -0.4550   21.7600 C   0  0  0  0  0  0  0  0  0  0  0  0
    8.5430   -0.7740   23.1580 C   0  0  0  0  0  0  0  0  0  0  0  0
    4.9730    0.1350   19.4850 C   0  0  0  0  0  0  0  0  0  0  0  0
    6.0690   -0.3990   18.6280 C   0  0  0  0  0  0  0  0  0  0  0  0
    6.3030    0.5360   17.6810 N   0  0  0  0  0  0  0  0  0  0  0  0
    5.4610    1.6400   17.8440 O   0  0  0  0  0  0  0  0  0  0  0  0
    4.6450    1.4650   18.9100 C   0  0  0  0  0  0  0  0  0  0  0  0
    6.5790   -5.2670   23.2830 C   0  0  0  0  0  0  0  0  0  0  0  0
    5.7430   -4.7440   22.4280 C   0  0  0  0  0  0  0  0  0  0  0  0
    6.0460   -5.8720   21.8510 C   0  0  0  0  0  0  0  0  0  0  0  0
   10.6690    0.3490   23.9580 C   0  0  0  0  0  0  0  0  0  0  0  0
   12.0420    0.4730   23.9050 C   0  0  0  0  0  0  0  0  0  0  0  0
   12.7730   -0.3510   23.0590 C   0  0  0  0  0  0  0  0  0  0  0  0
   12.2400   -1.3270   22.2300 C   0  0  0  0  0  0  0  0  0  0  0  0
   10.8620   -1.4530   22.2790 C   0  0  0  0  0  0  0  0  0  0  0  0
   10.0340   -0.6020   23.1570 C   0  0  0  0  0  0  0  0  0  0  0  0
    4.4820    1.6720   21.4090 C   0  0  0  0  0  0  0  0  0  0  0  0
    3.3540    2.1940   20.7520 C   0  0  0  0  0  0  0  0  0  0  0  0
  1  2  1  0
  2  3  1  0
  2  5  1  0
  5  6  2  0
  5  7  1  0
  1 10  1  0
  8 10  2  0
 10 11  1  0
  3 13  1  0
 12 13  1  0
 13 14  2  0
 14 15  1  0
  4 16  1  0
 12 16  2  0
 15 16  1  0
  7 18  1  0
 17 18  1  0
 17 19  1  0
 18 19  1  0
 20 21  2  0
 21 22  1  0
  9 23  1  0
 22 23  2  0
 23 24  1  0
 11 25  1  0
 20 25  1  0
 24 25  2  0
  4 27  1  0
 26 27  1  0
M  END
