x0395-x2779
     RDKit          3D

 23 26  0  0  0  0  0  0  0  0999 V2000
    7.3880   -2.9690   18.6890 C   0  0  0  0  0  0  0  0  0  0  0  0
    5.5180   -4.1090   19.7430 O   0  0  0  0  0  0  0  0  0  0  0  0
    6.4180   -3.2610   19.8170 C   0  0  0  0  0  0  0  0  0  0  0  0
   10.3550   -2.7000   23.2480 C   0  0  1  0  0  0  0  0  0  0  0  0
    8.9350   -5.5400   27.2640 C   0  0  0  0  0  0  0  0  0  0  0  0
    8.5190   -0.3020   23.0180 C   0  0  0  0  0  0  0  0  0  0  0  0
   12.9360   -2.0600   21.5610 F   0  0  0  0  0  0  0  0  0  0  0  0
    6.6080   -2.5110   20.9790 N   0  0  0  0  0  0  0  0  0  0  0  0
    7.3300   -1.3270   21.1020 C   0  0  0  0  0  0  0  0  0  0  0  0
    8.6660   -1.3850   21.9340 C   0  0  2  0  0  0  0  0  0  0  0  0
    8.9810   -2.7510   22.6060 C   0  0  1  0  0  0  0  0  0  0  0  0
    8.0690   -3.7400   22.3140 C   0  0  0  0  0  0  0  0  0  0  0  0
    6.7420   -3.2910   22.1230 C   0  0  0  0  0  0  0  0  0  0  0  0
   12.4020   -1.2630   22.4900 C   0  0  0  0  0  0  0  0  0  0  0  0
   11.1420   -1.5140   23.3580 C   0  0  0  0  0  0  0  0  0  0  0  0
   10.8340   -0.2000   24.4360 S   0  0  0  0  0  0  0  0  0  0  0  0
   12.1540    0.6980   23.8970 C   0  0  0  0  0  0  0  0  0  0  0  0
   12.8790    0.0820   22.9310 C   0  0  0  0  0  0  0  0  0  0  0  0
    8.9450   -4.4490   26.2050 C   0  0  0  0  0  0  0  0  0  0  0  0
    8.5370   -3.0860   26.3130 N   0  0  0  0  0  0  0  0  0  0  0  0
    8.7190   -2.3600   25.1880 N   0  0  0  0  0  0  0  0  0  0  0  0
    9.3270   -3.1140   24.2110 C   0  0  2  0  0  0  0  0  0  0  0  0
    9.4890   -4.7760   24.6550 S   0  0  0  0  0  0  0  0  0  0  0  0
  1  3  1  0
  2  3  2  0
  3  8  1  0
  8  9  1  0
 10  6  1  1
  9 10  1  0
  4 11  1  0
 10 11  1  0
 11 12  1  6
  8 13  1  0
 12 13  1  0
  7 14  1  0
  4 15  1  1
 14 15  2  0
 15 16  1  0
 16 17  1  0
 14 18  1  0
 17 18  2  0
  5 19  1  0
 19 20  2  0
 20 21  1  0
  4 22  1  0
 11 22  1  0
 22 21  1  1
 19 23  1  0
 22 23  1  0
M  END
