x0395-x0786-x3113
     RDKit          3D

 52 56  0  0  0  0  0  0  0  0999 V2000
    7.1410   -1.1620   22.2130 N   0  0  0  0  0  0  0  0  0  0  0  0
    8.3650    1.4120   23.5210 N   0  0  0  0  0  0  0  0  0  0  0  0
    8.9050    1.5740   21.2140 O   0  0  0  0  0  0  0  0  0  0  0  0
   12.3460    3.7200   22.5740 O   0  0  0  0  0  0  0  0  0  0  0  0
    6.9310    0.2630   21.8950 C   0  0  1  0  0  0  0  0  0  0  0  0
    8.2000    1.1540   22.1540 C   0  0  0  0  0  0  0  0  0  0  0  0
    9.3050    2.0270   22.7060 C   0  0  0  0  0  0  0  0  0  0  0  0
   10.7000    2.2710   23.3990 C   0  0  0  0  0  0  0  0  0  0  0  0
   11.3110    3.6370   23.2190 C   0  0  0  0  0  0  0  0  0  0  0  0
   12.9920    4.7450   22.7980 C   0  0  0  0  0  0  0  0  0  0  0  0
   12.3960   -1.7000   24.3810 C   0  0  0  0  0  0  0  0  0  0  0  0
   13.4740   -2.0760   23.6470 C   0  0  0  0  0  0  0  0  0  0  0  0
   13.1630   -2.8670   24.9890 C   0  0  0  0  0  0  0  0  0  0  0  0
   12.4560   -0.4840   25.1980 C   0  0  0  0  0  0  0  0  0  0  0  0
    8.4090   -5.4920   26.2320 C   0  0  0  0  0  0  0  0  0  0  0  0
    6.0510   -3.4620   21.9170 N   0  0  0  0  0  0  0  0  0  0  0  0
    7.5790   -4.6070   20.5260 C   0  0  0  0  0  0  0  0  0  0  0  0
    5.2650   -4.4430   19.9230 O   0  0  0  0  0  0  0  0  0  0  0  0
    6.1770   -4.1830   20.7210 C   0  0  0  0  0  0  0  0  0  0  0  0
    3.8540   -7.9680   24.7750 O   0  0  0  0  0  0  0  0  0  0  0  0
    3.3360   -6.9690   24.2890 C   0  0  0  0  0  0  0  0  0  0  0  0
    6.0150   -2.0850   21.8680 C   0  0  0  0  0  0  0  0  0  0  0  0
    6.4500    0.2470   17.9930 N   0  0  0  0  0  0  0  0  0  0  0  0
    5.3880    1.0690   17.8650 C   0  0  0  0  0  0  0  0  0  0  0  0
    4.6630    1.7450   19.0300 C   0  0  0  0  0  0  0  0  0  0  0  0
    5.2510    1.4180   20.3960 C   0  0  0  0  0  0  0  0  0  0  0  0
    6.3410    0.5800   20.5280 C   0  0  0  0  0  0  0  0  0  0  0  0
    6.9310   -0.0130   19.2400 C   0  0  0  0  0  0  0  0  0  0  0  0
    9.4950   -1.4370   21.7870 C   0  0  0  0  0  0  0  0  0  0  0  0
   10.9090   -1.8710   22.1480 C   0  0  0  0  0  0  0  0  0  0  0  0
   11.0910   -1.8720   23.6610 C   0  0  0  0  0  0  0  0  0  0  0  0
    9.9680   -2.0240   24.4140 C   0  0  0  0  0  0  0  0  0  0  0  0
    8.7250   -2.2000   23.8740 C   0  0  2  0  0  0  0  0  0  0  0  0
    8.4240   -1.6070   22.6450 C   0  0  0  0  0  0  0  0  0  0  0  0
    8.4370   -4.2020   25.5010 C   0  0  0  0  0  0  0  0  0  0  0  0
    8.2140   -2.9670   26.0500 N   0  0  0  0  0  0  0  0  0  0  0  0
    7.9000   -2.0140   25.0970 N   0  0  0  0  0  0  0  0  0  0  0  0
    8.7310   -3.9660   23.8140 S   0  0  0  0  0  0  0  0  0  0  0  0
    5.4930   -4.0200   22.9960 C   0  0  0  0  0  0  0  0  0  0  0  0
    4.7540   -5.2110   22.9690 C   0  0  0  0  0  0  0  0  0  0  0  0
    4.1880   -5.6890   24.2100 C   0  0  0  0  0  0  0  0  0  0  0  0
    4.3820   -4.9950   25.3900 C   0  0  0  0  0  0  0  0  0  0  0  0
    5.1250   -3.8160   25.4050 C   0  0  0  0  0  0  0  0  0  0  0  0
    5.6730   -3.3360   24.2090 C   0  0  0  0  0  0  0  0  0  0  0  0
    1.4360   -5.7120   23.2520 C   0  0  0  0  0  0  0  0  0  0  0  0
    0.4140   -5.1080   24.2020 C   0  0  0  0  0  0  0  0  0  0  0  0
   -0.9640   -6.2690   24.4400 S   0  0  0  0  0  0  0  0  0  0  0  0
    0.0220   -7.7160   24.9920 C   0  0  0  0  0  0  0  0  0  0  0  0
    1.1420   -7.9440   24.1600 C   0  0  0  0  0  0  0  0  0  0  0  0
    2.0300   -6.9300   23.8080 N   0  0  0  0  0  0  0  0  0  0  0  0
   13.4800   -1.3230   21.4470 F   0  0  0  0  0  0  0  0  0  0  0  0
   13.1320   -2.3910   22.2170 C   0  0  0  0  0  0  0  0  0  0  0  0
  1  5  1  0
  2  6  1  0
  3  6  2  0
  5  6  1  6
  2  7  1  0
  7  8  1  0
  4  9  1  0
  8  9  1  0
  4 10  1  0
 11 12  1  0
 11 13  1  0
 11 14  1  0
 16 19  1  0
 17 19  1  0
 18 19  2  0
 20 21  2  0
  1 22  1  0
 16 22  1  0
 23 24  2  0
 24 25  1  0
 25 26  2  0
  5 27  1  0
 26 27  1  0
 23 28  1  0
 27 28  2  0
 29 30  1  0
 11 31  1  0
 30 31  1  0
 31 32  2  0
 33 32  1  1
  1 34  1  0
 29 34  2  0
 33 34  1  0
 15 35  1  0
 35 36  1  0
 33 37  1  0
 36 37  2  0
 33 38  1  0
 35 38  2  0
 16 39  1  0
 39 40  2  0
 21 41  1  0
 40 41  1  0
 41 42  2  0
 42 43  1  0
 39 44  1  0
 43 44  2  0
 45 46  1  0
 46 47  1  0
 47 48  1  0
 48 49  1  0
 21 50  1  0
 45 50  1  0
 49 50  1  0
 12 52  1  0
 51 52  1  0
M  END
