x0426-x2600
     RDKit          3D

 30 32  0  0  0  0  0  0  0  0999 V2000
    2.4170    1.7160   23.8240 C   0  0  0  0  0  0  0  0  0  0  0  0
    2.2940    0.4710   23.7890 O   0  0  0  0  0  0  0  0  0  0  0  0
    3.4990    2.4030   23.2530 N   0  0  0  0  0  0  0  0  0  0  0  0
    4.3920    1.7330   22.4340 C   0  0  0  0  0  0  0  0  0  0  0  0
    3.8440    1.3330   21.2580 C   0  0  0  0  0  0  0  0  0  0  0  0
    2.8320    4.0830   25.0970 F   0  0  0  0  0  0  0  0  0  0  0  0
   13.8450   -1.4030   20.5430 N   0  0  0  0  0  0  0  0  0  0  0  0
    7.9620    0.2910   21.8030 C   0  0  0  0  0  0  0  0  0  0  0  0
    8.7520    1.3710   21.2160 O   0  0  0  0  0  0  0  0  0  0  0  0
    8.4840   -0.3550   23.0690 C   0  0  0  0  0  0  0  0  0  0  0  0
    6.6800   -0.2200   21.2470 N   0  0  0  0  0  0  0  0  0  0  0  0
   13.1860   -2.2470   21.5020 C   0  0  0  0  0  0  0  0  0  0  0  0
    1.5840    3.5900   25.0890 C   0  0  0  0  0  0  0  0  0  0  0  0
    1.3410    2.5260   24.5290 C   0  0  0  0  0  0  0  0  0  0  0  0
   -0.1200    2.0250   24.5620 C   0  0  0  0  0  0  0  0  0  0  0  0
   -1.0800    2.7850   25.2130 C   0  0  0  0  0  0  0  0  0  0  0  0
   -0.7570    3.9740   25.8280 C   0  0  0  0  0  0  0  0  0  0  0  0
    0.5800    4.3530   25.7520 C   0  0  0  0  0  0  0  0  0  0  0  0
    6.1510    0.2900   20.1410 C   0  0  0  0  0  0  0  0  0  0  0  0
    6.8260    0.1530   18.9400 C   0  0  0  0  0  0  0  0  0  0  0  0
    6.4230    0.6440   17.7540 N   0  0  0  0  0  0  0  0  0  0  0  0
    5.1960    1.3630   17.7580 C   0  0  0  0  0  0  0  0  0  0  0  0
    4.4070    1.5640   18.8630 C   0  0  0  0  0  0  0  0  0  0  0  0
    4.8020    1.0580   20.0990 C   0  0  0  0  0  0  0  0  0  0  0  0
   10.7000    0.5910   23.8020 C   0  0  0  0  0  0  0  0  0  0  0  0
   12.0850    0.6490   23.8310 C   0  0  0  0  0  0  0  0  0  0  0  0
   12.8330   -0.2470   23.1110 C   0  0  0  0  0  0  0  0  0  0  0  0
   12.2160   -1.3250   22.2620 C   0  0  0  0  0  0  0  0  0  0  0  0
   10.7140   -1.4260   22.1970 C   0  0  0  0  0  0  0  0  0  0  0  0
    9.9900   -0.3710   23.0440 C   0  0  0  0  0  0  0  0  0  0  0  0
  1  2  2  0
  1  3  1  0
  3  4  1  0
  4  5  1  0
  8  9  2  0
  8 10  1  0
  8 11  1  0
  7 12  3  0
  6 13  1  0
  1 14  1  0
 13 14  2  0
 14 15  1  0
 15 16  2  0
 16 17  1  0
 13 18  1  0
 17 18  2  0
 11 19  1  0
 19 20  2  0
 20 21  1  0
 21 22  2  0
 22 23  1  0
  5 24  1  0
 19 24  1  0
 23 24  2  0
 25 26  2  0
 26 27  1  0
 12 28  1  0
 27 28  2  0
 28 29  1  0
 10 30  1  0
 25 30  1  0
 29 30  2  0
M  END
