x0426-x1385-x2694
     RDKit          3D

 55 60  0  0  0  0  0  0  0  0999 V2000
    7.8100    2.1790   22.5830 N   0  0  0  0  0  0  0  0  0  0  0  0
    9.6170    1.0520   21.8050 O   0  0  0  0  0  0  0  0  0  0  0  0
   10.9960    6.8260   24.0390 O   0  0  0  0  0  0  0  0  0  0  0  0
    7.5750    0.0220   21.1460 C   0  0  1  0  0  0  0  0  0  0  0  0
    8.4050    1.1240   21.9010 C   0  0  0  0  0  0  0  0  0  0  0  0
   10.2080    1.9000   24.1110 C   0  0  0  0  0  0  0  0  0  0  0  0
   11.8630    6.6270   24.8940 C   0  0  0  0  0  0  0  0  0  0  0  0
   12.3570   -1.2070   23.1680 C   0  0  0  0  0  0  0  0  0  0  0  0
   12.6250    0.2760   23.3750 C   0  0  0  0  0  0  0  0  0  0  0  0
   13.0330   -1.6860   21.8780 C   0  0  0  0  0  0  0  0  0  0  0  0
   12.9490   -2.0120   24.3480 C   0  0  0  0  0  0  0  0  0  0  0  0
    2.1760    1.6670   23.8340 C   0  0  0  0  0  0  0  0  0  0  0  0
    2.1750    0.4420   23.9230 O   0  0  0  0  0  0  0  0  0  0  0  0
    3.1180    2.2420   23.0830 N   0  0  0  0  0  0  0  0  0  0  0  0
    3.9140    1.4580   22.0790 C   0  0  0  0  0  0  0  0  0  0  0  0
    5.0070    2.0720   21.4900 C   0  0  0  0  0  0  0  0  0  0  0  0
    2.8140    4.1360   25.1210 F   0  0  0  0  0  0  0  0  0  0  0  0
    7.4200   -2.9350   18.8070 C   0  0  0  0  0  0  0  0  0  0  0  0
    5.5090   -4.0420   19.7670 O   0  0  0  0  0  0  0  0  0  0  0  0
    6.4130   -3.1920   19.9410 C   0  0  0  0  0  0  0  0  0  0  0  0
    9.7230   -3.0510   24.3690 C   0  0  0  0  0  0  0  0  0  0  0  0
    6.9310   -5.9130   28.4990 Br  0  0  0  0  0  0  0  0  0  0  0  0
    6.1590    0.5890   17.6480 N   0  0  0  0  0  0  0  0  0  0  0  0
    5.1290    1.4490   17.8760 C   0  0  0  0  0  0  0  0  0  0  0  0
    4.7970    1.8860   19.1370 C   0  0  0  0  0  0  0  0  0  0  0  0
    5.5620    1.4340   20.1960 C   0  0  0  0  0  0  0  0  0  0  0  0
    6.7050    0.5040   19.9800 C   0  0  0  0  0  0  0  0  0  0  0  0
    6.9650    0.1060   18.7390 C   0  0  0  0  0  0  0  0  0  0  0  0
    8.8860   -1.9910   23.7210 N   0  0  0  0  0  0  0  0  0  0  0  0
    9.8820   -1.0170   23.9500 O   0  0  0  0  0  0  0  0  0  0  0  0
   10.8780   -1.4500   23.0190 C   0  0  0  0  0  0  0  0  0  0  0  0
   10.2000   -2.1200   22.0340 C   0  0  0  0  0  0  0  0  0  0  0  0
    8.8850   -2.1780   22.3770 C   0  0  1  0  0  0  0  0  0  0  0  0
    9.7000    3.2670   23.6330 C   0  0  0  0  0  0  0  0  0  0  0  0
   10.4400    4.3940   23.9540 C   0  0  0  0  0  0  0  0  0  0  0  0
   10.2240    5.7550   23.6780 C   0  0  0  0  0  0  0  0  0  0  0  0
    8.9260    6.0100   22.8550 C   0  0  0  0  0  0  0  0  0  0  0  0
    8.0550    4.7690   22.4530 C   0  0  0  0  0  0  0  0  0  0  0  0
    8.5310    3.3930   22.9000 C   0  0  0  0  0  0  0  0  0  0  0  0
    1.5460    3.7110   25.1540 C   0  0  0  0  0  0  0  0  0  0  0  0
    1.1410    2.5080   24.5470 C   0  0  0  0  0  0  0  0  0  0  0  0
   -0.1940    2.0860   24.5990 C   0  0  0  0  0  0  0  0  0  0  0  0
   -1.1620    2.8510   25.2550 C   0  0  0  0  0  0  0  0  0  0  0  0
   -0.8540    4.0520   25.8840 C   0  0  0  0  0  0  0  0  0  0  0  0
    0.6220    4.5180   25.8260 C   0  0  0  0  0  0  0  0  0  0  0  0
    6.5880   -2.4600   21.1550 N   0  0  0  0  0  0  0  0  0  0  0  0
    6.1320   -3.0340   22.4250 C   0  0  0  0  0  0  0  0  0  0  0  0
    7.2250   -3.9500   23.0860 C   0  0  0  0  0  0  0  0  0  0  0  0
    8.5080   -3.6110   22.4550 N   0  0  0  0  0  0  0  0  0  0  0  0
    7.7650   -1.5530   21.3630 C   0  0  1  0  0  0  0  0  0  0  0  0
    9.7800   -5.4370   25.5320 C   0  0  0  0  0  0  0  0  0  0  0  0
    9.2160   -4.0470   25.3440 C   0  0  0  0  0  0  0  0  0  0  0  0
    7.9300   -3.7960   26.4260 S   0  0  0  0  0  0  0  0  0  0  0  0
    8.0780   -5.3310   27.0980 C   0  0  0  0  0  0  0  0  0  0  0  0
    9.0970   -6.1250   26.5460 C   0  0  0  0  0  0  0  0  0  0  0  0
  1  5  1  0
  2  5  2  0
  4  5  1  6
  3  7  1  0
  8  9  1  0
  8 10  1  0
  8 11  1  0
 12 13  2  0
 12 14  1  0
 14 15  1  0
 15 16  1  0
 18 20  1  0
 19 20  2  0
 23 24  2  0
 24 25  1  0
 16 26  1  0
 25 26  2  0
  4 27  1  0
 26 27  1  0
 23 28  1  0
 27 28  2  0
 21 29  1  0
 29 30  1  0
  8 31  1  0
 30 31  1  0
 31 32  2  0
 29 33  1  0
 33 32  1  6
  6 34  1  0
 34 35  2  0
  3 36  1  0
 35 36  1  0
 36 37  2  0
 37 38  1  0
  1 39  1  0
 34 39  1  0
 38 39  2  0
 17 40  1  0
 12 41  1  0
 40 41  2  0
 41 42  1  0
 42 43  2  0
 43 44  1  0
 40 45  1  0
 44 45  2  0
 20 46  1  0
 46 47  1  0
 47 48  1  0
 33 49  1  0
 48 49  1  0
  4 50  1  0
 33 50  1  0
 50 46  1  1
 21 52  1  0
 51 52  2  0
 52 53  1  0
 22 54  1  0
 53 54  1  0
 51 55  1  0
 54 55  2  0
M  END
