x0426-x3113-x3110-x0734
     RDKit          3D

 58 62  0  0  0  0  0  0  0  0999 V2000
    8.0260    1.0890   23.1780 N   0  0  0  0  0  0  0  0  0  0  0  0
   13.4590    5.0130   22.5070 C   0  0  0  0  0  0  0  0  0  0  0  0
   12.0080    3.3010   22.4840 O   0  0  0  0  0  0  0  0  0  0  0  0
   12.2380    4.4070   21.9540 C   0  0  0  0  0  0  0  0  0  0  0  0
    7.0720   -1.6660   21.5940 N   0  0  0  0  0  0  0  0  0  0  0  0
   10.8310    4.2760   24.1560 O   0  0  0  0  0  0  0  0  0  0  0  0
   11.0390    3.3180   23.4310 C   0  0  0  0  0  0  0  0  0  0  0  0
    8.4890    1.3960   20.9670 O   0  0  0  0  0  0  0  0  0  0  0  0
   10.2510    2.0520   23.4920 C   0  0  0  0  0  0  0  0  0  0  0  0
    5.0040   -3.1360   20.8770 O   0  0  0  0  0  0  0  0  0  0  0  0
    8.7740    2.1880   23.6070 C   0  0  0  0  0  0  0  0  0  0  0  0
    7.8000    0.8090   21.8240 C   0  0  0  0  0  0  0  0  0  0  0  0
    6.6590   -0.2130   21.5020 C   0  0  1  0  0  0  0  0  0  0  0  0
    6.3000   -2.9320   21.2450 C   0  0  0  0  0  0  0  0  0  0  0  0
    8.2510   -4.5430   20.9940 C   0  0  0  0  0  0  0  0  0  0  0  0
   12.1660   -1.9710   24.3680 C   0  0  0  0  0  0  0  0  0  0  0  0
   12.4490   -0.6620   25.0010 C   0  0  0  0  0  0  0  0  0  0  0  0
   13.2360   -1.8340   23.3410 C   0  0  0  0  0  0  0  0  0  0  0  0
   12.0020   -3.2070   25.1470 C   0  0  0  0  0  0  0  0  0  0  0  0
    2.3210    1.7600   23.7830 C   0  0  0  0  0  0  0  0  0  0  0  0
    2.2150    0.5290   23.7770 O   0  0  0  0  0  0  0  0  0  0  0  0
    3.3610    2.4560   23.1670 N   0  0  0  0  0  0  0  0  0  0  0  0
    4.2600    1.9430   22.2830 C   0  0  0  0  0  0  0  0  0  0  0  0
    3.7890    1.1440   21.2580 C   0  0  0  0  0  0  0  0  0  0  0  0
    2.8290    4.2320   25.1580 F   0  0  0  0  0  0  0  0  0  0  0  0
    5.1960   -5.0380   26.5740 N   0  0  0  0  0  0  0  0  0  0  0  0
    4.5120   -5.7860   25.8490 O   0  0  0  0  0  0  0  0  0  0  0  0
    4.8240   -3.9140   26.9500 O   0  0  0  0  0  0  0  0  0  0  0  0
    6.4560    0.6790   17.7720 N   0  0  0  0  0  0  0  0  0  0  0  0
    5.1550    1.3510   17.7140 C   0  0  0  0  0  0  0  0  0  0  0  0
    4.3930    1.4480   18.8430 C   0  0  0  0  0  0  0  0  0  0  0  0
    4.8010    0.9390   20.1300 C   0  0  0  0  0  0  0  0  0  0  0  0
    6.0460    0.3160   20.2660 C   0  0  0  0  0  0  0  0  0  0  0  0
    6.7940    0.2050   19.1040 C   0  0  0  0  0  0  0  0  0  0  0  0
    9.4600   -2.0130   21.7160 C   0  0  0  0  0  0  0  0  0  0  0  0
   10.6760   -2.0950   22.2880 C   0  0  0  0  0  0  0  0  0  0  0  0
   10.8120   -1.8870   23.6370 C   0  0  0  0  0  0  0  0  0  0  0  0
    9.6600   -1.5960   24.3360 C   0  0  0  0  0  0  0  0  0  0  0  0
    8.3750   -1.5000   23.7770 C   0  0  0  0  0  0  0  0  0  0  0  0
    8.2950   -1.7240   22.4050 C   0  0  0  0  0  0  0  0  0  0  0  0
    1.5860    3.7320   25.1420 C   0  0  0  0  0  0  0  0  0  0  0  0
    1.2680    2.5390   24.4960 C   0  0  0  0  0  0  0  0  0  0  0  0
   -0.0370    2.0650   24.5170 C   0  0  0  0  0  0  0  0  0  0  0  0
   -1.0000    2.7540   25.1580 C   0  0  0  0  0  0  0  0  0  0  0  0
   -0.7050    3.9410   25.8060 C   0  0  0  0  0  0  0  0  0  0  0  0
    0.5690    4.4560   25.8180 C   0  0  0  0  0  0  0  0  0  0  0  0
    6.5800   -5.2320   26.4970 C   0  0  0  0  0  0  0  0  0  0  0  0
    7.2190   -5.0860   25.2850 C   0  0  0  0  0  0  0  0  0  0  0  0
    8.5670   -5.2750   25.2330 C   0  0  0  0  0  0  0  0  0  0  0  0
    9.3030   -5.6100   26.3490 C   0  0  0  0  0  0  0  0  0  0  0  0
    8.6770   -5.7640   27.5710 C   0  0  0  0  0  0  0  0  0  0  0  0
    7.2910   -5.5740   27.6600 C   0  0  0  0  0  0  0  0  0  0  0  0
    7.2040   -4.1590   21.5130 C   0  0  0  0  0  0  0  0  0  0  0  0
    6.2880   -5.3800   21.8320 C   0  0  0  0  0  0  0  0  0  0  0  0
    6.2720   -5.8110   23.1640 C   0  0  0  0  0  0  0  0  0  0  0  0
    6.4670   -4.7460   24.1720 N   0  0  0  0  0  0  0  0  0  0  0  0
    6.9580   -3.4480   23.7230 C   0  0  0  0  0  0  0  0  0  0  0  0
    7.9010   -3.8350   22.8200 C   0  0  0  0  0  0  0  0  0  0  0  0
  2  4  1  0
  3  4  1  0
  3  7  1  0
  6  7  2  0
  7  9  1  0
  1 11  1  0
  9 11  1  0
  1 12  1  0
  8 12  2  0
  5 13  1  0
 13 12  1  6
  5 14  1  0
 10 14  2  0
 16 17  1  0
 16 18  1  0
 16 19  1  0
 20 21  2  0
 20 22  1  0
 22 23  1  0
 23 24  1  0
 26 27  2  0
 26 28  1  0
 29 30  2  0
 30 31  1  0
 24 32  1  0
 31 32  2  0
 13 33  1  0
 32 33  1  0
 29 34  1  0
 33 34  2  0
 35 36  2  0
 16 37  1  0
 36 37  1  0
 37 38  2  0
 38 39  1  0
  5 40  1  0
 35 40  1  0
 39 40  2  0
 25 41  1  0
 20 42  1  0
 41 42  2  0
 42 43  1  0
 43 44  2  0
 44 45  1  0
 41 46  1  0
 45 46  2  0
 26 47  1  0
 47 48  2  0
 48 49  1  0
 49 50  2  0
 50 51  1  0
 47 52  1  0
 51 52  2  0
 53 14  1  0
 15 53  1  0
 53 54  1  0
 54 55  1  0
 48 56  1  0
 55 56  1  0
 56 57  1  0
 53 58  1  0
 57 58  1  0
M  CHG  2  26   1  28  -1
M  END
