x0426-x0771
     RDKit          3D

 40 43  0  0  0  0  0  0  0  0999 V2000
    0.8640   -1.3360   26.7900 C   0  0  0  0  0  0  0  0  0  0  0  0
    4.2750   -6.9490   25.7030 O   0  0  0  0  0  0  0  0  0  0  0  0
    6.1760   -5.3730   27.1020 O   0  0  0  0  0  0  0  0  0  0  0  0
    5.5480   -4.3950   19.9040 O   0  0  0  0  0  0  0  0  0  0  0  0
    2.0000   -6.2570   25.7970 C   0  0  0  0  0  0  0  0  0  0  0  0
    6.5540   -4.4100   20.6390 C   0  0  0  0  0  0  0  0  0  0  0  0
    7.7880   -3.5770   20.3250 C   0  0  0  0  0  0  0  0  0  0  0  0
    4.9200   -5.6580   25.8080 S   0  0  0  0  0  0  0  0  0  0  0  0
    2.3430    1.9690   23.9080 C   0  0  0  0  0  0  0  0  0  0  0  0
    2.5600    0.5400   23.9060 N   0  0  0  0  0  0  0  0  0  0  0  0
    3.3960    2.6610   23.1590 N   0  0  0  0  0  0  0  0  0  0  0  0
    4.2930    1.8120   22.3610 C   0  0  0  0  0  0  0  0  0  0  0  0
    3.6680    1.3700   21.1060 C   0  0  0  0  0  0  0  0  0  0  0  0
    2.7410    4.5360   25.3870 F   0  0  0  0  0  0  0  0  0  0  0  0
    1.2440   -0.0670   26.0790 C   0  0  0  0  0  0  0  0  0  0  0  0
    1.5550   -0.2280   24.6020 C   0  0  0  0  0  0  0  0  0  0  0  0
    1.8620   -2.4710   26.5300 C   0  0  0  0  0  0  0  0  0  0  0  0
    1.4690   -3.7930   26.3020 C   0  0  0  0  0  0  0  0  0  0  0  0
    2.3880   -4.8140   26.0620 C   0  0  0  0  0  0  0  0  0  0  0  0
    3.7420   -4.4930   26.0640 C   0  0  0  0  0  0  0  0  0  0  0  0
    4.1820   -3.1870   26.2900 C   0  0  0  0  0  0  0  0  0  0  0  0
    3.2410   -2.1650   26.5230 C   0  0  0  0  0  0  0  0  0  0  0  0
    6.6520   -5.1900   21.7890 N   0  0  0  0  0  0  0  0  0  0  0  0
    5.8000   -6.1570   22.1250 C   0  0  0  0  0  0  0  0  0  0  0  0
    4.9390   -5.8390   23.1740 C   0  0  0  0  0  0  0  0  0  0  0  0
    5.6260   -5.4460   24.2590 N   0  0  0  0  0  0  0  0  0  0  0  0
    6.2730   -4.2590   23.9930 C   0  0  0  0  0  0  0  0  0  0  0  0
    7.1760   -4.5170   22.9720 C   0  0  0  0  0  0  0  0  0  0  0  0
    1.5020    4.0300   25.3250 C   0  0  0  0  0  0  0  0  0  0  0  0
    1.2150    2.7040   24.5720 C   0  0  0  0  0  0  0  0  0  0  0  0
   -0.2420    2.1450   24.5190 C   0  0  0  0  0  0  0  0  0  0  0  0
   -1.3410    2.9480   25.2320 C   0  0  0  0  0  0  0  0  0  0  0  0
   -0.9560    4.2150   25.9320 C   0  0  0  0  0  0  0  0  0  0  0  0
    0.4650    4.7320   25.9630 C   0  0  0  0  0  0  0  0  0  0  0  0
    5.8080    0.0190   20.2120 C   0  0  0  0  0  0  0  0  0  0  0  0
    6.6570   -0.1960   19.1350 C   0  0  0  0  0  0  0  0  0  0  0  0
    6.5830    0.3980   17.9330 N   0  0  0  0  0  0  0  0  0  0  0  0
    5.5790    1.2790   17.7980 C   0  0  0  0  0  0  0  0  0  0  0  0
    4.6390    1.6210   18.7590 C   0  0  0  0  0  0  0  0  0  0  0  0
    4.6700    1.0310   20.0290 C   0  0  0  0  0  0  0  0  0  0  0  0
  4  6  2  0
  6  7  1  0
  2  8  2  0
  3  8  2  0
  9 10  2  3
  9 11  1  0
 11 12  1  0
 12 13  1  0
  1 15  1  0
 10 16  1  0
 15 16  1  0
  1 17  1  0
 17 18  2  0
  5 19  1  0
 18 19  1  0
  8 20  1  0
 19 20  2  0
 20 21  1  0
 17 22  1  0
 21 22  2  0
  6 23  1  0
 23 24  1  0
 24 25  1  0
  8 26  1  0
 25 26  1  0
 26 27  1  0
 23 28  1  0
 27 28  1  0
 14 29  1  0
  9 30  1  0
 29 30  2  0
 30 31  1  0
 31 32  2  0
 32 33  1  0
 29 34  1  0
 33 34  2  0
 35 36  2  0
 36 37  1  0
 37 38  2  0
 38 39  1  0
 13 40  1  0
 35 40  1  0
 39 40  2  0
M  END
