x0426-x1402
     RDKit          3D

 37 40  0  0  0  0  0  0  0  0999 V2000
    7.8310   -3.7460   20.4230 C   0  0  0  0  0  0  0  0  0  0  0  0
    5.5940   -4.6030   19.9710 O   0  0  0  0  0  0  0  0  0  0  0  0
    1.3230   -1.0910   26.1980 C   0  0  0  0  0  0  0  0  0  0  0  0
    6.6020   -4.6240   20.7030 C   0  0  0  0  0  0  0  0  0  0  0  0
    4.0330   -6.7620   26.1430 O   0  0  0  0  0  0  0  0  0  0  0  0
    6.3770   -5.2430   26.8360 O   0  0  0  0  0  0  0  0  0  0  0  0
    5.1550   -5.3470   25.8150 S   0  0  0  0  0  0  0  0  0  0  0  0
    2.2110    1.7330   24.0700 C   0  0  0  0  0  0  0  0  0  0  0  0
    2.1910    0.2660   24.2660 N   0  0  0  0  0  0  0  0  0  0  0  0
    3.3570    2.3480   23.3260 N   0  0  0  0  0  0  0  0  0  0  0  0
    4.1210    1.5150   22.4930 C   0  0  0  0  0  0  0  0  0  0  0  0
    3.5430    1.3790   21.1580 C   0  0  0  0  0  0  0  0  0  0  0  0
    2.8400    4.0790   25.2450 F   0  0  0  0  0  0  0  0  0  0  0  0
    1.0370   -0.2380   24.9830 C   0  0  0  0  0  0  0  0  0  0  0  0
    6.6760   -5.4720   21.8240 N   0  0  0  0  0  0  0  0  0  0  0  0
    7.6160   -5.1890   22.7660 C   0  0  0  0  0  0  0  0  0  0  0  0
    6.8030   -4.6130   23.9450 C   0  0  0  0  0  0  0  0  0  0  0  0
    5.7820   -5.4950   24.2190 N   0  0  0  0  0  0  0  0  0  0  0  0
    4.7890   -5.5800   23.1340 C   0  0  0  0  0  0  0  0  0  0  0  0
    5.6050   -6.3380   22.2940 C   0  0  0  0  0  0  0  0  0  0  0  0
    2.4910   -3.7590   26.1860 S   0  0  0  0  0  0  0  0  0  0  0  0
    4.1860   -3.8630   25.9230 C   0  0  0  0  0  0  0  0  0  0  0  0
    4.7260   -2.6070   25.7910 C   0  0  0  0  0  0  0  0  0  0  0  0
    3.8370   -1.5780   25.8730 C   0  0  0  0  0  0  0  0  0  0  0  0
    2.5280   -2.0190   26.0810 C   0  0  0  0  0  0  0  0  0  0  0  0
    1.5420    3.7560   25.2160 C   0  0  0  0  0  0  0  0  0  0  0  0
    1.0790    2.5640   24.6280 C   0  0  0  0  0  0  0  0  0  0  0  0
   -0.2730    2.2030   24.5820 C   0  0  0  0  0  0  0  0  0  0  0  0
   -1.2540    3.0200   25.1340 C   0  0  0  0  0  0  0  0  0  0  0  0
   -0.8740    4.2130   25.7370 C   0  0  0  0  0  0  0  0  0  0  0  0
    0.5990    4.6210   25.7900 C   0  0  0  0  0  0  0  0  0  0  0  0
    5.5870    0.0600   20.3150 C   0  0  0  0  0  0  0  0  0  0  0  0
    6.5650   -0.2180   19.1690 C   0  0  0  0  0  0  0  0  0  0  0  0
    6.5330    0.3820   17.9690 N   0  0  0  0  0  0  0  0  0  0  0  0
    5.5610    1.3010   17.7760 C   0  0  0  0  0  0  0  0  0  0  0  0
    4.5250    1.6700   18.8350 C   0  0  0  0  0  0  0  0  0  0  0  0
    4.5880    1.0220   20.0710 C   0  0  0  0  0  0  0  0  0  0  0  0
  1  4  1  0
  2  4  2  0
  5  7  2  0
  6  7  2  0
  8  9  2  3
  8 10  1  0
 10 11  1  0
 11 12  1  0
  3 14  1  0
  9 14  1  0
  4 15  1  0
 15 16  1  0
 16 17  1  0
  7 18  1  0
 17 18  1  0
 18 19  1  0
 15 20  1  0
 19 20  1  0
  7 22  1  0
 21 22  1  0
 22 23  2  0
 23 24  1  0
  3 25  1  0
 21 25  1  0
 24 25  2  0
 13 26  1  0
  8 27  1  0
 26 27  2  0
 27 28  1  0
 28 29  2  0
 29 30  1  0
 26 31  1  0
 30 31  2  0
 32 33  2  0
 33 34  1  0
 34 35  2  0
 35 36  1  0
 12 37  1  0
 32 37  1  0
 36 37  2  0
M  END
