x0426-x0820-x2694
     RDKit          3D

 56 61  0  0  0  0  0  0  0  0999 V2000
    7.4610   -1.6400   22.2570 N   0  0  0  0  0  0  0  0  0  0  0  0
    7.6080    2.0440   22.7920 N   0  0  0  0  0  0  0  0  0  0  0  0
    9.0310    0.6470   21.6060 O   0  0  0  0  0  0  0  0  0  0  0  0
   10.9050    6.5670   23.7870 O   0  0  0  0  0  0  0  0  0  0  0  0
    6.7730   -0.2980   21.9510 C   0  0  1  0  0  0  0  0  0  0  0  0
    7.9210    0.8420   22.1120 C   0  0  0  0  0  0  0  0  0  0  0  0
   10.3070    1.7610   23.9920 C   0  0  0  0  0  0  0  0  0  0  0  0
   11.8470    6.4090   24.8500 C   0  0  0  0  0  0  0  0  0  0  0  0
   12.5480   -1.5080   23.0580 C   0  0  0  0  0  0  0  0  0  0  0  0
   13.0880   -0.2420   23.2410 C   0  0  0  0  0  0  0  0  0  0  0  0
   13.0870   -2.0290   21.7230 C   0  0  0  0  0  0  0  0  0  0  0  0
   13.0940   -2.3780   24.2340 C   0  0  0  0  0  0  0  0  0  0  0  0
    5.9540   -3.1940   21.5170 N   0  0  0  0  0  0  0  0  0  0  0  0
    5.5650   -4.9780   20.0310 O   0  0  0  0  0  0  0  0  0  0  0  0
    6.9340   -3.0620   22.4490 C   0  0  2  0  0  0  0  0  0  0  0  0
    6.1030   -3.8940   20.2810 C   0  0  0  0  0  0  0  0  0  0  0  0
    6.9650   -3.1910   19.2270 C   0  0  0  0  0  0  0  0  0  0  0  0
    2.2620    1.7910   23.8540 C   0  0  0  0  0  0  0  0  0  0  0  0
    2.1550    0.5660   23.7470 O   0  0  0  0  0  0  0  0  0  0  0  0
    3.3120    2.4800   23.3650 N   0  0  0  0  0  0  0  0  0  0  0  0
    4.2420    1.9380   22.6080 C   0  0  0  0  0  0  0  0  0  0  0  0
    3.7420    1.1990   21.3500 C   0  0  0  0  0  0  0  0  0  0  0  0
    2.7810    4.3750   25.2720 F   0  0  0  0  0  0  0  0  0  0  0  0
    6.5980    0.2330   18.1160 N   0  0  0  0  0  0  0  0  0  0  0  0
    5.3970    0.8620   17.9000 C   0  0  0  0  0  0  0  0  0  0  0  0
    4.3930    1.2070   18.9690 C   0  0  0  0  0  0  0  0  0  0  0  0
    4.8360    0.7960   20.3830 C   0  0  0  0  0  0  0  0  0  0  0  0
    6.2150    0.1070   20.5370 C   0  0  0  0  0  0  0  0  0  0  0  0
    6.9540   -0.1120   19.3800 C   0  0  0  0  0  0  0  0  0  0  0  0
    9.0260   -0.8490   23.8910 N   0  0  0  0  0  0  0  0  0  0  0  0
   10.4070   -0.7910   24.1460 O   0  0  0  0  0  0  0  0  0  0  0  0
   11.0920   -1.4140   23.1000 C   0  0  0  0  0  0  0  0  0  0  0  0
   10.0870   -1.8830   22.1560 C   0  0  0  0  0  0  0  0  0  0  0  0
    8.7840   -1.4750   22.7350 C   0  0  0  0  0  0  0  0  0  0  0  0
    9.7240    3.0890   23.5990 C   0  0  0  0  0  0  0  0  0  0  0  0
   10.5140    4.2320   23.8260 C   0  0  0  0  0  0  0  0  0  0  0  0
   10.0540    5.5080   23.5050 C   0  0  0  0  0  0  0  0  0  0  0  0
    8.7830    5.6420   22.9310 C   0  0  0  0  0  0  0  0  0  0  0  0
    7.9840    4.5020   22.6930 C   0  0  0  0  0  0  0  0  0  0  0  0
    8.4430    3.2090   23.0290 C   0  0  0  0  0  0  0  0  0  0  0  0
    6.3040   -3.6570   23.6530 C   0  0  0  0  0  0  0  0  0  0  0  0
    7.0510   -3.9350   24.9310 C   0  0  0  0  0  0  0  0  0  0  0  0
    6.3030   -4.5290   26.0270 C   0  0  0  0  0  0  0  0  0  0  0  0
    4.9500   -4.8260   25.8600 C   0  0  0  0  0  0  0  0  0  0  0  0
    4.2960   -4.5740   24.6700 C   0  0  0  0  0  0  0  0  0  0  0  0
    4.9710   -4.0010   23.6030 C   0  0  0  0  0  0  0  0  0  0  0  0
    6.8680   -4.8380   27.2750 C   0  0  0  0  0  0  0  0  0  0  0  0
    8.3290   -4.5620   27.5120 C   0  0  0  0  0  0  0  0  0  0  0  0
    9.0200   -4.0030   26.4470 C   0  0  0  0  0  0  0  0  0  0  0  0
    8.4430   -3.6830   25.1970 C   0  0  0  0  0  0  0  0  0  0  0  0
    1.5370    3.8770   25.2580 C   0  0  0  0  0  0  0  0  0  0  0  0
    1.2030    2.5670   24.5550 C   0  0  0  0  0  0  0  0  0  0  0  0
   -0.1140    2.0330   24.5370 C   0  0  0  0  0  0  0  0  0  0  0  0
   -1.2230    2.8250   25.2620 C   0  0  0  0  0  0  0  0  0  0  0  0
   -0.8450    3.9850   25.8670 C   0  0  0  0  0  0  0  0  0  0  0  0
    0.5430    4.5840   25.9070 C   0  0  0  0  0  0  0  0  0  0  0  0
  1  5  1  0
  2  6  1  0
  3  6  2  0
  5  6  1  6
  4  8  1  0
  9 10  1  0
  9 11  1  0
  9 12  1  0
  1 15  1  0
 15 13  1  6
 13 16  1  0
 14 16  2  0
 16 17  1  0
 18 19  2  0
 18 20  1  0
 20 21  1  0
 21 22  1  0
 24 25  2  0
 25 26  1  0
 22 27  1  0
 26 27  2  0
  5 28  1  0
 27 28  1  0
 24 29  1  0
 28 29  2  0
 30 31  1  0
  9 32  1  0
 31 32  1  0
 32 33  2  0
  1 34  1  0
 30 34  2  0
 33 34  1  0
  7 35  1  0
 35 36  2  0
  4 37  1  0
 36 37  1  0
 37 38  2  0
 38 39  1  0
  2 40  1  0
 35 40  1  0
 39 40  2  0
 15 41  1  0
 41 42  2  0
 42 43  1  0
 43 44  2  0
 44 45  1  0
 41 46  1  0
 45 46  2  0
 43 47  1  0
 47 48  2  0
 48 49  1  0
 42 50  1  0
 49 50  2  0
 23 51  1  0
 18 52  1  0
 51 52  2  0
 52 53  1  0
 53 54  2  0
 54 55  1  0
 51 56  1  0
 55 56  2  0
M  END
