x0426-x3110-x0755
     RDKit          3D

 63 68  0  0  0  0  0  0  0  0999 V2000
    8.1310    1.0140   23.1700 N   0  0  0  0  0  0  0  0  0  0  0  0
   13.4230    4.9330   22.7480 C   0  0  0  0  0  0  0  0  0  0  0  0
   11.9800    3.2320   22.4210 O   0  0  0  0  0  0  0  0  0  0  0  0
   12.3320    4.4830   22.0050 C   0  0  0  0  0  0  0  0  0  0  0  0
    6.8490   -1.6070   21.8450 C   0  0  2  0  0  0  0  0  0  0  0  0
   10.8640    4.2110   24.1350 O   0  0  0  0  0  0  0  0  0  0  0  0
   11.0410    3.2410   23.4150 C   0  0  0  0  0  0  0  0  0  0  0  0
    8.2790    1.4110   20.7190 O   0  0  0  0  0  0  0  0  0  0  0  0
   10.2720    2.0680   23.5700 C   0  0  0  0  0  0  0  0  0  0  0  0
    4.8420   -2.9430   20.7310 O   0  0  0  0  0  0  0  0  0  0  0  0
    8.8960    2.2710   23.3240 C   0  0  0  0  0  0  0  0  0  0  0  0
    7.6690    0.7030   21.8030 C   0  0  0  0  0  0  0  0  0  0  0  0
    6.6160   -0.2420   21.5330 C   0  0  1  0  0  0  0  0  0  0  0  0
    6.0760   -2.8070   21.1040 C   0  0  0  0  0  0  0  0  0  0  0  0
    6.8210   -4.0610   20.9890 C   0  0  1  0  0  0  0  0  0  0  0  0
    8.3040   -3.9290   20.6810 C   0  0  0  0  0  0  0  0  0  0  0  0
   12.3310   -1.8540   24.2410 C   0  0  0  0  0  0  0  0  0  0  0  0
   12.4920   -0.6510   24.9070 C   0  0  0  0  0  0  0  0  0  0  0  0
   13.3830   -1.8780   23.1300 C   0  0  0  0  0  0  0  0  0  0  0  0
   12.5570   -2.9530   24.9600 C   0  0  0  0  0  0  0  0  0  0  0  0
    2.3730    1.8030   23.6640 C   0  0  0  0  0  0  0  0  0  0  0  0
    2.3460    0.5660   23.6150 O   0  0  0  0  0  0  0  0  0  0  0  0
    3.4290    2.5810   22.9690 N   0  0  0  0  0  0  0  0  0  0  0  0
    4.4720    1.7680   22.3250 C   0  0  0  0  0  0  0  0  0  0  0  0
    3.9080    1.1610   21.1910 C   0  0  0  0  0  0  0  0  0  0  0  0
    2.8300    4.4030   25.2260 F   0  0  0  0  0  0  0  0  0  0  0  0
    4.8550   -6.7970   26.4980 O   0  0  0  0  0  0  0  0  0  0  0  0
    6.0740   -4.6210   27.0300 O   0  0  0  0  0  0  0  0  0  0  0  0
    2.0620   -5.4090   26.1870 F   0  0  0  0  0  0  0  0  0  0  0  0
    5.6300   -2.1820   26.0410 F   0  0  0  0  0  0  0  0  0  0  0  0
    5.0360   -5.2390   26.2380 S   0  0  0  0  0  0  0  0  0  0  0  0
    5.8050   -2.1350   22.7990 C   0  0  0  0  0  0  0  0  0  0  0  0
    6.0400   -3.4530   23.2850 C   0  0  0  0  0  0  0  0  0  0  0  0
    6.4440    0.6070   17.8010 N   0  0  0  0  0  0  0  0  0  0  0  0
    5.2550    1.2370   17.7930 C   0  0  0  0  0  0  0  0  0  0  0  0
    4.4270    1.4180   18.9040 C   0  0  0  0  0  0  0  0  0  0  0  0
    4.8420    0.9280   20.1460 C   0  0  0  0  0  0  0  0  0  0  0  0
    6.0820    0.2820   20.2230 C   0  0  0  0  0  0  0  0  0  0  0  0
    6.8260    0.1380   19.0590 C   0  0  0  0  0  0  0  0  0  0  0  0
    9.4310   -1.4600   21.7260 C   0  0  0  0  0  0  0  0  0  0  0  0
   10.7360   -1.5170   22.2820 C   0  0  0  0  0  0  0  0  0  0  0  0
   10.9170   -1.8230   23.6280 C   0  0  0  0  0  0  0  0  0  0  0  0
    9.7930   -2.0840   24.4050 C   0  0  0  0  0  0  0  0  0  0  0  0
    8.5080   -2.0300   23.8500 C   0  0  0  0  0  0  0  0  0  0  0  0
    8.3010   -1.7120   22.4950 C   0  0  0  0  0  0  0  0  0  0  0  0
    1.6090    3.8420   25.1920 C   0  0  0  0  0  0  0  0  0  0  0  0
    1.3300    2.5440   24.4280 C   0  0  0  0  0  0  0  0  0  0  0  0
   -0.1160    1.9850   24.4590 C   0  0  0  0  0  0  0  0  0  0  0  0
   -1.1700    2.7510   25.2400 C   0  0  0  0  0  0  0  0  0  0  0  0
   -0.7690    4.0480   25.9680 C   0  0  0  0  0  0  0  0  0  0  0  0
    0.4350    4.5550   25.9700 C   0  0  0  0  0  0  0  0  0  0  0  0
    2.5430   -4.1610   26.1160 C   0  0  0  0  0  0  0  0  0  0  0  0
    3.8850   -3.9020   26.1200 C   0  0  0  0  0  0  0  0  0  0  0  0
    4.3330   -2.4980   26.0350 C   0  0  0  0  0  0  0  0  0  0  0  0
    3.3400   -1.3590   25.9430 C   0  0  0  0  0  0  0  0  0  0  0  0
    2.0150   -1.7380   25.9500 C   0  0  0  0  0  0  0  0  0  0  0  0
    1.5290   -3.0070   26.0280 C   0  0  0  0  0  0  0  0  0  0  0  0
    6.4940   -4.6370   22.3480 C   0  0  0  0  0  0  0  0  0  0  0  0
    7.5140   -5.2190   23.0050 C   0  0  0  0  0  0  0  0  0  0  0  0
    7.1900   -5.2020   24.4970 C   0  0  0  0  0  0  0  0  0  0  0  0
    5.7070   -5.2950   24.6680 N   0  0  0  0  0  0  0  0  0  0  0  0
    4.9360   -6.0810   23.6690 C   0  0  0  0  0  0  0  0  0  0  0  0
    5.3910   -5.7170   22.2710 C   0  0  0  0  0  0  0  0  0  0  0  0
  2  4  1  0
  3  4  1  0
  3  7  1  0
  6  7  2  0
  7  9  1  0
  1 11  1  0
  9 11  1  0
  1 12  1  0
  8 12  2  0
  5 13  1  0
 13 12  1  6
  5 14  1  0
 10 14  2  0
 14 15  1  0
 15 16  1  1
 17 18  1  0
 17 19  1  0
 17 20  1  0
 21 22  2  0
 21 23  1  0
 23 24  1  0
 24 25  1  0
 27 31  2  0
 28 31  2  0
  5 32  1  0
 32 33  1  0
 34 35  2  0
 35 36  1  0
 25 37  1  0
 36 37  2  0
 13 38  1  0
 37 38  1  0
 34 39  1  0
 38 39  2  0
 40 41  2  0
 17 42  1  0
 41 42  1  0
 42 43  2  0
 43 44  1  0
  5 45  1  1
 40 45  1  0
 44 45  2  0
 26 46  1  0
 21 47  1  0
 46 47  2  0
 47 48  1  0
 48 49  2  0
 49 50  1  0
 46 51  1  0
 50 51  2  0
 29 52  1  0
 31 53  1  0
 52 53  2  0
 30 54  1  0
 53 54  1  0
 54 55  2  0
 55 56  1  0
 52 57  1  0
 56 57  2  0
 15 58  1  0
 58 33  1  0
 58 59  1  0
 59 60  1  0
 31 61  1  0
 60 61  1  0
 61 62  1  0
 58 63  1  0
 62 63  1  0
M  END
