x0426-x2694
     RDKit          3D

 45 48  0  0  0  0  0  0  0  0999 V2000
    6.9470   -1.2660   21.7230 N   0  0  0  0  0  0  0  0  0  0  0  0
    6.6820   -4.0870   20.1360 C   0  0  0  0  0  0  0  0  0  0  0  0
    4.9830   -3.2340   21.2390 O   0  0  0  0  0  0  0  0  0  0  0  0
    6.8840   -3.2510   21.4020 C   0  0  0  0  0  0  0  0  0  0  0  0
    7.6350    2.2090   22.8180 N   0  0  0  0  0  0  0  0  0  0  0  0
    8.8590    1.2780   21.1480 O   0  0  0  0  0  0  0  0  0  0  0  0
    5.7910   -2.1970   21.4720 C   0  0  0  0  0  0  0  0  0  0  0  0
   10.8610    6.8830   23.8340 O   0  0  0  0  0  0  0  0  0  0  0  0
    6.6730    0.2220   21.5290 C   0  0  1  0  0  0  0  0  0  0  0  0
    7.8180    1.2430   21.8130 C   0  0  0  0  0  0  0  0  0  0  0  0
   10.3360    1.7360   24.0070 C   0  0  0  0  0  0  0  0  0  0  0  0
   11.8630    6.8190   24.7700 C   0  0  0  0  0  0  0  0  0  0  0  0
   12.1900   -1.5190   23.2570 C   0  0  0  0  0  0  0  0  0  0  0  0
   12.6850   -0.0680   23.4420 C   0  0  0  0  0  0  0  0  0  0  0  0
   12.7660   -2.0300   21.8960 C   0  0  0  0  0  0  0  0  0  0  0  0
   12.8400   -2.4180   24.3260 C   0  0  0  0  0  0  0  0  0  0  0  0
    2.3910    1.7190   23.7840 C   0  0  0  0  0  0  0  0  0  0  0  0
    2.2440    0.4960   23.7570 O   0  0  0  0  0  0  0  0  0  0  0  0
    3.4660    2.3280   23.2070 N   0  0  0  0  0  0  0  0  0  0  0  0
    4.3780    1.7030   22.4010 C   0  0  0  0  0  0  0  0  0  0  0  0
    4.0380    1.7470   21.0450 C   0  0  0  0  0  0  0  0  0  0  0  0
    2.8470    4.2870   25.1880 F   0  0  0  0  0  0  0  0  0  0  0  0
    6.3430    0.5440   17.7930 N   0  0  0  0  0  0  0  0  0  0  0  0
    5.1180    1.2950   17.7610 C   0  0  0  0  0  0  0  0  0  0  0  0
    4.4210    1.6440   18.8740 C   0  0  0  0  0  0  0  0  0  0  0  0
    4.9310    1.2710   20.0760 C   0  0  0  0  0  0  0  0  0  0  0  0
    6.1430    0.5500   20.1430 C   0  0  0  0  0  0  0  0  0  0  0  0
    6.9350    0.1100   19.0730 C   0  0  0  0  0  0  0  0  0  0  0  0
    8.4650   -1.8900   23.9200 N   0  0  0  0  0  0  0  0  0  0  0  0
    9.8240   -1.9490   24.3160 O   0  0  0  0  0  0  0  0  0  0  0  0
   10.6240   -1.6130   23.2960 C   0  0  0  0  0  0  0  0  0  0  0  0
    9.7380   -1.3070   22.1160 C   0  0  0  0  0  0  0  0  0  0  0  0
    8.2420   -1.4720   22.4840 C   0  0  0  0  0  0  0  0  0  0  0  0
    9.7550    3.1220   23.6410 C   0  0  0  0  0  0  0  0  0  0  0  0
   10.6460    4.3120   23.9200 C   0  0  0  0  0  0  0  0  0  0  0  0
   10.1730    5.7210   23.6160 C   0  0  0  0  0  0  0  0  0  0  0  0
    8.8980    5.7900   23.0610 C   0  0  0  0  0  0  0  0  0  0  0  0
    8.1080    4.6600   22.8110 C   0  0  0  0  0  0  0  0  0  0  0  0
    8.4900    3.3370   23.0860 C   0  0  0  0  0  0  0  0  0  0  0  0
    1.6160    3.7610   25.1500 C   0  0  0  0  0  0  0  0  0  0  0  0
    1.3590    2.5480   24.4960 C   0  0  0  0  0  0  0  0  0  0  0  0
   -0.0800    2.0500   24.5230 C   0  0  0  0  0  0  0  0  0  0  0  0
   -1.0600    2.7880   25.1710 C   0  0  0  0  0  0  0  0  0  0  0  0
   -0.7320    3.9790   25.7960 C   0  0  0  0  0  0  0  0  0  0  0  0
    0.5830    4.4620   25.7890 C   0  0  0  0  0  0  0  0  0  0  0  0
  2  4  1  0
  1  7  1  0
  3  7  2  0
  4  7  1  0
  1  9  1  0
  5 10  1  0
  6 10  2  0
  9 10  1  6
  8 12  1  0
 13 14  1  0
 13 15  1  0
 13 16  1  0
 17 18  2  0
 17 19  1  0
 19 20  1  0
 20 21  1  0
 23 24  2  0
 24 25  1  0
 21 26  1  0
 25 26  2  0
  9 27  1  0
 26 27  1  0
 23 28  1  0
 27 28  2  0
 29 30  1  0
 13 31  1  0
 30 31  1  0
 31 32  2  0
  1 33  1  0
 29 33  2  0
 32 33  1  0
 11 34  1  0
 34 35  2  0
  8 36  1  0
 35 36  1  0
 36 37  2  0
 37 38  1  0
  5 39  1  0
 34 39  1  0
 38 39  2  0
 22 40  1  0
 17 41  1  0
 40 41  2  0
 41 42  1  0
 42 43  2  0
 43 44  1  0
 40 45  1  0
 44 45  2  0
M  END
