x0426-x3108
     RDKit          3D

 32 34  0  0  0  0  0  0  0  0999 V2000
    4.9550    1.6690   22.1430 C   0  0  2  0  0  0  0  0  0  0  0  0
    9.1490    1.8180   21.2640 O   0  0  0  0  0  0  0  0  0  0  0  0
    7.5160   -0.0460   21.6630 N   0  0  0  0  0  0  0  0  0  0  0  0
    7.5430    0.4660   23.9190 O   0  0  0  0  0  0  0  0  0  0  0  0
    9.0330   -1.0800   23.3110 N   0  0  0  0  0  0  0  0  0  0  0  0
    8.7910    0.5230   21.7810 C   0  0  0  0  0  0  0  0  0  0  0  0
    9.6790   -0.2320   22.4050 C   0  0  0  0  0  0  0  0  0  0  0  0
    7.9590   -0.6750   24.0420 C   0  0  0  0  0  0  0  0  0  0  0  0
    7.2910   -1.6050   25.0420 C   0  0  0  0  0  0  0  0  0  0  0  0
    2.6580    1.4460   23.4120 C   0  0  0  0  0  0  0  0  0  0  0  0
    2.6990    0.2820   23.7930 O   0  0  0  0  0  0  0  0  0  0  0  0
    3.4810    1.8870   22.3270 N   0  0  0  0  0  0  0  0  0  0  0  0
    3.1410    4.1050   24.9210 F   0  0  0  0  0  0  0  0  0  0  0  0
    5.4970    3.0330   22.2600 C   0  0  0  0  0  0  0  0  0  0  0  0
    6.2570    0.1040   18.0940 N   0  0  0  0  0  0  0  0  0  0  0  0
    7.1490   -0.2850   19.1950 C   0  0  0  0  0  0  0  0  0  0  0  0
    6.6260    0.3040   20.5400 C   0  0  0  0  0  0  0  0  0  0  0  0
    5.4440    1.1040   20.7920 C   0  0  0  0  0  0  0  0  0  0  0  0
    4.7000    1.3820   19.6510 C   0  0  0  0  0  0  0  0  0  0  0  0
    5.1660    0.8470   18.2960 C   0  0  0  0  0  0  0  0  0  0  0  0
    8.2950   -4.7530   23.4220 N   0  0  0  0  0  0  0  0  0  0  0  0
    8.2420   -3.4770   23.7900 C   0  0  0  0  0  0  0  0  0  0  0  0
    7.3010   -2.9770   24.7000 C   0  0  0  0  0  0  0  0  0  0  0  0
    6.3530   -3.8600   25.2740 C   0  0  0  0  0  0  0  0  0  0  0  0
    6.4490   -5.1980   24.8560 C   0  0  0  0  0  0  0  0  0  0  0  0
    7.4050   -5.5850   23.9570 C   0  0  0  0  0  0  0  0  0  0  0  0
    1.9100    3.5850   24.8580 C   0  0  0  0  0  0  0  0  0  0  0  0
    1.6380    2.3510   24.1630 C   0  0  0  0  0  0  0  0  0  0  0  0
    0.2900    1.9480   24.2030 C   0  0  0  0  0  0  0  0  0  0  0  0
   -0.7280    2.6570   24.8510 C   0  0  0  0  0  0  0  0  0  0  0  0
   -0.4500    3.8410   25.5140 C   0  0  0  0  0  0  0  0  0  0  0  0
    0.8770    4.3020   25.5150 C   0  0  0  0  0  0  0  0  0  0  0  0
  2  6  2  0
  3  6  1  0
  5  7  1  0
  6  7  1  0
  4  8  2  0
  5  8  1  0
  8  9  1  0
 10 11  2  0
  1 12  1  0
 10 12  1  0
  1 14  1  6
 15 16  2  0
  3 17  1  0
 16 17  1  0
  1 18  1  0
 17 18  2  0
 18 19  1  0
 15 20  1  0
 19 20  2  0
 21 22  2  0
  9 23  1  0
 22 23  1  0
 23 24  2  0
 24 25  1  0
 21 26  1  0
 25 26  2  0
 13 27  1  0
 10 28  1  0
 27 28  2  0
 28 29  1  0
 29 30  2  0
 30 31  1  0
 27 32  1  0
 31 32  2  0
M  END
