x0426-x3110-x0981
     RDKit          3D

 56 58  0  0  0  0  0  0  0  0999 V2000
    7.8950    0.6420   23.0370 N   0  0  0  0  0  0  0  0  0  0  0  0
   13.3170    4.9840   22.7690 C   0  0  0  0  0  0  0  0  0  0  0  0
   11.7790    3.1590   22.5300 O   0  0  0  0  0  0  0  0  0  0  0  0
   12.1580    4.2680   22.1360 C   0  0  0  0  0  0  0  0  0  0  0  0
    6.8250   -1.7450   21.8670 N   0  0  0  0  0  0  0  0  0  0  0  0
   10.6340    4.1300   24.1050 O   0  0  0  0  0  0  0  0  0  0  0  0
   10.8810    3.1650   23.4030 C   0  0  0  0  0  0  0  0  0  0  0  0
    8.3940    1.1940   20.7540 O   0  0  0  0  0  0  0  0  0  0  0  0
   10.1430    1.7820   23.4450 C   0  0  0  0  0  0  0  0  0  0  0  0
    4.7720   -2.9520   21.1860 O   0  0  0  0  0  0  0  0  0  0  0  0
    8.5660    1.8210   23.4830 C   0  0  0  0  0  0  0  0  0  0  0  0
    7.6580    0.3930   21.6810 C   0  0  0  0  0  0  0  0  0  0  0  0
    6.5420   -0.6950   21.3160 C   0  0  1  0  0  0  0  0  0  0  0  0
    5.9950   -2.9850   21.4940 C   0  0  0  0  0  0  0  0  0  0  0  0
    6.3800   -4.4600   21.2440 C   0  0  1  0  0  0  0  0  0  0  0  0
    7.9090   -4.5850   21.0520 C   0  0  0  0  0  0  0  0  0  0  0  0
   12.2020   -1.8170   24.2210 C   0  0  0  0  0  0  0  0  0  0  0  0
   12.6460   -0.5870   24.6420 C   0  0  0  0  0  0  0  0  0  0  0  0
   13.2250   -1.3000   23.3120 C   0  0  0  0  0  0  0  0  0  0  0  0
   12.7220   -2.9920   24.9690 C   0  0  0  0  0  0  0  0  0  0  0  0
    1.4240   -8.4870   21.6800 C   0  0  0  0  0  0  0  0  0  0  0  0
    3.1110   -7.1280   22.6590 N   0  0  0  0  0  0  0  0  0  0  0  0
    0.9090   -6.4510   22.5440 O   0  0  0  0  0  0  0  0  0  0  0  0
    1.7790   -7.2940   22.3290 C   0  0  0  0  0  0  0  0  0  0  0  0
    2.5610   -8.0360   26.2770 N   0  0  0  0  0  0  0  0  0  0  0  0
    4.2160   -8.1860   24.4610 O   0  0  0  0  0  0  0  0  0  0  0  0
    3.3790   -6.0110   23.3920 C   0  0  1  0  0  0  0  0  0  0  0  0
    5.6010   -5.5390   22.0530 N   0  0  0  0  0  0  0  0  0  0  0  0
    5.2640   -4.7710   24.1660 O   0  0  0  0  0  0  0  0  0  0  0  0
    3.1100   -6.1540   24.7690 C   0  0  0  0  0  0  0  0  0  0  0  0
    3.3220   -7.4670   25.1420 C   0  0  0  0  0  0  0  0  0  0  0  0
    4.8210   -5.4080   23.2160 C   0  0  0  0  0  0  0  0  0  0  0  0
    2.3420    1.7760   23.6840 C   0  0  0  0  0  0  0  0  0  0  0  0
    2.3490    0.5500   23.7330 O   0  0  0  0  0  0  0  0  0  0  0  0
    3.2820    2.4920   22.9450 N   0  0  0  0  0  0  0  0  0  0  0  0
    4.3970    1.6910   22.3470 C   0  0  0  0  0  0  0  0  0  0  0  0
    3.9410    1.0380   21.1890 C   0  0  0  0  0  0  0  0  0  0  0  0
    2.7880    4.2630   25.1490 F   0  0  0  0  0  0  0  0  0  0  0  0
    6.4530    0.6380   17.8450 N   0  0  0  0  0  0  0  0  0  0  0  0
    5.3190    1.3720   17.8770 C   0  0  0  0  0  0  0  0  0  0  0  0
    4.5110    1.4890   19.0040 C   0  0  0  0  0  0  0  0  0  0  0  0
    4.8650    0.8240   20.1790 C   0  0  0  0  0  0  0  0  0  0  0  0
    6.0500    0.0500   20.1880 C   0  0  0  0  0  0  0  0  0  0  0  0
    6.7800    0.0070   18.9890 C   0  0  0  0  0  0  0  0  0  0  0  0
    9.2790   -1.9140   21.6760 C   0  0  0  0  0  0  0  0  0  0  0  0
   10.5990   -1.9390   22.1690 C   0  0  0  0  0  0  0  0  0  0  0  0
   10.8210   -1.8060   23.6870 C   0  0  0  0  0  0  0  0  0  0  0  0
    9.6990   -1.6690   24.4810 C   0  0  0  0  0  0  0  0  0  0  0  0
    8.4420   -1.6660   23.8760 C   0  0  0  0  0  0  0  0  0  0  0  0
    8.1720   -1.7790   22.5090 C   0  0  0  0  0  0  0  0  0  0  0  0
    1.5470    3.7490   25.1390 C   0  0  0  0  0  0  0  0  0  0  0  0
    1.2920    2.5350   24.4330 C   0  0  0  0  0  0  0  0  0  0  0  0
   -0.0210    2.0110   24.4360 C   0  0  0  0  0  0  0  0  0  0  0  0
   -1.1300    2.7910   25.2140 C   0  0  0  0  0  0  0  0  0  0  0  0
   -0.7240    4.0490   25.9090 C   0  0  0  0  0  0  0  0  0  0  0  0
    0.5750    4.4800   25.8510 C   0  0  0  0  0  0  0  0  0  0  0  0
  2  4  1  0
  3  4  1  0
  3  7  1  0
  6  7  2  0
  7  9  1  0
  1 11  1  0
  9 11  1  0
  1 12  1  0
  8 12  2  0
  5 13  1  0
 13 12  1  6
  5 14  1  0
 10 14  2  0
 14 15  1  0
 15 16  1  1
 17 18  1  0
 17 19  1  0
 17 20  1  0
 21 24  1  0
 22 24  1  0
 23 24  2  0
 22 27  1  0
 15 28  1  0
 27 30  1  1
 25 31  1  0
 26 31  2  0
 30 31  1  0
 27 32  1  0
 28 32  1  0
 29 32  2  0
 33 34  2  0
 33 35  1  0
 35 36  1  0
 36 37  1  0
 39 40  2  0
 40 41  1  0
 37 42  1  0
 41 42  2  0
 13 43  1  0
 42 43  1  0
 39 44  1  0
 43 44  2  0
 45 46  2  0
 17 47  1  0
 46 47  1  0
 47 48  2  0
 48 49  1  0
  5 50  1  0
 45 50  1  0
 49 50  2  0
 38 51  1  0
 33 52  1  0
 51 52  2  0
 52 53  1  0
 53 54  2  0
 54 55  1  0
 51 56  1  0
 55 56  2  0
M  END
