x0426-x1308-x2694
     RDKit          3D

 62 67  0  0  0  0  0  0  0  0999 V2000
    7.6620   -0.9570   21.5510 N   0  0  0  0  0  0  0  0  0  0  0  0
    7.7760    2.3580   22.8130 N   0  0  0  0  0  0  0  0  0  0  0  0
    8.9850    1.5760   21.1200 O   0  0  0  0  0  0  0  0  0  0  0  0
   11.0980    6.7440   23.9450 O   0  0  0  0  0  0  0  0  0  0  0  0
    7.0060    0.2720   21.5990 C   0  0  1  0  0  0  0  0  0  0  0  0
    7.9840    1.4260   21.8270 C   0  0  0  0  0  0  0  0  0  0  0  0
   10.2830    1.9520   24.0220 C   0  0  0  0  0  0  0  0  0  0  0  0
   11.8500    6.5460   24.8940 C   0  0  0  0  0  0  0  0  0  0  0  0
   12.1880   -1.5270   23.4110 C   0  0  0  0  0  0  0  0  0  0  0  0
   13.1080   -0.3830   23.0360 C   0  0  0  0  0  0  0  0  0  0  0  0
   12.9020   -1.7270   22.0540 C   0  0  0  0  0  0  0  0  0  0  0  0
   12.7990   -2.4220   24.5140 C   0  0  0  0  0  0  0  0  0  0  0  0
    2.4240    2.0290   23.8720 C   0  0  0  0  0  0  0  0  0  0  0  0
    2.4230    0.5440   23.9610 N   0  0  0  0  0  0  0  0  0  0  0  0
    3.3970    2.7840   23.2350 N   0  0  0  0  0  0  0  0  0  0  0  0
    4.2850    1.9880   22.5910 C   0  0  0  0  0  0  0  0  0  0  0  0
    3.8470    1.2750   21.4730 C   0  0  0  0  0  0  0  0  0  0  0  0
    2.7880    4.3850   25.3390 F   0  0  0  0  0  0  0  0  0  0  0  0
    7.1280   -3.4470   19.9920 C   0  0  0  0  0  0  0  0  0  0  0  0
    5.3810   -5.0130   20.0020 O   0  0  0  0  0  0  0  0  0  0  0  0
    0.8590   -1.2130   26.6170 C   0  0  0  0  0  0  0  0  0  0  0  0
    6.3650   -4.6000   20.5930 C   0  0  0  0  0  0  0  0  0  0  0  0
    6.3530   -5.0920   26.9370 O   0  0  0  0  0  0  0  0  0  0  0  0
    4.6660   -6.9820   26.2390 O   0  0  0  0  0  0  0  0  0  0  0  0
    5.2700   -5.5180   26.0800 S   0  0  0  0  0  0  0  0  0  0  0  0
    1.4440   -0.1420   24.5940 C   0  0  0  0  0  0  0  0  0  0  0  0
    1.2340    0.0630   25.9370 C   0  0  0  0  0  0  0  0  0  0  0  0
    6.4080    0.5540   17.9300 N   0  0  0  0  0  0  0  0  0  0  0  0
    5.1560    1.0010   17.8380 C   0  0  0  0  0  0  0  0  0  0  0  0
    4.2700    1.2520   19.0400 C   0  0  0  0  0  0  0  0  0  0  0  0
    4.7880    1.0220   20.2990 C   0  0  0  0  0  0  0  0  0  0  0  0
    6.1320    0.5730   20.3690 C   0  0  0  0  0  0  0  0  0  0  0  0
    6.8370    0.3610   19.1820 C   0  0  0  0  0  0  0  0  0  0  0  0
    8.6340   -1.4010   23.8710 N   0  0  0  0  0  0  0  0  0  0  0  0
    9.8020   -1.5520   24.3670 O   0  0  0  0  0  0  0  0  0  0  0  0
   10.7050   -1.4380   23.2970 C   0  0  0  0  0  0  0  0  0  0  0  0
   10.0190   -1.2180   22.1500 C   0  0  0  0  0  0  0  0  0  0  0  0
    8.7020   -1.1880   22.5140 C   0  0  0  0  0  0  0  0  0  0  0  0
    9.8120    3.3390   23.6600 C   0  0  0  0  0  0  0  0  0  0  0  0
   10.6030    4.4610   23.9180 C   0  0  0  0  0  0  0  0  0  0  0  0
   10.2080    5.7540   23.6130 C   0  0  0  0  0  0  0  0  0  0  0  0
    8.9700    5.9280   23.0090 C   0  0  0  0  0  0  0  0  0  0  0  0
    8.1540    4.8250   22.7300 C   0  0  0  0  0  0  0  0  0  0  0  0
    8.5610    3.5160   23.0560 C   0  0  0  0  0  0  0  0  0  0  0  0
    1.5460    3.8850   25.2700 C   0  0  0  0  0  0  0  0  0  0  0  0
    1.2800    2.6970   24.5420 C   0  0  0  0  0  0  0  0  0  0  0  0
   -0.0490    2.1820   24.4770 C   0  0  0  0  0  0  0  0  0  0  0  0
   -1.1780    2.7530   25.0890 C   0  0  0  0  0  0  0  0  0  0  0  0
   -0.8500    4.0250   25.8620 C   0  0  0  0  0  0  0  0  0  0  0  0
    0.5400    4.5850   25.9410 C   0  0  0  0  0  0  0  0  0  0  0  0
    6.7490   -5.2120   21.7780 N   0  0  0  0  0  0  0  0  0  0  0  0
    7.4030   -4.4580   22.8660 C   0  0  0  0  0  0  0  0  0  0  0  0
    6.4150   -4.1240   24.0100 C   0  0  0  0  0  0  0  0  0  0  0  0
    5.7740   -5.3850   24.4820 N   0  0  0  0  0  0  0  0  0  0  0  0
    5.0590   -6.1400   23.4450 C   0  0  0  0  0  0  0  0  0  0  0  0
    6.0190   -6.4180   22.2120 C   0  0  0  0  0  0  0  0  0  0  0  0
    4.4670   -3.0220   26.3400 C   0  0  0  0  0  0  0  0  0  0  0  0
    3.4160   -1.8920   26.4800 C   0  0  0  0  0  0  0  0  0  0  0  0
    1.9280   -2.2680   26.4830 C   0  0  0  0  0  0  0  0  0  0  0  0
    1.6210   -3.7480   26.3450 C   0  0  0  0  0  0  0  0  0  0  0  0
    2.7540   -4.7450   26.2150 C   0  0  0  0  0  0  0  0  0  0  0  0
    4.0920   -4.3620   26.2190 C   0  0  0  0  0  0  0  0  0  0  0  0
  5  1  1  6
  2  6  1  0
  3  6  2  0
  5  6  1  0
  4  8  1  0
  9 10  1  0
  9 11  1  0
  9 12  1  0
 13 14  2  3
 13 15  1  0
 15 16  1  0
 16 17  1  0
 19 22  1  0
 20 22  2  0
 23 25  2  0
 24 25  2  0
 14 26  1  0
 21 27  1  0
 26 27  1  0
 28 29  2  0
 29 30  1  0
 17 31  1  0
 30 31  2  0
  5 32  1  0
 31 32  1  0
 28 33  1  0
 32 33  2  0
 34 35  1  0
  9 36  1  0
 35 36  1  0
 36 37  2  0
  1 38  1  0
 34 38  2  0
 37 38  1  0
  7 39  1  0
 39 40  2  0
  4 41  1  0
 40 41  1  0
 41 42  2  0
 42 43  1  0
  2 44  1  0
 39 44  1  0
 43 44  2  0
 18 45  1  0
 13 46  1  0
 45 46  2  0
 46 47  1  0
 47 48  2  0
 48 49  1  0
 45 50  1  0
 49 50  2  0
 22 51  1  0
 51 52  1  0
 52 53  1  0
 25 54  1  0
 53 54  1  0
 54 55  1  0
 51 56  1  0
 55 56  1  0
 57 58  2  0
 21 59  1  0
 58 59  1  0
 59 60  2  0
 60 61  1  0
 25 62  1  0
 57 62  1  0
 61 62  2  0
M  END
