x0426-x0978-x2694-x0771
     RDKit          3D

 69 75  0  0  0  0  0  0  0  0999 V2000
    2.1610   -5.6270   22.9040 N   0  0  0  0  0  0  0  0  0  0  0  0
    2.4840   -8.3220   24.5350 C   0  0  0  0  0  0  0  0  0  0  0  0
    4.3570   -7.1070   25.3190 N   0  0  0  0  0  0  0  0  0  0  0  0
    3.1870   -6.9580   24.6320 C   0  0  1  0  0  0  0  0  0  0  0  0
    0.9240   -7.4150   22.0230 O   0  0  0  0  0  0  0  0  0  0  0  0
    3.4090   -6.2890   23.2260 C   0  0  2  0  0  0  0  0  0  0  0  0
    4.1590   -4.0270   23.1100 O   0  0  0  0  0  0  0  0  0  0  0  0
    0.9470   -6.3010   22.5220 C   0  0  0  0  0  0  0  0  0  0  0  0
   -0.3600   -5.4900   22.7760 C   0  0  0  0  0  0  0  0  0  0  0  0
    6.5470   -4.1410   20.0010 C   0  0  0  0  0  0  0  0  0  0  0  0
    5.4080   -3.4570   19.3110 C   0  0  0  0  0  0  0  0  0  0  0  0
    0.5970   -1.3570   26.2510 C   0  0  0  0  0  0  0  0  0  0  0  0
    6.1540   -5.4920   26.6970 O   0  0  0  0  0  0  0  0  0  0  0  0
    5.0050   -5.7550   25.6360 S   0  0  2  0  0  0  0  0  0  0  0  0
    7.5920   -1.2300   21.9030 N   0  0  0  0  0  0  0  0  0  0  0  0
    7.7370    2.4160   22.7290 N   0  0  0  0  0  0  0  0  0  0  0  0
    9.1060    1.3640   21.1380 O   0  0  0  0  0  0  0  0  0  0  0  0
   11.1310    6.8290   23.9830 O   0  0  0  0  0  0  0  0  0  0  0  0
    7.0730    0.2140   21.7530 C   0  0  1  0  0  0  0  0  0  0  0  0
    8.1000    1.3640   21.8300 C   0  0  0  0  0  0  0  0  0  0  0  0
   10.4580    2.0170   24.0160 C   0  0  0  0  0  0  0  0  0  0  0  0
   11.8860    6.6370   25.1730 C   0  0  0  0  0  0  0  0  0  0  0  0
   12.4310   -1.4070   23.2760 C   0  0  0  0  0  0  0  0  0  0  0  0
   12.8610   -0.1190   23.5380 C   0  0  0  0  0  0  0  0  0  0  0  0
   13.0040   -1.8690   21.9300 C   0  0  0  0  0  0  0  0  0  0  0  0
   12.9180   -2.3860   24.4500 C   0  0  0  0  0  0  0  0  0  0  0  0
    5.8440   -2.9610   21.9290 C   0  0  0  0  0  0  0  0  0  0  0  0
    6.7560   -2.0780   22.5360 C   0  0  0  0  0  0  0  0  0  0  0  0
    2.3760    1.9690   24.1520 C   0  0  0  0  0  0  0  0  0  0  0  0
    2.7650    0.9440   24.6890 O   0  0  0  0  0  0  0  0  0  0  0  0
    2.9580    2.4940   22.9330 N   0  0  0  0  0  0  0  0  0  0  0  0
    3.8150    1.6450   22.2540 C   0  0  0  0  0  0  0  0  0  0  0  0
    4.7090    2.3630   21.4770 C   0  0  0  0  0  0  0  0  0  0  0  0
    2.6390    4.7080   25.3990 F   0  0  0  0  0  0  0  0  0  0  0  0
    1.5970   -2.4660   26.0850 C   0  0  0  0  0  0  0  0  0  0  0  0
    1.4050   -3.7800   25.6330 C   0  0  0  0  0  0  0  0  0  0  0  0
    2.4180   -4.7380   25.5100 C   0  0  0  0  0  0  0  0  0  0  0  0
    3.7640   -4.4970   25.8270 C   0  0  0  0  0  0  0  0  0  0  0  0
    4.1320   -3.2460   26.2940 C   0  0  0  0  0  0  0  0  0  0  0  0
    3.0610   -2.1330   26.4570 C   0  0  0  0  0  0  0  0  0  0  0  0
    6.3490   -4.3990   21.5410 C   0  0  1  0  0  0  0  0  0  0  0  0
    5.3480   -5.5090   21.7400 C   0  0  0  0  0  0  0  0  0  0  0  0
    4.6370   -5.3580   23.0770 C   0  0  2  0  0  0  0  0  0  0  0  0
    5.6690   -5.5400   24.0910 N   0  0  0  0  0  0  0  0  0  0  0  0
    7.0130   -4.8400   23.8680 C   0  0  0  0  0  0  0  0  0  0  0  0
    7.4470   -4.6210   22.3450 C   0  0  0  0  0  0  0  0  0  0  0  0
    6.3130    0.1380   17.9060 N   0  0  0  0  0  0  0  0  0  0  0  0
    5.2400    1.1090   17.7610 C   0  0  0  0  0  0  0  0  0  0  0  0
    4.6640    1.8810   18.9730 C   0  0  0  0  0  0  0  0  0  0  0  0
    5.2690    1.5890   20.3300 C   0  0  0  0  0  0  0  0  0  0  0  0
    6.4010    0.5540   20.4410 C   0  0  0  0  0  0  0  0  0  0  0  0
    6.8150   -0.0930   19.1230 C   0  0  0  0  0  0  0  0  0  0  0  0
    8.8630   -1.3150   24.1000 N   0  0  0  0  0  0  0  0  0  0  0  0
   10.2350   -1.3660   24.3680 O   0  0  0  0  0  0  0  0  0  0  0  0
   10.9510   -1.3640   23.1990 C   0  0  0  0  0  0  0  0  0  0  0  0
   10.0190   -1.3140   22.2050 C   0  0  0  0  0  0  0  0  0  0  0  0
    8.7410   -1.2800   22.6450 C   0  0  0  0  0  0  0  0  0  0  0  0
    9.9300    3.3810   23.6690 C   0  0  0  0  0  0  0  0  0  0  0  0
   10.6960    4.5190   23.9350 C   0  0  0  0  0  0  0  0  0  0  0  0
   10.2550    5.8350   23.6410 C   0  0  0  0  0  0  0  0  0  0  0  0
    8.9760    6.0210   23.0310 C   0  0  0  0  0  0  0  0  0  0  0  0
    8.0910    4.9630   22.6970 C   0  0  0  0  0  0  0  0  0  0  0  0
    8.5000    3.5560   22.9950 C   0  0  0  0  0  0  0  0  0  0  0  0
    1.4290    4.1250   25.3930 C   0  0  0  0  0  0  0  0  0  0  0  0
    1.2540    2.7210   24.7630 C   0  0  0  0  0  0  0  0  0  0  0  0
   -0.0260    2.2150   24.8110 C   0  0  0  0  0  0  0  0  0  0  0  0
   -1.1500    3.0050   25.4370 C   0  0  0  0  0  0  0  0  0  0  0  0
   -0.9080    4.2630   25.9800 C   0  0  0  0  0  0  0  0  0  0  0  0
    0.3620    4.8210   25.9610 C   0  0  0  0  0  0  0  0  0  0  0  0
  4  2  1  6
  3  4  1  0
  6  1  1  1
  4  6  1  0
  1  8  1  0
  5  8  2  0
  8  9  1  0
 10 11  2  3
  3 14  2  0
 13 14  2  0
 15 19  1  0
 16 20  1  0
 17 20  2  0
 19 20  1  6
 18 22  1  0
 23 24  1  0
 23 25  1  0
 23 26  1  0
 15 28  1  0
 27 28  1  0
 29 30  2  0
 29 31  1  0
 31 32  1  0
 32 33  1  0
 12 35  1  0
 35 36  2  0
 36 37  1  0
 14 38  1  1
 37 38  2  0
 38 39  1  0
 35 40  1  0
 39 40  2  0
 41 10  1  6
 27 41  1  0
 41 42  1  0
  6 43  1  0
 43  7  1  6
 42 43  1  0
 14 44  1  0
 43 44  1  0
 44 45  1  0
 41 46  1  0
 45 46  1  0
 47 48  2  0
 48 49  1  0
 33 50  1  0
 49 50  2  0
 19 51  1  0
 50 51  1  0
 47 52  1  0
 51 52  2  0
 53 54  1  0
 23 55  1  0
 54 55  1  0
 55 56  2  0
 15 57  1  0
 53 57  2  0
 56 57  1  0
 21 58  1  0
 58 59  2  0
 18 60  1  0
 59 60  1  0
 60 61  2  0
 61 62  1  0
 16 63  1  0
 58 63  1  0
 62 63  2  0
 34 64  1  0
 29 65  1  0
 64 65  2  0
 65 66  1  0
 66 67  2  0
 67 68  1  0
 64 69  1  0
 68 69  2  0
M  END
