x0426-x0786
     RDKit          3D

 39 42  0  0  0  0  0  0  0  0999 V2000
    6.3510   -4.0820   21.8720 N   0  0  0  0  0  0  0  0  0  0  0  0
    7.1570   -5.4580   20.1050 C   0  0  0  0  0  0  0  0  0  0  0  0
    5.1050   -4.5440   19.9080 O   0  0  0  0  0  0  0  0  0  0  0  0
    6.0740   -4.6750   20.6430 C   0  0  0  0  0  0  0  0  0  0  0  0
    3.7400   -8.0300   24.8020 O   0  0  0  0  0  0  0  0  0  0  0  0
    3.3030   -7.0200   24.2730 C   0  0  0  0  0  0  0  0  0  0  0  0
    2.5560    2.0170   24.1580 C   0  0  0  0  0  0  0  0  0  0  0  0
    2.9140    0.9760   24.6800 O   0  0  0  0  0  0  0  0  0  0  0  0
    3.2980    2.6190   23.0140 N   0  0  0  0  0  0  0  0  0  0  0  0
    4.1240    1.7640   22.2720 C   0  0  0  0  0  0  0  0  0  0  0  0
    3.6620    1.7730   20.8900 C   0  0  0  0  0  0  0  0  0  0  0  0
    2.6990    4.7050   25.4400 F   0  0  0  0  0  0  0  0  0  0  0  0
    6.8450   -2.7660   21.8790 C   0  0  0  0  0  0  0  0  0  0  0  0
    6.1420   -2.1170   21.1840 C   0  0  0  0  0  0  0  0  0  0  0  0
    6.7200   -0.8610   20.5720 C   0  0  0  0  0  0  0  0  0  0  0  0
    5.6440   -4.4220   23.0840 C   0  0  0  0  0  0  0  0  0  0  0  0
    4.8360   -5.5490   23.0800 C   0  0  0  0  0  0  0  0  0  0  0  0
    4.1500   -5.8680   24.2420 C   0  0  0  0  0  0  0  0  0  0  0  0
    4.2800   -5.0670   25.3880 C   0  0  0  0  0  0  0  0  0  0  0  0
    5.0980   -3.9390   25.3820 C   0  0  0  0  0  0  0  0  0  0  0  0
    5.7900   -3.6090   24.2190 C   0  0  0  0  0  0  0  0  0  0  0  0
    1.5730   -5.6120   23.3770 C   0  0  0  0  0  0  0  0  0  0  0  0
    0.7040   -5.1430   24.3570 C   0  0  0  0  0  0  0  0  0  0  0  0
   -0.7710   -5.9830   24.2290 S   0  0  0  0  0  0  0  0  0  0  0  0
    0.0140   -7.4690   24.8070 C   0  0  0  0  0  0  0  0  0  0  0  0
    1.0460   -7.9820   24.0120 C   0  0  0  0  0  0  0  0  0  0  0  0
    2.0740   -6.9520   23.7310 N   0  0  0  0  0  0  0  0  0  0  0  0
    1.4950    4.1220   25.3680 C   0  0  0  0  0  0  0  0  0  0  0  0
    1.3530    2.7360   24.7160 C   0  0  0  0  0  0  0  0  0  0  0  0
   -0.0560    2.0820   24.6450 C   0  0  0  0  0  0  0  0  0  0  0  0
   -1.2480    2.8470   25.2310 C   0  0  0  0  0  0  0  0  0  0  0  0
   -1.0010    4.1970   25.8490 C   0  0  0  0  0  0  0  0  0  0  0  0
    0.3920    4.8220   25.9070 C   0  0  0  0  0  0  0  0  0  0  0  0
    5.6740    0.1770   20.3500 C   0  0  0  0  0  0  0  0  0  0  0  0
    6.4060    0.0040   19.1300 C   0  0  0  0  0  0  0  0  0  0  0  0
    6.3660    0.5920   17.7590 N   0  0  0  0  0  0  0  0  0  0  0  0
    5.3470    1.5880   17.5860 C   0  0  0  0  0  0  0  0  0  0  0  0
    4.5930    1.8430   18.6460 C   0  0  0  0  0  0  0  0  0  0  0  0
    4.6660    1.2740   19.8940 C   0  0  0  0  0  0  0  0  0  0  0  0
  1  4  1  0
  2  4  1  0
  3  4  2  0
  5  6  2  0
  7  8  2  0
  7  9  1  0
  9 10  1  0
 10 11  1  0
  1 13  1  0
 13 14  1  0
 14 15  1  0
  1 16  1  0
 16 17  2  0
  6 18  1  0
 17 18  1  0
 18 19  2  0
 19 20  1  0
 16 21  1  0
 20 21  2  0
 22 23  1  0
 23 24  1  0
 24 25  1  0
 25 26  1  0
  6 27  1  0
 22 27  1  0
 26 27  1  0
 12 28  1  0
  7 29  1  0
 28 29  2  0
 29 30  1  0
 30 31  2  0
 31 32  1  0
 28 33  1  0
 32 33  2  0
 15 34  1  0
 34 35  2  0
 35 36  1  0
 36 37  2  0
 37 38  1  0
 11 39  1  0
 34 39  1  0
 38 39  2  0
M  END
