x0426-x1334-x2694-x0689
     RDKit          3D

 73 82  0  0  0  0  0  0  0  0999 V2000
    7.7240    2.2140   22.7850 N   0  0  0  0  0  0  0  0  0  0  0  0
    9.2840    2.0810   21.1790 O   0  0  0  0  0  0  0  0  0  0  0  0
   10.8470    6.7810   23.9940 O   0  0  0  0  0  0  0  0  0  0  0  0
    7.5720    0.1190   21.0940 C   0  0  2  0  0  0  0  0  0  0  0  0
    8.1640    1.3950   21.6840 C   0  0  0  0  0  0  0  0  0  0  0  0
   10.3350    1.8820   24.0600 C   0  0  0  0  0  0  0  0  0  0  0  0
   11.8830    6.6420   24.9690 C   0  0  0  0  0  0  0  0  0  0  0  0
   12.5640   -0.8390   23.2350 C   0  0  0  0  0  0  0  0  0  0  0  0
   12.8520    0.6760   23.2190 C   0  0  0  0  0  0  0  0  0  0  0  0
   13.1870   -1.5500   22.0450 C   0  0  0  0  0  0  0  0  0  0  0  0
   13.0610   -1.5380   24.5170 C   0  0  0  0  0  0  0  0  0  0  0  0
    2.3870    2.2460   23.8710 C   0  0  0  0  0  0  0  0  0  0  0  0
    2.6630    1.1400   24.2770 O   0  0  0  0  0  0  0  0  0  0  0  0
    3.0560    2.8750   22.8240 N   0  0  0  0  0  0  0  0  0  0  0  0
    4.3670    2.4700   22.3230 C   0  0  0  0  0  0  0  0  0  0  0  0
    4.3960    1.1590   21.4930 C   0  0  0  0  0  0  0  0  0  0  0  0
    2.7790    4.5040   25.5520 F   0  0  0  0  0  0  0  0  0  0  0  0
    7.0750   -3.8600   19.9260 C   0  0  0  0  0  0  0  0  0  0  0  0
    5.5890   -5.8880   19.5130 O   0  0  0  0  0  0  0  0  0  0  0  0
    6.1160   -4.9880   20.4170 C   0  0  0  0  0  0  0  0  0  0  0  0
    3.5540   -6.6480   26.0240 O   0  0  0  0  0  0  0  0  0  0  0  0
    5.3770   -5.0330   26.7490 O   0  0  0  0  0  0  0  0  0  0  0  0
    4.3210   -5.4410   25.8500 S   0  0  0  0  0  0  0  0  0  0  0  0
    6.6820   -1.8210   22.7790 C   0  0  0  0  0  0  0  0  0  0  0  0
    5.8920   -1.4690   18.7650 C   0  0  0  0  0  0  0  0  0  0  0  0
    4.7770   -2.9830   20.3060 O   0  0  0  0  0  0  0  0  0  0  0  0
    7.2610   -5.7470   28.3870 Cl  0  0  0  0  0  0  0  0  0  0  0  0
    5.7740   -2.3730   19.9940 C   0  0  0  0  0  0  0  0  0  0  0  0
    9.8600   -3.0460   24.2330 C   0  0  0  0  0  0  0  0  0  0  0  0
    6.3060    0.8190   17.6520 N   0  0  0  0  0  0  0  0  0  0  0  0
    5.0610    1.2920   17.8070 C   0  0  0  0  0  0  0  0  0  0  0  0
    4.5080    1.3750   19.0600 C   0  0  0  0  0  0  0  0  0  0  0  0
    5.2040    1.0070   20.2210 C   0  0  0  0  0  0  0  0  0  0  0  0
    6.5430    0.5420   20.0630 C   0  0  0  0  0  0  0  0  0  0  0  0
    6.9410    0.4880   18.7430 C   0  0  0  0  0  0  0  0  0  0  0  0
    9.2300   -1.8570   23.8720 N   0  0  0  0  0  0  0  0  0  0  0  0
   10.3270   -0.9800   24.2210 O   0  0  0  0  0  0  0  0  0  0  0  0
   11.1220   -1.0600   23.1260 C   0  0  0  0  0  0  0  0  0  0  0  0
   10.3770   -1.3810   22.0490 C   0  0  0  0  0  0  0  0  0  0  0  0
    9.1040   -1.6780   22.4270 C   0  0  2  0  0  0  0  0  0  0  0  0
    9.7710    3.2210   23.7010 C   0  0  0  0  0  0  0  0  0  0  0  0
   10.5210    4.3560   23.9800 C   0  0  0  0  0  0  0  0  0  0  0  0
   10.1300    5.6500   23.7140 C   0  0  0  0  0  0  0  0  0  0  0  0
    8.8630    5.8080   23.0970 C   0  0  0  0  0  0  0  0  0  0  0  0
    8.0640    4.6780   22.7880 C   0  0  0  0  0  0  0  0  0  0  0  0
    8.5260    3.3710   23.0980 C   0  0  0  0  0  0  0  0  0  0  0  0
    1.5280    4.0520   25.3770 C   0  0  0  0  0  0  0  0  0  0  0  0
    1.2750    2.9610   24.5660 C   0  0  0  0  0  0  0  0  0  0  0  0
   -0.0460    2.5190   24.4040 C   0  0  0  0  0  0  0  0  0  0  0  0
   -1.1010    3.1570   25.0520 C   0  0  0  0  0  0  0  0  0  0  0  0
   -0.8430    4.2420   25.8620 C   0  0  0  0  0  0  0  0  0  0  0  0
    0.4750    4.7000   26.0300 C   0  0  0  0  0  0  0  0  0  0  0  0
    5.6740   -5.1020   21.7250 N   0  0  0  0  0  0  0  0  0  0  0  0
    5.4130   -6.4580   22.1650 C   0  0  0  0  0  0  0  0  0  0  0  0
    4.5010   -6.4220   23.2920 C   0  0  0  0  0  0  0  0  0  0  0  0
    4.9460   -5.4410   24.2830 N   0  0  0  0  0  0  0  0  0  0  0  0
    5.4050   -4.1580   23.8280 C   0  0  0  0  0  0  0  0  0  0  0  0
    6.2600   -4.3840   22.8010 C   0  0  2  0  0  0  0  0  0  0  0  0
    3.8030   -2.4990   26.2370 S   0  0  0  0  0  0  0  0  0  0  0  0
    3.1840   -4.0700   25.8740 C   0  0  0  0  0  0  0  0  0  0  0  0
    1.6910   -3.9960   25.6260 C   0  0  0  0  0  0  0  0  0  0  0  0
    1.2010   -2.7240   25.7590 C   0  0  0  0  0  0  0  0  0  0  0  0
    2.2820   -1.7210   26.1120 C   0  0  0  0  0  0  0  0  0  0  0  0
    6.9970   -2.6440   20.7850 C   0  0  2  0  0  0  0  0  0  0  0  0
    7.7150   -1.3000   21.7160 C   0  0  2  0  0  0  0  0  0  0  0  0
    9.2310   -2.9970   22.0560 N   0  0  0  0  0  0  0  0  0  0  0  0
    8.2070   -3.7450   22.6490 C   0  0  0  0  0  0  0  0  0  0  0  0
    7.0130   -3.2530   22.2810 C   0  0  1  0  0  0  0  0  0  0  0  0
    9.8610   -5.4720   25.4440 C   0  0  0  0  0  0  0  0  0  0  0  0
    9.3510   -4.0230   25.2390 C   0  0  0  0  0  0  0  0  0  0  0  0
    8.1160   -3.7640   26.3870 S   0  0  0  0  0  0  0  0  0  0  0  0
    8.2630   -5.3160   27.0720 C   0  0  0  0  0  0  0  0  0  0  0  0
    9.2180   -6.1330   26.4850 C   0  0  0  0  0  0  0  0  0  0  0  0
  1  5  1  0
  2  5  2  0
  4  5  1  1
  3  7  1  0
  8  9  1  0
  8 10  1  0
  8 11  1  0
 12 13  2  0
 12 14  1  0
 14 15  1  0
 15 16  1  0
 18 20  1  0
 19 20  2  0
 21 23  2  0
 22 23  2  0
 25 28  1  0
 26 28  2  0
 30 31  2  0
 31 32  1  0
 16 33  1  0
 32 33  2  0
  4 34  1  0
 33 34  1  0
 30 35  1  0
 34 35  2  0
 29 36  1  0
 36 37  1  0
  8 38  1  0
 37 38  1  0
 38 39  2  0
 36 40  1  0
 40 39  1  6
  6 41  1  0
 41 42  2  0
  3 43  1  0
 42 43  1  0
 43 44  2  0
 44 45  1  0
  1 46  1  0
 41 46  1  0
 45 46  2  0
 17 47  1  0
 12 48  1  0
 47 48  2  0
 48 49  1  0
 49 50  2  0
 50 51  1  0
 47 52  1  0
 51 52  2  0
 20 53  1  0
 53 54  1  0
 54 55  1  0
 23 56  1  0
 55 56  1  0
 56 57  1  0
 53 58  1  0
 58 57  1  1
 23 60  1  0
 59 60  1  0
 60 61  2  0
 61 62  1  0
 59 63  1  0
 62 63  2  0
 18 64  1  0
 64 28  1  6
  4 65  1  0
 65 24  1  1
 40 65  1  0
 64 65  1  0
 40 66  1  0
 66 67  1  0
 68 24  1  1
 58 68  1  0
 64 68  1  0
 67 68  1  0
 29 70  1  0
 69 70  2  0
 70 71  1  0
 27 72  1  0
 71 72  1  0
 69 73  1  0
 72 73  2  0
M  END
