x0426-x1386
     RDKit          3D

 36 40  0  0  0  0  0  0  0  0999 V2000
    2.1170    1.5570   24.0390 C   0  0  0  0  0  0  0  0  0  0  0  0
    1.7140    0.4000   23.8770 O   0  0  0  0  0  0  0  0  0  0  0  0
    3.4270    1.9050   23.6960 N   0  0  0  0  0  0  0  0  0  0  0  0
    3.9470    1.6410   22.4450 C   0  0  0  0  0  0  0  0  0  0  0  0
    3.6380    1.8320   21.1350 C   0  0  0  0  0  0  0  0  0  0  0  0
    3.0530    4.1320   25.1670 F   0  0  0  0  0  0  0  0  0  0  0  0
    5.0400    1.0760   21.6340 C   0  0  0  0  0  0  0  0  0  0  0  0
    6.3270    0.4050   22.0240 C   0  0  0  0  0  0  0  0  0  0  0  0
    1.7780    3.7300   25.1600 C   0  0  0  0  0  0  0  0  0  0  0  0
    1.1540    2.5490   24.6670 C   0  0  0  0  0  0  0  0  0  0  0  0
    0.2270    1.8790   24.4730 C   0  0  0  0  0  0  0  0  0  0  0  0
   -0.9900    2.6430   25.0410 C   0  0  0  0  0  0  0  0  0  0  0  0
   -0.7410    3.9280   25.6460 C   0  0  0  0  0  0  0  0  0  0  0  0
    0.5730    4.5070   25.7340 C   0  0  0  0  0  0  0  0  0  0  0  0
    6.0650    0.5810   20.5090 C   0  0  0  0  0  0  0  0  0  0  0  0
    6.8780    0.1840   19.4310 C   0  0  0  0  0  0  0  0  0  0  0  0
    6.4800    0.4520   18.0380 N   0  0  0  0  0  0  0  0  0  0  0  0
    5.3140    1.0820   17.8440 C   0  0  0  0  0  0  0  0  0  0  0  0
    4.4330    1.5030   18.8140 C   0  0  0  0  0  0  0  0  0  0  0  0
    4.7160    1.3000   20.1340 C   0  0  0  0  0  0  0  0  0  0  0  0
    7.4450   -2.9470   18.6920 C   0  0  0  0  0  0  0  0  0  0  0  0
    5.5260   -3.9570   19.6930 O   0  0  0  0  0  0  0  0  0  0  0  0
    6.4740   -3.1500   19.8430 C   0  0  0  0  0  0  0  0  0  0  0  0
    9.9600   -2.6370   23.9040 C   0  0  0  0  0  0  0  0  0  0  0  0
    6.7050   -2.4550   21.0590 N   0  0  0  0  0  0  0  0  0  0  0  0
    7.8710   -1.6040   21.1090 C   0  0  2  0  0  0  0  0  0  0  0  0
    9.1040   -2.2380   21.7390 C   0  0  0  0  0  0  0  0  0  0  0  0
    8.9550   -2.9760   22.8790 N   0  0  0  0  0  0  0  0  0  0  0  0
    7.5820   -2.7980   23.3530 C   0  0  0  0  0  0  0  0  0  0  0  0
    6.4490   -3.1290   22.3410 C   0  0  0  0  0  0  0  0  0  0  0  0
   12.3820   -1.8540   22.9830 C   0  0  0  0  0  0  0  0  0  0  0  0
   10.9830   -1.6070   23.5130 C   0  0  0  0  0  0  0  0  0  0  0  0
   10.7300   -0.2540   23.6090 C   0  0  0  0  0  0  0  0  0  0  0  0
   12.0370    0.7330   23.1230 S   0  0  0  0  0  0  0  0  0  0  0  0
   13.0250   -0.6070   22.7410 C   0  0  0  0  0  0  0  0  0  0  0  0
    7.6660   -0.2510   21.7170 C   0  0  0  0  0  0  0  0  0  0  0  0
  1  2  2  0
  1  3  1  0
  3  4  1  0
  4  5  2  0
  4  7  1  0
  7  8  2  0
  6  9  1  0
  1 10  1  0
  9 10  2  0
 10 11  1  0
 11 12  2  0
 12 13  1  0
  9 14  1  0
 13 14  2  0
  8 15  1  0
 15 16  1  0
 16 17  2  0
 17 18  1  0
 18 19  2  0
  5 20  1  0
 15 20  2  0
 19 20  1  0
 21 23  1  0
 22 23  2  0
 23 25  1  0
 25 26  1  0
 26 27  1  0
 24 28  1  0
 27 28  1  0
 28 29  1  0
 25 30  1  0
 29 30  1  0
 24 32  1  0
 31 32  1  0
 32 33  2  0
 33 34  1  0
 31 35  2  0
 34 35  1  0
  8 36  1  0
 26 36  1  1
M  END
