x0426-x0678
     RDKit          3D

 28 30  0  0  0  0  0  0  0  0999 V2000
    2.2380    1.7770   23.9380 C   0  0  0  0  0  0  0  0  0  0  0  0
    2.0150    0.5530   23.8830 O   0  0  0  0  0  0  0  0  0  0  0  0
    3.4160    2.3350   23.4040 N   0  0  0  0  0  0  0  0  0  0  0  0
    4.2560    1.5840   22.5940 C   0  0  0  0  0  0  0  0  0  0  0  0
    3.9910    1.7450   21.2710 C   0  0  0  0  0  0  0  0  0  0  0  0
    3.0000    4.3180   25.2400 F   0  0  0  0  0  0  0  0  0  0  0  0
    9.0340    1.2720   21.2500 O   0  0  0  0  0  0  0  0  0  0  0  0
    8.4400    0.3480   21.8400 C   0  0  0  0  0  0  0  0  0  0  0  0
    9.0210   -0.5550   22.9340 C   0  0  0  0  0  0  0  0  0  0  0  0
    7.0070   -0.0640   21.5950 N   0  0  0  0  0  0  0  0  0  0  0  0
    1.7530    3.8350   25.2060 C   0  0  0  0  0  0  0  0  0  0  0  0
    1.2140    2.6520   24.6340 C   0  0  0  0  0  0  0  0  0  0  0  0
    0.3070    1.9700   24.4210 C   0  0  0  0  0  0  0  0  0  0  0  0
   -0.9590    2.5900   25.0260 C   0  0  0  0  0  0  0  0  0  0  0  0
   -0.8000    3.8460   25.7160 C   0  0  0  0  0  0  0  0  0  0  0  0
    0.4900    4.4900   25.8310 C   0  0  0  0  0  0  0  0  0  0  0  0
    6.3400    0.3680   20.3600 C   0  0  0  0  0  0  0  0  0  0  0  0
    6.9220    0.0490   19.1390 C   0  0  0  0  0  0  0  0  0  0  0  0
    6.3650    0.4580   17.8580 N   0  0  0  0  0  0  0  0  0  0  0  0
    5.2610    1.1530   17.8120 C   0  0  0  0  0  0  0  0  0  0  0  0
    4.5740    1.5140   18.9570 C   0  0  0  0  0  0  0  0  0  0  0  0
    5.0000    1.1870   20.2280 C   0  0  0  0  0  0  0  0  0  0  0  0
   11.2720   -1.6880   22.1890 C   0  0  0  0  0  0  0  0  0  0  0  0
   12.3930   -2.1540   22.8920 C   0  0  0  0  0  0  0  0  0  0  0  0
   13.2230   -1.2430   23.5500 C   0  0  0  0  0  0  0  0  0  0  0  0
   12.5650   -0.3620   24.3980 C   0  0  0  0  0  0  0  0  0  0  0  0
   11.0710   -0.5610   24.3910 C   0  0  0  0  0  0  0  0  0  0  0  0
   10.5600   -0.5500   22.9470 C   0  0  0  0  0  0  0  0  0  0  0  0
  1  2  2  0
  1  3  1  0
  3  4  1  0
  4  5  1  0
  7  8  2  0
  8  9  1  0
  8 10  1  0
  6 11  1  0
  1 12  1  0
 11 12  2  0
 12 13  1  0
 13 14  2  0
 14 15  1  0
 11 16  1  0
 15 16  2  0
 10 17  1  0
 17 18  2  0
 18 19  1  0
 19 20  2  0
 20 21  1  0
  5 22  1  0
 17 22  1  0
 21 22  2  0
 23 24  1  0
 24 25  1  0
 25 26  1  0
 26 27  1  0
  9 28  1  0
 23 28  1  0
 27 28  1  0
M  END
