x0426-x1351-x3110-x1077
     RDKit          3D

 65 70  0  0  0  0  0  0  0  0999 V2000
    8.1110    1.2090   23.2900 N   0  0  0  0  0  0  0  0  0  0  0  0
   13.4360    5.1580   22.9130 C   0  0  0  0  0  0  0  0  0  0  0  0
   12.0350    3.2970   22.3890 O   0  0  0  0  0  0  0  0  0  0  0  0
   12.5140    4.5490   21.8980 C   0  0  0  0  0  0  0  0  0  0  0  0
    7.5170   -1.5770   21.5640 N   0  0  0  0  0  0  0  0  0  0  0  0
   11.0060    4.3070   24.1590 O   0  0  0  0  0  0  0  0  0  0  0  0
   11.1930    3.3490   23.4370 C   0  0  0  0  0  0  0  0  0  0  0  0
    8.6750    1.4890   21.1290 O   0  0  0  0  0  0  0  0  0  0  0  0
   10.4820    2.0110   23.6040 C   0  0  0  0  0  0  0  0  0  0  0  0
    8.9930    2.2200   23.8730 C   0  0  0  0  0  0  0  0  0  0  0  0
    7.9650    0.8800   21.9670 C   0  0  0  0  0  0  0  0  0  0  0  0
    6.9140   -0.2090   21.5600 C   0  0  1  0  0  0  0  0  0  0  0  0
   12.6400   -1.9900   24.3710 C   0  0  0  0  0  0  0  0  0  0  0  0
   12.7930   -0.6030   24.9640 C   0  0  0  0  0  0  0  0  0  0  0  0
   13.5570   -2.1290   23.1900 C   0  0  0  0  0  0  0  0  0  0  0  0
   12.9810   -3.0920   25.3740 C   0  0  0  0  0  0  0  0  0  0  0  0
    2.3080    1.8260   23.8090 C   0  0  0  0  0  0  0  0  0  0  0  0
    2.2320    0.5750   23.6930 O   0  0  0  0  0  0  0  0  0  0  0  0
    3.4310    2.5270   23.2160 N   0  0  0  0  0  0  0  0  0  0  0  0
    4.3730    1.8440   22.3960 C   0  0  0  0  0  0  0  0  0  0  0  0
    3.8780    1.1020   21.3170 C   0  0  0  0  0  0  0  0  0  0  0  0
    2.7840    4.3120   25.1950 F   0  0  0  0  0  0  0  0  0  0  0  0
    7.0780   -3.1980   19.2380 C   0  0  0  0  0  0  0  0  0  0  0  0
    5.0610   -4.1320   19.5950 O   0  0  0  0  0  0  0  0  0  0  0  0
    6.1200   -3.7310   20.0310 C   0  0  0  0  0  0  0  0  0  0  0  0
    5.3260   -3.0310   25.4560 N   0  0  0  0  0  0  0  0  0  0  0  0
    7.3110   -3.0050   26.9420 N   0  0  0  0  0  0  0  0  0  0  0  0
    6.2470   -2.4810   26.4450 C   0  0  0  0  0  0  0  0  0  0  0  0
    6.5140    0.4600   17.8930 N   0  0  0  0  0  0  0  0  0  0  0  0
    5.1940    1.0730   17.8370 C   0  0  0  0  0  0  0  0  0  0  0  0
    4.3900    1.2560   18.9420 C   0  0  0  0  0  0  0  0  0  0  0  0
    4.8820    0.8430   20.1840 C   0  0  0  0  0  0  0  0  0  0  0  0
    6.1660    0.2630   20.3140 C   0  0  0  0  0  0  0  0  0  0  0  0
    6.8830    0.1090   19.1280 C   0  0  0  0  0  0  0  0  0  0  0  0
   10.0240   -1.1350   21.7150 C   0  0  0  0  0  0  0  0  0  0  0  0
   11.2540   -1.2970   22.4900 C   0  0  0  0  0  0  0  0  0  0  0  0
   11.3300   -1.9130   23.7070 C   0  0  0  0  0  0  0  0  0  0  0  0
   10.0490   -2.4520   24.2690 C   0  0  0  0  0  0  0  0  0  0  0  0
    8.8490   -2.2600   23.4460 C   0  0  0  0  0  0  0  0  0  0  0  0
    8.7140   -1.6430   22.1950 C   0  0  0  0  0  0  0  0  0  0  0  0
    1.5440    3.7990   25.1950 C   0  0  0  0  0  0  0  0  0  0  0  0
    1.2730    2.6000   24.5370 C   0  0  0  0  0  0  0  0  0  0  0  0
   -0.1530    2.0490   24.5620 C   0  0  0  0  0  0  0  0  0  0  0  0
   -1.2750    2.7630   25.2770 C   0  0  0  0  0  0  0  0  0  0  0  0
   -0.9150    4.0800   25.9840 C   0  0  0  0  0  0  0  0  0  0  0  0
    0.5600    4.5110   25.8750 C   0  0  0  0  0  0  0  0  0  0  0  0
    7.1640   -5.9920   25.3330 O   0  0  0  0  0  0  0  0  0  0  0  0
    7.5690   -5.4930   24.0830 C   0  0  0  0  0  0  0  0  0  0  0  0
    8.9140   -5.5420   23.9180 C   0  0  0  0  0  0  0  0  0  0  0  0
    9.5710   -5.2980   25.1210 C   0  0  0  0  0  0  0  0  0  0  0  0
    9.0460   -4.0910   25.7460 N   0  0  0  0  0  0  0  0  0  0  0  0
    7.9730   -4.2720   26.7280 C   0  0  2  0  0  0  0  0  0  0  0  0
    6.9310   -5.1460   26.4320 C   0  0  0  0  0  0  0  0  0  0  0  0
    6.3100   -3.8380   21.3810 N   0  0  0  0  0  0  0  0  0  0  0  0
    6.9020   -2.7680   22.1650 C   0  0  2  0  0  0  0  0  0  0  0  0
    6.1390   -2.4120   23.2400 C   0  0  0  0  0  0  0  0  0  0  0  0
    5.9500   -3.5550   24.2330 C   0  0  2  0  0  0  0  0  0  0  0  0
    5.3060   -4.6280   23.5990 C   0  0  0  0  0  0  0  0  0  0  0  0
    5.7370   -4.9910   22.1000 C   0  0  0  0  0  0  0  0  0  0  0  0
    6.1450   -0.8720   28.3590 C   0  0  0  0  0  0  0  0  0  0  0  0
    5.9290    0.5060   29.0470 C   0  0  0  0  0  0  0  0  0  0  0  0
    5.5090    1.5790   28.1090 C   0  0  0  0  0  0  0  0  0  0  0  0
    5.3140    1.3230   26.6020 C   0  0  0  0  0  0  0  0  0  0  0  0
    5.5450    0.0450   26.1000 C   0  0  0  0  0  0  0  0  0  0  0  0
    5.9790   -1.1070   26.9900 C   0  0  0  0  0  0  0  0  0  0  0  0
  2  4  1  0
  3  4  1  0
  3  7  1  0
  6  7  2  0
  7  9  1  0
  1 10  1  0
  9 10  1  0
  1 11  1  0
  8 11  2  0
  5 12  1  0
 12 11  1  6
 13 14  1  0
 13 15  1  0
 13 16  1  0
 17 18  2  0
 17 19  1  0
 19 20  1  0
 20 21  1  0
 23 25  1  0
 24 25  2  0
 26 28  1  0
 27 28  2  3
 29 30  2  0
 30 31  1  0
 21 32  1  0
 31 32  2  0
 12 33  1  0
 32 33  1  0
 29 34  1  0
 33 34  2  0
 35 36  2  0
 13 37  1  0
 36 37  1  0
 37 38  2  0
 38 39  1  0
  5 40  1  0
 35 40  1  0
 39 40  2  0
 22 41  1  0
 17 42  1  0
 41 42  2  0
 42 43  1  0
 43 44  2  0
 44 45  1  0
 41 46  1  0
 45 46  2  0
 47 48  1  0
 48 49  1  0
 49 50  1  0
 50 51  1  0
 52 27  1  6
 51 52  1  0
 47 53  1  0
 52 53  1  0
 25 54  1  0
 55  5  1  6
 54 55  1  0
 55 56  1  0
 57 26  1  1
 56 57  1  0
 57 58  1  0
 54 59  1  0
 58 59  1  0
 60 61  2  0
 61 62  1  0
 62 63  2  0
 63 64  1  0
 28 65  1  0
 60 65  1  0
 64 65  2  0
M  END
