x0426-x1334
     RDKit          3D

 37 41  0  0  0  0  0  0  0  0999 V2000
    2.0920    1.5570   24.0610 C   0  0  0  0  0  0  0  0  0  0  0  0
    1.6670    0.4100   23.8930 O   0  0  0  0  0  0  0  0  0  0  0  0
    3.4100    1.8760   23.7240 N   0  0  0  0  0  0  0  0  0  0  0  0
    3.9200    1.6290   22.4660 C   0  0  0  0  0  0  0  0  0  0  0  0
    3.6130    1.8640   21.1570 C   0  0  0  0  0  0  0  0  0  0  0  0
    3.0500    4.1390   25.1790 F   0  0  0  0  0  0  0  0  0  0  0  0
    4.9940    1.0570   21.6380 C   0  0  0  0  0  0  0  0  0  0  0  0
    6.2670    0.3360   21.9960 C   0  0  0  0  0  0  0  0  0  0  0  0
    1.7720    3.7420   25.1730 C   0  0  0  0  0  0  0  0  0  0  0  0
    1.1420    2.5630   24.6860 C   0  0  0  0  0  0  0  0  0  0  0  0
    0.2100    1.8980   24.4960 C   0  0  0  0  0  0  0  0  0  0  0  0
   -1.0040    2.6700   25.0560 C   0  0  0  0  0  0  0  0  0  0  0  0
   -0.7480    3.9570   25.6550 C   0  0  0  0  0  0  0  0  0  0  0  0
    0.5700    4.5290   25.7400 C   0  0  0  0  0  0  0  0  0  0  0  0
    6.0060    0.5680   20.4860 C   0  0  0  0  0  0  0  0  0  0  0  0
    6.8150    0.1780   19.3970 C   0  0  0  0  0  0  0  0  0  0  0  0
    6.4230    0.4940   18.0110 N   0  0  0  0  0  0  0  0  0  0  0  0
    5.2710    1.1610   17.8350 C   0  0  0  0  0  0  0  0  0  0  0  0
    4.4000    1.5780   18.8200 C   0  0  0  0  0  0  0  0  0  0  0  0
    4.6780    1.3310   20.1370 C   0  0  0  0  0  0  0  0  0  0  0  0
    7.3570   -3.0080   18.7890 C   0  0  0  0  0  0  0  0  0  0  0  0
    5.4560   -4.0990   19.7470 O   0  0  0  0  0  0  0  0  0  0  0  0
    7.3360   -5.6930   28.4430 Cl  0  0  0  0  0  0  0  0  0  0  0  0
    6.3680   -3.2680   19.9160 C   0  0  0  0  0  0  0  0  0  0  0  0
    9.6580   -3.1280   24.1160 C   0  0  0  0  0  0  0  0  0  0  0  0
    6.5540   -2.5820   21.1420 N   0  0  0  0  0  0  0  0  0  0  0  0
    7.7470   -1.7660   21.2360 C   0  0  2  0  0  0  0  0  0  0  0  0
    8.8470   -2.3490   22.0840 C   0  0  0  0  0  0  0  0  0  0  0  0
    8.4840   -2.7530   23.3310 N   0  0  0  0  0  0  0  0  0  0  0  0
    7.4690   -3.7810   23.1060 C   0  0  0  0  0  0  0  0  0  0  0  0
    6.1840   -3.2130   22.4300 C   0  0  0  0  0  0  0  0  0  0  0  0
    9.8660   -5.4800   25.4060 C   0  0  0  0  0  0  0  0  0  0  0  0
    9.2930   -4.1100   25.1750 C   0  0  0  0  0  0  0  0  0  0  0  0
    8.0870   -3.7900   26.3450 S   0  0  0  0  0  0  0  0  0  0  0  0
    8.3000   -5.2980   27.0870 C   0  0  0  0  0  0  0  0  0  0  0  0
    9.2640   -6.1080   26.5090 C   0  0  0  0  0  0  0  0  0  0  0  0
    7.5690   -0.3320   21.6080 C   0  0  0  0  0  0  0  0  0  0  0  0
  1  2  2  0
  1  3  1  0
  3  4  1  0
  4  5  2  0
  4  7  1  0
  7  8  2  0
  6  9  1  0
  1 10  1  0
  9 10  2  0
 10 11  1  0
 11 12  2  0
 12 13  1  0
  9 14  1  0
 13 14  2  0
  8 15  1  0
 15 16  1  0
 16 17  2  0
 17 18  1  0
 18 19  2  0
  5 20  1  0
 15 20  2  0
 19 20  1  0
 21 24  1  0
 22 24  2  0
 24 26  1  0
 26 27  1  0
 27 28  1  0
 25 29  1  0
 28 29  1  0
 29 30  1  0
 26 31  1  0
 30 31  1  0
 25 33  1  0
 32 33  2  0
 33 34  1  0
 23 35  1  0
 34 35  1  0
 32 36  1  0
 35 36  2  0
  8 37  1  0
 27 37  1  1
M  END
