x0426-x0731-x3110-x0978
     RDKit          3D

 70 74  0  0  0  0  0  0  0  0999 V2000
    8.0990    1.5150   23.4300 N   0  0  0  0  0  0  0  0  0  0  0  0
   13.4240    5.2110   22.9240 C   0  0  0  0  0  0  0  0  0  0  0  0
   12.0660    3.3190   22.3500 O   0  0  0  0  0  0  0  0  0  0  0  0
   12.5570    4.5690   21.8610 C   0  0  0  0  0  0  0  0  0  0  0  0
    7.0070   -1.1030   22.2120 N   0  0  0  0  0  0  0  0  0  0  0  0
   11.1090    4.3870   24.1240 O   0  0  0  0  0  0  0  0  0  0  0  0
   11.2270    3.4120   23.4050 C   0  0  0  0  0  0  0  0  0  0  0  0
    8.6400    1.6420   21.1250 O   0  0  0  0  0  0  0  0  0  0  0  0
   10.4180    2.0980   23.5780 C   0  0  0  0  0  0  0  0  0  0  0  0
    8.9850    2.4660   23.8550 C   0  0  0  0  0  0  0  0  0  0  0  0
    7.8960    1.2010   22.0130 C   0  0  0  0  0  0  0  0  0  0  0  0
    6.6730    0.3070   21.8200 C   0  0  1  0  0  0  0  0  0  0  0  0
   12.4560   -1.8360   24.1260 C   0  0  0  0  0  0  0  0  0  0  0  0
   12.6710   -0.5960   24.9460 C   0  0  0  0  0  0  0  0  0  0  0  0
   13.4520   -1.9640   22.9730 C   0  0  0  0  0  0  0  0  0  0  0  0
   12.7110   -3.0400   25.0230 C   0  0  0  0  0  0  0  0  0  0  0  0
    2.4030    2.1350   24.1360 C   0  0  0  0  0  0  0  0  0  0  0  0
    2.5560    1.0120   24.5680 O   0  0  0  0  0  0  0  0  0  0  0  0
    3.2140    2.6650   23.1310 N   0  0  0  0  0  0  0  0  0  0  0  0
    4.1690    1.9740   22.5490 C   0  0  0  0  0  0  0  0  0  0  0  0
    3.8280    1.7330   21.2070 C   0  0  0  0  0  0  0  0  0  0  0  0
    2.9090    4.6070   25.3740 F   0  0  0  0  0  0  0  0  0  0  0  0
    1.9910   -5.7570   23.2740 N   0  0  0  0  0  0  0  0  0  0  0  0
    2.1160   -8.1440   24.6220 C   0  0  0  0  0  0  0  0  0  0  0  0
    4.3890   -8.0570   24.5280 O   0  0  0  0  0  0  0  0  0  0  0  0
    3.2090   -7.2940   24.5030 C   0  0  1  0  0  0  0  0  0  0  0  0
    0.9040   -7.2620   21.9540 O   0  0  0  0  0  0  0  0  0  0  0  0
    3.3160   -6.4740   23.3940 C   0  0  2  0  0  0  0  0  0  0  0  0
    3.9960   -4.2100   22.9710 O   0  0  0  0  0  0  0  0  0  0  0  0
    0.8880   -6.2490   22.6430 C   0  0  0  0  0  0  0  0  0  0  0  0
   -0.2900   -5.5090   22.8360 C   0  0  0  0  0  0  0  0  0  0  0  0
    6.2860   -2.1340   21.4470 C   0  0  0  0  0  0  0  0  0  0  0  0
    5.8020   -3.1960   22.2320 C   0  0  0  0  0  0  0  0  0  0  0  0
    0.8320   -0.9210   26.1870 C   0  0  0  0  0  0  0  0  0  0  0  0
    6.1880   -4.4560   26.7380 O   0  0  0  0  0  0  0  0  0  0  0  0
    4.6570   -6.4410   26.4920 O   0  0  0  0  0  0  0  0  0  0  0  0
    5.8530   -5.5550   19.9370 O   0  0  0  0  0  0  0  0  0  0  0  0
    6.4450   -4.6150   20.3940 C   0  0  0  0  0  0  0  0  0  0  0  0
    7.1500   -3.5350   19.5810 C   0  0  0  0  0  0  0  0  0  0  0  0
    5.1730   -5.1770   26.0180 S   0  0  0  0  0  0  0  0  0  0  0  0
    6.5770    0.3550   18.0470 N   0  0  0  0  0  0  0  0  0  0  0  0
    5.3990    0.9810   17.8220 C   0  0  0  0  0  0  0  0  0  0  0  0
    4.5170    1.4220   18.8370 C   0  0  0  0  0  0  0  0  0  0  0  0
    4.8490    1.2280   20.1840 C   0  0  0  0  0  0  0  0  0  0  0  0
    6.0940    0.5880   20.4300 C   0  0  0  0  0  0  0  0  0  0  0  0
    6.8650    0.1900   19.3460 C   0  0  0  0  0  0  0  0  0  0  0  0
    9.3300   -1.7250   21.7690 C   0  0  0  0  0  0  0  0  0  0  0  0
   10.6080   -1.9140   22.1490 C   0  0  0  0  0  0  0  0  0  0  0  0
   11.0810   -1.7090   23.5610 C   0  0  0  0  0  0  0  0  0  0  0  0
    9.9860   -1.2850   24.5280 C   0  0  0  0  0  0  0  0  0  0  0  0
    8.5810   -1.1060   23.9780 C   0  0  0  0  0  0  0  0  0  0  0  0
    8.3330   -1.3250   22.6330 C   0  0  0  0  0  0  0  0  0  0  0  0
    1.6400    4.1750   25.3570 C   0  0  0  0  0  0  0  0  0  0  0  0
    1.3260    2.9710   24.7600 C   0  0  0  0  0  0  0  0  0  0  0  0
   -0.1550    2.4810   24.7480 C   0  0  0  0  0  0  0  0  0  0  0  0
   -1.3530    3.2750   25.3840 C   0  0  0  0  0  0  0  0  0  0  0  0
   -0.7650    4.5100   25.9540 C   0  0  0  0  0  0  0  0  0  0  0  0
    0.6860    4.9610   25.9470 C   0  0  0  0  0  0  0  0  0  0  0  0
    1.8690   -1.9970   26.1030 C   0  0  0  0  0  0  0  0  0  0  0  0
    1.5670   -3.2500   25.5910 C   0  0  0  0  0  0  0  0  0  0  0  0
    2.5950   -4.3540   25.5170 C   0  0  0  0  0  0  0  0  0  0  0  0
    3.8540   -4.0000   26.0030 C   0  0  0  0  0  0  0  0  0  0  0  0
    4.1530   -2.7250   26.5080 C   0  0  0  0  0  0  0  0  0  0  0  0
    3.1610   -1.7390   26.5530 C   0  0  0  0  0  0  0  0  0  0  0  0
    6.3560   -4.5770   21.8680 C   0  0  1  0  0  0  0  0  0  0  0  0
    7.4140   -4.8730   22.6710 C   0  0  0  0  0  0  0  0  0  0  0  0
    7.0690   -4.9450   24.0280 C   0  0  0  0  0  0  0  0  0  0  0  0
    5.6320   -5.3660   24.3760 N   0  0  0  0  0  0  0  0  0  0  0  0
    4.5640   -5.4740   23.3010 C   0  0  1  0  0  0  0  0  0  0  0  0
    5.3930   -5.7250   22.1010 C   0  0  0  0  0  0  0  0  0  0  0  0
  2  4  1  0
  3  4  1  0
  3  7  1  0
  6  7  2  0
  7  9  1  0
  1 10  1  0
  9 10  1  0
  1 11  1  0
  8 11  2  0
  5 12  1  0
 12 11  1  6
 13 14  1  0
 13 15  1  0
 13 16  1  0
 17 18  2  0
 17 19  1  0
 19 20  1  0
 20 21  1  0
 26 24  1  6
 25 26  1  0
 28 23  1  1
 26 28  1  0
 23 30  1  0
 27 30  2  0
 30 31  1  0
  5 32  1  0
 32 33  1  0
 37 38  2  0
 38 39  1  0
 35 40  2  0
 36 40  2  0
 41 42  2  0
 42 43  1  0
 21 44  1  0
 43 44  2  0
 12 45  1  0
 44 45  1  0
 41 46  1  0
 45 46  2  0
 47 48  2  0
 13 49  1  0
 48 49  1  0
 49 50  2  0
 50 51  1  0
  5 52  1  0
 47 52  1  0
 51 52  2  0
 22 53  1  0
 17 54  1  0
 53 54  2  0
 54 55  1  0
 55 56  2  0
 56 57  1  0
 53 58  1  0
 57 58  2  0
 34 59  1  0
 59 60  2  0
 60 61  1  0
 40 62  1  0
 61 62  2  0
 62 63  1  0
 59 64  1  0
 63 64  2  0
 65 33  1  6
 65 38  1  0
 65 66  1  0
 66 67  1  0
 40 68  1  0
 67 68  1  0
 28 69  1  0
 69 29  1  6
 68 69  1  0
 65 70  1  0
 69 70  1  0
M  END
