x0426-x3110-x0689
     RDKit          3D

 60 65  0  0  0  0  0  0  0  0999 V2000
    8.0060    1.2050   23.2600 N   0  0  0  0  0  0  0  0  0  0  0  0
   13.4880    4.8980   22.7180 C   0  0  0  0  0  0  0  0  0  0  0  0
   12.0010    3.2160   22.4600 O   0  0  0  0  0  0  0  0  0  0  0  0
   12.3780    4.4450   22.0000 C   0  0  0  0  0  0  0  0  0  0  0  0
    6.7540   -1.4490   22.0030 C   0  0  2  0  0  0  0  0  0  0  0  0
   10.8750    4.2690   24.1210 O   0  0  0  0  0  0  0  0  0  0  0  0
   11.0380    3.2760   23.4270 C   0  0  0  0  0  0  0  0  0  0  0  0
    8.2980    1.4260   20.7930 O   0  0  0  0  0  0  0  0  0  0  0  0
   10.2240    2.1340   23.5890 C   0  0  0  0  0  0  0  0  0  0  0  0
    4.8400   -2.9350   20.8360 O   0  0  0  0  0  0  0  0  0  0  0  0
    8.8560    2.4080   23.3710 C   0  0  0  0  0  0  0  0  0  0  0  0
    7.6010    0.8240   21.8920 C   0  0  0  0  0  0  0  0  0  0  0  0
    6.5240   -0.0940   21.6420 C   0  0  1  0  0  0  0  0  0  0  0  0
    6.0490   -2.6660   21.2790 C   0  0  0  0  0  0  0  0  0  0  0  0
    6.9650   -3.7670   21.2780 C   0  0  2  0  0  0  0  0  0  0  0  0
    6.8330   -4.3910   19.9520 C   0  0  0  0  0  0  0  0  0  0  0  0
   12.3280   -1.8040   24.1600 C   0  0  0  0  0  0  0  0  0  0  0  0
   12.5340   -0.6110   24.8350 C   0  0  0  0  0  0  0  0  0  0  0  0
   13.3650   -1.8430   23.0320 C   0  0  0  0  0  0  0  0  0  0  0  0
   12.5610   -2.9080   24.8580 C   0  0  0  0  0  0  0  0  0  0  0  0
    2.4840    2.1250   24.0000 C   0  0  0  0  0  0  0  0  0  0  0  0
    2.6820    0.9920   24.4260 O   0  0  0  0  0  0  0  0  0  0  0  0
    3.3500    2.7320   22.9580 N   0  0  0  0  0  0  0  0  0  0  0  0
    4.3290    1.8110   22.3460 C   0  0  0  0  0  0  0  0  0  0  0  0
    3.8790    1.5660   21.0360 C   0  0  0  0  0  0  0  0  0  0  0  0
    2.8230    4.6190   25.6320 F   0  0  0  0  0  0  0  0  0  0  0  0
    4.0300   -6.7840   26.1030 O   0  0  0  0  0  0  0  0  0  0  0  0
    5.5900   -4.8890   27.0390 O   0  0  0  0  0  0  0  0  0  0  0  0
    4.6800   -5.3340   26.0160 S   0  0  0  0  0  0  0  0  0  0  0  0
    5.7250   -2.0580   22.9230 C   0  0  0  0  0  0  0  0  0  0  0  0
    6.0380   -3.3510   23.4420 C   0  0  0  0  0  0  0  0  0  0  0  0
    6.5190    0.5200   17.8630 N   0  0  0  0  0  0  0  0  0  0  0  0
    5.3870    1.2360   17.7680 C   0  0  0  0  0  0  0  0  0  0  0  0
    4.5450    1.5600   18.8240 C   0  0  0  0  0  0  0  0  0  0  0  0
    4.8690    1.1360   20.1110 C   0  0  0  0  0  0  0  0  0  0  0  0
    6.0550    0.3920   20.2880 C   0  0  0  0  0  0  0  0  0  0  0  0
    6.8230    0.1090   19.1620 C   0  0  0  0  0  0  0  0  0  0  0  0
    9.3070   -1.8610   21.7290 C   0  0  0  0  0  0  0  0  0  0  0  0
   10.6390   -1.9490   22.2240 C   0  0  0  0  0  0  0  0  0  0  0  0
   10.9000   -1.7480   23.5770 C   0  0  0  0  0  0  0  0  0  0  0  0
    9.8230   -1.4730   24.4200 C   0  0  0  0  0  0  0  0  0  0  0  0
    8.5200   -1.3930   23.9230 C   0  0  0  0  0  0  0  0  0  0  0  0
    8.2370   -1.5770   22.5690 C   0  0  0  0  0  0  0  0  0  0  0  0
    1.5880    4.1350   25.4290 C   0  0  0  0  0  0  0  0  0  0  0  0
    1.3580    2.8800   24.6040 C   0  0  0  0  0  0  0  0  0  0  0  0
   -0.1080    2.3970   24.4170 C   0  0  0  0  0  0  0  0  0  0  0  0
   -1.2210    3.1860   25.0690 C   0  0  0  0  0  0  0  0  0  0  0  0
   -0.8610    4.4370   25.8840 C   0  0  0  0  0  0  0  0  0  0  0  0
    0.3550    4.8830   26.0610 C   0  0  0  0  0  0  0  0  0  0  0  0
    6.4880   -4.5000   22.4610 C   0  0  0  0  0  0  0  0  0  0  0  0
    5.5300   -5.4340   22.1350 C   0  0  0  0  0  0  0  0  0  0  0  0
    4.9120   -5.9600   23.3600 C   0  0  0  0  0  0  0  0  0  0  0  0
    5.5420   -5.3490   24.5540 N   0  0  0  0  0  0  0  0  0  0  0  0
    6.8780   -5.2420   24.5660 C   0  0  0  0  0  0  0  0  0  0  0  0
    7.4720   -5.2490   23.3510 C   0  0  0  0  0  0  0  0  0  0  0  0
    3.9530   -2.4550   26.2810 S   0  0  0  0  0  0  0  0  0  0  0  0
    3.4490   -4.0610   25.9160 C   0  0  0  0  0  0  0  0  0  0  0  0
    2.1020   -4.0890   25.5980 C   0  0  0  0  0  0  0  0  0  0  0  0
    1.4240   -2.9290   25.6310 C   0  0  0  0  0  0  0  0  0  0  0  0
    2.3830   -1.8190   26.0300 C   0  0  0  0  0  0  0  0  0  0  0  0
  2  4  1  0
  3  4  1  0
  3  7  1  0
  6  7  2  0
  7  9  1  0
  1 11  1  0
  9 11  1  0
  1 12  1  0
  8 12  2  0
  5 13  1  0
 13 12  1  6
  5 14  1  0
 10 14  2  0
 14 15  1  0
 15 16  1  6
 17 18  1  0
 17 19  1  0
 17 20  1  0
 21 22  2  0
 21 23  1  0
 23 24  1  0
 24 25  1  0
 27 29  2  0
 28 29  2  0
  5 30  1  0
 30 31  1  0
 32 33  2  0
 33 34  1  0
 25 35  1  0
 34 35  2  0
 13 36  1  0
 35 36  1  0
 32 37  1  0
 36 37  2  0
 38 39  2  0
 17 40  1  0
 39 40  1  0
 40 41  2  0
 41 42  1  0
  5 43  1  1
 38 43  1  0
 42 43  2  0
 26 44  1  0
 21 45  1  0
 44 45  2  0
 45 46  1  0
 46 47  2  0
 47 48  1  0
 44 49  1  0
 48 49  2  0
 15 50  1  0
 50 31  1  0
 50 51  1  0
 51 52  1  0
 29 53  1  0
 52 53  1  0
 53 54  1  0
 50 55  1  0
 54 55  1  0
 29 57  1  0
 56 57  1  0
 57 58  2  0
 58 59  1  0
 56 60  1  0
 59 60  2  0
M  END
