x0426-x0397
     RDKit          3D

 26 28  0  0  0  0  0  0  0  0999 V2000
    7.9630   -1.4250   20.9020 C   0  0  0  0  0  0  0  0  0  0  0  0
    6.9760   -1.9880   20.0900 N   0  0  0  0  0  0  0  0  0  0  0  0
    6.9180   -1.5470   18.7830 C   0  0  0  0  0  0  0  0  0  0  0  0
    3.7550    2.1830   20.2410 C   0  0  0  0  0  0  0  0  0  0  0  0
    6.1550   -3.1530   20.5600 C   0  0  0  0  0  0  0  0  0  0  0  0
    5.3670   -3.9740   19.6790 O   0  0  0  0  0  0  0  0  0  0  0  0
    6.2320   -3.4430   22.0180 N   0  0  0  0  0  0  0  0  0  0  0  0
    2.2480    1.8340   23.5340 C   0  0  0  0  0  0  0  0  0  0  0  0
    2.3430    0.6140   23.6920 O   0  0  0  0  0  0  0  0  0  0  0  0
    3.0100    2.5170   22.6260 N   0  0  0  0  0  0  0  0  0  0  0  0
    3.7840    1.7710   21.7410 C   0  0  0  0  0  0  0  0  0  0  0  0
    2.8680    4.2390   25.0580 F   0  0  0  0  0  0  0  0  0  0  0  0
    5.4010   -0.0150   19.6980 C   0  0  0  0  0  0  0  0  0  0  0  0
    6.1310   -0.2910   18.8120 C   0  0  0  0  0  0  0  0  0  0  0  0
    6.1750    0.7320   17.7680 N   0  0  0  0  0  0  0  0  0  0  0  0
    5.3030    1.7360   18.1840 O   0  0  0  0  0  0  0  0  0  0  0  0
    4.7670    1.3240   19.4320 C   0  0  0  0  0  0  0  0  0  0  0  0
    6.5300   -5.4460   23.2550 C   0  0  0  0  0  0  0  0  0  0  0  0
    5.6330   -4.6780   22.5260 C   0  0  0  0  0  0  0  0  0  0  0  0
    6.0130   -5.8540   21.8640 C   0  0  0  0  0  0  0  0  0  0  0  0
    1.6280    3.7310   25.0570 C   0  0  0  0  0  0  0  0  0  0  0  0
    1.2830    2.5710   24.3360 C   0  0  0  0  0  0  0  0  0  0  0  0
   -0.0520    2.0910   24.3860 C   0  0  0  0  0  0  0  0  0  0  0  0
   -1.0330    2.7550   25.1390 C   0  0  0  0  0  0  0  0  0  0  0  0
   -0.6540    3.8910   25.8320 C   0  0  0  0  0  0  0  0  0  0  0  0
    0.6340    4.3800   25.8050 C   0  0  0  0  0  0  0  0  0  0  0  0
  1  2  1  0
  2  3  1  0
  2  5  1  0
  5  6  2  0
  5  7  1  0
  8  9  2  0
  8 10  1  0
  4 11  1  0
 10 11  1  0
  3 14  1  0
 13 14  1  0
 14 15  2  0
 15 16  1  0
  4 17  1  0
 13 17  2  0
 16 17  1  0
  7 19  1  0
 18 19  1  0
 18 20  1  0
 19 20  1  0
 12 21  1  0
  8 22  1  0
 21 22  2  0
 22 23  1  0
 23 24  2  0
 24 25  1  0
 21 26  1  0
 25 26  2  0
M  END
