x0426-x0830
     RDKit          3D

 41 46  0  0  0  0  0  0  0  0999 V2000
    2.2780    3.5410   25.0800 C   0  0  0  0  0  0  0  0  0  0  0  0
    2.7340    2.5210   25.6220 O   0  0  0  0  0  0  0  0  0  0  0  0
    2.9520    4.1990   24.0450 N   0  0  0  0  0  0  0  0  0  0  0  0
    3.6870    3.5430   23.1340 C   0  0  0  0  0  0  0  0  0  0  0  0
    3.6990    3.6480   21.7650 C   0  0  0  0  0  0  0  0  0  0  0  0
    1.9950    5.3800   27.4120 F   0  0  0  0  0  0  0  0  0  0  0  0
    4.6920    2.4900   23.0470 C   0  0  0  0  0  0  0  0  0  0  0  0
    5.7920    1.3380   22.9510 C   0  0  0  0  0  0  0  0  0  0  0  0
    0.9770    4.8750   26.6860 C   0  0  0  0  0  0  0  0  0  0  0  0
    0.9300    4.0040   25.5660 C   0  0  0  0  0  0  0  0  0  0  0  0
    0.3940    3.4120   24.7630 C   0  0  0  0  0  0  0  0  0  0  0  0
   -1.1190    3.6370   24.9770 C   0  0  0  0  0  0  0  0  0  0  0  0
   -1.5040    4.4980   26.0740 C   0  0  0  0  0  0  0  0  0  0  0  0
   -0.5090    5.1370   26.9440 C   0  0  0  0  0  0  0  0  0  0  0  0
    5.6330    1.6250   21.4730 C   0  0  0  0  0  0  0  0  0  0  0  0
    6.3520    0.9630   20.4740 C   0  0  0  0  0  0  0  0  0  0  0  0
    6.1780    1.2860   19.0130 N   0  0  0  0  0  0  0  0  0  0  0  0
    5.3110    2.2190   18.6960 C   0  0  0  0  0  0  0  0  0  0  0  0
    4.5180    2.9510   19.5930 C   0  0  0  0  0  0  0  0  0  0  0  0
    4.6480    2.7130   20.9730 C   0  0  0  0  0  0  0  0  0  0  0  0
    7.5240   -3.6490   19.9630 C   0  0  0  0  0  0  0  0  0  0  0  0
    5.4220   -3.1200   19.0660 O   0  0  0  0  0  0  0  0  0  0  0  0
    6.2910   -2.7970   19.9700 C   0  0  0  0  0  0  0  0  0  0  0  0
    9.3590   -2.2310   23.7790 C   0  0  0  0  0  0  0  0  0  0  0  0
    6.1150   -1.8050   20.9850 N   0  0  0  0  0  0  0  0  0  0  0  0
    5.8470   -2.3680   22.3100 C   0  0  0  0  0  0  0  0  0  0  0  0
    7.0590   -2.4680   23.2790 C   0  0  0  0  0  0  0  0  0  0  0  0
    8.1690   -1.6450   23.1090 N   0  0  0  0  0  0  0  0  0  0  0  0
    8.2970   -1.3120   21.6740 C   0  0  0  0  0  0  0  0  0  0  0  0
    7.0180   -0.6500   21.1760 C   0  0  2  0  0  0  0  0  0  0  0  0
   11.8610   -2.2550   23.4170 C   0  0  0  0  0  0  0  0  0  0  0  0
   13.1650   -1.5020   23.1280 C   0  0  0  0  0  0  0  0  0  0  0  0
   13.1730   -0.1100   22.9520 C   0  0  0  0  0  0  0  0  0  0  0  0
   11.9500    0.6050   23.0430 C   0  0  0  0  0  0  0  0  0  0  0  0
   10.7380   -0.0470   23.3040 C   0  0  0  0  0  0  0  0  0  0  0  0
   10.6950   -1.4360   23.4950 C   0  0  0  0  0  0  0  0  0  0  0  0
   12.0060    1.9740   22.8680 C   0  0  0  0  0  0  0  0  0  0  0  0
   10.7340    2.7690   22.9360 C   0  0  0  0  0  0  0  0  0  0  0  0
    9.5470    2.0590   23.2120 C   0  0  0  0  0  0  0  0  0  0  0  0
    9.5560    0.7090   23.3820 C   0  0  0  0  0  0  0  0  0  0  0  0
    6.7910    0.3080   22.4330 C   0  0  0  0  0  0  0  0  0  0  0  0
  1  2  2  0
  1  3  1  0
  3  4  1  0
  4  5  2  0
  4  7  1  0
  7  8  2  0
  6  9  1  0
  1 10  1  0
  9 10  2  0
 10 11  1  0
 11 12  2  0
 12 13  1  0
  9 14  1  0
 13 14  2  0
  8 15  1  0
 15 16  1  0
 16 17  2  0
 17 18  1  0
 18 19  2  0
  5 20  1  0
 15 20  2  0
 19 20  1  0
 21 23  1  0
 22 23  2  0
 23 25  1  0
 25 26  1  0
 26 27  1  0
 24 28  1  0
 27 28  1  0
 28 29  1  0
 25 30  1  0
 29 30  1  0
 31 32  2  0
 32 33  1  0
 33 34  2  0
 34 35  1  0
 24 36  1  0
 31 36  1  0
 35 36  2  0
 34 37  1  0
 37 38  2  0
 38 39  1  0
 35 40  1  0
 39 40  2  0
  8 41  1  0
 30 41  1  1
M  END
