x0426-x0755-x2694
     RDKit          3D

 63 68  0  0  0  0  0  0  0  0999 V2000
    7.3930   -0.8880   21.9430 N   0  0  0  0  0  0  0  0  0  0  0  0
    7.8170    2.4450   22.8890 N   0  0  0  0  0  0  0  0  0  0  0  0
    8.9520    1.5800   21.0720 O   0  0  0  0  0  0  0  0  0  0  0  0
   11.2390    6.8590   23.9090 O   0  0  0  0  0  0  0  0  0  0  0  0
    6.8810    0.4870   21.7600 C   0  0  1  0  0  0  0  0  0  0  0  0
    8.0110    1.5550   21.8560 C   0  0  0  0  0  0  0  0  0  0  0  0
   10.2650    2.0540   23.9980 C   0  0  0  0  0  0  0  0  0  0  0  0
   11.8700    6.6560   24.9430 C   0  0  0  0  0  0  0  0  0  0  0  0
   12.3250   -1.3710   23.2240 C   0  0  0  0  0  0  0  0  0  0  0  0
   12.8810    0.0130   23.5010 C   0  0  0  0  0  0  0  0  0  0  0  0
   12.8600   -1.8300   21.8610 C   0  0  0  0  0  0  0  0  0  0  0  0
   12.8300   -2.3450   24.3110 C   0  0  0  0  0  0  0  0  0  0  0  0
    2.2740    1.7010   23.9580 C   0  0  0  0  0  0  0  0  0  0  0  0
    2.0750    0.5100   23.7700 O   0  0  0  0  0  0  0  0  0  0  0  0
    3.4030    2.3240   23.6030 N   0  0  0  0  0  0  0  0  0  0  0  0
    4.3670    1.7410   22.6810 C   0  0  0  0  0  0  0  0  0  0  0  0
    4.2320    2.0330   21.3340 C   0  0  0  0  0  0  0  0  0  0  0  0
    2.7650    4.2790   25.2510 F   0  0  0  0  0  0  0  0  0  0  0  0
    4.5930   -6.4810   26.5560 O   0  0  0  0  0  0  0  0  0  0  0  0
    6.3620   -4.7990   27.0580 O   0  0  0  0  0  0  0  0  0  0  0  0
    5.7220   -5.2960   20.0130 O   0  0  0  0  0  0  0  0  0  0  0  0
    6.4540   -4.4630   20.5210 C   0  0  0  0  0  0  0  0  0  0  0  0
    7.2330   -3.4730   19.6560 C   0  0  0  0  0  0  0  0  0  0  0  0
    2.1190   -5.4830   26.2040 F   0  0  0  0  0  0  0  0  0  0  0  0
    5.6980   -2.0120   26.0530 F   0  0  0  0  0  0  0  0  0  0  0  0
    5.2860   -5.2550   26.2250 S   0  0  0  0  0  0  0  0  0  0  0  0
    6.7520   -2.1160   21.4310 C   0  0  0  0  0  0  0  0  0  0  0  0
    6.2090   -2.9460   22.4250 C   0  0  0  0  0  0  0  0  0  0  0  0
    6.5400    0.2320   17.9680 N   0  0  0  0  0  0  0  0  0  0  0  0
    5.3220    0.9730   17.8220 C   0  0  0  0  0  0  0  0  0  0  0  0
    4.6470    1.5010   18.8450 C   0  0  0  0  0  0  0  0  0  0  0  0
    5.0570    1.4030   20.2410 C   0  0  0  0  0  0  0  0  0  0  0  0
    6.2320    0.7020   20.3910 C   0  0  0  0  0  0  0  0  0  0  0  0
    6.8990    0.1570   19.2710 C   0  0  0  0  0  0  0  0  0  0  0  0
    8.7230   -1.1960   24.1580 N   0  0  0  0  0  0  0  0  0  0  0  0
   10.0970   -1.3220   24.4100 O   0  0  0  0  0  0  0  0  0  0  0  0
   10.8200   -1.2740   23.2410 C   0  0  0  0  0  0  0  0  0  0  0  0
    9.9260   -1.1190   22.2060 C   0  0  0  0  0  0  0  0  0  0  0  0
    8.6580   -1.0590   22.6780 C   0  0  0  0  0  0  0  0  0  0  0  0
    9.7920    3.4430   23.6300 C   0  0  0  0  0  0  0  0  0  0  0  0
   10.7080    4.4680   23.9130 C   0  0  0  0  0  0  0  0  0  0  0  0
   10.2980    5.9200   23.5840 C   0  0  0  0  0  0  0  0  0  0  0  0
    8.9030    6.1790   22.9370 C   0  0  0  0  0  0  0  0  0  0  0  0
    7.9830    4.9940   22.6600 C   0  0  0  0  0  0  0  0  0  0  0  0
    8.5520    3.6300   23.0690 C   0  0  0  0  0  0  0  0  0  0  0  0
    1.5100    3.8090   25.2500 C   0  0  0  0  0  0  0  0  0  0  0  0
    1.1910    2.5750   24.6480 C   0  0  0  0  0  0  0  0  0  0  0  0
   -0.1220    2.0800   24.6480 C   0  0  0  0  0  0  0  0  0  0  0  0
   -1.1780    2.7630   25.2320 C   0  0  0  0  0  0  0  0  0  0  0  0
   -0.9150    4.1150   25.9090 C   0  0  0  0  0  0  0  0  0  0  0  0
    0.5270    4.6080   25.8820 C   0  0  0  0  0  0  0  0  0  0  0  0
    2.5770   -4.2220   26.1460 C   0  0  0  0  0  0  0  0  0  0  0  0
    4.0960   -3.9580   26.1430 C   0  0  0  0  0  0  0  0  0  0  0  0
    4.4470   -2.4740   26.0680 C   0  0  0  0  0  0  0  0  0  0  0  0
    3.2920   -1.4840   26.0100 C   0  0  0  0  0  0  0  0  0  0  0  0
    1.9500   -1.8410   26.0230 C   0  0  0  0  0  0  0  0  0  0  0  0
    1.5820   -3.2010   26.0920 C   0  0  0  0  0  0  0  0  0  0  0  0
    6.4330   -4.4300   22.0540 C   0  0  0  0  0  0  0  0  0  0  0  0
    7.5000   -4.9750   22.7400 C   0  0  0  0  0  0  0  0  0  0  0  0
    7.2780   -5.0150   24.2950 C   0  0  0  0  0  0  0  0  0  0  0  0
    5.8890   -5.4680   24.6460 N   0  0  0  0  0  0  0  0  0  0  0  0
    4.8390   -5.1150   23.7370 C   0  0  0  0  0  0  0  0  0  0  0  0
    5.2300   -5.3140   22.4430 C   0  0  0  0  0  0  0  0  0  0  0  0
  1  5  1  0
  2  6  1  0
  3  6  2  0
  5  6  1  6
  4  8  1  0
  9 10  1  0
  9 11  1  0
  9 12  1  0
 13 14  2  0
 13 15  1  0
 15 16  1  0
 16 17  1  0
 21 22  2  0
 22 23  1  0
 19 26  2  0
 20 26  2  0
  1 27  1  0
 27 28  1  0
 29 30  2  0
 30 31  1  0
 17 32  1  0
 31 32  2  0
  5 33  1  0
 32 33  1  0
 29 34  1  0
 33 34  2  0
 35 36  1  0
  9 37  1  0
 36 37  1  0
 37 38  2  0
  1 39  1  0
 35 39  2  0
 38 39  1  0
  7 40  1  0
 40 41  2  0
  4 42  1  0
 41 42  1  0
 42 43  2  0
 43 44  1  0
  2 45  1  0
 40 45  1  0
 44 45  2  0
 18 46  1  0
 13 47  1  0
 46 47  2  0
 47 48  1  0
 48 49  2  0
 49 50  1  0
 46 51  1  0
 50 51  2  0
 24 52  1  0
 26 53  1  0
 52 53  2  0
 25 54  1  0
 53 54  1  0
 54 55  2  0
 55 56  1  0
 52 57  1  0
 56 57  2  0
 58 22  1  0
 28 58  1  0
 58 59  1  0
 59 60  1  0
 26 61  1  0
 60 61  1  0
 61 62  1  0
 58 63  1  0
 62 63  1  0
M  END
