x0426-x2694-x0691-x0731
     RDKit          3D

 67 76  0  0  0  0  0  0  0  0999 V2000
    6.7310   -1.3440   22.0310 N   0  0  0  0  0  0  0  0  0  0  0  0
    6.3310   -4.1970   20.2170 C   0  0  0  0  0  0  0  0  0  0  0  0
    4.6210   -3.0680   21.7590 O   0  0  0  0  0  0  0  0  0  0  0  0
    5.9300   -2.7730   20.1090 C   0  0  0  0  0  0  0  0  0  0  0  0
    7.6640    2.1590   22.8190 N   0  0  0  0  0  0  0  0  0  0  0  0
    8.9970    0.8540   21.4390 O   0  0  0  0  0  0  0  0  0  0  0  0
    5.7220   -2.3710   21.4540 C   0  0  0  0  0  0  0  0  0  0  0  0
   10.9740    6.6430   23.8570 O   0  0  0  0  0  0  0  0  0  0  0  0
    6.6530    0.1370   21.6410 C   0  0  1  0  0  0  0  0  0  0  0  0
    7.9030    1.0670   21.9570 C   0  0  0  0  0  0  0  0  0  0  0  0
   10.2780    1.8520   24.0710 C   0  0  0  0  0  0  0  0  0  0  0  0
   11.8430    6.4770   24.9770 C   0  0  0  0  0  0  0  0  0  0  0  0
   11.9340   -1.5770   23.1880 C   0  0  0  0  0  0  0  0  0  0  0  0
   12.4300   -0.1690   23.5870 C   0  0  0  0  0  0  0  0  0  0  0  0
   12.6370   -1.9510   21.8720 C   0  0  0  0  0  0  0  0  0  0  0  0
   12.4510   -2.5320   24.2890 C   0  0  0  0  0  0  0  0  0  0  0  0
    2.3400    2.1590   23.8930 C   0  0  0  0  0  0  0  0  0  0  0  0
    2.7130    1.0300   24.3620 N   0  0  0  0  0  0  0  0  0  0  0  0
    2.9070    2.7810   22.8220 N   0  0  0  0  0  0  0  0  0  0  0  0
    4.1040    2.3020   22.1670 C   0  0  0  0  0  0  0  0  0  0  0  0
    3.6780    1.2960   21.1020 C   0  0  0  0  0  0  0  0  0  0  0  0
    2.6880    4.4640   25.4790 F   0  0  0  0  0  0  0  0  0  0  0  0
    3.6740   -6.9520   23.9540 O   0  0  0  0  0  0  0  0  0  0  0  0
    4.4500   -5.2600   25.5270 O   0  0  0  0  0  0  0  0  0  0  0  0
    2.9390   -0.5770   25.9060 F   0  0  0  0  0  0  0  0  0  0  0  0
    4.6830   -5.9750   24.2900 S   0  0  0  0  0  0  0  0  0  0  0  0
    2.1250    0.4430   25.5350 C   0  0  2  0  0  0  0  0  0  0  0  0
    6.8060   -3.5580   26.3300 O   0  0  0  0  0  0  0  0  0  0  0  0
    6.2680   -5.9250   25.8030 O   0  0  0  0  0  0  0  0  0  0  0  0
    6.1060   -4.5130   25.5140 S   0  0  0  0  0  0  0  0  0  0  0  0
    6.4820    0.5750   17.9290 N   0  0  0  0  0  0  0  0  0  0  0  0
    5.2710    1.0920   17.7650 C   0  0  0  0  0  0  0  0  0  0  0  0
    4.3850    1.3160   18.7690 C   0  0  0  0  0  0  0  0  0  0  0  0
    4.7380    1.0150   20.0730 C   0  0  0  0  0  0  0  0  0  0  0  0
    6.0110    0.4970   20.3120 C   0  0  0  0  0  0  0  0  0  0  0  0
    6.8190    0.2930   19.1950 C   0  0  0  0  0  0  0  0  0  0  0  0
    8.3150   -1.8200   23.9010 N   0  0  0  0  0  0  0  0  0  0  0  0
    9.6740   -1.8610   24.1600 O   0  0  0  0  0  0  0  0  0  0  0  0
   10.3920   -1.5910   23.0470 C   0  0  0  0  0  0  0  0  0  0  0  0
    9.4450   -1.3790   22.0280 C   0  0  0  0  0  0  0  0  0  0  0  0
    8.1070   -1.5190   22.6080 C   0  0  0  0  0  0  0  0  0  0  0  0
    9.7320    3.1900   23.6580 C   0  0  0  0  0  0  0  0  0  0  0  0
   10.5220    4.3420   23.8910 C   0  0  0  0  0  0  0  0  0  0  0  0
   10.1000    5.6250   23.5550 C   0  0  0  0  0  0  0  0  0  0  0  0
    8.8550    5.7620   22.9540 C   0  0  0  0  0  0  0  0  0  0  0  0
    8.0510    4.6290   22.7040 C   0  0  0  0  0  0  0  0  0  0  0  0
    8.4630    3.3300   23.0500 C   0  0  0  0  0  0  0  0  0  0  0  0
    1.4510    3.9460   25.3820 C   0  0  0  0  0  0  0  0  0  0  0  0
    1.2160    2.8160   24.6180 C   0  0  0  0  0  0  0  0  0  0  0  0
   -0.0770    2.2900   24.5210 C   0  0  0  0  0  0  0  0  0  0  0  0
   -1.1310    2.9080   25.2020 C   0  0  0  0  0  0  0  0  0  0  0  0
   -0.8860    4.0460   25.9710 C   0  0  0  0  0  0  0  0  0  0  0  0
    0.4070    4.5670   26.0610 C   0  0  0  0  0  0  0  0  0  0  0  0
    6.3030   -4.7420   21.7620 C   0  0  2  0  0  0  0  0  0  0  0  0
    6.7800   -6.0620   22.2240 C   0  0  2  0  0  0  0  0  0  0  0  0
    5.3440   -6.1980   22.0080 C   0  0  0  0  0  0  0  0  0  0  0  0
    5.1670   -4.9390   22.9090 C   0  0  1  0  0  0  0  0  0  0  0  0
    6.2480   -4.1310   23.7270 C   0  0  2  0  0  0  0  0  0  0  0  0
    7.2770   -4.8010   22.8890 C   0  0  2  0  0  0  0  0  0  0  0  0
    0.4000   -1.3600   25.9550 C   0  0  0  0  0  0  0  0  0  0  0  0
    2.8250   -2.1620   25.8530 C   0  0  0  0  0  0  0  0  0  0  0  0
    4.0180   -3.0640   25.7460 C   0  0  0  0  0  0  0  0  0  0  0  0
    3.1900   -4.0540   26.5600 C   0  0  0  0  0  0  0  0  0  0  0  0
    1.9670   -4.4730   26.7190 C   0  0  0  0  0  0  0  0  0  0  0  0
    1.8800   -3.5270   25.7270 C   0  0  2  0  0  0  0  0  0  0  0  0
    1.5420   -2.2020   25.8670 C   0  0  0  0  0  0  0  0  0  0  0  0
    0.7110   -0.0520   25.2520 C   0  0  0  0  0  0  0  0  0  0  0  0
  2  4  1  0
  1  7  1  0
  3  7  2  0
  4  7  1  0
  1  9  1  0
  5 10  1  0
  6 10  2  0
  9 10  1  6
  8 12  1  0
 13 14  1  0
 13 15  1  0
 13 16  1  0
 17 18  2  3
 17 19  1  0
 19 20  1  0
 20 21  1  0
 23 26  2  0
 24 26  2  0
 18 27  1  0
 27 25  1  6
 28 30  2  0
 29 30  2  0
 31 32  2  0
 32 33  1  0
 21 34  1  0
 33 34  2  0
  9 35  1  0
 34 35  1  0
 31 36  1  0
 35 36  2  0
 37 38  1  0
 13 39  1  0
 38 39  1  0
 39 40  2  0
  1 41  1  0
 37 41  2  0
 40 41  1  0
 11 42  1  0
 42 43  2  0
  8 44  1  0
 43 44  1  0
 44 45  2  0
 45 46  1  0
  5 47  1  0
 42 47  1  0
 46 47  2  0
 22 48  1  0
 17 49  1  0
 48 49  2  0
 49 50  1  0
 50 51  2  0
 51 52  1  0
 48 53  1  0
 52 53  2  0
 54  2  1  6
 54 55  1  0
 55 56  1  1
 57 26  1  1
 54 57  1  0
 57 56  1  0
 58 30  1  1
 57 58  1  0
 54 59  1  0
 55 59  1  0
 59 58  1  1
 61 62  1  0
 62 63  1  0
 63 64  2  0
 61 65  1  0
 63 65  1  0
 65 64  1  1
 60 66  1  0
 61 66  2  0
 65 66  1  0
 27 67  1  0
 60 67  1  0
M  END
