x0426-x2754-x2694
     RDKit          3D

 61 66  0  0  0  0  0  0  0  0999 V2000
    7.4750   -1.1890   22.2500 C   0  0  2  0  0  0  0  0  0  0  0  0
    7.7630    2.3060   22.7380 N   0  0  0  0  0  0  0  0  0  0  0  0
    9.0040    1.3460   21.0510 O   0  0  0  0  0  0  0  0  0  0  0  0
   11.0420    6.7600   24.0200 O   0  0  0  0  0  0  0  0  0  0  0  0
    6.9380    0.2170   21.7080 C   0  0  1  0  0  0  0  0  0  0  0  0
    8.0320    1.3310   21.7790 C   0  0  0  0  0  0  0  0  0  0  0  0
   10.2690    1.9440   24.0830 C   0  0  0  0  0  0  0  0  0  0  0  0
   11.8830    6.4990   25.1390 C   0  0  0  0  0  0  0  0  0  0  0  0
   12.5170   -1.3380   23.1110 C   0  0  0  0  0  0  0  0  0  0  0  0
   12.9520   -0.0350   23.3080 C   0  0  0  0  0  0  0  0  0  0  0  0
   13.0290   -1.8900   21.7740 C   0  0  0  0  0  0  0  0  0  0  0  0
   13.0660   -2.2050   24.2770 C   0  0  0  0  0  0  0  0  0  0  0  0
    2.3080    1.8360   23.8640 C   0  0  0  0  0  0  0  0  0  0  0  0
    2.2120    0.4040   23.7720 O   0  0  0  0  0  0  0  0  0  0  0  0
    3.4780    2.5400   23.2460 N   0  0  0  0  0  0  0  0  0  0  0  0
    4.3890    1.6640   22.4450 C   0  0  0  0  0  0  0  0  0  0  0  0
    3.8280    1.4570   21.1910 C   0  0  0  0  0  0  0  0  0  0  0  0
    2.7390    4.3850   25.2820 F   0  0  0  0  0  0  0  0  0  0  0  0
    4.9610   -3.4160   25.3880 C   0  0  0  0  0  0  0  0  0  0  0  0
    3.6130   -3.6360   25.7380 O   0  0  0  0  0  0  0  0  0  0  0  0
    5.8850   -2.9740   26.4360 N   0  0  0  0  0  0  0  0  0  0  0  0
    5.0250   -4.2090   19.6480 O   0  0  0  0  0  0  0  0  0  0  0  0
    5.9830   -3.6340   20.1110 C   0  0  0  0  0  0  0  0  0  0  0  0
    7.0260   -3.0520   19.1750 C   0  0  0  0  0  0  0  0  0  0  0  0
    5.2750   -2.2650   27.5940 C   0  0  0  0  0  0  0  0  0  0  0  0
    6.7730   -0.9400   23.5570 C   0  0  0  0  0  0  0  0  0  0  0  0
    6.5240    0.2080   18.0430 N   0  0  0  0  0  0  0  0  0  0  0  0
    5.3030    0.7370   17.8570 C   0  0  0  0  0  0  0  0  0  0  0  0
    4.4680    1.1200   18.8610 C   0  0  0  0  0  0  0  0  0  0  0  0
    4.8660    0.9870   20.1860 C   0  0  0  0  0  0  0  0  0  0  0  0
    6.1690    0.4480   20.4310 C   0  0  0  0  0  0  0  0  0  0  0  0
    6.9160    0.0780   19.3160 C   0  0  0  0  0  0  0  0  0  0  0  0
    8.9890   -1.5460   24.0660 N   0  0  0  0  0  0  0  0  0  0  0  0
   10.3440   -1.5950   24.3290 O   0  0  0  0  0  0  0  0  0  0  0  0
   11.0070   -1.3540   23.1710 C   0  0  0  0  0  0  0  0  0  0  0  0
   10.1070   -1.1450   22.1540 C   0  0  0  0  0  0  0  0  0  0  0  0
    8.9050   -1.2720   22.7510 C   0  0  0  0  0  0  0  0  0  0  0  0
    9.7550    3.2990   23.6760 C   0  0  0  0  0  0  0  0  0  0  0  0
   10.5240    4.4490   23.9660 C   0  0  0  0  0  0  0  0  0  0  0  0
   10.1750    5.7620   23.6550 C   0  0  0  0  0  0  0  0  0  0  0  0
    8.9690    5.8750   23.0030 C   0  0  0  0  0  0  0  0  0  0  0  0
    8.1760    4.7810   22.6930 C   0  0  0  0  0  0  0  0  0  0  0  0
    8.5270    3.4640   23.0150 C   0  0  0  0  0  0  0  0  0  0  0  0
    1.4980    3.8720   25.2610 C   0  0  0  0  0  0  0  0  0  0  0  0
    1.2330    2.6650   24.6030 C   0  0  0  0  0  0  0  0  0  0  0  0
   -0.0480    2.0860   24.5510 C   0  0  0  0  0  0  0  0  0  0  0  0
   -1.2200    2.7910   25.2410 C   0  0  0  0  0  0  0  0  0  0  0  0
   -0.9500    4.0950   25.9560 C   0  0  0  0  0  0  0  0  0  0  0  0
    0.4900    4.5900   25.9200 C   0  0  0  0  0  0  0  0  0  0  0  0
    6.0590   -3.6070   21.4730 N   0  0  0  0  0  0  0  0  0  0  0  0
    7.0580   -2.7940   22.2550 C   0  0  2  0  0  0  0  0  0  0  0  0
    6.7320   -3.1440   23.7070 C   0  0  0  0  0  0  0  0  0  0  0  0
    5.4420   -3.6110   23.9260 C   0  0  1  0  0  0  0  0  0  0  0  0
    5.1750   -4.8710   23.4050 C   0  0  0  0  0  0  0  0  0  0  0  0
    5.8720   -4.9610   22.0560 C   0  0  0  0  0  0  0  0  0  0  0  0
    7.2350   -4.6510   27.5750 C   0  0  0  0  0  0  0  0  0  0  0  0
    8.4730   -5.2500   27.7900 C   0  0  0  0  0  0  0  0  0  0  0  0
    9.5860   -4.7920   27.1020 C   0  0  0  0  0  0  0  0  0  0  0  0
    9.4770   -3.7470   26.2010 C   0  0  0  0  0  0  0  0  0  0  0  0
    8.2460   -3.1540   25.9880 C   0  0  0  0  0  0  0  0  0  0  0  0
    7.1210   -3.5950   26.6700 C   0  0  0  0  0  0  0  0  0  0  0  0
  1  5  1  0
  2  6  1  0
  3  6  2  0
  5  6  1  6
  4  8  1  0
  9 10  1  0
  9 11  1  0
  9 12  1  0
 13 14  2  0
 13 15  1  0
 15 16  1  0
 16 17  1  0
 19 20  2  0
 19 21  1  0
 22 23  2  0
 23 24  1  0
 21 25  1  0
  1 26  1  1
 27 28  2  0
 28 29  1  0
 17 30  1  0
 29 30  2  0
  5 31  1  0
 30 31  1  0
 27 32  1  0
 31 32  2  0
 33 34  1  0
  9 35  1  0
 34 35  1  0
 35 36  2  0
  1 37  1  0
 33 37  2  0
 36 37  1  0
  7 38  1  0
 38 39  2  0
  4 40  1  0
 39 40  1  0
 40 41  2  0
 41 42  1  0
  2 43  1  0
 38 43  1  0
 42 43  2  0
 18 44  1  0
 13 45  1  0
 44 45  2  0
 45 46  1  0
 46 47  2  0
 47 48  1  0
 44 49  1  0
 48 49  2  0
 23 50  1  0
  1 51  1  0
 50 51  1  0
 51 52  1  1
 53 19  1  1
 52 53  1  0
 53 54  1  0
 50 55  1  0
 54 55  1  0
 56 57  2  0
 57 58  1  0
 58 59  2  0
 59 60  1  0
 21 61  1  0
 56 61  1  0
 60 61  2  0
M  END
