x0425-x1132
     RDKit          3D

 26 30  0  0  0  0  0  0  0  0999 V2000
    7.3650  -23.5330   -1.3270 C   0  0  0  0  0  0  0  0  0  0  0  0
    8.0810  -18.9530   -3.4370 C   0  0  0  0  0  0  0  0  0  0  0  0
    8.0250  -17.8720   -2.9030 O   0  0  0  0  0  0  0  0  0  0  0  0
    8.9190  -19.1280   -4.4520 C   0  0  0  0  0  0  0  0  0  0  0  0
    6.6120  -21.0260   -1.4700 C   0  0  1  0  0  0  0  0  0  0  0  0
    5.3940  -22.0150   -1.3300 C   0  0  1  0  0  0  0  0  0  0  0  0
    4.7110  -21.2340   -2.4000 C   0  0  0  0  0  0  0  0  0  0  0  0
    5.3360  -19.9970   -2.3320 C   0  0  0  0  0  0  0  0  0  0  0  0
    6.3020  -19.6130   -2.0670 C   0  0  1  0  0  0  0  0  0  0  0  0
    6.7200  -19.6240   -0.7660 C   0  0  0  0  0  0  0  0  0  0  0  0
    8.9350  -16.7180   -4.3240 C   0  0  0  0  0  0  0  0  0  0  0  0
    8.6030  -17.8500   -4.9790 N   0  0  0  0  0  0  0  0  0  0  0  0
    7.8930  -17.7010   -6.1740 N   0  0  0  0  0  0  0  0  0  0  0  0
    7.7810  -16.2600   -6.2170 C   0  0  0  0  0  0  0  0  0  0  0  0
    8.3740  -15.5950   -5.1700 C   0  0  0  0  0  0  0  0  0  0  0  0
    7.3720  -21.2930   -2.7400 C   0  0  0  0  0  0  0  0  0  0  0  0
    7.2220  -19.8930   -3.0710 N   0  0  0  0  0  0  0  0  0  0  0  0
    5.8880  -23.3160   -1.6540 C   0  0  0  0  0  0  0  0  0  0  0  0
    2.2010  -24.8140    1.3590 C   0  0  0  0  0  0  0  0  0  0  0  0
    3.2810  -25.6730    0.8370 N   0  0  0  0  0  0  0  0  0  0  0  0
    3.7600  -25.1930   -0.3400 C   0  0  0  0  0  0  0  0  0  0  0  0
    3.3550  -23.9440   -0.9090 C   0  0  0  0  0  0  0  0  0  0  0  0
    2.4580  -23.0320   -0.3860 N   0  0  0  0  0  0  0  0  0  0  0  0
    2.0490  -23.7090    0.6300 C   0  0  0  0  0  0  0  0  0  0  0  0
    4.5350  -21.9380   -0.0700 C   0  0  0  0  0  0  0  0  0  0  0  0
    3.1650  -21.7850   -0.2020 C   0  0  0  0  0  0  0  0  0  0  0  0
  2  3  2  0
  2  4  1  0
  5  6  1  0
  6  7  1  0
  7  8  1  0
  5  9  1  0
  9  8  1  6
  5 10  1  1
  9 10  1  0
  4 12  1  0
 11 12  1  0
 12 13  1  0
 13 14  2  0
 11 15  2  0
 14 15  1  0
  5 16  1  0
  2 17  1  0
  9 17  1  0
 16 17  1  0
  1 18  1  0
  6 18  1  6
 19 20  1  0
 20 21  1  0
 21 22  2  0
 22 23  1  0
 19 24  2  0
 23 24  1  0
  6 25  1  0
 23 26  1  0
 25 26  1  0
M  END
