x0426-x3110-x1375
     RDKit          3D

 60 64  0  0  0  0  0  0  0  0999 V2000
    7.8990    1.1300   23.3820 N   0  0  0  0  0  0  0  0  0  0  0  0
   13.4070    5.1650   22.7490 C   0  0  0  0  0  0  0  0  0  0  0  0
   11.8910    3.1430   22.5370 O   0  0  0  0  0  0  0  0  0  0  0  0
   12.3160    4.4010   22.0210 C   0  0  0  0  0  0  0  0  0  0  0  0
    6.7490   -1.3450   21.9530 N   0  0  0  0  0  0  0  0  0  0  0  0
   11.0020    4.2250   24.1520 O   0  0  0  0  0  0  0  0  0  0  0  0
   11.0600    3.2470   23.4190 C   0  0  0  0  0  0  0  0  0  0  0  0
    8.4660    0.8860   21.1370 O   0  0  0  0  0  0  0  0  0  0  0  0
   10.0830    2.0560   23.5250 C   0  0  0  0  0  0  0  0  0  0  0  0
    4.8170   -2.9900   21.2160 O   0  0  0  0  0  0  0  0  0  0  0  0
    8.7140    2.3590   23.3720 C   0  0  0  0  0  0  0  0  0  0  0  0
    7.6630    0.5970   22.0330 C   0  0  0  0  0  0  0  0  0  0  0  0
    6.4970   -0.2050   21.7720 C   0  0  1  0  0  0  0  0  0  0  0  0
    6.0600   -2.5900   21.5350 C   0  0  0  0  0  0  0  0  0  0  0  0
    7.1730   -3.5570   21.5130 C   0  0  2  0  0  0  0  0  0  0  0  0
    6.9890   -4.5740   20.4300 C   0  0  0  0  0  0  0  0  0  0  0  0
   12.2450   -1.7730   24.2280 C   0  0  0  0  0  0  0  0  0  0  0  0
   12.5200   -0.6200   24.9320 C   0  0  0  0  0  0  0  0  0  0  0  0
   13.2880   -1.8930   23.0830 C   0  0  0  0  0  0  0  0  0  0  0  0
   12.2930   -2.9920   24.9060 C   0  0  0  0  0  0  0  0  0  0  0  0
    2.2440    1.7560   23.8690 C   0  0  0  0  0  0  0  0  0  0  0  0
    2.1340    0.5300   23.8140 O   0  0  0  0  0  0  0  0  0  0  0  0
    3.3680    2.4980   23.2700 N   0  0  0  0  0  0  0  0  0  0  0  0
    4.2640    1.6270   22.4810 C   0  0  0  0  0  0  0  0  0  0  0  0
    3.8400    1.5830   21.1580 C   0  0  0  0  0  0  0  0  0  0  0  0
    2.7340    4.3170   25.2530 F   0  0  0  0  0  0  0  0  0  0  0  0
   10.1000   -5.0890   26.3630 F   0  0  0  0  0  0  0  0  0  0  0  0
    6.4100    0.4560   17.8440 N   0  0  0  0  0  0  0  0  0  0  0  0
    5.2160    1.2880   17.7050 C   0  0  0  0  0  0  0  0  0  0  0  0
    4.3690    1.6320   18.8900 C   0  0  0  0  0  0  0  0  0  0  0  0
    4.8710    1.0760   20.1750 C   0  0  0  0  0  0  0  0  0  0  0  0
    6.1030    0.2330   20.3870 C   0  0  0  0  0  0  0  0  0  0  0  0
    6.8760   -0.0770   19.1200 C   0  0  0  0  0  0  0  0  0  0  0  0
    9.2730   -1.6020   21.6610 C   0  0  0  0  0  0  0  0  0  0  0  0
   10.5990   -1.7100   22.1320 C   0  0  0  0  0  0  0  0  0  0  0  0
   10.8410   -1.6680   23.6230 C   0  0  0  0  0  0  0  0  0  0  0  0
    9.6630   -1.5150   24.5240 C   0  0  0  0  0  0  0  0  0  0  0  0
    8.3140   -1.4140   23.8670 C   0  0  0  0  0  0  0  0  0  0  0  0
    8.1210   -1.4560   22.4860 C   0  0  0  0  0  0  0  0  0  0  0  0
    1.5030    3.7890   25.2260 C   0  0  0  0  0  0  0  0  0  0  0  0
    1.2100    2.5640   24.5760 C   0  0  0  0  0  0  0  0  0  0  0  0
   -0.1130    2.1030   24.6080 C   0  0  0  0  0  0  0  0  0  0  0  0
   -1.1190    2.8040   25.2470 C   0  0  0  0  0  0  0  0  0  0  0  0
   -0.8510    4.0060   25.8870 C   0  0  0  0  0  0  0  0  0  0  0  0
    0.4460    4.4830   25.8710 C   0  0  0  0  0  0  0  0  0  0  0  0
    8.8300   -3.6540   23.3840 C   0  0  0  0  0  0  0  0  0  0  0  0
    9.6740   -3.7930   24.4370 C   0  0  0  0  0  0  0  0  0  0  0  0
    9.3600   -4.7950   25.2850 C   0  0  0  0  0  0  0  0  0  0  0  0
    8.2000   -5.4910   24.9070 C   0  0  0  0  0  0  0  0  0  0  0  0
    7.3120   -5.1900   23.6280 C   0  0  0  0  0  0  0  0  0  0  0  0
    7.7320   -4.1200   22.8000 C   0  0  0  0  0  0  0  0  0  0  0  0
    2.5440   -6.2500   24.7150 O   0  0  0  0  0  0  0  0  0  0  0  0
    4.1680   -8.0660   24.3200 O   0  0  0  0  0  0  0  0  0  0  0  0
    5.7160   -5.0590   24.3520 C   0  0  0  0  0  0  0  0  0  0  0  0
    5.1050   -5.0600   22.9400 C   0  0  0  0  0  0  0  0  0  0  0  0
    4.2220   -6.0860   22.7400 C   0  0  0  0  0  0  0  0  0  0  0  0
    3.8850   -6.6660   24.3680 S   0  0  0  0  0  0  0  0  0  0  0  0
    5.0850   -5.8700   25.2090 C   0  0  0  0  0  0  0  0  0  0  0  0
    8.1760   -4.7270   24.2070 C   0  0  0  0  0  0  0  0  0  0  0  0
    6.9260   -4.2360   24.7230 C   0  0  0  0  0  0  0  0  0  0  0  0
  2  4  1  0
  3  4  1  0
  3  7  1  0
  6  7  2  0
  7  9  1  0
  1 11  1  0
  9 11  1  0
  1 12  1  0
  8 12  2  0
  5 13  1  0
 13 12  1  6
  5 14  1  0
 10 14  2  0
 14 15  1  0
 15 16  1  6
 17 18  1  0
 17 19  1  0
 17 20  1  0
 21 22  2  0
 21 23  1  0
 23 24  1  0
 24 25  1  0
 28 29  2  0
 29 30  1  0
 25 31  1  0
 30 31  2  0
 13 32  1  0
 31 32  1  0
 28 33  1  0
 32 33  2  0
 34 35  2  0
 17 36  1  0
 35 36  1  0
 36 37  2  0
 37 38  1  0
  5 39  1  0
 34 39  1  0
 38 39  2  0
 26 40  1  0
 21 41  1  0
 40 41  2  0
 41 42  1  0
 42 43  2  0
 43 44  1  0
 40 45  1  0
 44 45  2  0
 46 47  2  0
 27 48  1  0
 47 48  1  0
 48 49  2  0
 49 50  1  0
 15 51  1  0
 46 51  1  0
 50 51  2  0
 54 55  1  0
 55 56  1  0
 57 52  1  0
 53 57  1  0
 56 57  1  0
 54 58  2  0
 57 58  1  0
 46 59  1  0
 54 60  1  0
 59 60  1  0
M  END
