x0426-x3110-x1493
     RDKit          3D

 54 58  0  0  0  0  0  0  0  0999 V2000
    8.0170    1.0480   23.2240 N   0  0  0  0  0  0  0  0  0  0  0  0
   13.4360    4.8740   22.7260 C   0  0  0  0  0  0  0  0  0  0  0  0
   11.9420    3.2110   22.4350 O   0  0  0  0  0  0  0  0  0  0  0  0
   12.3100    4.4580   22.0170 C   0  0  0  0  0  0  0  0  0  0  0  0
    6.9430   -1.6230   21.7610 C   0  0  2  0  0  0  0  0  0  0  0  0
   10.8220    4.1890   24.1500 O   0  0  0  0  0  0  0  0  0  0  0  0
   10.9950    3.2200   23.4230 C   0  0  0  0  0  0  0  0  0  0  0  0
    8.1840    1.3900   20.7640 O   0  0  0  0  0  0  0  0  0  0  0  0
   10.2100    2.0530   23.5640 C   0  0  0  0  0  0  0  0  0  0  0  0
    4.8700   -2.9660   20.5780 O   0  0  0  0  0  0  0  0  0  0  0  0
    8.8350    2.2790   23.3230 C   0  0  0  0  0  0  0  0  0  0  0  0
    7.5630    0.6990   21.8620 C   0  0  0  0  0  0  0  0  0  0  0  0
    6.5320   -0.2770   21.5960 C   0  0  1  0  0  0  0  0  0  0  0  0
    6.0930   -2.7990   21.0500 C   0  0  0  0  0  0  0  0  0  0  0  0
    6.8320   -4.0100   21.2060 C   0  0  1  0  0  0  0  0  0  0  0  0
    8.2990   -4.0590   20.8470 C   0  0  0  0  0  0  0  0  0  0  0  0
   12.3460   -1.8690   24.2590 C   0  0  0  0  0  0  0  0  0  0  0  0
   12.5550   -0.7010   24.9620 C   0  0  0  0  0  0  0  0  0  0  0  0
   13.3660   -1.8650   23.1150 C   0  0  0  0  0  0  0  0  0  0  0  0
   12.5790   -2.9980   24.9250 C   0  0  0  0  0  0  0  0  0  0  0  0
    2.3630    1.7670   23.7210 C   0  0  0  0  0  0  0  0  0  0  0  0
    2.3340    0.5240   23.6640 O   0  0  0  0  0  0  0  0  0  0  0  0
    3.4280    2.5580   23.0660 N   0  0  0  0  0  0  0  0  0  0  0  0
    4.4600    1.7510   22.4110 C   0  0  0  0  0  0  0  0  0  0  0  0
    3.8790    1.1450   21.2920 C   0  0  0  0  0  0  0  0  0  0  0  0
    2.7810    4.3830   25.2540 F   0  0  0  0  0  0  0  0  0  0  0  0
    4.7830   -5.9440   26.0020 C   0  0  0  0  0  0  0  0  0  0  0  0
    7.1130   -5.5470   26.7640 O   0  0  0  0  0  0  0  0  0  0  0  0
    6.1410   -5.7110   25.7430 C   0  0  0  0  0  0  0  0  0  0  0  0
    6.3730   -2.3960   22.9260 C   0  0  0  0  0  0  0  0  0  0  0  0
    6.4590    0.5090   17.8620 N   0  0  0  0  0  0  0  0  0  0  0  0
    5.2850    1.1650   17.8040 C   0  0  0  0  0  0  0  0  0  0  0  0
    4.4660    1.3630   18.9040 C   0  0  0  0  0  0  0  0  0  0  0  0
    4.8390    0.8910   20.1470 C   0  0  0  0  0  0  0  0  0  0  0  0
    6.0720    0.2170   20.2470 C   0  0  0  0  0  0  0  0  0  0  0  0
    6.8340    0.0470   19.0730 C   0  0  0  0  0  0  0  0  0  0  0  0
    9.5690   -1.3220   21.6370 C   0  0  0  0  0  0  0  0  0  0  0  0
   10.8190   -1.4040   22.2860 C   0  0  0  0  0  0  0  0  0  0  0  0
   10.9470   -1.8440   23.6160 C   0  0  0  0  0  0  0  0  0  0  0  0
    9.8030   -2.2200   24.2970 C   0  0  0  0  0  0  0  0  0  0  0  0
    8.5770   -2.1330   23.6360 C   0  0  0  0  0  0  0  0  0  0  0  0
    8.4160   -1.6880   22.3100 C   0  0  0  0  0  0  0  0  0  0  0  0
    1.5610    3.8280   25.2140 C   0  0  0  0  0  0  0  0  0  0  0  0
    1.3180    2.5240   24.4600 C   0  0  0  0  0  0  0  0  0  0  0  0
   -0.1130    2.0490   24.5260 C   0  0  0  0  0  0  0  0  0  0  0  0
   -1.1660    2.8830   25.3130 C   0  0  0  0  0  0  0  0  0  0  0  0
   -1.0120    4.0220   25.9850 C   0  0  0  0  0  0  0  0  0  0  0  0
    0.4450    4.5190   25.9290 C   0  0  0  0  0  0  0  0  0  0  0  0
    6.4650   -5.6830   24.3330 N   0  0  0  0  0  0  0  0  0  0  0  0
    7.2570   -4.6260   23.7550 C   0  0  0  0  0  0  0  0  0  0  0  0
    6.5460   -3.9790   22.6660 C   0  0  2  0  0  0  0  0  0  0  0  0
    5.1710   -4.4850   22.5570 N   0  0  0  0  0  0  0  0  0  0  0  0
    5.1340   -5.9180   22.3370 C   0  0  0  0  0  0  0  0  0  0  0  0
    5.7140   -6.4990   23.3960 C   0  0  0  0  0  0  0  0  0  0  0  0
  2  4  1  0
  3  4  1  0
  3  7  1  0
  6  7  2  0
  7  9  1  0
  1 11  1  0
  9 11  1  0
  1 12  1  0
  8 12  2  0
  5 13  1  0
 13 12  1  6
  5 14  1  0
 10 14  2  0
 14 15  1  0
 15 16  1  1
 17 18  1  0
 17 19  1  0
 17 20  1  0
 21 22  2  0
 21 23  1  0
 23 24  1  0
 24 25  1  0
 27 29  1  0
 28 29  2  0
  5 30  1  0
 31 32  2  0
 32 33  1  0
 25 34  1  0
 33 34  2  0
 13 35  1  0
 34 35  1  0
 31 36  1  0
 35 36  2  0
 37 38  2  0
 17 39  1  0
 38 39  1  0
 39 40  2  0
 40 41  1  0
  5 42  1  1
 37 42  1  0
 41 42  2  0
 26 43  1  0
 21 44  1  0
 43 44  2  0
 44 45  1  0
 45 46  2  0
 46 47  1  0
 43 48  1  0
 47 48  2  0
 29 49  1  0
 49 50  1  0
 15 51  1  0
 51 30  1  1
 50 51  1  0
 51 52  1  0
 52 53  1  0
 49 54  1  0
 53 54  1  0
M  END
