x0426-x2694-x1458-x1380
     RDKit          3D

 64 73  0  0  0  0  0  0  0  0999 V2000
    6.9930   -1.3590   21.8110 C   0  0  1  0  0  0  0  0  0  0  0  0
    7.0300   -4.5780   20.6130 C   0  0  0  0  0  0  0  0  0  0  0  0
    5.1510   -3.3910   20.7190 O   0  0  0  0  0  0  0  0  0  0  0  0
    7.7080    2.2060   22.7820 N   0  0  0  0  0  0  0  0  0  0  0  0
    8.8950    1.3100   21.0520 O   0  0  0  0  0  0  0  0  0  0  0  0
    5.8790   -2.3660   21.1310 C   0  0  0  0  0  0  0  0  0  0  0  0
   10.9730    6.7040   23.9630 O   0  0  0  0  0  0  0  0  0  0  0  0
    6.7400    0.2150   21.5890 C   0  0  1  0  0  0  0  0  0  0  0  0
    7.8990    1.2710   21.7680 C   0  0  0  0  0  0  0  0  0  0  0  0
   10.3190    1.8960   24.0180 C   0  0  0  0  0  0  0  0  0  0  0  0
   11.8750    6.4900   25.0470 C   0  0  0  0  0  0  0  0  0  0  0  0
   12.2120   -1.5660   23.1970 C   0  0  0  0  0  0  0  0  0  0  0  0
   12.6160   -0.1290   23.2870 C   0  0  0  0  0  0  0  0  0  0  0  0
   12.8390   -1.8090   21.8760 C   0  0  0  0  0  0  0  0  0  0  0  0
   12.4710   -2.4730   24.3420 C   0  0  0  0  0  0  0  0  0  0  0  0
    2.2900    1.8100   23.8570 C   0  0  0  0  0  0  0  0  0  0  0  0
    2.1110    0.6090   23.6900 O   0  0  0  0  0  0  0  0  0  0  0  0
    3.4240    2.4850   23.4340 N   0  0  0  0  0  0  0  0  0  0  0  0
    4.3870    1.7970   22.5900 C   0  0  0  0  0  0  0  0  0  0  0  0
    3.8720    1.6390   21.1560 C   0  0  0  0  0  0  0  0  0  0  0  0
    2.8000    4.2810   25.2030 F   0  0  0  0  0  0  0  0  0  0  0  0
    8.9540   -5.7700   26.3050 C   0  0  0  0  0  0  0  0  0  0  0  0
    5.1380   -3.2450   26.1770 O   0  0  0  0  0  0  0  0  0  0  0  0
    6.3780   -5.7310   26.9740 C   0  0  0  0  0  0  0  0  0  0  0  0
    8.3970   -2.9730   25.8360 C   0  0  0  0  0  0  0  0  0  0  0  0
    6.1660   -3.6820   25.6820 C   0  0  0  0  0  0  0  0  0  0  0  0
    6.2950   -1.8290   23.1470 C   0  0  0  0  0  0  0  0  0  0  0  0
    4.5460   -3.2360   24.7790 O   0  0  0  0  0  0  0  0  0  0  0  0
    4.6020   -4.3000   24.1630 C   0  0  0  0  0  0  0  0  0  0  0  0
    6.4370    0.5240   17.8900 N   0  0  0  0  0  0  0  0  0  0  0  0
    5.2700    1.1380   17.8070 C   0  0  0  0  0  0  0  0  0  0  0  0
    4.4290    1.5040   18.8580 C   0  0  0  0  0  0  0  0  0  0  0  0
    4.8610    1.2100   20.0880 C   0  0  0  0  0  0  0  0  0  0  0  0
    6.1050    0.5750   20.2410 C   0  0  0  0  0  0  0  0  0  0  0  0
    6.8420    0.2460   19.1180 C   0  0  0  0  0  0  0  0  0  0  0  0
    8.5800   -1.8290   23.7190 N   0  0  0  0  0  0  0  0  0  0  0  0
    9.9300   -1.8700   24.0650 O   0  0  0  0  0  0  0  0  0  0  0  0
   10.6970   -1.5770   22.9880 C   0  0  0  0  0  0  0  0  0  0  0  0
    9.7600   -1.3570   21.9560 C   0  0  0  0  0  0  0  0  0  0  0  0
    8.4400   -1.5110   22.4180 C   0  0  0  0  0  0  0  0  0  0  0  0
    9.7670    3.2350   23.6540 C   0  0  0  0  0  0  0  0  0  0  0  0
   10.5690    4.3750   23.9420 C   0  0  0  0  0  0  0  0  0  0  0  0
   10.1260    5.6800   23.6350 C   0  0  0  0  0  0  0  0  0  0  0  0
    8.8790    5.7840   23.0320 C   0  0  0  0  0  0  0  0  0  0  0  0
    8.1200    4.6660   22.7630 C   0  0  0  0  0  0  0  0  0  0  0  0
    8.5080    3.3660   23.0540 C   0  0  0  0  0  0  0  0  0  0  0  0
    1.5490    3.7940   25.1940 C   0  0  0  0  0  0  0  0  0  0  0  0
    1.2530    2.6010   24.5540 C   0  0  0  0  0  0  0  0  0  0  0  0
   -0.0680    2.1200   24.5640 C   0  0  0  0  0  0  0  0  0  0  0  0
   -1.1400    2.8170   25.2150 C   0  0  0  0  0  0  0  0  0  0  0  0
   -0.8030    4.0510   25.8720 C   0  0  0  0  0  0  0  0  0  0  0  0
    0.5400    4.5060   25.8400 C   0  0  0  0  0  0  0  0  0  0  0  0
    5.8850   -4.4280   22.4190 C   0  0  1  0  0  0  0  0  0  0  0  0
    6.7680   -3.5000   21.6830 C   0  0  2  0  0  0  0  0  0  0  0  0
    6.6000   -3.3100   23.1960 C   0  0  1  0  0  0  0  0  0  0  0  0
    6.1030   -4.1040   24.1920 C   0  0  1  0  0  0  0  0  0  0  0  0
    6.5830   -5.2800   23.5430 C   0  0  1  0  0  0  0  0  0  0  0  0
    5.9780   -5.9210   22.4260 C   0  0  0  0  0  0  0  0  0  0  0  0
    7.7960   -5.1420   27.0410 C   0  0  1  0  0  0  0  0  0  0  0  0
    8.0060   -5.2470   28.4460 C   0  0  0  0  0  0  0  0  0  0  0  0
    6.8060   -5.4830   29.0990 C   0  0  0  0  0  0  0  0  0  0  0  0
    5.9140   -4.8220   28.1270 C   0  0  1  0  0  0  0  0  0  0  0  0
    6.6040   -3.3870   27.9060 C   0  0  0  0  0  0  0  0  0  0  0  0
    7.3380   -3.7390   26.5960 C   0  0  1  0  0  0  0  0  0  0  0  0
  1  6  1  0
  3  6  2  0
  1  8  1  0
  4  9  1  0
  5  9  2  0
  8  9  1  6
  7 11  1  0
 12 13  1  0
 12 14  1  0
 12 15  1  0
 16 17  2  0
 16 18  1  0
 18 19  1  0
 19 20  1  0
 23 26  2  0
  1 27  1  0
 28 29  2  0
 30 31  2  0
 31 32  1  0
 20 33  1  0
 32 33  2  0
  8 34  1  0
 33 34  1  0
 30 35  1  0
 34 35  2  0
 36 37  1  0
 12 38  1  0
 37 38  1  0
 38 39  2  0
  1 40  1  1
 36 40  2  0
 39 40  1  0
 10 41  1  0
 41 42  2  0
  7 43  1  0
 42 43  1  0
 43 44  2  0
 44 45  1  0
  4 46  1  0
 41 46  1  0
 45 46  2  0
 21 47  1  0
 16 48  1  0
 47 48  2  0
 48 49  1  0
 49 50  2  0
 50 51  1  0
 47 52  1  0
 51 52  2  0
 54  2  1  1
  6 54  1  0
 53 54  1  0
 55 27  1  1
 53 55  1  0
 54 55  1  0
 56 26  1  0
 56 29  1  6
 55 56  1  0
 53 57  1  0
 56 57  1  0
 53 58  1  6
 57 58  1  1
 59 22  1  6
 24 59  1  0
 59 60  1  0
 60 61  1  0
 24 62  1  0
 62 61  1  1
 62 63  1  0
 64 25  1  6
 64 26  1  0
 59 64  1  0
 63 64  1  0
M  END
