x0426-x1418
     RDKit          3D

 35 39  0  0  0  0  0  0  0  0999 V2000
    2.4000    1.6490   23.8500 C   0  0  0  0  0  0  0  0  0  0  0  0
    2.2270    0.4210   23.7760 O   0  0  0  0  0  0  0  0  0  0  0  0
    3.5650    2.2500   23.3460 N   0  0  0  0  0  0  0  0  0  0  0  0
    4.2810    1.6470   22.3230 C   0  0  0  0  0  0  0  0  0  0  0  0
    4.0800    2.0840   21.1080 C   0  0  0  0  0  0  0  0  0  0  0  0
    2.8160    4.2450   25.2070 F   0  0  0  0  0  0  0  0  0  0  0  0
    7.3990   -3.4860   19.3560 C   0  0  0  0  0  0  0  0  0  0  0  0
    5.1070   -3.5410   19.3610 O   0  0  0  0  0  0  0  0  0  0  0  0
    6.1210   -3.0850   19.9040 C   0  0  0  0  0  0  0  0  0  0  0  0
    9.7720   -2.5620   23.1990 C   0  0  0  0  0  0  0  0  0  0  0  0
    5.2420    0.5280   22.6970 C   0  0  0  0  0  0  0  0  0  0  0  0
    6.0290   -0.2300   22.0590 C   0  0  0  0  0  0  0  0  0  0  0  0
    1.5830    3.7250   25.1650 C   0  0  0  0  0  0  0  0  0  0  0  0
    1.3090    2.4950   24.5360 C   0  0  0  0  0  0  0  0  0  0  0  0
   -0.0180    2.0400   24.5500 C   0  0  0  0  0  0  0  0  0  0  0  0
   -1.0290    2.7810   25.1650 C   0  0  0  0  0  0  0  0  0  0  0  0
   -0.7370    3.9990   25.7840 C   0  0  0  0  0  0  0  0  0  0  0  0
    0.5700    4.4740   25.7850 C   0  0  0  0  0  0  0  0  0  0  0  0
    5.7990    0.3050   20.6150 C   0  0  0  0  0  0  0  0  0  0  0  0
    6.4870   -0.2190   19.4890 C   0  0  0  0  0  0  0  0  0  0  0  0
    6.3760    0.1730   18.1920 N   0  0  0  0  0  0  0  0  0  0  0  0
    5.4710    1.2440   17.7980 C   0  0  0  0  0  0  0  0  0  0  0  0
    4.7510    1.8140   18.8120 C   0  0  0  0  0  0  0  0  0  0  0  0
    4.8910    1.3940   20.1220 C   0  0  0  0  0  0  0  0  0  0  0  0
    6.1950   -2.3290   21.0500 N   0  0  0  0  0  0  0  0  0  0  0  0
    6.2620   -3.0860   22.2570 C   0  0  0  0  0  0  0  0  0  0  0  0
    7.6480   -3.2160   22.9020 C   0  0  0  0  0  0  0  0  0  0  0  0
    8.5200   -2.1400   22.9270 N   0  0  0  0  0  0  0  0  0  0  0  0
    8.3750   -1.3110   21.7080 C   0  0  0  0  0  0  0  0  0  0  0  0
    6.9290   -1.0650   21.1350 C   0  0  2  0  0  0  0  0  0  0  0  0
   12.3200   -1.6100   22.8790 C   0  0  0  0  0  0  0  0  0  0  0  0
   10.8260   -1.4530   23.1460 C   0  0  0  0  0  0  0  0  0  0  0  0
   10.4340    0.1810   23.3890 S   0  0  0  0  0  0  0  0  0  0  0  0
   12.0430    0.6700   23.1780 C   0  0  0  0  0  0  0  0  0  0  0  0
   12.9560   -0.3380   22.9150 C   0  0  0  0  0  0  0  0  0  0  0  0
  1  2  2  0
  1  3  1  0
  3  4  1  0
  4  5  2  0
  7  9  1  0
  8  9  2  0
  4 11  1  0
 11 12  2  0
  6 13  1  0
  1 14  1  0
 13 14  2  0
 14 15  1  0
 15 16  2  0
 16 17  1  0
 13 18  1  0
 17 18  2  0
 12 19  1  0
 19 20  1  0
 20 21  2  0
 21 22  1  0
 22 23  2  0
  5 24  1  0
 19 24  2  0
 23 24  1  0
  9 25  1  0
 25 26  1  0
 26 27  1  0
 10 28  1  0
 27 28  1  0
 28 29  1  0
 30 12  1  1
 25 30  1  0
 29 30  1  0
 10 32  1  0
 31 32  2  0
 32 33  1  0
 33 34  1  0
 31 35  1  0
 34 35  2  0
M  END
