x0426-x0978-x2694
     RDKit          3D

 57 60  0  0  0  0  0  0  0  0999 V2000
    2.1290   -5.5430   23.2820 N   0  0  0  0  0  0  0  0  0  0  0  0
    2.1400   -8.1040   24.4050 C   0  0  0  0  0  0  0  0  0  0  0  0
    4.4590   -7.7280   24.7240 O   0  0  0  0  0  0  0  0  0  0  0  0
    3.3910   -7.1860   24.5390 C   0  0  1  0  0  0  0  0  0  0  0  0
    4.9550   -4.7150   21.9560 N   0  0  0  0  0  0  0  0  0  0  0  0
    1.0690   -7.3370   22.0130 O   0  0  0  0  0  0  0  0  0  0  0  0
    3.2790   -6.2900   23.3100 C   0  0  2  0  0  0  0  0  0  0  0  0
    5.0540   -4.9880   24.2600 O   0  0  0  0  0  0  0  0  0  0  0  0
    1.0300   -6.2740   22.6170 C   0  0  0  0  0  0  0  0  0  0  0  0
   -0.2700   -5.4380   22.8020 C   0  0  0  0  0  0  0  0  0  0  0  0
    4.4920   -5.3050   23.2230 C   0  0  0  0  0  0  0  0  0  0  0  0
    6.4360   -4.6860   21.8140 C   0  0  1  0  0  0  0  0  0  0  0  0
    6.5710   -4.9140   20.3220 C   0  0  0  0  0  0  0  0  0  0  0  0
    5.7390   -6.1010   19.8580 C   0  0  0  0  0  0  0  0  0  0  0  0
    7.5020   -1.1540   21.7930 N   0  0  0  0  0  0  0  0  0  0  0  0
    7.5330    2.8100   22.3820 N   0  0  0  0  0  0  0  0  0  0  0  0
    8.6590    1.3630   21.2030 O   0  0  0  0  0  0  0  0  0  0  0  0
   11.3940    6.7210   24.1610 O   0  0  0  0  0  0  0  0  0  0  0  0
    6.8920    0.1750   21.7660 C   0  0  1  0  0  0  0  0  0  0  0  0
    7.5020    1.4130   21.9410 C   0  0  0  0  0  0  0  0  0  0  0  0
   10.3720    2.0200   23.1350 C   0  0  0  0  0  0  0  0  0  0  0  0
   11.9460    6.4410   25.4330 C   0  0  0  0  0  0  0  0  0  0  0  0
   12.3220   -1.5750   23.4520 C   0  0  0  0  0  0  0  0  0  0  0  0
   13.0130   -1.5640   22.2620 C   0  0  0  0  0  0  0  0  0  0  0  0
   13.0440   -0.3680   23.0330 C   0  0  0  0  0  0  0  0  0  0  0  0
   12.8670   -2.2630   24.6780 C   0  0  0  0  0  0  0  0  0  0  0  0
    7.0350   -3.3790   22.3320 C   0  0  0  0  0  0  0  0  0  0  0  0
    6.5230   -2.2490   21.8180 C   0  0  0  0  0  0  0  0  0  0  0  0
    2.4720    1.9250   24.1430 C   0  0  0  0  0  0  0  0  0  0  0  0
    2.6920    0.8220   24.6290 O   0  0  0  0  0  0  0  0  0  0  0  0
    3.2820    2.4790   23.0300 N   0  0  0  0  0  0  0  0  0  0  0  0
    4.3090    1.5950   22.4710 C   0  0  0  0  0  0  0  0  0  0  0  0
    4.1300    1.9420   21.1440 C   0  0  0  0  0  0  0  0  0  0  0  0
    2.8020    4.6120   25.5280 F   0  0  0  0  0  0  0  0  0  0  0  0
    6.3250    0.4350   17.7520 N   0  0  0  0  0  0  0  0  0  0  0  0
    5.2380    1.1680   17.7080 C   0  0  0  0  0  0  0  0  0  0  0  0
    4.6250    1.5850   18.8760 C   0  0  0  0  0  0  0  0  0  0  0  0
    4.9780    1.3650   20.2250 C   0  0  0  0  0  0  0  0  0  0  0  0
    6.2710    0.5190   20.4410 C   0  0  0  0  0  0  0  0  0  0  0  0
    6.8420    0.1070   19.0980 C   0  0  0  0  0  0  0  0  0  0  0  0
    8.6830   -1.3460   23.9270 N   0  0  0  0  0  0  0  0  0  0  0  0
   10.0130   -1.4580   24.3430 O   0  0  0  0  0  0  0  0  0  0  0  0
   10.8480   -1.4630   23.2790 C   0  0  0  0  0  0  0  0  0  0  0  0
    9.9220   -1.3320   22.0940 C   0  0  0  0  0  0  0  0  0  0  0  0
    8.6410   -1.2700   22.5790 C   0  0  0  0  0  0  0  0  0  0  0  0
    9.9100    3.4380   23.2110 C   0  0  0  0  0  0  0  0  0  0  0  0
   10.7400    4.5000   23.6320 C   0  0  0  0  0  0  0  0  0  0  0  0
   10.4230    5.8750   23.7270 C   0  0  0  0  0  0  0  0  0  0  0  0
    9.0030    6.3190   23.3300 C   0  0  0  0  0  0  0  0  0  0  0  0
    8.0170    5.2880   22.8710 C   0  0  0  0  0  0  0  0  0  0  0  0
    8.4900    3.8160   22.8190 C   0  0  0  0  0  0  0  0  0  0  0  0
    1.5810    4.0750   25.3920 C   0  0  0  0  0  0  0  0  0  0  0  0
    1.3580    2.7350   24.7040 C   0  0  0  0  0  0  0  0  0  0  0  0
   -0.0970    2.2580   24.6270 C   0  0  0  0  0  0  0  0  0  0  0  0
   -1.1760    2.9710   25.1430 C   0  0  0  0  0  0  0  0  0  0  0  0
   -0.9920    4.2070   25.7850 C   0  0  0  0  0  0  0  0  0  0  0  0
    0.4530    4.7530   25.8970 C   0  0  0  0  0  0  0  0  0  0  0  0
  4  2  1  6
  3  4  1  0
  7  1  1  1
  4  7  1  0
  1  9  1  0
  6  9  2  0
  9 10  1  0
  5 11  1  0
  7 11  1  0
  8 11  2  0
  5 12  1  0
 12 13  1  6
 13 14  2  3
 15 19  1  0
 16 20  1  0
 17 20  2  0
 19 20  1  6
 18 22  1  0
 23 24  1  0
 23 25  1  0
 23 26  1  0
 12 27  1  0
 15 28  1  0
 27 28  1  0
 29 30  2  0
 29 31  1  0
 31 32  1  0
 32 33  1  0
 35 36  2  0
 36 37  1  0
 33 38  1  0
 37 38  2  0
 19 39  1  0
 38 39  1  0
 35 40  1  0
 39 40  2  0
 41 42  1  0
 23 43  1  0
 42 43  1  0
 43 44  2  0
 15 45  1  0
 41 45  2  0
 44 45  1  0
 21 46  1  0
 46 47  2  0
 18 48  1  0
 47 48  1  0
 48 49  2  0
 49 50  1  0
 16 51  1  0
 46 51  1  0
 50 51  2  0
 34 52  1  0
 29 53  1  0
 52 53  2  0
 53 54  1  0
 54 55  2  0
 55 56  1  0
 52 57  1  0
 56 57  2  0
M  END
