x0426-x3110-x2754
     RDKit          3D

 59 63  0  0  0  0  0  0  0  0999 V2000
    8.0360    1.0420   23.1220 N   0  0  0  0  0  0  0  0  0  0  0  0
   13.3770    5.1370   22.8790 C   0  0  0  0  0  0  0  0  0  0  0  0
   11.9890    3.1830   22.4370 O   0  0  0  0  0  0  0  0  0  0  0  0
   12.3640    4.4770   21.9480 C   0  0  0  0  0  0  0  0  0  0  0  0
    7.1330   -1.7470   21.4670 N   0  0  0  0  0  0  0  0  0  0  0  0
   10.8970    4.1990   24.1820 O   0  0  0  0  0  0  0  0  0  0  0  0
   11.0170    3.2100   23.4590 C   0  0  0  0  0  0  0  0  0  0  0  0
    8.2830    1.2360   20.8710 O   0  0  0  0  0  0  0  0  0  0  0  0
   10.2500    2.0440   23.5320 C   0  0  0  0  0  0  0  0  0  0  0  0
    5.0000   -3.1370   20.8850 O   0  0  0  0  0  0  0  0  0  0  0  0
    8.7220    2.2360   23.3910 C   0  0  0  0  0  0  0  0  0  0  0  0
    7.6810    0.6560   21.8020 C   0  0  0  0  0  0  0  0  0  0  0  0
    6.6520   -0.3260   21.4800 C   0  0  1  0  0  0  0  0  0  0  0  0
    6.2630   -2.9520   21.2920 C   0  0  0  0  0  0  0  0  0  0  0  0
    8.1780   -4.6740   21.1600 C   0  0  0  0  0  0  0  0  0  0  0  0
   12.2140   -1.9090   24.2890 C   0  0  0  0  0  0  0  0  0  0  0  0
   12.7410   -0.5330   24.6390 C   0  0  0  0  0  0  0  0  0  0  0  0
   13.2980   -1.4520   23.3800 C   0  0  0  0  0  0  0  0  0  0  0  0
   12.7680   -3.0580   25.1490 C   0  0  0  0  0  0  0  0  0  0  0  0
    2.2990    1.7930   23.7430 C   0  0  0  0  0  0  0  0  0  0  0  0
    2.2150    0.5660   23.7170 O   0  0  0  0  0  0  0  0  0  0  0  0
    3.3450    2.5080   23.0760 N   0  0  0  0  0  0  0  0  0  0  0  0
    4.2820    1.7760   22.4150 C   0  0  0  0  0  0  0  0  0  0  0  0
    3.8760    1.0910   21.2510 C   0  0  0  0  0  0  0  0  0  0  0  0
    2.7990    4.3060   25.2010 F   0  0  0  0  0  0  0  0  0  0  0  0
    4.7930   -3.4320   25.4870 C   0  0  0  0  0  0  0  0  0  0  0  0
    3.6190   -3.6570   25.7480 O   0  0  0  0  0  0  0  0  0  0  0  0
    5.7270   -2.9620   26.5080 N   0  0  0  0  0  0  0  0  0  0  0  0
    5.0660   -2.2980   27.6410 C   0  0  0  0  0  0  0  0  0  0  0  0
    6.5000    0.5520   17.8710 N   0  0  0  0  0  0  0  0  0  0  0  0
    5.2150    1.2440   17.8060 C   0  0  0  0  0  0  0  0  0  0  0  0
    4.3800    1.4100   18.9010 C   0  0  0  0  0  0  0  0  0  0  0  0
    4.7690    0.9040   20.1620 C   0  0  0  0  0  0  0  0  0  0  0  0
    6.0360    0.2440   20.2410 C   0  0  0  0  0  0  0  0  0  0  0  0
    6.7980    0.1110   19.0970 C   0  0  0  0  0  0  0  0  0  0  0  0
    9.6260   -1.2950   21.6500 C   0  0  0  0  0  0  0  0  0  0  0  0
   10.8220   -1.3500   22.3370 C   0  0  0  0  0  0  0  0  0  0  0  0
   10.8970   -1.9020   23.5990 C   0  0  0  0  0  0  0  0  0  0  0  0
    9.7470   -2.4000   24.1520 C   0  0  0  0  0  0  0  0  0  0  0  0
    8.5150   -2.3680   23.4940 C   0  0  0  0  0  0  0  0  0  0  0  0
    8.3820   -1.8160   22.2040 C   0  0  0  0  0  0  0  0  0  0  0  0
    1.5650    3.7760   25.1720 C   0  0  0  0  0  0  0  0  0  0  0  0
    1.2770    2.5870   24.4950 C   0  0  0  0  0  0  0  0  0  0  0  0
   -0.0410    2.1390   24.5400 C   0  0  0  0  0  0  0  0  0  0  0  0
   -1.0760    2.7830   25.2010 C   0  0  0  0  0  0  0  0  0  0  0  0
   -0.7860    3.9730   25.8780 C   0  0  0  0  0  0  0  0  0  0  0  0
    0.5250    4.4310   25.8410 C   0  0  0  0  0  0  0  0  0  0  0  0
    7.0660   -4.1570   21.7800 C   0  0  1  0  0  0  0  0  0  0  0  0
    7.5770   -3.6510   23.1290 C   0  0  0  0  0  0  0  0  0  0  0  0
    6.4800   -2.7860   23.7830 C   0  0  0  0  0  0  0  0  0  0  0  0
    5.2580   -3.6170   24.0200 C   0  0  1  0  0  0  0  0  0  0  0  0
    5.4750   -5.0890   23.6210 C   0  0  0  0  0  0  0  0  0  0  0  0
    6.0010   -5.2750   22.1880 C   0  0  0  0  0  0  0  0  0  0  0  0
    7.0440   -4.7110   27.6450 C   0  0  0  0  0  0  0  0  0  0  0  0
    8.2840   -5.3240   27.8750 C   0  0  0  0  0  0  0  0  0  0  0  0
    9.4340   -4.8620   27.2460 C   0  0  0  0  0  0  0  0  0  0  0  0
    9.3540   -3.7880   26.3790 C   0  0  0  0  0  0  0  0  0  0  0  0
    8.1200   -3.1830   26.1530 C   0  0  0  0  0  0  0  0  0  0  0  0
    6.9700   -3.6290   26.7760 C   0  0  0  0  0  0  0  0  0  0  0  0
  2  4  1  0
  3  4  1  0
  3  7  1  0
  6  7  2  0
  7  9  1  0
  1 11  1  0
  9 11  1  0
  1 12  1  0
  8 12  2  0
  5 13  1  0
 13 12  1  6
  5 14  1  0
 10 14  2  0
 16 17  1  0
 16 18  1  0
 16 19  1  0
 20 21  2  0
 20 22  1  0
 22 23  1  0
 23 24  1  0
 26 27  2  0
 26 28  1  0
 28 29  1  0
 30 31  2  0
 31 32  1  0
 24 33  1  0
 32 33  2  0
 13 34  1  0
 33 34  1  0
 30 35  1  0
 34 35  2  0
 36 37  2  0
 16 38  1  0
 37 38  1  0
 38 39  2  0
 39 40  1  0
  5 41  1  0
 36 41  1  0
 40 41  2  0
 25 42  1  0
 20 43  1  0
 42 43  2  0
 43 44  1  0
 44 45  2  0
 45 46  1  0
 42 47  1  0
 46 47  2  0
 48 14  1  0
 48 15  1  6
 48 49  1  0
 49 50  1  0
 51 26  1  1
 50 51  1  0
 51 52  1  0
 48 53  1  0
 52 53  1  0
 54 55  2  0
 55 56  1  0
 56 57  2  0
 57 58  1  0
 28 59  1  0
 54 59  1  0
 58 59  2  0
M  END
