x0426-x1334-x2694
     RDKit          3D

 55 60  0  0  0  0  0  0  0  0999 V2000
    7.6710    2.0630   22.7900 N   0  0  0  0  0  0  0  0  0  0  0  0
    9.2300    1.4010   21.2510 O   0  0  0  0  0  0  0  0  0  0  0  0
   10.9190    6.8260   23.9310 O   0  0  0  0  0  0  0  0  0  0  0  0
    7.3660   -0.0420   21.2440 C   0  0  1  0  0  0  0  0  0  0  0  0
    8.1620    1.1510   21.7720 C   0  0  0  0  0  0  0  0  0  0  0  0
   10.3340    1.8580   24.0200 C   0  0  0  0  0  0  0  0  0  0  0  0
   11.8790    6.6370   24.9890 C   0  0  0  0  0  0  0  0  0  0  0  0
   12.3230   -1.0810   23.1840 C   0  0  0  0  0  0  0  0  0  0  0  0
   12.6610    0.2460   23.3320 C   0  0  0  0  0  0  0  0  0  0  0  0
   13.0130   -1.6240   21.9240 C   0  0  0  0  0  0  0  0  0  0  0  0
   12.8480   -1.7940   24.3220 C   0  0  0  0  0  0  0  0  0  0  0  0
    2.4070    1.8590   23.5990 C   0  0  0  0  0  0  0  0  0  0  0  0
    2.4760    0.6220   23.6570 O   0  0  0  0  0  0  0  0  0  0  0  0
    3.2440    2.6470   22.8210 N   0  0  0  0  0  0  0  0  0  0  0  0
    4.5060    2.1160   22.5490 C   0  0  0  0  0  0  0  0  0  0  0  0
    4.3390    1.0640   21.6420 C   0  0  0  0  0  0  0  0  0  0  0  0
    2.9040    4.2810   25.1210 F   0  0  0  0  0  0  0  0  0  0  0  0
    7.3620   -2.9630   18.8180 C   0  0  0  0  0  0  0  0  0  0  0  0
    5.4940   -4.0890   19.7760 O   0  0  0  0  0  0  0  0  0  0  0  0
    7.0830   -5.8550   28.4110 Cl  0  0  0  0  0  0  0  0  0  0  0  0
    6.3830   -3.2260   19.9540 C   0  0  0  0  0  0  0  0  0  0  0  0
    9.7560   -3.0630   24.3000 C   0  0  0  0  0  0  0  0  0  0  0  0
    6.2910    0.8570   17.6250 N   0  0  0  0  0  0  0  0  0  0  0  0
    4.9910    1.4370   17.8130 C   0  0  0  0  0  0  0  0  0  0  0  0
    4.4180    1.4790   19.0870 C   0  0  0  0  0  0  0  0  0  0  0  0
    5.0950    0.9700   20.3770 C   0  0  0  0  0  0  0  0  0  0  0  0
    6.3840    0.4680   20.1520 C   0  0  0  0  0  0  0  0  0  0  0  0
    6.9550    0.3920   18.7680 C   0  0  0  0  0  0  0  0  0  0  0  0
    8.8800   -1.9810   23.7970 N   0  0  0  0  0  0  0  0  0  0  0  0
    9.8230   -0.9630   23.9730 O   0  0  0  0  0  0  0  0  0  0  0  0
   10.8570   -1.3760   23.0760 C   0  0  0  0  0  0  0  0  0  0  0  0
   10.1490   -2.1600   22.0600 C   0  0  0  0  0  0  0  0  0  0  0  0
    8.8140   -2.3020   22.3690 C   0  0  2  0  0  0  0  0  0  0  0  0
    9.7140    3.1840   23.6400 C   0  0  0  0  0  0  0  0  0  0  0  0
   10.5230    4.4530   23.9070 C   0  0  0  0  0  0  0  0  0  0  0  0
   10.1260    5.7530   23.6380 C   0  0  0  0  0  0  0  0  0  0  0  0
    8.8550    5.8520   23.0520 C   0  0  0  0  0  0  0  0  0  0  0  0
    8.0140    4.5800   22.7640 C   0  0  0  0  0  0  0  0  0  0  0  0
    8.4450    3.2790   23.0590 C   0  0  0  0  0  0  0  0  0  0  0  0
    1.6720    3.7540   25.1130 C   0  0  0  0  0  0  0  0  0  0  0  0
    1.3170    2.5960   24.4230 C   0  0  0  0  0  0  0  0  0  0  0  0
    0.0330    2.0720   24.4350 C   0  0  0  0  0  0  0  0  0  0  0  0
   -0.9930    2.6680   25.1380 C   0  0  0  0  0  0  0  0  0  0  0  0
   -0.7400    3.8400   25.8660 C   0  0  0  0  0  0  0  0  0  0  0  0
    0.5300    4.4350   25.9080 C   0  0  0  0  0  0  0  0  0  0  0  0
    6.4990   -2.5410   21.1840 N   0  0  0  0  0  0  0  0  0  0  0  0
    7.6520   -1.5860   21.4840 C   0  0  1  0  0  0  0  0  0  0  0  0
    8.4260   -3.6030   22.4110 N   0  0  0  0  0  0  0  0  0  0  0  0
    7.1540   -3.8240   23.1050 C   0  0  0  0  0  0  0  0  0  0  0  0
    6.0850   -3.3550   22.3290 C   0  0  0  0  0  0  0  0  0  0  0  0
    9.8370   -5.3590   25.4930 C   0  0  0  0  0  0  0  0  0  0  0  0
    9.1810   -4.0080   25.3480 C   0  0  0  0  0  0  0  0  0  0  0  0
    7.8740   -3.7880   26.4440 S   0  0  0  0  0  0  0  0  0  0  0  0
    8.0940   -5.3310   27.1360 C   0  0  0  0  0  0  0  0  0  0  0  0
    9.2350   -6.1030   26.4920 C   0  0  0  0  0  0  0  0  0  0  0  0
  1  5  1  0
  2  5  2  0
  4  5  1  6
  3  7  1  0
  8  9  1  0
  8 10  1  0
  8 11  1  0
 12 13  2  0
 12 14  1  0
 14 15  1  0
 15 16  1  0
 18 21  1  0
 19 21  2  0
 23 24  2  0
 24 25  1  0
 16 26  1  0
 25 26  2  0
  4 27  1  0
 26 27  1  0
 23 28  1  0
 27 28  2  0
 22 29  1  0
 29 30  1  0
  8 31  1  0
 30 31  1  0
 31 32  2  0
 29 33  1  0
 33 32  1  6
  6 34  1  0
 34 35  2  0
  3 36  1  0
 35 36  1  0
 36 37  2  0
 37 38  1  0
  1 39  1  0
 34 39  1  0
 38 39  2  0
 17 40  1  0
 12 41  1  0
 40 41  2  0
 41 42  1  0
 42 43  2  0
 43 44  1  0
 40 45  1  0
 44 45  2  0
 21 46  1  0
  4 47  1  0
 33 47  1  0
 47 46  1  1
 33 48  1  0
 48 49  1  0
 46 50  1  0
 49 50  1  0
 22 52  1  0
 51 52  2  0
 52 53  1  0
 20 54  1  0
 53 54  1  0
 51 55  1  0
 54 55  2  0
M  END
