x0426-x3110-x0734
     RDKit          3D

 58 62  0  0  0  0  0  0  0  0999 V2000
    8.0620    1.1770   23.1840 N   0  0  0  0  0  0  0  0  0  0  0  0
   13.4350    4.8370   22.7010 C   0  0  0  0  0  0  0  0  0  0  0  0
   11.8790    3.2040   22.5170 O   0  0  0  0  0  0  0  0  0  0  0  0
   12.2640    4.4340   22.0560 C   0  0  0  0  0  0  0  0  0  0  0  0
    7.0690   -1.6510   21.6070 N   0  0  0  0  0  0  0  0  0  0  0  0
   10.9380    4.2500   24.1260 O   0  0  0  0  0  0  0  0  0  0  0  0
   11.0420    3.2500   23.4110 C   0  0  0  0  0  0  0  0  0  0  0  0
    8.3640    1.3350   20.8840 O   0  0  0  0  0  0  0  0  0  0  0  0
   10.2680    2.0750   23.5000 C   0  0  0  0  0  0  0  0  0  0  0  0
    4.9800   -3.1090   20.8610 O   0  0  0  0  0  0  0  0  0  0  0  0
    8.8660    2.2780   23.4880 C   0  0  0  0  0  0  0  0  0  0  0  0
    7.7410    0.7720   21.8000 C   0  0  0  0  0  0  0  0  0  0  0  0
    6.7220   -0.2180   21.5190 C   0  0  1  0  0  0  0  0  0  0  0  0
    6.2420   -2.8610   21.2740 C   0  0  0  0  0  0  0  0  0  0  0  0
    8.3760   -4.5420   20.9480 C   0  0  0  0  0  0  0  0  0  0  0  0
   12.2920   -1.8110   24.2220 C   0  0  0  0  0  0  0  0  0  0  0  0
   12.4220   -0.5710   25.0830 C   0  0  0  0  0  0  0  0  0  0  0  0
   13.3540   -1.7250   23.1240 C   0  0  0  0  0  0  0  0  0  0  0  0
   12.6570   -3.0350   25.0710 C   0  0  0  0  0  0  0  0  0  0  0  0
    2.4020    1.7610   23.6510 C   0  0  0  0  0  0  0  0  0  0  0  0
    2.2480    0.5490   23.5320 O   0  0  0  0  0  0  0  0  0  0  0  0
    3.5920    2.4680   23.1120 N   0  0  0  0  0  0  0  0  0  0  0  0
    3.8990    2.3550   21.7750 C   0  0  0  0  0  0  0  0  0  0  0  0
    4.0170    1.0210   21.3640 C   0  0  0  0  0  0  0  0  0  0  0  0
    2.8970    4.2370   25.0990 F   0  0  0  0  0  0  0  0  0  0  0  0
    5.0680   -5.0550   26.7320 N   0  0  0  0  0  0  0  0  0  0  0  0
    4.3640   -5.7950   26.0260 O   0  0  0  0  0  0  0  0  0  0  0  0
    4.7090   -3.9160   27.0750 O   0  0  0  0  0  0  0  0  0  0  0  0
    6.3050    0.5500   17.8900 N   0  0  0  0  0  0  0  0  0  0  0  0
    5.0970    1.1420   17.8880 C   0  0  0  0  0  0  0  0  0  0  0  0
    4.3160    1.3100   19.0270 C   0  0  0  0  0  0  0  0  0  0  0  0
    4.7990    0.8610   20.2500 C   0  0  0  0  0  0  0  0  0  0  0  0
    6.0730    0.2630   20.2430 C   0  0  0  0  0  0  0  0  0  0  0  0
    6.8040    0.1050   19.0550 C   0  0  0  0  0  0  0  0  0  0  0  0
    9.4680   -2.0170   21.7130 C   0  0  0  0  0  0  0  0  0  0  0  0
   10.7240   -2.0640   22.3040 C   0  0  0  0  0  0  0  0  0  0  0  0
   10.8770   -1.7670   23.6350 C   0  0  0  0  0  0  0  0  0  0  0  0
    9.7440   -1.4200   24.3930 C   0  0  0  0  0  0  0  0  0  0  0  0
    8.4510   -1.3680   23.7780 C   0  0  0  0  0  0  0  0  0  0  0  0
    8.3050   -1.6720   22.3950 C   0  0  0  0  0  0  0  0  0  0  0  0
    1.6470    3.7580   25.0980 C   0  0  0  0  0  0  0  0  0  0  0  0
    1.3560    2.5510   24.4010 C   0  0  0  0  0  0  0  0  0  0  0  0
    0.0430    2.0470   24.3980 C   0  0  0  0  0  0  0  0  0  0  0  0
   -0.9730    2.7220   25.0730 C   0  0  0  0  0  0  0  0  0  0  0  0
   -0.7320    3.9030   25.7640 C   0  0  0  0  0  0  0  0  0  0  0  0
    0.6650    4.4930   25.8000 C   0  0  0  0  0  0  0  0  0  0  0  0
    6.5010   -5.2310   26.5610 C   0  0  0  0  0  0  0  0  0  0  0  0
    7.0770   -4.9520   25.2690 C   0  0  0  0  0  0  0  0  0  0  0  0
    8.5930   -5.1890   25.2640 C   0  0  0  0  0  0  0  0  0  0  0  0
    9.3990   -5.5930   26.2360 C   0  0  0  0  0  0  0  0  0  0  0  0
    8.6380   -5.8570   27.5940 C   0  0  0  0  0  0  0  0  0  0  0  0
    7.2640   -5.6540   27.6300 C   0  0  0  0  0  0  0  0  0  0  0  0
    7.1070   -4.0450   21.6220 C   0  0  0  0  0  0  0  0  0  0  0  0
    6.2360   -5.3280   21.9420 C   0  0  0  0  0  0  0  0  0  0  0  0
    5.7250   -5.4240   23.2320 C   0  0  0  0  0  0  0  0  0  0  0  0
    6.3750   -4.5160   24.1830 N   0  0  0  0  0  0  0  0  0  0  0  0
    6.7490   -3.2330   23.7420 C   0  0  0  0  0  0  0  0  0  0  0  0
    7.7480   -3.5870   22.9210 C   0  0  0  0  0  0  0  0  0  0  0  0
  2  4  1  0
  3  4  1  0
  3  7  1  0
  6  7  2  0
  7  9  1  0
  1 11  1  0
  9 11  1  0
  1 12  1  0
  8 12  2  0
  5 13  1  0
 13 12  1  6
  5 14  1  0
 10 14  2  0
 16 17  1  0
 16 18  1  0
 16 19  1  0
 20 21  2  0
 20 22  1  0
 22 23  1  0
 23 24  1  0
 26 27  2  0
 26 28  1  0
 29 30  2  0
 30 31  1  0
 24 32  1  0
 31 32  2  0
 13 33  1  0
 32 33  1  0
 29 34  1  0
 33 34  2  0
 35 36  2  0
 16 37  1  0
 36 37  1  0
 37 38  2  0
 38 39  1  0
  5 40  1  0
 35 40  1  0
 39 40  2  0
 25 41  1  0
 20 42  1  0
 41 42  2  0
 42 43  1  0
 43 44  2  0
 44 45  1  0
 41 46  1  0
 45 46  2  0
 26 47  1  0
 47 48  2  0
 48 49  1  0
 49 50  2  0
 50 51  1  0
 47 52  1  0
 51 52  2  0
 53 14  1  0
 15 53  1  0
 53 54  1  0
 54 55  1  0
 48 56  1  0
 55 56  1  0
 56 57  1  0
 53 58  1  0
 57 58  1  0
M  CHG  2  26   1  28  -1
M  END
