x0426-x2694-x0978-x1458
     RDKit          3D

 68 73  0  0  0  0  0  0  0  0999 V2000
    7.1910   -1.3980   21.4120 N   0  0  0  0  0  0  0  0  0  0  0  0
    6.8670   -5.0070   21.3650 C   0  0  0  0  0  0  0  0  0  0  0  0
    4.9320   -3.0070   20.9190 O   0  0  0  0  0  0  0  0  0  0  0  0
    7.6560    2.0180   22.7700 N   0  0  0  0  0  0  0  0  0  0  0  0
    8.9020    1.1290   21.0740 O   0  0  0  0  0  0  0  0  0  0  0  0
    6.2460   -2.5880   21.4180 C   0  0  0  0  0  0  0  0  0  0  0  0
   10.9200    6.5880   23.9160 O   0  0  0  0  0  0  0  0  0  0  0  0
    6.7240    0.0610   21.4140 C   0  0  1  0  0  0  0  0  0  0  0  0
    7.8710    1.0850   21.7340 C   0  0  0  0  0  0  0  0  0  0  0  0
   10.1640    1.7230   24.1160 C   0  0  0  0  0  0  0  0  0  0  0  0
   11.8190    6.4760   24.7600 C   0  0  0  0  0  0  0  0  0  0  0  0
   12.2020   -1.4420   22.9260 C   0  0  0  0  0  0  0  0  0  0  0  0
   12.6410   -0.0480   23.3620 C   0  0  0  0  0  0  0  0  0  0  0  0
   12.9110   -1.7520   21.5920 C   0  0  0  0  0  0  0  0  0  0  0  0
   12.8150   -2.4750   23.8840 C   0  0  0  0  0  0  0  0  0  0  0  0
    2.0610   -5.6800   22.9060 N   0  0  0  0  0  0  0  0  0  0  0  0
    2.2760   -7.9690   24.7520 C   0  0  0  0  0  0  0  0  0  0  0  0
    4.5910   -7.7530   24.5530 O   0  0  0  0  0  0  0  0  0  0  0  0
    3.4020   -7.0150   24.3630 C   0  0  1  0  0  0  0  0  0  0  0  0
    5.7660   -5.7850   22.0170 N   0  0  0  0  0  0  0  0  0  0  0  0
    0.8320   -7.3690   21.9320 O   0  0  0  0  0  0  0  0  0  0  0  0
    3.3150   -6.4530   22.9250 C   0  0  2  0  0  0  0  0  0  0  0  0
    4.1050   -4.3100   22.2580 O   0  0  0  0  0  0  0  0  0  0  0  0
    0.8840   -6.2790   22.4870 C   0  0  0  0  0  0  0  0  0  0  0  0
   -0.2560   -5.5290   22.7400 C   0  0  0  0  0  0  0  0  0  0  0  0
    4.4330   -5.4860   22.3700 C   0  0  0  0  0  0  0  0  0  0  0  0
    2.5340    2.0970   24.1210 C   0  0  0  0  0  0  0  0  0  0  0  0
    2.8620    1.0230   24.5920 O   0  0  0  0  0  0  0  0  0  0  0  0
    3.2260    2.6940   23.0770 N   0  0  0  0  0  0  0  0  0  0  0  0
    4.1850    2.0350   22.3630 C   0  0  0  0  0  0  0  0  0  0  0  0
    3.7540    1.5270   21.1720 C   0  0  0  0  0  0  0  0  0  0  0  0
    2.8450    4.5990   25.3520 F   0  0  0  0  0  0  0  0  0  0  0  0
    7.0800   -4.1260   26.1180 N   0  0  0  0  0  0  0  0  0  0  0  0
    9.0150   -4.8220   27.3200 C   0  0  0  0  0  0  0  0  0  0  0  0
    4.8980   -4.4790   26.2850 O   0  0  0  0  0  0  0  0  0  0  0  0
    7.7980   -5.1790   26.8840 C   0  0  0  0  0  0  0  0  0  0  0  0
    6.9620   -5.7030   27.9000 C   0  0  0  0  0  0  0  0  0  0  0  0
    7.2200   -2.7880   26.6480 C   0  0  0  0  0  0  0  0  0  0  0  0
    5.8960   -4.4690   25.5710 C   0  0  0  0  0  0  0  0  0  0  0  0
    6.3290    0.8670   17.6550 N   0  0  0  0  0  0  0  0  0  0  0  0
    5.1600    1.4780   17.6610 C   0  0  0  0  0  0  0  0  0  0  0  0
    4.3810    1.6690   18.7720 C   0  0  0  0  0  0  0  0  0  0  0  0
    4.7690    1.2290   20.1020 C   0  0  0  0  0  0  0  0  0  0  0  0
    6.0970    0.5640   20.1500 C   0  0  0  0  0  0  0  0  0  0  0  0
    6.7590    0.4440   18.8310 C   0  0  0  0  0  0  0  0  0  0  0  0
    8.5770   -2.2080   23.3570 N   0  0  0  0  0  0  0  0  0  0  0  0
    9.9340   -2.1950   23.6900 O   0  0  0  0  0  0  0  0  0  0  0  0
   10.6830   -1.5790   22.7500 C   0  0  0  0  0  0  0  0  0  0  0  0
    9.7250   -1.2110   21.7910 C   0  0  0  0  0  0  0  0  0  0  0  0
    8.4440   -1.6050   22.1670 C   0  0  0  0  0  0  0  0  0  0  0  0
    9.6630    3.0900   23.6760 C   0  0  0  0  0  0  0  0  0  0  0  0
   10.4760    4.1760   23.9630 C   0  0  0  0  0  0  0  0  0  0  0  0
   10.1590    5.4790   23.6430 C   0  0  0  0  0  0  0  0  0  0  0  0
    8.9720    5.6930   22.9920 C   0  0  0  0  0  0  0  0  0  0  0  0
    7.9660    4.6080   22.5960 C   0  0  0  0  0  0  0  0  0  0  0  0
    8.4310    3.2190   23.0180 C   0  0  0  0  0  0  0  0  0  0  0  0
    1.6270    4.0450   25.2960 C   0  0  0  0  0  0  0  0  0  0  0  0
    1.3720    2.8260   24.7120 C   0  0  0  0  0  0  0  0  0  0  0  0
    0.0040    2.1460   24.6210 C   0  0  0  0  0  0  0  0  0  0  0  0
   -1.1690    2.6620   25.1140 C   0  0  0  0  0  0  0  0  0  0  0  0
   -0.9110    4.0260   25.7730 C   0  0  0  0  0  0  0  0  0  0  0  0
    0.4100    4.7700   25.9060 C   0  0  0  0  0  0  0  0  0  0  0  0
    8.0140   -3.9760   22.9280 N   0  0  0  0  0  0  0  0  0  0  0  0
    6.7440   -3.8000   22.2510 C   0  0  2  0  0  0  0  0  0  0  0  0
    5.8750   -3.5950   23.4290 C   0  0  0  0  0  0  0  0  0  0  0  0
    5.7000   -4.7480   24.0670 C   0  0  1  0  0  0  0  0  0  0  0  0
    6.4070   -5.7380   23.3960 C   0  0  2  0  0  0  0  0  0  0  0  0
    7.7830   -5.4410   23.2600 C   0  0  0  0  0  0  0  0  0  0  0  0
  1  6  1  0
  3  6  2  0
  1  8  1  0
  4  9  1  0
  5  9  2  0
  8  9  1  6
  7 11  1  0
 12 13  1  0
 12 14  1  0
 12 15  1  0
 19 17  1  6
 18 19  1  0
  2 20  1  0
 22 16  1  1
 19 22  1  0
 16 24  1  0
 21 24  2  0
 24 25  1  0
 20 26  1  0
 22 26  1  0
 23 26  2  0
 27 28  2  0
 27 29  1  0
 29 30  1  0
 30 31  1  0
 33 36  1  0
 34 36  1  0
 36 37  1  0
 33 38  1  0
 33 39  1  0
 35 39  2  0
 40 41  2  0
 41 42  1  0
 31 43  1  0
 42 43  2  0
  8 44  1  0
 43 44  1  0
 40 45  1  0
 44 45  2  0
 46 47  1  0
 12 48  1  0
 47 48  1  0
 48 49  2  0
  1 50  1  0
 46 50  2  0
 49 50  1  0
 10 51  1  0
 51 52  2  0
  7 53  1  0
 52 53  1  0
 53 54  2  0
 54 55  1  0
  4 56  1  0
 51 56  1  0
 55 56  2  0
 32 57  1  0
 27 58  1  0
 57 58  2  0
 58 59  1  0
 59 60  2  0
 60 61  1  0
 57 62  1  0
 61 62  2  0
  2 64  1  0
 64  6  1  6
 63 64  1  0
 64 65  1  0
 66 39  1  1
 65 66  1  0
 20 67  1  0
 66 67  1  0
 63 68  1  0
 67 68  1  6
M  END
