x0426-x0107
     RDKit          3D

 23 24  0  0  0  0  0  0  0  0999 V2000
    2.4490    1.6030   23.8100 C   0  0  0  0  0  0  0  0  0  0  0  0
    2.3670    0.3640   23.7500 O   0  0  0  0  0  0  0  0  0  0  0  0
    3.5220    2.3310   23.2880 N   0  0  0  0  0  0  0  0  0  0  0  0
    4.3880    1.7180   22.4210 C   0  0  0  0  0  0  0  0  0  0  0  0
    3.7880    1.2810   21.2910 C   0  0  0  0  0  0  0  0  0  0  0  0
    2.6640    4.3520   25.2930 F   0  0  0  0  0  0  0  0  0  0  0  0
    1.4460    3.7870   25.2380 C   0  0  0  0  0  0  0  0  0  0  0  0
    1.3490    2.3950   24.4840 C   0  0  0  0  0  0  0  0  0  0  0  0
   -0.1130    2.1010   24.6320 C   0  0  0  0  0  0  0  0  0  0  0  0
   -0.9490    3.0330   25.3300 C   0  0  0  0  0  0  0  0  0  0  0  0
   -1.0100    4.0210   25.8930 C   0  0  0  0  0  0  0  0  0  0  0  0
    0.3580    4.6160   25.9320 C   0  0  0  0  0  0  0  0  0  0  0  0
    6.0270    0.1930   20.2490 C   0  0  0  0  0  0  0  0  0  0  0  0
    6.8440   -0.0120   19.1510 C   0  0  0  0  0  0  0  0  0  0  0  0
    6.4990    0.5840   17.8590 N   0  0  0  0  0  0  0  0  0  0  0  0
    5.2950    1.3850   17.7750 C   0  0  0  0  0  0  0  0  0  0  0  0
    4.4670    1.5850   18.8620 C   0  0  0  0  0  0  0  0  0  0  0  0
    4.7290    1.0450   20.1140 C   0  0  0  0  0  0  0  0  0  0  0  0
    9.9470   -0.4550   22.3990 C   0  0  0  0  0  0  0  0  0  0  0  0
    8.9490    0.1100   21.6010 C   0  0  0  0  0  0  0  0  0  0  0  0
    8.9470    1.3030   21.2460 O   0  0  0  0  0  0  0  0  0  0  0  0
    7.9330   -0.9090   21.2280 N   0  0  0  0  0  0  0  0  0  0  0  0
    6.6550   -0.5460   21.4870 C   0  0  0  0  0  0  0  0  0  0  0  0
  1  2  2  0
  1  3  1  0
  3  4  1  0
  4  5  1  0
  6  7  1  0
  1  8  1  0
  7  8  2  0
  8  9  1  0
  9 10  2  0
 10 11  1  0
  7 12  1  0
 11 12  2  0
 13 14  2  0
 14 15  1  0
 15 16  2  0
 16 17  1  0
  5 18  1  0
 13 18  1  0
 17 18  2  0
 19 20  1  0
 20 21  2  0
 20 22  1  0
 13 23  1  0
 22 23  1  0
M  END
