x0426-x0786-x2694-x0820
     RDKit          3D

 66 72  0  0  0  0  0  0  0  0999 V2000
    7.6450   -1.7650   22.1040 N   0  0  0  0  0  0  0  0  0  0  0  0
    7.6000    2.0350   22.7750 N   0  0  0  0  0  0  0  0  0  0  0  0
    9.0640    0.7480   21.4610 O   0  0  0  0  0  0  0  0  0  0  0  0
   10.8920    6.7500   23.8240 O   0  0  0  0  0  0  0  0  0  0  0  0
    6.9220   -0.3840   21.8910 C   0  0  1  0  0  0  0  0  0  0  0  0
    7.9610    0.7990   22.0080 C   0  0  0  0  0  0  0  0  0  0  0  0
   10.2320    1.7360   23.9830 C   0  0  0  0  0  0  0  0  0  0  0  0
   11.8440    6.5580   24.8730 C   0  0  0  0  0  0  0  0  0  0  0  0
   12.5030   -1.4200   23.1520 C   0  0  0  0  0  0  0  0  0  0  0  0
   12.9820    0.0040   23.3410 C   0  0  0  0  0  0  0  0  0  0  0  0
   13.0070   -1.9630   21.8080 C   0  0  0  0  0  0  0  0  0  0  0  0
   13.0180   -2.3160   24.3010 C   0  0  0  0  0  0  0  0  0  0  0  0
    7.1650   -4.3480   21.5960 N   0  0  0  0  0  0  0  0  0  0  0  0
    5.4420   -4.8190   20.0270 O   0  0  0  0  0  0  0  0  0  0  0  0
    7.3020   -3.2360   22.6250 C   0  0  2  0  0  0  0  0  0  0  0  0
    6.4770   -4.2250   20.3860 C   0  0  0  0  0  0  0  0  0  0  0  0
    7.1730   -3.3360   19.4210 C   0  0  0  0  0  0  0  0  0  0  0  0
    2.4280    2.0990   23.9660 C   0  0  0  0  0  0  0  0  0  0  0  0
    2.5650    0.9060   24.2000 O   0  0  0  0  0  0  0  0  0  0  0  0
    3.2930    2.7970   23.1480 N   0  0  0  0  0  0  0  0  0  0  0  0
    4.4400    2.1650   22.5050 C   0  0  0  0  0  0  0  0  0  0  0  0
    3.9300    1.1130   21.5270 C   0  0  0  0  0  0  0  0  0  0  0  0
    2.8400    4.3940   25.6140 F   0  0  0  0  0  0  0  0  0  0  0  0
    6.6500    0.1980   18.1080 N   0  0  0  0  0  0  0  0  0  0  0  0
    5.4800    0.8230   17.9320 C   0  0  0  0  0  0  0  0  0  0  0  0
    4.5280    1.1540   19.0360 C   0  0  0  0  0  0  0  0  0  0  0  0
    4.9850    0.7400   20.3950 C   0  0  0  0  0  0  0  0  0  0  0  0
    6.2430    0.0880   20.5510 C   0  0  0  0  0  0  0  0  0  0  0  0
    7.0000   -0.1500   19.3870 C   0  0  0  0  0  0  0  0  0  0  0  0
    8.9830   -0.7940   23.7780 N   0  0  0  0  0  0  0  0  0  0  0  0
   10.3180   -0.7110   24.0650 O   0  0  0  0  0  0  0  0  0  0  0  0
   11.0040   -1.3540   23.1120 C   0  0  0  0  0  0  0  0  0  0  0  0
   10.1080   -1.8570   22.2090 C   0  0  0  0  0  0  0  0  0  0  0  0
    8.8500   -1.5080   22.6320 C   0  0  0  0  0  0  0  0  0  0  0  0
    9.6840    3.0760   23.6050 C   0  0  0  0  0  0  0  0  0  0  0  0
   10.6080    4.2970   23.9020 C   0  0  0  0  0  0  0  0  0  0  0  0
   10.0150    5.6420   23.5150 C   0  0  0  0  0  0  0  0  0  0  0  0
    8.7620    5.7830   22.9300 C   0  0  0  0  0  0  0  0  0  0  0  0
    7.9320    4.5110   22.6720 C   0  0  0  0  0  0  0  0  0  0  0  0
    8.3940    3.2260   23.0090 C   0  0  0  0  0  0  0  0  0  0  0  0
    6.4420   -3.8470   23.8250 C   0  0  0  0  0  0  0  0  0  0  0  0
    7.0770   -4.0430   25.0920 C   0  0  0  0  0  0  0  0  0  0  0  0
    6.3770   -4.5790   26.1700 C   0  0  0  0  0  0  0  0  0  0  0  0
    5.1070   -4.8970   25.9400 C   0  0  0  0  0  0  0  0  0  0  0  0
    4.5690   -4.7190   24.6950 C   0  0  0  0  0  0  0  0  0  0  0  0
    5.1160   -4.1980   23.4680 C   0  0  0  0  0  0  0  0  0  0  0  0
    6.9550   -4.8070   27.4790 C   0  0  0  0  0  0  0  0  0  0  0  0
    8.2680   -4.5160   27.7170 C   0  0  0  0  0  0  0  0  0  0  0  0
    9.0140   -3.9900   26.6650 C   0  0  0  0  0  0  0  0  0  0  0  0
    8.4340   -3.7540   25.4020 C   0  0  0  0  0  0  0  0  0  0  0  0
    1.5640    3.9610   25.4140 C   0  0  0  0  0  0  0  0  0  0  0  0
    1.3040    2.8460   24.6110 C   0  0  0  0  0  0  0  0  0  0  0  0
   -0.0310    2.4290   24.4180 C   0  0  0  0  0  0  0  0  0  0  0  0
   -1.0730    3.1250   25.0370 C   0  0  0  0  0  0  0  0  0  0  0  0
   -0.8010    4.2340   25.8410 C   0  0  0  0  0  0  0  0  0  0  0  0
    0.5220    4.6560   26.0300 C   0  0  0  0  0  0  0  0  0  0  0  0
    3.6920   -7.8740   24.7790 O   0  0  0  0  0  0  0  0  0  0  0  0
    3.1130   -7.0270   24.0860 C   0  0  0  0  0  0  0  0  0  0  0  0
    1.2080   -5.7420   23.2980 C   0  0  0  0  0  0  0  0  0  0  0  0
    0.1420   -5.0370   24.1150 C   0  0  0  0  0  0  0  0  0  0  0  0
   -1.2740   -6.1290   24.4860 S   0  0  0  0  0  0  0  0  0  0  0  0
   -0.3870   -7.5940   25.1180 C   0  0  0  0  0  0  0  0  0  0  0  0
    0.8170   -7.9830   24.2700 C   0  0  0  0  0  0  0  0  0  0  0  0
    1.7470   -6.8890   24.0340 N   0  0  0  0  0  0  0  0  0  0  0  0
    3.7310   -4.6700   23.4200 C   0  0  0  0  0  0  0  0  0  0  0  0
    3.8530   -6.0610   23.1940 C   0  0  0  0  0  0  0  0  0  0  0  0
  1  5  1  0
  2  6  1  0
  3  6  2  0
  5  6  1  6
  4  8  1  0
  9 10  1  0
  9 11  1  0
  9 12  1  0
  1 15  1  0
 15 13  1  6
 13 16  1  0
 14 16  2  0
 16 17  1  0
 18 19  2  0
 18 20  1  0
 20 21  1  0
 21 22  1  0
 24 25  2  0
 25 26  1  0
 22 27  1  0
 26 27  2  0
  5 28  1  0
 27 28  1  0
 24 29  1  0
 28 29  2  0
 30 31  1  0
  9 32  1  0
 31 32  1  0
 32 33  2  0
  1 34  1  0
 30 34  2  0
 33 34  1  0
  7 35  1  0
 35 36  2  0
  4 37  1  0
 36 37  1  0
 37 38  2  0
 38 39  1  0
  2 40  1  0
 35 40  1  0
 39 40  2  0
 15 41  1  0
 41 42  2  0
 42 43  1  0
 43 44  2  0
 44 45  1  0
 41 46  1  0
 45 46  2  0
 43 47  1  0
 47 48  2  0
 48 49  1  0
 42 50  1  0
 49 50  2  0
 23 51  1  0
 18 52  1  0
 51 52  2  0
 52 53  1  0
 53 54  2  0
 54 55  1  0
 51 56  1  0
 55 56  2  0
 57 58  2  0
 59 60  1  0
 60 61  1  0
 61 62  1  0
 62 63  1  0
 58 64  1  0
 59 64  1  0
 63 64  1  0
 46 65  1  0
 58 66  1  0
 65 66  1  0
M  END
