x0426-x1334-x2694-x0734
     RDKit          3D

 69 77  0  0  0  0  0  0  0  0999 V2000
    7.8780    2.5900   22.7260 N   0  0  0  0  0  0  0  0  0  0  0  0
    9.1040    1.6130   21.0790 O   0  0  0  0  0  0  0  0  0  0  0  0
   11.1940    6.8660   24.0410 O   0  0  0  0  0  0  0  0  0  0  0  0
    6.9960    0.6520   21.7180 C   0  0  1  0  0  0  0  0  0  0  0  0
    8.1230    1.6440   21.7860 C   0  0  0  0  0  0  0  0  0  0  0  0
   10.3190    2.1260   24.0630 C   0  0  0  0  0  0  0  0  0  0  0  0
   11.8860    6.6490   25.2590 C   0  0  0  0  0  0  0  0  0  0  0  0
   12.4850   -1.2230   23.1130 C   0  0  0  0  0  0  0  0  0  0  0  0
   12.8770    0.2320   23.3100 C   0  0  0  0  0  0  0  0  0  0  0  0
   12.9780   -1.7290   21.7610 C   0  0  0  0  0  0  0  0  0  0  0  0
   13.1060   -2.0980   24.2310 C   0  0  0  0  0  0  0  0  0  0  0  0
    2.2210    1.6870   23.9150 C   0  0  0  0  0  0  0  0  0  0  0  0
    2.0990    0.4640   23.8790 O   0  0  0  0  0  0  0  0  0  0  0  0
    3.3000    2.3330   23.3540 N   0  0  0  0  0  0  0  0  0  0  0  0
    4.1990    1.6010   22.4890 C   0  0  0  0  0  0  0  0  0  0  0  0
    4.3820    2.3040   21.1490 C   0  0  0  0  0  0  0  0  0  0  0  0
    2.7800    4.2280   25.2080 F   0  0  0  0  0  0  0  0  0  0  0  0
    5.1560   -5.0170   26.5060 N   0  0  0  0  0  0  0  0  0  0  0  0
    4.5210   -5.8190   25.8000 O   0  0  0  0  0  0  0  0  0  0  0  0
    4.6250   -3.9860   26.9390 O   0  0  0  0  0  0  0  0  0  0  0  0
    5.2360   -3.8840   19.0150 O   0  0  0  0  0  0  0  0  0  0  0  0
    6.3650   -3.8480   19.4890 C   0  0  0  0  0  0  0  0  0  0  0  0
    7.5860   -3.2260   18.7720 C   0  0  0  0  0  0  0  0  0  0  0  0
    5.2800   -1.2420   19.4600 C   0  0  0  0  0  0  0  0  0  0  0  0
    5.6200   -3.1590   21.0640 N   0  0  0  0  0  0  0  0  0  0  0  0
    6.4790   -6.2610   28.7670 Cl  0  0  0  0  0  0  0  0  0  0  0  0
    5.8820   -2.5010   19.9610 C   0  0  0  0  0  0  0  0  0  0  0  0
    8.5390   -1.9750   25.1930 C   0  0  0  0  0  0  0  0  0  0  0  0
    6.4320    0.3430   17.9450 N   0  0  0  0  0  0  0  0  0  0  0  0
    5.3270    1.0760   17.8170 C   0  0  0  0  0  0  0  0  0  0  0  0
    4.6830    1.6900   18.8380 C   0  0  0  0  0  0  0  0  0  0  0  0
    5.1920    1.5690   20.1070 C   0  0  0  0  0  0  0  0  0  0  0  0
    6.3600    0.8170   20.3250 C   0  0  0  0  0  0  0  0  0  0  0  0
    6.9210    0.2280   19.1960 C   0  0  0  0  0  0  0  0  0  0  0  0
    9.0470   -0.9900   24.2780 N   0  0  0  0  0  0  0  0  0  0  0  0
   10.4760   -1.3120   24.4490 O   0  0  0  0  0  0  0  0  0  0  0  0
   10.9960   -1.2590   23.1790 C   0  0  0  0  0  0  0  0  0  0  0  0
    9.9580   -1.2450   22.2520 C   0  0  0  0  0  0  0  0  0  0  0  0
    8.7250   -1.3190   22.8940 C   0  0  2  0  0  0  0  0  0  0  0  0
    9.8650    3.5090   23.6760 C   0  0  0  0  0  0  0  0  0  0  0  0
   10.6820    4.6020   23.9920 C   0  0  0  0  0  0  0  0  0  0  0  0
   10.3080    5.9000   23.6620 C   0  0  0  0  0  0  0  0  0  0  0  0
    8.9680    6.1480   22.9210 C   0  0  0  0  0  0  0  0  0  0  0  0
    8.2190    5.0200   22.6410 C   0  0  0  0  0  0  0  0  0  0  0  0
    8.6450    3.7200   23.0080 C   0  0  0  0  0  0  0  0  0  0  0  0
    1.5180    3.7730   25.2170 C   0  0  0  0  0  0  0  0  0  0  0  0
    1.1880    2.5170   24.5890 C   0  0  0  0  0  0  0  0  0  0  0  0
   -0.1470    2.0170   24.5880 C   0  0  0  0  0  0  0  0  0  0  0  0
   -1.1760    2.7400   25.2040 C   0  0  0  0  0  0  0  0  0  0  0  0
   -0.8890    4.1010   25.9020 C   0  0  0  0  0  0  0  0  0  0  0  0
    0.5600    4.5610   25.8560 C   0  0  0  0  0  0  0  0  0  0  0  0
    6.5280   -5.0410   26.3500 C   0  0  0  0  0  0  0  0  0  0  0  0
    7.3390   -4.9040   25.0710 C   0  0  0  0  0  0  0  0  0  0  0  0
    8.7250   -4.9620   25.3540 C   0  0  1  0  0  0  0  0  0  0  0  0
    8.9540   -6.0680   26.2440 C   0  0  2  0  0  0  0  0  0  0  0  0
    8.6700   -5.4190   27.4710 C   0  0  2  0  0  0  0  0  0  0  0  0
    7.3490   -5.2240   27.7290 C   0  0  2  0  0  0  0  0  0  0  0  0
    6.5570   -4.2540   20.9380 C   0  0  1  0  0  0  0  0  0  0  0  0
    6.0300   -5.2330   21.5750 C   0  0  0  0  0  0  0  0  0  0  0  0
    6.0980   -5.6680   22.9600 C   0  0  0  0  0  0  0  0  0  0  0  0
    6.9960   -4.7220   23.7300 N   0  0  0  0  0  0  0  0  0  0  0  0
    7.8240   -3.9390   21.6400 C   0  0  0  0  0  0  0  0  0  0  0  0
    6.5960   -1.8250   21.5950 N   0  0  0  0  0  0  0  0  0  0  0  0
    7.3470   -0.7780   22.2680 C   0  0  2  0  0  0  0  0  0  0  0  0
    8.6420   -2.7520   23.2190 N   0  0  0  0  0  0  0  0  0  0  0  0
    7.4040   -3.4820   23.0090 C   0  0  2  0  0  0  0  0  0  0  0  0
    6.3220   -2.7090   22.7240 C   0  0  0  0  0  0  0  0  0  0  0  0
    9.5900   -5.9130   24.8800 C   0  0  0  0  0  0  0  0  0  0  0  0
    9.3400   -3.9670   26.6210 S   0  0  0  0  0  0  0  0  0  0  0  0
  1  5  1  0
  2  5  2  0
  4  5  1  6
  3  7  1  0
  8  9  1  0
  8 10  1  0
  8 11  1  0
 12 13  2  0
 12 14  1  0
 14 15  1  0
 15 16  1  0
 18 19  2  0
 18 20  1  0
 21 22  2  0
 22 23  1  0
 24 27  1  0
 25 27  2  3
 29 30  2  0
 30 31  1  0
 16 32  1  0
 31 32  2  0
  4 33  1  0
 32 33  1  0
 29 34  1  0
 33 34  2  0
 28 35  1  0
 35 36  1  0
  8 37  1  0
 36 37  1  0
 37 38  2  0
 35 39  1  0
 39 38  1  6
  6 40  1  0
 40 41  2  0
  3 42  1  0
 41 42  1  0
 42 43  2  0
 43 44  1  0
  1 45  1  0
 40 45  1  0
 44 45  2  0
 17 46  1  0
 12 47  1  0
 46 47  2  0
 47 48  1  0
 48 49  2  0
 49 50  1  0
 46 51  1  0
 50 51  2  0
 18 52  1  0
 52 53  2  0
 53 54  1  0
 54 55  1  0
 55 56  1  0
 57 26  1  6
 52 57  1  0
 56 57  1  0
 22 58  1  0
 58 25  1  1
 58 59  1  0
 59 60  1  0
 53 61  1  0
 60 61  1  0
 58 62  1  0
  4 64  1  0
 39 64  1  0
 64 63  1  6
 39 65  1  0
 66 61  1  0
 66 62  1  6
 65 66  1  0
 63 67  1  0
 66 67  1  0
 54 68  1  6
 55 68  1  1
 54 69  1  0
 56 69  1  6
M  CHG  2  18   1  20  -1
M  END
