x0426-x2572
     RDKit          3D

 30 32  0  0  0  0  0  0  0  0999 V2000
    4.5220    1.3700   21.8370 C   0  0  2  0  0  0  0  0  0  0  0  0
    8.6580    1.0300   21.3830 O   0  0  0  0  0  0  0  0  0  0  0  0
    6.8440   -0.4020   21.4450 N   0  0  0  0  0  0  0  0  0  0  0  0
   13.6270   -2.7350   20.6840 N   0  0  0  0  0  0  0  0  0  0  0  0
    8.0360    0.1060   21.9010 C   0  0  0  0  0  0  0  0  0  0  0  0
    8.5210   -0.4820   23.0260 C   0  0  0  0  0  0  0  0  0  0  0  0
   12.9670   -1.9160   21.4670 C   0  0  0  0  0  0  0  0  0  0  0  0
    2.4520    1.4320   23.2910 C   0  0  0  0  0  0  0  0  0  0  0  0
    2.6530    0.3330   23.7910 O   0  0  0  0  0  0  0  0  0  0  0  0
    3.1240    1.7840   22.1170 N   0  0  0  0  0  0  0  0  0  0  0  0
    3.0770    3.8910   24.7690 F   0  0  0  0  0  0  0  0  0  0  0  0
    5.3430    2.5810   22.4180 C   0  0  0  0  0  0  0  0  0  0  0  0
    6.1280    0.5450   18.0290 N   0  0  0  0  0  0  0  0  0  0  0  0
    6.7870   -0.1150   19.1960 C   0  0  0  0  0  0  0  0  0  0  0  0
    6.2780    0.1620   20.2620 C   0  0  0  0  0  0  0  0  0  0  0  0
    5.0630    1.0940   20.3790 C   0  0  0  0  0  0  0  0  0  0  0  0
    4.5500    1.6340   19.2310 C   0  0  0  0  0  0  0  0  0  0  0  0
    5.0430    1.4100   17.9420 C   0  0  0  0  0  0  0  0  0  0  0  0
   10.6920    0.5900   23.8520 C   0  0  0  0  0  0  0  0  0  0  0  0
   12.0870    0.6830   23.8370 C   0  0  0  0  0  0  0  0  0  0  0  0
   12.8140   -0.1720   23.0260 C   0  0  0  0  0  0  0  0  0  0  0  0
   12.0770   -1.0780   22.2760 C   0  0  0  0  0  0  0  0  0  0  0  0
   10.7170   -1.1980   22.2630 C   0  0  0  0  0  0  0  0  0  0  0  0
   10.0180   -0.3460   23.0640 C   0  0  0  0  0  0  0  0  0  0  0  0
    1.7940    3.5090   24.7660 C   0  0  0  0  0  0  0  0  0  0  0  0
    1.3760    2.3360   24.0740 C   0  0  0  0  0  0  0  0  0  0  0  0
    0.0060    1.9780   24.1100 C   0  0  0  0  0  0  0  0  0  0  0  0
   -1.0470    2.8100   24.8700 C   0  0  0  0  0  0  0  0  0  0  0  0
   -0.5780    4.0650   25.6050 C   0  0  0  0  0  0  0  0  0  0  0  0
    0.9220    4.3520   25.4960 C   0  0  0  0  0  0  0  0  0  0  0  0
  2  5  2  0
  3  5  1  0
  5  6  1  0
  4  7  3  0
  8  9  2  0
  1 10  1  0
  8 10  1  0
  1 12  1  6
 13 14  2  0
  3 15  1  0
 14 15  1  0
  1 16  1  0
 15 16  2  0
 16 17  1  0
 13 18  1  0
 17 18  2  0
 19 20  2  0
 20 21  1  0
  7 22  1  0
 21 22  2  0
 22 23  1  0
  6 24  1  0
 19 24  1  0
 23 24  2  0
 11 25  1  0
  8 26  1  0
 25 26  2  0
 26 27  1  0
 27 28  2  0
 28 29  1  0
 25 30  1  0
 29 30  2  0
M  END
