x0426-x0786-x2694-x2776
     RDKit          3D

 62 67  0  0  0  0  0  0  0  0999 V2000
    7.5900   -0.7980   21.9580 N   0  0  0  0  0  0  0  0  0  0  0  0
    7.7660    2.6990   22.7610 N   0  0  0  0  0  0  0  0  0  0  0  0
    9.1000    1.7160   21.0880 O   0  0  0  0  0  0  0  0  0  0  0  0
   11.2280    6.9700   24.0300 O   0  0  0  0  0  0  0  0  0  0  0  0
    7.0760    0.5770   21.6730 C   0  0  1  0  0  0  0  0  0  0  0  0
    8.0980    1.6820   21.7770 C   0  0  0  0  0  0  0  0  0  0  0  0
   10.2560    2.1410   24.0180 C   0  0  0  0  0  0  0  0  0  0  0  0
   11.8900    6.7650   25.2720 C   0  0  0  0  0  0  0  0  0  0  0  0
   12.3410   -1.5320   23.2900 C   0  0  0  0  0  0  0  0  0  0  0  0
   12.8970   -0.2260   23.8640 C   0  0  0  0  0  0  0  0  0  0  0  0
   12.9640   -1.7760   21.9030 C   0  0  0  0  0  0  0  0  0  0  0  0
   12.6550   -2.7310   24.2100 C   0  0  0  0  0  0  0  0  0  0  0  0
   13.5650   -2.5420   25.4010 C   0  0  0  0  0  0  0  0  0  0  0  0
    2.5250    1.9630   24.2860 C   0  0  0  0  0  0  0  0  0  0  0  0
    2.8100    0.8960   24.8050 O   0  0  0  0  0  0  0  0  0  0  0  0
    3.2780    2.5270   23.2860 N   0  0  0  0  0  0  0  0  0  0  0  0
    4.2820    1.7570   22.5690 C   0  0  0  0  0  0  0  0  0  0  0  0
    4.1920    2.1030   21.0960 C   0  0  0  0  0  0  0  0  0  0  0  0
    2.6470    4.5640   25.4410 F   0  0  0  0  0  0  0  0  0  0  0  0
    6.0880   -3.8970   21.7890 N   0  0  0  0  0  0  0  0  0  0  0  0
    7.0100   -5.3180   20.2310 C   0  0  0  0  0  0  0  0  0  0  0  0
    5.0700   -4.5910   19.8700 O   0  0  0  0  0  0  0  0  0  0  0  0
    6.0160   -4.6280   20.6330 C   0  0  0  0  0  0  0  0  0  0  0  0
    3.7480   -8.0920   24.8320 O   0  0  0  0  0  0  0  0  0  0  0  0
    3.3100   -7.0630   24.3310 C   0  0  0  0  0  0  0  0  0  0  0  0
    6.5560   -1.5900   22.5970 C   0  0  0  0  0  0  0  0  0  0  0  0
    5.8600   -2.4810   21.6140 C   0  0  0  0  0  0  0  0  0  0  0  0
    6.3930    0.1240   18.0070 N   0  0  0  0  0  0  0  0  0  0  0  0
    5.2400    0.7730   17.8540 C   0  0  0  0  0  0  0  0  0  0  0  0
    4.5670    1.3860   18.8560 C   0  0  0  0  0  0  0  0  0  0  0  0
    5.0850    1.3630   20.1320 C   0  0  0  0  0  0  0  0  0  0  0  0
    6.3070    0.7000   20.3550 C   0  0  0  0  0  0  0  0  0  0  0  0
    6.8950    0.0990   19.2490 C   0  0  0  0  0  0  0  0  0  0  0  0
    8.8240   -1.2150   23.9600 N   0  0  0  0  0  0  0  0  0  0  0  0
   10.1340   -1.4140   24.2870 O   0  0  0  0  0  0  0  0  0  0  0  0
   10.8770   -1.3540   23.1590 C   0  0  0  0  0  0  0  0  0  0  0  0
   10.0430   -1.1170   22.0810 C   0  0  0  0  0  0  0  0  0  0  0  0
    8.7580   -1.0310   22.6250 C   0  0  0  0  0  0  0  0  0  0  0  0
    9.8060    3.5340   23.6620 C   0  0  0  0  0  0  0  0  0  0  0  0
   10.7240    4.7220   23.9850 C   0  0  0  0  0  0  0  0  0  0  0  0
   10.3360    6.0090   23.6800 C   0  0  0  0  0  0  0  0  0  0  0  0
    8.9850    6.2060   23.0030 C   0  0  0  0  0  0  0  0  0  0  0  0
    8.1830    5.0930   22.7240 C   0  0  0  0  0  0  0  0  0  0  0  0
    8.5700    3.7970   23.0420 C   0  0  0  0  0  0  0  0  0  0  0  0
    1.4460    3.9710   25.3380 C   0  0  0  0  0  0  0  0  0  0  0  0
    1.3370    2.7050   24.7780 C   0  0  0  0  0  0  0  0  0  0  0  0
    0.0730    2.1510   24.6990 C   0  0  0  0  0  0  0  0  0  0  0  0
   -1.0480    2.8420   25.1700 C   0  0  0  0  0  0  0  0  0  0  0  0
   -0.9800    4.1100   25.7400 C   0  0  0  0  0  0  0  0  0  0  0  0
    0.3310    4.6550   25.8050 C   0  0  0  0  0  0  0  0  0  0  0  0
    5.5520   -4.3770   23.0140 C   0  0  0  0  0  0  0  0  0  0  0  0
    4.7150   -5.4840   23.0740 C   0  0  0  0  0  0  0  0  0  0  0  0
    4.2000   -5.8990   24.2990 C   0  0  0  0  0  0  0  0  0  0  0  0
    4.5200   -5.2170   25.4640 C   0  0  0  0  0  0  0  0  0  0  0  0
    5.3620   -4.1130   25.4140 C   0  0  0  0  0  0  0  0  0  0  0  0
    5.8810   -3.6890   24.1950 C   0  0  0  0  0  0  0  0  0  0  0  0
    1.5560   -5.6240   23.4170 C   0  0  0  0  0  0  0  0  0  0  0  0
    0.5540   -5.0660   24.4300 C   0  0  0  0  0  0  0  0  0  0  0  0
   -0.9730   -6.0550   24.4040 S   0  0  0  0  0  0  0  0  0  0  0  0
   -0.1580   -7.6320   24.8330 C   0  0  0  0  0  0  0  0  0  0  0  0
    0.9880   -7.9860   23.8700 C   0  0  0  0  0  0  0  0  0  0  0  0
    2.0270   -6.9500   23.8100 N   0  0  0  0  0  0  0  0  0  0  0  0
  1  5  1  0
  2  6  1  0
  3  6  2  0
  5  6  1  6
  4  8  1  0
  9 10  1  0
  9 11  1  0
  9 12  1  0
 12 13  1  0
 14 15  2  0
 14 16  1  0
 16 17  1  0
 17 18  1  0
 20 23  1  0
 21 23  1  0
 22 23  2  0
 24 25  2  0
  1 26  1  0
 20 27  1  0
 26 27  1  0
 28 29  2  0
 29 30  1  0
 18 31  1  0
 30 31  2  0
  5 32  1  0
 31 32  1  0
 28 33  1  0
 32 33  2  0
 34 35  1  0
  9 36  1  0
 35 36  1  0
 36 37  2  0
  1 38  1  0
 34 38  2  0
 37 38  1  0
  7 39  1  0
 39 40  2  0
  4 41  1  0
 40 41  1  0
 41 42  2  0
 42 43  1  0
  2 44  1  0
 39 44  1  0
 43 44  2  0
 19 45  1  0
 14 46  1  0
 45 46  2  0
 46 47  1  0
 47 48  2  0
 48 49  1  0
 45 50  1  0
 49 50  2  0
 20 51  1  0
 51 52  2  0
 25 53  1  0
 52 53  1  0
 53 54  2  0
 54 55  1  0
 51 56  1  0
 55 56  2  0
 57 58  1  0
 58 59  1  0
 59 60  1  0
 60 61  1  0
 25 62  1  0
 57 62  1  0
 61 62  1  0
M  END
