x0426-x0734-x2694
     RDKit          3D

 60 65  0  0  0  0  0  0  0  0999 V2000
    7.5000   -0.9060   22.0360 N   0  0  0  0  0  0  0  0  0  0  0  0
    7.7120    2.4890   22.7240 N   0  0  0  0  0  0  0  0  0  0  0  0
    8.9820    1.4800   21.1000 O   0  0  0  0  0  0  0  0  0  0  0  0
   11.0410    6.9320   23.9220 O   0  0  0  0  0  0  0  0  0  0  0  0
    6.9430    0.3650   21.7920 C   0  0  1  0  0  0  0  0  0  0  0  0
    7.9950    1.4780   21.8220 C   0  0  0  0  0  0  0  0  0  0  0  0
   10.2140    1.9300   24.0690 C   0  0  0  0  0  0  0  0  0  0  0  0
   11.8900    6.8050   25.0600 C   0  0  0  0  0  0  0  0  0  0  0  0
   12.4230   -1.3900   23.2420 C   0  0  0  0  0  0  0  0  0  0  0  0
   12.9250   -0.1500   23.6600 C   0  0  0  0  0  0  0  0  0  0  0  0
   12.9610   -1.9100   21.8780 C   0  0  0  0  0  0  0  0  0  0  0  0
   12.8340   -2.4080   24.3430 C   0  0  0  0  0  0  0  0  0  0  0  0
    2.3740    1.7730   23.7870 C   0  0  0  0  0  0  0  0  0  0  0  0
    2.1850    0.5670   23.5840 O   0  0  0  0  0  0  0  0  0  0  0  0
    3.6280    2.4910   23.3840 N   0  0  0  0  0  0  0  0  0  0  0  0
    4.0030    2.4990   22.0810 C   0  0  0  0  0  0  0  0  0  0  0  0
    3.8890    1.2230   21.5410 C   0  0  0  0  0  0  0  0  0  0  0  0
    2.8000    4.3030   25.2020 F   0  0  0  0  0  0  0  0  0  0  0  0
    5.1580   -4.8800   26.4210 N   0  0  0  0  0  0  0  0  0  0  0  0
    4.4090   -5.7610   25.6650 O   0  0  0  0  0  0  0  0  0  0  0  0
    4.7240   -3.8090   26.8770 O   0  0  0  0  0  0  0  0  0  0  0  0
    5.1120   -4.2310   19.7340 O   0  0  0  0  0  0  0  0  0  0  0  0
    6.2650   -3.9920   20.0630 C   0  0  0  0  0  0  0  0  0  0  0  0
    7.1640   -3.2000   19.1360 C   0  0  0  0  0  0  0  0  0  0  0  0
    6.5550   -1.8840   22.5460 C   0  0  0  0  0  0  0  0  0  0  0  0
    6.3440    0.4540   17.9530 N   0  0  0  0  0  0  0  0  0  0  0  0
    5.0630    0.8720   17.9230 C   0  0  0  0  0  0  0  0  0  0  0  0
    4.2360    1.1330   19.0280 C   0  0  0  0  0  0  0  0  0  0  0  0
    4.7080    0.9850   20.3250 C   0  0  0  0  0  0  0  0  0  0  0  0
    6.1810    0.5420   20.4900 C   0  0  0  0  0  0  0  0  0  0  0  0
    6.8610    0.2990   19.1710 C   0  0  0  0  0  0  0  0  0  0  0  0
    8.8510   -1.0420   24.0230 N   0  0  0  0  0  0  0  0  0  0  0  0
   10.2060   -1.1830   24.3140 O   0  0  0  0  0  0  0  0  0  0  0  0
   10.9260   -1.2570   23.1620 C   0  0  0  0  0  0  0  0  0  0  0  0
    9.9750   -1.1680   22.1610 C   0  0  0  0  0  0  0  0  0  0  0  0
    8.6960   -1.0320   22.6830 C   0  0  0  0  0  0  0  0  0  0  0  0
    9.7580    3.3430   23.6660 C   0  0  0  0  0  0  0  0  0  0  0  0
   10.6240    4.5460   23.9650 C   0  0  0  0  0  0  0  0  0  0  0  0
   10.2870    5.8270   23.6490 C   0  0  0  0  0  0  0  0  0  0  0  0
    9.0710    5.9810   23.0030 C   0  0  0  0  0  0  0  0  0  0  0  0
    8.2230    4.8900   22.6940 C   0  0  0  0  0  0  0  0  0  0  0  0
    8.5420    3.5900   23.0160 C   0  0  0  0  0  0  0  0  0  0  0  0
    1.5690    3.7670   25.1580 C   0  0  0  0  0  0  0  0  0  0  0  0
    1.3220    2.5670   24.4970 C   0  0  0  0  0  0  0  0  0  0  0  0
    0.0210    2.1050   24.5170 C   0  0  0  0  0  0  0  0  0  0  0  0
   -1.0270    2.7580   25.1460 C   0  0  0  0  0  0  0  0  0  0  0  0
   -0.8390    3.9760   25.8330 C   0  0  0  0  0  0  0  0  0  0  0  0
    0.5150    4.4660   25.8160 C   0  0  0  0  0  0  0  0  0  0  0  0
    6.5630   -5.0070   26.3160 C   0  0  0  0  0  0  0  0  0  0  0  0
    7.2020   -4.5780   25.1150 C   0  0  0  0  0  0  0  0  0  0  0  0
    8.5720   -4.7450   25.1120 C   0  0  0  0  0  0  0  0  0  0  0  0
    9.3300   -5.3600   26.3480 C   0  0  0  0  0  0  0  0  0  0  0  0
    8.5950   -5.7360   27.4570 C   0  0  0  0  0  0  0  0  0  0  0  0
    7.2150   -5.5620   27.4470 C   0  0  0  0  0  0  0  0  0  0  0  0
    6.8160   -4.5060   21.2330 N   0  0  0  0  0  0  0  0  0  0  0  0
    6.0950   -5.5240   21.9720 C   0  0  0  0  0  0  0  0  0  0  0  0
    5.5920   -4.9930   23.3250 C   0  0  0  0  0  0  0  0  0  0  0  0
    6.5070   -4.0300   24.0240 N   0  0  0  0  0  0  0  0  0  0  0  0
    7.3140   -3.0950   23.1700 C   0  0  1  0  0  0  0  0  0  0  0  0
    7.8700   -3.8970   22.0330 C   0  0  0  0  0  0  0  0  0  0  0  0
  1  5  1  0
  2  6  1  0
  3  6  2  0
  5  6  1  6
  4  8  1  0
  9 10  1  0
  9 11  1  0
  9 12  1  0
 13 14  2  0
 13 15  1  0
 15 16  1  0
 16 17  1  0
 19 20  2  0
 19 21  1  0
 22 23  2  0
 23 24  1  0
  1 25  1  0
 26 27  2  0
 27 28  1  0
 17 29  1  0
 28 29  2  0
  5 30  1  0
 29 30  1  0
 26 31  1  0
 30 31  2  0
 32 33  1  0
  9 34  1  0
 33 34  1  0
 34 35  2  0
  1 36  1  0
 32 36  2  0
 35 36  1  0
  7 37  1  0
 37 38  2  0
  4 39  1  0
 38 39  1  0
 39 40  2  0
 40 41  1  0
  2 42  1  0
 37 42  1  0
 41 42  2  0
 18 43  1  0
 13 44  1  0
 43 44  2  0
 44 45  1  0
 45 46  2  0
 46 47  1  0
 43 48  1  0
 47 48  2  0
 19 49  1  0
 49 50  2  0
 50 51  1  0
 51 52  2  0
 52 53  1  0
 49 54  1  0
 53 54  2  0
 23 55  1  0
 55 56  1  0
 56 57  1  0
 50 58  1  0
 57 58  1  0
 59 25  1  6
 58 59  1  0
 55 60  1  0
 59 60  1  0
M  CHG  2  19   1  21  -1
M  END
