x0426-x0731
     RDKit          3D

 38 41  0  0  0  0  0  0  0  0999 V2000
    1.2770   -0.7450   26.2410 C   0  0  0  0  0  0  0  0  0  0  0  0
    6.6270   -4.8580   26.6600 O   0  0  0  0  0  0  0  0  0  0  0  0
    4.6570   -6.9060   26.2450 O   0  0  0  0  0  0  0  0  0  0  0  0
    5.3120   -5.2040   20.0010 O   0  0  0  0  0  0  0  0  0  0  0  0
    6.2540   -4.6350   20.5160 C   0  0  0  0  0  0  0  0  0  0  0  0
    6.8880   -3.4770   19.7500 C   0  0  0  0  0  0  0  0  0  0  0  0
    5.4720   -5.2980   25.9170 S   0  0  0  0  0  0  0  0  0  0  0  0
    2.2850    1.7720   23.9680 C   0  0  0  0  0  0  0  0  0  0  0  0
    2.1650    0.3190   24.1650 N   0  0  0  0  0  0  0  0  0  0  0  0
    3.4140    2.3810   23.2050 N   0  0  0  0  0  0  0  0  0  0  0  0
    4.1900    1.5300   22.4090 C   0  0  0  0  0  0  0  0  0  0  0  0
    3.6130    1.3340   21.0820 C   0  0  0  0  0  0  0  0  0  0  0  0
    2.7360    4.2760   25.3620 F   0  0  0  0  0  0  0  0  0  0  0  0
    1.0130   -0.1260   24.9170 C   0  0  0  0  0  0  0  0  0  0  0  0
    2.2740   -1.8540   26.1730 C   0  0  0  0  0  0  0  0  0  0  0  0
    1.9490   -3.3470   26.1390 C   0  0  0  0  0  0  0  0  0  0  0  0
    2.8750   -4.3730   26.0630 C   0  0  0  0  0  0  0  0  0  0  0  0
    4.2200   -4.0350   26.0180 C   0  0  0  0  0  0  0  0  0  0  0  0
    4.6160   -2.6990   26.0540 C   0  0  0  0  0  0  0  0  0  0  0  0
    3.7710   -1.5730   26.1270 C   0  0  0  0  0  0  0  0  0  0  0  0
    6.7430   -5.0620   21.7490 N   0  0  0  0  0  0  0  0  0  0  0  0
    7.3330   -4.2550   22.6080 C   0  0  0  0  0  0  0  0  0  0  0  0
    6.4960   -4.0130   23.7060 C   0  0  0  0  0  0  0  0  0  0  0  0
    5.9790   -5.2720   24.2830 N   0  0  0  0  0  0  0  0  0  0  0  0
    5.3800   -6.0470   23.3900 C   0  0  0  0  0  0  0  0  0  0  0  0
    6.2000   -6.1710   22.2850 C   0  0  0  0  0  0  0  0  0  0  0  0
    1.4660    3.8490   25.2770 C   0  0  0  0  0  0  0  0  0  0  0  0
    1.1880    2.6420   24.6060 C   0  0  0  0  0  0  0  0  0  0  0  0
   -0.1570    2.2420   24.5430 C   0  0  0  0  0  0  0  0  0  0  0  0
   -1.3120    3.0210   25.1500 C   0  0  0  0  0  0  0  0  0  0  0  0
   -1.0030    4.3240   25.8760 C   0  0  0  0  0  0  0  0  0  0  0  0
    0.4930    4.6750   25.8860 C   0  0  0  0  0  0  0  0  0  0  0  0
    5.6400    0.0480   20.3130 C   0  0  0  0  0  0  0  0  0  0  0  0
    6.6710   -0.2880   19.2330 C   0  0  0  0  0  0  0  0  0  0  0  0
    6.5500    0.4060   17.9390 N   0  0  0  0  0  0  0  0  0  0  0  0
    5.4440    1.3760   17.7810 C   0  0  0  0  0  0  0  0  0  0  0  0
    4.5540    1.6270   18.8010 C   0  0  0  0  0  0  0  0  0  0  0  0
    4.6380    0.9900   20.0340 C   0  0  0  0  0  0  0  0  0  0  0  0
  4  5  2  0
  5  6  1  0
  2  7  2  0
  3  7  2  0
  8  9  2  3
  8 10  1  0
 10 11  1  0
 11 12  1  0
  1 14  1  0
  9 14  1  0
  1 15  1  0
 15 16  2  0
 16 17  1  0
  7 18  1  0
 17 18  2  0
 18 19  1  0
 15 20  1  0
 19 20  2  0
  5 21  1  0
 21 22  1  0
 22 23  1  0
  7 24  1  0
 23 24  1  0
 24 25  1  0
 21 26  1  0
 25 26  1  0
 13 27  1  0
  8 28  1  0
 27 28  2  0
 28 29  1  0
 29 30  2  0
 30 31  1  0
 27 32  1  0
 31 32  2  0
 33 34  2  0
 34 35  1  0
 35 36  2  0
 36 37  1  0
 12 38  1  0
 33 38  1  0
 37 38  2  0
M  END
