x0426-x0434
     RDKit          3D

 28 30  0  0  0  0  0  0  0  0999 V2000
    2.3630    1.7290   23.7440 C   0  0  0  0  0  0  0  0  0  0  0  0
    2.2350    0.4910   23.7690 O   0  0  0  0  0  0  0  0  0  0  0  0
    3.3720    2.4150   23.0520 N   0  0  0  0  0  0  0  0  0  0  0  0
    4.3390    1.7250   22.3490 C   0  0  0  0  0  0  0  0  0  0  0  0
    3.8460    0.9360   21.3570 C   0  0  0  0  0  0  0  0  0  0  0  0
    2.8150    4.4880   25.3170 F   0  0  0  0  0  0  0  0  0  0  0  0
    8.5850    0.8090   21.2050 O   0  0  0  0  0  0  0  0  0  0  0  0
    8.1350   -0.2790   21.5690 C   0  0  0  0  0  0  0  0  0  0  0  0
    9.1040   -1.1190   22.3110 N   0  0  0  0  0  0  0  0  0  0  0  0
    6.7270   -0.6750   21.2730 N   0  0  0  0  0  0  0  0  0  0  0  0
    1.6070    3.9200   25.2600 C   0  0  0  0  0  0  0  0  0  0  0  0
    1.3580    2.6760   24.5620 C   0  0  0  0  0  0  0  0  0  0  0  0
    0.0190    2.2470   24.6240 C   0  0  0  0  0  0  0  0  0  0  0  0
   -1.0100    2.5320   25.0450 C   0  0  0  0  0  0  0  0  0  0  0  0
   -0.8810    3.8650   25.8250 C   0  0  0  0  0  0  0  0  0  0  0  0
    0.4290    4.5000   25.8970 C   0  0  0  0  0  0  0  0  0  0  0  0
    6.0850    0.0500   20.1710 C   0  0  0  0  0  0  0  0  0  0  0  0
    6.8310   -0.0060   19.0200 C   0  0  0  0  0  0  0  0  0  0  0  0
    6.4080    0.6550   17.7970 N   0  0  0  0  0  0  0  0  0  0  0  0
    5.2570    1.3410   17.8010 C   0  0  0  0  0  0  0  0  0  0  0  0
    4.4540    1.4240   18.9330 C   0  0  0  0  0  0  0  0  0  0  0  0
    4.7610    0.8200   20.1650 C   0  0  0  0  0  0  0  0  0  0  0  0
   10.6480    0.6020   23.0180 C   0  0  0  0  0  0  0  0  0  0  0  0
   11.9490    1.0370   23.2150 C   0  0  0  0  0  0  0  0  0  0  0  0
   13.0230    0.2470   22.9500 C   0  0  0  0  0  0  0  0  0  0  0  0
   12.9460   -1.0390   22.4680 C   0  0  0  0  0  0  0  0  0  0  0  0
   11.6760   -1.5640   22.2330 C   0  0  0  0  0  0  0  0  0  0  0  0
   10.4440   -0.6930   22.5230 C   0  0  0  0  0  0  0  0  0  0  0  0
  1  2  2  0
  1  3  1  0
  3  4  1  0
  4  5  1  0
  7  8  2  0
  8  9  1  0
  8 10  1  0
  6 11  1  0
  1 12  1  0
 11 12  2  0
 12 13  1  0
 13 14  2  0
 14 15  1  0
 11 16  1  0
 15 16  2  0
 10 17  1  0
 17 18  2  0
 18 19  1  0
 19 20  2  0
 20 21  1  0
  5 22  1  0
 17 22  1  0
 21 22  2  0
 23 24  2  0
 24 25  1  0
 25 26  2  0
 26 27  1  0
  9 28  1  0
 23 28  1  0
 27 28  2  0
M  END
