x0426-x2646
     RDKit          3D

 29 31  0  0  0  0  0  0  0  0999 V2000
    2.2010    1.8450   23.8440 C   0  0  0  0  0  0  0  0  0  0  0  0
    2.0710    0.6110   23.8870 O   0  0  0  0  0  0  0  0  0  0  0  0
    3.2650    2.4450   23.1450 N   0  0  0  0  0  0  0  0  0  0  0  0
    4.1700    1.6680   22.4370 C   0  0  0  0  0  0  0  0  0  0  0  0
    3.7210    1.2920   21.2040 C   0  0  0  0  0  0  0  0  0  0  0  0
    2.9910    4.3410   25.2020 F   0  0  0  0  0  0  0  0  0  0  0  0
    8.4830    0.5730   21.3110 O   0  0  0  0  0  0  0  0  0  0  0  0
   13.2610   -2.0740   21.1450 Cl  0  0  0  0  0  0  0  0  0  0  0  0
    6.5740   -0.5820   21.4180 N   0  0  0  0  0  0  0  0  0  0  0  0
    7.8240   -0.3060   21.8800 C   0  0  0  0  0  0  0  0  0  0  0  0
    8.4140   -1.0360   23.0790 C   0  0  0  0  0  0  0  0  0  0  0  0
    1.7470    3.8520   25.1870 C   0  0  0  0  0  0  0  0  0  0  0  0
    1.1970    2.6850   24.5920 C   0  0  0  0  0  0  0  0  0  0  0  0
    0.3010    2.0000   24.3740 C   0  0  0  0  0  0  0  0  0  0  0  0
   -0.9580    2.5810   25.0250 C   0  0  0  0  0  0  0  0  0  0  0  0
   -0.7930    3.8180   25.7530 C   0  0  0  0  0  0  0  0  0  0  0  0
    0.4900    4.4710   25.8610 C   0  0  0  0  0  0  0  0  0  0  0  0
    6.0920    0.0940   20.2170 C   0  0  0  0  0  0  0  0  0  0  0  0
    6.8110   -0.0070   19.0360 C   0  0  0  0  0  0  0  0  0  0  0  0
    6.3890    0.6550   17.8060 N   0  0  0  0  0  0  0  0  0  0  0  0
    5.3000    1.3840   17.7720 C   0  0  0  0  0  0  0  0  0  0  0  0
    4.4960    1.5440   18.8980 C   0  0  0  0  0  0  0  0  0  0  0  0
    4.7900    0.9600   20.1210 C   0  0  0  0  0  0  0  0  0  0  0  0
   10.5890    0.3400   24.0000 C   0  0  0  0  0  0  0  0  0  0  0  0
   11.9650    0.4960   23.8810 C   0  0  0  0  0  0  0  0  0  0  0  0
   12.8230   -0.2010   23.0420 C   0  0  0  0  0  0  0  0  0  0  0  0
   12.3000   -1.1810   22.2030 C   0  0  0  0  0  0  0  0  0  0  0  0
   10.8220   -1.4780   22.2030 C   0  0  0  0  0  0  0  0  0  0  0  0
    9.8980   -0.7050   23.1240 C   0  0  0  0  0  0  0  0  0  0  0  0
  1  2  2  0
  1  3  1  0
  3  4  1  0
  4  5  1  0
  7 10  2  0
  9 10  1  0
 10 11  1  0
  6 12  1  0
  1 13  1  0
 12 13  2  0
 13 14  1  0
 14 15  2  0
 15 16  1  0
 12 17  1  0
 16 17  2  0
  9 18  1  0
 18 19  2  0
 19 20  1  0
 20 21  2  0
 21 22  1  0
  5 23  1  0
 18 23  1  0
 22 23  2  0
 24 25  2  0
 25 26  1  0
  8 27  1  0
 26 27  2  0
 27 28  1  0
 11 29  1  0
 24 29  1  0
 28 29  2  0
M  END
