x0426-x2694-x2572-x1458
     RDKit          3D

 58 62  0  0  0  0  0  0  0  0999 V2000
    7.1470   -1.3630   21.5980 N   0  0  0  0  0  0  0  0  0  0  0  0
    7.9700   -4.0600   21.0930 C   0  0  0  0  0  0  0  0  0  0  0  0
    5.0920   -3.3160   21.0090 O   0  0  0  0  0  0  0  0  0  0  0  0
    7.6040    2.1500   22.7780 N   0  0  0  0  0  0  0  0  0  0  0  0
    9.0190    1.1360   21.0950 O   0  0  0  0  0  0  0  0  0  0  0  0
    5.9940   -2.3290   21.2510 C   0  0  0  0  0  0  0  0  0  0  0  0
   10.8760    6.6650   23.9130 O   0  0  0  0  0  0  0  0  0  0  0  0
    6.7640    0.1340   21.6710 C   0  0  1  0  0  0  0  0  0  0  0  0
    7.8210    1.1160   21.8460 C   0  0  0  0  0  0  0  0  0  0  0  0
   10.1670    1.6880   23.9030 C   0  0  0  0  0  0  0  0  0  0  0  0
   11.7970    6.5460   24.7430 C   0  0  0  0  0  0  0  0  0  0  0  0
   12.1380   -1.4990   23.3610 C   0  0  0  0  0  0  0  0  0  0  0  0
   12.5910   -0.1040   23.8280 C   0  0  0  0  0  0  0  0  0  0  0  0
   12.8780   -1.7250   22.0400 C   0  0  0  0  0  0  0  0  0  0  0  0
   12.6580   -2.5370   24.3820 C   0  0  0  0  0  0  0  0  0  0  0  0
    3.5290    1.2940   21.3550 C   0  0  1  0  0  0  0  0  0  0  0  0
   13.5180   -1.8520   20.8380 N   0  0  0  0  0  0  0  0  0  0  0  0
    2.6260    1.5920   23.6300 C   0  0  0  0  0  0  0  0  0  0  0  0
    2.5230    0.4160   23.9520 O   0  0  0  0  0  0  0  0  0  0  0  0
    3.5920    2.0000   22.6610 N   0  0  0  0  0  0  0  0  0  0  0  0
    3.1720    4.1950   24.9890 F   0  0  0  0  0  0  0  0  0  0  0  0
    2.3240    1.8260   20.6170 C   0  0  0  0  0  0  0  0  0  0  0  0
    7.0230   -3.6880   26.0840 N   0  0  0  0  0  0  0  0  0  0  0  0
    9.0410   -4.7650   27.1050 C   0  0  0  0  0  0  0  0  0  0  0  0
    4.8870   -4.3090   25.9890 O   0  0  0  0  0  0  0  0  0  0  0  0
    7.5570   -4.4240   27.2470 C   0  0  0  0  0  0  0  0  0  0  0  0
    6.7660   -5.6860   27.5910 C   0  0  0  0  0  0  0  0  0  0  0  0
    7.2730   -2.4070   26.0730 C   0  0  0  0  0  0  0  0  0  0  0  0
    5.9580   -4.1270   25.4220 C   0  0  0  0  0  0  0  0  0  0  0  0
    6.4260    0.7360   18.0220 N   0  0  0  0  0  0  0  0  0  0  0  0
    5.0840    1.2860   17.8630 C   0  0  0  0  0  0  0  0  0  0  0  0
    4.3140    1.3980   19.0300 C   0  0  0  0  0  0  0  0  0  0  0  0
    4.7100    1.0500   20.3310 C   0  0  0  0  0  0  0  0  0  0  0  0
    6.0240    0.5590   20.4250 C   0  0  0  0  0  0  0  0  0  0  0  0
    6.7850    0.4250   19.2680 C   0  0  0  0  0  0  0  0  0  0  0  0
    8.3330   -1.7830   23.7760 N   0  0  0  0  0  0  0  0  0  0  0  0
    9.6940   -1.8100   24.2260 O   0  0  0  0  0  0  0  0  0  0  0  0
   10.5950   -1.5590   23.2010 C   0  0  0  0  0  0  0  0  0  0  0  0
    9.8160   -1.3730   22.0600 C   0  0  0  0  0  0  0  0  0  0  0  0
    8.3450   -1.5170   22.4370 C   0  0  0  0  0  0  0  0  0  0  0  0
    9.6890    3.0760   23.6050 C   0  0  0  0  0  0  0  0  0  0  0  0
   10.5580    4.1120   23.9120 C   0  0  0  0  0  0  0  0  0  0  0  0
   10.1330    5.5400   23.6470 C   0  0  0  0  0  0  0  0  0  0  0  0
    8.8640    5.7160   23.0800 C   0  0  0  0  0  0  0  0  0  0  0  0
    8.0270    4.6230   22.7830 C   0  0  0  0  0  0  0  0  0  0  0  0
    8.4200    3.2910   23.0450 C   0  0  0  0  0  0  0  0  0  0  0  0
    1.9240    3.7070   24.9390 C   0  0  0  0  0  0  0  0  0  0  0  0
    1.6260    2.5100   24.3160 C   0  0  0  0  0  0  0  0  0  0  0  0
    0.2890    2.0630   24.3100 C   0  0  0  0  0  0  0  0  0  0  0  0
   -0.8040    2.7210   24.8870 C   0  0  0  0  0  0  0  0  0  0  0  0
   -0.5550    3.9640   25.5460 C   0  0  0  0  0  0  0  0  0  0  0  0
    0.8990    4.4490   25.5500 C   0  0  0  0  0  0  0  0  0  0  0  0
    5.8240   -4.6960   21.4240 N   0  0  0  0  0  0  0  0  0  0  0  0
    6.8110   -3.6190   21.7020 C   0  0  1  0  0  0  0  0  0  0  0  0
    6.9450   -3.5230   23.2560 C   0  0  0  0  0  0  0  0  0  0  0  0
    6.0670   -4.3640   23.9030 C   0  0  1  0  0  0  0  0  0  0  0  0
    6.1530   -5.6900   23.5280 C   0  0  0  0  0  0  0  0  0  0  0  0
    6.0790   -5.9430   22.1580 C   0  0  0  0  0  0  0  0  0  0  0  0
  1  6  1  0
  3  6  2  0
  1  8  1  0
  4  9  1  0
  5  9  2  0
  8  9  1  6
  7 11  1  0
 12 13  1  0
 12 14  1  0
 12 15  1  0
 14 17  3  0
 18 19  2  0
 16 20  1  0
 18 20  1  0
 16 22  1  6
 23 26  1  0
 24 26  1  0
 26 27  1  0
 23 28  1  0
 23 29  1  0
 25 29  2  0
 30 31  2  0
 31 32  1  0
 16 33  1  0
 32 33  2  0
  8 34  1  0
 33 34  1  0
 30 35  1  0
 34 35  2  0
 36 37  1  0
 12 38  1  0
 37 38  1  0
 38 39  2  0
  1 40  1  0
 36 40  2  0
 39 40  1  0
 10 41  1  0
 41 42  2  0
  7 43  1  0
 42 43  1  0
 43 44  2  0
 44 45  1  0
  4 46  1  0
 41 46  1  0
 45 46  2  0
 21 47  1  0
 18 48  1  0
 47 48  2  0
 48 49  1  0
 49 50  2  0
 50 51  1  0
 47 52  1  0
 51 52  2  0
 54  2  1  6
  6 54  1  0
 53 54  1  0
 54 55  1  0
 56 29  1  1
 55 56  1  0
 56 57  1  0
 53 58  1  0
 57 58  1  0
M  END
