x0426-x1249
     RDKit          3D

 35 39  0  0  0  0  0  0  0  0999 V2000
    2.3180    1.9800   23.9730 C   0  0  0  0  0  0  0  0  0  0  0  0
    2.4270    0.5950   24.0410 N   0  0  0  0  0  0  0  0  0  0  0  0
    3.3600    2.5630   23.2690 N   0  0  0  0  0  0  0  0  0  0  0  0
    3.6480    1.3690   21.2900 C   0  0  0  0  0  0  0  0  0  0  0  0
    2.9050    4.4940   25.2850 F   0  0  0  0  0  0  0  0  0  0  0  0
    8.0350    0.6640   24.7690 N   0  0  0  0  0  0  0  0  0  0  0  0
    7.4740    1.3800   24.0370 C   0  0  0  0  0  0  0  0  0  0  0  0
    8.0170    2.3420   23.4940 O   0  0  0  0  0  0  0  0  0  0  0  0
    9.2900    1.0420   25.1340 C   0  0  0  0  0  0  0  0  0  0  0  0
   13.5480   -2.8450   20.6920 N   0  0  0  0  0  0  0  0  0  0  0  0
   12.9770   -1.9740   21.5220 C   0  0  0  0  0  0  0  0  0  0  0  0
    1.6780    3.9700   25.2230 C   0  0  0  0  0  0  0  0  0  0  0  0
    1.2040    2.7580   24.6230 C   0  0  0  0  0  0  0  0  0  0  0  0
    0.3660    1.9890   24.3450 C   0  0  0  0  0  0  0  0  0  0  0  0
   -0.9230    2.5880   24.9410 C   0  0  0  0  0  0  0  0  0  0  0  0
   -0.8220    3.8350   25.6350 C   0  0  0  0  0  0  0  0  0  0  0  0
    0.3860    4.5730   25.8210 C   0  0  0  0  0  0  0  0  0  0  0  0
    5.7750   -0.0580   20.3740 C   0  0  0  0  0  0  0  0  0  0  0  0
    6.5960   -0.2750   19.2520 C   0  0  0  0  0  0  0  0  0  0  0  0
    6.4320    0.4260   17.9600 N   0  0  0  0  0  0  0  0  0  0  0  0
    5.4150    1.3430   17.8600 C   0  0  0  0  0  0  0  0  0  0  0  0
    4.5690    1.6040   18.9320 C   0  0  0  0  0  0  0  0  0  0  0  0
    4.6410    1.0010   20.1820 C   0  0  0  0  0  0  0  0  0  0  0  0
    3.6080    0.2560   23.3890 N   0  0  0  0  0  0  0  0  0  0  0  0
    4.0650    1.4420   22.6070 C   0  0  2  0  0  0  0  0  0  0  0  0
    5.4550    1.7200   22.6650 C   0  0  0  0  0  0  0  0  0  0  0  0
    6.1230    1.0670   23.8220 N   0  0  0  0  0  0  0  0  0  0  0  0
    5.2420    0.8330   24.9570 C   0  0  0  0  0  0  0  0  0  0  0  0
    4.6230   -0.2490   24.3160 C   0  0  0  0  0  0  0  0  0  0  0  0
   11.4900    0.9960   23.8440 C   0  0  0  0  0  0  0  0  0  0  0  0
   12.5110    0.2860   22.9110 C   0  0  0  0  0  0  0  0  0  0  0  0
   12.1560   -1.1400   22.4260 C   0  0  0  0  0  0  0  0  0  0  0  0
   10.8630   -1.6680   22.9340 C   0  0  0  0  0  0  0  0  0  0  0  0
    9.9610   -0.9010   23.8330 C   0  0  0  0  0  0  0  0  0  0  0  0
   10.2840    0.3670   24.2450 C   0  0  0  0  0  0  0  0  0  0  0  0
  1  2  2  0
  1  3  1  0
  6  7  1  0
  7  8  2  0
  6  9  1  0
 10 11  3  0
  5 12  1  0
  1 13  1  0
 12 13  2  0
 13 14  1  0
 14 15  2  0
 15 16  1  0
 12 17  1  0
 16 17  2  0
 18 19  2  0
 19 20  1  0
 20 21  2  0
 21 22  1  0
  4 23  1  0
 18 23  1  0
 22 23  2  0
  2 24  1  0
  3 25  1  0
 25  4  1  6
 24 25  1  0
 25 26  1  0
  7 27  1  0
 26 27  1  0
 27 28  1  0
 24 29  1  0
 28 29  1  0
 30 31  2  0
 11 32  1  0
 31 32  1  0
 32 33  2  0
 33 34  1  0
  9 35  1  0
 30 35  1  0
 34 35  2  0
M  END
