x0426-x1380
     RDKit          3D

 38 41  0  0  0  0  0  0  0  0999 V2000
    2.3930    2.0280   23.9600 C   0  0  0  0  0  0  0  0  0  0  0  0
    2.8780    0.8380   24.4620 N   0  0  0  0  0  0  0  0  0  0  0  0
    3.0860    2.5570   22.8830 N   0  0  0  0  0  0  0  0  0  0  0  0
    4.1400    1.9040   22.2530 C   0  0  0  0  0  0  0  0  0  0  0  0
    3.5550    1.2000   21.2400 C   0  0  0  0  0  0  0  0  0  0  0  0
    2.6340    4.4380   25.2920 F   0  0  0  0  0  0  0  0  0  0  0  0
    7.0120   -3.2720   19.2740 C   0  0  0  0  0  0  0  0  0  0  0  0
    5.2750   -4.7810   19.9450 O   0  0  0  0  0  0  0  0  0  0  0  0
    6.2710   -4.1510   20.2620 C   0  0  0  0  0  0  0  0  0  0  0  0
    5.1320   -2.4740   25.5930 N   0  0  0  0  0  0  0  0  0  0  0  0
    6.2030   -3.3260   25.7140 C   0  0  0  0  0  0  0  0  0  0  0  0
    3.9700   -0.0050   24.1280 C   0  0  0  0  0  0  0  0  0  0  0  0
    3.6480   -1.1240   24.0640 C   0  0  0  0  0  0  0  0  0  0  0  0
    4.7160   -2.1910   24.3240 C   0  0  0  0  0  0  0  0  0  0  0  0
    1.3880    3.9430   25.2390 C   0  0  0  0  0  0  0  0  0  0  0  0
    1.1970    2.7310   24.5770 C   0  0  0  0  0  0  0  0  0  0  0  0
   -0.0930    2.2310   24.5350 C   0  0  0  0  0  0  0  0  0  0  0  0
   -1.1870    2.8800   25.1170 C   0  0  0  0  0  0  0  0  0  0  0  0
   -0.9820    4.0910   25.7760 C   0  0  0  0  0  0  0  0  0  0  0  0
    0.3120    4.6290   25.8390 C   0  0  0  0  0  0  0  0  0  0  0  0
    5.7440    0.0300   20.1930 C   0  0  0  0  0  0  0  0  0  0  0  0
    6.6450   -0.1780   19.1530 C   0  0  0  0  0  0  0  0  0  0  0  0
    6.4950    0.4600   17.9860 N   0  0  0  0  0  0  0  0  0  0  0  0
    5.4350    1.3340   17.8370 C   0  0  0  0  0  0  0  0  0  0  0  0
    4.5100    1.5790   18.8370 C   0  0  0  0  0  0  0  0  0  0  0  0
    4.5640    0.9720   20.0800 C   0  0  0  0  0  0  0  0  0  0  0  0
    6.8160   -4.2570   21.5310 N   0  0  0  0  0  0  0  0  0  0  0  0
    6.4850   -5.3030   22.3130 C   0  0  0  0  0  0  0  0  0  0  0  0
    5.8940   -4.8450   23.6590 C   0  0  0  0  0  0  0  0  0  0  0  0
    6.8480   -3.9080   24.4290 C   0  0  0  0  0  0  0  0  0  0  0  0
    7.4180   -2.8120   23.5550 C   0  0  0  0  0  0  0  0  0  0  0  0
    7.6680   -3.2330   22.1150 C   0  0  0  0  0  0  0  0  0  0  0  0
    7.9770   -4.3480   26.9800 C   0  0  0  0  0  0  0  0  0  0  0  0
    8.0490   -5.1360   28.1240 C   0  0  0  0  0  0  0  0  0  0  0  0
    6.8450   -5.5210   28.6950 C   0  0  0  0  0  0  0  0  0  0  0  0
    5.8910   -4.5280   28.8730 C   0  0  0  0  0  0  0  0  0  0  0  0
    6.0860   -3.3640   28.1500 C   0  0  0  0  0  0  0  0  0  0  0  0
    6.7720   -3.7070   26.9030 N   0  0  0  0  0  0  0  0  0  0  0  0
  1  2  2  3
  1  3  1  0
  3  4  1  0
  4  5  1  0
  7  9  1  0
  8  9  2  0
 10 11  2  3
  2 12  1  0
 12 13  1  0
 10 14  1  0
 13 14  1  0
  6 15  1  0
  1 16  1  0
 15 16  2  0
 16 17  1  0
 17 18  2  0
 18 19  1  0
 15 20  1  0
 19 20  2  0
 21 22  2  0
 22 23  1  0
 23 24  2  0
 24 25  1  0
  5 26  1  0
 21 26  1  0
 25 26  2  0
  9 27  1  0
 27 28  1  0
 28 29  1  0
 11 30  1  0
 29 30  1  0
 30 31  1  0
 27 32  1  0
 31 32  1  0
 33 34  1  0
 34 35  1  0
 35 36  1  0
 36 37  1  0
 11 38  1  0
 33 38  1  0
 37 38  1  0
M  END
