x0426-x2540
     RDKit          3D

 40 42  0  0  0  0  0  0  0  0999 V2000
    6.8090   -1.4390   21.9550 N   0  0  0  0  0  0  0  0  0  0  0  0
    7.1260   -3.3360   19.4690 C   0  0  0  0  0  0  0  0  0  0  0  0
    4.7500   -3.0020   21.4210 O   0  0  0  0  0  0  0  0  0  0  0  0
    6.9580   -3.6660   20.9320 C   0  0  0  0  0  0  0  0  0  0  0  0
    7.9180    1.5910   23.1690 N   0  0  0  0  0  0  0  0  0  0  0  0
    8.5150    1.4160   20.9900 O   0  0  0  0  0  0  0  0  0  0  0  0
    6.0320   -2.6380   21.4750 C   0  0  0  0  0  0  0  0  0  0  0  0
    6.5500    0.0460   21.6520 C   0  0  1  0  0  0  0  0  0  0  0  0
    7.7400    1.0480   21.8940 C   0  0  0  0  0  0  0  0  0  0  0  0
    8.8750    2.7020   23.3390 C   0  0  0  0  0  0  0  0  0  0  0  0
    8.9840    3.0360   24.7470 C   0  0  0  0  0  0  0  0  0  0  0  0
    8.3920    3.9530   22.5680 C   0  0  0  0  0  0  0  0  0  0  0  0
   10.2050    2.4000   22.8810 C   0  0  0  0  0  0  0  0  0  0  0  0
   12.0390   -1.3420   23.5390 C   0  0  0  0  0  0  0  0  0  0  0  0
   12.7240   -1.3370   22.3220 C   0  0  0  0  0  0  0  0  0  0  0  0
   12.3660   -0.0930   24.3680 C   0  0  0  0  0  0  0  0  0  0  0  0
   12.6490   -2.4940   24.4050 C   0  0  0  0  0  0  0  0  0  0  0  0
    2.3320    1.7910   23.7600 C   0  0  0  0  0  0  0  0  0  0  0  0
    2.2850    0.5600   23.6910 O   0  0  0  0  0  0  0  0  0  0  0  0
    3.3130    2.4990   23.1940 N   0  0  0  0  0  0  0  0  0  0  0  0
    4.2550    1.5860   22.5250 C   0  0  0  0  0  0  0  0  0  0  0  0
    3.7770    1.6150   21.2140 C   0  0  0  0  0  0  0  0  0  0  0  0
    2.7710    4.2880   25.2010 F   0  0  0  0  0  0  0  0  0  0  0  0
    6.4240    0.5100   17.7640 N   0  0  0  0  0  0  0  0  0  0  0  0
    5.1530    1.2670   17.7270 C   0  0  0  0  0  0  0  0  0  0  0  0
    4.4140    1.5470   18.8680 C   0  0  0  0  0  0  0  0  0  0  0  0
    4.8000    1.1630   20.1490 C   0  0  0  0  0  0  0  0  0  0  0  0
    6.0040    0.4610   20.2840 C   0  0  0  0  0  0  0  0  0  0  0  0
    6.8600    0.0940   19.1020 C   0  0  0  0  0  0  0  0  0  0  0  0
    9.7760   -2.1550   24.2990 O   0  0  0  0  0  0  0  0  0  0  0  0
    8.4410   -2.2040   23.9400 N   0  0  0  0  0  0  0  0  0  0  0  0
    8.1500   -1.5740   22.6260 C   0  0  0  0  0  0  0  0  0  0  0  0
    9.5910   -1.1280   22.2390 C   0  0  0  0  0  0  0  0  0  0  0  0
   10.5110   -1.5400   23.3620 C   0  0  0  0  0  0  0  0  0  0  0  0
    1.5350    3.7630   25.1840 C   0  0  0  0  0  0  0  0  0  0  0  0
    1.2740    2.5530   24.4990 C   0  0  0  0  0  0  0  0  0  0  0  0
   -0.0260    2.0550   24.5150 C   0  0  0  0  0  0  0  0  0  0  0  0
   -1.0200    2.7400   25.1870 C   0  0  0  0  0  0  0  0  0  0  0  0
   -0.7750    3.9290   25.8630 C   0  0  0  0  0  0  0  0  0  0  0  0
    0.5170    4.4700   25.8770 C   0  0  0  0  0  0  0  0  0  0  0  0
  2  4  1  0
  1  7  1  0
  3  7  2  0
  4  7  1  0
  1  8  1  0
  5  9  1  0
  6  9  2  0
  8  9  1  6
 10  5  1  0
 10 11  1  0
 10 12  1  0
 10 13  1  0
 14 15  1  0
 14 16  1  0
 14 17  1  0
 18 19  2  0
 18 20  1  0
 20 21  1  0
 21 22  1  0
 24 25  2  0
 25 26  1  0
 22 27  1  0
 26 27  2  0
  8 28  1  0
 27 28  1  0
 24 29  1  0
 28 29  2  0
 30 31  1  0
  1 32  1  0
 31 32  2  0
 32 33  1  0
 14 34  1  0
 30 34  1  0
 33 34  2  0
 23 35  1  0
 18 36  1  0
 35 36  2  0
 36 37  1  0
 37 38  2  0
 38 39  1  0
 35 40  1  0
 39 40  2  0
M  END
