x0426-x1077-x3110-x0734
     RDKit          3D

 57 62  0  0  0  0  0  0  0  0999 V2000
    7.8350    1.4060   23.2700 N   0  0  0  0  0  0  0  0  0  0  0  0
   13.3760    5.1910   22.9140 C   0  0  0  0  0  0  0  0  0  0  0  0
   12.0550    3.2950   22.4390 O   0  0  0  0  0  0  0  0  0  0  0  0
   12.4490    4.5550   21.9280 C   0  0  0  0  0  0  0  0  0  0  0  0
    6.9400   -1.6740   21.8720 N   0  0  0  0  0  0  0  0  0  0  0  0
   10.9980    4.2590   24.1460 O   0  0  0  0  0  0  0  0  0  0  0  0
   11.1070    3.2450   23.4090 C   0  0  0  0  0  0  0  0  0  0  0  0
    8.2830    1.1550   21.1040 O   0  0  0  0  0  0  0  0  0  0  0  0
   10.2250    2.0500   23.5870 C   0  0  0  0  0  0  0  0  0  0  0  0
    4.8820   -3.0870   21.2460 O   0  0  0  0  0  0  0  0  0  0  0  0
    8.8050    2.5160   23.3150 C   0  0  0  0  0  0  0  0  0  0  0  0
    7.5050    0.7270   22.1110 C   0  0  0  0  0  0  0  0  0  0  0  0
    6.5820   -0.2950   21.6830 C   0  0  1  0  0  0  0  0  0  0  0  0
    6.1500   -2.8990   21.6560 C   0  0  0  0  0  0  0  0  0  0  0  0
    7.1560   -4.9130   20.8290 C   0  0  0  0  0  0  0  0  0  0  0  0
   12.3330   -1.7680   24.1620 C   0  0  0  0  0  0  0  0  0  0  0  0
   12.5380   -0.5460   25.0350 C   0  0  0  0  0  0  0  0  0  0  0  0
   13.3310   -1.7030   23.0040 C   0  0  0  0  0  0  0  0  0  0  0  0
   12.7180   -2.9710   25.0340 C   0  0  0  0  0  0  0  0  0  0  0  0
    2.2880    1.7860   23.7890 C   0  0  0  0  0  0  0  0  0  0  0  0
    2.2090    0.5530   23.7720 O   0  0  0  0  0  0  0  0  0  0  0  0
    3.3030    2.4970   23.1640 N   0  0  0  0  0  0  0  0  0  0  0  0
    4.3090    1.9160   22.4520 C   0  0  0  0  0  0  0  0  0  0  0  0
    3.8370    1.0880   21.3600 C   0  0  0  0  0  0  0  0  0  0  0  0
    2.7830    4.2410   25.1760 F   0  0  0  0  0  0  0  0  0  0  0  0
    5.3020   -4.5230   25.4210 N   0  0  0  0  0  0  0  0  0  0  0  0
    4.4350   -5.3840   25.2250 O   0  0  0  0  0  0  0  0  0  0  0  0
    5.2310   -3.7470   26.3880 O   0  0  0  0  0  0  0  0  0  0  0  0
    6.5510    0.3970   17.9570 N   0  0  0  0  0  0  0  0  0  0  0  0
    5.2920    1.0750   17.8350 C   0  0  0  0  0  0  0  0  0  0  0  0
    4.3540    1.3120   19.0010 C   0  0  0  0  0  0  0  0  0  0  0  0
    4.8020    0.8380   20.2170 C   0  0  0  0  0  0  0  0  0  0  0  0
    6.0520    0.1910   20.3270 C   0  0  0  0  0  0  0  0  0  0  0  0
    6.8570   -0.0060   19.2030 C   0  0  0  0  0  0  0  0  0  0  0  0
    9.3550   -1.6020   21.6700 C   0  0  0  0  0  0  0  0  0  0  0  0
   10.7220   -1.6330   22.2300 C   0  0  0  0  0  0  0  0  0  0  0  0
   10.9040   -1.7680   23.6080 C   0  0  0  0  0  0  0  0  0  0  0  0
    9.7880   -1.8790   24.4440 C   0  0  0  0  0  0  0  0  0  0  0  0
    8.4890   -1.8500   23.8770 C   0  0  0  0  0  0  0  0  0  0  0  0
    8.2560   -1.7150   22.4920 C   0  0  0  0  0  0  0  0  0  0  0  0
    1.5350    3.7440   25.1720 C   0  0  0  0  0  0  0  0  0  0  0  0
    1.2490    2.5730   24.5230 C   0  0  0  0  0  0  0  0  0  0  0  0
   -0.0360    2.0770   24.5300 C   0  0  0  0  0  0  0  0  0  0  0  0
   -1.0350    2.7550   25.1880 C   0  0  0  0  0  0  0  0  0  0  0  0
   -0.7670    3.9450   25.8530 C   0  0  0  0  0  0  0  0  0  0  0  0
    0.5420    4.4640   25.8540 C   0  0  0  0  0  0  0  0  0  0  0  0
    6.7510   -5.0150   23.4290 C   0  0  2  0  0  0  0  0  0  0  0  0
    7.9800   -5.5480   23.1490 C   0  0  1  0  0  0  0  0  0  0  0  0
    8.8250   -5.9630   24.1270 C   0  0  0  0  0  0  0  0  0  0  0  0
    9.6920   -5.0560   24.6780 C   0  0  0  0  0  0  0  0  0  0  0  0
    9.0380   -3.9060   25.2510 N   0  0  0  0  0  0  0  0  0  0  0  0
    7.5920   -3.9080   25.5160 C   0  0  0  0  0  0  0  0  0  0  0  0
    6.7120   -4.7820   24.8490 C   0  0  1  0  0  0  0  0  0  0  0  0
    5.9520   -6.2240   22.8610 C   0  0  0  0  0  0  0  0  0  0  0  0
    7.2370   -6.5700   22.2520 C   0  0  0  0  0  0  0  0  0  0  0  0
    8.3760   -4.0860   22.7040 C   0  0  0  0  0  0  0  0  0  0  0  0
    7.0430   -4.1360   21.9660 C   0  0  2  0  0  0  0  0  0  0  0  0
  2  4  1  0
  3  4  1  0
  3  7  1  0
  6  7  2  0
  7  9  1  0
  1 11  1  0
  9 11  1  0
  1 12  1  0
  8 12  2  0
  5 13  1  0
 13 12  1  6
  5 14  1  0
 10 14  2  0
 16 17  1  0
 16 18  1  0
 16 19  1  0
 20 21  2  0
 20 22  1  0
 22 23  1  0
 23 24  1  0
 26 27  2  0
 26 28  1  0
 29 30  2  0
 30 31  1  0
 24 32  1  0
 31 32  2  0
 13 33  1  0
 32 33  1  0
 29 34  1  0
 33 34  2  0
 35 36  2  0
 16 37  1  0
 36 37  1  0
 37 38  2  0
 38 39  1  0
  5 40  1  0
 35 40  1  0
 39 40  2  0
 25 41  1  0
 20 42  1  0
 41 42  2  0
 42 43  1  0
 43 44  2  0
 44 45  1  0
 41 46  1  0
 45 46  2  0
 47 48  1  0
 48 49  1  1
 49 50  1  0
 50 51  1  0
 51 52  1  0
 53 26  1  6
 47 53  1  0
 52 53  1  0
 47 54  1  6
 48 55  1  0
 54 55  1  0
 48 56  1  0
 57 14  1  0
 57 15  1  6
 47 57  1  0
 56 57  1  0
M  CHG  2  26   1  28  -1
M  END
