x0426-x0831
     RDKit          3D

 38 42  0  0  0  0  0  0  0  0999 V2000
    2.2320    1.7730   23.8210 C   0  0  0  0  0  0  0  0  0  0  0  0
    2.1000    0.5930   23.7620 O   0  0  0  0  0  0  0  0  0  0  0  0
    3.3700    2.4260   23.1840 N   0  0  0  0  0  0  0  0  0  0  0  0
    4.3770    1.6700   22.4380 C   0  0  0  0  0  0  0  0  0  0  0  0
    3.8800    1.6020   20.9930 C   0  0  0  0  0  0  0  0  0  0  0  0
    2.7800    4.2660   25.2000 F   0  0  0  0  0  0  0  0  0  0  0  0
   12.5900   -1.9690   22.2140 C   0  0  0  0  0  0  0  0  0  0  0  0
    5.8370   -4.3960   19.6120 O   0  0  0  0  0  0  0  0  0  0  0  0
    9.9690   -2.2590   23.6840 C   0  0  0  0  0  0  0  0  0  0  0  0
    6.4550   -3.3550   19.8220 C   0  0  0  0  0  0  0  0  0  0  0  0
    7.1470   -2.6790   18.6480 C   0  0  0  0  0  0  0  0  0  0  0  0
    5.1630    0.7190   22.3300 C   0  0  0  0  0  0  0  0  0  0  0  0
    5.9490   -0.2320   22.2230 C   0  0  0  0  0  0  0  0  0  0  0  0
    1.4970    3.7810   25.2080 C   0  0  0  0  0  0  0  0  0  0  0  0
    1.1770    2.5870   24.5680 C   0  0  0  0  0  0  0  0  0  0  0  0
   -0.1390    2.1240   24.5970 C   0  0  0  0  0  0  0  0  0  0  0  0
   -1.1280    2.8340   25.2660 C   0  0  0  0  0  0  0  0  0  0  0  0
   -0.8080    4.0240   25.9010 C   0  0  0  0  0  0  0  0  0  0  0  0
    0.4990    4.4890   25.8670 C   0  0  0  0  0  0  0  0  0  0  0  0
    5.8900    0.2020   20.1980 C   0  0  0  0  0  0  0  0  0  0  0  0
    6.7350   -0.1650   19.1490 C   0  0  0  0  0  0  0  0  0  0  0  0
    6.5960    0.3390   17.9310 N   0  0  0  0  0  0  0  0  0  0  0  0
    5.6440    1.2070   17.6790 C   0  0  0  0  0  0  0  0  0  0  0  0
    4.7650    1.6300   18.6610 C   0  0  0  0  0  0  0  0  0  0  0  0
    4.8790    1.1270   19.9350 C   0  0  0  0  0  0  0  0  0  0  0  0
   12.0340   -0.8780   23.0930 C   0  0  0  0  0  0  0  0  0  0  0  0
   10.8280   -1.0220   23.8020 C   0  0  0  0  0  0  0  0  0  0  0  0
   10.3810    0.0410   24.5840 C   0  0  0  0  0  0  0  0  0  0  0  0
   11.1140    1.2040   24.7010 C   0  0  0  0  0  0  0  0  0  0  0  0
   12.3050    1.3300   24.0260 C   0  0  0  0  0  0  0  0  0  0  0  0
   12.7560    0.2960   23.2310 C   0  0  0  0  0  0  0  0  0  0  0  0
    6.5860   -2.8550   21.0640 N   0  0  0  0  0  0  0  0  0  0  0  0
    6.3330   -1.4340   21.3300 C   0  0  2  0  0  0  0  0  0  0  0  0
    7.6000   -0.6190   21.2900 C   0  0  0  0  0  0  0  0  0  0  0  0
    8.7760   -1.4500   21.7230 C   0  0  0  0  0  0  0  0  0  0  0  0
    8.6600   -1.9270   23.1090 N   0  0  0  0  0  0  0  0  0  0  0  0
    7.6320   -2.9530   23.3730 C   0  0  0  0  0  0  0  0  0  0  0  0
    7.0660   -3.6990   22.1660 C   0  0  0  0  0  0  0  0  0  0  0  0
  1  2  2  0
  1  3  1  0
  3  4  1  0
  4  5  2  0
  8 10  2  0
 10 11  1  0
  4 12  1  0
 12 13  2  0
  6 14  1  0
  1 15  1  0
 14 15  2  0
 15 16  1  0
 16 17  2  0
 17 18  1  0
 14 19  1  0
 18 19  2  0
 13 20  1  0
 20 21  1  0
 21 22  2  0
 22 23  1  0
 23 24  2  0
  5 25  1  0
 20 25  2  0
 24 25  1  0
  7 26  1  0
  9 27  1  0
 26 27  2  0
 27 28  1  0
 28 29  2  0
 29 30  1  0
 26 31  1  0
 30 31  2  0
 10 32  1  0
 33 13  1  1
 32 33  1  0
 33 34  1  0
 34 35  1  0
  9 36  1  0
 35 36  1  0
 36 37  1  0
 32 38  1  0
 37 38  1  0
M  END
