x0426-x1348-x2694
     RDKit          3D

 57 62  0  0  0  0  0  0  0  0999 V2000
    7.5780   -1.0490   21.6960 N   0  0  0  0  0  0  0  0  0  0  0  0
    7.7880    2.3350   22.8430 N   0  0  0  0  0  0  0  0  0  0  0  0
    8.9800    1.5390   21.0440 O   0  0  0  0  0  0  0  0  0  0  0  0
   11.1680    6.8120   23.9160 O   0  0  0  0  0  0  0  0  0  0  0  0
    6.9670    0.2980   21.6670 C   0  0  1  0  0  0  0  0  0  0  0  0
    8.0300    1.4460   21.8070 C   0  0  0  0  0  0  0  0  0  0  0  0
   10.2540    1.9860   23.9780 C   0  0  0  0  0  0  0  0  0  0  0  0
   11.8540    6.6220   24.9200 C   0  0  0  0  0  0  0  0  0  0  0  0
   12.3230   -1.4180   23.2330 C   0  0  0  0  0  0  0  0  0  0  0  0
   12.8690   -0.0170   23.4370 C   0  0  0  0  0  0  0  0  0  0  0  0
   12.8720   -1.9700   21.9020 C   0  0  0  0  0  0  0  0  0  0  0  0
   12.8150   -2.3220   24.3840 C   0  0  0  0  0  0  0  0  0  0  0  0
    2.3510    1.8570   23.8560 C   0  0  0  0  0  0  0  0  0  0  0  0
    2.2800    0.6340   23.7100 O   0  0  0  0  0  0  0  0  0  0  0  0
    3.3680    2.6250   23.4150 N   0  0  0  0  0  0  0  0  0  0  0  0
    4.4210    2.1560   22.5250 C   0  0  0  0  0  0  0  0  0  0  0  0
    4.1030    1.2250   21.5570 C   0  0  0  0  0  0  0  0  0  0  0  0
    2.7500    4.3500   25.2720 F   0  0  0  0  0  0  0  0  0  0  0  0
    6.8210   -3.4540   21.4900 N   0  0  0  0  0  0  0  0  0  0  0  0
    7.6980   -5.5890   27.7820 C   0  0  0  0  0  0  0  0  0  0  0  0
    7.2200   -4.8120   26.6610 O   0  0  0  0  0  0  0  0  0  0  0  0
    5.4750   -4.4250   19.8770 O   0  0  0  0  0  0  0  0  0  0  0  0
    6.4540   -3.7320   20.1720 C   0  0  0  0  0  0  0  0  0  0  0  0
    7.3190   -3.1360   19.0980 C   0  0  0  0  0  0  0  0  0  0  0  0
    6.4920   -2.0460   21.8160 C   0  0  0  0  0  0  0  0  0  0  0  0
    6.3910    0.5800   17.8610 N   0  0  0  0  0  0  0  0  0  0  0  0
    5.1480    1.0430   17.8450 C   0  0  0  0  0  0  0  0  0  0  0  0
    4.3860    1.2640   18.9620 C   0  0  0  0  0  0  0  0  0  0  0  0
    4.9290    1.0100   20.3170 C   0  0  0  0  0  0  0  0  0  0  0  0
    6.2110    0.5670   20.3590 C   0  0  0  0  0  0  0  0  0  0  0  0
    6.9200    0.3370   19.2010 C   0  0  0  0  0  0  0  0  0  0  0  0
    8.7280   -1.2800   23.9370 N   0  0  0  0  0  0  0  0  0  0  0  0
    9.9720   -1.3730   24.2820 O   0  0  0  0  0  0  0  0  0  0  0  0
   10.8140   -1.3440   23.1870 C   0  0  0  0  0  0  0  0  0  0  0  0
    9.9900   -1.2250   22.1210 C   0  0  0  0  0  0  0  0  0  0  0  0
    8.7400   -1.1870   22.6020 C   0  0  0  0  0  0  0  0  0  0  0  0
    9.7580    3.3690   23.6100 C   0  0  0  0  0  0  0  0  0  0  0  0
   10.6680    4.4000   23.9060 C   0  0  0  0  0  0  0  0  0  0  0  0
   10.2470    5.8470   23.5870 C   0  0  0  0  0  0  0  0  0  0  0  0
    8.8480    6.0650   22.9390 C   0  0  0  0  0  0  0  0  0  0  0  0
    7.9090    4.8970   22.6310 C   0  0  0  0  0  0  0  0  0  0  0  0
    8.5110    3.5380   23.0400 C   0  0  0  0  0  0  0  0  0  0  0  0
    1.5120    3.8400   25.2570 C   0  0  0  0  0  0  0  0  0  0  0  0
    1.2240    2.6360   24.5960 C   0  0  0  0  0  0  0  0  0  0  0  0
   -0.0710    2.0810   24.5680 C   0  0  0  0  0  0  0  0  0  0  0  0
   -1.1740    2.6800   25.1920 C   0  0  0  0  0  0  0  0  0  0  0  0
   -0.9060    4.0090   25.9310 C   0  0  0  0  0  0  0  0  0  0  0  0
    0.5100    4.5560   25.9270 C   0  0  0  0  0  0  0  0  0  0  0  0
    6.2310   -5.4830   25.9880 C   0  0  0  0  0  0  0  0  0  0  0  0
    6.0350   -5.2310   24.4980 C   0  0  0  0  0  0  0  0  0  0  0  0
    4.9770   -5.9620   23.7720 C   0  0  0  0  0  0  0  0  0  0  0  0
    4.1450   -6.9220   24.5900 C   0  0  0  0  0  0  0  0  0  0  0  0
    4.3790   -7.0870   25.9550 C   0  0  0  0  0  0  0  0  0  0  0  0
    5.3950   -6.4000   26.6780 C   0  0  0  0  0  0  0  0  0  0  0  0
    6.8150   -4.2960   23.7120 N   0  0  0  0  0  0  0  0  0  0  0  0
    6.3500   -4.3090   22.4680 C   0  0  0  0  0  0  0  0  0  0  0  0
    5.0550   -5.4070   22.0610 S   0  0  0  0  0  0  0  0  0  0  0  0
  1  5  1  0
  2  6  1  0
  3  6  2  0
  5  6  1  6
  4  8  1  0
  9 10  1  0
  9 11  1  0
  9 12  1  0
 13 14  2  0
 13 15  1  0
 15 16  1  0
 16 17  1  0
 20 21  1  0
 19 23  1  0
 22 23  2  0
 23 24  1  0
  1 25  1  0
 19 25  1  0
 26 27  2  0
 27 28  1  0
 17 29  1  0
 28 29  2  0
  5 30  1  0
 29 30  1  0
 26 31  1  0
 30 31  2  0
 32 33  1  0
  9 34  1  0
 33 34  1  0
 34 35  2  0
  1 36  1  0
 32 36  2  0
 35 36  1  0
  7 37  1  0
 37 38  2  0
  4 39  1  0
 38 39  1  0
 39 40  2  0
 40 41  1  0
  2 42  1  0
 37 42  1  0
 41 42  2  0
 18 43  1  0
 13 44  1  0
 43 44  2  0
 44 45  1  0
 45 46  2  0
 46 47  1  0
 43 48  1  0
 47 48  2  0
 21 49  1  0
 49 50  2  0
 50 51  1  0
 51 52  2  0
 52 53  1  0
 49 54  1  0
 53 54  2  0
 50 55  1  0
 19 56  1  0
 55 56  2  0
 51 57  1  0
 56 57  1  0
M  END
