x0426-x0786-x2694
     RDKit          3D

 61 66  0  0  0  0  0  0  0  0999 V2000
    7.6330   -0.7460   22.0450 N   0  0  0  0  0  0  0  0  0  0  0  0
    7.7750    2.6780   22.7410 N   0  0  0  0  0  0  0  0  0  0  0  0
    9.0630    1.7340   21.0940 O   0  0  0  0  0  0  0  0  0  0  0  0
   11.1900    6.9360   23.9890 O   0  0  0  0  0  0  0  0  0  0  0  0
    7.0490    0.5910   21.7520 C   0  0  1  0  0  0  0  0  0  0  0  0
    8.0850    1.7200   21.8130 C   0  0  0  0  0  0  0  0  0  0  0  0
   10.2900    2.0870   23.9710 C   0  0  0  0  0  0  0  0  0  0  0  0
   11.9060    6.8030   24.9840 C   0  0  0  0  0  0  0  0  0  0  0  0
   12.3910   -1.4300   23.2800 C   0  0  0  0  0  0  0  0  0  0  0  0
   12.9390   -0.0490   23.5210 C   0  0  0  0  0  0  0  0  0  0  0  0
   12.8750   -1.9220   21.9070 C   0  0  0  0  0  0  0  0  0  0  0  0
   12.8940   -2.3900   24.3820 C   0  0  0  0  0  0  0  0  0  0  0  0
    2.5250    1.9970   24.3010 C   0  0  0  0  0  0  0  0  0  0  0  0
    2.7990    0.9120   24.7860 O   0  0  0  0  0  0  0  0  0  0  0  0
    3.3080    2.5840   23.3330 N   0  0  0  0  0  0  0  0  0  0  0  0
    4.2660    1.7940   22.5840 C   0  0  0  0  0  0  0  0  0  0  0  0
    4.1110    2.0500   21.0950 C   0  0  0  0  0  0  0  0  0  0  0  0
    2.7090    4.5740   25.4330 F   0  0  0  0  0  0  0  0  0  0  0  0
    6.1440   -3.8770   21.8550 N   0  0  0  0  0  0  0  0  0  0  0  0
    7.2020   -5.2490   20.1620 C   0  0  0  0  0  0  0  0  0  0  0  0
    5.1140   -4.3270   19.8210 O   0  0  0  0  0  0  0  0  0  0  0  0
    6.0450   -4.4620   20.6010 C   0  0  0  0  0  0  0  0  0  0  0  0
    3.6490   -8.1230   24.8830 O   0  0  0  0  0  0  0  0  0  0  0  0
    3.2050   -7.1030   24.3700 C   0  0  0  0  0  0  0  0  0  0  0  0
    7.2720   -1.8270   21.1670 C   0  0  0  0  0  0  0  0  0  0  0  0
    7.3320   -3.0760   22.0170 C   0  0  0  0  0  0  0  0  0  0  0  0
    6.3800    0.1980   18.0030 N   0  0  0  0  0  0  0  0  0  0  0  0
    5.2260    0.8130   17.8450 C   0  0  0  0  0  0  0  0  0  0  0  0
    4.5330    1.3860   18.8440 C   0  0  0  0  0  0  0  0  0  0  0  0
    5.0390    1.3500   20.1260 C   0  0  0  0  0  0  0  0  0  0  0  0
    6.3030    0.7070   20.3900 C   0  0  0  0  0  0  0  0  0  0  0  0
    6.8710    0.1630   19.2490 C   0  0  0  0  0  0  0  0  0  0  0  0
    8.8240   -1.2050   24.1020 N   0  0  0  0  0  0  0  0  0  0  0  0
   10.1540   -1.4020   24.4550 O   0  0  0  0  0  0  0  0  0  0  0  0
   10.8970   -1.3010   23.3310 C   0  0  0  0  0  0  0  0  0  0  0  0
   10.0670   -1.0480   22.2680 C   0  0  0  0  0  0  0  0  0  0  0  0
    8.7650   -0.9830   22.7670 C   0  0  0  0  0  0  0  0  0  0  0  0
    9.8370    3.4840   23.6330 C   0  0  0  0  0  0  0  0  0  0  0  0
   10.6860    4.5390   23.9370 C   0  0  0  0  0  0  0  0  0  0  0  0
   10.4070    5.8660   23.7000 C   0  0  0  0  0  0  0  0  0  0  0  0
    9.1460    6.1000   23.0830 C   0  0  0  0  0  0  0  0  0  0  0  0
    8.2440    5.0720   22.7450 C   0  0  0  0  0  0  0  0  0  0  0  0
    8.6060    3.7530   23.0340 C   0  0  0  0  0  0  0  0  0  0  0  0
    1.4960    4.0030   25.3430 C   0  0  0  0  0  0  0  0  0  0  0  0
    1.3360    2.7360   24.7930 C   0  0  0  0  0  0  0  0  0  0  0  0
    0.0550    2.1240   24.6930 C   0  0  0  0  0  0  0  0  0  0  0  0
   -1.1070    2.7940   25.1590 C   0  0  0  0  0  0  0  0  0  0  0  0
   -0.9740    4.0550   25.7140 C   0  0  0  0  0  0  0  0  0  0  0  0
    0.3920    4.6910   25.8100 C   0  0  0  0  0  0  0  0  0  0  0  0
    5.5470   -4.2980   23.0310 C   0  0  0  0  0  0  0  0  0  0  0  0
    4.6850   -5.5400   23.0240 C   0  0  0  0  0  0  0  0  0  0  0  0
    4.0600   -5.9170   24.3440 C   0  0  0  0  0  0  0  0  0  0  0  0
    4.3650   -5.0200   25.5420 C   0  0  0  0  0  0  0  0  0  0  0  0
    5.1820   -3.9040   25.4230 C   0  0  0  0  0  0  0  0  0  0  0  0
    5.7530   -3.5570   24.2020 C   0  0  0  0  0  0  0  0  0  0  0  0
    1.3940   -5.7130   23.3390 C   0  0  0  0  0  0  0  0  0  0  0  0
    0.3590   -5.1100   24.2890 C   0  0  0  0  0  0  0  0  0  0  0  0
   -1.0710   -6.1980   24.4840 S   0  0  0  0  0  0  0  0  0  0  0  0
   -0.1580   -7.6970   24.9840 C   0  0  0  0  0  0  0  0  0  0  0  0
    0.9940   -8.0810   24.0510 C   0  0  0  0  0  0  0  0  0  0  0  0
    1.9410   -6.9940   23.8030 N   0  0  0  0  0  0  0  0  0  0  0  0
  1  5  1  0
  2  6  1  0
  3  6  2  0
  5  6  1  6
  4  8  1  0
  9 10  1  0
  9 11  1  0
  9 12  1  0
 13 14  2  0
 13 15  1  0
 15 16  1  0
 16 17  1  0
 19 22  1  0
 20 22  1  0
 21 22  2  0
 23 24  2  0
  1 25  1  0
 19 26  1  0
 25 26  1  0
 27 28  2  0
 28 29  1  0
 17 30  1  0
 29 30  2  0
  5 31  1  0
 30 31  1  0
 27 32  1  0
 31 32  2  0
 33 34  1  0
  9 35  1  0
 34 35  1  0
 35 36  2  0
  1 37  1  0
 33 37  2  0
 36 37  1  0
  7 38  1  0
 38 39  2  0
  4 40  1  0
 39 40  1  0
 40 41  2  0
 41 42  1  0
  2 43  1  0
 38 43  1  0
 42 43  2  0
 18 44  1  0
 13 45  1  0
 44 45  2  0
 45 46  1  0
 46 47  2  0
 47 48  1  0
 44 49  1  0
 48 49  2  0
 19 50  1  0
 50 51  2  0
 24 52  1  0
 51 52  1  0
 52 53  2  0
 53 54  1  0
 50 55  1  0
 54 55  2  0
 56 57  1  0
 57 58  1  0
 58 59  1  0
 59 60  1  0
 24 61  1  0
 56 61  1  0
 60 61  1  0
M  END
