x0426-x2097
     RDKit          3D

 28 30  0  0  0  0  0  0  0  0999 V2000
    2.1180    1.6780   23.9660 C   0  0  0  0  0  0  0  0  0  0  0  0
    2.0150    0.4550   24.1730 O   0  0  0  0  0  0  0  0  0  0  0  0
    3.0930    2.2190   23.1400 N   0  0  0  0  0  0  0  0  0  0  0  0
    3.6950    1.3600   22.2590 C   0  0  1  0  0  0  0  0  0  0  0  0
    3.8260    1.9460   21.0360 C   0  0  0  0  0  0  0  0  0  0  0  0
    2.7370    4.0600   25.1300 F   0  0  0  0  0  0  0  0  0  0  0  0
    5.8920   -5.4670   20.0340 N   0  0  0  0  0  0  0  0  0  0  0  0
    6.8170   -4.6410   20.3600 C   0  0  0  0  0  0  0  0  0  0  0  0
    4.9540    0.8080   22.8370 C   0  0  0  0  0  0  0  0  0  0  0  0
    4.9600   -0.5390   23.4060 C   0  0  0  0  0  0  0  0  0  0  0  0
    1.4620    3.6440   25.1550 C   0  0  0  0  0  0  0  0  0  0  0  0
    1.1350    2.5870   24.6470 C   0  0  0  0  0  0  0  0  0  0  0  0
   -0.3480    2.1770   24.7150 C   0  0  0  0  0  0  0  0  0  0  0  0
   -1.2930    2.9850   25.3390 C   0  0  0  0  0  0  0  0  0  0  0  0
   -0.8460    4.1740   25.8960 C   0  0  0  0  0  0  0  0  0  0  0  0
    0.5070    4.4680   25.7900 C   0  0  0  0  0  0  0  0  0  0  0  0
    5.7460    0.1670   20.2640 C   0  0  0  0  0  0  0  0  0  0  0  0
    6.5250   -0.2650   19.1870 C   0  0  0  0  0  0  0  0  0  0  0  0
    6.4470    0.2780   17.9710 N   0  0  0  0  0  0  0  0  0  0  0  0
    5.5060    1.3720   17.7320 C   0  0  0  0  0  0  0  0  0  0  0  0
    4.7220    1.8230   18.7670 C   0  0  0  0  0  0  0  0  0  0  0  0
    4.7710    1.3000   20.0330 C   0  0  0  0  0  0  0  0  0  0  0  0
    6.5470   -3.5570   21.3130 C   0  0  0  0  0  0  0  0  0  0  0  0
    7.6860   -3.1020   22.0440 N   0  0  0  0  0  0  0  0  0  0  0  0
    7.4610   -1.9720   22.9570 C   0  0  0  0  0  0  0  0  0  0  0  0
    6.2910   -1.2040   23.2510 C   0  0  0  0  0  0  0  0  0  0  0  0
    5.1560   -1.8810   22.3770 C   0  0  0  0  0  0  0  0  0  0  0  0
    5.2320   -3.0280   21.4310 N   0  0  0  0  0  0  0  0  0  0  0  0
  1  2  2  0
  1  3  1  0
  3  4  1  0
  4  5  1  6
  7  8  2  3
  4  9  1  0
  9 10  1  0
  6 11  1  0
  1 12  1  0
 11 12  2  0
 12 13  1  0
 13 14  2  0
 14 15  1  0
 11 16  1  0
 15 16  2  0
 17 18  2  0
 18 19  1  0
 19 20  2  0
 20 21  1  0
  5 22  1  0
 17 22  1  0
 21 22  2  0
  8 23  1  0
 23 24  2  0
 24 25  1  0
 10 26  1  0
 25 26  2  0
 26 27  1  0
 23 28  1  0
 27 28  2  0
M  END
