x0426-x3117
     RDKit          3D

 43 46  0  0  0  0  0  0  0  0999 V2000
    6.8300   -1.5460   21.9890 N   0  0  0  0  0  0  0  0  0  0  0  0
    6.6850   -4.7500   20.3740 C   0  0  0  0  0  0  0  0  0  0  0  0
    4.7920   -3.0010   21.2930 O   0  0  0  0  0  0  0  0  0  0  0  0
    6.8620   -4.0420   21.7100 C   0  0  0  0  0  0  0  0  0  0  0  0
    7.6850    1.6430   23.1750 N   0  0  0  0  0  0  0  0  0  0  0  0
    8.5560    1.2670   21.0870 O   0  0  0  0  0  0  0  0  0  0  0  0
    6.0470   -2.7800   21.6450 C   0  0  0  0  0  0  0  0  0  0  0  0
    6.5460   -0.0790   21.6650 C   0  0  1  0  0  0  0  0  0  0  0  0
    7.6870    0.9750   21.9360 C   0  0  0  0  0  0  0  0  0  0  0  0
   12.2240   -1.9090   24.3240 C   0  0  0  0  0  0  0  0  0  0  0  0
   12.5400   -0.7240   25.1060 C   0  0  0  0  0  0  0  0  0  0  0  0
   13.3200   -2.1420   23.2710 C   0  0  0  0  0  0  0  0  0  0  0  0
   12.1810   -3.0400   25.1790 C   0  0  0  0  0  0  0  0  0  0  0  0
    2.3220    1.8220   23.7520 C   0  0  0  0  0  0  0  0  0  0  0  0
    2.2790    0.3940   23.7920 O   0  0  0  0  0  0  0  0  0  0  0  0
    3.2870    2.5470   23.0530 N   0  0  0  0  0  0  0  0  0  0  0  0
    4.3590    1.7630   22.4150 C   0  0  0  0  0  0  0  0  0  0  0  0
    3.9050    1.3000   21.1840 C   0  0  0  0  0  0  0  0  0  0  0  0
    2.7930    4.3190   25.1930 F   0  0  0  0  0  0  0  0  0  0  0  0
    6.3050    0.4980   17.8310 N   0  0  0  0  0  0  0  0  0  0  0  0
    5.1250    1.1430   17.7820 C   0  0  0  0  0  0  0  0  0  0  0  0
    4.3640    1.3820   18.9210 C   0  0  0  0  0  0  0  0  0  0  0  0
    4.8020    0.9750   20.1760 C   0  0  0  0  0  0  0  0  0  0  0  0
    6.0230    0.3220   20.3180 C   0  0  0  0  0  0  0  0  0  0  0  0
    6.7350    0.0900   19.1700 C   0  0  0  0  0  0  0  0  0  0  0  0
    9.7610    4.9800   24.1230 O   0  0  0  0  0  0  0  0  0  0  0  0
   10.5940    3.9630   23.5250 C   0  0  0  0  0  0  0  0  0  0  0  0
    9.9110    2.7330   23.5670 C   0  0  0  0  0  0  0  0  0  0  0  0
    8.5240    2.9140   23.4820 C   0  0  0  0  0  0  0  0  0  0  0  0
    8.0280    4.1440   22.6950 C   0  0  0  0  0  0  0  0  0  0  0  0
    8.7620    5.4070   23.2020 C   0  0  0  0  0  0  0  0  0  0  0  0
    9.2340   -1.8860   21.6370 C   0  0  0  0  0  0  0  0  0  0  0  0
   10.6370   -1.9820   22.1840 C   0  0  0  0  0  0  0  0  0  0  0  0
   10.8540   -1.8340   23.6740 C   0  0  0  0  0  0  0  0  0  0  0  0
    9.7210   -1.6220   24.4600 C   0  0  0  0  0  0  0  0  0  0  0  0
    8.4440   -1.5440   23.8930 C   0  0  0  0  0  0  0  0  0  0  0  0
    8.1870   -1.6670   22.5200 C   0  0  0  0  0  0  0  0  0  0  0  0
    1.5570    3.7940   25.1720 C   0  0  0  0  0  0  0  0  0  0  0  0
    1.2880    2.6020   24.4950 C   0  0  0  0  0  0  0  0  0  0  0  0
   -0.1440    2.0930   24.5350 C   0  0  0  0  0  0  0  0  0  0  0  0
   -1.1100    2.8070   25.2220 C   0  0  0  0  0  0  0  0  0  0  0  0
   -0.7700    3.9830   25.8710 C   0  0  0  0  0  0  0  0  0  0  0  0
    0.5400    4.4750   25.8500 C   0  0  0  0  0  0  0  0  0  0  0  0
  2  4  1  0
  1  7  1  0
  3  7  2  0
  4  7  1  0
  1  8  1  0
  5  9  1  0
  6  9  2  0
  8  9  1  6
 10 11  1  0
 10 12  1  0
 10 13  1  0
 14 15  2  0
 14 16  1  0
 16 17  1  0
 17 18  1  0
 20 21  2  0
 21 22  1  0
 18 23  1  0
 22 23  2  0
  8 24  1  0
 23 24  1  0
 20 25  1  0
 24 25  2  0
 26 27  1  0
 27 28  1  0
  5 29  1  0
 28 29  1  0
 29 30  1  0
 26 31  1  0
 30 31  1  0
 32 33  2  0
 10 34  1  0
 33 34  1  0
 34 35  2  0
 35 36  1  0
  1 37  1  0
 32 37  1  0
 36 37  2  0
 19 38  1  0
 14 39  1  0
 38 39  2  0
 39 40  1  0
 40 41  2  0
 41 42  1  0
 38 43  1  0
 42 43  2  0
M  END
