x0426-x2608
     RDKit          3D

 28 30  0  0  0  0  0  0  0  0999 V2000
    2.2080    1.8190   23.8010 C   0  0  0  0  0  0  0  0  0  0  0  0
    2.1000    0.5770   23.8730 O   0  0  0  0  0  0  0  0  0  0  0  0
    3.2340    2.4360   23.0630 N   0  0  0  0  0  0  0  0  0  0  0  0
    4.1860    1.6780   22.3960 C   0  0  0  0  0  0  0  0  0  0  0  0
    3.7330    1.0910   21.2510 C   0  0  0  0  0  0  0  0  0  0  0  0
    3.0020    4.3200   25.1920 F   0  0  0  0  0  0  0  0  0  0  0  0
    8.6430   -1.3450   22.4010 N   0  0  0  0  0  0  0  0  0  0  0  0
   12.9370    1.7660   22.8980 C   0  0  0  0  0  0  0  0  0  0  0  0
    8.4130    0.5290   21.1660 O   0  0  0  0  0  0  0  0  0  0  0  0
    6.6790   -0.7530   21.1990 N   0  0  0  0  0  0  0  0  0  0  0  0
    7.8840   -0.5140   21.5670 C   0  0  0  0  0  0  0  0  0  0  0  0
    1.7600    3.8270   25.1700 C   0  0  0  0  0  0  0  0  0  0  0  0
    1.2070    2.6580   24.5630 C   0  0  0  0  0  0  0  0  0  0  0  0
    0.3000    1.9770   24.3450 C   0  0  0  0  0  0  0  0  0  0  0  0
   -0.9320    2.5920   25.0200 C   0  0  0  0  0  0  0  0  0  0  0  0
   -0.7970    3.8150   25.7590 C   0  0  0  0  0  0  0  0  0  0  0  0
    0.4990    4.4380   25.8480 C   0  0  0  0  0  0  0  0  0  0  0  0
    6.0740    0.0120   20.1210 C   0  0  0  0  0  0  0  0  0  0  0  0
    6.7630   -0.0010   18.9310 C   0  0  0  0  0  0  0  0  0  0  0  0
    6.3520    0.6700   17.8420 N   0  0  0  0  0  0  0  0  0  0  0  0
    5.2060    1.4620   17.7410 C   0  0  0  0  0  0  0  0  0  0  0  0
    4.4590    1.4980   18.9340 C   0  0  0  0  0  0  0  0  0  0  0  0
    4.7750    0.8490   20.1170 C   0  0  0  0  0  0  0  0  0  0  0  0
   12.0140    0.6240   22.8870 C   0  0  0  0  0  0  0  0  0  0  0  0
   12.2870   -0.7100   23.1360 C   0  0  0  0  0  0  0  0  0  0  0  0
   11.1860   -1.5300   23.0110 C   0  0  0  0  0  0  0  0  0  0  0  0
   10.0370   -0.8190   22.6610 C   0  0  0  0  0  0  0  0  0  0  0  0
   10.3650    0.8400   22.5280 S   0  0  0  0  0  0  0  0  0  0  0  0
  1  2  2  0
  1  3  1  0
  3  4  1  0
  4  5  1  0
  7 11  1  0
  9 11  2  0
 10 11  1  0
  6 12  1  0
  1 13  1  0
 12 13  2  0
 13 14  1  0
 14 15  2  0
 15 16  1  0
 12 17  1  0
 16 17  2  0
 10 18  1  0
 18 19  2  0
 19 20  1  0
 20 21  2  0
 21 22  1  0
  5 23  1  0
 18 23  1  0
 22 23  2  0
  8 24  1  0
 24 25  2  0
 25 26  1  0
  7 27  1  0
 26 27  2  0
 24 28  1  0
 27 28  1  0
M  END
