x0426-x3110-x0946
     RDKit          3D

 50 53  0  0  0  0  0  0  0  0999 V2000
    8.1200    0.7580   23.3840 N   0  0  0  0  0  0  0  0  0  0  0  0
   13.2780    5.1910   21.7610 C   0  0  0  0  0  0  0  0  0  0  0  0
   13.1600    4.6770   23.0340 C   0  0  0  0  0  0  0  0  0  0  0  0
    7.0010   -1.7830   21.6970 N   0  0  0  0  0  0  0  0  0  0  0  0
   10.4260    5.0450   23.7140 C   0  0  0  0  0  0  0  0  0  0  0  0
    8.1470    1.1370   21.1240 O   0  0  0  0  0  0  0  0  0  0  0  0
    4.8890   -3.0610   21.1100 O   0  0  0  0  0  0  0  0  0  0  0  0
    8.6300    2.1430   23.7280 C   0  0  0  0  0  0  0  0  0  0  0  0
    7.6520    0.5180   22.0850 C   0  0  0  0  0  0  0  0  0  0  0  0
    6.6040   -0.4110   21.6890 C   0  0  1  0  0  0  0  0  0  0  0  0
    6.1550   -2.9670   21.4120 C   0  0  0  0  0  0  0  0  0  0  0  0
    6.8430   -4.3180   21.5080 C   0  0  0  0  0  0  0  0  0  0  0  0
    8.2670   -4.3850   20.9250 C   0  0  0  0  0  0  0  0  0  0  0  0
   12.3380   -1.9360   24.1430 C   0  0  0  0  0  0  0  0  0  0  0  0
   12.5870   -0.5730   24.8080 C   0  0  0  0  0  0  0  0  0  0  0  0
   13.3740   -2.0500   23.0260 C   0  0  0  0  0  0  0  0  0  0  0  0
   12.7080   -3.0200   25.1680 C   0  0  0  0  0  0  0  0  0  0  0  0
    2.3740    1.7760   23.6530 C   0  0  0  0  0  0  0  0  0  0  0  0
    2.3580    0.5460   23.6810 O   0  0  0  0  0  0  0  0  0  0  0  0
    3.3960    2.5180   22.8760 N   0  0  0  0  0  0  0  0  0  0  0  0
    4.4180    1.7900   22.3160 C   0  0  0  0  0  0  0  0  0  0  0  0
    3.9320    1.0350   21.2410 C   0  0  0  0  0  0  0  0  0  0  0  0
    2.8850    4.2450   25.1140 F   0  0  0  0  0  0  0  0  0  0  0  0
   11.0150    5.7690   24.6960 N   0  0  0  0  0  0  0  0  0  0  0  0
    9.2680    5.0040   24.0990 O   0  0  0  0  0  0  0  0  0  0  0  0
   10.6270    5.9890   22.6440 O   0  0  0  0  0  0  0  0  0  0  0  0
    6.5070    0.4400   18.0370 N   0  0  0  0  0  0  0  0  0  0  0  0
    5.3340    1.0910   17.9360 C   0  0  0  0  0  0  0  0  0  0  0  0
    4.4640    1.3020   18.9920 C   0  0  0  0  0  0  0  0  0  0  0  0
    4.8420    0.8100   20.2450 C   0  0  0  0  0  0  0  0  0  0  0  0
    6.0900    0.1350   20.3630 C   0  0  0  0  0  0  0  0  0  0  0  0
    6.9140   -0.0510   19.2360 C   0  0  0  0  0  0  0  0  0  0  0  0
    9.4460   -1.3790   21.7140 C   0  0  0  0  0  0  0  0  0  0  0  0
   10.7130   -1.4290   22.3150 C   0  0  0  0  0  0  0  0  0  0  0  0
   10.8970   -1.9670   23.5740 C   0  0  0  0  0  0  0  0  0  0  0  0
    9.7820   -2.4880   24.2500 C   0  0  0  0  0  0  0  0  0  0  0  0
    8.4730   -2.4540   23.6670 C   0  0  0  0  0  0  0  0  0  0  0  0
    8.2930   -1.8860   22.3770 C   0  0  0  0  0  0  0  0  0  0  0  0
    1.6390    3.7570   25.1240 C   0  0  0  0  0  0  0  0  0  0  0  0
    1.3340    2.5500   24.4240 C   0  0  0  0  0  0  0  0  0  0  0  0
    0.0160    2.0270   24.4270 C   0  0  0  0  0  0  0  0  0  0  0  0
   -0.9940    2.7010   25.1220 C   0  0  0  0  0  0  0  0  0  0  0  0
   -0.7320    3.8750   25.8100 C   0  0  0  0  0  0  0  0  0  0  0  0
    0.6540    4.4660   25.8340 C   0  0  0  0  0  0  0  0  0  0  0  0
   12.1400    0.9750   22.8690 C   0  0  0  0  0  0  0  0  0  0  0  0
   12.9420    2.1730   22.8150 C   0  0  0  0  0  0  0  0  0  0  0  0
   12.2370    3.4720   23.1110 C   0  0  0  0  0  0  0  0  0  0  0  0
   10.9630    3.6380   23.4180 C   0  0  0  0  0  0  0  0  0  0  0  0
   10.1150    2.2830   23.4440 C   0  0  0  0  0  0  0  0  0  0  0  0
   10.8130    1.1120   23.1710 C   0  0  0  0  0  0  0  0  0  0  0  0
  2  3  1  0
  1  8  1  0
  1  9  1  0
  6  9  2  0
  4 10  1  0
 10  9  1  6
  4 11  1  0
  7 11  2  0
 11 12  1  0
 12 13  1  0
 14 15  1  0
 14 16  1  0
 14 17  1  0
 18 19  2  0
 18 20  1  0
 20 21  1  0
 21 22  1  0
  5 24  1  0
  5 25  1  0
  5 26  1  0
 27 28  2  0
 28 29  1  0
 22 30  1  0
 29 30  2  0
 10 31  1  0
 30 31  1  0
 27 32  1  0
 31 32  2  0
 33 34  2  0
 14 35  1  0
 34 35  1  0
 35 36  2  0
 36 37  1  0
  4 38  1  0
 33 38  1  0
 37 38  2  0
 23 39  1  0
 18 40  1  0
 39 40  2  0
 40 41  1  0
 41 42  2  0
 42 43  1  0
 39 44  1  0
 43 44  2  0
 45 46  2  0
  3 47  1  0
 46 47  1  0
  5 48  1  0
 47 48  2  0
  8 49  1  0
 48 49  1  0
 45 50  1  0
 49 50  2  0
M  END
