x0426-x1336
     RDKit          3D

 41 44  0  0  0  0  0  0  0  0999 V2000
    6.0850   -5.3400   29.1270 C   0  0  0  0  0  0  0  0  0  0  0  0
    8.8330   -1.2030   25.3480 O   0  0  0  0  0  0  0  0  0  0  0  0
    6.2660   -1.3560   25.6780 N   0  0  0  0  0  0  0  0  0  0  0  0
    5.4360   -4.1720   19.7190 O   0  0  0  0  0  0  0  0  0  0  0  0
   10.1460   -4.0870   25.2540 C   0  0  0  0  0  0  0  0  0  0  0  0
    6.4560   -3.5120   19.9390 C   0  0  0  0  0  0  0  0  0  0  0  0
    7.3900   -3.0710   18.8200 C   0  0  0  0  0  0  0  0  0  0  0  0
    7.5990   -1.9540   25.3880 S   0  0  2  0  0  0  0  0  0  0  0  0
    2.0870    1.6490   23.9910 C   0  0  0  0  0  0  0  0  0  0  0  0
    2.0580    0.4200   23.9720 O   0  0  0  0  0  0  0  0  0  0  0  0
    3.2270    2.2360   23.3120 N   0  0  0  0  0  0  0  0  0  0  0  0
    3.8930    1.3110   22.4210 C   0  0  1  0  0  0  0  0  0  0  0  0
    3.7810    1.8200   21.0550 C   0  0  0  0  0  0  0  0  0  0  0  0
    2.6950    4.2850   25.2730 F   0  0  0  0  0  0  0  0  0  0  0  0
    5.9400   -0.1220   25.0470 C   0  0  0  0  0  0  0  0  0  0  0  0
    5.3530   -0.2170   23.6280 C   0  0  0  0  0  0  0  0  0  0  0  0
    5.2580    1.0060   22.9500 C   0  0  0  0  0  0  0  0  0  0  0  0
    7.0620   -4.8600   28.0630 C   0  0  0  0  0  0  0  0  0  0  0  0
    6.8670   -3.7090   27.2930 C   0  0  0  0  0  0  0  0  0  0  0  0
    7.7930   -3.3210   26.3280 C   0  0  0  0  0  0  0  0  0  0  0  0
    8.9090   -4.0970   26.1440 C   0  0  0  0  0  0  0  0  0  0  0  0
    9.1830   -5.2520   26.8620 C   0  0  0  0  0  0  0  0  0  0  0  0
    8.2420   -5.6280   27.8290 C   0  0  0  0  0  0  0  0  0  0  0  0
    6.7950   -3.1830   21.2250 N   0  0  0  0  0  0  0  0  0  0  0  0
    6.5040   -3.9700   22.2490 C   0  0  0  0  0  0  0  0  0  0  0  0
    6.3190   -3.3880   23.4770 C   0  0  0  0  0  0  0  0  0  0  0  0
    7.4940   -2.5560   23.8130 N   0  0  0  0  0  0  0  0  0  0  0  0
    8.0410   -1.7020   22.7210 C   0  0  0  0  0  0  0  0  0  0  0  0
    7.9540   -2.4080   21.5290 C   0  0  0  0  0  0  0  0  0  0  0  0
    1.4210    3.8580   25.3010 C   0  0  0  0  0  0  0  0  0  0  0  0
    1.0260    2.5090   24.6600 C   0  0  0  0  0  0  0  0  0  0  0  0
   -0.4230    2.0140   24.6810 C   0  0  0  0  0  0  0  0  0  0  0  0
   -1.3620    2.9680   25.3770 C   0  0  0  0  0  0  0  0  0  0  0  0
   -0.8930    4.2890   25.9910 C   0  0  0  0  0  0  0  0  0  0  0  0
    0.4550    4.6670   25.9250 C   0  0  0  0  0  0  0  0  0  0  0  0
    5.7040    0.1200   20.3260 C   0  0  0  0  0  0  0  0  0  0  0  0
    6.5480   -0.3270   19.3260 C   0  0  0  0  0  0  0  0  0  0  0  0
    6.5250    0.2710   17.9890 N   0  0  0  0  0  0  0  0  0  0  0  0
    5.6020    1.3620   17.6740 C   0  0  0  0  0  0  0  0  0  0  0  0
    4.7450    1.8350   18.6460 C   0  0  0  0  0  0  0  0  0  0  0  0
    4.7290    1.2560   20.0450 C   0  0  0  0  0  0  0  0  0  0  0  0
  4  6  2  0
  6  7  1  0
  2  8  2  0
  3  8  2  0
  9 10  2  0
  9 11  1  0
 11 12  1  0
 12 13  1  6
  3 15  1  0
 15 16  1  0
 12 17  1  0
 16 17  1  0
  1 18  1  0
 18 19  2  0
  8 20  1  1
 19 20  1  0
  5 21  1  0
 20 21  2  0
 21 22  1  0
 18 23  1  0
 22 23  2  0
  6 24  1  0
 24 25  1  0
 25 26  1  0
  8 27  1  0
 26 27  1  0
 27 28  1  0
 24 29  1  0
 28 29  1  0
 14 30  1  0
  9 31  1  0
 30 31  2  0
 31 32  1  0
 32 33  2  0
 33 34  1  0
 30 35  1  0
 34 35  2  0
 36 37  2  0
 37 38  1  0
 38 39  2  0
 39 40  1  0
 13 41  1  0
 36 41  1  0
 40 41  2  0
M  END
