x0434-x1380
     RDKit          3D

 34 37  0  0  0  0  0  0  0  0999 V2000
    7.1920   -3.3080   19.3430 C   0  0  0  0  0  0  0  0  0  0  0  0
    5.3280   -4.6400   19.9320 O   0  0  0  0  0  0  0  0  0  0  0  0
    6.3890   -4.1490   20.3170 C   0  0  0  0  0  0  0  0  0  0  0  0
    5.0110   -2.1730   25.4820 O   0  0  0  0  0  0  0  0  0  0  0  0
    5.8170   -3.0650   25.2690 C   0  0  0  0  0  0  0  0  0  0  0  0
    8.8970    0.7440   21.3560 O   0  0  0  0  0  0  0  0  0  0  0  0
    8.3650   -0.5310   21.7060 C   0  0  0  0  0  0  0  0  0  0  0  0
    9.1980   -1.3960   22.5060 N   0  0  0  0  0  0  0  0  0  0  0  0
    7.0170   -0.9890   21.2850 N   0  0  0  0  0  0  0  0  0  0  0  0
    6.3090   -1.7260   22.2850 C   0  0  0  0  0  0  0  0  0  0  0  0
    6.9140   -4.4060   21.5760 N   0  0  0  0  0  0  0  0  0  0  0  0
    6.4840   -5.4110   22.3420 C   0  0  0  0  0  0  0  0  0  0  0  0
    6.3310   -5.0110   23.6650 C   0  0  0  0  0  0  0  0  0  0  0  0
    6.0530   -3.4730   23.8270 C   0  0  2  0  0  0  0  0  0  0  0  0
    7.0080   -2.7120   23.0740 C   0  0  1  0  0  0  0  0  0  0  0  0
    7.7120   -3.5570   22.2510 C   0  0  0  0  0  0  0  0  0  0  0  0
    7.7990   -4.0950   26.3980 C   0  0  0  0  0  0  0  0  0  0  0  0
    8.0590   -5.1300   27.3150 C   0  0  0  0  0  0  0  0  0  0  0  0
    7.2290   -5.1670   28.4240 C   0  0  0  0  0  0  0  0  0  0  0  0
    5.9600   -4.6140   28.3240 C   0  0  0  0  0  0  0  0  0  0  0  0
    5.9200   -3.4240   27.5850 C   0  0  0  0  0  0  0  0  0  0  0  0
    6.4570   -3.6920   26.3690 N   0  0  0  0  0  0  0  0  0  0  0  0
   10.5520    0.3960   23.5660 C   0  0  0  0  0  0  0  0  0  0  0  0
   11.7730    0.9710   23.7480 C   0  0  0  0  0  0  0  0  0  0  0  0
   13.0330    0.3900   23.1010 C   0  0  0  0  0  0  0  0  0  0  0  0
   12.8410   -0.8560   22.2680 C   0  0  0  0  0  0  0  0  0  0  0  0
   11.5680   -1.4150   22.1040 C   0  0  0  0  0  0  0  0  0  0  0  0
   10.4760   -0.7560   22.7600 C   0  0  0  0  0  0  0  0  0  0  0  0
    5.1270    0.5200   20.3380 C   0  0  0  0  0  0  0  0  0  0  0  0
    4.3980    1.2880   19.3700 C   0  0  0  0  0  0  0  0  0  0  0  0
    5.2890    1.0760   18.1240 C   0  0  0  0  0  0  0  0  0  0  0  0
    6.4310    0.3790   17.9280 N   0  0  0  0  0  0  0  0  0  0  0  0
    6.9970   -0.3030   18.9430 C   0  0  0  0  0  0  0  0  0  0  0  0
    6.4250   -0.2900   20.1850 C   0  0  0  0  0  0  0  0  0  0  0  0
  1  3  1  0
  2  3  2  0
  4  5  2  0
  6  7  2  0
  7  8  1  0
  7  9  1  0
  9 10  1  0
  3 11  1  0
 11 12  1  0
 12 13  1  0
 14  5  1  1
 13 14  1  0
 15 10  1  6
 14 15  1  0
 11 16  1  0
 15 16  1  0
 17 18  1  0
 18 19  1  0
 19 20  1  0
 20 21  1  0
  5 22  1  0
 17 22  1  0
 21 22  1  0
 23 24  2  0
 24 25  1  0
 25 26  2  0
 26 27  1  0
  8 28  1  0
 23 28  1  0
 27 28  2  0
 29 30  2  0
 30 31  1  0
 31 32  2  0
 32 33  1  0
  9 34  1  0
 29 34  1  0
 33 34  2  0
M  END
