x0434-x0305
     RDKit          3D

 21 22  0  0  0  0  0  0  0  0999 V2000
    8.7590    0.7870   21.2760 O   0  0  0  0  0  0  0  0  0  0  0  0
    8.1480   -0.1810   21.7320 C   0  0  0  0  0  0  0  0  0  0  0  0
    8.4460   -0.7770   22.9370 N   0  0  0  0  0  0  0  0  0  0  0  0
    7.0740   -0.7600   21.0360 N   0  0  0  0  0  0  0  0  0  0  0  0
    8.1480   -0.2450   27.2860 C   0  0  0  0  0  0  0  0  0  0  0  0
    8.5070   -0.2010   25.7880 C   0  0  0  0  0  0  0  0  0  0  0  0
    9.8580    0.3150   25.5810 N   0  0  0  0  0  0  0  0  0  0  0  0
   13.0450   -1.4250   21.5450 C   0  0  0  0  0  0  0  0  0  0  0  0
   13.8240   -1.6330   20.7700 N   0  0  0  0  0  0  0  0  0  0  0  0
   10.6040   -0.2060   24.3760 C   0  0  0  0  0  0  0  0  0  0  0  0
   12.0400   -0.1760   24.4750 C   0  0  0  0  0  0  0  0  0  0  0  0
   12.7740   -0.6380   23.3950 C   0  0  0  0  0  0  0  0  0  0  0  0
   11.9120   -1.1310   22.2400 C   0  0  0  0  0  0  0  0  0  0  0  0
   10.5900   -1.1900   22.0890 C   0  0  0  0  0  0  0  0  0  0  0  0
    9.8720   -0.7240   23.1450 C   0  0  0  0  0  0  0  0  0  0  0  0
    5.0580    0.7320   20.2640 C   0  0  0  0  0  0  0  0  0  0  0  0
    4.5860    1.3690   19.1280 C   0  0  0  0  0  0  0  0  0  0  0  0
    5.2190    1.3330   17.8850 C   0  0  0  0  0  0  0  0  0  0  0  0
    6.3990    0.6150   17.7300 N   0  0  0  0  0  0  0  0  0  0  0  0
    6.9030   -0.0280   18.8040 C   0  0  0  0  0  0  0  0  0  0  0  0
    6.3210   -0.0120   20.0510 C   0  0  0  0  0  0  0  0  0  0  0  0
  1  2  2  0
  2  3  1  0
  2  4  1  0
  5  6  1  0
  6  7  1  0
  8  9  3  0
  7 10  1  0
 10 11  2  0
 11 12  1  0
  8 13  1  0
 12 13  2  0
 13 14  1  0
  3 15  1  0
 10 15  1  0
 14 15  2  0
 16 17  2  0
 17 18  1  0
 18 19  2  0
 19 20  1  0
  4 21  1  0
 16 21  1  0
 20 21  2  0
M  END
