x0434-x2052
     RDKit          3D

 36 39  0  0  0  0  0  0  0  0999 V2000
    5.8980   -1.6590   25.2900 C   0  0  0  0  0  0  0  0  0  0  0  0
    4.4920   -1.8780   25.3000 O   0  0  0  0  0  0  0  0  0  0  0  0
    6.7230   -1.0590   26.2130 N   0  0  0  0  0  0  0  0  0  0  0  0
    5.5950   -4.3930   19.9260 O   0  0  0  0  0  0  0  0  0  0  0  0
    5.2790    2.2640   30.5380 O   0  0  0  0  0  0  0  0  0  0  0  0
    6.5430   -3.6070   20.1600 C   0  0  0  0  0  0  0  0  0  0  0  0
    7.3500   -3.1020   18.9920 C   0  0  0  0  0  0  0  0  0  0  0  0
    6.1640    3.3710   30.6870 C   0  0  0  0  0  0  0  0  0  0  0  0
    8.7430   -1.3090   20.4920 O   0  0  0  0  0  0  0  0  0  0  0  0
    8.0810   -1.1040   21.4850 C   0  0  1  0  0  0  0  0  0  0  0  0
    8.8830   -1.1400   22.6230 N   0  0  0  0  0  0  0  0  0  0  0  0
    7.7380    0.2610   21.1620 N   0  0  0  0  0  0  0  0  0  0  0  0
    6.9370   -3.1960   21.4540 N   0  0  0  0  0  0  0  0  0  0  0  0
    6.8960   -1.8470   21.7290 C   0  0  1  0  0  0  0  0  0  0  0  0
    6.2850   -1.4160   22.9040 C   0  0  0  0  0  0  0  0  0  0  0  0
    6.5310   -2.1630   24.0330 C   0  0  2  0  0  0  0  0  0  0  0  0
    6.3540   -3.6560   23.7460 C   0  0  0  0  0  0  0  0  0  0  0  0
    6.9160   -4.0440   22.5290 C   0  0  0  0  0  0  0  0  0  0  0  0
    6.2690    1.9350   28.3620 N   0  0  0  0  0  0  0  0  0  0  0  0
    6.5730    1.0560   27.3720 C   0  0  0  0  0  0  0  0  0  0  0  0
    6.2920   -0.3000   27.3860 C   0  0  0  0  0  0  0  0  0  0  0  0
    5.6450   -0.7680   28.5050 C   0  0  0  0  0  0  0  0  0  0  0  0
    5.2880    0.0590   29.5730 C   0  0  0  0  0  0  0  0  0  0  0  0
    5.6320    1.4160   29.4460 C   0  0  0  0  0  0  0  0  0  0  0  0
   10.4610    0.4510   23.5350 C   0  0  0  0  0  0  0  0  0  0  0  0
   11.7470    0.9400   23.7080 C   0  0  0  0  0  0  0  0  0  0  0  0
   12.8550    0.3240   23.1450 C   0  0  0  0  0  0  0  0  0  0  0  0
   12.6280   -0.8260   22.3920 C   0  0  0  0  0  0  0  0  0  0  0  0
   11.3340   -1.3430   22.1960 C   0  0  0  0  0  0  0  0  0  0  0  0
   10.2120   -0.6990   22.7720 C   0  0  0  0  0  0  0  0  0  0  0  0
    5.7720    1.3800   20.4180 C   0  0  0  0  0  0  0  0  0  0  0  0
    4.9100    1.6940   19.3670 C   0  0  0  0  0  0  0  0  0  0  0  0
    5.1630    1.2130   18.1140 C   0  0  0  0  0  0  0  0  0  0  0  0
    6.2180    0.4110   17.7770 N   0  0  0  0  0  0  0  0  0  0  0  0
    7.0340    0.1180   18.8120 C   0  0  0  0  0  0  0  0  0  0  0  0
    6.8790    0.5700   20.1520 C   0  0  0  0  0  0  0  0  0  0  0  0
  1  2  2  0
  1  3  1  0
  4  6  2  0
  6  7  1  0
  5  8  1  0
 10  9  1  6
 10 11  1  0
 10 12  1  0
  6 13  1  0
 10 14  1  0
 13 14  1  0
 14 15  1  1
 16  1  1  1
 15 16  1  0
 16 17  1  0
 13 18  1  0
 17 18  1  0
 19 20  2  0
  3 21  1  0
 20 21  1  0
 21 22  2  0
 22 23  1  0
  5 24  1  0
 19 24  1  0
 23 24  2  0
 25 26  2  0
 26 27  1  0
 27 28  2  0
 28 29  1  0
 11 30  1  0
 25 30  1  0
 29 30  2  0
 31 32  2  0
 32 33  1  0
 33 34  2  0
 34 35  1  0
 12 36  1  0
 31 36  1  0
 35 36  2  0
M  END
