x0434-x0820
     RDKit          3D

 33 36  0  0  0  0  0  0  0  0999 V2000
    6.7500   -4.9040   21.8570 N   0  0  0  0  0  0  0  0  0  0  0  0
    7.5040   -2.7590   22.4990 C   0  0  0  0  0  0  0  0  0  0  0  0
    5.3730   -5.2050   20.0370 O   0  0  0  0  0  0  0  0  0  0  0  0
    7.2910   -4.1040   22.8420 C   0  0  1  0  0  0  0  0  0  0  0  0
    6.2820   -4.5860   20.5820 C   0  0  0  0  0  0  0  0  0  0  0  0
    6.9250   -3.4690   19.7660 C   0  0  0  0  0  0  0  0  0  0  0  0
    8.8220    0.9920   21.4020 O   0  0  0  0  0  0  0  0  0  0  0  0
    8.4200   -0.1570   21.6010 C   0  0  0  0  0  0  0  0  0  0  0  0
    9.1540   -1.0740   22.3250 N   0  0  0  0  0  0  0  0  0  0  0  0
    7.1460   -0.6330   21.0870 N   0  0  0  0  0  0  0  0  0  0  0  0
    8.8610   -2.4290   22.3550 C   0  0  0  0  0  0  0  0  0  0  0  0
    6.4160   -4.2190   23.9220 C   0  0  0  0  0  0  0  0  0  0  0  0
    6.8850   -4.3040   25.2630 C   0  0  0  0  0  0  0  0  0  0  0  0
    5.9180   -4.4410   26.4440 C   0  0  0  0  0  0  0  0  0  0  0  0
    4.5730   -4.4760   26.1440 C   0  0  0  0  0  0  0  0  0  0  0  0
    4.1140   -4.3800   24.6920 C   0  0  0  0  0  0  0  0  0  0  0  0
    5.0240   -4.2580   23.6410 C   0  0  0  0  0  0  0  0  0  0  0  0
    6.4090   -4.5240   27.7390 C   0  0  0  0  0  0  0  0  0  0  0  0
    7.7950   -4.4870   28.0000 C   0  0  0  0  0  0  0  0  0  0  0  0
    8.7210   -4.3620   26.9420 C   0  0  0  0  0  0  0  0  0  0  0  0
    8.3490   -4.2680   25.5950 C   0  0  0  0  0  0  0  0  0  0  0  0
   10.5510    0.4600   23.3840 C   0  0  0  0  0  0  0  0  0  0  0  0
   11.8250    0.9320   23.6900 C   0  0  0  0  0  0  0  0  0  0  0  0
   12.9320    0.2320   23.2050 C   0  0  0  0  0  0  0  0  0  0  0  0
   12.7990   -0.9160   22.4400 C   0  0  0  0  0  0  0  0  0  0  0  0
   11.5310   -1.3790   22.1370 C   0  0  0  0  0  0  0  0  0  0  0  0
   10.4020   -0.6910   22.6020 C   0  0  0  0  0  0  0  0  0  0  0  0
    5.2310    0.7380   20.2610 C   0  0  0  0  0  0  0  0  0  0  0  0
    4.6030    1.3630   19.2080 C   0  0  0  0  0  0  0  0  0  0  0  0
    5.1960    1.2610   17.9630 C   0  0  0  0  0  0  0  0  0  0  0  0
    6.3240    0.5860   17.7410 N   0  0  0  0  0  0  0  0  0  0  0  0
    6.9400   -0.0230   18.7200 C   0  0  0  0  0  0  0  0  0  0  0  0
    6.4190    0.0340   20.0340 C   0  0  0  0  0  0  0  0  0  0  0  0
  1  4  1  0
  4  2  1  6
  1  5  1  0
  3  5  2  0
  5  6  1  0
  7  8  2  0
  8  9  1  0
  8 10  1  0
  2 11  1  0
  9 11  1  0
  4 12  1  0
 12 13  2  0
 13 14  1  0
 14 15  2  0
 15 16  1  0
 12 17  1  0
 16 17  2  0
 14 18  1  0
 18 19  2  0
 19 20  1  0
 13 21  1  0
 20 21  2  0
 22 23  2  0
 23 24  1  0
 24 25  2  0
 25 26  1  0
  9 27  1  0
 22 27  1  0
 26 27  2  0
 28 29  2  0
 29 30  1  0
 30 31  2  0
 31 32  1  0
 10 33  1  0
 28 33  1  0
 32 33  2  0
M  END
