x0434-x2779
     RDKit          3D

 25 28  0  0  0  0  0  0  0  0999 V2000
    7.4060   -3.0310   18.7710 C   0  0  0  0  0  0  0  0  0  0  0  0
    5.5450   -4.0870   19.7660 O   0  0  0  0  0  0  0  0  0  0  0  0
    6.4820   -3.2720   19.9550 C   0  0  0  0  0  0  0  0  0  0  0  0
   10.1100   -2.6890   23.4990 C   0  0  0  0  0  0  0  0  0  0  0  0
    7.4520    0.8180   21.8240 O   0  0  0  0  0  0  0  0  0  0  0  0
    7.7670   -0.5420   22.1030 C   0  0  0  0  0  0  0  0  0  0  0  0
    8.2610   -1.1170   23.3310 N   0  0  0  0  0  0  0  0  0  0  0  0
    6.7490   -2.5990   21.1840 N   0  0  0  0  0  0  0  0  0  0  0  0
    7.7500   -1.6000   21.1680 C   0  0  2  0  0  0  0  0  0  0  0  0
    8.9330   -2.2560   21.5750 C   0  0  0  0  0  0  0  0  0  0  0  0
    8.7380   -2.3830   22.9180 C   0  0  1  0  0  0  0  0  0  0  0  0
    7.7010   -3.5110   23.1400 C   0  0  0  0  0  0  0  0  0  0  0  0
    6.4830   -3.2830   22.4700 C   0  0  0  0  0  0  0  0  0  0  0  0
   12.2000   -1.4080   22.6660 C   0  0  0  0  0  0  0  0  0  0  0  0
   11.0290   -1.5400   23.5060 C   0  0  0  0  0  0  0  0  0  0  0  0
   10.8150   -0.1230   24.5640 S   0  0  0  0  0  0  0  0  0  0  0  0
   12.2370    0.5600   23.8540 C   0  0  0  0  0  0  0  0  0  0  0  0
   12.9530   -0.0710   22.8990 C   0  0  0  0  0  0  0  0  0  0  0  0
    4.2920    0.8960   20.0270 C   0  0  0  0  0  0  0  0  0  0  0  0
    4.3560    1.3650   18.7480 C   0  0  0  0  0  0  0  0  0  0  0  0
    5.4100    1.1670   17.8860 C   0  0  0  0  0  0  0  0  0  0  0  0
    6.5070    0.4690   18.2510 N   0  0  0  0  0  0  0  0  0  0  0  0
    6.5320   -0.0280   19.5340 C   0  0  0  0  0  0  0  0  0  0  0  0
    5.4360    0.0900   20.6310 C   0  0  0  0  0  0  0  0  0  0  0  0
    7.7500   -0.7580   19.9730 C   0  0  0  0  0  0  0  0  0  0  0  0
  1  3  1  0
  2  3  2  0
  5  6  2  0
  6  7  1  0
  3  8  1  0
  6  9  1  0
  8  9  1  0
  9 10  1  0
 11  4  1  1
  7 11  1  0
 10 11  1  0
 11 12  1  0
  8 13  1  0
 12 13  1  0
  4 15  1  0
 14 15  2  0
 15 16  1  0
 16 17  1  0
 14 18  1  0
 17 18  2  0
 19 20  2  0
 20 21  1  0
 21 22  2  0
 22 23  1  0
 19 24  1  0
 23 24  2  0
  9 25  1  6
 23 25  1  0
M  END
