x0434-x2600
     RDKit          3D

 18 19  0  0  0  0  0  0  0  0999 V2000
   14.0740   -1.4110   20.3030 N   0  0  0  0  0  0  0  0  0  0  0  0
    8.3720    0.2610   21.8350 C   0  0  0  0  0  0  0  0  0  0  0  0
    9.0990    1.4000   21.3310 O   0  0  0  0  0  0  0  0  0  0  0  0
    8.6550   -0.3340   23.0750 C   0  0  0  0  0  0  0  0  0  0  0  0
    7.2840   -0.3770   21.1560 N   0  0  0  0  0  0  0  0  0  0  0  0
   13.2670   -1.3220   21.4410 C   0  0  0  0  0  0  0  0  0  0  0  0
    6.2570    0.5550   17.6790 N   0  0  0  0  0  0  0  0  0  0  0  0
    6.9110    0.0100   18.7080 C   0  0  0  0  0  0  0  0  0  0  0  0
    6.5520    0.2030   20.0260 C   0  0  0  0  0  0  0  0  0  0  0  0
    5.4420    1.0000   20.2980 C   0  0  0  0  0  0  0  0  0  0  0  0
    4.7460    1.5780   19.2380 C   0  0  0  0  0  0  0  0  0  0  0  0
    5.1670    1.3500   17.9250 C   0  0  0  0  0  0  0  0  0  0  0  0
   10.6110   -0.2760   24.6800 C   0  0  0  0  0  0  0  0  0  0  0  0
   11.9550   -0.4220   24.9230 C   0  0  0  0  0  0  0  0  0  0  0  0
   12.8700   -0.7900   23.8160 C   0  0  0  0  0  0  0  0  0  0  0  0
   12.3660   -0.9780   22.5750 C   0  0  0  0  0  0  0  0  0  0  0  0
   11.0000   -0.8350   22.3500 C   0  0  0  0  0  0  0  0  0  0  0  0
   10.1170   -0.4840   23.3790 C   0  0  0  0  0  0  0  0  0  0  0  0
  2  3  2  0
  2  4  1  0
  2  5  1  0
  1  6  3  0
  7  8  2  0
  5  9  1  0
  8  9  1  0
  9 10  2  0
 10 11  1  0
  7 12  1  0
 11 12  2  0
 13 14  2  0
 14 15  1  0
  6 16  1  0
 15 16  2  0
 16 17  1  0
  4 18  1  0
 13 18  1  0
 17 18  2  0
M  END
