x0434-x1412
     RDKit          3D

 32 35  0  0  0  0  0  0  0  0999 V2000
    7.4130   -3.0040   18.7720 C   0  0  0  0  0  0  0  0  0  0  0  0
    5.5400   -4.0920   19.7400 O   0  0  0  0  0  0  0  0  0  0  0  0
    6.5190   -3.3450   19.9460 C   0  0  0  0  0  0  0  0  0  0  0  0
    8.4420   -1.7040   25.1420 O   0  0  0  0  0  0  0  0  0  0  0  0
    8.4130   -2.8860   24.8120 C   0  0  0  0  0  0  0  0  0  0  0  0
    8.9950   -0.1680   20.9570 O   0  0  0  0  0  0  0  0  0  0  0  0
    8.0120   -0.7500   21.7310 C   0  0  1  0  0  0  0  0  0  0  0  0
    8.5730   -0.6150   23.0460 N   0  0  0  0  0  0  0  0  0  0  0  0
    6.6720   -0.1850   21.5320 N   0  0  0  0  0  0  0  0  0  0  0  0
    6.8220   -2.8600   21.2250 N   0  0  0  0  0  0  0  0  0  0  0  0
    8.1550   -2.1090   21.4650 C   0  0  2  0  0  0  0  0  0  0  0  0
    8.9780   -2.7620   22.4110 C   0  0  0  0  0  0  0  0  0  0  0  0
    8.2400   -3.3240   23.5100 N   0  0  0  0  0  0  0  0  0  0  0  0
    7.2220   -4.2310   23.1420 C   0  0  0  0  0  0  0  0  0  0  0  0
    6.2050   -3.4330   22.3000 C   0  0  0  0  0  0  0  0  0  0  0  0
    9.3650   -5.0340   25.4250 C   0  0  0  0  0  0  0  0  0  0  0  0
    8.5430   -3.9270   25.7570 C   0  0  0  0  0  0  0  0  0  0  0  0
    7.7580   -3.9180   27.2770 S   0  0  0  0  0  0  0  0  0  0  0  0
    8.5530   -5.4630   27.5070 C   0  0  0  0  0  0  0  0  0  0  0  0
    9.3670   -6.0290   26.5670 C   0  0  0  0  0  0  0  0  0  0  0  0
   10.5830    0.7230   23.8420 C   0  0  0  0  0  0  0  0  0  0  0  0
   11.9570    0.9290   23.8200 C   0  0  0  0  0  0  0  0  0  0  0  0
   12.8450    0.1380   23.0950 C   0  0  0  0  0  0  0  0  0  0  0  0
   12.4070   -0.9330   22.3290 C   0  0  0  0  0  0  0  0  0  0  0  0
   11.0410   -1.1920   22.2990 C   0  0  0  0  0  0  0  0  0  0  0  0
   10.0290   -0.3070   23.1130 C   0  0  0  0  0  0  0  0  0  0  0  0
    5.0100    1.0420   20.2860 C   0  0  0  0  0  0  0  0  0  0  0  0
    4.5360    1.5320   19.0870 C   0  0  0  0  0  0  0  0  0  0  0  0
    5.2580    1.2700   17.9150 C   0  0  0  0  0  0  0  0  0  0  0  0
    6.3920    0.5540   17.9170 N   0  0  0  0  0  0  0  0  0  0  0  0
    6.8150    0.0960   19.1150 C   0  0  0  0  0  0  0  0  0  0  0  0
    6.1860    0.2970   20.3630 C   0  0  0  0  0  0  0  0  0  0  0  0
  1  3  1  0
  2  3  2  0
  4  5  2  0
  7  6  1  6
  7  8  1  0
  7  9  1  0
  3 10  1  0
  7 11  1  0
 10 11  1  0
 11 12  1  1
  5 13  1  0
 12 13  1  0
 13 14  1  0
 10 15  1  0
 14 15  1  0
  5 17  1  0
 16 17  2  0
 17 18  1  0
 18 19  1  0
 16 20  1  0
 19 20  2  0
 21 22  2  0
 22 23  1  0
 23 24  2  0
 24 25  1  0
  8 26  1  0
 21 26  1  0
 25 26  2  0
 27 28  2  0
 28 29  1  0
 29 30  2  0
 30 31  1  0
  9 32  1  0
 27 32  1  0
 31 32  2  0
M  END
