x0434-x1458
     RDKit          3D

 33 35  0  0  0  0  0  0  0  0999 V2000
    7.3160   -3.8240   26.5520 N   0  0  0  0  0  0  0  0  0  0  0  0
    9.1420   -4.5840   27.6730 C   0  0  0  0  0  0  0  0  0  0  0  0
    5.4740   -3.1790   25.3480 O   0  0  0  0  0  0  0  0  0  0  0  0
    7.8900   -4.9150   27.1570 C   0  0  0  0  0  0  0  0  0  0  0  0
    5.4550   -4.4370   19.9000 O   0  0  0  0  0  0  0  0  0  0  0  0
    7.0040   -5.4250   28.0960 C   0  0  0  0  0  0  0  0  0  0  0  0
    7.1660   -2.5940   27.3920 C   0  0  0  0  0  0  0  0  0  0  0  0
    6.5280   -3.8250   25.4280 C   0  0  0  0  0  0  0  0  0  0  0  0
    6.4930   -3.8710   20.2870 C   0  0  0  0  0  0  0  0  0  0  0  0
    7.3360   -3.1520   19.2510 C   0  0  0  0  0  0  0  0  0  0  0  0
    8.8940    1.1710   21.1110 O   0  0  0  0  0  0  0  0  0  0  0  0
    8.2960   -0.1130   21.3730 C   0  0  0  0  0  0  0  0  0  0  0  0
    8.9000   -1.1070   22.0440 N   0  0  0  0  0  0  0  0  0  0  0  0
    7.0500   -0.4770   20.9880 N   0  0  0  0  0  0  0  0  0  0  0  0
    7.9660   -2.1060   22.6370 C   0  0  0  0  0  0  0  0  0  0  0  0
    6.8810   -3.9690   21.6440 N   0  0  0  0  0  0  0  0  0  0  0  0
    8.0210   -3.4750   22.2910 C   0  0  2  0  0  0  0  0  0  0  0  0
    8.1650   -4.2250   23.6280 C   0  0  0  0  0  0  0  0  0  0  0  0
    7.0110   -4.6860   24.2950 C   0  0  2  0  0  0  0  0  0  0  0  0
    6.0250   -5.1730   23.4530 C   0  0  0  0  0  0  0  0  0  0  0  0
    6.4480   -5.1460   22.1360 C   0  0  0  0  0  0  0  0  0  0  0  0
   10.3990    0.3620   23.2940 C   0  0  0  0  0  0  0  0  0  0  0  0
   11.6710    0.7440   23.7140 C   0  0  0  0  0  0  0  0  0  0  0  0
   12.7990    0.0130   23.3430 C   0  0  0  0  0  0  0  0  0  0  0  0
   12.6610   -1.1150   22.5440 C   0  0  0  0  0  0  0  0  0  0  0  0
   11.3920   -1.5170   22.1090 C   0  0  0  0  0  0  0  0  0  0  0  0
   10.2560   -0.7780   22.4800 C   0  0  0  0  0  0  0  0  0  0  0  0
    5.2110    0.8770   20.1910 C   0  0  0  0  0  0  0  0  0  0  0  0
    4.6000    1.5130   19.1070 C   0  0  0  0  0  0  0  0  0  0  0  0
    5.1670    1.4180   17.8450 C   0  0  0  0  0  0  0  0  0  0  0  0
    6.2880    0.7250   17.6140 N   0  0  0  0  0  0  0  0  0  0  0  0
    6.8660    0.1190   18.6580 C   0  0  0  0  0  0  0  0  0  0  0  0
    6.3930    0.1570   19.9580 C   0  0  0  0  0  0  0  0  0  0  0  0
  1  4  1  0
  2  4  1  0
  4  6  1  0
  1  7  1  0
  1  8  1  0
  3  8  2  0
  5  9  2  0
  9 10  1  0
 11 12  2  0
 12 13  1  0
 12 14  1  0
 13 15  1  0
  9 16  1  0
 17 15  1  1
 16 17  1  0
 17 18  1  0
 19  8  1  6
 18 19  1  0
 19 20  1  0
 16 21  1  0
 20 21  1  0
 22 23  2  0
 23 24  1  0
 24 25  2  0
 25 26  1  0
 13 27  1  0
 22 27  1  0
 26 27  2  0
 28 29  2  0
 29 30  1  0
 30 31  2  0
 31 32  1  0
 14 33  1  0
 28 33  1  0
 32 33  2  0
M  END
