x0434-x0689
     RDKit          3D

 35 38  0  0  0  0  0  0  0  0999 V2000
    7.0970   -3.4590   19.6190 C   0  0  0  0  0  0  0  0  0  0  0  0
    5.7440   -5.4000   20.0040 O   0  0  0  0  0  0  0  0  0  0  0  0
    6.3330   -4.4520   20.4810 C   0  0  0  0  0  0  0  0  0  0  0  0
    3.9730   -6.2540   26.0340 O   0  0  0  0  0  0  0  0  0  0  0  0
    5.5900   -4.6990   27.0950 O   0  0  0  0  0  0  0  0  0  0  0  0
    4.7870   -5.0550   25.9520 S   0  0  0  0  0  0  0  0  0  0  0  0
    8.5770    0.7890   21.2430 O   0  0  0  0  0  0  0  0  0  0  0  0
    8.2820   -0.3580   21.5580 C   0  0  0  0  0  0  0  0  0  0  0  0
    9.1530   -1.1990   22.3730 N   0  0  0  0  0  0  0  0  0  0  0  0
    7.0250   -0.9760   21.1390 N   0  0  0  0  0  0  0  0  0  0  0  0
    5.4940   -2.8370   21.9690 C   0  0  0  0  0  0  0  0  0  0  0  0
    6.5150   -1.8710   22.2380 C   0  0  0  0  0  0  0  0  0  0  0  0
    6.1640   -4.2510   21.9680 C   0  0  0  0  0  0  0  0  0  0  0  0
    5.1300   -5.1210   22.2390 C   0  0  0  0  0  0  0  0  0  0  0  0
    4.5640   -4.8870   23.4560 C   0  0  0  0  0  0  0  0  0  0  0  0
    5.5060   -5.1450   24.4140 N   0  0  0  0  0  0  0  0  0  0  0  0
    6.6340   -4.3590   24.2930 C   0  0  0  0  0  0  0  0  0  0  0  0
    7.2090   -4.4500   23.0060 C   0  0  0  0  0  0  0  0  0  0  0  0
    3.9470   -2.1060   26.1050 S   0  0  0  0  0  0  0  0  0  0  0  0
    3.6470   -3.7820   25.8100 C   0  0  0  0  0  0  0  0  0  0  0  0
    2.3300   -4.0570   25.4280 C   0  0  0  0  0  0  0  0  0  0  0  0
    1.5960   -2.8990   25.3900 C   0  0  0  0  0  0  0  0  0  0  0  0
    2.3090   -1.7570   25.7270 C   0  0  0  0  0  0  0  0  0  0  0  0
   10.5910    0.3890   23.4950 C   0  0  0  0  0  0  0  0  0  0  0  0
   11.8570    0.8600   23.7660 C   0  0  0  0  0  0  0  0  0  0  0  0
   12.9450    0.2040   23.2220 C   0  0  0  0  0  0  0  0  0  0  0  0
   12.8900   -0.9110   22.4180 C   0  0  0  0  0  0  0  0  0  0  0  0
   11.6080   -1.3890   22.1410 C   0  0  0  0  0  0  0  0  0  0  0  0
   10.4790   -0.7400   22.6700 C   0  0  0  0  0  0  0  0  0  0  0  0
    5.1360    0.4100   20.3270 C   0  0  0  0  0  0  0  0  0  0  0  0
    4.5410    1.1200   19.2670 C   0  0  0  0  0  0  0  0  0  0  0  0
    5.1470    1.1590   18.0180 C   0  0  0  0  0  0  0  0  0  0  0  0
    6.2970    0.5310   17.7590 N   0  0  0  0  0  0  0  0  0  0  0  0
    6.9390   -0.2220   18.8410 C   0  0  0  0  0  0  0  0  0  0  0  0
    6.3550   -0.2680   20.1150 C   0  0  0  0  0  0  0  0  0  0  0  0
  1  3  1  0
  2  3  2  0
  4  6  2  0
  5  6  2  0
  7  8  2  0
  8  9  1  0
  8 10  1  0
 10 12  1  0
 11 12  1  0
 13  3  1  0
 11 13  1  0
 13 14  1  0
 14 15  1  0
  6 16  1  0
 15 16  1  0
 16 17  1  0
 13 18  1  0
 17 18  1  0
  6 20  1  0
 19 20  1  0
 20 21  2  0
 21 22  1  0
 19 23  1  0
 22 23  2  0
 24 25  2  0
 25 26  1  0
 26 27  2  0
 27 28  1  0
  9 29  1  0
 24 29  1  0
 28 29  2  0
 30 31  2  0
 31 32  1  0
 32 33  2  0
 33 34  1  0
 10 35  1  0
 30 35  1  0
 34 35  2  0
M  END
