x0434-x0831
     RDKit          3D

 27 30  0  0  0  0  0  0  0  0999 V2000
   12.1900   -2.3670   23.5310 C   0  0  0  0  0  0  0  0  0  0  0  0
    5.3560   -4.4520   19.8240 O   0  0  0  0  0  0  0  0  0  0  0  0
    9.3240   -1.0780   23.5430 C   0  0  2  0  0  0  0  0  0  0  0  0
    6.1540   -3.5360   20.0010 C   0  0  0  0  0  0  0  0  0  0  0  0
    7.1210   -3.1140   18.8770 C   0  0  0  0  0  0  0  0  0  0  0  0
    7.9520    0.7200   22.3040 O   0  0  0  0  0  0  0  0  0  0  0  0
    8.3480   -0.4050   22.6120 C   0  0  0  0  0  0  0  0  0  0  0  0
   11.9100   -0.9120   23.3410 C   0  0  0  0  0  0  0  0  0  0  0  0
   10.6150   -0.3910   23.3510 C   0  0  0  0  0  0  0  0  0  0  0  0
   10.4050    1.1150   23.1140 C   0  0  0  0  0  0  0  0  0  0  0  0
   11.5210    1.8900   22.9230 C   0  0  0  0  0  0  0  0  0  0  0  0
   12.7660    1.3180   22.9440 C   0  0  0  0  0  0  0  0  0  0  0  0
   12.9710   -0.0430   23.1400 C   0  0  0  0  0  0  0  0  0  0  0  0
    6.1900   -2.8820   21.2200 N   0  0  0  0  0  0  0  0  0  0  0  0
    6.7540   -1.5470   21.0890 C   0  0  2  0  0  0  0  0  0  0  0  0
    7.8720   -1.6120   21.9020 C   0  0  1  0  0  0  0  0  0  0  0  0
    9.1060   -2.0480   21.3870 C   0  0  0  0  0  0  0  0  0  0  0  0
    9.1110   -2.2520   22.8440 N   0  0  0  0  0  0  0  0  0  0  0  0
    7.8180   -2.9200   22.9720 C   0  0  0  0  0  0  0  0  0  0  0  0
    6.5960   -3.4150   22.4690 C   0  0  0  0  0  0  0  0  0  0  0  0
    5.0930    0.3660   20.4650 C   0  0  0  0  0  0  0  0  0  0  0  0
    4.6100    1.1960   19.2020 C   0  0  0  0  0  0  0  0  0  0  0  0
    5.3010    1.3540   17.8760 C   0  0  0  0  0  0  0  0  0  0  0  0
    6.4070    0.8030   17.6160 N   0  0  0  0  0  0  0  0  0  0  0  0
    6.8790    0.0920   18.6100 C   0  0  0  0  0  0  0  0  0  0  0  0
    6.3150   -0.1160   19.8880 C   0  0  0  0  0  0  0  0  0  0  0  0
    5.7330   -0.4350   21.4410 C   0  0  0  0  0  0  0  0  0  0  0  0
  2  4  2  0
  4  5  1  0
  3  7  1  0
  6  7  2  0
  1  8  1  0
  3  9  1  6
  8  9  2  0
  9 10  1  0
 10 11  2  0
 11 12  1  0
  8 13  1  0
 12 13  2  0
  4 14  1  0
 14 15  1  0
 16  7  1  6
 15 16  1  0
 16 17  1  0
  3 18  1  0
 17 18  1  0
 18 19  1  0
 14 20  1  0
 19 20  1  0
 21 22  2  0
 22 23  1  0
 23 24  2  0
 24 25  1  0
 21 26  1  0
 25 26  2  0
 15 27  1  1
 21 27  1  0
M  END
