x0434-x1358
     RDKit          3D

 36 39  0  0  0  0  0  0  0  0999 V2000
    6.9070   -2.7160   26.0240 N   0  0  0  0  0  0  0  0  0  0  0  0
    5.3720   -0.3900   25.4070 O   0  0  0  0  0  0  0  0  0  0  0  0
    4.7530   -3.5650   25.7360 O   0  0  0  0  0  0  0  0  0  0  0  0
    5.1440   -4.2860   19.7410 O   0  0  0  0  0  0  0  0  0  0  0  0
    5.8600   -3.2800   25.2910 C   0  0  0  0  0  0  0  0  0  0  0  0
    6.2170   -3.8170   20.0880 C   0  0  0  0  0  0  0  0  0  0  0  0
    7.1450   -3.1480   19.0940 C   0  0  0  0  0  0  0  0  0  0  0  0
    8.5660    0.9470   21.2110 O   0  0  0  0  0  0  0  0  0  0  0  0
    8.2820   -0.2210   21.4830 C   0  0  0  0  0  0  0  0  0  0  0  0
    9.1310   -1.0500   22.3510 N   0  0  0  0  0  0  0  0  0  0  0  0
    7.1730   -0.8030   20.9990 N   0  0  0  0  0  0  0  0  0  0  0  0
    6.5480   -1.6730   21.8050 C   0  0  0  0  0  0  0  0  0  0  0  0
    6.0480   -0.4950   26.5910 C   0  0  0  0  0  0  0  0  0  0  0  0
    6.8370   -1.6090   26.9870 C   0  0  0  0  0  0  0  0  0  0  0  0
    7.5230   -1.6890   28.2130 C   0  0  0  0  0  0  0  0  0  0  0  0
    7.4220   -0.5090   29.1930 C   0  0  0  0  0  0  0  0  0  0  0  0
    6.6540    0.5730   28.8100 C   0  0  0  0  0  0  0  0  0  0  0  0
    5.9280    0.6080   27.4630 C   0  0  0  0  0  0  0  0  0  0  0  0
    6.6210   -3.9440   21.4000 N   0  0  0  0  0  0  0  0  0  0  0  0
    7.2660   -2.9630   22.0490 C   0  0  2  0  0  0  0  0  0  0  0  0
    7.3910   -3.1880   23.3750 C   0  0  0  0  0  0  0  0  0  0  0  0
    6.1330   -3.5480   23.8360 C   0  0  1  0  0  0  0  0  0  0  0  0
    5.8900   -4.8770   23.4450 C   0  0  0  0  0  0  0  0  0  0  0  0
    6.4070   -5.1970   22.1720 C   0  0  0  0  0  0  0  0  0  0  0  0
   10.5420    0.4460   23.4190 C   0  0  0  0  0  0  0  0  0  0  0  0
   11.8370    0.8270   23.6910 C   0  0  0  0  0  0  0  0  0  0  0  0
   12.9520    0.1490   23.2350 C   0  0  0  0  0  0  0  0  0  0  0  0
   12.8020   -0.9910   22.4620 C   0  0  0  0  0  0  0  0  0  0  0  0
   11.5130   -1.4180   22.1580 C   0  0  0  0  0  0  0  0  0  0  0  0
   10.3830   -0.7060   22.6260 C   0  0  0  0  0  0  0  0  0  0  0  0
    5.3420    0.7030   20.2370 C   0  0  0  0  0  0  0  0  0  0  0  0
    4.6890    1.4380   19.2580 C   0  0  0  0  0  0  0  0  0  0  0  0
    5.1370    1.4760   17.9390 C   0  0  0  0  0  0  0  0  0  0  0  0
    6.3470    0.6890   17.6040 N   0  0  0  0  0  0  0  0  0  0  0  0
    7.0110   -0.0850   18.6830 C   0  0  0  0  0  0  0  0  0  0  0  0
    6.4940   -0.0530   19.9760 C   0  0  0  0  0  0  0  0  0  0  0  0
  1  5  1  0
  3  5  2  0
  4  6  2  0
  6  7  1  0
  8  9  2  0
  9 10  1  0
  9 11  1  0
 11 12  1  0
  2 13  1  0
  1 14  1  0
 13 14  2  0
 14 15  1  0
 15 16  2  0
 16 17  1  0
 13 18  1  0
 17 18  2  0
  6 19  1  0
 20 12  1  1
 19 20  1  0
 20 21  1  0
 22  5  1  1
 21 22  1  0
 22 23  1  0
 19 24  1  0
 23 24  1  0
 25 26  2  0
 26 27  1  0
 27 28  2  0
 28 29  1  0
 10 30  1  0
 25 30  1  0
 29 30  2  0
 31 32  2  0
 32 33  1  0
 33 34  2  0
 34 35  1  0
 11 36  1  0
 31 36  1  0
 35 36  2  0
M  END
