x0434-x1311
     RDKit          3D

 36 39  0  0  0  0  0  0  0  0999 V2000
    5.7960   -4.8080   20.0420 O   0  0  0  0  0  0  0  0  0  0  0  0
    6.6410   -4.6050   20.9530 C   0  0  0  0  0  0  0  0  0  0  0  0
    8.1350   -4.3330   20.7420 C   0  0  0  0  0  0  0  0  0  0  0  0
    6.2670   -4.5420   22.4530 C   0  0  2  0  0  0  0  0  0  0  0  0
    3.9130   -7.5580   25.3680 O   0  0  0  0  0  0  0  0  0  0  0  0
    2.3440   -5.6320   24.7130 O   0  0  0  0  0  0  0  0  0  0  0  0
    9.0340    1.1190   21.2910 O   0  0  0  0  0  0  0  0  0  0  0  0
    8.5140    0.0130   21.5280 C   0  0  0  0  0  0  0  0  0  0  0  0
    9.1020   -1.0060   22.3690 N   0  0  0  0  0  0  0  0  0  0  0  0
    7.2320   -0.3560   20.9420 N   0  0  0  0  0  0  0  0  0  0  0  0
    6.1560   -3.0650   22.6670 C   0  0  0  0  0  0  0  0  0  0  0  0
    5.9330   -2.1770   21.6240 C   0  0  0  0  0  0  0  0  0  0  0  0
    6.4900   -0.9530   21.8480 C   0  0  0  0  0  0  0  0  0  0  0  0
    8.2810   -5.8220   23.1600 C   0  0  0  0  0  0  0  0  0  0  0  0
    9.3050   -6.0750   24.0610 C   0  0  0  0  0  0  0  0  0  0  0  0
    9.4690   -5.3420   25.2290 C   0  0  0  0  0  0  0  0  0  0  0  0
    8.5480   -4.3230   25.4620 C   0  0  0  0  0  0  0  0  0  0  0  0
    7.5480   -4.0910   24.5610 C   0  0  0  0  0  0  0  0  0  0  0  0
    7.3790   -4.8130   23.4080 C   0  0  0  0  0  0  0  0  0  0  0  0
    4.5250   -6.1910   22.2000 C   0  0  0  0  0  0  0  0  0  0  0  0
    4.9910   -5.1380   22.8760 C   0  0  1  0  0  0  0  0  0  0  0  0
    4.8840   -5.4220   24.2480 C   0  0  0  0  0  0  0  0  0  0  0  0
    3.5140   -6.4590   24.5140 S   0  0  0  0  0  0  0  0  0  0  0  0
    3.5310   -7.0590   22.9600 C   0  0  0  0  0  0  0  0  0  0  0  0
   10.5860    0.4740   23.4430 C   0  0  0  0  0  0  0  0  0  0  0  0
   11.9760    0.9410   23.7200 C   0  0  0  0  0  0  0  0  0  0  0  0
   13.0370    0.2540   23.1630 C   0  0  0  0  0  0  0  0  0  0  0  0
   12.8330   -0.8770   22.3530 C   0  0  0  0  0  0  0  0  0  0  0  0
   11.5190   -1.3220   22.0870 C   0  0  0  0  0  0  0  0  0  0  0  0
   10.4410   -0.6320   22.6310 C   0  0  0  0  0  0  0  0  0  0  0  0
    5.2590    1.0560   20.1790 C   0  0  0  0  0  0  0  0  0  0  0  0
    4.6290    1.6260   19.0900 C   0  0  0  0  0  0  0  0  0  0  0  0
    5.1580    1.4320   17.8300 C   0  0  0  0  0  0  0  0  0  0  0  0
    6.2530    0.7090   17.5740 N   0  0  0  0  0  0  0  0  0  0  0  0
    6.9030    0.1280   18.6540 C   0  0  0  0  0  0  0  0  0  0  0  0
    6.5210    0.2350   19.9190 C   0  0  0  0  0  0  0  0  0  0  0  0
  1  2  2  0
  2  3  1  0
  4  2  1  0
  7  8  2  0
  8  9  1  0
  8 10  1  0
  4 11  1  1
 11 12  1  0
 10 13  1  0
 12 13  1  0
 14 15  2  0
 15 16  1  0
 16 17  2  0
 17 18  1  0
  4 19  1  0
 14 19  1  0
 18 19  2  0
  4 21  1  0
 21 20  1  6
 21 22  1  0
 23  5  1  0
  6 23  1  0
 22 23  1  0
 20 24  2  0
 23 24  1  0
 25 26  2  0
 26 27  1  0
 27 28  2  0
 28 29  1  0
  9 30  1  0
 25 30  1  0
 29 30  2  0
 31 32  2  0
 32 33  1  0
 33 34  2  0
 34 35  1  0
 10 36  1  0
 31 36  1  0
 35 36  2  0
M  END
