x0434-x1334
     RDKit          3D

 32 36  0  0  0  0  0  0  0  0999 V2000
    7.5590   -2.9700   18.6840 C   0  0  0  0  0  0  0  0  0  0  0  0
    5.7410   -3.9570   19.7740 O   0  0  0  0  0  0  0  0  0  0  0  0
    7.2890   -6.0440   28.5700 Cl  0  0  0  0  0  0  0  0  0  0  0  0
    6.6790   -3.1080   19.9030 C   0  0  0  0  0  0  0  0  0  0  0  0
    9.3970   -2.9080   24.3430 C   0  0  0  0  0  0  0  0  0  0  0  0
    8.4140    1.0360   21.3100 O   0  0  0  0  0  0  0  0  0  0  0  0
    8.1190   -0.1410   21.5050 C   0  0  0  0  0  0  0  0  0  0  0  0
    8.8760   -1.0580   22.1130 N   0  0  0  0  0  0  0  0  0  0  0  0
    6.8540   -0.7360   21.0450 N   0  0  0  0  0  0  0  0  0  0  0  0
    7.0300   -2.2250   21.2070 C   0  0  2  0  0  0  0  0  0  0  0  0
    8.4450   -2.2720   21.3880 C   0  0  2  0  0  0  0  0  0  0  0  0
    8.8920   -3.3040   22.1020 C   0  0  0  0  0  0  0  0  0  0  0  0
    8.4780   -2.8650   23.3790 N   0  0  0  0  0  0  0  0  0  0  0  0
    7.1990   -3.2670   23.6370 C   0  0  0  0  0  0  0  0  0  0  0  0
    6.2960   -2.8120   22.4330 C   0  0  0  0  0  0  0  0  0  0  0  0
    9.7730   -5.2860   25.3970 C   0  0  0  0  0  0  0  0  0  0  0  0
    9.0770   -3.9200   25.3210 C   0  0  0  0  0  0  0  0  0  0  0  0
    7.8710   -3.8340   26.5900 S   0  0  0  0  0  0  0  0  0  0  0  0
    8.1740   -5.4370   27.2440 C   0  0  0  0  0  0  0  0  0  0  0  0
    9.1810   -6.0990   26.5520 C   0  0  0  0  0  0  0  0  0  0  0  0
   10.4040    0.4080   23.3210 C   0  0  0  0  0  0  0  0  0  0  0  0
   11.6780    0.8270   23.7080 C   0  0  0  0  0  0  0  0  0  0  0  0
   12.7980    0.1540   23.2670 C   0  0  0  0  0  0  0  0  0  0  0  0
   12.6400   -0.9450   22.4380 C   0  0  0  0  0  0  0  0  0  0  0  0
   11.3850   -1.4000   22.0250 C   0  0  0  0  0  0  0  0  0  0  0  0
   10.2260   -0.7090   22.4690 C   0  0  0  0  0  0  0  0  0  0  0  0
    4.9100    0.6960   20.1870 C   0  0  0  0  0  0  0  0  0  0  0  0
    4.4970    1.3360   19.0310 C   0  0  0  0  0  0  0  0  0  0  0  0
    5.1800    1.3290   17.8300 C   0  0  0  0  0  0  0  0  0  0  0  0
    6.3280    0.6690   17.6970 N   0  0  0  0  0  0  0  0  0  0  0  0
    6.8360    0.0050   18.7550 C   0  0  0  0  0  0  0  0  0  0  0  0
    6.2280   -0.0400   20.0050 C   0  0  0  0  0  0  0  0  0  0  0  0
  1  4  1  0
  2  4  2  0
  6  7  2  0
  7  8  1  0
  7  9  1  0
 10  4  1  6
  9 10  1  0
  8 11  1  0
 10 11  1  0
 11 12  1  1
  5 13  1  0
 12 13  1  0
 13 14  1  0
 10 15  1  0
 14 15  1  0
  5 17  1  0
 16 17  2  0
 17 18  1  0
  3 19  1  0
 18 19  1  0
 16 20  1  0
 19 20  2  0
 21 22  2  0
 22 23  1  0
 23 24  2  0
 24 25  1  0
  8 26  1  0
 21 26  1  0
 25 26  2  0
 27 28  2  0
 28 29  1  0
 29 30  2  0
 30 31  1  0
  9 32  1  0
 27 32  1  0
 31 32  2  0
M  END
