x0434-x0354
     RDKit          3D

 29 31  0  0  0  0  0  0  0  0999 V2000
   13.1420   -1.1760   22.4320 C   0  0  0  0  0  0  0  0  0  0  0  0
    7.5690   -2.1330   25.2820 O   0  0  0  0  0  0  0  0  0  0  0  0
    7.3990   -0.4700   27.3460 O   0  0  0  0  0  0  0  0  0  0  0  0
    8.5010   -1.3560   25.4790 C   0  0  0  0  0  0  0  0  0  0  0  0
    8.2030   -0.1970   26.4490 C   0  0  0  0  0  0  0  0  0  0  0  0
    5.6150    3.5940   30.9940 C   0  0  0  0  0  0  0  0  0  0  0  0
   12.2560   -1.2990   23.4760 N   0  0  0  0  0  0  0  0  0  0  0  0
   11.2030   -2.2780   23.2010 C   0  0  1  0  0  0  0  0  0  0  0  0
   10.4250   -2.5990   24.3200 C   0  0  0  0  0  0  0  0  0  0  0  0
    9.8050   -1.4100   24.9590 N   0  0  0  0  0  0  0  0  0  0  0  0
   10.6450   -0.3780   25.1050 C   0  0  0  0  0  0  0  0  0  0  0  0
   11.6550   -0.0420   23.9650 C   0  0  0  0  0  0  0  0  0  0  0  0
    7.6270    1.8860   28.2750 C   0  0  0  0  0  0  0  0  0  0  0  0
    7.1270    2.8010   29.1910 C   0  0  0  0  0  0  0  0  0  0  0  0
    6.0590    2.5080   30.0530 C   0  0  0  0  0  0  0  0  0  0  0  0
    5.4560    1.2380   30.0060 C   0  0  0  0  0  0  0  0  0  0  0  0
    5.9900    0.3450   29.0730 C   0  0  0  0  0  0  0  0  0  0  0  0
    7.0400    0.6320   28.2220 C   0  0  0  0  0  0  0  0  0  0  0  0
    9.1070    1.1990   21.2730 O   0  0  0  0  0  0  0  0  0  0  0  0
    8.5310   -0.1010   21.5040 C   0  0  0  0  0  0  0  0  0  0  0  0
    9.2520   -0.9570   22.4870 N   0  0  0  0  0  0  0  0  0  0  0  0
    7.4160   -0.6310   20.9670 N   0  0  0  0  0  0  0  0  0  0  0  0
    5.4540    0.6970   20.4480 C   0  0  0  0  0  0  0  0  0  0  0  0
    4.7010    1.3350   19.4690 C   0  0  0  0  0  0  0  0  0  0  0  0
    5.2020    1.2360   18.0240 C   0  0  0  0  0  0  0  0  0  0  0  0
    6.2990    0.5670   17.7110 N   0  0  0  0  0  0  0  0  0  0  0  0
    6.9630   -0.0220   18.7300 C   0  0  0  0  0  0  0  0  0  0  0  0
    6.6380   -0.0140   20.0970 C   0  0  0  0  0  0  0  0  0  0  0  0
   10.2560   -1.7830   22.1020 C   0  0  0  0  0  0  0  0  0  0  0  0
  2  4  2  0
  3  5  1  0
  4  5  1  0
  1  7  1  0
  7  8  1  0
  8  9  1  0
  4 10  1  0
  9 10  1  0
 10 11  1  0
  7 12  1  0
 11 12  1  0
 13 14  2  0
  6 15  1  0
 14 15  1  0
 15 16  2  0
 16 17  1  0
  3 18  1  0
 13 18  1  0
 17 18  2  0
 19 20  2  0
 20 21  1  0
 20 22  1  0
 23 24  2  0
 24 25  1  0
 25 26  2  0
 26 27  1  0
 22 28  1  0
 23 28  1  0
 27 28  2  0
  8 29  1  6
 21 29  1  0
M  END
