x0434-x0387
     RDKit          3D

 24 26  0  0  0  0  0  0  0  0999 V2000
    8.8070    0.6740   21.4220 O   0  0  0  0  0  0  0  0  0  0  0  0
    8.4650   -0.4700   21.6960 C   0  0  0  0  0  0  0  0  0  0  0  0
    9.2040   -1.2890   22.5710 N   0  0  0  0  0  0  0  0  0  0  0  0
    7.2620   -1.0210   21.1110 N   0  0  0  0  0  0  0  0  0  0  0  0
   10.7410    0.3470   23.4940 C   0  0  0  0  0  0  0  0  0  0  0  0
   11.9740    0.8870   23.6690 C   0  0  0  0  0  0  0  0  0  0  0  0
   13.0620    0.2660   23.0720 C   0  0  0  0  0  0  0  0  0  0  0  0
   12.9150   -0.9080   22.3030 C   0  0  0  0  0  0  0  0  0  0  0  0
   11.6160   -1.4290   22.1470 C   0  0  0  0  0  0  0  0  0  0  0  0
   10.5430   -0.7820   22.7470 C   0  0  0  0  0  0  0  0  0  0  0  0
    5.2630    0.4300   20.4590 C   0  0  0  0  0  0  0  0  0  0  0  0
    4.6240    1.1940   19.2830 C   0  0  0  0  0  0  0  0  0  0  0  0
    5.2680    1.1580   18.0620 C   0  0  0  0  0  0  0  0  0  0  0  0
    6.4140    0.5030   17.8070 N   0  0  0  0  0  0  0  0  0  0  0  0
    6.9540   -0.1620   18.8480 C   0  0  0  0  0  0  0  0  0  0  0  0
    6.4570   -0.2370   20.1560 C   0  0  0  0  0  0  0  0  0  0  0  0
    9.0500   -4.1650   27.4930 O   0  0  0  0  0  0  0  0  0  0  0  0
    9.2560   -4.7980   26.2980 C   0  0  0  0  0  0  0  0  0  0  0  0
    8.1930   -4.6410   25.4070 C   0  0  0  0  0  0  0  0  0  0  0  0
    7.9390   -3.2800   25.2760 C   0  0  0  0  0  0  0  0  0  0  0  0
    8.9630   -2.9290   24.2830 N   0  0  0  0  0  0  0  0  0  0  0  0
   10.3000   -2.9970   24.9480 C   0  0  0  0  0  0  0  0  0  0  0  0
   10.5160   -4.2120   25.6640 C   0  0  0  0  0  0  0  0  0  0  0  0
    8.6450   -1.6710   23.8150 C   0  0  0  0  0  0  0  0  0  0  0  0
  1  2  2  0
  2  3  1  0
  2  4  1  0
  5  6  2  0
  6  7  1  0
  7  8  2  0
  8  9  1  0
  3 10  1  0
  5 10  1  0
  9 10  2  0
 11 12  2  0
 12 13  1  0
 13 14  2  0
 14 15  1  0
  4 16  1  0
 11 16  1  0
 15 16  2  0
 17 18  1  0
 18 19  1  0
 19 20  1  0
 20 21  1  0
 21 22  1  0
 18 23  1  0
 22 23  1  0
  3 24  1  0
 21 24  1  0
M  END
