x0434-x2562
     RDKit          3D

 22 24  0  0  0  0  0  0  0  0999 V2000
    8.3550    0.0510   21.3500 C   0  0  0  0  0  0  0  0  0  0  0  0
    8.4950    1.4670   21.1080 O   0  0  0  0  0  0  0  0  0  0  0  0
    7.1070   -0.5570   21.2570 C   0  0  0  0  0  0  0  0  0  0  0  0
   11.9370    2.7740   23.2480 O   0  0  0  0  0  0  0  0  0  0  0  0
    9.3530   -0.8420   21.6480 N   0  0  0  0  0  0  0  0  0  0  0  0
   13.4540    6.9110   22.3040 O   0  0  0  0  0  0  0  0  0  0  0  0
    4.5600    1.4920   19.3140 N   0  0  0  0  0  0  0  0  0  0  0  0
    5.0820    1.2870   18.0910 C   0  0  0  0  0  0  0  0  0  0  0  0
    6.1610    0.5450   17.8050 N   0  0  0  0  0  0  0  0  0  0  0  0
    6.7390   -0.0060   18.8580 C   0  0  0  0  0  0  0  0  0  0  0  0
    6.3460    0.1060   20.1750 C   0  0  0  0  0  0  0  0  0  0  0  0
    5.2040    0.8870   20.3850 C   0  0  0  0  0  0  0  0  0  0  0  0
   12.5250    4.6800   21.7120 N   0  0  0  0  0  0  0  0  0  0  0  0
   12.6800    5.8090   22.6940 C   0  0  1  0  0  0  0  0  0  0  0  0
   13.3480    4.8870   23.3880 C   0  0  0  0  0  0  0  0  0  0  0  0
   12.9660    3.6260   22.7130 C   0  0  1  0  0  0  0  0  0  0  0  0
   11.6850   -1.2700   22.1860 C   0  0  0  0  0  0  0  0  0  0  0  0
   13.0220   -0.7390   22.6530 C   0  0  0  0  0  0  0  0  0  0  0  0
   13.0840    0.6060   22.9910 C   0  0  0  0  0  0  0  0  0  0  0  0
   11.9630    1.4300   22.9270 C   0  0  0  0  0  0  0  0  0  0  0  0
   10.7340    0.9100   22.4990 C   0  0  0  0  0  0  0  0  0  0  0  0
   10.5930   -0.4310   22.1130 C   0  0  0  0  0  0  0  0  0  0  0  0
  1  2  2  0
  1  3  1  0
  1  5  1  0
  7  8  2  0
  8  9  1  0
  9 10  2  0
  3 11  1  0
 10 11  1  0
  7 12  1  0
 11 12  2  0
 14  6  1  6
 13 14  1  0
 14 15  1  0
 16  4  1  1
 13 16  1  0
 15 16  1  0
 17 18  2  0
 18 19  1  0
  4 20  1  0
 19 20  2  0
 20 21  1  0
  5 22  1  0
 17 22  1  0
 21 22  2  0
M  END
