x0434-x1493
     RDKit          3D

 30 32  0  0  0  0  0  0  0  0999 V2000
    4.7590   -6.1520   25.9620 C   0  0  0  0  0  0  0  0  0  0  0  0
    7.0290   -5.4260   26.2980 O   0  0  0  0  0  0  0  0  0  0  0  0
    6.0670   -5.4910   25.5380 C   0  0  0  0  0  0  0  0  0  0  0  0
    5.3010   -4.6300   19.9170 O   0  0  0  0  0  0  0  0  0  0  0  0
    6.3990   -4.2980   20.3350 C   0  0  0  0  0  0  0  0  0  0  0  0
    7.2310   -3.3350   19.5120 C   0  0  0  0  0  0  0  0  0  0  0  0
    8.6690    0.9910   21.1940 O   0  0  0  0  0  0  0  0  0  0  0  0
    8.4070   -0.3630   21.5830 C   0  0  0  0  0  0  0  0  0  0  0  0
    9.2550   -1.1180   22.3530 N   0  0  0  0  0  0  0  0  0  0  0  0
    7.1830   -1.0310   21.1810 N   0  0  0  0  0  0  0  0  0  0  0  0
    6.0330   -2.7860   22.4270 C   0  0  0  0  0  0  0  0  0  0  0  0
    6.5230   -1.4690   22.2770 C   0  0  0  0  0  0  0  0  0  0  0  0
    6.1440   -4.9350   24.1730 N   0  0  0  0  0  0  0  0  0  0  0  0
    7.3220   -4.3460   23.7770 C   0  0  0  0  0  0  0  0  0  0  0  0
    7.1750   -3.8360   22.4670 C   0  0  1  0  0  0  0  0  0  0  0  0
    6.8860   -4.7910   21.5230 N   0  0  0  0  0  0  0  0  0  0  0  0
    6.2770   -6.0440   22.1190 C   0  0  0  0  0  0  0  0  0  0  0  0
    5.5420   -5.6510   23.2150 C   0  0  0  0  0  0  0  0  0  0  0  0
   10.7440    0.5660   23.0440 C   0  0  0  0  0  0  0  0  0  0  0  0
   12.0310    1.0260   23.2290 C   0  0  0  0  0  0  0  0  0  0  0  0
   13.1300    0.2770   22.9460 C   0  0  0  0  0  0  0  0  0  0  0  0
   12.9910   -1.0020   22.4550 C   0  0  0  0  0  0  0  0  0  0  0  0
   11.6990   -1.4940   22.2530 C   0  0  0  0  0  0  0  0  0  0  0  0
   10.5720   -0.7220   22.5390 C   0  0  0  0  0  0  0  0  0  0  0  0
    5.3030    0.4510   20.4290 C   0  0  0  0  0  0  0  0  0  0  0  0
    4.5830    1.2730   19.3420 C   0  0  0  0  0  0  0  0  0  0  0  0
    5.1510    1.2730   18.0820 C   0  0  0  0  0  0  0  0  0  0  0  0
    6.3740    0.5310   17.7620 N   0  0  0  0  0  0  0  0  0  0  0  0
    7.0130   -0.2400   18.8420 C   0  0  0  0  0  0  0  0  0  0  0  0
    6.4860   -0.2720   20.1570 C   0  0  0  0  0  0  0  0  0  0  0  0
  1  3  1  0
  2  3  2  0
  4  5  2  0
  5  6  1  0
  7  8  2  0
  8  9  1  0
  8 10  1  0
 10 12  1  0
 11 12  1  0
  3 13  1  0
 13 14  1  0
 15 11  1  1
 14 15  1  0
  5 16  1  0
 15 16  1  0
 16 17  1  0
 13 18  1  0
 17 18  1  0
 19 20  2  0
 20 21  1  0
 21 22  2  0
 22 23  1  0
  9 24  1  0
 19 24  1  0
 23 24  2  0
 25 26  2  0
 26 27  1  0
 27 28  2  0
 28 29  1  0
 10 30  1  0
 25 30  1  0
 29 30  2  0
M  END
