x0434-x2563
     RDKit          3D

 20 22  0  0  0  0  0  0  0  0999 V2000
    8.3390   -0.2210   21.1880 C   0  0  0  0  0  0  0  0  0  0  0  0
    8.6990    1.1800   21.0720 O   0  0  0  0  0  0  0  0  0  0  0  0
    7.3470   -0.7470   20.4020 C   0  0  0  0  0  0  0  0  0  0  0  0
    8.9240   -1.1250   22.0280 N   0  0  0  0  0  0  0  0  0  0  0  0
    6.0250    1.0530   17.5090 N   0  0  0  0  0  0  0  0  0  0  0  0
    4.9740    1.6740   18.0090 C   0  0  0  0  0  0  0  0  0  0  0  0
    4.6510    1.5120   19.3460 C   0  0  0  0  0  0  0  0  0  0  0  0
    5.3770    0.7130   20.2590 C   0  0  0  0  0  0  0  0  0  0  0  0
    6.4800    0.0630   19.7310 C   0  0  0  0  0  0  0  0  0  0  0  0
    6.7850    0.2280   18.4180 C   0  0  0  0  0  0  0  0  0  0  0  0
    3.5250    2.2330   19.7120 C   0  0  0  0  0  0  0  0  0  0  0  0
    3.0370    2.1800   21.1600 C   0  0  0  0  0  0  0  0  0  0  0  0
    3.7070    1.4240   22.0930 C   0  0  0  0  0  0  0  0  0  0  0  0
    4.9450    0.6160   21.6990 C   0  0  0  0  0  0  0  0  0  0  0  0
   11.3020   -0.7460   22.4640 C   0  0  0  0  0  0  0  0  0  0  0  0
   12.2520   -0.0450   23.1700 C   0  0  0  0  0  0  0  0  0  0  0  0
   11.8480    0.8860   24.0980 C   0  0  0  0  0  0  0  0  0  0  0  0
   10.4940    1.0970   24.3150 C   0  0  0  0  0  0  0  0  0  0  0  0
    9.5320    0.4230   23.6370 C   0  0  0  0  0  0  0  0  0  0  0  0
    9.9460   -0.5070   22.6960 C   0  0  0  0  0  0  0  0  0  0  0  0
  1  2  2  0
  1  3  1  0
  1  4  1  0
  5  6  2  0
  6  7  1  0
  7  8  2  0
  3  9  1  0
  8  9  1  0
  5 10  1  0
  9 10  2  0
  7 11  1  0
 11 12  2  0
 12 13  1  0
  8 14  1  0
 13 14  2  0
 15 16  2  0
 16 17  1  0
 17 18  2  0
 18 19  1  0
  4 20  1  0
 15 20  1  0
 19 20  2  0
M  END
