x0434-x1385
     RDKit          3D

 33 37  0  0  0  0  0  0  0  0999 V2000
    7.4550   -3.0350   18.7060 C   0  0  0  0  0  0  0  0  0  0  0  0
    5.5970   -4.0540   19.7700 O   0  0  0  0  0  0  0  0  0  0  0  0
    6.5610   -3.2620   19.9250 C   0  0  0  0  0  0  0  0  0  0  0  0
    9.9030   -3.2060   24.0440 C   0  0  0  0  0  0  0  0  0  0  0  0
    7.1430   -5.7280   28.4900 Br  0  0  0  0  0  0  0  0  0  0  0  0
    8.0350    0.5340   21.7750 N   0  0  0  0  0  0  0  0  0  0  0  0
    8.3860   -0.8570   21.9550 C   0  0  0  0  0  0  0  0  0  0  0  0
    9.0780   -1.2960   23.1570 N   0  0  0  0  0  0  0  0  0  0  0  0
    6.9140   -2.5810   21.1230 N   0  0  0  0  0  0  0  0  0  0  0  0
    6.5990   -3.2980   22.4310 C   0  0  0  0  0  0  0  0  0  0  0  0
    7.5660   -3.1080   23.5000 C   0  0  0  0  0  0  0  0  0  0  0  0
    8.8310   -2.6090   23.1430 C   0  0  2  0  0  0  0  0  0  0  0  0
    8.9890   -2.9060   21.6740 C   0  0  0  0  0  0  0  0  0  0  0  0
    8.2320   -1.9340   21.0950 C   0  0  2  0  0  0  0  0  0  0  0  0
    9.8170   -5.4390   25.3240 C   0  0  0  0  0  0  0  0  0  0  0  0
    9.3920   -4.1060   25.1000 C   0  0  0  0  0  0  0  0  0  0  0  0
    8.1480   -3.6610   26.2800 S   0  0  0  0  0  0  0  0  0  0  0  0
    8.2280   -5.2280   27.0190 C   0  0  0  0  0  0  0  0  0  0  0  0
    9.1070   -6.1370   26.5090 C   0  0  0  0  0  0  0  0  0  0  0  0
   10.6520    0.4180   23.8090 C   0  0  0  0  0  0  0  0  0  0  0  0
   11.9280    0.9410   23.7610 C   0  0  0  0  0  0  0  0  0  0  0  0
   12.9790    0.3460   23.0860 C   0  0  0  0  0  0  0  0  0  0  0  0
   12.8690   -0.8390   22.3870 C   0  0  0  0  0  0  0  0  0  0  0  0
   11.4450   -1.4680   22.4030 C   0  0  0  0  0  0  0  0  0  0  0  0
   10.3110   -0.7620   23.1680 C   0  0  0  0  0  0  0  0  0  0  0  0
    4.7520    1.0700   19.9040 C   0  0  0  0  0  0  0  0  0  0  0  0
    4.2480    1.7080   18.8220 C   0  0  0  0  0  0  0  0  0  0  0  0
    5.0190    1.6030   17.6870 C   0  0  0  0  0  0  0  0  0  0  0  0
    6.2600    0.8430   17.7110 N   0  0  0  0  0  0  0  0  0  0  0  0
    6.9480    0.1590   18.6560 C   0  0  0  0  0  0  0  0  0  0  0  0
    5.9550    0.3810   19.8450 C   0  0  0  0  0  0  0  0  0  0  0  0
    7.4280    0.8050   20.5880 C   0  0  0  0  0  0  0  0  0  0  0  0
    7.2510   -0.3500   19.8420 C   0  0  0  0  0  0  0  0  0  0  0  0
  1  3  1  0
  2  3  2  0
  6  7  2  3
  7  8  1  0
  3  9  1  0
  9 10  1  0
 10 11  1  0
 12  4  1  1
  8 12  1  0
 11 12  1  0
 12 13  1  0
 14  7  1  1
  9 14  1  0
 13 14  1  0
  4 16  1  0
 15 16  2  0
 16 17  1  0
  5 18  1  0
 17 18  1  0
 15 19  1  0
 18 19  2  0
 20 21  2  0
 21 22  1  0
 22 23  2  0
 23 24  1  0
  8 25  1  0
 20 25  1  0
 24 25  2  0
 26 27  2  0
 27 28  1  0
 28 29  2  0
 29 30  1  0
 26 31  1  0
 30 31  2  0
  6 32  1  0
 30 33  1  0
 32 33  1  0
M  END
