x0434-x2581
     RDKit          3D

 34 38  0  0  0  0  0  0  0  0999 V2000
    9.3790   -2.5140   23.6000 C   0  0  0  0  0  0  0  0  0  0  0  0
    8.8310   -1.9390   22.4050 O   0  0  0  0  0  0  0  0  0  0  0  0
   10.0550    3.4460   22.0890 N   0  0  0  0  0  0  0  0  0  0  0  0
   11.2320    3.2110   24.0580 O   0  0  0  0  0  0  0  0  0  0  0  0
   10.9830    3.8040   23.0330 C   0  0  0  0  0  0  0  0  0  0  0  0
   11.6950    4.9820   22.7760 C   0  0  0  0  0  0  0  0  0  0  0  0
    7.2530   -0.2750   22.2060 N   0  0  0  0  0  0  0  0  0  0  0  0
    8.8130    1.4120   21.2260 N   0  0  0  0  0  0  0  0  0  0  0  0
    9.6630    1.9890   22.0880 C   0  0  0  0  0  0  0  0  0  0  0  0
   10.2410    1.2240   23.0400 C   0  0  0  0  0  0  0  0  0  0  0  0
    9.8970   -0.1120   23.0520 C   0  0  0  0  0  0  0  0  0  0  0  0
    8.7220   -0.5660   22.3470 C   0  0  1  0  0  0  0  0  0  0  0  0
    8.9540    0.0070   21.1940 C   0  0  0  0  0  0  0  0  0  0  0  0
    9.7600    6.6060   22.8220 C   0  0  0  0  0  0  0  0  0  0  0  0
    9.0970    7.7070   23.3270 C   0  0  0  0  0  0  0  0  0  0  0  0
    9.6870    8.5090   24.4870 C   0  0  0  0  0  0  0  0  0  0  0  0
   10.9250    8.0720   25.0070 C   0  0  0  0  0  0  0  0  0  0  0  0
   11.5220    6.9410   24.4260 C   0  0  0  0  0  0  0  0  0  0  0  0
   10.9870    6.1960   23.3540 C   0  0  0  0  0  0  0  0  0  0  0  0
    9.0350    9.6380   25.0120 C   0  0  0  0  0  0  0  0  0  0  0  0
    9.6180   10.3380   26.0610 C   0  0  0  0  0  0  0  0  0  0  0  0
   10.8450    9.8990   26.5770 C   0  0  0  0  0  0  0  0  0  0  0  0
   11.5070    8.7780   26.0680 C   0  0  0  0  0  0  0  0  0  0  0  0
    5.5860    0.9220   20.9120 C   0  0  0  0  0  0  0  0  0  0  0  0
    4.9530    1.3440   19.7360 C   0  0  0  0  0  0  0  0  0  0  0  0
    5.4510    0.8950   18.5420 C   0  0  0  0  0  0  0  0  0  0  0  0
    6.5070    0.0720   18.4360 N   0  0  0  0  0  0  0  0  0  0  0  0
    7.2510   -0.4410   19.6390 C   0  0  0  0  0  0  0  0  0  0  0  0
    6.7160    0.0530   20.9030 C   0  0  0  0  0  0  0  0  0  0  0  0
   10.2060   -0.4390   24.4850 C   0  0  0  0  0  0  0  0  0  0  0  0
   11.5780   -0.3800   24.8420 C   0  0  0  0  0  0  0  0  0  0  0  0
   12.5870   -0.0670   23.8930 C   0  0  0  0  0  0  0  0  0  0  0  0
   12.3040   -0.6530   22.6770 C   0  0  0  0  0  0  0  0  0  0  0  0
   10.9860   -0.6850   22.2820 C   0  0  0  0  0  0  0  0  0  0  0  0
  1  2  1  0
  3  5  1  0
  4  5  2  0
  5  6  1  0
  3  9  1  0
  8  9  1  0
  9 10  2  0
 11 10  1  0
 12  2  1  0
 12  7  1  1
 11 12  1  0
  8 13  1  0
 12 13  1  0
 14 15  2  0
 15 16  1  0
 16 17  2  0
 17 18  1  0
  6 19  1  0
 14 19  1  0
 18 19  2  0
 16 20  1  0
 20 21  2  0
 21 22  1  0
 17 23  1  0
 22 23  2  0
 24 25  2  0
 25 26  1  0
 26 27  2  0
 27 28  1  0
  7 29  1  0
 24 29  1  0
 28 29  2  0
 11 30  1  0
 30 31  2  0
 31 32  1  0
 32 33  1  0
 11 34  1  0
 33 34  2  0
M  END
