x0434-x1384
     RDKit          3D

 33 37  0  0  0  0  0  0  0  0999 V2000
    5.8260   -3.5520   21.8850 N   0  0  0  0  0  0  0  0  0  0  0  0
    7.6990   -4.3330   20.6340 C   0  0  0  0  0  0  0  0  0  0  0  0
    5.4380   -4.2410   19.7830 O   0  0  0  0  0  0  0  0  0  0  0  0
    6.2330   -4.0510   20.6960 C   0  0  0  0  0  0  0  0  0  0  0  0
    8.8680    1.1740   21.1480 O   0  0  0  0  0  0  0  0  0  0  0  0
    8.3580    0.1060   21.5140 C   0  0  0  0  0  0  0  0  0  0  0  0
    9.0600   -0.7550   22.3250 N   0  0  0  0  0  0  0  0  0  0  0  0
    7.0360   -0.2620   21.0990 N   0  0  0  0  0  0  0  0  0  0  0  0
    5.8490   -2.1200   21.9900 C   0  0  0  0  0  0  0  0  0  0  0  0
    6.8530   -1.7100   21.1280 C   0  0  0  0  0  0  0  0  0  0  0  0
   10.6880    0.5530   23.5110 C   0  0  0  0  0  0  0  0  0  0  0  0
   11.9420    0.8640   23.8570 C   0  0  0  0  0  0  0  0  0  0  0  0
   13.0280   -0.0250   23.2630 C   0  0  0  0  0  0  0  0  0  0  0  0
   12.7280   -1.0820   22.4290 C   0  0  0  0  0  0  0  0  0  0  0  0
   11.3980   -1.3420   22.1140 C   0  0  0  0  0  0  0  0  0  0  0  0
   10.4140   -0.5010   22.6720 C   0  0  0  0  0  0  0  0  0  0  0  0
    5.1950    1.1970   20.1620 C   0  0  0  0  0  0  0  0  0  0  0  0
    4.6770    1.7560   18.9910 C   0  0  0  0  0  0  0  0  0  0  0  0
    5.1630    1.6150   17.7140 C   0  0  0  0  0  0  0  0  0  0  0  0
    6.3440    0.7780   17.5770 N   0  0  0  0  0  0  0  0  0  0  0  0
    6.9000    0.1850   18.7600 C   0  0  0  0  0  0  0  0  0  0  0  0
    6.4590    0.3080   20.0660 C   0  0  0  0  0  0  0  0  0  0  0  0
    4.8740   -2.4790   26.9400 O   0  0  0  0  0  0  0  0  0  0  0  0
    4.2410   -3.4550   24.1340 C   0  0  2  0  0  0  0  0  0  0  0  0
    5.6060   -3.4290   24.1140 C   0  0  1  0  0  0  0  0  0  0  0  0
    4.8670   -4.1950   25.3530 C   0  0  2  0  0  0  0  0  0  0  0  0
    4.6570   -5.5940   25.1940 C   0  0  0  0  0  0  0  0  0  0  0  0
    3.9730   -5.7690   23.9880 C   0  0  0  0  0  0  0  0  0  0  0  0
    3.7260   -4.5370   23.3950 C   0  0  0  0  0  0  0  0  0  0  0  0
    3.9970   -3.3760   26.3830 C   0  0  2  0  0  0  0  0  0  0  0  0
    2.9550   -2.5620   25.5090 C   0  0  0  0  0  0  0  0  0  0  0  0
    3.9520   -3.3230   25.4670 C   0  0  0  0  0  0  0  0  0  0  0  0
    6.2920   -4.1420   23.0340 C   0  0  0  0  0  0  0  0  0  0  0  0
  1  4  1  0
  2  4  1  0
  3  4  2  0
  5  6  2  0
  6  7  1  0
  6  8  1  0
  1  9  1  0
  8 10  1  0
  9 10  1  0
 11 12  2  0
 12 13  1  0
 13 14  2  0
 14 15  1  0
  7 16  1  0
 11 16  1  0
 15 16  2  0
 17 18  2  0
 18 19  1  0
 19 20  2  0
 20 21  1  0
  8 22  1  0
 17 22  1  0
 21 22  2  0
 24 25  1  0
 24 26  1  0
 25 26  1  0
 26 27  1  6
 27 28  1  0
 24 29  1  6
 28 29  2  0
 30 23  1  6
 26 30  1  0
 30 31  1  0
 24 32  1  0
 31 32  2  0
  1 33  1  0
 25 33  1  6
M  END
