x0434-x2764
     RDKit          3D

 20 21  0  0  0  0  0  0  0  0999 V2000
    8.6510   -0.9620   21.6370 C   0  0  0  0  0  0  0  0  0  0  0  0
    7.3770   -1.1720   21.1070 C   0  0  0  0  0  0  0  0  0  0  0  0
    6.7710   -2.1960   21.4150 O   0  0  0  0  0  0  0  0  0  0  0  0
    9.1870   -2.1530   22.3510 C   0  0  0  0  0  0  0  0  0  0  0  0
    6.5420    1.2860   21.9920 O   0  0  0  0  0  0  0  0  0  0  0  0
    8.0740    4.2180   22.9240 N   0  0  0  0  0  0  0  0  0  0  0  0
    7.5160    2.0230   22.1600 C   0  0  0  0  0  0  0  0  0  0  0  0
    7.3560    3.4200   22.0580 C   0  0  0  0  0  0  0  0  0  0  0  0
    9.2100    0.1310   21.4970 O   0  0  0  0  0  0  0  0  0  0  0  0
   12.9110   -1.6060   22.5320 N   0  0  0  0  0  0  0  0  0  0  0  0
   11.6510   -1.8490   22.0270 C   0  0  0  0  0  0  0  0  0  0  0  0
   10.5940   -1.8830   22.8990 C   0  0  0  0  0  0  0  0  0  0  0  0
   10.9940   -1.6570   24.1940 C   0  0  0  0  0  0  0  0  0  0  0  0
   12.7070   -1.4180   24.2040 S   0  0  0  0  0  0  0  0  0  0  0  0
    6.4070   -0.5680   18.8690 C   0  0  0  0  0  0  0  0  0  0  0  0
    5.7400    0.2870   18.0320 C   0  0  0  0  0  0  0  0  0  0  0  0
    5.2630    1.6400   18.5330 C   0  0  0  0  0  0  0  0  0  0  0  0
    5.5340    1.9660   19.8600 C   0  0  0  0  0  0  0  0  0  0  0  0
    6.2260    1.0470   20.6750 C   0  0  0  0  0  0  0  0  0  0  0  0
    6.6570   -0.2130   20.1930 C   0  0  0  0  0  0  0  0  0  0  0  0
  1  2  1  0
  2  3  2  0
  1  4  1  0
  5  7  1  0
  6  8  3  0
  7  8  1  0
  1  9  2  0
 10 11  2  0
  4 12  1  0
 11 12  1  0
 12 13  2  0
 10 14  1  0
 13 14  1  0
 15 16  2  0
 16 17  1  0
 17 18  2  0
  5 19  1  0
 18 19  1  0
  2 20  1  0
 15 20  1  0
 19 20  2  0
M  END
