x0434-x0426
     RDKit          3D

 28 30  0  0  0  0  0  0  0  0999 V2000
    2.4290    1.8410   23.7100 C   0  0  0  0  0  0  0  0  0  0  0  0
    2.3820    0.6080   23.6410 O   0  0  0  0  0  0  0  0  0  0  0  0
    3.4350    2.6400   23.1620 N   0  0  0  0  0  0  0  0  0  0  0  0
    4.3280    1.9140   22.3880 C   0  0  0  0  0  0  0  0  0  0  0  0
    3.9040    0.7640   21.4660 C   0  0  0  0  0  0  0  0  0  0  0  0
    2.7740    4.2860   25.1870 F   0  0  0  0  0  0  0  0  0  0  0  0
    8.5860    1.2090   21.0380 O   0  0  0  0  0  0  0  0  0  0  0  0
    8.1240   -0.0740   21.5070 C   0  0  0  0  0  0  0  0  0  0  0  0
    9.0330   -0.9710   22.2850 N   0  0  0  0  0  0  0  0  0  0  0  0
    6.7090   -0.5510   21.2330 N   0  0  0  0  0  0  0  0  0  0  0  0
    1.5430    3.7520   25.1640 C   0  0  0  0  0  0  0  0  0  0  0  0
    1.3140    2.5380   24.4470 C   0  0  0  0  0  0  0  0  0  0  0  0
    0.0200    2.0350   24.4600 C   0  0  0  0  0  0  0  0  0  0  0  0
   -1.0780    2.7960   25.2290 C   0  0  0  0  0  0  0  0  0  0  0  0
   -0.8280    3.9750   25.9180 C   0  0  0  0  0  0  0  0  0  0  0  0
    0.4650    4.5140   25.9300 C   0  0  0  0  0  0  0  0  0  0  0  0
    6.1530    0.0350   20.1490 C   0  0  0  0  0  0  0  0  0  0  0  0
    6.9220   -0.0150   18.9420 C   0  0  0  0  0  0  0  0  0  0  0  0
    6.4150    0.6150   17.7230 N   0  0  0  0  0  0  0  0  0  0  0  0
    5.1760    1.1630   18.0670 C   0  0  0  0  0  0  0  0  0  0  0  0
    4.2910    1.3280   19.0450 C   0  0  0  0  0  0  0  0  0  0  0  0
    4.7480    0.7320   20.2160 C   0  0  0  0  0  0  0  0  0  0  0  0
   10.5750    0.7040   22.9460 C   0  0  0  0  0  0  0  0  0  0  0  0
   11.8400    1.2390   23.1850 C   0  0  0  0  0  0  0  0  0  0  0  0
   13.0400    0.3260   22.9440 C   0  0  0  0  0  0  0  0  0  0  0  0
   12.7910   -1.0780   22.4690 C   0  0  0  0  0  0  0  0  0  0  0  0
   11.4840   -1.5130   22.2540 C   0  0  0  0  0  0  0  0  0  0  0  0
   10.3860   -0.6240   22.4900 C   0  0  0  0  0  0  0  0  0  0  0  0
  1  2  2  0
  1  3  1  0
  3  4  1  0
  4  5  1  0
  7  8  2  0
  8  9  1  0
  8 10  1  0
  6 11  1  0
  1 12  1  0
 11 12  2  0
 12 13  1  0
 13 14  2  0
 14 15  1  0
 11 16  1  0
 15 16  2  0
 10 17  1  0
 17 18  2  0
 18 19  1  0
 19 20  2  0
 20 21  1  0
  5 22  1  0
 17 22  1  0
 21 22  2  0
 23 24  2  0
 24 25  1  0
 25 26  2  0
 26 27  1  0
  9 28  1  0
 23 28  1  0
 27 28  2  0
M  END
