x0434-x0107
     RDKit          3D

 17 18  0  0  0  0  0  0  0  0999 V2000
    8.8080    0.7610   21.3240 O   0  0  0  0  0  0  0  0  0  0  0  0
    8.4250   -0.3880   21.5350 C   0  0  0  0  0  0  0  0  0  0  0  0
    9.0600   -1.2890   22.3460 N   0  0  0  0  0  0  0  0  0  0  0  0
    7.2510   -0.8940   20.9640 N   0  0  0  0  0  0  0  0  0  0  0  0
    5.0510    0.9220   21.7840 C   0  0  0  0  0  0  0  0  0  0  0  0
   10.5780    0.4830   23.5120 C   0  0  0  0  0  0  0  0  0  0  0  0
   11.8510    0.9510   23.7460 C   0  0  0  0  0  0  0  0  0  0  0  0
   12.9820    0.2710   23.1960 C   0  0  0  0  0  0  0  0  0  0  0  0
   12.8350   -0.9050   22.4030 C   0  0  0  0  0  0  0  0  0  0  0  0
   11.5880   -1.4280   22.1260 C   0  0  0  0  0  0  0  0  0  0  0  0
   10.3640   -0.7120   22.6940 C   0  0  0  0  0  0  0  0  0  0  0  0
    5.5010    0.7500   20.3420 C   0  0  0  0  0  0  0  0  0  0  0  0
    4.8610    1.4760   19.3520 C   0  0  0  0  0  0  0  0  0  0  0  0
    5.2360    1.3690   18.0070 C   0  0  0  0  0  0  0  0  0  0  0  0
    6.2100    0.5750   17.6210 N   0  0  0  0  0  0  0  0  0  0  0  0
    6.9020   -0.2140   18.6800 C   0  0  0  0  0  0  0  0  0  0  0  0
    6.5310   -0.1040   19.9910 C   0  0  0  0  0  0  0  0  0  0  0  0
  1  2  2  0
  2  3  1  0
  2  4  1  0
  6  7  2  0
  7  8  1  0
  8  9  2  0
  9 10  1  0
  3 11  1  0
  6 11  1  0
 10 11  2  0
  5 12  1  0
 12 13  2  0
 13 14  1  0
 14 15  2  0
 15 16  1  0
  4 17  1  0
 12 17  1  0
 16 17  2  0
M  END
