x0434-x0104
     RDKit          3D

 26 28  0  0  0  0  0  0  0  0999 V2000
    9.0260    6.6090   22.6030 C   0  0  0  0  0  0  0  0  0  0  0  0
   10.1350    6.2510   23.3760 C   0  0  0  0  0  0  0  0  0  0  0  0
    9.9800    6.4340   24.5800 O   0  0  0  0  0  0  0  0  0  0  0  0
   11.2630    5.7280   22.6550 N   0  0  0  0  0  0  0  0  0  0  0  0
   12.3330    5.0790   23.4220 C   0  0  0  0  0  0  0  0  0  0  0  0
   12.8810    3.9660   22.7910 C   0  0  0  0  0  0  0  0  0  0  0  0
   13.6260   -2.1630   22.4200 F   0  0  0  0  0  0  0  0  0  0  0  0
    8.7100    0.8690   21.3860 O   0  0  0  0  0  0  0  0  0  0  0  0
    8.2870   -0.2190   21.7780 C   0  0  0  0  0  0  0  0  0  0  0  0
    8.9390   -0.9090   22.8050 N   0  0  0  0  0  0  0  0  0  0  0  0
    7.0960   -0.8020   21.1570 N   0  0  0  0  0  0  0  0  0  0  0  0
   12.0470    2.6440   22.8630 C   0  0  0  0  0  0  0  0  0  0  0  0
   10.7090    2.9990   23.0440 C   0  0  0  0  0  0  0  0  0  0  0  0
    9.8690    1.9410   23.0710 N   0  0  0  0  0  0  0  0  0  0  0  0
   10.6490    0.8480   22.9060 C   0  0  0  0  0  0  0  0  0  0  0  0
   12.1510    1.1180   22.7850 C   0  0  0  0  0  0  0  0  0  0  0  0
   10.3360   -0.4810   22.8060 C   0  0  0  0  0  0  0  0  0  0  0  0
   11.4070   -1.5550   22.6410 C   0  0  0  0  0  0  0  0  0  0  0  0
   12.7410   -1.2090   22.5680 C   0  0  0  0  0  0  0  0  0  0  0  0
   13.1100    0.1360   22.6360 C   0  0  0  0  0  0  0  0  0  0  0  0
    5.2550    0.5140   20.3680 C   0  0  0  0  0  0  0  0  0  0  0  0
    4.6340    1.1750   19.2960 C   0  0  0  0  0  0  0  0  0  0  0  0
    5.2150    1.1470   18.0310 C   0  0  0  0  0  0  0  0  0  0  0  0
    6.3610    0.4970   17.7840 N   0  0  0  0  0  0  0  0  0  0  0  0
    6.9220   -0.1250   18.8290 C   0  0  0  0  0  0  0  0  0  0  0  0
    6.4590   -0.1700   20.1350 C   0  0  0  0  0  0  0  0  0  0  0  0
  1  2  1  0
  2  3  2  0
  2  4  1  0
  4  5  1  0
  5  6  1  0
  8  9  2  0
  9 10  1  0
  9 11  1  0
  6 12  1  0
 12 13  2  0
 13 14  1  0
 14 15  1  0
 12 16  1  0
 15 16  2  0
 10 17  1  0
 15 17  1  0
 17 18  2  0
  7 19  1  0
 18 19  1  0
 16 20  1  0
 19 20  2  0
 21 22  2  0
 22 23  1  0
 23 24  2  0
 24 25  1  0
 11 26  1  0
 21 26  1  0
 25 26  2  0
M  END
