x0434-x0771
     RDKit          3D

 38 41  0  0  0  0  0  0  0  0999 V2000
    0.7070   -1.3560   26.2380 C   0  0  0  0  0  0  0  0  0  0  0  0
    4.6350   -6.8630   25.7630 O   0  0  0  0  0  0  0  0  0  0  0  0
    6.0610   -5.0810   26.8540 O   0  0  0  0  0  0  0  0  0  0  0  0
    5.9280   -4.3770   19.8260 O   0  0  0  0  0  0  0  0  0  0  0  0
    1.9160   -6.1490   24.9090 C   0  0  0  0  0  0  0  0  0  0  0  0
    6.8410   -4.1150   20.6090 C   0  0  0  0  0  0  0  0  0  0  0  0
    8.2410   -3.6230   20.2290 C   0  0  0  0  0  0  0  0  0  0  0  0
    5.1150   -5.4970   25.8400 S   0  0  0  0  0  0  0  0  0  0  0  0
    8.6340    0.8460   21.2940 O   0  0  0  0  0  0  0  0  0  0  0  0
    8.2550   -0.2840   21.6320 C   0  0  0  0  0  0  0  0  0  0  0  0
    9.0760   -1.1100   22.4000 N   0  0  0  0  0  0  0  0  0  0  0  0
    7.0010   -0.6450   21.1950 N   0  0  0  0  0  0  0  0  0  0  0  0
    6.2450   -2.8310   22.3100 C   0  0  0  0  0  0  0  0  0  0  0  0
    6.7840   -2.0790   21.2400 C   0  0  0  0  0  0  0  0  0  0  0  0
    1.7520   -2.4240   26.1030 C   0  0  0  0  0  0  0  0  0  0  0  0
    1.3650   -3.8060   25.5600 C   0  0  0  0  0  0  0  0  0  0  0  0
    2.3370   -4.7790   25.4520 C   0  0  0  0  0  0  0  0  0  0  0  0
    3.7770   -4.4390   25.8820 C   0  0  0  0  0  0  0  0  0  0  0  0
    4.0950   -3.1590   26.3670 C   0  0  0  0  0  0  0  0  0  0  0  0
    3.0870   -2.1840   26.4680 C   0  0  0  0  0  0  0  0  0  0  0  0
    6.4990   -4.2150   22.0850 C   0  0  0  0  0  0  0  0  0  0  0  0
    5.3210   -4.9680   22.0480 C   0  0  0  0  0  0  0  0  0  0  0  0
    5.2650   -5.8510   23.1120 C   0  0  0  0  0  0  0  0  0  0  0  0
    5.8030   -5.1610   24.3180 N   0  0  0  0  0  0  0  0  0  0  0  0
    7.0940   -4.7610   24.2710 C   0  0  0  0  0  0  0  0  0  0  0  0
    7.5330   -4.6130   22.9450 C   0  0  0  0  0  0  0  0  0  0  0  0
   10.5880    0.4230   23.4830 C   0  0  0  0  0  0  0  0  0  0  0  0
   11.8690    0.8750   23.7540 C   0  0  0  0  0  0  0  0  0  0  0  0
   12.9530    0.2030   23.2170 C   0  0  0  0  0  0  0  0  0  0  0  0
   12.7540   -0.9140   22.4240 C   0  0  0  0  0  0  0  0  0  0  0  0
   11.4830   -1.3780   22.1410 C   0  0  0  0  0  0  0  0  0  0  0  0
   10.3920   -0.6980   22.6730 C   0  0  0  0  0  0  0  0  0  0  0  0
    5.1160    0.7250   20.3370 C   0  0  0  0  0  0  0  0  0  0  0  0
    4.5570    1.3620   19.1930 C   0  0  0  0  0  0  0  0  0  0  0  0
    5.2120    1.2680   17.9430 C   0  0  0  0  0  0  0  0  0  0  0  0
    6.3560    0.5910   17.7640 N   0  0  0  0  0  0  0  0  0  0  0  0
    6.9010   -0.0440   18.9160 C   0  0  0  0  0  0  0  0  0  0  0  0
    6.3130    0.0180   20.1750 C   0  0  0  0  0  0  0  0  0  0  0  0
  4  6  2  0
  6  7  1  0
  2  8  2  0
  3  8  2  0
  9 10  2  0
 10 11  1  0
 10 12  1  0
 12 14  1  0
 13 14  1  0
  1 15  1  0
 15 16  2  0
  5 17  1  0
 16 17  1  0
  8 18  1  0
 17 18  2  0
 18 19  1  0
 15 20  1  0
 19 20  2  0
 21  6  1  0
 13 21  1  0
 21 22  1  0
 22 23  1  0
  8 24  1  0
 23 24  1  0
 24 25  1  0
 21 26  1  0
 25 26  1  0
 27 28  2  0
 28 29  1  0
 29 30  2  0
 30 31  1  0
 11 32  1  0
 27 32  1  0
 31 32  2  0
 33 34  2  0
 34 35  1  0
 35 36  2  0
 36 37  1  0
 12 38  1  0
 33 38  1  0
 37 38  2  0
M  END
