x0434-x0830
     RDKit          3D

 29 33  0  0  0  0  0  0  0  0999 V2000
    7.6820   -3.7940   19.8040 C   0  0  0  0  0  0  0  0  0  0  0  0
    5.4970   -3.2900   19.2690 O   0  0  0  0  0  0  0  0  0  0  0  0
    6.4720   -2.9940   20.0060 C   0  0  0  0  0  0  0  0  0  0  0  0
    9.8500   -2.5160   23.6490 C   0  0  0  0  0  0  0  0  0  0  0  0
    8.2630    0.6380   22.8700 O   0  0  0  0  0  0  0  0  0  0  0  0
    8.3290   -0.4650   21.9960 C   0  0  0  0  0  0  0  0  0  0  0  0
    6.5660   -2.0400   21.0020 N   0  0  0  0  0  0  0  0  0  0  0  0
    6.4970   -2.6510   22.3470 C   0  0  0  0  0  0  0  0  0  0  0  0
    7.6850   -3.2190   22.8780 C   0  0  0  0  0  0  0  0  0  0  0  0
    8.9840   -2.5700   22.5470 N   0  0  0  0  0  0  0  0  0  0  0  0
    9.0320   -1.5600   21.6280 C   0  0  1  0  0  0  0  0  0  0  0  0
    7.6650   -1.0450   20.9310 C   0  0  2  0  0  0  0  0  0  0  0  0
   12.1330   -2.0590   22.7700 C   0  0  0  0  0  0  0  0  0  0  0  0
   13.1570   -1.1900   22.4730 C   0  0  0  0  0  0  0  0  0  0  0  0
   13.0440    0.1630   22.7420 C   0  0  0  0  0  0  0  0  0  0  0  0
   11.8820    0.6380   23.3130 C   0  0  0  0  0  0  0  0  0  0  0  0
   10.8430   -0.2400   23.6340 C   0  0  0  0  0  0  0  0  0  0  0  0
   10.9690   -1.5750   23.3530 C   0  0  0  0  0  0  0  0  0  0  0  0
   11.7960    1.9990   23.5330 C   0  0  0  0  0  0  0  0  0  0  0  0
   10.6630    2.5540   24.0900 C   0  0  0  0  0  0  0  0  0  0  0  0
    9.5900    1.7630   24.4690 C   0  0  0  0  0  0  0  0  0  0  0  0
    9.6840    0.2420   24.2250 C   0  0  0  0  0  0  0  0  0  0  0  0
    5.4440    1.3420   20.1640 C   0  0  0  0  0  0  0  0  0  0  0  0
    4.6730    1.6760   19.1010 C   0  0  0  0  0  0  0  0  0  0  0  0
    5.1500    1.2210   17.8970 C   0  0  0  0  0  0  0  0  0  0  0  0
    6.2670    0.5000   17.7440 N   0  0  0  0  0  0  0  0  0  0  0  0
    7.1240    0.1040   18.7160 C   0  0  0  0  0  0  0  0  0  0  0  0
    6.6170    0.5940   19.9550 C   0  0  0  0  0  0  0  0  0  0  0  0
    7.3080    0.2210   20.2180 C   0  0  0  0  0  0  0  0  0  0  0  0
  1  3  1  0
  2  3  2  0
  5  6  2  0
  3  7  1  0
  7  8  1  0
  8  9  1  0
  4 10  1  0
  9 10  1  0
 11  6  1  1
 10 11  1  0
  6 12  1  0
  7 12  1  0
 11 12  1  0
 13 14  2  0
 14 15  1  0
 15 16  2  0
 16 17  1  0
  4 18  1  0
 13 18  1  0
 17 18  2  0
 16 19  1  0
 19 20  2  0
 20 21  1  0
 17 22  1  0
 21 22  2  0
 23 24  2  0
 24 25  1  0
 25 26  2  0
 26 27  1  0
 23 28  1  0
 27 28  2  0
 12 29  1  6
 27 29  1  0
M  END
