x0434-x2908
     RDKit          3D

 18 19  0  0  0  0  0  0  0  0999 V2000
    4.8320    1.1660   21.6060 C   0  0  0  0  0  0  0  0  0  0  0  0
    8.5110    1.3750   21.0300 O   0  0  0  0  0  0  0  0  0  0  0  0
   13.1680   -2.6220   21.5060 Cl  0  0  0  0  0  0  0  0  0  0  0  0
    7.0060   -0.5650   21.0030 N   0  0  0  0  0  0  0  0  0  0  0  0
    8.6810   -0.5200   22.4420 N   0  0  0  0  0  0  0  0  0  0  0  0
    8.0570    0.1490   21.4630 C   0  0  0  0  0  0  0  0  0  0  0  0
    6.2370    0.6170   17.5290 N   0  0  0  0  0  0  0  0  0  0  0  0
    6.7820   -0.0100   18.5770 C   0  0  0  0  0  0  0  0  0  0  0  0
    6.3700    0.1360   19.8730 C   0  0  0  0  0  0  0  0  0  0  0  0
    5.3090    0.9760   20.2030 C   0  0  0  0  0  0  0  0  0  0  0  0
    4.7370    1.6270   19.1050 C   0  0  0  0  0  0  0  0  0  0  0  0
    5.2030    1.4430   17.8040 C   0  0  0  0  0  0  0  0  0  0  0  0
   10.6690    0.6810   23.1170 C   0  0  0  0  0  0  0  0  0  0  0  0
   12.1800    0.8850   23.2620 C   0  0  0  0  0  0  0  0  0  0  0  0
   12.9850   -0.1090   22.7880 C   0  0  0  0  0  0  0  0  0  0  0  0
   12.3060   -1.3350   22.1550 C   0  0  0  0  0  0  0  0  0  0  0  0
   10.9370   -1.4530   22.0650 C   0  0  0  0  0  0  0  0  0  0  0  0
   10.1330   -0.4580   22.5380 C   0  0  0  0  0  0  0  0  0  0  0  0
  2  6  2  0
  4  6  1  0
  5  6  1  0
  7  8  2  0
  4  9  1  0
  8  9  1  0
  1 10  1  0
  9 10  2  0
 10 11  1  0
  7 12  1  0
 11 12  2  0
 13 14  2  0
 14 15  1  0
  3 16  1  0
 15 16  2  0
 16 17  1  0
  5 18  1  0
 13 18  1  0
 17 18  2  0
M  END
