x0434-x1418
     RDKit          3D

 25 28  0  0  0  0  0  0  0  0999 V2000
    7.4710   -3.1020   18.7030 C   0  0  0  0  0  0  0  0  0  0  0  0
    5.6420   -4.2010   19.7970 O   0  0  0  0  0  0  0  0  0  0  0  0
    6.5630   -3.3640   19.9190 C   0  0  0  0  0  0  0  0  0  0  0  0
   10.0820   -2.6160   23.5090 C   0  0  0  0  0  0  0  0  0  0  0  0
    7.6490    0.8650   21.3830 O   0  0  0  0  0  0  0  0  0  0  0  0
    7.8880   -0.4970   21.7130 C   0  0  0  0  0  0  0  0  0  0  0  0
    8.2950   -0.9860   23.0340 N   0  0  0  0  0  0  0  0  0  0  0  0
    6.8450   -2.6300   21.0930 N   0  0  0  0  0  0  0  0  0  0  0  0
    6.6670   -3.2060   22.3550 C   0  0  0  0  0  0  0  0  0  0  0  0
    7.8970   -3.3240   23.0550 C   0  0  0  0  0  0  0  0  0  0  0  0
    8.7910   -2.2990   22.7780 C   0  0  2  0  0  0  0  0  0  0  0  0
    9.0430   -2.2370   21.2820 C   0  0  0  0  0  0  0  0  0  0  0  0
    7.8780   -1.6040   20.8620 C   0  0  2  0  0  0  0  0  0  0  0  0
   12.2140   -1.3960   22.6580 C   0  0  0  0  0  0  0  0  0  0  0  0
   11.0290   -1.4920   23.4810 C   0  0  0  0  0  0  0  0  0  0  0  0
   10.8120   -0.0450   24.4990 S   0  0  0  0  0  0  0  0  0  0  0  0
   12.2510    0.6050   23.7980 C   0  0  0  0  0  0  0  0  0  0  0  0
   12.9760   -0.0570   22.8730 C   0  0  0  0  0  0  0  0  0  0  0  0
    4.5550    1.2100   20.1110 C   0  0  0  0  0  0  0  0  0  0  0  0
    4.5430    1.7500   18.8500 C   0  0  0  0  0  0  0  0  0  0  0  0
    5.4120    1.4030   17.8390 C   0  0  0  0  0  0  0  0  0  0  0  0
    6.3770    0.4740   18.0140 N   0  0  0  0  0  0  0  0  0  0  0  0
    6.4610   -0.1180   19.2420 C   0  0  0  0  0  0  0  0  0  0  0  0
    5.5740    0.1430   20.4990 C   0  0  0  0  0  0  0  0  0  0  0  0
    7.5110   -1.1480   19.4170 C   0  0  0  0  0  0  0  0  0  0  0  0
  1  3  1  0
  2  3  2  0
  5  6  2  0
  6  7  1  0
  3  8  1  0
  8  9  1  0
  9 10  1  0
 11  4  1  1
  7 11  1  0
 10 11  1  0
 11 12  1  0
  6 13  1  0
  8 13  1  0
 12 13  1  0
  4 15  1  0
 14 15  2  0
 15 16  1  0
 16 17  1  0
 14 18  1  0
 17 18  2  0
 19 20  2  0
 20 21  1  0
 21 22  2  0
 22 23  1  0
 19 24  1  0
 23 24  2  0
 13 25  1  6
 23 25  1  0
M  END
