x0434-x0946
     RDKit          3D

 23 24  0  0  0  0  0  0  0  0999 V2000
    8.6790    0.8810   21.2820 O   0  0  0  0  0  0  0  0  0  0  0  0
    8.3940   -0.2970   21.4900 C   0  0  0  0  0  0  0  0  0  0  0  0
    9.2220   -1.1800   22.1240 N   0  0  0  0  0  0  0  0  0  0  0  0
    7.1550   -0.8130   21.0600 N   0  0  0  0  0  0  0  0  0  0  0  0
   10.4340    0.4590   23.2370 C   0  0  0  0  0  0  0  0  0  0  0  0
   11.9490    0.6750   23.5000 C   0  0  0  0  0  0  0  0  0  0  0  0
   13.0040   -0.0920   23.1200 C   0  0  0  0  0  0  0  0  0  0  0  0
   12.8730   -1.2420   22.4110 C   0  0  0  0  0  0  0  0  0  0  0  0
   11.6170   -1.6650   22.0480 C   0  0  0  0  0  0  0  0  0  0  0  0
   10.5560   -0.8530   22.4510 C   0  0  0  0  0  0  0  0  0  0  0  0
    5.1500    0.6270   20.3030 C   0  0  0  0  0  0  0  0  0  0  0  0
    4.5570    1.3130   19.2520 C   0  0  0  0  0  0  0  0  0  0  0  0
    5.1380    1.3370   17.9960 C   0  0  0  0  0  0  0  0  0  0  0  0
    6.4200    0.6260   17.6980 N   0  0  0  0  0  0  0  0  0  0  0  0
    6.8940    0.0010   18.7800 C   0  0  0  0  0  0  0  0  0  0  0  0
    6.3560   -0.0410   20.0510 C   0  0  0  0  0  0  0  0  0  0  0  0
    9.4030    6.1170   22.7540 N   0  0  0  0  0  0  0  0  0  0  0  0
   10.1250    5.8400   25.2820 O   0  0  0  0  0  0  0  0  0  0  0  0
   11.6440    5.5890   23.3000 O   0  0  0  0  0  0  0  0  0  0  0  0
   10.3170    5.6340   23.8720 S   0  0  0  0  0  0  0  0  0  0  0  0
   10.6830    1.7420   24.0380 C   0  0  0  0  0  0  0  0  0  0  0  0
   10.7260    2.9180   23.3190 C   0  0  0  0  0  0  0  0  0  0  0  0
    9.9240    3.8960   23.8590 C   0  0  0  0  0  0  0  0  0  0  0  0
  1  2  2  0
  2  3  1  0
  2  4  1  0
  5  6  2  0
  6  7  1  0
  7  8  2  0
  8  9  1  0
  3 10  1  0
  5 10  1  0
  9 10  2  0
 11 12  2  0
 12 13  1  0
 13 14  2  0
 14 15  1  0
  4 16  1  0
 11 16  1  0
 15 16  2  0
 20 17  1  0
 18 20  2  0
 19 20  2  0
  5 21  1  0
 21 22  1  0
 20 23  1  0
 22 23  1  0
M  END
