x0434-x0708
     RDKit          3D

 26 28  0  0  0  0  0  0  0  0999 V2000
    6.5500   -4.7940   21.2150 N   0  0  0  0  0  0  0  0  0  0  0  0
    7.2710   -3.1900   19.3390 C   0  0  0  0  0  0  0  0  0  0  0  0
    5.1020   -4.0150   19.6160 O   0  0  0  0  0  0  0  0  0  0  0  0
    6.2320   -4.0100   20.0810 C   0  0  0  0  0  0  0  0  0  0  0  0
    7.5870   -4.3340   22.0210 N   0  0  0  0  0  0  0  0  0  0  0  0
    6.2900   -2.7440   22.8980 O   0  0  0  0  0  0  0  0  0  0  0  0
    7.3970   -3.1130   22.5310 C   0  0  0  0  0  0  0  0  0  0  0  0
    9.2130    1.1710   21.4060 O   0  0  0  0  0  0  0  0  0  0  0  0
    8.7710   -0.1500   21.7880 C   0  0  0  0  0  0  0  0  0  0  0  0
    9.4350   -1.0720   22.8870 N   0  0  0  0  0  0  0  0  0  0  0  0
    7.8040   -0.5690   21.2250 N   0  0  0  0  0  0  0  0  0  0  0  0
    8.6330   -2.2180   22.6440 C   0  0  0  0  0  0  0  0  0  0  0  0
    9.9480   -2.1870   22.3280 C   0  0  0  0  0  0  0  0  0  0  0  0
   10.9990   -1.3530   22.4890 C   0  0  0  0  0  0  0  0  0  0  0  0
   10.4020   -0.1410   23.2810 C   0  0  0  0  0  0  0  0  0  0  0  0
    8.6800   -0.3840   23.6040 S   0  0  0  0  0  0  0  0  0  0  0  0
   12.5010   -1.2700   22.1630 C   0  0  0  0  0  0  0  0  0  0  0  0
   13.1180   -0.0980   22.6150 C   0  0  0  0  0  0  0  0  0  0  0  0
   12.4950    0.9420   23.3140 C   0  0  0  0  0  0  0  0  0  0  0  0
   11.1620    0.9550   23.6650 C   0  0  0  0  0  0  0  0  0  0  0  0
    5.6830    0.9070   20.6020 C   0  0  0  0  0  0  0  0  0  0  0  0
    4.9470    1.4080   19.5070 C   0  0  0  0  0  0  0  0  0  0  0  0
    5.2150    1.1910   18.1610 C   0  0  0  0  0  0  0  0  0  0  0  0
    6.3680    0.3560   17.8640 N   0  0  0  0  0  0  0  0  0  0  0  0
    7.0930   -0.1420   18.8760 C   0  0  0  0  0  0  0  0  0  0  0  0
    6.8870    0.0440   20.2370 C   0  0  0  0  0  0  0  0  0  0  0  0
  1  4  1  0
  2  4  1  0
  3  4  2  0
  1  5  1  0
  5  7  1  0
  6  7  2  0
  8  9  2  0
  9 10  1  0
  9 11  1  0
  7 12  1  0
 10 13  1  0
 12 13  2  0
 13 14  1  0
 14 15  2  0
 12 16  1  0
 15 16  1  0
 14 17  1  0
 17 18  2  0
 18 19  1  0
 15 20  1  0
 19 20  2  0
 21 22  2  0
 22 23  1  0
 23 24  2  0
 24 25  1  0
 11 26  1  0
 21 26  1  0
 25 26  2  0
M  END
