x0434-x2754
     RDKit          3D

 36 39  0  0  0  0  0  0  0  0999 V2000
    4.8950   -3.2020   25.2990 C   0  0  0  0  0  0  0  0  0  0  0  0
    3.4740   -3.2820   25.2390 O   0  0  0  0  0  0  0  0  0  0  0  0
    5.6630   -2.8380   26.3930 N   0  0  0  0  0  0  0  0  0  0  0  0
    5.2760   -4.7520   19.9430 O   0  0  0  0  0  0  0  0  0  0  0  0
    6.1970   -4.0360   20.3140 C   0  0  0  0  0  0  0  0  0  0  0  0
    6.9920   -3.2420   19.2940 C   0  0  0  0  0  0  0  0  0  0  0  0
    4.8500   -2.2200   27.4870 C   0  0  0  0  0  0  0  0  0  0  0  0
    8.8160    1.2140   21.1450 O   0  0  0  0  0  0  0  0  0  0  0  0
    8.3780   -0.1200   21.5070 C   0  0  0  0  0  0  0  0  0  0  0  0
    9.0700   -0.8960   22.4070 N   0  0  0  0  0  0  0  0  0  0  0  0
    7.1980   -0.7740   20.9520 N   0  0  0  0  0  0  0  0  0  0  0  0
    6.4040   -1.6180   21.8340 C   0  0  0  0  0  0  0  0  0  0  0  0
    6.5590   -3.9810   21.6520 N   0  0  0  0  0  0  0  0  0  0  0  0
    7.1140   -2.7460   22.2750 C   0  0  2  0  0  0  0  0  0  0  0  0
    6.8860   -3.1470   23.6040 C   0  0  0  0  0  0  0  0  0  0  0  0
    5.4350   -3.5640   23.9370 C   0  0  1  0  0  0  0  0  0  0  0  0
    5.2690   -4.8750   23.5390 C   0  0  0  0  0  0  0  0  0  0  0  0
    6.2450   -5.0730   22.3840 C   0  0  0  0  0  0  0  0  0  0  0  0
    7.2490   -4.8100   26.3230 C   0  0  0  0  0  0  0  0  0  0  0  0
    8.4260   -5.4160   26.8120 C   0  0  0  0  0  0  0  0  0  0  0  0
    9.1670   -4.7520   27.7860 C   0  0  0  0  0  0  0  0  0  0  0  0
    8.7330   -3.5390   28.2440 C   0  0  0  0  0  0  0  0  0  0  0  0
    7.5920   -2.9500   27.7700 C   0  0  0  0  0  0  0  0  0  0  0  0
    6.8100   -3.5510   26.7980 C   0  0  0  0  0  0  0  0  0  0  0  0
   10.6270    0.5640   23.3850 C   0  0  0  0  0  0  0  0  0  0  0  0
   11.9180    0.9710   23.6660 C   0  0  0  0  0  0  0  0  0  0  0  0
   12.9830    0.2090   23.2050 C   0  0  0  0  0  0  0  0  0  0  0  0
   12.7530   -0.9500   22.4810 C   0  0  0  0  0  0  0  0  0  0  0  0
   11.4310   -1.3210   22.2210 C   0  0  0  0  0  0  0  0  0  0  0  0
   10.3320   -0.5810   22.6570 C   0  0  0  0  0  0  0  0  0  0  0  0
    5.2970    0.6610   20.2440 C   0  0  0  0  0  0  0  0  0  0  0  0
    4.6560    1.3690   19.2070 C   0  0  0  0  0  0  0  0  0  0  0  0
    5.2140    1.3550   17.9060 C   0  0  0  0  0  0  0  0  0  0  0  0
    6.3540    0.6560   17.6720 N   0  0  0  0  0  0  0  0  0  0  0  0
    6.9440   -0.0190   18.6940 C   0  0  0  0  0  0  0  0  0  0  0  0
    6.4810   -0.0540   19.9880 C   0  0  0  0  0  0  0  0  0  0  0  0
  1  2  2  0
  1  3  1  0
  4  5  2  0
  5  6  1  0
  3  7  1  0
  8  9  2  0
  9 10  1  0
  9 11  1  0
 11 12  1  0
  5 13  1  0
 14 12  1  6
 13 14  1  0
 14 15  1  0
 16  1  1  1
 15 16  1  0
 16 17  1  0
 13 18  1  0
 17 18  1  0
 19 20  2  0
 20 21  1  0
 21 22  2  0
 22 23  1  0
  3 24  1  0
 19 24  1  0
 23 24  2  0
 25 26  2  0
 26 27  1  0
 27 28  2  0
 28 29  1  0
 10 30  1  0
 25 30  1  0
 29 30  2  0
 31 32  2  0
 32 33  1  0
 33 34  2  0
 34 35  1  0
 11 36  1  0
 31 36  1  0
 35 36  2  0
M  END
