x0434-x0736
     RDKit          3D

 32 35  0  0  0  0  0  0  0  0999 V2000
    7.4480   -2.9900   18.9890 C   0  0  0  0  0  0  0  0  0  0  0  0
    5.5130   -4.0460   19.7750 O   0  0  0  0  0  0  0  0  0  0  0  0
    6.5240   -3.3850   20.1160 C   0  0  0  0  0  0  0  0  0  0  0  0
    6.0960   -2.8860   25.1410 O   0  0  0  0  0  0  0  0  0  0  0  0
    7.2690   -2.6700   24.8250 C   0  0  0  0  0  0  0  0  0  0  0  0
    8.8430   -1.0440   20.4860 O   0  0  0  0  0  0  0  0  0  0  0  0
    7.9230   -0.9380   21.5270 C   0  0  1  0  0  0  0  0  0  0  0  0
    8.6640   -0.3170   22.5230 N   0  0  0  0  0  0  0  0  0  0  0  0
    6.7090   -0.2100   21.1800 N   0  0  0  0  0  0  0  0  0  0  0  0
    6.8310   -3.1080   21.5020 N   0  0  0  0  0  0  0  0  0  0  0  0
    7.5710   -2.1250   22.1390 C   0  0  1  0  0  0  0  0  0  0  0  0
    8.6360   -2.6030   22.8370 C   0  0  0  0  0  0  0  0  0  0  0  0
    7.8540   -3.3700   23.7810 N   0  0  0  0  0  0  0  0  0  0  0  0
    7.1040   -4.5740   23.3410 C   0  0  0  0  0  0  0  0  0  0  0  0
    6.2180   -3.8960   22.4500 C   0  0  0  0  0  0  0  0  0  0  0  0
    8.5620   -0.4730   24.9450 O   0  0  0  0  0  0  0  0  0  0  0  0
    8.0690   -1.6330   25.5490 C   0  0  0  0  0  0  0  0  0  0  0  0
    8.4450   -1.6280   26.8660 C   0  0  0  0  0  0  0  0  0  0  0  0
    9.2350   -0.4000   27.1250 C   0  0  0  0  0  0  0  0  0  0  0  0
    9.2600    0.2520   25.9030 C   0  0  0  0  0  0  0  0  0  0  0  0
   10.6140    0.7490   23.4930 C   0  0  0  0  0  0  0  0  0  0  0  0
   11.9710    0.8850   23.7060 C   0  0  0  0  0  0  0  0  0  0  0  0
   12.8510    0.0030   23.1130 C   0  0  0  0  0  0  0  0  0  0  0  0
   12.3650   -1.0240   22.3020 C   0  0  0  0  0  0  0  0  0  0  0  0
   10.9700   -1.1550   22.0890 C   0  0  0  0  0  0  0  0  0  0  0  0
   10.0700   -0.2530   22.6900 C   0  0  0  0  0  0  0  0  0  0  0  0
    5.1440    1.0480   20.1350 C   0  0  0  0  0  0  0  0  0  0  0  0
    4.6160    1.6250   19.0050 C   0  0  0  0  0  0  0  0  0  0  0  0
    5.2540    1.4190   17.7970 C   0  0  0  0  0  0  0  0  0  0  0  0
    6.3570    0.6940   17.6060 N   0  0  0  0  0  0  0  0  0  0  0  0
    6.9190    0.0730   18.8120 C   0  0  0  0  0  0  0  0  0  0  0  0
    6.2950    0.2790   20.0320 C   0  0  0  0  0  0  0  0  0  0  0  0
  1  3  1  0
  2  3  2  0
  4  5  2  0
  7  6  1  6
  7  8  1  0
  7  9  1  0
  3 10  1  0
  7 11  1  0
 10 11  1  0
 11 12  1  6
  5 13  1  0
 12 13  1  0
 13 14  1  0
 10 15  1  0
 14 15  1  0
  5 17  1  0
 16 17  1  0
 17 18  2  0
 18 19  1  0
 16 20  1  0
 19 20  2  0
 21 22  2  0
 22 23  1  0
 23 24  2  0
 24 25  1  0
  8 26  1  0
 21 26  1  0
 25 26  2  0
 27 28  2  0
 28 29  1  0
 29 30  2  0
 30 31  1  0
  9 32  1  0
 27 32  1  0
 31 32  2  0
M  END
