x0434-x1375
     RDKit          3D

 36 39  0  0  0  0  0  0  0  0999 V2000
    5.8280   -4.8670   20.0660 O   0  0  0  0  0  0  0  0  0  0  0  0
    6.6540   -4.4690   20.9350 C   0  0  0  0  0  0  0  0  0  0  0  0
    8.1340   -4.1540   20.7080 C   0  0  0  0  0  0  0  0  0  0  0  0
    6.3050   -4.1610   22.4420 C   0  0  2  0  0  0  0  0  0  0  0  0
    2.3580   -6.9030   24.1330 O   0  0  0  0  0  0  0  0  0  0  0  0
    4.5900   -7.5390   24.9250 O   0  0  0  0  0  0  0  0  0  0  0  0
   10.8810   -4.5850   25.9640 F   0  0  0  0  0  0  0  0  0  0  0  0
    8.6070    0.7840   21.1870 O   0  0  0  0  0  0  0  0  0  0  0  0
    8.2120   -0.3050   21.6090 C   0  0  0  0  0  0  0  0  0  0  0  0
    9.0450   -1.0960   22.3660 N   0  0  0  0  0  0  0  0  0  0  0  0
    6.8270   -0.7120   21.2810 N   0  0  0  0  0  0  0  0  0  0  0  0
    5.9170   -2.7120   22.3020 C   0  0  0  0  0  0  0  0  0  0  0  0
    6.7370   -2.0990   21.3000 C   0  0  0  0  0  0  0  0  0  0  0  0
    8.0570   -3.1300   23.9840 C   0  0  0  0  0  0  0  0  0  0  0  0
    9.1550   -3.1840   24.8420 C   0  0  0  0  0  0  0  0  0  0  0  0
    9.8360   -4.5290   25.1380 C   0  0  0  0  0  0  0  0  0  0  0  0
    9.3420   -5.6700   24.5300 C   0  0  0  0  0  0  0  0  0  0  0  0
    8.1340   -5.5250   23.5990 C   0  0  0  0  0  0  0  0  0  0  0  0
    7.5410   -4.2780   23.3660 C   0  0  0  0  0  0  0  0  0  0  0  0
    4.7050   -4.4390   24.2070 C   0  0  0  0  0  0  0  0  0  0  0  0
    5.3440   -5.1220   23.1580 C   0  0  1  0  0  0  0  0  0  0  0  0
    4.4870   -5.9680   22.4270 C   0  0  0  0  0  0  0  0  0  0  0  0
    3.7720   -6.5930   24.2270 S   0  0  0  0  0  0  0  0  0  0  0  0
    3.8370   -5.1100   24.9170 C   0  0  0  0  0  0  0  0  0  0  0  0
   10.5950    0.4230   23.4650 C   0  0  0  0  0  0  0  0  0  0  0  0
   11.8850    0.8470   23.7310 C   0  0  0  0  0  0  0  0  0  0  0  0
   12.9620    0.1490   23.1870 C   0  0  0  0  0  0  0  0  0  0  0  0
   12.7640   -0.9710   22.3830 C   0  0  0  0  0  0  0  0  0  0  0  0
   11.4670   -1.3920   22.1160 C   0  0  0  0  0  0  0  0  0  0  0  0
   10.3760   -0.6900   22.6550 C   0  0  0  0  0  0  0  0  0  0  0  0
    5.0560    0.6830   20.2790 C   0  0  0  0  0  0  0  0  0  0  0  0
    4.5460    1.3340   19.1630 C   0  0  0  0  0  0  0  0  0  0  0  0
    5.2310    1.2590   17.9470 C   0  0  0  0  0  0  0  0  0  0  0  0
    6.3710    0.5730   17.8020 N   0  0  0  0  0  0  0  0  0  0  0  0
    6.8490   -0.0550   18.8960 C   0  0  0  0  0  0  0  0  0  0  0  0
    6.2460   -0.0390   20.1710 C   0  0  0  0  0  0  0  0  0  0  0  0
  1  2  2  0
  2  3  1  0
  4  2  1  0
  8  9  2  0
  9 10  1  0
  9 11  1  0
  4 12  1  6
 11 13  1  0
 12 13  1  0
 14 15  2  0
  7 16  1  0
 15 16  1  0
 16 17  2  0
 17 18  1  0
  4 19  1  0
 14 19  1  0
 18 19  2  0
  4 21  1  0
 21 20  1  1
 21 22  1  0
 23  5  1  0
  6 23  1  0
 22 23  1  0
 20 24  2  0
 23 24  1  0
 25 26  2  0
 26 27  1  0
 27 28  2  0
 28 29  1  0
 10 30  1  0
 25 30  1  0
 29 30  2  0
 31 32  2  0
 32 33  1  0
 33 34  2  0
 34 35  1  0
 11 36  1  0
 31 36  1  0
 35 36  2  0
M  END
