x0464-x0390
     RDKit          3D

 26 30  0  0  0  0  0  0  0  0999 V2000
   22.7050   17.6500    3.0140 O   0  0  0  0  0  0  0  0  0  0  0  0
   22.9470   16.3030    5.6000 C   0  0  1  0  0  0  0  0  0  0  0  0
   23.5790   15.7220    4.4230 N   0  0  0  0  0  0  0  0  0  0  0  0
   22.5040   15.4540    8.4200 C   0  0  0  0  0  0  0  0  0  0  0  0
   19.6160   13.8840    7.2180 O   0  0  0  0  0  0  0  0  0  0  0  0
   22.0850   18.2240    4.0790 C   0  0  0  0  0  0  0  0  0  0  0  0
   22.1960   17.5880    5.3540 C   0  0  0  0  0  0  0  0  0  0  0  0
   21.5320   18.2450    6.4040 C   0  0  0  0  0  0  0  0  0  0  0  0
   20.7990   19.4320    6.2440 C   0  0  0  0  0  0  0  0  0  0  0  0
   20.7100   20.0180    4.9810 C   0  0  0  0  0  0  0  0  0  0  0  0
   21.3420   19.4280    3.9060 C   0  0  0  0  0  0  0  0  0  0  0  0
   25.2230   14.1040    5.1360 N   0  0  0  0  0  0  0  0  0  0  0  0
   23.8420   14.3180    4.6580 C   0  0  0  0  0  0  0  0  0  0  0  0
   23.4640   13.3150    3.5610 N   0  0  0  0  0  0  0  0  0  0  0  0
   24.5460   12.5080    3.5340 C   0  0  0  0  0  0  0  0  0  0  0  0
   25.5000   12.9470    4.4020 C   0  0  0  0  0  0  0  0  0  0  0  0
   26.7140   12.3010    4.5700 C   0  0  0  0  0  0  0  0  0  0  0  0
   27.0240   11.1600    3.8520 C   0  0  0  0  0  0  0  0  0  0  0  0
   26.1400   10.6160    2.9290 C   0  0  0  0  0  0  0  0  0  0  0  0
   24.7890   11.3640    2.7600 C   0  0  0  0  0  0  0  0  0  0  0  0
   21.4710   15.1260    7.3760 C   0  0  1  0  0  0  0  0  0  0  0  0
   22.0750   15.1440    6.0150 N   0  0  0  0  0  0  0  0  0  0  0  0
   22.9430   14.1320    5.8430 C   0  0  1  0  0  0  0  0  0  0  0  0
   22.2150   12.8120    5.9510 C   0  0  0  0  0  0  0  0  0  0  0  0
   21.4660   12.7370    7.1190 C   0  0  0  0  0  0  0  0  0  0  0  0
   20.9290   13.8680    7.7430 C   0  0  2  0  0  0  0  0  0  0  0  0
  2  3  1  0
  1  6  1  0
  2  7  1  6
  6  7  2  0
  7  8  1  0
  8  9  2  0
  9 10  1  0
  6 11  1  0
 10 11  2  0
  3 13  1  0
 13 12  1  0
 13 14  1  0
 14 15  2  0
 12 16  2  0
 15 16  1  0
 16 17  1  0
 17 18  2  0
 18 19  1  0
 15 20  1  0
 19 20  2  0
 21  4  1  1
  2 22  1  0
 21 22  1  0
 13 23  1  0
 22 23  1  0
 23 24  1  6
 24 25  1  0
 26  5  1  6
 21 26  1  0
 25 26  1  0
M  END
