x0540-x1348
     RDKit          3D

 36 39  0  0  0  0  0  0  0  0999 V2000
    6.8600   -3.7460   21.3790 N   0  0  0  0  0  0  0  0  0  0  0  0
    7.8420   -5.2080   27.7650 C   0  0  0  0  0  0  0  0  0  0  0  0
    7.4460   -4.6300   26.5140 O   0  0  0  0  0  0  0  0  0  0  0  0
    5.2880   -4.3110   19.7960 O   0  0  0  0  0  0  0  0  0  0  0  0
    6.3590   -3.7890   20.0780 C   0  0  0  0  0  0  0  0  0  0  0  0
    7.2830   -3.1600   19.0490 C   0  0  0  0  0  0  0  0  0  0  0  0
    2.8330    1.3430   24.1840 O   0  0  0  0  0  0  0  0  0  0  0  0
    2.9250    2.2600   23.3810 C   0  0  0  0  0  0  0  0  0  0  0  0
    4.0220    2.4920   22.5860 N   0  0  0  0  0  0  0  0  0  0  0  0
    5.0620    1.5930   22.5990 C   0  0  0  0  0  0  0  0  0  0  0  0
    4.7190    0.4440   21.8670 C   0  0  0  0  0  0  0  0  0  0  0  0
    1.9550    3.2030   23.1460 N   0  0  0  0  0  0  0  0  0  0  0  0
    7.2350   -2.4420   21.8840 C   0  0  0  0  0  0  0  0  0  0  0  0
    6.0440   -1.7690   22.1480 C   0  0  0  0  0  0  0  0  0  0  0  0
    6.0070   -0.3610   21.5960 C   0  0  1  0  0  0  0  0  0  0  0  0
    6.4100   -5.3410   25.9220 C   0  0  0  0  0  0  0  0  0  0  0  0
    6.1430   -5.2250   24.5380 C   0  0  0  0  0  0  0  0  0  0  0  0
    5.0920   -5.9390   23.8870 C   0  0  0  0  0  0  0  0  0  0  0  0
    4.3130   -6.7740   24.6890 C   0  0  0  0  0  0  0  0  0  0  0  0
    4.5600   -6.8920   26.0550 C   0  0  0  0  0  0  0  0  0  0  0  0
    5.5900   -6.1940   26.6760 C   0  0  0  0  0  0  0  0  0  0  0  0
    6.8580   -4.4300   23.7420 N   0  0  0  0  0  0  0  0  0  0  0  0
    6.3280   -4.5160   22.4000 C   0  0  0  0  0  0  0  0  0  0  0  0
    5.0230   -5.5850   22.2050 S   0  0  0  0  0  0  0  0  0  0  0  0
    6.4180   -0.3550   20.1320 C   0  0  0  0  0  0  0  0  0  0  0  0
    6.6700   -0.2170   18.7280 C   0  0  0  0  0  0  0  0  0  0  0  0
    6.1210    0.5870   17.6270 N   0  0  0  0  0  0  0  0  0  0  0  0
    5.1630    1.3890   17.9690 C   0  0  0  0  0  0  0  0  0  0  0  0
    4.7780    1.4040   19.2420 C   0  0  0  0  0  0  0  0  0  0  0  0
    5.3520    0.6110   20.2120 C   0  0  0  0  0  0  0  0  0  0  0  0
    0.5370    4.6690   24.5090 C   0  0  0  0  0  0  0  0  0  0  0  0
   -0.7110    4.8560   25.0890 C   0  0  0  0  0  0  0  0  0  0  0  0
   -1.8370    4.5920   24.3010 C   0  0  0  0  0  0  0  0  0  0  0  0
   -1.7900    3.3070   23.7880 C   0  0  0  0  0  0  0  0  0  0  0  0
   -0.4850    2.7930   23.1730 C   0  0  0  0  0  0  0  0  0  0  0  0
    0.7390    3.2490   23.9570 C   0  0  0  0  0  0  0  0  0  0  0  0
  2  3  1  0
  1  5  1  0
  4  5  2  0
  5  6  1  0
  7  8  2  0
  8  9  1  0
  9 10  1  0
 10 11  1  0
  8 12  1  0
  1 13  1  0
 13 14  1  0
 15 11  1  6
 14 15  1  0
  3 16  1  0
 16 17  2  0
 17 18  1  0
 18 19  2  0
 19 20  1  0
 16 21  1  0
 20 21  2  0
 17 22  1  0
  1 23  1  0
 22 23  2  0
 18 24  1  0
 23 24  1  0
 15 25  1  0
 25 26  2  0
 26 27  1  0
 27 28  2  0
 28 29  1  0
 25 30  1  0
 29 30  2  0
 31 32  1  0
 32 33  1  0
 33 34  1  0
 34 35  1  0
 12 36  1  0
 31 36  1  0
 35 36  1  0
M  END
