x0540-x2649
     RDKit          3D

 30 32  0  0  0  0  0  0  0  0999 V2000
    6.8330   -0.7680   20.9740 N   0  0  0  0  0  0  0  0  0  0  0  0
    7.8810   -1.2460   23.9110 C   0  0  0  0  0  0  0  0  0  0  0  0
    8.5700    0.7680   21.3810 O   0  0  0  0  0  0  0  0  0  0  0  0
   13.2480   -2.5970   21.1230 Cl  0  0  0  0  0  0  0  0  0  0  0  0
    8.5800   -1.2490   22.5850 C   0  0  1  0  0  0  0  0  0  0  0  0
    8.0190   -0.3100   21.6090 C   0  0  0  0  0  0  0  0  0  0  0  0
    4.3890    0.7050   21.4140 C   0  0  0  0  0  0  0  0  0  0  0  0
    2.8860    1.4990   24.4250 O   0  0  0  0  0  0  0  0  0  0  0  0
    2.9600    2.3500   23.5410 C   0  0  0  0  0  0  0  0  0  0  0  0
    4.1010    2.6740   22.8470 N   0  0  0  0  0  0  0  0  0  0  0  0
    5.0450    1.6260   22.4390 C   0  0  0  0  0  0  0  0  0  0  0  0
    1.9200    3.1290   23.0900 N   0  0  0  0  0  0  0  0  0  0  0  0
    6.3260    0.7600   17.6160 N   0  0  0  0  0  0  0  0  0  0  0  0
    5.2000    1.4650   17.7950 C   0  0  0  0  0  0  0  0  0  0  0  0
    4.5260    1.4840   19.0060 C   0  0  0  0  0  0  0  0  0  0  0  0
    5.0650    0.6920   20.1860 C   0  0  0  0  0  0  0  0  0  0  0  0
    6.2380   -0.0220   19.9630 C   0  0  0  0  0  0  0  0  0  0  0  0
    6.7740    0.0710   18.6830 C   0  0  0  0  0  0  0  0  0  0  0  0
   10.5450    0.1950   23.3320 C   0  0  0  0  0  0  0  0  0  0  0  0
   11.9190    0.4420   23.3390 C   0  0  0  0  0  0  0  0  0  0  0  0
   12.8060   -0.3970   22.6800 C   0  0  0  0  0  0  0  0  0  0  0  0
   12.3210   -1.5160   21.9880 C   0  0  0  0  0  0  0  0  0  0  0  0
   10.9840   -1.7970   21.9640 C   0  0  0  0  0  0  0  0  0  0  0  0
   10.0290   -0.8990   22.6710 C   0  0  0  0  0  0  0  0  0  0  0  0
    0.6720    4.6550   24.5580 C   0  0  0  0  0  0  0  0  0  0  0  0
   -0.7180    4.9700   25.1230 C   0  0  0  0  0  0  0  0  0  0  0  0
   -1.8420    4.5130   24.4320 C   0  0  0  0  0  0  0  0  0  0  0  0
   -1.7560    3.2780   23.8170 C   0  0  0  0  0  0  0  0  0  0  0  0
   -0.4300    3.1180   23.0470 C   0  0  0  0  0  0  0  0  0  0  0  0
    0.6850    3.2870   23.8610 C   0  0  0  0  0  0  0  0  0  0  0  0
  5  2  1  1
  1  6  1  0
  3  6  2  0
  5  6  1  0
  8  9  2  0
  9 10  1  0
  7 11  1  0
 10 11  1  0
  9 12  1  0
 13 14  2  0
 14 15  1  0
  7 16  1  0
 15 16  2  0
  1 17  1  0
 16 17  1  0
 13 18  1  0
 17 18  2  0
 19 20  2  0
 20 21  1  0
  4 22  1  0
 21 22  2  0
 22 23  1  0
  5 24  1  0
 19 24  1  0
 23 24  2  0
 25 26  1  0
 26 27  1  0
 27 28  1  0
 28 29  1  0
 12 30  1  0
 25 30  1  0
 29 30  1  0
M  END
