x0540-x0995
     RDKit          3D

 19 20  0  0  0  0  0  0  0  0999 V2000
    2.8890    1.5110   24.3290 O   0  0  0  0  0  0  0  0  0  0  0  0
    2.9860    2.3250   23.4120 C   0  0  0  0  0  0  0  0  0  0  0  0
    4.0660    2.3490   22.7000 N   0  0  0  0  0  0  0  0  0  0  0  0
    5.0270    1.2550   22.7390 C   0  0  0  0  0  0  0  0  0  0  0  0
    4.7740    0.1840   21.7280 C   0  0  0  0  0  0  0  0  0  0  0  0
    1.9350    3.2040   23.1550 N   0  0  0  0  0  0  0  0  0  0  0  0
    4.0250    2.2220   18.5420 N   0  0  0  0  0  0  0  0  0  0  0  0
    6.3710   -0.5590   20.0870 C   0  0  0  0  0  0  0  0  0  0  0  0
    6.7830   -0.3940   18.8230 C   0  0  0  0  0  0  0  0  0  0  0  0
    6.1900    0.4960   17.9860 N   0  0  0  0  0  0  0  0  0  0  0  0
    5.0560    1.4720   18.1100 C   0  0  0  0  0  0  0  0  0  0  0  0
    4.8250    1.1000   19.4740 C   0  0  0  0  0  0  0  0  0  0  0  0
    5.3310    0.2290   20.4430 C   0  0  0  0  0  0  0  0  0  0  0  0
    0.6180    4.6980   24.5700 C   0  0  0  0  0  0  0  0  0  0  0  0
   -0.6370    4.9060   25.1550 C   0  0  0  0  0  0  0  0  0  0  0  0
   -1.7070    4.5760   24.3080 C   0  0  0  0  0  0  0  0  0  0  0  0
   -1.6930    3.2860   23.7460 C   0  0  0  0  0  0  0  0  0  0  0  0
   -0.4240    2.9030   23.2820 C   0  0  0  0  0  0  0  0  0  0  0  0
    0.7370    3.2800   23.9940 C   0  0  0  0  0  0  0  0  0  0  0  0
  1  2  2  0
  2  3  1  0
  3  4  1  0
  4  5  1  0
  2  6  1  0
  8  9  2  0
  9 10  1  0
  7 11  1  0
 10 11  2  0
 11 12  1  0
  5 13  1  0
  8 13  1  0
 12 13  2  0
 14 15  1  0
 15 16  1  0
 16 17  1  0
 17 18  1  0
  6 19  1  0
 14 19  1  0
 18 19  1  0
M  END
