x0540-x0397
     RDKit          3D

 28 30  0  0  0  0  0  0  0  0999 V2000
    7.9480   -1.4810   20.8870 C   0  0  0  0  0  0  0  0  0  0  0  0
    6.8270   -2.0330   20.1210 N   0  0  0  0  0  0  0  0  0  0  0  0
    6.8060   -1.6190   18.8040 C   0  0  0  0  0  0  0  0  0  0  0  0
    3.8300    2.4660   19.5660 C   0  0  0  0  0  0  0  0  0  0  0  0
    6.1200   -3.1900   20.5020 C   0  0  0  0  0  0  0  0  0  0  0  0
    5.4600   -3.9100   19.7320 O   0  0  0  0  0  0  0  0  0  0  0  0
    6.2530   -3.4850   21.9060 N   0  0  0  0  0  0  0  0  0  0  0  0
    5.0960    0.1160   19.6530 C   0  0  0  0  0  0  0  0  0  0  0  0
    6.1200   -0.3520   18.7120 C   0  0  0  0  0  0  0  0  0  0  0  0
    6.3250    0.5850   17.7560 N   0  0  0  0  0  0  0  0  0  0  0  0
    5.4870    1.6760   18.0120 O   0  0  0  0  0  0  0  0  0  0  0  0
    4.7260    1.4780   19.1300 C   0  0  0  0  0  0  0  0  0  0  0  0
    6.5790   -5.4360   23.1890 C   0  0  0  0  0  0  0  0  0  0  0  0
    5.7550   -4.6200   22.4430 C   0  0  0  0  0  0  0  0  0  0  0  0
    5.9720   -5.9230   21.8570 C   0  0  0  0  0  0  0  0  0  0  0  0
    2.9660    1.5190   24.3830 O   0  0  0  0  0  0  0  0  0  0  0  0
    2.8850    2.3340   23.2010 C   0  0  0  0  0  0  0  0  0  0  0  0
    3.7520    2.1900   22.1280 N   0  0  0  0  0  0  0  0  0  0  0  0
    4.9650    1.6230   22.2650 C   0  0  0  0  0  0  0  0  0  0  0  0
    5.0530    0.2290   22.2730 C   0  0  0  0  0  0  0  0  0  0  0  0
    1.9350    3.3220   23.0370 N   0  0  0  0  0  0  0  0  0  0  0  0
    0.7180    4.7450   24.5160 C   0  0  0  0  0  0  0  0  0  0  0  0
   -0.6490    4.9990   25.2150 C   0  0  0  0  0  0  0  0  0  0  0  0
   -1.8740    4.3240   24.5120 C   0  0  0  0  0  0  0  0  0  0  0  0
   -1.5350    3.1180   23.6030 C   0  0  0  0  0  0  0  0  0  0  0  0
   -0.3060    3.1470   22.9370 C   0  0  0  0  0  0  0  0  0  0  0  0
    0.7960    3.3800   23.7930 C   0  0  0  0  0  0  0  0  0  0  0  0
    3.0870    1.9680   20.8220 C   0  0  0  0  0  0  0  0  0  0  0  0
  1  2  1  0
  2  3  1  0
  2  5  1  0
  5  6  2  0
  5  7  1  0
  3  9  1  0
  8  9  1  0
  9 10  2  0
 10 11  1  0
  4 12  1  0
  8 12  2  0
 11 12  1  0
  7 14  1  0
 13 14  1  0
 13 15  1  0
 14 15  1  0
 16 17  2  0
 17 18  1  0
 18 19  1  0
 19 20  1  0
 17 21  1  0
 22 23  1  0
 23 24  1  0
 24 25  1  0
 25 26  1  0
 21 27  1  0
 22 27  1  0
 26 27  1  0
  4 28  1  0
 18 28  1  0
M  END
