x0540-x2193
     RDKit          3D

 36 39  0  0  0  0  0  0  0  0999 V2000
    2.8970    1.4780   24.3810 O   0  0  0  0  0  0  0  0  0  0  0  0
    3.0620    2.3900   23.3110 C   0  0  0  0  0  0  0  0  0  0  0  0
    4.2830    2.3660   22.4840 N   0  0  0  0  0  0  0  0  0  0  0  0
    5.1040    1.2620   22.6590 C   0  0  1  0  0  0  0  0  0  0  0  0
    4.5450    0.4720   21.7770 C   0  0  0  0  0  0  0  0  0  0  0  0
    1.9910    3.2700   23.1430 N   0  0  0  0  0  0  0  0  0  0  0  0
   10.9590    2.4810   23.2740 C   0  0  0  0  0  0  0  0  0  0  0  0
    9.4200    1.8080   21.2530 O   0  0  0  0  0  0  0  0  0  0  0  0
    8.2570    2.5730   23.2180 N   0  0  0  0  0  0  0  0  0  0  0  0
    9.4880    1.8180   22.6860 S   0  0  2  0  0  0  0  0  0  0  0  0
    6.0310    1.9000   23.3110 C   0  0  0  0  0  0  0  0  0  0  0  0
    7.1250    2.4780   22.4360 C   0  0  0  0  0  0  0  0  0  0  0  0
    6.2830   -0.4170   20.0570 C   0  0  0  0  0  0  0  0  0  0  0  0
    6.7590   -0.3520   18.7390 C   0  0  0  0  0  0  0  0  0  0  0  0
    6.2400    0.4440   17.7790 N   0  0  0  0  0  0  0  0  0  0  0  0
    5.1960    1.2170   18.1220 C   0  0  0  0  0  0  0  0  0  0  0  0
    4.6390    1.2330   19.4070 C   0  0  0  0  0  0  0  0  0  0  0  0
    5.1830    0.4070   20.4080 C   0  0  0  0  0  0  0  0  0  0  0  0
    0.6890    4.6360   24.5230 C   0  0  0  0  0  0  0  0  0  0  0  0
   -0.5360    4.9250   25.1400 C   0  0  0  0  0  0  0  0  0  0  0  0
   -1.8380    4.5770   24.4070 C   0  0  0  0  0  0  0  0  0  0  0  0
   -1.8370    3.2880   23.5550 C   0  0  0  0  0  0  0  0  0  0  0  0
   -0.4140    2.6520   23.3500 C   0  0  0  0  0  0  0  0  0  0  0  0
    0.8120    3.3180   24.0510 C   0  0  0  0  0  0  0  0  0  0  0  0
    9.3850    0.1590   23.3120 C   0  0  0  0  0  0  0  0  0  0  0  0
    9.1490    0.0090   24.6810 C   0  0  0  0  0  0  0  0  0  0  0  0
    9.0500   -1.2930   25.1440 C   0  0  0  0  0  0  0  0  0  0  0  0
    9.1740   -2.4080   24.3300 C   0  0  0  0  0  0  0  0  0  0  0  0
    9.4210   -2.2480   22.9570 C   0  0  0  0  0  0  0  0  0  0  0  0
    9.5250   -0.9510   22.4540 C   0  0  0  0  0  0  0  0  0  0  0  0
    8.8780   -5.9650   26.1070 N   0  0  0  0  0  0  0  0  0  0  0  0
    8.0380   -5.0090   26.5640 C   0  0  0  0  0  0  0  0  0  0  0  0
    8.1300   -3.7730   25.9370 C   0  0  0  0  0  0  0  0  0  0  0  0
    9.0530   -3.6510   24.9520 N   0  0  0  0  0  0  0  0  0  0  0  0
    9.5020   -4.7630   24.3450 C   0  0  0  0  0  0  0  0  0  0  0  0
    9.0220   -5.9210   24.8000 C   0  0  0  0  0  0  0  0  0  0  0  0
  1  2  2  0
  2  3  1  0
  3  4  1  0
  4  5  1  6
  2  6  1  0
 10  7  1  6
  8 10  2  0
  9 10  2  0
  4 11  1  0
  9 12  1  0
 11 12  1  0
 13 14  2  0
 14 15  1  0
 15 16  2  0
 16 17  1  0
  5 18  1  0
 13 18  1  0
 17 18  2  0
 19 20  1  0
 20 21  1  0
 21 22  1  0
 22 23  1  0
  6 24  1  0
 19 24  1  0
 23 24  1  0
 10 25  1  0
 25 26  2  0
 26 27  1  0
 27 28  2  0
 28 29  1  0
 25 30  1  0
 29 30  2  0
 31 32  1  0
 32 33  1  0
 28 34  1  0
 33 34  1  0
 34 35  1  0
 31 36  1  0
 35 36  1  0
M  END
