x0540-x1334
     RDKit          3D

 35 38  0  0  0  0  0  0  0  0999 V2000
    2.8630    1.4130   24.6000 O   0  0  0  0  0  0  0  0  0  0  0  0
    3.0620    2.1590   23.4200 C   0  0  0  0  0  0  0  0  0  0  0  0
    4.2260    1.8440   22.5540 N   0  0  0  0  0  0  0  0  0  0  0  0
    5.1550    0.9510   23.0970 C   0  0  0  0  0  0  0  0  0  0  0  0
    5.3540   -0.2210   22.4690 C   0  0  0  0  0  0  0  0  0  0  0  0
    2.0740    3.1360   23.2060 N   0  0  0  0  0  0  0  0  0  0  0  0
    7.2750   -3.0050   18.8640 C   0  0  0  0  0  0  0  0  0  0  0  0
    5.3820   -4.1680   19.7560 O   0  0  0  0  0  0  0  0  0  0  0  0
    7.4630   -5.6980   28.4030 Cl  0  0  0  0  0  0  0  0  0  0  0  0
    6.2830   -3.3440   19.9550 C   0  0  0  0  0  0  0  0  0  0  0  0
    9.3910   -3.0370   23.8890 C   0  0  0  0  0  0  0  0  0  0  0  0
    6.4400   -0.2490   21.5390 C   0  0  2  0  0  0  0  0  0  0  0  0
    6.0760    0.1970   20.2620 C   0  0  0  0  0  0  0  0  0  0  0  0
    6.7970    0.0390   19.0730 C   0  0  0  0  0  0  0  0  0  0  0  0
    6.3730    0.5350   17.8600 N   0  0  0  0  0  0  0  0  0  0  0  0
    5.1990    1.2020   17.8260 C   0  0  0  0  0  0  0  0  0  0  0  0
    4.3870    1.4100   18.9330 C   0  0  0  0  0  0  0  0  0  0  0  0
    4.7910    0.9240   20.1530 C   0  0  0  0  0  0  0  0  0  0  0  0
    0.8510    4.5950   24.4620 C   0  0  0  0  0  0  0  0  0  0  0  0
   -0.4660    5.0830   25.0820 C   0  0  0  0  0  0  0  0  0  0  0  0
   -1.7720    4.5860   24.4280 C   0  0  0  0  0  0  0  0  0  0  0  0
   -1.6160    3.2680   23.5900 C   0  0  0  0  0  0  0  0  0  0  0  0
   -0.1740    2.7250   23.3120 C   0  0  0  0  0  0  0  0  0  0  0  0
    0.9350    3.2680   23.9950 C   0  0  0  0  0  0  0  0  0  0  0  0
    6.4050   -2.7490   21.2130 N   0  0  0  0  0  0  0  0  0  0  0  0
    7.2440   -1.5460   21.3980 C   0  0  2  0  0  0  0  0  0  0  0  0
    8.3230   -1.7710   22.2970 C   0  0  0  0  0  0  0  0  0  0  0  0
    8.2100   -2.6820   23.2830 N   0  0  0  0  0  0  0  0  0  0  0  0
    7.4800   -3.7490   22.9000 C   0  0  0  0  0  0  0  0  0  0  0  0
    6.2330   -3.5370   22.3070 C   0  0  0  0  0  0  0  0  0  0  0  0
    9.8210   -5.2360   25.2340 C   0  0  0  0  0  0  0  0  0  0  0  0
    9.1710   -4.0420   25.0010 C   0  0  0  0  0  0  0  0  0  0  0  0
    7.9700   -3.7830   26.2130 S   0  0  0  0  0  0  0  0  0  0  0  0
    8.3310   -5.2380   27.0010 C   0  0  0  0  0  0  0  0  0  0  0  0
    9.3480   -5.9230   26.3720 C   0  0  0  0  0  0  0  0  0  0  0  0
  1  2  2  0
  2  3  1  0
  3  4  1  0
  4  5  1  0
  2  6  1  0
  7 10  1  0
  8 10  2  0
 12  5  1  1
 12 13  1  0
 13 14  2  0
 14 15  1  0
 15 16  2  0
 16 17  1  0
 13 18  1  0
 17 18  2  0
 19 20  1  0
 20 21  1  0
 21 22  1  0
 22 23  1  0
  6 24  1  0
 19 24  1  0
 23 24  1  0
 10 25  1  0
 12 26  1  0
 25 26  1  0
 26 27  1  1
 11 28  1  0
 27 28  1  0
 28 29  1  0
 25 30  1  0
 29 30  1  0
 11 32  1  0
 31 32  2  0
 32 33  1  0
  9 34  1  0
 33 34  1  0
 31 35  1  0
 34 35  2  0
M  END
