x0540-x2779
     RDKit          3D

 34 37  0  0  0  0  0  0  0  0999 V2000
    2.9160    1.4830   24.4300 O   0  0  0  0  0  0  0  0  0  0  0  0
    3.0280    2.1830   23.4260 C   0  0  0  0  0  0  0  0  0  0  0  0
    4.0460    1.9820   22.6410 N   0  0  0  0  0  0  0  0  0  0  0  0
    5.2070    1.1900   23.0610 C   0  0  0  0  0  0  0  0  0  0  0  0
    5.3680   -0.1720   22.4310 C   0  0  0  0  0  0  0  0  0  0  0  0
    2.0600    3.1560   23.1650 N   0  0  0  0  0  0  0  0  0  0  0  0
    7.2540   -3.0070   18.8060 C   0  0  0  0  0  0  0  0  0  0  0  0
    5.3850   -4.1780   19.7750 O   0  0  0  0  0  0  0  0  0  0  0  0
    6.2950   -3.3560   19.9360 C   0  0  0  0  0  0  0  0  0  0  0  0
   10.0300   -2.7310   23.4620 C   0  0  0  0  0  0  0  0  0  0  0  0
    6.5170   -0.2110   21.3820 C   0  0  2  0  0  0  0  0  0  0  0  0
    6.0520    0.3140   20.2000 C   0  0  0  0  0  0  0  0  0  0  0  0
    6.7870    0.1450   18.8680 C   0  0  0  0  0  0  0  0  0  0  0  0
    6.3450    0.6740   17.7050 N   0  0  0  0  0  0  0  0  0  0  0  0
    5.1970    1.3690   17.7880 C   0  0  0  0  0  0  0  0  0  0  0  0
    4.4700    1.5550   18.9470 C   0  0  0  0  0  0  0  0  0  0  0  0
    4.8730    1.0400   20.1600 C   0  0  0  0  0  0  0  0  0  0  0  0
    0.6500    4.6300   24.5490 C   0  0  0  0  0  0  0  0  0  0  0  0
   -0.6060    4.8320   25.1570 C   0  0  0  0  0  0  0  0  0  0  0  0
   -1.7200    4.6240   24.3380 C   0  0  0  0  0  0  0  0  0  0  0  0
   -1.6420    3.3650   23.7380 C   0  0  0  0  0  0  0  0  0  0  0  0
   -0.2920    3.0460   23.0860 C   0  0  0  0  0  0  0  0  0  0  0  0
    0.8040    3.2300   23.9320 C   0  0  0  0  0  0  0  0  0  0  0  0
    6.5240   -2.7340   21.1750 N   0  0  0  0  0  0  0  0  0  0  0  0
    7.3610   -1.5320   21.1550 C   0  0  2  0  0  0  0  0  0  0  0  0
    8.6090   -1.6990   21.8030 C   0  0  0  0  0  0  0  0  0  0  0  0
    8.6340   -2.3890   23.1200 N   0  0  0  0  0  0  0  0  0  0  0  0
    7.8540   -3.5690   23.0810 C   0  0  0  0  0  0  0  0  0  0  0  0
    6.4470   -3.3760   22.4830 C   0  0  0  0  0  0  0  0  0  0  0  0
   12.1170   -1.4480   22.5870 C   0  0  0  0  0  0  0  0  0  0  0  0
   10.9950   -1.5880   23.4380 C   0  0  0  0  0  0  0  0  0  0  0  0
   10.7950   -0.2660   24.5260 S   0  0  0  0  0  0  0  0  0  0  0  0
   12.1610    0.5300   23.9000 C   0  0  0  0  0  0  0  0  0  0  0  0
   12.8000   -0.2860   22.8060 C   0  0  0  0  0  0  0  0  0  0  0  0
  1  2  2  0
  2  3  1  0
  3  4  1  0
  4  5  1  0
  2  6  1  0
  7  9  1  0
  8  9  2  0
 11  5  1  1
 11 12  1  0
 12 13  2  0
 13 14  1  0
 14 15  2  0
 15 16  1  0
 12 17  1  0
 16 17  2  0
 18 19  1  0
 19 20  1  0
 20 21  1  0
 21 22  1  0
  6 23  1  0
 18 23  1  0
 22 23  1  0
  9 24  1  0
 11 25  1  0
 24 25  1  0
 25 26  1  1
 10 27  1  0
 26 27  1  0
 27 28  1  0
 24 29  1  0
 28 29  1  0
 10 31  1  0
 30 31  2  0
 31 32  1  0
 32 33  1  0
 30 34  1  0
 33 34  2  0
M  END
