x0540-x2643
     RDKit          3D

 28 30  0  0  0  0  0  0  0  0999 V2000
    2.8540    1.5100   24.3220 O   0  0  0  0  0  0  0  0  0  0  0  0
    3.0040    2.3870   23.4710 C   0  0  0  0  0  0  0  0  0  0  0  0
    4.1320    2.4700   22.8440 N   0  0  0  0  0  0  0  0  0  0  0  0
    5.0010    1.3190   22.6810 C   0  0  0  0  0  0  0  0  0  0  0  0
    4.4960    0.3390   21.6800 C   0  0  0  0  0  0  0  0  0  0  0  0
    1.9770    3.2760   23.1920 N   0  0  0  0  0  0  0  0  0  0  0  0
    6.8070   -1.1060   20.8100 N   0  0  0  0  0  0  0  0  0  0  0  0
    8.3750    0.4260   21.2150 O   0  0  0  0  0  0  0  0  0  0  0  0
   13.3070    0.5220   23.0070 Cl  0  0  0  0  0  0  0  0  0  0  0  0
    8.0860   -1.4160   22.5500 C   0  0  0  0  0  0  0  0  0  0  0  0
    7.7740   -0.6160   21.4630 C   0  0  0  0  0  0  0  0  0  0  0  0
    6.2400   -0.2890   19.9250 C   0  0  0  0  0  0  0  0  0  0  0  0
    6.7420   -0.1420   18.6510 C   0  0  0  0  0  0  0  0  0  0  0  0
    6.2690    0.6430   17.6760 N   0  0  0  0  0  0  0  0  0  0  0  0
    5.1810    1.3630   17.9800 C   0  0  0  0  0  0  0  0  0  0  0  0
    4.5320    1.2890   19.3510 C   0  0  0  0  0  0  0  0  0  0  0  0
    5.1110    0.4380   20.3000 C   0  0  0  0  0  0  0  0  0  0  0  0
    0.6000    4.6700   24.5210 C   0  0  0  0  0  0  0  0  0  0  0  0
   -0.6430    4.9000   25.1430 C   0  0  0  0  0  0  0  0  0  0  0  0
   -1.7740    4.4110   24.4770 C   0  0  0  0  0  0  0  0  0  0  0  0
   -1.6370    3.1900   23.8140 C   0  0  0  0  0  0  0  0  0  0  0  0
   -0.4670    3.0750   23.0680 C   0  0  0  0  0  0  0  0  0  0  0  0
    0.7030    3.2980   23.8180 C   0  0  0  0  0  0  0  0  0  0  0  0
   11.8790   -0.2970   23.3080 C   0  0  0  0  0  0  0  0  0  0  0  0
   11.4830   -1.1520   24.2850 C   0  0  0  0  0  0  0  0  0  0  0  0
   10.0850   -1.6600   24.1530 C   0  0  0  0  0  0  0  0  0  0  0  0
    9.4750   -1.1510   23.0470 C   0  0  0  0  0  0  0  0  0  0  0  0
   10.4760   -0.1110   22.1920 S   0  0  0  0  0  0  0  0  0  0  0  0
  1  2  2  0
  2  3  1  0
  3  4  1  0
  4  5  1  0
  2  6  1  0
  7 11  1  0
  8 11  2  0
 10 11  1  0
  7 12  1  0
 12 13  2  0
 13 14  1  0
 14 15  2  0
 15 16  1  0
  5 17  1  0
 12 17  1  0
 16 17  2  0
 18 19  1  0
 19 20  1  0
 20 21  1  0
 21 22  1  0
  6 23  1  0
 18 23  1  0
 22 23  1  0
  9 24  1  0
 24 25  2  0
 25 26  1  0
 10 27  1  0
 26 27  2  0
 24 28  1  0
 27 28  1  0
M  END
