x0540-x1308
     RDKit          3D

 39 42  0  0  0  0  0  0  0  0999 V2000
    7.0590   -3.4840   19.8550 C   0  0  0  0  0  0  0  0  0  0  0  0
    5.3430   -5.0960   20.0070 O   0  0  0  0  0  0  0  0  0  0  0  0
    0.9400   -0.9670   26.3910 C   0  0  0  0  0  0  0  0  0  0  0  0
    6.3130   -4.5950   20.5440 C   0  0  0  0  0  0  0  0  0  0  0  0
    6.1810   -5.2660   26.9800 O   0  0  0  0  0  0  0  0  0  0  0  0
    4.5170   -6.9110   26.0480 O   0  0  0  0  0  0  0  0  0  0  0  0
    5.1900   -5.6370   26.0080 S   0  0  0  0  0  0  0  0  0  0  0  0
    2.9610    0.9410   24.0810 N   0  0  0  0  0  0  0  0  0  0  0  0
    2.9420    2.0980   23.2820 C   0  0  0  0  0  0  0  0  0  0  0  0
    4.2520    2.4730   22.7890 N   0  0  0  0  0  0  0  0  0  0  0  0
    5.0310    1.3370   22.7260 C   0  0  0  0  0  0  0  0  0  0  0  0
    4.3370    0.4020   21.7410 C   0  0  0  0  0  0  0  0  0  0  0  0
    1.8930    3.0400   22.8010 N   0  0  0  0  0  0  0  0  0  0  0  0
    1.6170    0.2660   26.0600 C   0  0  0  0  0  0  0  0  0  0  0  0
    1.7530    0.3360   24.6580 C   0  0  0  0  0  0  0  0  0  0  0  0
    6.7480   -5.0770   21.7610 N   0  0  0  0  0  0  0  0  0  0  0  0
    7.1260   -4.2610   22.7650 C   0  0  0  0  0  0  0  0  0  0  0  0
    7.0540   -4.7060   24.0820 C   0  0  0  0  0  0  0  0  0  0  0  0
    5.8020   -5.4110   24.3910 N   0  0  0  0  0  0  0  0  0  0  0  0
    5.1790   -5.8760   23.3040 C   0  0  0  0  0  0  0  0  0  0  0  0
    6.0920   -6.1540   22.2690 C   0  0  0  0  0  0  0  0  0  0  0  0
    4.3930   -3.0230   26.1270 C   0  0  0  0  0  0  0  0  0  0  0  0
    3.4120   -1.8360   26.2170 C   0  0  0  0  0  0  0  0  0  0  0  0
    1.9090   -2.1430   26.3210 C   0  0  0  0  0  0  0  0  0  0  0  0
    1.5390   -3.6470   26.3370 C   0  0  0  0  0  0  0  0  0  0  0  0
    2.6100   -4.7560   26.2370 C   0  0  0  0  0  0  0  0  0  0  0  0
    3.9570   -4.3750   26.1360 C   0  0  0  0  0  0  0  0  0  0  0  0
    6.1650   -0.3450   20.0700 C   0  0  0  0  0  0  0  0  0  0  0  0
    6.7480   -0.2690   18.8150 C   0  0  0  0  0  0  0  0  0  0  0  0
    6.3160    0.5190   17.8200 N   0  0  0  0  0  0  0  0  0  0  0  0
    5.2300    1.2590   18.1330 C   0  0  0  0  0  0  0  0  0  0  0  0
    4.5550    1.2680   19.3570 C   0  0  0  0  0  0  0  0  0  0  0  0
    5.0390    0.4320   20.3770 C   0  0  0  0  0  0  0  0  0  0  0  0
    0.7160    4.3130   24.5900 C   0  0  0  0  0  0  0  0  0  0  0  0
   -0.5020    4.7380   25.1030 C   0  0  0  0  0  0  0  0  0  0  0  0
   -1.6780    4.4590   24.3810 C   0  0  0  0  0  0  0  0  0  0  0  0
   -1.7280    3.2190   23.8350 C   0  0  0  0  0  0  0  0  0  0  0  0
   -0.4630    2.7510   23.2650 C   0  0  0  0  0  0  0  0  0  0  0  0
    0.6550    3.6000   23.3830 C   0  0  0  0  0  0  0  0  0  0  0  0
  1  4  1  0
  2  4  2  0
  5  7  2  0
  6  7  2  0
  8  9  2  3
  9 10  1  0
 10 11  1  0
 11 12  1  0
  9 13  1  0
  3 14  1  0
  8 15  1  0
 14 15  1  0
  4 16  1  0
 16 17  1  0
 17 18  1  0
  7 19  1  0
 18 19  1  0
 19 20  1  0
 16 21  1  0
 20 21  1  0
 22 23  2  0
  3 24  1  0
 23 24  1  0
 24 25  2  0
 25 26  1  0
  7 27  1  0
 22 27  1  0
 26 27  2  0
 28 29  2  0
 29 30  1  0
 30 31  2  0
 31 32  1  0
 12 33  1  0
 28 33  1  0
 32 33  2  0
 34 35  1  0
 35 36  1  0
 36 37  1  0
 37 38  1  0
 13 39  1  0
 34 39  1  0
 38 39  1  0
M  END
