x0540-x1425
     RDKit          3D

 37 40  0  0  0  0  0  0  0  0999 V2000
    2.9770    1.7550   24.2990 O   0  0  0  0  0  0  0  0  0  0  0  0
    2.9790    2.4430   23.2850 C   0  0  0  0  0  0  0  0  0  0  0  0
    3.9380    2.2840   22.4350 N   0  0  0  0  0  0  0  0  0  0  0  0
    5.2060    1.7330   22.8760 C   0  0  0  0  0  0  0  0  0  0  0  0
    5.6950    0.5170   22.1550 C   0  0  1  0  0  0  0  0  0  0  0  0
    1.9520    3.3550   23.0910 N   0  0  0  0  0  0  0  0  0  0  0  0
    1.2280   -2.4180   28.1410 C   0  0  0  0  0  0  0  0  0  0  0  0
    2.6180   -2.2710   28.3870 O   0  0  0  0  0  0  0  0  0  0  0  0
    5.2070   -4.6580   19.9000 O   0  0  0  0  0  0  0  0  0  0  0  0
    6.2780   -4.1730   20.2160 C   0  0  0  0  0  0  0  0  0  0  0  0
    7.1030   -3.2830   19.2990 C   0  0  0  0  0  0  0  0  0  0  0  0
    5.1240   -0.7890   22.7560 C   0  0  0  0  0  0  0  0  0  0  0  0
    5.5350   -1.9660   22.1290 C   0  0  0  0  0  0  0  0  0  0  0  0
    6.7110   -0.2610   20.0080 C   0  0  0  0  0  0  0  0  0  0  0  0
    6.8160   -0.2930   18.6320 C   0  0  0  0  0  0  0  0  0  0  0  0
    6.0370    0.3920   17.7740 N   0  0  0  0  0  0  0  0  0  0  0  0
    5.0820    1.1610   18.3460 C   0  0  0  0  0  0  0  0  0  0  0  0
    4.9210    1.2350   19.7430 C   0  0  0  0  0  0  0  0  0  0  0  0
    5.7410    0.5210   20.6310 C   0  0  0  0  0  0  0  0  0  0  0  0
    0.5920    4.6080   24.5280 C   0  0  0  0  0  0  0  0  0  0  0  0
   -0.6470    4.8730   25.1200 C   0  0  0  0  0  0  0  0  0  0  0  0
   -1.7130    4.5720   24.2640 C   0  0  0  0  0  0  0  0  0  0  0  0
   -1.6600    3.1550   23.6700 C   0  0  0  0  0  0  0  0  0  0  0  0
   -0.4290    2.8230   23.0990 C   0  0  0  0  0  0  0  0  0  0  0  0
    0.7490    3.3550   23.9200 C   0  0  0  0  0  0  0  0  0  0  0  0
    3.4630   -2.5520   27.3530 C   0  0  0  0  0  0  0  0  0  0  0  0
    4.7600   -2.0980   27.1580 C   0  0  0  0  0  0  0  0  0  0  0  0
    5.5560   -2.5340   25.9100 C   0  0  0  0  0  0  0  0  0  0  0  0
    4.9900   -3.3790   24.9720 C   0  0  0  0  0  0  0  0  0  0  0  0
    3.6880   -3.8480   25.1460 C   0  0  0  0  0  0  0  0  0  0  0  0
    2.9640   -3.4710   26.2500 C   0  0  0  0  0  0  0  0  0  0  0  0
    6.8400   -4.4780   21.4410 N   0  0  0  0  0  0  0  0  0  0  0  0
    7.5060   -3.4910   22.2530 C   0  0  0  0  0  0  0  0  0  0  0  0
    6.4780   -2.7630   23.0680 C   0  0  2  0  0  0  0  0  0  0  0  0
    5.7040   -3.7720   23.8510 N   0  0  0  0  0  0  0  0  0  0  0  0
    5.2570   -5.0480   23.2190 C   0  0  0  0  0  0  0  0  0  0  0  0
    6.2620   -5.5760   22.1970 C   0  0  0  0  0  0  0  0  0  0  0  0
  1  2  2  0
  2  3  1  0
  3  4  1  0
  5  4  1  6
  2  6  1  0
  7  8  1  0
  9 10  2  0
 10 11  1  0
  5 12  1  0
 12 13  1  0
 14 15  2  0
 15 16  1  0
 16 17  2  0
 17 18  1  0
  5 19  1  0
 14 19  1  0
 18 19  2  0
 20 21  1  0
 21 22  1  0
 22 23  1  0
 23 24  1  0
  6 25  1  0
 20 25  1  0
 24 25  1  0
  8 26  1  0
 26 27  2  0
 27 28  1  0
 28 29  2  0
 29 30  1  0
 26 31  1  0
 30 31  2  0
 10 32  1  0
 32 33  1  0
 34 13  1  6
 33 34  1  0
 29 35  1  0
 34 35  1  0
 35 36  1  0
 32 37  1  0
 36 37  1  0
M  END
