x0540-x3080
     RDKit          3D

 37 40  0  0  0  0  0  0  0  0999 V2000
    9.6580    0.6040   23.2890 N   0  0  0  0  0  0  0  0  0  0  0  0
   10.9200    1.3100   23.6020 C   0  0  0  0  0  0  0  0  0  0  0  0
    8.8800    1.4530   21.0210 O   0  0  0  0  0  0  0  0  0  0  0  0
    9.6090   -0.3650   22.2390 C   0  0  0  0  0  0  0  0  0  0  0  0
    7.7660   -0.5710   20.7710 N   0  0  0  0  0  0  0  0  0  0  0  0
    7.3950   -0.1340   24.1490 O   0  0  0  0  0  0  0  0  0  0  0  0
    8.7260    0.2540   21.2840 C   0  0  0  0  0  0  0  0  0  0  0  0
    9.1290    0.6930   25.8200 O   0  0  0  0  0  0  0  0  0  0  0  0
    5.4440    0.6070   21.8600 C   0  0  0  0  0  0  0  0  0  0  0  0
    8.7590    0.0770   24.5780 S   0  0  0  0  0  0  0  0  0  0  0  0
    3.1910    2.0010   24.4950 O   0  0  0  0  0  0  0  0  0  0  0  0
    2.9460    2.5210   23.4120 C   0  0  0  0  0  0  0  0  0  0  0  0
    3.6140    2.0650   22.3200 N   0  0  0  0  0  0  0  0  0  0  0  0
    4.9490    1.9370   22.4150 C   0  0  0  0  0  0  0  0  0  0  0  0
    2.0040    3.4980   23.3460 N   0  0  0  0  0  0  0  0  0  0  0  0
    6.1650    0.5730   17.6620 N   0  0  0  0  0  0  0  0  0  0  0  0
    5.0600    1.1750   18.1250 C   0  0  0  0  0  0  0  0  0  0  0  0
    4.7460    1.2270   19.4750 C   0  0  0  0  0  0  0  0  0  0  0  0
    5.6940    0.5910   20.4790 C   0  0  0  0  0  0  0  0  0  0  0  0
    6.8290   -0.0020   19.9480 C   0  0  0  0  0  0  0  0  0  0  0  0
    6.9660    0.0320   18.5790 C   0  0  0  0  0  0  0  0  0  0  0  0
   11.5980   -0.5420   25.0110 N   0  0  0  0  0  0  0  0  0  0  0  0
   10.8480   -1.5310   24.7240 C   0  0  0  0  0  0  0  0  0  0  0  0
   11.4490   -2.7150   24.6810 C   0  0  0  0  0  0  0  0  0  0  0  0
   12.7720   -2.9640   24.9430 C   0  0  0  0  0  0  0  0  0  0  0  0
   13.5500   -2.0010   25.2440 C   0  0  0  0  0  0  0  0  0  0  0  0
   12.8690   -0.8150   25.2430 C   0  0  0  0  0  0  0  0  0  0  0  0
    8.6260   -2.4920   24.1310 C   0  0  0  0  0  0  0  0  0  0  0  0
    9.2220   -3.6750   24.0620 C   0  0  0  0  0  0  0  0  0  0  0  0
   10.7140   -3.7000   24.3840 C   0  0  0  0  0  0  0  0  0  0  0  0
    9.4780   -1.4540   24.4700 C   0  0  0  0  0  0  0  0  0  0  0  0
    0.5480    4.6040   24.7750 C   0  0  0  0  0  0  0  0  0  0  0  0
   -0.9040    4.9740   25.1220 C   0  0  0  0  0  0  0  0  0  0  0  0
   -1.7930    4.5380   24.1440 C   0  0  0  0  0  0  0  0  0  0  0  0
   -1.6820    3.2140   23.6780 C   0  0  0  0  0  0  0  0  0  0  0  0
   -0.3960    2.9420   23.2380 C   0  0  0  0  0  0  0  0  0  0  0  0
    0.7740    3.4010   24.1090 C   0  0  0  0  0  0  0  0  0  0  0  0
  1  2  1  0
  1  4  1  0
  3  7  2  0
  4  7  1  0
  5  7  1  0
 10  1  1  0
  6 10  2  0
  8 10  2  0
 11 12  2  0
 12 13  1  0
  9 14  1  0
 13 14  1  0
 12 15  1  0
 16 17  2  0
 17 18  1  0
  9 19  1  0
 18 19  2  0
  5 20  1  0
 19 20  1  0
 16 21  1  0
 20 21  2  0
 22 23  2  0
 23 24  1  0
 24 25  2  0
 25 26  1  0
 22 27  1  0
 26 27  2  0
 28 29  1  0
 24 30  1  0
 29 30  2  0
 10 31  1  0
 23 31  1  0
 28 31  2  0
 32 33  1  0
 33 34  1  0
 34 35  1  0
 35 36  1  0
 15 37  1  0
 32 37  1  0
 36 37  1  0
M  END
