x0540-x0830
     RDKit          3D

 39 43  0  0  0  0  0  0  0  0999 V2000
    2.8640    1.4950   24.4390 O   0  0  0  0  0  0  0  0  0  0  0  0
    2.9730    2.2130   23.4470 C   0  0  0  0  0  0  0  0  0  0  0  0
    3.9960    2.0440   22.6710 N   0  0  0  0  0  0  0  0  0  0  0  0
    4.9900    1.0090   22.9550 C   0  0  0  0  0  0  0  0  0  0  0  0
    4.8130   -0.2970   22.2270 C   0  0  0  0  0  0  0  0  0  0  0  0
    1.9950    3.1700   23.1960 N   0  0  0  0  0  0  0  0  0  0  0  0
    7.7500   -3.6120   19.5770 C   0  0  0  0  0  0  0  0  0  0  0  0
    5.5170   -3.1800   19.2730 O   0  0  0  0  0  0  0  0  0  0  0  0
    6.5340   -2.8780   19.9540 C   0  0  0  0  0  0  0  0  0  0  0  0
    9.8050   -2.5450   23.7150 C   0  0  0  0  0  0  0  0  0  0  0  0
    5.9590   -0.5430   21.2280 C   0  0  2  0  0  0  0  0  0  0  0  0
    5.7130    0.1050   20.0540 C   0  0  0  0  0  0  0  0  0  0  0  0
    6.5740   -0.0190   18.7970 C   0  0  0  0  0  0  0  0  0  0  0  0
    6.2950    0.6630   17.6570 N   0  0  0  0  0  0  0  0  0  0  0  0
    5.2090    1.4600   17.7040 C   0  0  0  0  0  0  0  0  0  0  0  0
    4.3910    1.6080   18.8040 C   0  0  0  0  0  0  0  0  0  0  0  0
    4.6220    0.9430   19.9840 C   0  0  0  0  0  0  0  0  0  0  0  0
    0.5830    4.6950   24.4900 C   0  0  0  0  0  0  0  0  0  0  0  0
   -0.6690    4.9050   25.0920 C   0  0  0  0  0  0  0  0  0  0  0  0
   -1.7650    4.6380   24.2730 C   0  0  0  0  0  0  0  0  0  0  0  0
   -1.6950    3.3260   23.7990 C   0  0  0  0  0  0  0  0  0  0  0  0
   -0.3290    2.8700   23.2580 C   0  0  0  0  0  0  0  0  0  0  0  0
    0.7830    3.2480   24.0220 C   0  0  0  0  0  0  0  0  0  0  0  0
    6.7440   -1.9080   21.1910 C   0  0  0  0  0  0  0  0  0  0  0  0
    6.5640   -2.7570   22.3070 C   0  0  0  0  0  0  0  0  0  0  0  0
    7.7140   -3.2830   22.9060 C   0  0  0  0  0  0  0  0  0  0  0  0
    8.7210   -2.2270   22.9740 N   0  0  0  0  0  0  0  0  0  0  0  0
    9.1200   -1.8020   21.6430 C   0  0  0  0  0  0  0  0  0  0  0  0
    8.0160   -1.3660   20.9420 C   0  0  0  0  0  0  0  0  0  0  0  0
   12.1070   -2.0440   22.7910 C   0  0  0  0  0  0  0  0  0  0  0  0
   13.1260   -1.1810   22.4820 C   0  0  0  0  0  0  0  0  0  0  0  0
   13.1060    0.3170   22.7440 C   0  0  0  0  0  0  0  0  0  0  0  0
   11.8540    0.8570   23.3890 C   0  0  0  0  0  0  0  0  0  0  0  0
   10.7670   -0.1440   23.7290 C   0  0  0  0  0  0  0  0  0  0  0  0
   10.9310   -1.5970   23.3990 C   0  0  0  0  0  0  0  0  0  0  0  0
   11.6720    2.1980   23.6610 C   0  0  0  0  0  0  0  0  0  0  0  0
   10.4050    2.7160   24.3150 C   0  0  0  0  0  0  0  0  0  0  0  0
    9.2930    1.7330   24.7020 C   0  0  0  0  0  0  0  0  0  0  0  0
    9.4550    0.2590   24.4080 C   0  0  0  0  0  0  0  0  0  0  0  0
  1  2  2  0
  2  3  1  0
  3  4  1  0
  4  5  1  0
  2  6  1  0
  7  9  1  0
  8  9  2  0
 11  5  1  6
 11 12  1  0
 12 13  2  0
 13 14  1  0
 14 15  2  0
 15 16  1  0
 12 17  1  0
 16 17  2  0
 18 19  1  0
 19 20  1  0
 20 21  1  0
 21 22  1  0
  6 23  1  0
 18 23  1  0
 22 23  1  0
 24  9  1  0
 11 24  1  0
 24 25  1  0
 25 26  1  0
 10 27  1  0
 26 27  1  0
 27 28  1  0
 24 29  1  0
 28 29  1  0
 30 31  2  0
 31 32  1  0
 32 33  2  0
 33 34  1  0
 10 35  1  0
 30 35  1  0
 34 35  2  0
 33 36  1  0
 36 37  2  0
 37 38  1  0
 34 39  1  0
 38 39  2  0
M  END
