x0540-x0426
     RDKit          3D

 21 22  0  0  0  0  0  0  0  0999 V2000
    2.3330    1.2890   23.7760 C   0  0  0  0  0  0  0  0  0  0  0  0
    2.8530    2.5000   23.0830 C   0  0  0  0  0  0  0  0  0  0  0  0
    4.0530    2.3570   22.4170 N   0  0  0  0  0  0  0  0  0  0  0  0
    4.9330    1.2290   22.6310 C   0  0  0  0  0  0  0  0  0  0  0  0
    4.6750    0.2070   21.7010 C   0  0  0  0  0  0  0  0  0  0  0  0
    2.1190    3.6710   23.1420 N   0  0  0  0  0  0  0  0  0  0  0  0
    1.7950    0.1670   24.4530 O   0  0  0  0  0  0  0  0  0  0  0  0
    6.3510   -0.4730   20.0250 C   0  0  0  0  0  0  0  0  0  0  0  0
    6.8220   -0.3260   18.7250 C   0  0  0  0  0  0  0  0  0  0  0  0
    6.2890    0.4890   17.7850 N   0  0  0  0  0  0  0  0  0  0  0  0
    5.2080    1.2310   18.1030 C   0  0  0  0  0  0  0  0  0  0  0  0
    4.6050    1.2070   19.3600 C   0  0  0  0  0  0  0  0  0  0  0  0
    5.2230    0.2840   20.4110 C   0  0  0  0  0  0  0  0  0  0  0  0
    0.6040    4.7800   24.4680 C   0  0  2  0  0  0  0  0  0  0  0  0
   -0.6840    4.8780   25.0290 C   0  0  0  0  0  0  0  0  0  0  0  0
   -1.7350    4.3050   24.2850 C   0  0  0  0  0  0  0  0  0  0  0  0
   -1.4370    3.0540   23.7070 C   0  0  0  0  0  0  0  0  0  0  0  0
   -0.0810    2.8180   23.3940 C   0  0  0  0  0  0  0  0  0  0  0  0
    0.6890    3.9790   23.3260 C   0  0  2  0  0  0  0  0  0  0  0  0
    2.8480    4.6050   25.1930 F   0  0  0  0  0  0  0  0  0  0  0  0
    1.5670    4.3080   25.5550 C   0  0  0  0  0  0  0  0  0  0  0  0
  1  2  2  0
  2  3  1  0
  3  4  1  0
  4  5  1  0
  2  6  1  0
  1  7  2  0
  8  9  2  0
  9 10  1  0
 10 11  2  0
 11 12  1  0
  5 13  1  0
  8 13  1  0
 12 13  2  0
 14 15  1  0
 15 16  1  0
 16 17  1  0
 17 18  1  0
 19  6  1  1
 14 19  1  0
 18 19  1  0
 14 21  1  1
 20 21  1  0
M  END
