x0540-x0820
     RDKit          3D

 36 39  0  0  0  0  0  0  0  0999 V2000
    6.7650   -4.7780   21.8360 N   0  0  0  0  0  0  0  0  0  0  0  0
    7.1670   -2.4540   22.4000 C   0  0  0  0  0  0  0  0  0  0  0  0
    5.3670   -5.1350   20.0380 O   0  0  0  0  0  0  0  0  0  0  0  0
    7.2420   -3.9110   22.8060 C   0  0  1  0  0  0  0  0  0  0  0  0
    6.2950   -4.5090   20.5510 C   0  0  0  0  0  0  0  0  0  0  0  0
    6.9710   -3.4540   19.6860 C   0  0  0  0  0  0  0  0  0  0  0  0
    2.4740    1.6440   24.3830 O   0  0  0  0  0  0  0  0  0  0  0  0
    2.8580    2.2260   23.3680 C   0  0  0  0  0  0  0  0  0  0  0  0
    3.8420    1.7630   22.3750 N   0  0  0  0  0  0  0  0  0  0  0  0
    5.2080    1.6010   22.7090 C   0  0  0  0  0  0  0  0  0  0  0  0
    5.7940    0.4890   22.0610 C   0  0  1  0  0  0  0  0  0  0  0  0
    2.1720    3.5250   23.2580 N   0  0  0  0  0  0  0  0  0  0  0  0
    5.8310   -1.9750   21.8850 C   0  0  0  0  0  0  0  0  0  0  0  0
    5.2040   -0.8700   22.4930 C   0  0  0  0  0  0  0  0  0  0  0  0
    6.3300   -4.1410   23.9800 C   0  0  0  0  0  0  0  0  0  0  0  0
    6.8570   -4.2750   25.3180 C   0  0  0  0  0  0  0  0  0  0  0  0
    5.9530   -4.4920   26.4210 C   0  0  0  0  0  0  0  0  0  0  0  0
    4.5780   -4.5770   26.2080 C   0  0  0  0  0  0  0  0  0  0  0  0
    3.9590   -4.4510   24.8420 C   0  0  0  0  0  0  0  0  0  0  0  0
    4.9100   -4.2210   23.6760 C   0  0  0  0  0  0  0  0  0  0  0  0
    6.4250   -4.6240   27.7290 C   0  0  0  0  0  0  0  0  0  0  0  0
    7.9410   -4.5380   27.9690 C   0  0  0  0  0  0  0  0  0  0  0  0
    8.8040   -4.3320   26.9050 C   0  0  0  0  0  0  0  0  0  0  0  0
    8.2610   -4.2020   25.6050 C   0  0  0  0  0  0  0  0  0  0  0  0
    6.7440   -0.2330   19.9200 C   0  0  0  0  0  0  0  0  0  0  0  0
    6.8190   -0.2360   18.5730 C   0  0  0  0  0  0  0  0  0  0  0  0
    6.0530    0.4600   17.7250 N   0  0  0  0  0  0  0  0  0  0  0  0
    5.1160    1.2290   18.3320 C   0  0  0  0  0  0  0  0  0  0  0  0
    4.9480    1.3040   19.7260 C   0  0  0  0  0  0  0  0  0  0  0  0
    5.7910    0.5510   20.5460 C   0  0  0  0  0  0  0  0  0  0  0  0
    0.6150    4.5430   24.7150 C   0  0  0  0  0  0  0  0  0  0  0  0
   -0.6740    4.9110   25.1060 C   0  0  0  0  0  0  0  0  0  0  0  0
   -1.6950    4.3820   24.4050 C   0  0  0  0  0  0  0  0  0  0  0  0
   -1.4590    3.1230   23.6890 C   0  0  0  0  0  0  0  0  0  0  0  0
   -0.1120    2.7760   23.3790 C   0  0  0  0  0  0  0  0  0  0  0  0
    0.7570    3.8520   23.5060 C   0  0  0  0  0  0  0  0  0  0  0  0
  1  4  1  0
  4  2  1  6
  1  5  1  0
  3  5  2  0
  5  6  1  0
  7  8  2  0
  8  9  1  0
  9 10  1  0
 11 10  1  1
  8 12  1  0
  2 13  1  0
 11 14  1  0
 13 14  1  0
  4 15  1  0
 15 16  2  0
 16 17  1  0
 17 18  2  0
 18 19  1  0
 15 20  1  0
 19 20  2  0
 17 21  1  0
 21 22  2  0
 22 23  1  0
 16 24  1  0
 23 24  2  0
 25 26  2  0
 26 27  1  0
 27 28  2  0
 28 29  1  0
 11 30  1  0
 25 30  1  0
 29 30  2  0
 31 32  1  0
 32 33  1  0
 33 34  1  0
 34 35  1  0
 12 36  1  0
 31 36  1  0
 35 36  1  0
M  END
