x0540-x1385
     RDKit          3D

 35 38  0  0  0  0  0  0  0  0999 V2000
    2.8220    1.4120   24.5320 O   0  0  0  0  0  0  0  0  0  0  0  0
    3.1070    2.2720   23.7080 C   0  0  0  0  0  0  0  0  0  0  0  0
    4.3450    2.3350   23.3160 N   0  0  0  0  0  0  0  0  0  0  0  0
    4.8270    1.4640   22.2560 C   0  0  0  0  0  0  0  0  0  0  0  0
    5.8370    0.4040   22.6020 C   0  0  0  0  0  0  0  0  0  0  0  0
    2.1030    3.1310   23.2520 N   0  0  0  0  0  0  0  0  0  0  0  0
    7.3940   -3.0540   18.8180 C   0  0  0  0  0  0  0  0  0  0  0  0
    5.4010   -4.1140   19.7230 O   0  0  0  0  0  0  0  0  0  0  0  0
    6.3930   -3.4030   19.9080 C   0  0  0  0  0  0  0  0  0  0  0  0
    9.4940   -2.9580   24.1750 C   0  0  0  0  0  0  0  0  0  0  0  0
    7.1220   -5.8560   28.5330 Br  0  0  0  0  0  0  0  0  0  0  0  0
    6.0000   -0.5990   21.4280 C   0  0  1  0  0  0  0  0  0  0  0  0
    5.7250    0.0260   20.2190 C   0  0  0  0  0  0  0  0  0  0  0  0
    6.6530   -0.0220   18.9910 C   0  0  0  0  0  0  0  0  0  0  0  0
    6.3710    0.6110   17.8200 N   0  0  0  0  0  0  0  0  0  0  0  0
    5.2150    1.3000   17.7920 C   0  0  0  0  0  0  0  0  0  0  0  0
    4.3300    1.3790   18.8500 C   0  0  0  0  0  0  0  0  0  0  0  0
    4.5590    0.7560   20.0550 C   0  0  0  0  0  0  0  0  0  0  0  0
    0.6550    4.6500   24.5550 C   0  0  0  0  0  0  0  0  0  0  0  0
   -0.6090    4.8560   25.1450 C   0  0  0  0  0  0  0  0  0  0  0  0
   -1.7150    4.6320   24.3140 C   0  0  0  0  0  0  0  0  0  0  0  0
   -1.6200    3.3730   23.7160 C   0  0  0  0  0  0  0  0  0  0  0  0
   -0.2560    3.0540   23.0910 C   0  0  0  0  0  0  0  0  0  0  0  0
    0.8170    3.2410   23.9660 C   0  0  0  0  0  0  0  0  0  0  0  0
    6.6960   -2.9000   21.1500 N   0  0  0  0  0  0  0  0  0  0  0  0
    6.4470   -3.7050   22.3210 C   0  0  0  0  0  0  0  0  0  0  0  0
    7.6690   -3.8900   22.9260 C   0  0  0  0  0  0  0  0  0  0  0  0
    8.2340   -2.6380   23.4830 N   0  0  0  0  0  0  0  0  0  0  0  0
    8.3100   -1.5640   22.5420 C   0  0  0  0  0  0  0  0  0  0  0  0
    7.2490   -1.5820   21.3900 C   0  0  2  0  0  0  0  0  0  0  0  0
    9.8120   -5.3050   25.3310 C   0  0  0  0  0  0  0  0  0  0  0  0
    9.2120   -4.0420   25.1770 C   0  0  0  0  0  0  0  0  0  0  0  0
    7.9670   -3.7500   26.3300 S   0  0  0  0  0  0  0  0  0  0  0  0
    8.1680   -5.2610   27.0640 C   0  0  0  0  0  0  0  0  0  0  0  0
    9.2690   -6.0150   26.3620 C   0  0  0  0  0  0  0  0  0  0  0  0
  1  2  2  0
  2  3  1  0
  3  4  1  0
  4  5  1  0
  2  6  1  0
  7  9  1  0
  8  9  2  0
 12  5  1  1
 12 13  1  0
 13 14  2  0
 14 15  1  0
 15 16  2  0
 16 17  1  0
 13 18  1  0
 17 18  2  0
 19 20  1  0
 20 21  1  0
 21 22  1  0
 22 23  1  0
  6 24  1  0
 19 24  1  0
 23 24  1  0
  9 25  1  0
 25 26  1  0
 26 27  1  0
 10 28  1  0
 27 28  1  0
 28 29  1  0
 12 30  1  0
 25 30  1  0
 30 29  1  1
 10 32  1  0
 31 32  2  0
 32 33  1  0
 11 34  1  0
 33 34  1  0
 31 35  1  0
 34 35  2  0
M  END
