x0540-x0734
     RDKit          3D

 38 41  0  0  0  0  0  0  0  0999 V2000
    5.1120   -4.7740   26.2060 N   0  0  0  0  0  0  0  0  0  0  0  0
    4.4900   -5.6550   25.5980 O   0  0  0  0  0  0  0  0  0  0  0  0
    4.5980   -3.8370   26.8340 O   0  0  0  0  0  0  0  0  0  0  0  0
    5.2430   -4.2920   19.7940 O   0  0  0  0  0  0  0  0  0  0  0  0
    6.3960   -3.9590   20.0730 C   0  0  0  0  0  0  0  0  0  0  0  0
    7.2280   -3.1800   19.0840 C   0  0  0  0  0  0  0  0  0  0  0  0
    2.9380    1.4540   24.4470 O   0  0  0  0  0  0  0  0  0  0  0  0
    2.9510    2.1210   23.4170 C   0  0  0  0  0  0  0  0  0  0  0  0
    3.9340    1.9410   22.3420 N   0  0  0  0  0  0  0  0  0  0  0  0
    5.1460    1.5790   22.8810 C   0  0  0  0  0  0  0  0  0  0  0  0
    5.6800    0.3390   22.1660 C   0  0  1  0  0  0  0  0  0  0  0  0
    2.0260    3.1180   23.1440 N   0  0  0  0  0  0  0  0  0  0  0  0
    5.6550   -2.1870   22.2060 C   0  0  0  0  0  0  0  0  0  0  0  0
    5.0540   -0.9930   22.6870 C   0  0  0  0  0  0  0  0  0  0  0  0
    6.5770   -4.8570   26.2220 C   0  0  0  0  0  0  0  0  0  0  0  0
    7.2150   -4.4010   25.0470 C   0  0  0  0  0  0  0  0  0  0  0  0
    8.6360   -4.4620   25.0130 C   0  0  0  0  0  0  0  0  0  0  0  0
    9.3540   -4.9680   26.1300 C   0  0  0  0  0  0  0  0  0  0  0  0
    8.6630   -5.4040   27.2650 C   0  0  0  0  0  0  0  0  0  0  0  0
    7.2780   -5.3570   27.3310 C   0  0  0  0  0  0  0  0  0  0  0  0
    7.0190   -4.3450   21.2570 N   0  0  0  0  0  0  0  0  0  0  0  0
    6.4510   -5.5630   22.0570 C   0  0  0  0  0  0  0  0  0  0  0  0
    5.7210   -4.9980   23.3060 C   0  0  0  0  0  0  0  0  0  0  0  0
    6.4060   -3.9070   23.9580 N   0  0  0  0  0  0  0  0  0  0  0  0
    6.8160   -2.8340   23.0650 C   0  0  1  0  0  0  0  0  0  0  0  0
    7.7690   -3.3990   22.0130 C   0  0  0  0  0  0  0  0  0  0  0  0
    6.7050   -0.3210   20.0480 C   0  0  0  0  0  0  0  0  0  0  0  0
    6.9310   -0.3870   18.6780 C   0  0  0  0  0  0  0  0  0  0  0  0
    6.0350    0.4020   17.8250 N   0  0  0  0  0  0  0  0  0  0  0  0
    4.9600    1.2000   18.4710 C   0  0  0  0  0  0  0  0  0  0  0  0
    4.8290    1.1830   19.8600 C   0  0  0  0  0  0  0  0  0  0  0  0
    5.7030    0.4250   20.6600 C   0  0  0  0  0  0  0  0  0  0  0  0
    0.6750    4.7170   24.4950 C   0  0  0  0  0  0  0  0  0  0  0  0
   -0.5720    4.9100   25.0730 C   0  0  0  0  0  0  0  0  0  0  0  0
   -1.5930    4.6190   24.1860 C   0  0  0  0  0  0  0  0  0  0  0  0
   -1.5970    3.3040   23.7050 C   0  0  0  0  0  0  0  0  0  0  0  0
   -0.3920    2.8760   23.2520 C   0  0  0  0  0  0  0  0  0  0  0  0
    0.8210    3.2780   23.9720 C   0  0  0  0  0  0  0  0  0  0  0  0
  1  2  2  0
  1  3  1  0
  4  5  2  0
  5  6  1  0
  7  8  2  0
  8  9  1  0
  9 10  1  0
 11 10  1  1
  8 12  1  0
 11 14  1  0
 13 14  1  0
  1 15  1  0
 15 16  2  0
 16 17  1  0
 17 18  2  0
 18 19  1  0
 15 20  1  0
 19 20  2  0
  5 21  1  0
 21 22  1  0
 22 23  1  0
 16 24  1  0
 23 24  1  0
 25 13  1  6
 24 25  1  0
 21 26  1  0
 25 26  1  0
 27 28  2  0
 28 29  1  0
 29 30  2  0
 30 31  1  0
 11 32  1  0
 27 32  1  0
 31 32  2  0
 33 34  1  0
 34 35  1  0
 35 36  1  0
 36 37  1  0
 12 38  1  0
 33 38  1  0
 37 38  1  0
M  CHG  2   1   1   3  -1
M  END
