x0540-x3117
     RDKit          3D

 43 46  0  0  0  0  0  0  0  0999 V2000
    6.9350   -1.6940   22.0050 N   0  0  0  0  0  0  0  0  0  0  0  0
    6.6830   -4.8450   20.3810 C   0  0  0  0  0  0  0  0  0  0  0  0
    4.8260   -3.0510   21.3110 O   0  0  0  0  0  0  0  0  0  0  0  0
    6.8240   -4.1940   21.7380 C   0  0  0  0  0  0  0  0  0  0  0  0
    7.7640    1.7570   22.8120 N   0  0  0  0  0  0  0  0  0  0  0  0
    9.0380    0.5250   21.4430 O   0  0  0  0  0  0  0  0  0  0  0  0
    6.0910   -2.8870   21.6670 C   0  0  0  0  0  0  0  0  0  0  0  0
    6.7680   -0.3090   21.7160 C   0  0  1  0  0  0  0  0  0  0  0  0
    7.9450    0.6650   21.9750 C   0  0  0  0  0  0  0  0  0  0  0  0
   12.3690   -1.7930   24.2600 C   0  0  0  0  0  0  0  0  0  0  0  0
   12.4870   -0.6820   25.0880 C   0  0  0  0  0  0  0  0  0  0  0  0
   13.3490   -1.6860   23.1060 C   0  0  0  0  0  0  0  0  0  0  0  0
   12.7800   -2.9170   25.0280 C   0  0  0  0  0  0  0  0  0  0  0  0
    2.8830    1.5220   24.5120 O   0  0  0  0  0  0  0  0  0  0  0  0
    2.9660    2.4400   23.6980 C   0  0  0  0  0  0  0  0  0  0  0  0
    4.1090    2.8570   23.1300 N   0  0  0  0  0  0  0  0  0  0  0  0
    4.7810    1.9100   22.4790 C   0  0  0  0  0  0  0  0  0  0  0  0
    4.0590    1.0870   21.6110 C   0  0  0  0  0  0  0  0  0  0  0  0
    1.8160    3.2530   23.1980 N   0  0  0  0  0  0  0  0  0  0  0  0
    6.3560    0.4190   17.7530 N   0  0  0  0  0  0  0  0  0  0  0  0
    5.1750    1.0610   17.7830 C   0  0  0  0  0  0  0  0  0  0  0  0
    4.3420    1.3180   19.0380 C   0  0  0  0  0  0  0  0  0  0  0  0
    4.8700    0.8340   20.3920 C   0  0  0  0  0  0  0  0  0  0  0  0
    6.2150    0.1230   20.3920 C   0  0  0  0  0  0  0  0  0  0  0  0
    6.8880   -0.0580   19.0340 C   0  0  0  0  0  0  0  0  0  0  0  0
    9.6080    5.0440   24.1860 O   0  0  0  0  0  0  0  0  0  0  0  0
   10.4300    3.9440   23.8280 C   0  0  0  0  0  0  0  0  0  0  0  0
    9.6470    2.7800   23.8090 C   0  0  0  0  0  0  0  0  0  0  0  0
    8.6900    2.9280   22.7900 C   0  0  0  0  0  0  0  0  0  0  0  0
    7.9440    4.1130   22.8780 C   0  0  0  0  0  0  0  0  0  0  0  0
    8.6650    5.3030   23.1500 C   0  0  0  0  0  0  0  0  0  0  0  0
    9.5030   -2.2600   21.8140 C   0  0  0  0  0  0  0  0  0  0  0  0
   10.7150   -2.2290   22.4460 C   0  0  0  0  0  0  0  0  0  0  0  0
   10.9370   -1.7880   23.7190 C   0  0  0  0  0  0  0  0  0  0  0  0
    9.8500   -1.3370   24.4670 C   0  0  0  0  0  0  0  0  0  0  0  0
    8.5950   -1.3150   23.9540 C   0  0  0  0  0  0  0  0  0  0  0  0
    8.2850   -1.7600   22.5840 C   0  0  0  0  0  0  0  0  0  0  0  0
    0.4710    4.7750   24.5480 C   0  0  0  0  0  0  0  0  0  0  0  0
   -0.7710    4.9660   25.1270 C   0  0  0  0  0  0  0  0  0  0  0  0
   -1.8910    4.6140   24.3670 C   0  0  0  0  0  0  0  0  0  0  0  0
   -1.9490    3.3400   23.7960 C   0  0  0  0  0  0  0  0  0  0  0  0
   -0.6230    2.9470   23.1550 C   0  0  0  0  0  0  0  0  0  0  0  0
    0.6010    3.3560   23.9840 C   0  0  0  0  0  0  0  0  0  0  0  0
  2  4  1  0
  1  7  1  0
  3  7  2  0
  4  7  1  0
  1  8  1  0
  5  9  1  0
  6  9  2  0
  8  9  1  6
 10 11  1  0
 10 12  1  0
 10 13  1  0
 14 15  2  0
 15 16  1  0
 16 17  1  0
 17 18  1  0
 15 19  1  0
 20 21  2  0
 21 22  1  0
 18 23  1  0
 22 23  2  0
  8 24  1  0
 23 24  1  0
 20 25  1  0
 24 25  2  0
 26 27  1  0
 27 28  1  0
  5 29  1  0
 28 29  1  0
 29 30  1  0
 26 31  1  0
 30 31  1  0
 32 33  2  0
 10 34  1  0
 33 34  1  0
 34 35  2  0
 35 36  1  0
  1 37  1  0
 32 37  1  0
 36 37  2  0
 38 39  1  0
 39 40  1  0
 40 41  1  0
 41 42  1  0
 19 43  1  0
 38 43  1  0
 42 43  1  0
M  END
