x0540-x2908
     RDKit          3D

 29 31  0  0  0  0  0  0  0  0999 V2000
    2.8890    1.4720   24.3850 O   0  0  0  0  0  0  0  0  0  0  0  0
    3.0370    2.4490   23.3700 C   0  0  0  0  0  0  0  0  0  0  0  0
    4.3120    2.5770   22.6580 N   0  0  0  0  0  0  0  0  0  0  0  0
    5.0170    1.3990   22.5730 C   0  0  0  0  0  0  0  0  0  0  0  0
    4.4640    0.4980   21.8040 C   0  0  0  0  0  0  0  0  0  0  0  0
    1.9100    3.2280   23.1510 N   0  0  0  0  0  0  0  0  0  0  0  0
    8.3960    0.9530   21.0950 O   0  0  0  0  0  0  0  0  0  0  0  0
   13.2370   -2.1280   21.2850 Cl  0  0  0  0  0  0  0  0  0  0  0  0
    7.0890   -0.9290   21.0420 N   0  0  0  0  0  0  0  0  0  0  0  0
    8.7140   -0.7620   22.5940 N   0  0  0  0  0  0  0  0  0  0  0  0
    8.0850   -0.1540   21.5370 C   0  0  0  0  0  0  0  0  0  0  0  0
    6.4160   -0.2640   20.0950 C   0  0  0  0  0  0  0  0  0  0  0  0
    6.8300   -0.1440   18.6740 C   0  0  0  0  0  0  0  0  0  0  0  0
    6.1920    0.5250   17.7140 N   0  0  0  0  0  0  0  0  0  0  0  0
    5.0720    1.1530   18.0610 C   0  0  0  0  0  0  0  0  0  0  0  0
    4.5100    1.1510   19.3500 C   0  0  0  0  0  0  0  0  0  0  0  0
    5.0970    0.4750   20.4360 C   0  0  0  0  0  0  0  0  0  0  0  0
    0.5970    4.5850   24.6050 C   0  0  0  0  0  0  0  0  0  0  0  0
   -0.6900    4.8490   25.1170 C   0  0  0  0  0  0  0  0  0  0  0  0
   -1.7650    4.6580   24.2130 C   0  0  0  0  0  0  0  0  0  0  0  0
   -1.8070    3.3570   23.6890 C   0  0  0  0  0  0  0  0  0  0  0  0
   -0.4800    2.6500   23.4020 C   0  0  0  0  0  0  0  0  0  0  0  0
    0.7750    3.2450   24.0770 C   0  0  0  0  0  0  0  0  0  0  0  0
   10.5090    0.4680   23.7410 C   0  0  0  0  0  0  0  0  0  0  0  0
   12.0220    0.6310   23.8660 C   0  0  0  0  0  0  0  0  0  0  0  0
   12.8290   -0.1730   23.1120 C   0  0  0  0  0  0  0  0  0  0  0  0
   12.2910   -1.1230   22.2460 C   0  0  0  0  0  0  0  0  0  0  0  0
   10.9190   -1.2760   22.1280 C   0  0  0  0  0  0  0  0  0  0  0  0
   10.0420   -0.4990   22.8530 C   0  0  0  0  0  0  0  0  0  0  0  0
  1  2  2  0
  2  3  1  0
  3  4  1  0
  4  5  1  0
  2  6  1  0
  7 11  2  0
  9 11  1  0
 10 11  1  0
  9 12  1  0
 12 13  2  0
 13 14  1  0
 14 15  2  0
 15 16  1  0
  5 17  1  0
 12 17  1  0
 16 17  2  0
 18 19  1  0
 19 20  1  0
 20 21  1  0
 21 22  1  0
  6 23  1  0
 18 23  1  0
 22 23  1  0
 24 25  2  0
 25 26  1  0
  8 27  1  0
 26 27  2  0
 27 28  1  0
 10 29  1  0
 24 29  1  0
 28 29  2  0
M  END
