x0540-x0967
     RDKit          3D

 31 32  0  0  0  0  0  0  0  0999 V2000
    7.5000    4.9600   22.3910 C   0  0  0  0  0  0  0  0  0  0  0  0
    7.7730    2.6200   22.8840 N   0  0  0  0  0  0  0  0  0  0  0  0
    6.0530    3.7300   23.8640 O   0  0  0  0  0  0  0  0  0  0  0  0
    7.0250    3.7310   23.1170 C   0  0  0  0  0  0  0  0  0  0  0  0
    8.5280   -0.8910   22.8020 N   0  0  0  0  0  0  0  0  0  0  0  0
    5.8800    0.8410   16.8930 O   0  0  0  0  0  0  0  0  0  0  0  0
    7.3060    1.2560   23.1230 C   0  0  1  0  0  0  0  0  0  0  0  0
    9.1060    0.9540   21.5860 O   0  0  0  0  0  0  0  0  0  0  0  0
    5.8050    1.0540   22.6560 C   0  0  2  0  0  0  0  0  0  0  0  0
    8.3800    0.4220   22.4240 C   0  0  0  0  0  0  0  0  0  0  0  0
    9.5200   -1.7520   22.2160 C   0  0  0  0  0  0  0  0  0  0  0  0
   10.7820   -1.1240   22.2320 C   0  0  0  0  0  0  0  0  0  0  0  0
   11.8460   -1.6350   23.0050 C   0  0  0  0  0  0  0  0  0  0  0  0
   13.2270   -2.2870   24.1370 Br  0  0  0  0  0  0  0  0  0  0  0  0
    3.1780    1.2090   24.4800 O   0  0  0  0  0  0  0  0  0  0  0  0
    3.4470    2.0410   23.6230 C   0  0  0  0  0  0  0  0  0  0  0  0
    4.7460    2.1490   23.0080 N   0  0  0  0  0  0  0  0  0  0  0  0
    2.4630    2.9900   23.1940 N   0  0  0  0  0  0  0  0  0  0  0  0
    5.2900   -0.3410   23.0310 C   0  0  0  0  0  0  0  0  0  0  0  0
    5.8450    0.9750   21.1310 C   0  0  0  0  0  0  0  0  0  0  0  0
    6.6650    0.0640   20.4200 C   0  0  0  0  0  0  0  0  0  0  0  0
    6.6980   -0.0070   19.0480 C   0  0  0  0  0  0  0  0  0  0  0  0
    5.8420    0.9070   18.1950 C   0  0  0  0  0  0  0  0  0  0  0  0
    4.9380    1.9060   18.8950 C   0  0  0  0  0  0  0  0  0  0  0  0
    5.0170    1.8580   20.4410 C   0  0  0  0  0  0  0  0  0  0  0  0
    1.1520    4.2760   24.6280 C   0  0  0  0  0  0  0  0  0  0  0  0
   -0.1240    4.6710   25.0900 C   0  0  0  0  0  0  0  0  0  0  0  0
   -1.1660    4.5040   24.1430 C   0  0  0  0  0  0  0  0  0  0  0  0
   -1.0660    3.2460   23.5190 C   0  0  0  0  0  0  0  0  0  0  0  0
    0.1700    3.1270   22.8750 C   0  0  0  0  0  0  0  0  0  0  0  0
    1.2090    3.1210   23.8190 C   0  0  0  0  0  0  0  0  0  0  0  0
  1  4  1  0
  2  4  1  0
  3  4  2  0
  7  2  1  6
  7  9  1  0
  5 10  1  0
  7 10  1  0
  8 10  2  0
  5 11  1  0
 11 12  1  0
 12 13  3  0
 13 14  1  0
 15 16  2  0
  9 17  1  0
 16 17  1  0
 16 18  1  0
  9 19  1  1
  9 20  1  0
 20 21  2  0
 21 22  1  0
  6 23  1  0
 22 23  2  0
 23 24  1  0
 20 25  1  0
 24 25  2  0
 26 27  1  0
 27 28  1  0
 28 29  1  0
 29 30  1  0
 18 31  1  0
 26 31  1  0
 30 31  1  0
M  END
