x0540-x2705
     RDKit          3D

 45 48  0  0  0  0  0  0  0  0999 V2000
    7.0900   -1.6620   21.7900 N   0  0  0  0  0  0  0  0  0  0  0  0
    6.8480   -4.9820   20.5470 C   0  0  0  0  0  0  0  0  0  0  0  0
    4.8930   -3.0840   21.2360 O   0  0  0  0  0  0  0  0  0  0  0  0
    6.9120   -4.1720   21.8500 C   0  0  0  0  0  0  0  0  0  0  0  0
    7.4630    1.7910   22.7570 N   0  0  0  0  0  0  0  0  0  0  0  0
    8.8860    0.6850   21.3720 O   0  0  0  0  0  0  0  0  0  0  0  0
    6.1880   -2.8800   21.5970 C   0  0  0  0  0  0  0  0  0  0  0  0
    6.7290   -0.2020   21.5330 C   0  0  1  0  0  0  0  0  0  0  0  0
    7.7680    0.7520   21.8670 C   0  0  0  0  0  0  0  0  0  0  0  0
   10.1630    1.8740   23.9380 C   0  0  0  0  0  0  0  0  0  0  0  0
    9.3740    1.1350   24.8290 C   0  0  0  0  0  0  0  0  0  0  0  0
    6.0590    4.3690   21.7600 C   0  0  0  0  0  0  0  0  0  0  0  0
   12.1160   -1.5460   23.2900 C   0  0  0  0  0  0  0  0  0  0  0  0
   12.5270   -0.2540   23.6490 C   0  0  0  0  0  0  0  0  0  0  0  0
   12.6630   -2.5270   24.3580 C   0  0  0  0  0  0  0  0  0  0  0  0
   12.8180   -1.8810   21.9580 C   0  0  0  0  0  0  0  0  0  0  0  0
    2.7330    1.4910   24.5560 O   0  0  0  0  0  0  0  0  0  0  0  0
    2.8310    2.3740   23.7000 C   0  0  0  0  0  0  0  0  0  0  0  0
    3.9910    2.7350   23.0900 N   0  0  0  0  0  0  0  0  0  0  0  0
    4.7620    1.7010   22.4520 C   0  0  0  0  0  0  0  0  0  0  0  0
    4.0190    1.1380   21.4250 C   0  0  0  0  0  0  0  0  0  0  0  0
    1.8020    3.1420   23.2120 N   0  0  0  0  0  0  0  0  0  0  0  0
    6.4340    0.4250   17.8470 N   0  0  0  0  0  0  0  0  0  0  0  0
    5.2490    1.0550   17.7780 C   0  0  0  0  0  0  0  0  0  0  0  0
    4.3590    1.3300   18.9710 C   0  0  0  0  0  0  0  0  0  0  0  0
    4.8240    0.9110   20.1900 C   0  0  0  0  0  0  0  0  0  0  0  0
    6.1430    0.2400   20.2320 C   0  0  0  0  0  0  0  0  0  0  0  0
    6.8570    0.0300   19.0650 C   0  0  0  0  0  0  0  0  0  0  0  0
    9.6720   -1.6780   24.2520 N   0  0  0  0  0  0  0  0  0  0  0  0
    8.3600   -1.7180   23.8930 N   0  0  0  0  0  0  0  0  0  0  0  0
    8.3120   -1.6740   22.5530 C   0  0  0  0  0  0  0  0  0  0  0  0
    9.7830   -1.6040   22.0830 C   0  0  0  0  0  0  0  0  0  0  0  0
   10.5640   -1.6100   23.2190 C   0  0  0  0  0  0  0  0  0  0  0  0
    9.4650    3.1100   23.4500 C   0  0  0  0  0  0  0  0  0  0  0  0
   10.1870    4.3020   23.5980 C   0  0  0  0  0  0  0  0  0  0  0  0
    9.5730    5.6220   23.1360 C   0  0  0  0  0  0  0  0  0  0  0  0
    8.1970    5.6360   22.5250 C   0  0  0  0  0  0  0  0  0  0  0  0
    7.4340    4.3270   22.3750 C   0  0  0  0  0  0  0  0  0  0  0  0
    8.1560    3.0540   22.8770 C   0  0  0  0  0  0  0  0  0  0  0  0
    0.5270    4.7440   24.5590 C   0  0  0  0  0  0  0  0  0  0  0  0
   -0.8010    5.0270   25.2530 C   0  0  0  0  0  0  0  0  0  0  0  0
   -1.9930    4.6760   24.3460 C   0  0  0  0  0  0  0  0  0  0  0  0
   -1.9460    3.2430   23.8270 C   0  0  0  0  0  0  0  0  0  0  0  0
   -0.6360    2.9600   23.1110 C   0  0  0  0  0  0  0  0  0  0  0  0
    0.5860    3.3160   23.9810 C   0  0  0  0  0  0  0  0  0  0  0  0
  2  4  1  0
  1  7  1  0
  3  7  2  0
  4  7  1  0
  1  8  1  0
  5  9  1  0
  6  9  2  0
  8  9  1  6
 10 11  1  0
 13 14  1  0
 13 15  1  0
 13 16  1  0
 17 18  2  0
 18 19  1  0
 19 20  1  0
 20 21  1  0
 18 22  1  0
 23 24  2  0
 24 25  1  0
 21 26  1  0
 25 26  2  0
  8 27  1  0
 26 27  1  0
 23 28  1  0
 27 28  2  0
 29 30  1  0
  1 31  1  0
 30 31  2  0
 31 32  1  0
 13 33  1  0
 29 33  1  0
 32 33  2  0
 10 34  1  0
 34 35  2  0
 35 36  1  0
 36 37  2  0
 12 38  1  0
 37 38  1  0
  5 39  1  0
 34 39  1  0
 38 39  2  0
 40 41  1  0
 41 42  1  0
 42 43  1  0
 43 44  1  0
 22 45  1  0
 40 45  1  0
 44 45  1  0
M  END
