x0540-x1493
     RDKit          3D

 34 36  0  0  0  0  0  0  0  0999 V2000
    2.8720    1.4980   24.1610 O   0  0  0  0  0  0  0  0  0  0  0  0
    2.8660    2.2760   23.2160 C   0  0  0  0  0  0  0  0  0  0  0  0
    3.7480    2.1340   22.2890 N   0  0  0  0  0  0  0  0  0  0  0  0
    5.1040    1.7590   22.6210 C   0  0  0  0  0  0  0  0  0  0  0  0
    5.5740    0.4590   22.0600 C   0  0  1  0  0  0  0  0  0  0  0  0
    1.9190    3.2860   23.1670 N   0  0  0  0  0  0  0  0  0  0  0  0
    4.9010   -0.7060   22.3950 C   0  0  0  0  0  0  0  0  0  0  0  0
    5.4460   -1.8530   21.8150 C   0  0  0  0  0  0  0  0  0  0  0  0
    5.4230   -2.9190   22.6920 C   0  0  0  0  0  0  0  0  0  0  0  0
    6.7110   -0.2780   19.9590 C   0  0  0  0  0  0  0  0  0  0  0  0
    6.8770   -0.2690   18.5860 C   0  0  0  0  0  0  0  0  0  0  0  0
    6.1400    0.4580   17.7220 N   0  0  0  0  0  0  0  0  0  0  0  0
    5.1120    1.2720   18.3500 C   0  0  0  0  0  0  0  0  0  0  0  0
    4.9010    1.2980   19.7200 C   0  0  0  0  0  0  0  0  0  0  0  0
    5.7160    0.5090   20.5520 C   0  0  0  0  0  0  0  0  0  0  0  0
    0.6260    4.5070   24.6520 C   0  0  0  0  0  0  0  0  0  0  0  0
   -0.6520    4.9700   25.0030 C   0  0  0  0  0  0  0  0  0  0  0  0
   -1.7440    4.4980   24.2560 C   0  0  0  0  0  0  0  0  0  0  0  0
   -1.7280    3.1870   23.7670 C   0  0  0  0  0  0  0  0  0  0  0  0
   -0.5040    2.8500   23.1720 C   0  0  0  0  0  0  0  0  0  0  0  0
    0.7210    3.2670   24.0030 C   0  0  0  0  0  0  0  0  0  0  0  0
    4.8670   -6.1740   26.1610 C   0  0  0  0  0  0  0  0  0  0  0  0
    7.2780   -5.4960   26.2940 O   0  0  0  0  0  0  0  0  0  0  0  0
    6.1320   -5.5760   25.5410 C   0  0  0  0  0  0  0  0  0  0  0  0
    5.3750   -4.7150   19.9730 O   0  0  0  0  0  0  0  0  0  0  0  0
    6.4630   -4.4880   20.4890 C   0  0  0  0  0  0  0  0  0  0  0  0
    7.3780   -3.4300   19.8770 C   0  0  0  0  0  0  0  0  0  0  0  0
    6.0850   -5.1460   24.2210 N   0  0  0  0  0  0  0  0  0  0  0  0
    7.2190   -4.3150   23.7700 C   0  0  1  0  0  0  0  0  0  0  0  0
    7.7400   -4.8130   22.6110 C   0  0  0  0  0  0  0  0  0  0  0  0
    6.8690   -5.2170   21.6100 N   0  0  0  0  0  0  0  0  0  0  0  0
    5.9430   -6.2420   22.0960 C   0  0  0  0  0  0  0  0  0  0  0  0
    5.2350   -5.8550   23.2300 C   0  0  0  0  0  0  0  0  0  0  0  0
    6.7340   -2.9020   23.4710 C   0  0  0  0  0  0  0  0  0  0  0  0
  1  2  2  0
  2  3  1  0
  3  4  1  0
  5  4  1  6
  2  6  1  0
  5  7  1  0
  7  8  1  0
  8  9  1  0
 10 11  2  0
 11 12  1  0
 12 13  2  0
 13 14  1  0
  5 15  1  0
 10 15  1  0
 14 15  2  0
 16 17  1  0
 17 18  1  0
 18 19  1  0
 19 20  1  0
  6 21  1  0
 16 21  1  0
 20 21  1  0
 22 24  1  0
 23 24  2  0
 25 26  2  0
 26 27  1  0
 24 28  1  0
 28 29  1  0
 29 30  1  0
 26 31  1  0
 30 31  1  0
 31 32  1  0
 28 33  1  0
 32 33  1  0
  9 34  1  0
 29 34  1  6
M  END
