x0540-x2694
     RDKit          3D

 45 48  0  0  0  0  0  0  0  0999 V2000
    7.0670   -1.5740   21.8070 N   0  0  0  0  0  0  0  0  0  0  0  0
    6.8260   -4.8380   20.4450 C   0  0  0  0  0  0  0  0  0  0  0  0
    4.8720   -3.0470   21.2350 O   0  0  0  0  0  0  0  0  0  0  0  0
    6.9410   -4.0740   21.7610 C   0  0  0  0  0  0  0  0  0  0  0  0
    7.5780    1.9390   22.7390 N   0  0  0  0  0  0  0  0  0  0  0  0
    8.9420    0.6950   21.4220 O   0  0  0  0  0  0  0  0  0  0  0  0
    6.1730   -2.8020   21.5750 C   0  0  0  0  0  0  0  0  0  0  0  0
   11.0250    6.5530   23.8230 O   0  0  0  0  0  0  0  0  0  0  0  0
    6.7380   -0.0880   21.6130 C   0  0  1  0  0  0  0  0  0  0  0  0
    7.8290    0.8350   21.9060 C   0  0  0  0  0  0  0  0  0  0  0  0
   10.3870    1.7600   24.0770 C   0  0  0  0  0  0  0  0  0  0  0  0
   11.8320    6.4190   24.9940 C   0  0  0  0  0  0  0  0  0  0  0  0
   12.1800   -1.5390   23.3190 C   0  0  0  0  0  0  0  0  0  0  0  0
   12.6030   -0.0850   23.5540 C   0  0  0  0  0  0  0  0  0  0  0  0
   12.8650   -1.9500   22.0010 C   0  0  0  0  0  0  0  0  0  0  0  0
   12.5600   -2.4680   24.3060 C   0  0  0  0  0  0  0  0  0  0  0  0
    2.8140    1.5340   24.5200 O   0  0  0  0  0  0  0  0  0  0  0  0
    2.8840    2.4240   23.6730 C   0  0  0  0  0  0  0  0  0  0  0  0
    4.0470    2.8690   23.1160 N   0  0  0  0  0  0  0  0  0  0  0  0
    4.8990    1.9300   22.4490 C   0  0  0  0  0  0  0  0  0  0  0  0
    4.1970    1.1890   21.4970 C   0  0  0  0  0  0  0  0  0  0  0  0
    1.8190    3.1080   23.1580 N   0  0  0  0  0  0  0  0  0  0  0  0
    6.4350    0.5570   17.8010 N   0  0  0  0  0  0  0  0  0  0  0  0
    5.1330    1.2800   17.7530 C   0  0  0  0  0  0  0  0  0  0  0  0
    4.4180    1.4740   18.9320 C   0  0  0  0  0  0  0  0  0  0  0  0
    4.9930    0.9680   20.2440 C   0  0  0  0  0  0  0  0  0  0  0  0
    6.1900    0.3400   20.2810 C   0  0  0  0  0  0  0  0  0  0  0  0
    6.9030    0.1310   18.9760 C   0  0  0  0  0  0  0  0  0  0  0  0
    8.4860   -1.9460   23.8590 N   0  0  0  0  0  0  0  0  0  0  0  0
    9.8640   -1.9140   24.1910 O   0  0  0  0  0  0  0  0  0  0  0  0
   10.6710   -1.6160   23.1190 C   0  0  0  0  0  0  0  0  0  0  0  0
    9.7830   -1.4550   22.0840 C   0  0  0  0  0  0  0  0  0  0  0  0
    8.3370   -1.6640   22.5370 C   0  0  0  0  0  0  0  0  0  0  0  0
    9.7420    3.0920   23.6110 C   0  0  0  0  0  0  0  0  0  0  0  0
   10.5230    4.2640   23.8390 C   0  0  0  0  0  0  0  0  0  0  0  0
   10.1300    5.5500   23.5090 C   0  0  0  0  0  0  0  0  0  0  0  0
    8.7840    5.7600   22.8450 C   0  0  0  0  0  0  0  0  0  0  0  0
    7.8960    4.5590   22.5630 C   0  0  0  0  0  0  0  0  0  0  0  0
    8.3480    3.1470   22.9470 C   0  0  0  0  0  0  0  0  0  0  0  0
    0.5640    4.6940   24.5180 C   0  0  0  0  0  0  0  0  0  0  0  0
   -0.7490    5.0200   25.2350 C   0  0  0  0  0  0  0  0  0  0  0  0
   -1.9620    4.7190   24.3590 C   0  0  0  0  0  0  0  0  0  0  0  0
   -1.9280    3.2720   23.8380 C   0  0  0  0  0  0  0  0  0  0  0  0
   -0.6290    2.9240   23.1190 C   0  0  0  0  0  0  0  0  0  0  0  0
    0.6040    3.2770   23.9400 C   0  0  0  0  0  0  0  0  0  0  0  0
  2  4  1  0
  1  7  1  0
  3  7  2  0
  4  7  1  0
  1  9  1  0
  5 10  1  0
  6 10  2  0
  9 10  1  6
  8 12  1  0
 13 14  1  0
 13 15  1  0
 13 16  1  0
 17 18  2  0
 18 19  1  0
 19 20  1  0
 20 21  1  0
 18 22  1  0
 23 24  2  0
 24 25  1  0
 21 26  1  0
 25 26  2  0
  9 27  1  0
 26 27  1  0
 23 28  1  0
 27 28  2  0
 29 30  1  0
 13 31  1  0
 30 31  1  0
 31 32  2  0
  1 33  1  0
 29 33  2  0
 32 33  1  0
 11 34  1  0
 34 35  2  0
  8 36  1  0
 35 36  1  0
 36 37  2  0
 37 38  1  0
  5 39  1  0
 34 39  1  0
 38 39  2  0
 40 41  1  0
 41 42  1  0
 42 43  1  0
 43 44  1  0
 22 45  1  0
 40 45  1  0
 44 45  1  0
M  END
