x0540-x2097
     RDKit          3D

 27 29  0  0  0  0  0  0  0  0999 V2000
    6.6970    1.8480   24.5170 O   0  0  0  0  0  0  0  0  0  0  0  0
    6.0380    1.6540   23.2840 C   0  0  0  0  0  0  0  0  0  0  0  0
    6.3060    0.4390   22.5020 N   0  0  0  0  0  0  0  0  0  0  0  0
    5.6070   -0.6750   22.9370 C   0  0  0  0  0  0  0  0  0  0  0  0
    5.4840   -1.6420   22.0330 C   0  0  2  0  0  0  0  0  0  0  0  0
    5.1780    2.6940   22.9510 N   0  0  0  0  0  0  0  0  0  0  0  0
    5.5990   -5.1610   20.0260 N   0  0  0  0  0  0  0  0  0  0  0  0
    6.3420   -4.1210   20.1750 C   0  0  0  0  0  0  0  0  0  0  0  0
    6.1350   -2.9720   22.5180 C   0  0  0  0  0  0  0  0  0  0  0  0
    7.1720   -1.0590   19.9740 C   0  0  0  0  0  0  0  0  0  0  0  0
    7.1940   -0.4680   18.7050 C   0  0  0  0  0  0  0  0  0  0  0  0
    6.1580    0.1030   18.0420 N   0  0  0  0  0  0  0  0  0  0  0  0
    4.9780    0.1020   18.6560 C   0  0  0  0  0  0  0  0  0  0  0  0
    4.7840   -0.4540   19.9140 C   0  0  0  0  0  0  0  0  0  0  0  0
    5.8130   -1.0660   20.6610 C   0  0  0  0  0  0  0  0  0  0  0  0
    2.9480    3.4180   22.3900 C   0  0  0  0  0  0  0  0  0  0  0  0
    1.7460    3.1820   21.6760 C   0  0  0  0  0  0  0  0  0  0  0  0
    1.8520    2.7380   20.3350 C   0  0  0  0  0  0  0  0  0  0  0  0
    3.1560    2.0600   19.8670 C   0  0  0  0  0  0  0  0  0  0  0  0
    4.3270    1.9630   20.8690 C   0  0  0  0  0  0  0  0  0  0  0  0
    3.9140    2.4210   22.3030 C   0  0  0  0  0  0  0  0  0  0  0  0
    6.2390   -3.5250   21.5830 C   0  0  0  0  0  0  0  0  0  0  0  0
    7.3440   -2.8200   22.1420 N   0  0  0  0  0  0  0  0  0  0  0  0
    7.1720   -2.3660   23.5840 C   0  0  0  0  0  0  0  0  0  0  0  0
    5.9370   -2.7750   23.9620 C   0  0  0  0  0  0  0  0  0  0  0  0
    4.8290   -3.4050   23.4790 C   0  0  0  0  0  0  0  0  0  0  0  0
    4.9690   -3.8190   22.1790 N   0  0  0  0  0  0  0  0  0  0  0  0
  1  2  2  0
  2  3  1  0
  3  4  1  0
  5  4  1  1
  2  6  1  0
  7  8  2  3
  5  9  1  0
 10 11  2  0
 11 12  1  0
 12 13  2  0
 13 14  1  0
  5 15  1  0
 10 15  1  0
 14 15  2  0
 16 17  1  0
 17 18  1  0
 18 19  1  0
 19 20  1  0
  6 21  1  0
 16 21  1  0
 20 21  1  0
  8 22  1  0
 22 23  2  0
 23 24  1  0
  9 25  1  0
 24 25  2  0
 25 26  1  0
 22 27  1  0
 26 27  2  0
M  END
