x0540-x1249
     RDKit          3D

 34 38  0  0  0  0  0  0  0  0999 V2000
    3.2350    2.0890   23.3790 C   0  0  0  0  0  0  0  0  0  0  0  0
    3.9220    2.1660   22.2960 N   0  0  0  0  0  0  0  0  0  0  0  0
    6.3610    1.2280   21.7010 C   0  0  0  0  0  0  0  0  0  0  0  0
    2.4480    3.0320   24.0610 N   0  0  0  0  0  0  0  0  0  0  0  0
    7.7940    0.7220   24.8960 N   0  0  0  0  0  0  0  0  0  0  0  0
    7.0440    1.6590   24.2110 C   0  0  0  0  0  0  0  0  0  0  0  0
    7.6190    2.6350   23.7360 O   0  0  0  0  0  0  0  0  0  0  0  0
    9.1890    1.0200   25.2280 C   0  0  0  0  0  0  0  0  0  0  0  0
   13.5370   -2.6390   20.7260 N   0  0  0  0  0  0  0  0  0  0  0  0
   12.8990   -1.8210   21.6130 C   0  0  0  0  0  0  0  0  0  0  0  0
    6.6110   -0.3100   19.7580 C   0  0  0  0  0  0  0  0  0  0  0  0
    6.3890   -0.6280   18.4350 C   0  0  0  0  0  0  0  0  0  0  0  0
    5.7000    0.1170   17.5500 N   0  0  0  0  0  0  0  0  0  0  0  0
    5.1720    1.2650   18.0010 C   0  0  0  0  0  0  0  0  0  0  0  0
    5.3650    1.6820   19.4350 C   0  0  0  0  0  0  0  0  0  0  0  0
    6.1000    0.8680   20.2860 C   0  0  0  0  0  0  0  0  0  0  0  0
    0.7970    4.7340   24.4670 C   0  0  0  0  0  0  0  0  0  0  0  0
   -0.4750    4.7390   25.0840 C   0  0  0  0  0  0  0  0  0  0  0  0
   -1.5230    4.3100   24.2630 C   0  0  0  0  0  0  0  0  0  0  0  0
   -1.2090    3.2460   23.4120 C   0  0  0  0  0  0  0  0  0  0  0  0
   -0.0110    2.5720   23.7090 C   0  0  0  0  0  0  0  0  0  0  0  0
    1.1120    3.4310   23.6930 C   0  0  0  0  0  0  0  0  0  0  0  0
    3.6540    0.8630   23.7330 C   0  0  0  0  0  0  0  0  0  0  0  0
    4.3640    0.2660   22.7640 C   0  0  0  0  0  0  0  0  0  0  0  0
    5.2240    1.3790   22.6980 C   0  0  2  0  0  0  0  0  0  0  0  0
    5.6460    1.4260   24.0800 N   0  0  0  0  0  0  0  0  0  0  0  0
    4.9300    0.6820   25.1160 C   0  0  0  0  0  0  0  0  0  0  0  0
    3.5580    0.3340   24.9040 C   0  0  0  0  0  0  0  0  0  0  0  0
   11.5420    0.9700   23.8100 C   0  0  0  0  0  0  0  0  0  0  0  0
   12.3550    0.2160   22.9570 C   0  0  0  0  0  0  0  0  0  0  0  0
   12.1000   -1.0790   22.4730 C   0  0  0  0  0  0  0  0  0  0  0  0
   10.9490   -1.6620   22.8850 C   0  0  0  0  0  0  0  0  0  0  0  0
    9.9490   -1.0400   23.7900 C   0  0  0  0  0  0  0  0  0  0  0  0
   10.2070    0.3390   24.3000 C   0  0  0  0  0  0  0  0  0  0  0  0
  1  2  1  0
  1  4  1  0
  5  6  1  0
  6  7  2  0
  5  8  1  0
  9 10  3  0
 11 12  2  0
 12 13  1  0
 13 14  2  0
 14 15  1  0
  3 16  1  0
 11 16  1  0
 15 16  2  0
 17 18  1  0
 18 19  1  0
 19 20  1  0
 20 21  1  0
  4 22  1  0
 17 22  1  0
 21 22  1  0
  1 23  2  0
 23 24  1  0
  2 25  1  0
 25  3  1  6
 24 25  1  0
  6 26  1  0
 25 26  1  0
 26 27  1  0
 23 28  1  0
 27 28  1  0
 29 30  2  0
 10 31  1  0
 30 31  1  0
 31 32  2  0
 32 33  1  0
  8 34  1  0
 29 34  1  0
 33 34  2  0
M  END
