x0540-x3298
     RDKit          3D

 40 43  0  0  0  0  0  0  0  0999 V2000
    7.1170    2.0210   22.1550 N   0  0  0  0  0  0  0  0  0  0  0  0
    7.3230   -0.3500   21.1130 C   0  0  2  0  0  0  0  0  0  0  0  0
    6.6200   -0.9700   22.1900 O   0  0  0  0  0  0  0  0  0  0  0  0
    7.8840    0.9950   21.4680 C   0  0  0  0  0  0  0  0  0  0  0  0
    9.0110    1.2040   23.7540 N   0  0  0  0  0  0  0  0  0  0  0  0
    9.0010    1.3600   21.1380 O   0  0  0  0  0  0  0  0  0  0  0  0
   10.9430    1.8360   24.7240 O   0  0  0  0  0  0  0  0  0  0  0  0
    9.7990   -0.2510   25.7290 O   0  0  0  0  0  0  0  0  0  0  0  0
   13.7040   -1.8570   20.8120 F   0  0  0  0  0  0  0  0  0  0  0  0
   10.2220    0.6190   24.6500 S   0  0  0  0  0  0  0  0  0  0  0  0
    2.8020    1.5540   24.4100 O   0  0  0  0  0  0  0  0  0  0  0  0
    2.8460    2.3980   23.5130 C   0  0  0  0  0  0  0  0  0  0  0  0
    3.9220    2.5950   22.6950 N   0  0  0  0  0  0  0  0  0  0  0  0
    4.8570    1.5200   22.4310 C   0  0  0  0  0  0  0  0  0  0  0  0
    4.3480    0.5760   21.5470 C   0  0  0  0  0  0  0  0  0  0  0  0
    1.8340    3.2660   23.1910 N   0  0  0  0  0  0  0  0  0  0  0  0
    6.3300    0.4820   17.6750 N   0  0  0  0  0  0  0  0  0  0  0  0
    6.9360    0.0770   18.7780 C   0  0  0  0  0  0  0  0  0  0  0  0
    6.3990    0.0890   20.0450 C   0  0  0  0  0  0  0  0  0  0  0  0
    5.0970    0.5200   20.2370 C   0  0  0  0  0  0  0  0  0  0  0  0
    4.3810    0.9870   18.9910 C   0  0  0  0  0  0  0  0  0  0  0  0
    5.0990    0.9230   17.8130 C   0  0  0  0  0  0  0  0  0  0  0  0
    7.8230    4.5280   22.3040 C   0  0  0  0  0  0  0  0  0  0  0  0
    8.7790    5.3870   22.8590 C   0  0  0  0  0  0  0  0  0  0  0  0
    9.7950    4.8860   23.6600 C   0  0  0  0  0  0  0  0  0  0  0  0
    9.8590    3.5110   23.9270 C   0  0  0  0  0  0  0  0  0  0  0  0
    8.9280    2.6240   23.4250 C   0  0  0  0  0  0  0  0  0  0  0  0
    7.9250    3.0290   22.6190 C   0  0  0  0  0  0  0  0  0  0  0  0
   12.4470    0.4500   23.3300 C   0  0  0  0  0  0  0  0  0  0  0  0
   13.3090   -0.0760   22.4430 C   0  0  0  0  0  0  0  0  0  0  0  0
   12.8950   -1.3350   21.7030 C   0  0  0  0  0  0  0  0  0  0  0  0
   11.6740   -1.9510   21.9210 C   0  0  0  0  0  0  0  0  0  0  0  0
   10.7740   -1.4470   22.8180 C   0  0  0  0  0  0  0  0  0  0  0  0
   11.2360   -0.1730   23.5260 C   0  0  0  0  0  0  0  0  0  0  0  0
    0.4540    4.7800   24.5170 C   0  0  0  0  0  0  0  0  0  0  0  0
   -0.7360    4.9980   25.2120 C   0  0  0  0  0  0  0  0  0  0  0  0
   -1.8210    4.7010   24.4120 C   0  0  0  0  0  0  0  0  0  0  0  0
   -1.9080    3.3170   23.7750 C   0  0  0  0  0  0  0  0  0  0  0  0
   -0.5750    2.8330   23.2240 C   0  0  0  0  0  0  0  0  0  0  0  0
    0.6370    3.3390   24.0170 C   0  0  0  0  0  0  0  0  0  0  0  0
  2  3  1  1
  1  4  1  0
  2  4  1  0
  4  6  2  0
 10  5  1  0
  7 10  2  0
  8 10  2  0
 11 12  2  0
 12 13  1  0
 13 14  1  0
 14 15  1  0
 12 16  1  0
 17 18  2  0
  2 19  1  0
 18 19  1  0
 15 20  1  0
 19 20  2  0
 20 21  1  0
 17 22  1  0
 21 22  2  0
 23 24  2  0
 24 25  1  0
 25 26  2  0
  5 27  1  0
 26 27  1  0
  1 28  1  0
 23 28  1  0
 27 28  2  0
 29 30  2  0
  9 31  1  0
 30 31  1  0
 31 32  2  0
 32 33  1  0
 10 34  1  0
 29 34  1  0
 33 34  2  0
 35 36  1  0
 36 37  1  0
 37 38  1  0
 38 39  1  0
 16 40  1  0
 35 40  1  0
 39 40  1  0
M  END
