x0540-x2912
     RDKit          3D

 31 33  0  0  0  0  0  0  0  0999 V2000
    6.8000   -0.6440   21.0900 N   0  0  0  0  0  0  0  0  0  0  0  0
    7.9750   -1.2160   23.8960 C   0  0  0  0  0  0  0  0  0  0  0  0
    8.6090    0.8590   21.3770 O   0  0  0  0  0  0  0  0  0  0  0  0
    8.6410   -1.1780   22.5540 C   0  0  1  0  0  0  0  0  0  0  0  0
    8.0430   -0.2060   21.6320 C   0  0  0  0  0  0  0  0  0  0  0  0
   13.7090   -3.2860   20.5550 N   0  0  0  0  0  0  0  0  0  0  0  0
    4.2810    0.8930   21.6090 C   0  0  0  0  0  0  0  0  0  0  0  0
   13.1970   -2.2940   21.3210 C   0  0  0  0  0  0  0  0  0  0  0  0
    2.8150    1.5460   24.4200 O   0  0  0  0  0  0  0  0  0  0  0  0
    2.9830    2.3540   23.5000 C   0  0  0  0  0  0  0  0  0  0  0  0
    4.2010    2.6920   22.9940 N   0  0  0  0  0  0  0  0  0  0  0  0
    5.0070    1.6960   22.5520 C   0  0  0  0  0  0  0  0  0  0  0  0
    1.9160    2.9700   22.9170 N   0  0  0  0  0  0  0  0  0  0  0  0
    6.3710    0.6610   17.6680 N   0  0  0  0  0  0  0  0  0  0  0  0
    5.2440    1.3830   17.8240 C   0  0  0  0  0  0  0  0  0  0  0  0
    4.5310    1.4620   19.1640 C   0  0  0  0  0  0  0  0  0  0  0  0
    5.0050    0.8010   20.2880 C   0  0  0  0  0  0  0  0  0  0  0  0
    6.1730    0.0880   20.0200 C   0  0  0  0  0  0  0  0  0  0  0  0
    6.8080    0.0270   18.7780 C   0  0  0  0  0  0  0  0  0  0  0  0
   10.7080    0.3410   23.2810 C   0  0  0  0  0  0  0  0  0  0  0  0
   12.0910    0.6010   23.2910 C   0  0  0  0  0  0  0  0  0  0  0  0
   13.0060   -0.2310   22.6700 C   0  0  0  0  0  0  0  0  0  0  0  0
   12.4710   -1.3480   22.0270 C   0  0  0  0  0  0  0  0  0  0  0  0
   11.0050   -1.6560   22.0090 C   0  0  0  0  0  0  0  0  0  0  0  0
   10.1000   -0.8640   22.6060 C   0  0  0  0  0  0  0  0  0  0  0  0
    0.7220    4.4060   24.7150 C   0  0  0  0  0  0  0  0  0  0  0  0
   -0.5270    4.8480   25.1580 C   0  0  0  0  0  0  0  0  0  0  0  0
   -1.6210    4.6050   24.3360 C   0  0  0  0  0  0  0  0  0  0  0  0
   -1.6620    3.1460   23.8210 C   0  0  0  0  0  0  0  0  0  0  0  0
   -0.4190    2.6790   23.4010 C   0  0  0  0  0  0  0  0  0  0  0  0
    0.6640    3.5610   23.4340 C   0  0  0  0  0  0  0  0  0  0  0  0
  4  2  1  1
  1  5  1  0
  3  5  2  0
  4  5  1  0
  6  8  3  0
  9 10  2  0
 10 11  1  0
  7 12  1  0
 11 12  1  0
 10 13  1  0
 14 15  2  0
 15 16  1  0
  7 17  1  0
 16 17  2  0
  1 18  1  0
 17 18  1  0
 14 19  1  0
 18 19  2  0
 20 21  2  0
 21 22  1  0
  8 23  1  0
 22 23  2  0
 23 24  1  0
  4 25  1  0
 20 25  1  0
 24 25  2  0
 26 27  1  0
 27 28  1  0
 28 29  1  0
 29 30  1  0
 13 31  1  0
 26 31  1  0
 30 31  1  0
M  END
