x0540-x2764
     RDKit          3D

 30 32  0  0  0  0  0  0  0  0999 V2000
    8.6010   -1.1230   21.2970 N   0  0  0  0  0  0  0  0  0  0  0  0
    7.2120   -1.2370   21.0440 C   0  0  0  0  0  0  0  0  0  0  0  0
    6.5890   -2.2190   21.4460 O   0  0  0  0  0  0  0  0  0  0  0  0
    8.9680   -1.9850   22.3250 C   0  0  0  0  0  0  0  0  0  0  0  0
    5.5440    1.4430   22.3960 C   0  0  2  0  0  0  0  0  0  0  0  0
    7.8280    4.2200   22.6970 N   0  0  0  0  0  0  0  0  0  0  0  0
    6.8530    2.0020   22.9880 C   0  0  0  0  0  0  0  0  0  0  0  0
    7.2720    3.1340   22.0840 C   0  0  0  0  0  0  0  0  0  0  0  0
    3.1560    1.2150   24.1110 O   0  0  0  0  0  0  0  0  0  0  0  0
    3.2900    2.2410   23.2100 C   0  0  0  0  0  0  0  0  0  0  0  0
    4.4860    2.3880   22.5020 N   0  0  0  0  0  0  0  0  0  0  0  0
    2.1820    3.1240   23.0400 N   0  0  0  0  0  0  0  0  0  0  0  0
    5.1730    0.2490   23.0440 C   0  0  0  0  0  0  0  0  0  0  0  0
   12.7400   -1.6430   22.5850 N   0  0  0  0  0  0  0  0  0  0  0  0
   11.5380   -1.8130   21.9660 C   0  0  0  0  0  0  0  0  0  0  0  0
   10.4060   -1.8150   22.7660 C   0  0  0  0  0  0  0  0  0  0  0  0
   10.7080   -1.6430   24.1100 C   0  0  0  0  0  0  0  0  0  0  0  0
   12.4980   -1.4850   24.2350 S   0  0  0  0  0  0  0  0  0  0  0  0
    6.4560   -0.3340   18.8930 C   0  0  0  0  0  0  0  0  0  0  0  0
    5.7930    0.5430   17.9980 C   0  0  0  0  0  0  0  0  0  0  0  0
    5.0950    1.6610   18.3910 C   0  0  0  0  0  0  0  0  0  0  0  0
    5.0030    1.9940   19.8540 C   0  0  0  0  0  0  0  0  0  0  0  0
    5.6810    1.0890   20.8930 C   0  0  0  0  0  0  0  0  0  0  0  0
    6.4650   -0.1680   20.2890 C   0  0  0  0  0  0  0  0  0  0  0  0
    0.9530    4.3990   24.4330 C   0  0  0  0  0  0  0  0  0  0  0  0
   -0.3200    4.7750   24.8840 C   0  0  0  0  0  0  0  0  0  0  0  0
   -1.4420    4.4450   24.0990 C   0  0  0  0  0  0  0  0  0  0  0  0
   -1.2580    3.1090   23.6850 C   0  0  0  0  0  0  0  0  0  0  0  0
   -0.0340    2.7990   23.0760 C   0  0  0  0  0  0  0  0  0  0  0  0
    1.0790    3.1100   23.8730 C   0  0  0  0  0  0  0  0  0  0  0  0
  1  2  1  0
  2  3  2  0
  1  4  1  0
  5  7  1  0
  6  8  3  0
  7  8  1  0
  9 10  2  0
  5 11  1  0
 10 11  1  0
 10 12  1  0
  5 13  1  1
 14 15  2  0
  4 16  1  0
 15 16  1  0
 16 17  2  0
 14 18  1  0
 17 18  1  0
 19 20  2  0
 20 21  1  0
 21 22  2  0
  5 23  1  0
 22 23  1  0
  2 24  1  0
 19 24  1  0
 23 24  2  0
 25 26  1  0
 26 27  1  0
 27 28  1  0
 28 29  1  0
 12 30  1  0
 25 30  1  0
 29 30  1  0
M  END
