x0540-x3110
     RDKit          3D

 44 46  0  0  0  0  0  0  0  0999 V2000
    7.9830    0.9410   23.2340 N   0  0  0  0  0  0  0  0  0  0  0  0
   13.3960    5.1040   22.6640 C   0  0  0  0  0  0  0  0  0  0  0  0
   11.9380    3.2230   22.5470 O   0  0  0  0  0  0  0  0  0  0  0  0
   12.2460    4.3260   22.0860 C   0  0  0  0  0  0  0  0  0  0  0  0
    7.0590   -1.7950   21.6210 N   0  0  0  0  0  0  0  0  0  0  0  0
   10.8570    4.3920   24.1300 O   0  0  0  0  0  0  0  0  0  0  0  0
   11.0590    3.2770   23.3940 C   0  0  0  0  0  0  0  0  0  0  0  0
    8.4400    1.0740   21.0090 O   0  0  0  0  0  0  0  0  0  0  0  0
   10.2620    1.9700   23.4890 C   0  0  0  0  0  0  0  0  0  0  0  0
    4.8420   -2.9970   21.1050 O   0  0  0  0  0  0  0  0  0  0  0  0
    8.7710    2.2070   23.5870 C   0  0  0  0  0  0  0  0  0  0  0  0
    7.7620    0.5350   21.8790 C   0  0  0  0  0  0  0  0  0  0  0  0
    6.7580   -0.4370   21.4960 C   0  0  1  0  0  0  0  0  0  0  0  0
    6.1200   -2.9310   21.3500 C   0  0  0  0  0  0  0  0  0  0  0  0
    6.7020   -4.3230   21.3580 C   0  0  0  0  0  0  0  0  0  0  0  0
    8.1780   -4.3770   20.9630 C   0  0  0  0  0  0  0  0  0  0  0  0
   12.3750   -1.8370   24.1670 C   0  0  0  0  0  0  0  0  0  0  0  0
   12.4890   -0.6680   24.9280 C   0  0  0  0  0  0  0  0  0  0  0  0
   13.3830   -1.7430   23.0730 C   0  0  0  0  0  0  0  0  0  0  0  0
   12.7890   -3.0280   25.0260 C   0  0  0  0  0  0  0  0  0  0  0  0
    2.8640    1.5070   24.4600 O   0  0  0  0  0  0  0  0  0  0  0  0
    2.9280    2.4160   23.6350 C   0  0  0  0  0  0  0  0  0  0  0  0
    4.2080    2.8850   22.9360 N   0  0  0  0  0  0  0  0  0  0  0  0
    5.0120    1.6410   22.6460 C   0  0  0  0  0  0  0  0  0  0  0  0
    4.3090    0.8360   21.5290 C   0  0  0  0  0  0  0  0  0  0  0  0
    1.8700    3.1740   23.1970 N   0  0  0  0  0  0  0  0  0  0  0  0
    6.4200    0.3860   17.7770 N   0  0  0  0  0  0  0  0  0  0  0  0
    5.1220    1.1140   17.8310 C   0  0  0  0  0  0  0  0  0  0  0  0
    4.4740    1.2280   19.0630 C   0  0  0  0  0  0  0  0  0  0  0  0
    5.0470    0.6840   20.2170 C   0  0  0  0  0  0  0  0  0  0  0  0
    6.2560    0.0310   20.1740 C   0  0  0  0  0  0  0  0  0  0  0  0
    6.8960   -0.1090   18.9620 C   0  0  0  0  0  0  0  0  0  0  0  0
    9.5870   -1.2190   21.7220 C   0  0  0  0  0  0  0  0  0  0  0  0
   10.7670   -1.2910   22.4010 C   0  0  0  0  0  0  0  0  0  0  0  0
   10.9610   -1.9210   23.5830 C   0  0  0  0  0  0  0  0  0  0  0  0
    9.8790   -2.5710   24.1680 C   0  0  0  0  0  0  0  0  0  0  0  0
    8.6370   -2.5730   23.5990 C   0  0  0  0  0  0  0  0  0  0  0  0
    8.3540   -1.8960   22.3240 C   0  0  0  0  0  0  0  0  0  0  0  0
    0.5380    4.7270   24.5390 C   0  0  0  0  0  0  0  0  0  0  0  0
   -0.7030    4.9410   25.1120 C   0  0  0  0  0  0  0  0  0  0  0  0
   -1.8280    4.5990   24.3550 C   0  0  0  0  0  0  0  0  0  0  0  0
   -1.9020    3.3210   23.7960 C   0  0  0  0  0  0  0  0  0  0  0  0
   -0.5780    2.8990   23.1660 C   0  0  0  0  0  0  0  0  0  0  0  0
    0.6560    3.3000   23.9880 C   0  0  0  0  0  0  0  0  0  0  0  0
  2  4  1  0
  3  4  1  0
  3  7  1  0
  6  7  2  0
  7  9  1  0
  1 11  1  0
  9 11  1  0
  1 12  1  0
  8 12  2  0
  5 13  1  0
 13 12  1  6
  5 14  1  0
 10 14  2  0
 14 15  1  0
 15 16  1  0
 17 18  1  0
 17 19  1  0
 17 20  1  0
 21 22  2  0
 22 23  1  0
 23 24  1  0
 24 25  1  0
 22 26  1  0
 27 28  2  0
 28 29  1  0
 25 30  1  0
 29 30  2  0
 13 31  1  0
 30 31  1  0
 27 32  1  0
 31 32  2  0
 33 34  2  0
 17 35  1  0
 34 35  1  0
 35 36  2  0
 36 37  1  0
  5 38  1  0
 33 38  1  0
 37 38  2  0
 39 40  1  0
 40 41  1  0
 41 42  1  0
 42 43  1  0
 26 44  1  0
 39 44  1  0
 43 44  1  0
M  END
