x0678-x0426
     RDKit          3D

 28 30  0  0  0  0  0  0  0  0999 V2000
    2.3770    1.9420   23.8160 C   0  0  0  0  0  0  0  0  0  0  0  0
    2.2490    0.5180   23.7330 O   0  0  0  0  0  0  0  0  0  0  0  0
    3.4380    2.7170   23.3240 N   0  0  0  0  0  0  0  0  0  0  0  0
    4.4680    2.2220   22.4250 C   0  0  0  0  0  0  0  0  0  0  0  0
    4.3080    0.8590   21.7050 C   0  0  0  0  0  0  0  0  0  0  0  0
    2.7770    4.2840   25.1930 F   0  0  0  0  0  0  0  0  0  0  0  0
    9.1620    1.3280   21.2920 O   0  0  0  0  0  0  0  0  0  0  0  0
    8.4990    0.1640   21.8090 C   0  0  0  0  0  0  0  0  0  0  0  0
    8.9560   -0.7050   23.0390 C   0  0  0  0  0  0  0  0  0  0  0  0
    7.2930   -0.4320   21.3540 N   0  0  0  0  0  0  0  0  0  0  0  0
    1.5270    3.7950   25.2020 C   0  0  0  0  0  0  0  0  0  0  0  0
    1.1930    2.6080   24.5370 C   0  0  0  0  0  0  0  0  0  0  0  0
   -0.1110    2.0760   24.5330 C   0  0  0  0  0  0  0  0  0  0  0  0
   -1.1590    2.7150   25.2030 C   0  0  0  0  0  0  0  0  0  0  0  0
   -0.9230    4.0300   25.9720 C   0  0  0  0  0  0  0  0  0  0  0  0
    0.5370    4.5100   25.9030 C   0  0  0  0  0  0  0  0  0  0  0  0
    6.3950    0.1170   20.2600 C   0  0  0  0  0  0  0  0  0  0  0  0
    6.9910   -0.0090   19.0260 C   0  0  0  0  0  0  0  0  0  0  0  0
    6.4220    0.4320   17.9010 N   0  0  0  0  0  0  0  0  0  0  0  0
    5.2330    1.0030   17.9750 C   0  0  0  0  0  0  0  0  0  0  0  0
    4.5390    1.1550   19.1590 C   0  0  0  0  0  0  0  0  0  0  0  0
    5.0920    0.7070   20.3790 C   0  0  0  0  0  0  0  0  0  0  0  0
   11.2620   -0.8640   22.2450 C   0  0  0  0  0  0  0  0  0  0  0  0
   12.6250   -1.6230   22.3720 C   0  0  0  0  0  0  0  0  0  0  0  0
   12.8960   -1.6560   23.9160 C   0  0  0  0  0  0  0  0  0  0  0  0
   12.4070   -0.4590   24.4310 C   0  0  0  0  0  0  0  0  0  0  0  0
   11.0150   -0.3330   24.4490 C   0  0  0  0  0  0  0  0  0  0  0  0
   10.4410   -0.9730   23.3640 C   0  0  0  0  0  0  0  0  0  0  0  0
  1  2  2  0
  1  3  1  0
  3  4  1  0
  4  5  1  0
  7  8  2  0
  8  9  1  0
  8 10  1  0
  6 11  1  0
  1 12  1  0
 11 12  2  0
 12 13  1  0
 13 14  2  0
 14 15  1  0
 11 16  1  0
 15 16  2  0
 10 17  1  0
 17 18  2  0
 18 19  1  0
 19 20  2  0
 20 21  1  0
  5 22  1  0
 17 22  1  0
 21 22  2  0
 23 24  1  0
 24 25  1  0
 25 26  1  0
 26 27  1  0
  9 28  1  0
 23 28  1  0
 27 28  1  0
M  END
