x0678-x0736
     RDKit          3D

 32 36  0  0  0  0  0  0  0  0999 V2000
    7.3350   -2.9220   18.9290 C   0  0  0  0  0  0  0  0  0  0  0  0
    5.4380   -4.0570   19.7430 O   0  0  0  0  0  0  0  0  0  0  0  0
    6.3740   -3.2760   20.0250 C   0  0  0  0  0  0  0  0  0  0  0  0
    6.0940   -2.7080   24.8580 O   0  0  0  0  0  0  0  0  0  0  0  0
    7.2490   -2.4380   24.5640 C   0  0  0  0  0  0  0  0  0  0  0  0
    9.1600    1.0190   21.3600 O   0  0  0  0  0  0  0  0  0  0  0  0
    8.6570   -0.0980   21.6000 C   0  0  0  0  0  0  0  0  0  0  0  0
    8.8460   -0.9780   22.8430 C   0  0  1  0  0  0  0  0  0  0  0  0
    7.8100   -0.8460   20.8870 N   0  0  0  0  0  0  0  0  0  0  0  0
    6.4980   -2.8200   21.3500 N   0  0  0  0  0  0  0  0  0  0  0  0
    7.3300   -1.7680   21.8330 C   0  0  1  0  0  0  0  0  0  0  0  0
    8.3300   -2.4470   22.5870 C   0  0  2  0  0  0  0  0  0  0  0  0
    7.9040   -3.0640   23.4950 N   0  0  0  0  0  0  0  0  0  0  0  0
    7.1760   -4.2550   23.0860 C   0  0  0  0  0  0  0  0  0  0  0  0
    6.0660   -3.6400   22.4840 C   0  0  0  0  0  0  0  0  0  0  0  0
    8.4860   -0.1180   24.8980 O   0  0  0  0  0  0  0  0  0  0  0  0
    8.0570   -1.3940   25.3510 C   0  0  0  0  0  0  0  0  0  0  0  0
    8.5480   -1.5280   26.7720 C   0  0  0  0  0  0  0  0  0  0  0  0
    9.2220   -0.4010   27.1050 C   0  0  0  0  0  0  0  0  0  0  0  0
    9.1970    0.4470   26.0080 C   0  0  0  0  0  0  0  0  0  0  0  0
   11.0210   -1.4230   22.0380 C   0  0  0  0  0  0  0  0  0  0  0  0
   12.3670   -1.6550   22.2990 C   0  0  0  0  0  0  0  0  0  0  0  0
   13.0810   -0.6700   23.0040 C   0  0  0  0  0  0  0  0  0  0  0  0
   12.4150    0.1150   23.8850 C   0  0  0  0  0  0  0  0  0  0  0  0
   10.8750   -0.0300   24.1070 C   0  0  0  0  0  0  0  0  0  0  0  0
   10.2610   -1.0900   23.1380 C   0  0  0  0  0  0  0  0  0  0  0  0
    5.8150    0.6130   20.5030 C   0  0  0  0  0  0  0  0  0  0  0  0
    4.9950    1.2970   19.6080 C   0  0  0  0  0  0  0  0  0  0  0  0
    5.2300    1.2790   18.2570 C   0  0  0  0  0  0  0  0  0  0  0  0
    6.3630    0.5220   17.7220 N   0  0  0  0  0  0  0  0  0  0  0  0
    7.1000   -0.1080   18.6550 C   0  0  0  0  0  0  0  0  0  0  0  0
    6.9060   -0.1140   20.0300 C   0  0  0  0  0  0  0  0  0  0  0  0
  1  3  1  0
  2  3  2  0
  4  5  2  0
  6  7  2  0
  7  8  1  0
  7  9  1  0
  3 10  1  0
 11  9  1  6
 10 11  1  0
  8 12  1  0
 11 12  1  0
  5 13  1  0
 12 13  1  1
 13 14  1  0
 10 15  1  0
 14 15  1  0
  5 17  1  0
 16 17  1  0
 17 18  2  0
 18 19  1  0
 16 20  1  0
 19 20  2  0
 21 22  1  0
 22 23  1  0
 23 24  1  0
 24 25  1  0
  8 26  1  6
 21 26  1  0
 25 26  1  0
 27 28  2  0
 28 29  1  0
 29 30  2  0
 30 31  1  0
  9 32  1  0
 27 32  1  0
 31 32  2  0
M  END
