x0678-x1425
     RDKit          3D

 34 37  0  0  0  0  0  0  0  0999 V2000
    1.3000   -2.3890   28.2430 C   0  0  0  0  0  0  0  0  0  0  0  0
    2.7010   -2.1170   28.2400 O   0  0  0  0  0  0  0  0  0  0  0  0
    5.2370   -4.4510   19.8270 O   0  0  0  0  0  0  0  0  0  0  0  0
    6.3020   -3.9350   20.1570 C   0  0  0  0  0  0  0  0  0  0  0  0
    7.1610   -3.2390   19.1190 C   0  0  0  0  0  0  0  0  0  0  0  0
    9.1040    1.3000   21.3520 O   0  0  0  0  0  0  0  0  0  0  0  0
    8.6300    0.2550   21.8330 C   0  0  0  0  0  0  0  0  0  0  0  0
    9.2480   -0.4910   23.0410 C   0  0  0  0  0  0  0  0  0  0  0  0
    7.5010   -0.4400   21.4320 N   0  0  0  0  0  0  0  0  0  0  0  0
    7.8110   -1.8060   21.2330 C   0  0  0  0  0  0  0  0  0  0  0  0
    3.4200   -2.5770   27.1620 C   0  0  0  0  0  0  0  0  0  0  0  0
    4.7620   -2.1710   27.0330 C   0  0  0  0  0  0  0  0  0  0  0  0
    5.5260   -2.6140   25.9630 C   0  0  0  0  0  0  0  0  0  0  0  0
    5.0210   -3.5470   24.8560 C   0  0  0  0  0  0  0  0  0  0  0  0
    3.5490   -3.9210   25.0960 C   0  0  0  0  0  0  0  0  0  0  0  0
    2.8370   -3.4370   26.1990 C   0  0  0  0  0  0  0  0  0  0  0  0
    6.7560   -4.0270   21.4370 N   0  0  0  0  0  0  0  0  0  0  0  0
    7.3500   -2.9070   22.2120 C   0  0  2  0  0  0  0  0  0  0  0  0
    6.5500   -2.6340   23.2930 C   0  0  0  0  0  0  0  0  0  0  0  0
    6.1290   -3.6930   24.0470 N   0  0  0  0  0  0  0  0  0  0  0  0
    5.5760   -4.8480   23.3230 C   0  0  0  0  0  0  0  0  0  0  0  0
    6.3230   -5.2080   22.1900 C   0  0  0  0  0  0  0  0  0  0  0  0
   11.4770   -0.8750   22.3200 C   0  0  0  0  0  0  0  0  0  0  0  0
   12.2670   -2.0870   22.8320 C   0  0  0  0  0  0  0  0  0  0  0  0
   13.2270   -1.4330   23.8610 C   0  0  0  0  0  0  0  0  0  0  0  0
   12.5480   -0.4790   24.6290 C   0  0  0  0  0  0  0  0  0  0  0  0
   11.1680   -0.6780   24.5570 C   0  0  0  0  0  0  0  0  0  0  0  0
   10.7140   -0.2740   23.3200 C   0  0  0  0  0  0  0  0  0  0  0  0
    5.6880    0.9710   20.5370 C   0  0  0  0  0  0  0  0  0  0  0  0
    5.0140    1.4920   19.3990 C   0  0  0  0  0  0  0  0  0  0  0  0
    5.4890    1.1230   18.1390 C   0  0  0  0  0  0  0  0  0  0  0  0
    6.5260    0.3160   17.9230 N   0  0  0  0  0  0  0  0  0  0  0  0
    7.1170   -0.1490   19.0370 C   0  0  0  0  0  0  0  0  0  0  0  0
    6.7800    0.1200   20.3580 C   0  0  0  0  0  0  0  0  0  0  0  0
  1  2  1  0
  3  4  2  0
  4  5  1  0
  6  7  2  0
  7  8  1  0
  7  9  1  0
  9 10  1  0
  2 11  1  0
 11 12  2  0
 12 13  1  0
 13 14  2  0
 14 15  1  0
 11 16  1  0
 15 16  2  0
  4 17  1  0
 18 10  1  6
 17 18  1  0
 18 19  1  0
 14 20  1  0
 19 20  1  0
 20 21  1  0
 17 22  1  0
 21 22  1  0
 23 24  1  0
 24 25  1  0
 25 26  1  0
 26 27  1  0
  8 28  1  0
 23 28  1  0
 27 28  1  0
 29 30  2  0
 30 31  1  0
 31 32  2  0
 32 33  1  0
  9 34  1  0
 29 34  1  0
 33 34  2  0
M  END
