x0678-x2764
     RDKit          3D

 21 22  0  0  0  0  0  0  0  0999 V2000
    8.5180   -0.9400   21.9890 N   0  0  1  0  0  0  0  0  0  0  0  0
    7.2730   -1.2210   21.3770 C   0  0  0  0  0  0  0  0  0  0  0  0
    6.5790   -2.4350   21.6630 O   0  0  0  0  0  0  0  0  0  0  0  0
    9.3790   -2.1030   22.0570 C   0  0  0  0  0  0  0  0  0  0  0  0
    6.4660    1.4820   22.1330 O   0  0  0  0  0  0  0  0  0  0  0  0
    7.8780    4.3490   22.9950 N   0  0  0  0  0  0  0  0  0  0  0  0
    7.4890    2.1260   22.3670 C   0  0  0  0  0  0  0  0  0  0  0  0
    7.5810    3.4640   21.9720 C   0  0  0  0  0  0  0  0  0  0  0  0
    9.1900    0.0480   21.2780 O   0  0  0  0  0  0  0  0  0  0  0  0
    8.2410   -0.2380   23.2680 C   0  0  0  0  0  0  0  0  0  0  0  0
   13.0250   -1.5990   22.8060 N   0  0  0  0  0  0  0  0  0  0  0  0
   11.8630   -1.8470   21.9480 C   0  0  0  0  0  0  0  0  0  0  0  0
   10.7260   -1.8610   22.7190 C   0  0  0  0  0  0  0  0  0  0  0  0
   10.9330   -1.6480   24.0700 C   0  0  0  0  0  0  0  0  0  0  0  0
   12.6150   -1.4420   24.2920 S   0  0  0  0  0  0  0  0  0  0  0  0
    6.4160   -0.6480   19.0680 C   0  0  0  0  0  0  0  0  0  0  0  0
    5.7460    0.3000   18.0510 C   0  0  0  0  0  0  0  0  0  0  0  0
    5.3710    1.6660   18.6270 C   0  0  0  0  0  0  0  0  0  0  0  0
    5.6330    1.9910   19.9570 C   0  0  0  0  0  0  0  0  0  0  0  0
    6.2400    1.0480   20.7660 C   0  0  0  0  0  0  0  0  0  0  0  0
    6.6280   -0.2240   20.3940 C   0  0  0  0  0  0  0  0  0  0  0  0
  1  2  1  0
  2  3  2  0
  1  4  1  0
  5  7  1  0
  6  8  3  0
  7  8  1  0
  1  9  1  0
  1 10  1  1
 11 12  2  0
  4 13  1  0
 12 13  1  0
 13 14  2  0
 11 15  1  0
 14 15  1  0
 16 17  2  0
 17 18  1  0
 18 19  2  0
  5 20  1  0
 19 20  1  0
  2 21  1  0
 16 21  1  0
 20 21  2  0
M  CHG  2   1   1   9  -1
M  END
