x0678-x2908
     RDKit          3D

 18 19  0  0  0  0  0  0  0  0999 V2000
    4.8000    1.2310   21.7050 C   0  0  0  0  0  0  0  0  0  0  0  0
    8.6740    1.3460   21.0780 O   0  0  0  0  0  0  0  0  0  0  0  0
   13.1360   -2.3940   21.3380 Cl  0  0  0  0  0  0  0  0  0  0  0  0
    7.0710   -0.5730   20.8520 N   0  0  0  0  0  0  0  0  0  0  0  0
    8.7220   -0.6180   22.5550 N   0  0  0  0  0  0  0  0  0  0  0  0
    8.1720    0.0600   21.5160 C   0  0  0  0  0  0  0  0  0  0  0  0
    6.2710    0.6010   17.5280 N   0  0  0  0  0  0  0  0  0  0  0  0
    6.8670   -0.0820   18.6140 C   0  0  0  0  0  0  0  0  0  0  0  0
    6.4260    0.1060   19.8900 C   0  0  0  0  0  0  0  0  0  0  0  0
    5.2820    1.0290   20.2670 C   0  0  0  0  0  0  0  0  0  0  0  0
    4.6630    1.7440   19.0520 C   0  0  0  0  0  0  0  0  0  0  0  0
    5.1510    1.5280   17.7680 C   0  0  0  0  0  0  0  0  0  0  0  0
   10.6180    0.5710   23.6650 C   0  0  0  0  0  0  0  0  0  0  0  0
   11.9780    0.6990   23.8360 C   0  0  0  0  0  0  0  0  0  0  0  0
   12.9540   -0.2280   23.1220 C   0  0  0  0  0  0  0  0  0  0  0  0
   12.2610   -1.2650   22.2380 C   0  0  0  0  0  0  0  0  0  0  0  0
   10.8980   -1.3170   22.1290 C   0  0  0  0  0  0  0  0  0  0  0  0
   10.1230   -0.4280   22.8150 C   0  0  0  0  0  0  0  0  0  0  0  0
  2  6  2  0
  4  6  1  0
  5  6  1  0
  7  8  2  0
  4  9  1  0
  8  9  1  0
  1 10  1  0
  9 10  2  0
 10 11  1  0
  7 12  1  0
 11 12  2  0
 13 14  2  0
 14 15  1  0
  3 16  1  0
 15 16  2  0
 16 17  1  0
  5 18  1  0
 13 18  1  0
 17 18  2  0
M  END
