x0678-x3305
     RDKit          3D

 27 29  0  0  0  0  0  0  0  0999 V2000
    3.3870   -7.0480   23.7210 C   0  0  0  0  0  0  0  0  0  0  0  0
    5.6490   -3.0090   21.1660 O   0  0  0  0  0  0  0  0  0  0  0  0
    6.7880   -2.2900   23.1590 N   0  0  0  0  0  0  0  0  0  0  0  0
    7.4070   -1.3570   20.8370 N   0  0  0  0  0  0  0  0  0  0  0  0
    7.2150   -3.4840   23.8660 C   0  0  0  0  0  0  0  0  0  0  0  0
    6.6220   -2.2190   21.7000 C   0  0  0  0  0  0  0  0  0  0  0  0
    8.4980   -0.7320   21.4280 C   0  0  0  0  0  0  0  0  0  0  0  0
    9.4120   -1.8000   22.0180 C   0  0  0  0  0  0  0  0  0  0  0  0
    7.0800   -1.2600   19.5160 C   0  0  0  0  0  0  0  0  0  0  0  0
    8.7240    0.4860   21.4600 O   0  0  0  0  0  0  0  0  0  0  0  0
    4.6110   -6.2690   23.5040 N   0  0  0  0  0  0  0  0  0  0  0  0
    5.0770   -5.0220   24.0850 C   0  0  0  0  0  0  0  0  0  0  0  0
    6.3030   -4.6790   23.5720 C   0  0  0  0  0  0  0  0  0  0  0  0
    6.6190   -5.7630   22.6140 N   0  0  0  0  0  0  0  0  0  0  0  0
    5.5700   -6.6760   22.6240 N   0  0  0  0  0  0  0  0  0  0  0  0
    5.5950    1.6710   17.6940 N   0  0  0  0  0  0  0  0  0  0  0  0
    6.3790    0.6930   18.1110 C   0  0  0  0  0  0  0  0  0  0  0  0
    6.1330   -0.2350   19.2460 C   0  0  0  0  0  0  0  0  0  0  0  0
    4.8330    0.0750   19.9670 C   0  0  0  0  0  0  0  0  0  0  0  0
    4.0600    1.1380   19.4970 C   0  0  0  0  0  0  0  0  0  0  0  0
    4.4680    1.8780   18.3930 C   0  0  0  0  0  0  0  0  0  0  0  0
   10.5990    0.0440   23.1210 C   0  0  0  0  0  0  0  0  0  0  0  0
   11.8060    0.6600   23.4190 C   0  0  0  0  0  0  0  0  0  0  0  0
   13.0560    0.1980   23.0290 C   0  0  0  0  0  0  0  0  0  0  0  0
   13.1740   -0.9200   22.3200 C   0  0  0  0  0  0  0  0  0  0  0  0
   11.9660   -1.7520   21.8880 C   0  0  0  0  0  0  0  0  0  0  0  0
   10.6240   -1.1440   22.3640 C   0  0  0  0  0  0  0  0  0  0  0  0
  3  5  1  0
  2  6  2  0
  3  6  1  0
  4  6  1  0
  4  7  1  0
  7  8  1  0
  4  9  1  0
  7 10  2  0
  1 11  1  0
 11 12  1  0
  5 13  1  0
 12 13  2  0
 13 14  1  0
 11 15  1  0
 14 15  2  0
 16 17  2  0
  9 18  1  0
 17 18  1  0
 18 19  2  0
 19 20  1  0
 16 21  1  0
 20 21  2  0
 22 23  2  0
 23 24  1  0
 24 25  2  0
 25 26  1  0
  8 27  1  0
 22 27  1  0
 26 27  2  0
M  END
