x0678-x2910
     RDKit          3D

 27 30  0  0  0  0  0  0  0  0999 V2000
    7.2040   -1.1880   21.8740 N   0  0  0  0  0  0  0  0  0  0  0  0
   10.1650    2.7580   23.5760 C   0  0  0  0  0  0  0  0  0  0  0  0
    9.8220    1.3730   23.5150 O   0  0  0  0  0  0  0  0  0  0  0  0
    9.2490   -1.2380   22.4410 N   0  0  0  0  0  0  0  0  0  0  0  0
    5.6060   -2.6730   20.7490 O   0  0  0  0  0  0  0  0  0  0  0  0
    6.5150    1.3050   16.8450 O   0  0  0  0  0  0  0  0  0  0  0  0
    9.2440   -2.6230   22.1190 C   0  0  0  0  0  0  0  0  0  0  0  0
    7.7690   -2.2870   22.5850 C   0  0  0  0  0  0  0  0  0  0  0  0
    6.2150   -1.3980   20.9190 C   0  0  0  0  0  0  0  0  0  0  0  0
    8.7730    0.7610   21.2000 O   0  0  0  0  0  0  0  0  0  0  0  0
    8.5080   -0.5140   21.8200 C   0  0  0  0  0  0  0  0  0  0  0  0
   10.8620    0.6030   23.0880 C   0  0  0  0  0  0  0  0  0  0  0  0
   10.6590   -0.6690   22.5670 C   0  0  0  0  0  0  0  0  0  0  0  0
   11.6540   -1.5480   22.1060 C   0  0  0  0  0  0  0  0  0  0  0  0
   12.9790   -1.1580   22.1410 C   0  0  0  0  0  0  0  0  0  0  0  0
   13.3450    0.2380   22.6830 C   0  0  0  0  0  0  0  0  0  0  0  0
   12.1680    1.0780   23.1580 C   0  0  0  0  0  0  0  0  0  0  0  0
    4.7140    1.8380   18.4440 N   0  0  0  0  0  0  0  0  0  0  0  0
    4.1050    1.5050   19.6910 C   0  0  0  0  0  0  0  0  0  0  0  0
    4.5890    0.4710   20.4910 C   0  0  0  0  0  0  0  0  0  0  0  0
    5.6900   -0.2600   20.0530 C   0  0  0  0  0  0  0  0  0  0  0  0
    6.2970    0.0450   18.8350 C   0  0  0  0  0  0  0  0  0  0  0  0
    5.8550    1.0780   17.9980 C   0  0  0  0  0  0  0  0  0  0  0  0
    2.9860    2.3120   20.0340 C   0  0  0  0  0  0  0  0  0  0  0  0
    2.2720    2.0280   21.3680 C   0  0  0  0  0  0  0  0  0  0  0  0
    2.8600    0.8660   22.2200 C   0  0  0  0  0  0  0  0  0  0  0  0
    3.9640    0.1750   21.7280 C   0  0  0  0  0  0  0  0  0  0  0  0
  2  3  1  0
  4  7  1  0
  1  8  1  0
  7  8  1  0
  1  9  1  0
  5  9  2  0
  1 11  1  0
  4 11  1  0
 10 11  2  0
  3 12  1  0
  4 13  1  0
 12 13  2  0
 13 14  1  0
 14 15  2  0
 15 16  1  0
 12 17  1  0
 16 17  2  0
 18 19  2  0
 19 20  1  0
  9 21  1  0
 20 21  2  0
 21 22  1  0
  6 23  1  0
 18 23  1  0
 22 23  2  0
 19 24  1  0
 24 25  2  0
 25 26  1  0
 20 27  1  0
 26 27  2  0
M  END
