x0678-x2754-x1336-x0734
     RDKit          3D

 42 46  0  0  0  0  0  0  0  0999 V2000
    6.0840   -5.3410   29.2290 C   0  0  0  0  0  0  0  0  0  0  0  0
    8.3060   -0.6660   25.4010 N   0  0  0  0  0  0  0  0  0  0  0  0
    5.6720   -1.3970   25.8200 C   0  0  0  0  0  0  0  0  0  0  0  0
    5.5910   -4.1510   19.7780 O   0  0  0  0  0  0  0  0  0  0  0  0
   10.0320   -3.9820   24.8680 C   0  0  0  0  0  0  0  0  0  0  0  0
    6.6420   -3.5210   19.9950 C   0  0  0  0  0  0  0  0  0  0  0  0
    7.4870   -3.0680   18.8300 C   0  0  0  0  0  0  0  0  0  0  0  0
    7.3460   -1.8970   25.3890 S   0  0  2  0  0  0  0  0  0  0  0  0
    5.1180   -2.8520   25.5850 C   0  0  0  0  0  0  0  0  0  0  0  0
    4.1360   -2.8450   24.8320 O   0  0  0  0  0  0  0  0  0  0  0  0
    4.3280   -1.5230   26.5020 C   0  0  0  0  0  0  0  0  0  0  0  0
    5.6120   -4.1270   26.1590 N   0  0  0  0  0  0  0  0  0  0  0  0
    4.8500   -5.3350   25.8980 O   0  0  0  0  0  0  0  0  0  0  0  0
    9.2510    1.1870   21.4180 O   0  0  0  0  0  0  0  0  0  0  0  0
    8.6250    0.1810   21.8160 C   0  0  0  0  0  0  0  0  0  0  0  0
    8.9780   -0.6600   23.0070 C   0  0  1  0  0  0  0  0  0  0  0  0
    7.4870   -0.2830   21.2080 N   0  0  0  0  0  0  0  0  0  0  0  0
    8.3530    0.1180   24.1840 C   0  0  0  0  0  0  0  0  0  0  0  0
    7.0500   -4.9880   28.1520 C   0  0  0  0  0  0  0  0  0  0  0  0
    6.8290   -3.7470   27.3230 C   0  0  0  0  0  0  0  0  0  0  0  0
    7.7990   -3.3820   26.2080 C   0  0  0  0  0  0  0  0  0  0  0  0
    9.0090   -4.2510   25.9190 C   0  0  0  0  0  0  0  0  0  0  0  0
    9.2200   -5.5040   26.7730 C   0  0  0  0  0  0  0  0  0  0  0  0
    8.2170   -5.8380   27.8800 C   0  0  0  0  0  0  0  0  0  0  0  0
    7.1220   -3.2520   21.2650 N   0  0  0  0  0  0  0  0  0  0  0  0
    6.8350   -4.2190   22.2820 C   0  0  0  0  0  0  0  0  0  0  0  0
    6.5000   -3.5140   23.4160 C   0  0  0  0  0  0  0  0  0  0  0  0
    7.3460   -2.3350   23.7400 N   0  0  0  0  0  0  0  0  0  0  0  0
    8.3840   -2.0900   22.8440 C   0  0  1  0  0  0  0  0  0  0  0  0
    8.2780   -2.5810   21.5390 C   0  0  0  0  0  0  0  0  0  0  0  0
   11.1570   -1.5540   22.3280 C   0  0  0  0  0  0  0  0  0  0  0  0
   12.5530   -1.7180   22.4200 C   0  0  0  0  0  0  0  0  0  0  0  0
   13.1720   -0.8880   23.3380 C   0  0  0  0  0  0  0  0  0  0  0  0
   12.4070   -0.1670   24.2500 C   0  0  0  0  0  0  0  0  0  0  0  0
   11.1050   -0.6620   24.5060 C   0  0  0  0  0  0  0  0  0  0  0  0
   10.5060   -0.7140   23.2470 C   0  0  0  0  0  0  0  0  0  0  0  0
    5.5670    1.1530   20.4180 C   0  0  0  0  0  0  0  0  0  0  0  0
    4.9220    1.6160   19.2590 C   0  0  0  0  0  0  0  0  0  0  0  0
    5.3580    1.2610   17.9950 C   0  0  0  0  0  0  0  0  0  0  0  0
    6.4050    0.4590   17.7480 N   0  0  0  0  0  0  0  0  0  0  0  0
    7.0860   -0.0390   18.7970 C   0  0  0  0  0  0  0  0  0  0  0  0
    6.7840    0.2240   20.1200 C   0  0  0  0  0  0  0  0  0  0  0  0
  4  6  2  0
  6  7  1  0
  2  8  2  0
  3  8  2  0
  3  9  1  0
  9 10  2  0
  3 11  1  0
  9 12  1  0
 12 13  2  0
 14 15  2  0
 16 15  1  6
 15 17  1  0
  2 18  1  0
 16 18  1  0
  1 19  1  0
 19 20  2  0
  8 21  1  1
 20 21  1  0
  5 22  1  0
 21 22  2  0
 22 23  1  0
 19 24  1  0
 23 24  2  0
  6 25  1  0
 25 26  1  0
 26 27  1  0
  8 28  1  0
 27 28  1  0
 16 29  1  0
 28 29  1  0
 25 30  1  0
 29 30  1  6
 31 32  1  0
 32 33  1  0
 33 34  1  0
 34 35  1  0
 16 36  1  0
 31 36  1  0
 35 36  1  0
 37 38  2  0
 38 39  1  0
 39 40  2  0
 40 41  1  0
 17 42  1  0
 37 42  1  0
 41 42  2  0
M  CHG  1  12   1
M  END
