x0678-x1385
     RDKit          3D

 32 36  0  0  0  0  0  0  0  0999 V2000
    7.4060   -2.9610   18.8390 C   0  0  0  0  0  0  0  0  0  0  0  0
    5.4370   -3.9680   19.6930 O   0  0  0  0  0  0  0  0  0  0  0  0
    6.4360   -3.2600   19.9380 C   0  0  0  0  0  0  0  0  0  0  0  0
    9.3720   -2.9860   24.1480 C   0  0  0  0  0  0  0  0  0  0  0  0
    7.0910   -5.8530   28.6180 Br  0  0  0  0  0  0  0  0  0  0  0  0
    9.1490    1.6190   21.2530 O   0  0  0  0  0  0  0  0  0  0  0  0
    8.6760    0.3230   21.6060 C   0  0  0  0  0  0  0  0  0  0  0  0
    9.2210   -0.5830   22.7300 C   0  0  1  0  0  0  0  0  0  0  0  0
    7.6320   -0.3930   21.0230 N   0  0  0  0  0  0  0  0  0  0  0  0
    6.6880   -2.8130   21.2310 N   0  0  0  0  0  0  0  0  0  0  0  0
    6.5950   -3.7450   22.2360 C   0  0  0  0  0  0  0  0  0  0  0  0
    7.8490   -3.8750   22.8670 C   0  0  0  0  0  0  0  0  0  0  0  0
    8.3150   -2.8690   23.2730 N   0  0  0  0  0  0  0  0  0  0  0  0
    8.6020   -1.8860   22.2710 C   0  0  1  0  0  0  0  0  0  0  0  0
    7.3480   -1.6230   21.7960 C   0  0  1  0  0  0  0  0  0  0  0  0
    9.7580   -5.4260   25.3560 C   0  0  0  0  0  0  0  0  0  0  0  0
    9.1360   -4.0410   25.1470 C   0  0  0  0  0  0  0  0  0  0  0  0
    7.9340   -3.8680   26.4170 S   0  0  0  0  0  0  0  0  0  0  0  0
    8.1470   -5.3420   27.1280 C   0  0  0  0  0  0  0  0  0  0  0  0
    9.1150   -6.1280   26.5510 C   0  0  0  0  0  0  0  0  0  0  0  0
   11.2930   -1.5860   22.2030 C   0  0  0  0  0  0  0  0  0  0  0  0
   12.6160   -1.8070   22.5580 C   0  0  0  0  0  0  0  0  0  0  0  0
   13.2760   -0.9800   23.4830 C   0  0  0  0  0  0  0  0  0  0  0  0
   12.5330   -0.3270   24.3940 C   0  0  0  0  0  0  0  0  0  0  0  0
   11.0390   -0.6630   24.4340 C   0  0  0  0  0  0  0  0  0  0  0  0
   10.6370   -0.5900   22.9280 C   0  0  0  0  0  0  0  0  0  0  0  0
    5.7090    0.9940   20.4010 C   0  0  0  0  0  0  0  0  0  0  0  0
    4.9190    1.5660   19.4070 C   0  0  0  0  0  0  0  0  0  0  0  0
    5.2450    1.3360   18.1030 C   0  0  0  0  0  0  0  0  0  0  0  0
    6.3650    0.5210   17.6720 N   0  0  0  0  0  0  0  0  0  0  0  0
    7.0830   -0.0050   18.6760 C   0  0  0  0  0  0  0  0  0  0  0  0
    6.7980    0.2060   20.0250 C   0  0  0  0  0  0  0  0  0  0  0  0
  1  3  1  0
  2  3  2  0
  6  7  2  0
  7  8  1  0
  7  9  1  0
  3 10  1  0
 10 11  1  0
 11 12  1  0
  4 13  1  0
 12 13  1  0
  8 14  1  0
 14 13  1  1
 15  9  1  6
 10 15  1  0
 14 15  1  0
  4 17  1  0
 16 17  2  0
 17 18  1  0
  5 19  1  0
 18 19  1  0
 16 20  1  0
 19 20  2  0
 21 22  1  0
 22 23  1  0
 23 24  1  0
 24 25  1  0
  8 26  1  6
 21 26  1  0
 25 26  1  0
 27 28  2  0
 28 29  1  0
 29 30  2  0
 30 31  1  0
  9 32  1  0
 27 32  1  0
 31 32  2  0
M  END
