x0678-x0874
     RDKit          3D

 20 23  0  0  0  0  0  0  0  0999 V2000
    9.1950    1.5610   20.9980 O   0  0  0  0  0  0  0  0  0  0  0  0
    8.8310    1.3080   22.0930 C   0  0  2  0  0  0  0  0  0  0  0  0
   10.1320    0.7740   22.8250 C   0  0  0  0  0  0  0  0  0  0  0  0
    7.8470    0.3200   22.0970 N   0  0  0  0  0  0  0  0  0  0  0  0
    8.4310    2.4340   22.8980 N   0  0  0  0  0  0  0  0  0  0  0  0
   10.3730   -1.5410   22.8010 C   0  0  1  0  0  0  0  0  0  0  0  0
   11.7200   -1.7690   22.3870 C   0  0  0  0  0  0  0  0  0  0  0  0
   12.8940   -1.0710   23.1390 C   0  0  0  0  0  0  0  0  0  0  0  0
   12.3870   -0.3880   24.4320 C   0  0  0  0  0  0  0  0  0  0  0  0
   11.0410   -0.6000   24.7330 C   0  0  0  0  0  0  0  0  0  0  0  0
   10.1370   -0.4970   23.6820 C   0  0  1  0  0  0  0  0  0  0  0  0
    5.8430    1.3620   20.7080 C   0  0  0  0  0  0  0  0  0  0  0  0
    5.0120    1.5170   19.4200 C   0  0  0  0  0  0  0  0  0  0  0  0
    5.4050    0.6930   18.2020 C   0  0  0  0  0  0  0  0  0  0  0  0
    6.5530   -0.2130   18.3190 N   0  0  0  0  0  0  0  0  0  0  0  0
    7.2870   -0.3070   19.5820 C   0  0  0  0  0  0  0  0  0  0  0  0
    7.0430    0.3980   20.7700 C   0  0  0  0  0  0  0  0  0  0  0  0
    9.2760   -1.3590   21.7090 C   0  0  0  0  0  0  0  0  0  0  0  0
    8.2510   -0.9330   22.5680 C   0  0  1  0  0  0  0  0  0  0  0  0
    8.7980   -0.8600   23.8150 C   0  0  0  0  0  0  0  0  0  0  0  0
  2  1  1  0
  2  3  1  0
  2  4  1  0
  2  5  1  1
  6  7  1  6
  7  8  1  0
  8  9  1  0
  9 10  1  0
 11  3  1  6
  6 11  1  0
 10 11  1  0
 12 13  2  0
 13 14  1  0
 14 15  2  0
 15 16  1  0
  4 17  1  0
 12 17  1  0
 16 17  2  0
  6 18  1  0
  4 19  1  0
 19 18  1  6
 11 20  1  0
 19 20  1  0
M  END
