x0678-x1374
     RDKit          3D

 37 40  0  0  0  0  0  0  0  0999 V2000
   10.6430   -4.2990   25.8330 C   0  0  0  0  0  0  0  0  0  0  0  0
    6.2350   -4.4440   22.0350 N   0  0  0  0  0  0  0  0  0  0  0  0
    6.2300   -4.5140   20.6090 C   0  0  0  0  0  0  0  0  0  0  0  0
    5.5050   -5.3040   20.0320 O   0  0  0  0  0  0  0  0  0  0  0  0
    7.1450   -3.5220   19.8340 C   0  0  0  0  0  0  0  0  0  0  0  0
    2.4290   -6.7830   23.3870 O   0  0  0  0  0  0  0  0  0  0  0  0
    4.2930   -7.9910   24.8500 O   0  0  0  0  0  0  0  0  0  0  0  0
    9.2840    1.4520   21.3670 O   0  0  0  0  0  0  0  0  0  0  0  0
    8.7600    0.4440   21.8540 C   0  0  0  0  0  0  0  0  0  0  0  0
    9.2730   -0.0520   23.0790 C   0  0  0  0  0  0  0  0  0  0  0  0
    7.6880   -0.2260   21.3210 N   0  0  0  0  0  0  0  0  0  0  0  0
    6.5650   -3.1660   22.5750 C   0  0  2  0  0  0  0  0  0  0  0  0
    6.4320   -2.1170   21.7080 C   0  0  0  0  0  0  0  0  0  0  0  0
    6.9900   -0.9580   22.1700 C   0  0  0  0  0  0  0  0  0  0  0  0
    9.5080   -4.4420   24.8660 C   0  0  0  0  0  0  0  0  0  0  0  0
    8.7720   -3.2000   24.3830 C   0  0  0  0  0  0  0  0  0  0  0  0
    7.6530   -3.1020   23.4740 C   0  0  0  0  0  0  0  0  0  0  0  0
    7.4610   -4.6290   23.1430 C   0  0  0  0  0  0  0  0  0  0  0  0
    8.1290   -5.7540   23.5730 C   0  0  0  0  0  0  0  0  0  0  0  0
    9.1460   -5.6740   24.4310 C   0  0  0  0  0  0  0  0  0  0  0  0
    4.9460   -4.5090   24.0140 C   0  0  0  0  0  0  0  0  0  0  0  0
    5.1210   -4.9810   22.7000 C   0  0  2  0  0  0  0  0  0  0  0  0
    5.1200   -6.3950   22.6490 C   0  0  0  0  0  0  0  0  0  0  0  0
    3.9240   -6.7540   23.9320 S   0  0  0  0  0  0  0  0  0  0  0  0
    4.2700   -5.3370   24.9060 C   0  0  0  0  0  0  0  0  0  0  0  0
   11.0210   -1.3960   22.3320 C   0  0  0  0  0  0  0  0  0  0  0  0
   12.3160   -1.9000   22.5250 C   0  0  0  0  0  0  0  0  0  0  0  0
   13.1830   -1.0890   23.3230 C   0  0  0  0  0  0  0  0  0  0  0  0
   12.5580   -0.3480   24.3570 C   0  0  0  0  0  0  0  0  0  0  0  0
   11.1800   -0.4450   24.3880 C   0  0  0  0  0  0  0  0  0  0  0  0
   10.6880   -0.3040   23.1150 C   0  0  0  0  0  0  0  0  0  0  0  0
    5.9060    1.2430   20.4730 C   0  0  0  0  0  0  0  0  0  0  0  0
    5.1480    1.7310   19.3980 C   0  0  0  0  0  0  0  0  0  0  0  0
    5.4000    1.2430   17.9790 C   0  0  0  0  0  0  0  0  0  0  0  0
    6.3290    0.3440   17.6790 N   0  0  0  0  0  0  0  0  0  0  0  0
    7.0860   -0.1390   18.8130 C   0  0  0  0  0  0  0  0  0  0  0  0
    6.9170    0.2890   20.2710 C   0  0  0  0  0  0  0  0  0  0  0  0
  2  3  1  0
  3  4  2  0
  3  5  1  0
  8  9  2  0
  9 10  1  0
  9 11  1  0
  2 12  1  0
 12 13  1  6
 11 14  1  0
 13 14  1  0
  1 15  1  0
 15 16  2  0
 12 17  1  0
 16 17  1  0
 17 18  2  0
 18 19  1  0
 15 20  1  0
 19 20  2  0
 22  2  1  1
 21 22  1  0
 22 23  1  0
 24  6  1  0
  7 24  1  0
 23 24  1  0
 21 25  2  0
 24 25  1  0
 26 27  1  0
 27 28  1  0
 28 29  1  0
 29 30  1  0
 10 31  1  0
 26 31  1  0
 30 31  1  0
 32 33  2  0
 33 34  1  0
 34 35  2  0
 35 36  1  0
 11 37  1  0
 32 37  1  0
 36 37  2  0
M  END
