x0678-x1311
     RDKit          3D

 36 39  0  0  0  0  0  0  0  0999 V2000
    5.8150   -4.6770   20.0240 O   0  0  0  0  0  0  0  0  0  0  0  0
    6.6520   -4.5040   20.9590 C   0  0  0  0  0  0  0  0  0  0  0  0
    8.1530   -4.3630   20.7520 C   0  0  0  0  0  0  0  0  0  0  0  0
    6.2330   -4.3850   22.4520 C   0  0  2  0  0  0  0  0  0  0  0  0
    4.1920   -7.6540   25.0920 O   0  0  0  0  0  0  0  0  0  0  0  0
    2.1310   -5.9820   24.7990 O   0  0  0  0  0  0  0  0  0  0  0  0
    9.1730    1.5090   21.3110 O   0  0  0  0  0  0  0  0  0  0  0  0
    8.6760    0.4950   21.8140 C   0  0  0  0  0  0  0  0  0  0  0  0
    9.1920   -0.1480   23.1130 C   0  0  0  0  0  0  0  0  0  0  0  0
    7.6060   -0.2110   21.3410 N   0  0  0  0  0  0  0  0  0  0  0  0
    5.6660   -2.9760   22.6340 C   0  0  0  0  0  0  0  0  0  0  0  0
    6.1420   -2.1520   21.5960 C   0  0  0  0  0  0  0  0  0  0  0  0
    7.4370   -1.6070   21.6650 C   0  0  0  0  0  0  0  0  0  0  0  0
    8.1900   -5.6850   23.2660 C   0  0  0  0  0  0  0  0  0  0  0  0
    9.4110   -5.9340   24.1350 C   0  0  0  0  0  0  0  0  0  0  0  0
    9.7520   -4.7820   25.0760 C   0  0  0  0  0  0  0  0  0  0  0  0
    8.9190   -3.6750   25.0220 C   0  0  0  0  0  0  0  0  0  0  0  0
    7.8150   -3.4990   24.2130 C   0  0  0  0  0  0  0  0  0  0  0  0
    7.4420   -4.5050   23.3300 C   0  0  0  0  0  0  0  0  0  0  0  0
    4.6420   -6.2850   22.1470 C   0  0  0  0  0  0  0  0  0  0  0  0
    5.3750   -5.5360   23.0300 C   0  0  2  0  0  0  0  0  0  0  0  0
    4.6630   -5.1260   24.1080 C   0  0  0  0  0  0  0  0  0  0  0  0
    3.5390   -6.4750   24.2460 S   0  0  0  0  0  0  0  0  0  0  0  0
    3.5450   -6.8760   22.6670 C   0  0  0  0  0  0  0  0  0  0  0  0
   11.1540   -1.3690   22.3460 C   0  0  0  0  0  0  0  0  0  0  0  0
   12.4620   -1.7670   22.6200 C   0  0  0  0  0  0  0  0  0  0  0  0
   13.2090   -0.9610   23.4960 C   0  0  0  0  0  0  0  0  0  0  0  0
   12.4950   -0.3280   24.5030 C   0  0  0  0  0  0  0  0  0  0  0  0
   11.1380   -0.6130   24.4760 C   0  0  0  0  0  0  0  0  0  0  0  0
   10.6810   -0.3750   23.1840 C   0  0  0  0  0  0  0  0  0  0  0  0
    5.7780    1.1360   20.4220 C   0  0  0  0  0  0  0  0  0  0  0  0
    5.0620    1.5530   19.3230 C   0  0  0  0  0  0  0  0  0  0  0  0
    5.3630    1.1150   18.0550 C   0  0  0  0  0  0  0  0  0  0  0  0
    6.3530    0.2620   17.7980 N   0  0  0  0  0  0  0  0  0  0  0  0
    7.0970   -0.1760   18.9380 C   0  0  0  0  0  0  0  0  0  0  0  0
    6.8370    0.2420   20.2420 C   0  0  0  0  0  0  0  0  0  0  0  0
  1  2  2  0
  2  3  1  0
  4  2  1  0
  7  8  2  0
  8  9  1  0
  8 10  1  0
  4 11  1  6
 11 12  1  0
 10 13  1  0
 12 13  1  0
 14 15  2  0
 15 16  1  0
 16 17  2  0
 17 18  1  0
  4 19  1  0
 14 19  1  0
 18 19  2  0
  4 21  1  0
 21 20  1  6
 21 22  1  0
 23  5  1  0
  6 23  1  0
 22 23  1  0
 20 24  2  0
 23 24  1  0
 25 26  1  0
 26 27  1  0
 27 28  1  0
 28 29  1  0
  9 30  1  0
 25 30  1  0
 29 30  1  0
 31 32  2  0
 32 33  1  0
 33 34  2  0
 34 35  1  0
 10 36  1  0
 31 36  1  0
 35 36  2  0
M  END
