x0678-x0072
     RDKit          3D

 22 23  0  0  0  0  0  0  0  0999 V2000
    6.0010   -5.4720   24.7400 C   0  0  0  0  0  0  0  0  0  0  0  0
    7.5140   -4.7670   25.2730 S   0  0  0  0  0  0  0  0  0  0  0  0
    8.6150   -5.6240   24.9240 O   0  0  0  0  0  0  0  0  0  0  0  0
    7.2290   -4.5290   26.6550 O   0  0  0  0  0  0  0  0  0  0  0  0
    7.5790   -3.2730   24.4170 N   0  0  0  0  0  0  0  0  0  0  0  0
    8.5580   -2.9090   23.3600 C   0  0  0  0  0  0  0  0  0  0  0  0
    8.8590   -1.3680   23.0520 C   0  0  2  0  0  0  0  0  0  0  0  0
    9.0770    0.3800   21.5530 O   0  0  0  0  0  0  0  0  0  0  0  0
    8.4040   -0.5840   21.9290 C   0  0  0  0  0  0  0  0  0  0  0  0
    7.2210   -0.9050   21.3030 N   0  0  0  0  0  0  0  0  0  0  0  0
   10.3480   -1.0360   23.0370 C   0  0  0  0  0  0  0  0  0  0  0  0
   11.4560   -2.0440   22.6900 C   0  0  0  0  0  0  0  0  0  0  0  0
   12.7890   -1.6640   22.6710 C   0  0  0  0  0  0  0  0  0  0  0  0
   13.1710   -0.3660   22.9630 C   0  0  0  0  0  0  0  0  0  0  0  0
   12.2510    0.5800   23.2830 C   0  0  0  0  0  0  0  0  0  0  0  0
   10.7540    0.2710   23.3330 C   0  0  0  0  0  0  0  0  0  0  0  0
    5.6040    0.5580   20.5460 C   0  0  0  0  0  0  0  0  0  0  0  0
    5.0550    1.2340   19.4380 C   0  0  0  0  0  0  0  0  0  0  0  0
    5.5810    1.0730   18.1780 C   0  0  0  0  0  0  0  0  0  0  0  0
    6.6270    0.2600   18.0220 N   0  0  0  0  0  0  0  0  0  0  0  0
    7.1490   -0.3860   19.0780 C   0  0  0  0  0  0  0  0  0  0  0  0
    6.7150   -0.3100   20.4080 C   0  0  0  0  0  0  0  0  0  0  0  0
  1  2  1  0
  2  3  2  0
  2  4  2  0
  2  5  1  0
  5  6  1  0
  7  6  1  6
  7  9  1  0
  8  9  2  0
  9 10  1  0
  7 11  1  0
 11 12  2  0
 12 13  1  0
 13 14  2  0
 14 15  1  0
 11 16  1  0
 15 16  2  0
 17 18  2  0
 18 19  1  0
 19 20  2  0
 20 21  1  0
 10 22  1  0
 17 22  1  0
 21 22  2  0
M  END
