x0678-x0771
     RDKit          3D

 38 41  0  0  0  0  0  0  0  0999 V2000
    0.7240   -1.1830   26.2640 C   0  0  0  0  0  0  0  0  0  0  0  0
    4.3580   -6.8950   25.6850 O   0  0  0  0  0  0  0  0  0  0  0  0
    6.0360   -5.2100   26.8280 O   0  0  0  0  0  0  0  0  0  0  0  0
    5.7620   -4.0430   19.6330 O   0  0  0  0  0  0  0  0  0  0  0  0
    2.0900   -6.2610   25.0070 C   0  0  0  0  0  0  0  0  0  0  0  0
    6.6950   -3.8710   20.4130 C   0  0  0  0  0  0  0  0  0  0  0  0
    8.0620   -3.3570   20.0150 C   0  0  0  0  0  0  0  0  0  0  0  0
    4.9190   -5.5620   25.7630 S   0  0  0  0  0  0  0  0  0  0  0  0
    9.1380    0.8580   21.5590 O   0  0  0  0  0  0  0  0  0  0  0  0
    8.5590   -0.4010   21.9720 C   0  0  0  0  0  0  0  0  0  0  0  0
    9.2820   -1.1410   23.1210 C   0  0  0  0  0  0  0  0  0  0  0  0
    7.3190   -0.9610   21.3500 N   0  0  0  0  0  0  0  0  0  0  0  0
    5.7370   -2.8620   22.2330 C   0  0  0  0  0  0  0  0  0  0  0  0
    6.5750   -1.6890   22.4100 C   0  0  0  0  0  0  0  0  0  0  0  0
    1.6580   -2.3830   26.0720 C   0  0  0  0  0  0  0  0  0  0  0  0
    1.2680   -3.7830   25.5800 C   0  0  0  0  0  0  0  0  0  0  0  0
    2.3750   -4.8360   25.4790 C   0  0  0  0  0  0  0  0  0  0  0  0
    3.6700   -4.4560   25.8390 C   0  0  0  0  0  0  0  0  0  0  0  0
    3.9630   -3.1670   26.2690 C   0  0  0  0  0  0  0  0  0  0  0  0
    3.0080   -2.1630   26.3860 C   0  0  0  0  0  0  0  0  0  0  0  0
    6.3260   -4.1240   21.8630 C   0  0  0  0  0  0  0  0  0  0  0  0
    5.3220   -5.0950   21.9990 C   0  0  0  0  0  0  0  0  0  0  0  0
    4.6150   -5.0420   23.1250 C   0  0  0  0  0  0  0  0  0  0  0  0
    5.5680   -5.3140   24.2130 N   0  0  0  0  0  0  0  0  0  0  0  0
    6.9000   -4.6790   24.1060 C   0  0  0  0  0  0  0  0  0  0  0  0
    7.3880   -4.3320   22.6760 C   0  0  0  0  0  0  0  0  0  0  0  0
   11.4260   -0.9580   22.1860 C   0  0  0  0  0  0  0  0  0  0  0  0
   12.3690   -1.9800   22.2310 C   0  0  0  0  0  0  0  0  0  0  0  0
   13.3250   -1.6360   23.1480 C   0  0  0  0  0  0  0  0  0  0  0  0
   12.7720   -1.1060   24.3150 C   0  0  0  0  0  0  0  0  0  0  0  0
   11.3970   -1.4230   24.3790 C   0  0  0  0  0  0  0  0  0  0  0  0
   10.7190   -0.7810   23.3430 C   0  0  0  0  0  0  0  0  0  0  0  0
    5.4960    0.5270   20.5290 C   0  0  0  0  0  0  0  0  0  0  0  0
    4.9310    1.1780   19.4290 C   0  0  0  0  0  0  0  0  0  0  0  0
    5.4330    1.0990   18.1470 C   0  0  0  0  0  0  0  0  0  0  0  0
    6.5120    0.3840   17.8540 N   0  0  0  0  0  0  0  0  0  0  0  0
    7.1120   -0.3090   18.9890 C   0  0  0  0  0  0  0  0  0  0  0  0
    6.6520   -0.2650   20.3160 C   0  0  0  0  0  0  0  0  0  0  0  0
  4  6  2  0
  6  7  1  0
  2  8  2  0
  3  8  2  0
  9 10  2  0
 10 11  1  0
 10 12  1  0
 12 14  1  0
 13 14  1  0
  1 15  1  0
 15 16  2  0
  5 17  1  0
 16 17  1  0
  8 18  1  0
 17 18  2  0
 18 19  1  0
 15 20  1  0
 19 20  2  0
 21  6  1  0
 13 21  1  0
 21 22  1  0
 22 23  1  0
  8 24  1  0
 23 24  1  0
 24 25  1  0
 21 26  1  0
 25 26  1  0
 27 28  1  0
 28 29  1  0
 29 30  1  0
 30 31  1  0
 11 32  1  0
 27 32  1  0
 31 32  1  0
 33 34  2  0
 34 35  1  0
 35 36  2  0
 36 37  1  0
 12 38  1  0
 33 38  1  0
 37 38  2  0
M  END
