x0678-x2572
     RDKit          3D

 19 20  0  0  0  0  0  0  0  0999 V2000
    4.8130    1.2240   21.6480 C   0  0  0  0  0  0  0  0  0  0  0  0
    8.8470    1.2960   21.3250 O   0  0  0  0  0  0  0  0  0  0  0  0
    6.9080   -0.3680   21.2140 N   0  0  0  0  0  0  0  0  0  0  0  0
   13.5390   -3.1780   20.6690 N   0  0  0  0  0  0  0  0  0  0  0  0
    8.0950    0.1570   21.8170 C   0  0  0  0  0  0  0  0  0  0  0  0
    8.7210   -0.4660   23.1000 C   0  0  0  0  0  0  0  0  0  0  0  0
   13.0160   -2.1700   21.4250 C   0  0  0  0  0  0  0  0  0  0  0  0
    6.3400    0.5900   17.6360 N   0  0  0  0  0  0  0  0  0  0  0  0
    6.9160   -0.0300   18.7030 C   0  0  0  0  0  0  0  0  0  0  0  0
    6.3760    0.2050   20.0770 C   0  0  0  0  0  0  0  0  0  0  0  0
    5.3000    1.0400   20.2110 C   0  0  0  0  0  0  0  0  0  0  0  0
    4.7300    1.6560   19.0820 C   0  0  0  0  0  0  0  0  0  0  0  0
    5.2020    1.4780   17.7680 C   0  0  0  0  0  0  0  0  0  0  0  0
   10.8580    0.7100   23.7150 C   0  0  0  0  0  0  0  0  0  0  0  0
   12.3590    0.7970   23.5950 C   0  0  0  0  0  0  0  0  0  0  0  0
   13.0470   -0.1410   22.8520 C   0  0  0  0  0  0  0  0  0  0  0  0
   12.3270   -1.1440   22.2350 C   0  0  0  0  0  0  0  0  0  0  0  0
   10.9580   -1.2370   22.3300 C   0  0  0  0  0  0  0  0  0  0  0  0
   10.2160   -0.3210   23.0590 C   0  0  0  0  0  0  0  0  0  0  0  0
  2  5  2  0
  3  5  1  0
  5  6  1  0
  4  7  3  0
  8  9  2  0
  3 10  1  0
  9 10  1  0
  1 11  1  0
 10 11  2  0
 11 12  1  0
  8 13  1  0
 12 13  2  0
 14 15  2  0
 15 16  1  0
  7 17  1  0
 16 17  2  0
 17 18  1  0
  6 19  1  0
 14 19  1  0
 18 19  2  0
M  END
