x0678-x0397
     RDKit          3D

 24 26  0  0  0  0  0  0  0  0999 V2000
    8.1950   -1.7620   21.2680 C   0  0  0  0  0  0  0  0  0  0  0  0
    7.0620   -1.8710   20.4150 N   0  0  0  0  0  0  0  0  0  0  0  0
    7.0820   -1.4350   19.0170 C   0  0  0  0  0  0  0  0  0  0  0  0
    3.4450    2.5040   19.2560 C   0  0  0  0  0  0  0  0  0  0  0  0
    6.2550   -2.9580   20.7140 C   0  0  0  0  0  0  0  0  0  0  0  0
    5.4780   -3.4540   19.8980 O   0  0  0  0  0  0  0  0  0  0  0  0
    6.4160   -3.4230   22.0000 N   0  0  0  0  0  0  0  0  0  0  0  0
    8.5000    0.6480   20.9670 O   0  0  0  0  0  0  0  0  0  0  0  0
    8.6390   -0.3290   21.6880 C   0  0  0  0  0  0  0  0  0  0  0  0
    9.2580   -0.1450   23.0890 C   0  0  0  0  0  0  0  0  0  0  0  0
    5.1740    0.2510   19.5660 C   0  0  0  0  0  0  0  0  0  0  0  0
    6.1960   -0.2400   18.8110 C   0  0  0  0  0  0  0  0  0  0  0  0
    6.2620    0.7100   17.6580 N   0  0  0  0  0  0  0  0  0  0  0  0
    5.3840    1.6220   17.7600 O   0  0  0  0  0  0  0  0  0  0  0  0
    4.5960    1.4740   18.9370 C   0  0  0  0  0  0  0  0  0  0  0  0
    6.5900   -5.5040   23.1760 C   0  0  0  0  0  0  0  0  0  0  0  0
    5.7340   -4.6500   22.4810 C   0  0  0  0  0  0  0  0  0  0  0  0
    5.9900   -5.8460   21.7050 C   0  0  0  0  0  0  0  0  0  0  0  0
   11.1490   -1.4270   22.2990 C   0  0  0  0  0  0  0  0  0  0  0  0
   12.5040   -1.7560   22.4050 C   0  0  0  0  0  0  0  0  0  0  0  0
   13.1740   -1.0910   23.4490 C   0  0  0  0  0  0  0  0  0  0  0  0
   12.4490   -0.9230   24.6410 C   0  0  0  0  0  0  0  0  0  0  0  0
   11.1840   -0.5680   24.5380 C   0  0  0  0  0  0  0  0  0  0  0  0
   10.7770   -0.3220   23.0840 C   0  0  0  0  0  0  0  0  0  0  0  0
  1  2  1  0
  2  3  1  0
  2  5  1  0
  5  6  2  0
  5  7  1  0
  1  9  1  0
  8  9  2  0
  9 10  1  0
  3 12  1  0
 11 12  1  0
 12 13  2  0
 13 14  1  0
  4 15  1  0
 11 15  2  0
 14 15  1  0
  7 17  1  0
 16 17  1  0
 16 18  1  0
 17 18  1  0
 19 20  1  0
 20 21  1  0
 21 22  1  0
 22 23  1  0
 10 24  1  0
 19 24  1  0
 23 24  1  0
M  END
