x0678-x1386
     RDKit          3D

 25 28  0  0  0  0  0  0  0  0999 V2000
    7.5390   -2.9710   18.6620 C   0  0  0  0  0  0  0  0  0  0  0  0
    5.6350   -3.8200   19.7140 O   0  0  0  0  0  0  0  0  0  0  0  0
    6.6300   -3.0380   19.8490 C   0  0  0  0  0  0  0  0  0  0  0  0
   10.0280   -2.4810   23.6940 C   0  0  0  0  0  0  0  0  0  0  0  0
    8.7800    0.8520   21.3060 O   0  0  0  0  0  0  0  0  0  0  0  0
    7.9900   -0.1600   21.9310 C   0  0  1  0  0  0  0  0  0  0  0  0
    7.5920    0.0760   23.3830 C   0  0  0  0  0  0  0  0  0  0  0  0
    6.8850   -0.7520   21.2370 N   0  0  0  0  0  0  0  0  0  0  0  0
    7.0720   -2.1980   21.1570 C   0  0  2  0  0  0  0  0  0  0  0  0
    8.3930   -2.1960   21.0850 C   0  0  0  0  0  0  0  0  0  0  0  0
    8.9440   -1.3460   21.9520 C   0  0  2  0  0  0  0  0  0  0  0  0
    8.9190   -2.0850   23.2200 N   0  0  0  0  0  0  0  0  0  0  0  0
    7.8260   -3.1020   23.2890 C   0  0  0  0  0  0  0  0  0  0  0  0
    6.6010   -2.7920   22.3740 C   0  0  0  0  0  0  0  0  0  0  0  0
   12.2590   -1.7630   22.9130 C   0  0  0  0  0  0  0  0  0  0  0  0
   11.0070   -1.4850   23.4390 C   0  0  0  0  0  0  0  0  0  0  0  0
   10.7650   -0.1750   23.6900 C   0  0  0  0  0  0  0  0  0  0  0  0
   12.2470    0.6600   23.2120 S   0  0  0  0  0  0  0  0  0  0  0  0
   13.0590   -0.7050   22.7250 C   0  0  0  0  0  0  0  0  0  0  0  0
    5.2000    0.7040   20.3140 C   0  0  0  0  0  0  0  0  0  0  0  0
    4.7420    1.3800   19.1650 C   0  0  0  0  0  0  0  0  0  0  0  0
    5.3000    1.3640   17.9630 C   0  0  0  0  0  0  0  0  0  0  0  0
    6.5100    0.5880   17.7390 N   0  0  0  0  0  0  0  0  0  0  0  0
    7.0040   -0.0870   18.7830 C   0  0  0  0  0  0  0  0  0  0  0  0
    6.3580   -0.0700   20.1930 C   0  0  0  0  0  0  0  0  0  0  0  0
  1  3  1  0
  2  3  2  0
  6  5  1  0
  6  7  1  1
  6  8  1  0
  9  3  1  6
  8  9  1  0
  9 10  1  0
  6 11  1  0
 10 11  1  0
  4 12  1  0
 11 12  1  1
 12 13  1  0
  9 14  1  0
 13 14  1  0
  4 16  1  0
 15 16  1  0
 16 17  2  0
 17 18  1  0
 15 19  2  0
 18 19  1  0
 20 21  2  0
 21 22  1  0
 22 23  2  0
 23 24  1  0
  8 25  1  0
 20 25  1  0
 24 25  2  0
M  END
