x0678-x0769
     RDKit          3D

 37 40  0  0  0  0  0  0  0  0999 V2000
    5.8670   -5.0300   26.7820 O   0  0  0  0  0  0  0  0  0  0  0  0
    3.9210   -6.5770   25.8710 O   0  0  0  0  0  0  0  0  0  0  0  0
    5.2700   -4.7800   19.9450 O   0  0  0  0  0  0  0  0  0  0  0  0
    6.3030   -4.4120   20.4840 C   0  0  0  0  0  0  0  0  0  0  0  0
    7.1470   -3.4030   19.7060 C   0  0  0  0  0  0  0  0  0  0  0  0
    5.5900   -2.4180   26.1950 F   0  0  0  0  0  0  0  0  0  0  0  0
    4.8260   -5.2690   25.8050 S   0  0  0  0  0  0  0  0  0  0  0  0
    9.3140    1.3180   21.4290 O   0  0  0  0  0  0  0  0  0  0  0  0
    8.7150    0.3940   22.0170 C   0  0  0  0  0  0  0  0  0  0  0  0
    9.1170   -0.0650   23.2980 C   0  0  0  0  0  0  0  0  0  0  0  0
    7.5130   -0.3030   21.5210 N   0  0  0  0  0  0  0  0  0  0  0  0
    6.7670   -2.5710   22.3750 C   0  0  0  0  0  0  0  0  0  0  0  0
    7.7710   -1.6840   21.5940 C   0  0  0  0  0  0  0  0  0  0  0  0
    4.2670   -2.5760   26.0570 C   0  0  0  0  0  0  0  0  0  0  0  0
    3.7190   -3.8770   25.8600 C   0  0  0  0  0  0  0  0  0  0  0  0
    2.3450   -4.0870   25.7130 C   0  0  0  0  0  0  0  0  0  0  0  0
    1.4200   -2.8760   25.7720 C   0  0  0  0  0  0  0  0  0  0  0  0
    2.0640   -1.5140   25.9870 C   0  0  0  0  0  0  0  0  0  0  0  0
    3.4470   -1.4130   26.1190 C   0  0  0  0  0  0  0  0  0  0  0  0
    6.6230   -4.9310   21.7180 N   0  0  0  0  0  0  0  0  0  0  0  0
    5.9840   -6.1800   22.1790 C   0  0  0  0  0  0  0  0  0  0  0  0
    5.1940   -6.0510   23.2990 C   0  0  0  0  0  0  0  0  0  0  0  0
    5.6390   -5.2450   24.3030 N   0  0  0  0  0  0  0  0  0  0  0  0
    6.2240   -3.9670   23.8820 C   0  0  0  0  0  0  0  0  0  0  0  0
    7.1110   -4.0330   22.7840 C   0  0  2  0  0  0  0  0  0  0  0  0
   11.2660   -0.7860   22.2770 C   0  0  0  0  0  0  0  0  0  0  0  0
   12.4310   -1.7820   22.4430 C   0  0  0  0  0  0  0  0  0  0  0  0
   13.1950   -1.1040   23.6090 C   0  0  0  0  0  0  0  0  0  0  0  0
   12.3720   -1.0330   24.7320 C   0  0  0  0  0  0  0  0  0  0  0  0
   11.2130   -0.2710   24.5090 C   0  0  0  0  0  0  0  0  0  0  0  0
   10.4860   -0.7330   23.4240 C   0  0  0  0  0  0  0  0  0  0  0  0
    5.7410    1.0520   20.5040 C   0  0  0  0  0  0  0  0  0  0  0  0
    5.0610    1.5010   19.3510 C   0  0  0  0  0  0  0  0  0  0  0  0
    5.5230    1.0120   18.1360 C   0  0  0  0  0  0  0  0  0  0  0  0
    6.5370    0.1640   17.9630 N   0  0  0  0  0  0  0  0  0  0  0  0
    7.1480   -0.2400   19.0960 C   0  0  0  0  0  0  0  0  0  0  0  0
    6.8160    0.1590   20.3930 C   0  0  0  0  0  0  0  0  0  0  0  0
  3  4  2  0
  4  5  1  0
  1  7  2  0
  2  7  2  0
  8  9  2  0
  9 10  1  0
  9 11  1  0
 11 13  1  0
 12 13  1  0
  6 14  1  0
  7 15  1  0
 14 15  2  0
 15 16  1  0
 16 17  2  0
 17 18  1  0
 14 19  1  0
 18 19  2  0
  4 20  1  0
 20 21  1  0
 21 22  1  0
  7 23  1  0
 22 23  1  0
 23 24  1  0
 25 12  1  6
 20 25  1  0
 24 25  1  0
 26 27  1  0
 27 28  1  0
 28 29  1  0
 29 30  1  0
 10 31  1  0
 26 31  1  0
 30 31  1  0
 32 33  2  0
 33 34  1  0
 34 35  2  0
 35 36  1  0
 11 37  1  0
 32 37  1  0
 36 37  2  0
M  END
