x0678-x1348
     RDKit          3D

 33 36  0  0  0  0  0  0  0  0999 V2000
    6.9680   -3.6430   21.4010 N   0  0  0  0  0  0  0  0  0  0  0  0
    7.9700   -5.0140   27.6710 C   0  0  0  0  0  0  0  0  0  0  0  0
    7.4500   -4.6310   26.3900 O   0  0  0  0  0  0  0  0  0  0  0  0
    5.3930   -4.2200   19.7930 O   0  0  0  0  0  0  0  0  0  0  0  0
    6.4780   -3.7050   20.1100 C   0  0  0  0  0  0  0  0  0  0  0  0
    7.3680   -3.1520   19.0140 C   0  0  0  0  0  0  0  0  0  0  0  0
    9.1780    1.5530   21.2840 O   0  0  0  0  0  0  0  0  0  0  0  0
    8.6700    0.5340   21.7520 C   0  0  0  0  0  0  0  0  0  0  0  0
    9.1070   -0.2480   23.0120 C   0  0  0  0  0  0  0  0  0  0  0  0
    7.5690   -0.1560   21.2820 N   0  0  0  0  0  0  0  0  0  0  0  0
    7.6550   -2.5270   21.9190 C   0  0  0  0  0  0  0  0  0  0  0  0
    8.0580   -1.5690   20.9960 C   0  0  0  0  0  0  0  0  0  0  0  0
    6.3920   -5.3640   25.8850 C   0  0  0  0  0  0  0  0  0  0  0  0
    6.1330   -5.2330   24.5300 C   0  0  0  0  0  0  0  0  0  0  0  0
    5.0430   -5.9390   23.7760 C   0  0  0  0  0  0  0  0  0  0  0  0
    4.2070   -6.8480   24.6790 C   0  0  0  0  0  0  0  0  0  0  0  0
    4.4920   -6.9480   26.0490 C   0  0  0  0  0  0  0  0  0  0  0  0
    5.5510   -6.2310   26.6340 C   0  0  0  0  0  0  0  0  0  0  0  0
    6.9310   -4.3530   23.6860 N   0  0  0  0  0  0  0  0  0  0  0  0
    6.4230   -4.4290   22.4300 C   0  0  0  0  0  0  0  0  0  0  0  0
    5.0880   -5.4930   22.1420 S   0  0  0  0  0  0  0  0  0  0  0  0
   11.0510   -1.4040   22.2980 C   0  0  0  0  0  0  0  0  0  0  0  0
   12.3340   -1.9420   22.5580 C   0  0  0  0  0  0  0  0  0  0  0  0
   13.1780   -1.1400   23.2360 C   0  0  0  0  0  0  0  0  0  0  0  0
   12.5800   -0.2370   24.3530 C   0  0  0  0  0  0  0  0  0  0  0  0
   11.0880   -0.6020   24.4370 C   0  0  0  0  0  0  0  0  0  0  0  0
   10.5970   -0.4100   23.1630 C   0  0  0  0  0  0  0  0  0  0  0  0
    5.7050    1.1770   20.4920 C   0  0  0  0  0  0  0  0  0  0  0  0
    5.0170    1.5710   19.3670 C   0  0  0  0  0  0  0  0  0  0  0  0
    5.3650    1.1560   18.0910 C   0  0  0  0  0  0  0  0  0  0  0  0
    6.3840    0.3420   17.8500 N   0  0  0  0  0  0  0  0  0  0  0  0
    7.0990   -0.0870   18.9060 C   0  0  0  0  0  0  0  0  0  0  0  0
    6.7770    0.3220   20.2210 C   0  0  0  0  0  0  0  0  0  0  0  0
  2  3  1  0
  1  5  1  0
  4  5  2  0
  5  6  1  0
  7  8  2  0
  8  9  1  0
  8 10  1  0
  1 11  1  0
 10 12  1  0
 11 12  1  0
  3 13  1  0
 13 14  2  0
 14 15  1  0
 15 16  2  0
 16 17  1  0
 13 18  1  0
 17 18  2  0
 14 19  1  0
  1 20  1  0
 19 20  2  0
 15 21  1  0
 20 21  1  0
 22 23  1  0
 23 24  1  0
 24 25  1  0
 25 26  1  0
  9 27  1  0
 22 27  1  0
 26 27  1  0
 28 29  2  0
 29 30  1  0
 30 31  2  0
 31 32  1  0
 10 33  1  0
 28 33  1  0
 32 33  2  0
M  END
