x0678-x2562-x0734
     RDKit          3D

 41 45  0  0  0  0  0  0  0  0999 V2000
    8.2970   -0.3070   21.4820 C   0  0  0  0  0  0  0  0  0  0  0  0
    8.2820    0.9220   21.3380 O   0  0  0  0  0  0  0  0  0  0  0  0
    7.1090   -1.1220   21.0590 C   0  0  1  0  0  0  0  0  0  0  0  0
   12.0370    2.8770   23.3440 O   0  0  0  0  0  0  0  0  0  0  0  0
    9.3210   -1.0580   21.9800 N   0  0  0  0  0  0  0  0  0  0  0  0
   13.3340    6.6940   21.8420 O   0  0  0  0  0  0  0  0  0  0  0  0
    5.1770   -4.7080   26.1940 N   0  0  0  0  0  0  0  0  0  0  0  0
    4.4620   -5.5570   25.6360 O   0  0  0  0  0  0  0  0  0  0  0  0
    4.7680   -3.6990   26.7780 O   0  0  0  0  0  0  0  0  0  0  0  0
    5.1950   -4.2340   19.7580 O   0  0  0  0  0  0  0  0  0  0  0  0
    6.3450   -3.9520   20.0880 C   0  0  0  0  0  0  0  0  0  0  0  0
    7.2450   -3.1990   19.1230 C   0  0  0  0  0  0  0  0  0  0  0  0
    6.4030   -1.7640   22.2980 C   0  0  0  0  0  0  0  0  0  0  0  0
    4.4900    1.4240   19.3750 N   0  0  0  0  0  0  0  0  0  0  0  0
    5.0550    1.3730   18.1070 C   0  0  0  0  0  0  0  0  0  0  0  0
    6.1280    0.6400   17.7260 N   0  0  0  0  0  0  0  0  0  0  0  0
    6.7640   -0.1320   18.6240 C   0  0  0  0  0  0  0  0  0  0  0  0
    6.3640   -0.2610   20.0840 C   0  0  0  0  0  0  0  0  0  0  0  0
    5.1500    0.5850   20.4160 C   0  0  0  0  0  0  0  0  0  0  0  0
   12.3640    4.5330   21.5830 N   0  0  0  0  0  0  0  0  0  0  0  0
   12.6030    5.6860   22.4910 C   0  0  1  0  0  0  0  0  0  0  0  0
   13.4100    4.9430   23.4780 C   0  0  0  0  0  0  0  0  0  0  0  0
   12.9710    3.7290   22.6860 C   0  0  1  0  0  0  0  0  0  0  0  0
   11.7320   -1.3510   22.1690 C   0  0  0  0  0  0  0  0  0  0  0  0
   13.0720   -0.7410   22.4690 C   0  0  0  0  0  0  0  0  0  0  0  0
   13.1570    0.7060   22.8610 C   0  0  0  0  0  0  0  0  0  0  0  0
   11.9300    1.5720   22.9760 C   0  0  0  0  0  0  0  0  0  0  0  0
   10.6130    0.9320   22.6720 C   0  0  0  0  0  0  0  0  0  0  0  0
   10.5380   -0.4960   22.2740 C   0  0  0  0  0  0  0  0  0  0  0  0
    6.5120   -4.8790   26.1030 C   0  0  0  0  0  0  0  0  0  0  0  0
    7.2400   -4.4760   24.9870 C   0  0  0  0  0  0  0  0  0  0  0  0
    8.6080   -4.7010   24.9750 C   0  0  0  0  0  0  0  0  0  0  0  0
    9.2300   -5.3210   26.0620 C   0  0  0  0  0  0  0  0  0  0  0  0
    8.5010   -5.7170   27.1830 C   0  0  0  0  0  0  0  0  0  0  0  0
    7.1340   -5.4920   27.1980 C   0  0  0  0  0  0  0  0  0  0  0  0
    6.9090   -4.3860   21.3120 N   0  0  0  0  0  0  0  0  0  0  0  0
    6.3900   -5.4030   22.0600 C   0  0  0  0  0  0  0  0  0  0  0  0
    5.7310   -4.8970   23.1910 C   0  0  0  0  0  0  0  0  0  0  0  0
    6.5360   -3.8500   23.8980 N   0  0  0  0  0  0  0  0  0  0  0  0
    7.2610   -2.8860   23.0040 C   0  0  1  0  0  0  0  0  0  0  0  0
    7.8070   -3.6180   21.9790 C   0  0  0  0  0  0  0  0  0  0  0  0
  1  2  2  0
  1  3  1  0
  1  5  1  0
  7  8  2  0
  7  9  1  0
 10 11  2  0
 11 12  1  0
  3 13  1  1
 14 15  2  0
 15 16  1  0
 16 17  2  0
  3 18  1  0
 17 18  1  0
 14 19  1  0
 18 19  2  0
 21  6  1  6
 20 21  1  0
 21 22  1  0
 23  4  1  1
 20 23  1  0
 22 23  1  0
 24 25  2  0
 25 26  1  0
  4 27  1  0
 26 27  2  0
 27 28  1  0
  5 29  1  0
 24 29  1  0
 28 29  2  0
  7 30  1  0
 30 31  2  0
 31 32  1  0
 32 33  2  0
 33 34  1  0
 30 35  1  0
 34 35  2  0
 11 36  1  0
 36 37  1  0
 37 38  1  0
 31 39  1  0
 38 39  1  0
 40 13  1  6
 39 40  1  0
 36 41  1  0
 40 41  1  0
M  CHG  2   7   1   9  -1
M  END
