x0678-x1384
     RDKit          3D

 33 37  0  0  0  0  0  0  0  0999 V2000
    6.2520   -2.7040   21.6240 N   0  0  0  0  0  0  0  0  0  0  0  0
    7.7000   -4.2340   20.5870 C   0  0  0  0  0  0  0  0  0  0  0  0
    5.4470   -4.0520   19.7920 O   0  0  0  0  0  0  0  0  0  0  0  0
    6.3260   -3.6670   20.6180 C   0  0  0  0  0  0  0  0  0  0  0  0
    9.1800    1.6370   21.3230 O   0  0  0  0  0  0  0  0  0  0  0  0
    8.7660    0.5840   21.8070 C   0  0  0  0  0  0  0  0  0  0  0  0
    9.2280    0.0210   23.0130 C   0  0  0  0  0  0  0  0  0  0  0  0
    7.8550   -0.1320   21.2770 N   0  0  0  0  0  0  0  0  0  0  0  0
    7.5740   -2.3060   22.1050 C   0  0  0  0  0  0  0  0  0  0  0  0
    8.2750   -1.4100   21.1040 C   0  0  0  0  0  0  0  0  0  0  0  0
   11.0230   -1.4920   22.2760 C   0  0  0  0  0  0  0  0  0  0  0  0
   12.3760   -1.8810   22.4130 C   0  0  0  0  0  0  0  0  0  0  0  0
   13.2030   -1.1760   23.2880 C   0  0  0  0  0  0  0  0  0  0  0  0
   12.6270   -0.3510   24.4550 C   0  0  0  0  0  0  0  0  0  0  0  0
   11.1190   -0.4800   24.3850 C   0  0  0  0  0  0  0  0  0  0  0  0
   10.7020   -0.3750   23.0730 C   0  0  0  0  0  0  0  0  0  0  0  0
    5.8910    1.2960   20.4540 C   0  0  0  0  0  0  0  0  0  0  0  0
    5.0930    1.6880   19.3920 C   0  0  0  0  0  0  0  0  0  0  0  0
    5.3130    1.1750   18.1190 C   0  0  0  0  0  0  0  0  0  0  0  0
    6.3660    0.2180   17.8580 N   0  0  0  0  0  0  0  0  0  0  0  0
    7.1530   -0.1440   19.0330 C   0  0  0  0  0  0  0  0  0  0  0  0
    6.9240    0.3720   20.2400 C   0  0  0  0  0  0  0  0  0  0  0  0
    4.1530   -1.7210   24.4770 O   0  0  0  0  0  0  0  0  0  0  0  0
    5.2390   -4.5630   24.2270 C   0  0  1  0  0  0  0  0  0  0  0  0
    4.8080   -3.8750   23.0790 C   0  0  1  0  0  0  0  0  0  0  0  0
    3.7710   -4.0270   24.0990 C   0  0  1  0  0  0  0  0  0  0  0  0
    3.1010   -5.2580   24.2440 C   0  0  0  0  0  0  0  0  0  0  0  0
    3.7690   -6.4650   23.8260 C   0  0  0  0  0  0  0  0  0  0  0  0
    5.0680   -5.8810   23.8890 C   0  0  0  0  0  0  0  0  0  0  0  0
    3.5630   -2.9070   25.0300 C   0  0  1  0  0  0  0  0  0  0  0  0
    4.2360   -3.3780   26.1020 C   0  0  0  0  0  0  0  0  0  0  0  0
    5.1500   -4.2500   25.6470 C   0  0  0  0  0  0  0  0  0  0  0  0
    5.2970   -2.5760   22.6250 C   0  0  0  0  0  0  0  0  0  0  0  0
  1  4  1  0
  2  4  1  0
  3  4  2  0
  5  6  2  0
  6  7  1  0
  6  8  1  0
  1  9  1  0
  8 10  1  0
  9 10  1  0
 11 12  1  0
 12 13  1  0
 13 14  1  0
 14 15  1  0
  7 16  1  0
 11 16  1  0
 15 16  1  0
 17 18  2  0
 18 19  1  0
 19 20  2  0
 20 21  1  0
  8 22  1  0
 17 22  1  0
 21 22  2  0
 24 25  1  0
 24 26  1  0
 25 26  1  0
 26 27  1  6
 27 28  1  0
 24 29  1  6
 28 29  2  0
 30 23  1  6
 26 30  1  0
 30 31  1  0
 24 32  1  0
 31 32  2  0
  1 33  1  0
 25 33  1  1
M  END
