x0678-x1458
     RDKit          3D

 34 36  0  0  0  0  0  0  0  0999 V2000
    6.9800   -3.4640   26.7100 N   0  0  0  0  0  0  0  0  0  0  0  0
    9.1060   -4.6660   27.0840 C   0  0  0  0  0  0  0  0  0  0  0  0
    4.9010   -3.5810   25.3530 O   0  0  0  0  0  0  0  0  0  0  0  0
    7.6470   -4.4440   27.5580 C   0  0  0  0  0  0  0  0  0  0  0  0
    5.2970   -4.8670   19.9670 O   0  0  0  0  0  0  0  0  0  0  0  0
    6.9390   -5.8090   27.8350 C   0  0  0  0  0  0  0  0  0  0  0  0
    6.7460   -2.2140   27.1980 C   0  0  0  0  0  0  0  0  0  0  0  0
    6.2410   -3.8210   25.4700 C   0  0  0  0  0  0  0  0  0  0  0  0
    6.3090   -4.2850   20.3300 C   0  0  0  0  0  0  0  0  0  0  0  0
    7.0250   -3.3740   19.3590 C   0  0  0  0  0  0  0  0  0  0  0  0
    9.2170    1.6890   21.2590 O   0  0  0  0  0  0  0  0  0  0  0  0
    8.7600    0.4920   21.8760 C   0  0  0  0  0  0  0  0  0  0  0  0
    9.3540   -0.0120   23.0360 C   0  0  0  0  0  0  0  0  0  0  0  0
    7.6200   -0.2610   21.3590 N   0  0  0  0  0  0  0  0  0  0  0  0
    6.2550   -2.2030   22.0130 C   0  0  0  0  0  0  0  0  0  0  0  0
    6.8830   -0.8890   22.4710 C   0  0  0  0  0  0  0  0  0  0  0  0
    6.8520   -4.4680   21.5660 N   0  0  0  0  0  0  0  0  0  0  0  0
    7.3020   -3.2940   22.2690 C   0  0  2  0  0  0  0  0  0  0  0  0
    7.6310   -3.4350   23.6060 C   0  0  0  0  0  0  0  0  0  0  0  0
    7.0010   -4.4760   24.2650 C   0  0  2  0  0  0  0  0  0  0  0  0
    6.0700   -5.2610   23.5770 C   0  0  0  0  0  0  0  0  0  0  0  0
    6.5070   -5.6730   22.3160 C   0  0  0  0  0  0  0  0  0  0  0  0
   11.1650   -1.4160   22.3350 C   0  0  0  0  0  0  0  0  0  0  0  0
   12.6430   -1.8810   22.4160 C   0  0  0  0  0  0  0  0  0  0  0  0
   13.2940   -1.1420   23.6340 C   0  0  0  0  0  0  0  0  0  0  0  0
   12.3520   -0.8970   24.6190 C   0  0  0  0  0  0  0  0  0  0  0  0
   11.3640   -0.0140   24.2410 C   0  0  0  0  0  0  0  0  0  0  0  0
   10.8780   -0.1900   22.9730 C   0  0  0  0  0  0  0  0  0  0  0  0
    5.7560    1.0850   20.4410 C   0  0  0  0  0  0  0  0  0  0  0  0
    5.0230    1.5180   19.3160 C   0  0  0  0  0  0  0  0  0  0  0  0
    5.4300    1.0350   18.0670 C   0  0  0  0  0  0  0  0  0  0  0  0
    6.4590    0.1950   17.9040 N   0  0  0  0  0  0  0  0  0  0  0  0
    7.1320   -0.2000   19.0010 C   0  0  0  0  0  0  0  0  0  0  0  0
    6.8280    0.2160   20.2900 C   0  0  0  0  0  0  0  0  0  0  0  0
  1  4  1  0
  2  4  1  0
  4  6  1  0
  1  7  1  0
  1  8  1  0
  3  8  2  0
  5  9  2  0
  9 10  1  0
 11 12  2  0
 12 13  1  0
 12 14  1  0
 14 16  1  0
 15 16  1  0
  9 17  1  0
 18 15  1  1
 17 18  1  0
 18 19  1  0
 20  8  1  1
 19 20  1  0
 20 21  1  0
 17 22  1  0
 21 22  1  0
 23 24  1  0
 24 25  1  0
 25 26  1  0
 26 27  1  0
 13 28  1  0
 23 28  1  0
 27 28  1  0
 29 30  2  0
 30 31  1  0
 31 32  2  0
 32 33  1  0
 14 34  1  0
 29 34  1  0
 33 34  2  0
M  END
