x0678-x1351
     RDKit          3D

 35 38  0  0  0  0  0  0  0  0999 V2000
    7.0610   -3.1550   19.1540 C   0  0  0  0  0  0  0  0  0  0  0  0
    5.1690   -4.4210   19.8070 O   0  0  0  0  0  0  0  0  0  0  0  0
    6.1660   -3.8050   20.1680 C   0  0  0  0  0  0  0  0  0  0  0  0
    6.0610   -2.6470   25.0880 N   0  0  0  0  0  0  0  0  0  0  0  0
    7.8200   -2.9100   26.6480 O   0  0  0  0  0  0  0  0  0  0  0  0
    6.8790   -2.2430   26.2380 C   0  0  0  0  0  0  0  0  0  0  0  0
    8.9910    1.3140   21.2170 O   0  0  0  0  0  0  0  0  0  0  0  0
    8.5610    0.2500   21.6890 C   0  0  0  0  0  0  0  0  0  0  0  0
    9.0550   -0.4540   22.9470 C   0  0  0  0  0  0  0  0  0  0  0  0
    7.5350   -0.5590   21.2150 N   0  0  0  0  0  0  0  0  0  0  0  0
    6.8320   -1.4510   22.0470 C   0  0  0  0  0  0  0  0  0  0  0  0
    6.4790   -3.7750   21.4980 N   0  0  0  0  0  0  0  0  0  0  0  0
    7.4030   -2.7470   22.1120 C   0  0  2  0  0  0  0  0  0  0  0  0
    7.6500   -3.1380   23.4540 C   0  0  0  0  0  0  0  0  0  0  0  0
    6.5750   -3.6940   24.1660 C   0  0  2  0  0  0  0  0  0  0  0  0
    5.4400   -4.3330   23.3690 C   0  0  0  0  0  0  0  0  0  0  0  0
    6.2790   -4.9750   22.2720 C   0  0  0  0  0  0  0  0  0  0  0  0
    7.1490   -0.5200   28.1120 C   0  0  0  0  0  0  0  0  0  0  0  0
    6.8090    0.6780   28.7300 C   0  0  0  0  0  0  0  0  0  0  0  0
    5.8230    1.4930   28.1780 C   0  0  0  0  0  0  0  0  0  0  0  0
    5.1890    1.0810   26.9960 C   0  0  0  0  0  0  0  0  0  0  0  0
    5.5770   -0.1340   26.4220 C   0  0  0  0  0  0  0  0  0  0  0  0
    6.5120   -0.9490   26.9090 C   0  0  0  0  0  0  0  0  0  0  0  0
   11.1140   -1.5500   22.2610 C   0  0  0  0  0  0  0  0  0  0  0  0
   12.6560   -1.6030   22.2910 C   0  0  0  0  0  0  0  0  0  0  0  0
   13.2300   -0.6160   23.1060 C   0  0  0  0  0  0  0  0  0  0  0  0
   12.4620    0.1150   24.0480 C   0  0  0  0  0  0  0  0  0  0  0  0
   11.1260   -0.1780   24.1180 C   0  0  0  0  0  0  0  0  0  0  0  0
   10.5740   -0.4250   22.8750 C   0  0  0  0  0  0  0  0  0  0  0  0
    5.6390    0.8390   20.4620 C   0  0  0  0  0  0  0  0  0  0  0  0
    4.9740    1.3700   19.3560 C   0  0  0  0  0  0  0  0  0  0  0  0
    5.3820    1.1260   18.0810 C   0  0  0  0  0  0  0  0  0  0  0  0
    6.4320    0.3700   17.7790 N   0  0  0  0  0  0  0  0  0  0  0  0
    7.0910   -0.1590   18.8330 C   0  0  0  0  0  0  0  0  0  0  0  0
    6.7600    0.0330   20.1770 C   0  0  0  0  0  0  0  0  0  0  0  0
  1  3  1  0
  2  3  2  0
  4  6  1  0
  5  6  2  0
  7  8  2  0
  8  9  1  0
  8 10  1  0
 10 11  1  0
  3 12  1  0
 13 11  1  1
 12 13  1  0
 13 14  1  0
 15  4  1  6
 14 15  1  0
 15 16  1  0
 12 17  1  0
 16 17  1  0
 18 19  2  0
 19 20  1  0
 20 21  2  0
 21 22  1  0
  6 23  1  0
 18 23  1  0
 22 23  2  0
 24 25  1  0
 25 26  1  0
 26 27  1  0
 27 28  1  0
  9 29  1  0
 24 29  1  0
 28 29  1  0
 30 31  2  0
 31 32  1  0
 32 33  2  0
 33 34  1  0
 10 35  1  0
 30 35  1  0
 34 35  2  0
M  END
