x0678-x0354
     RDKit          3D

 29 31  0  0  0  0  0  0  0  0999 V2000
   13.2350   -1.2030   22.5150 C   0  0  0  0  0  0  0  0  0  0  0  0
    7.4250   -2.2620   25.1190 O   0  0  0  0  0  0  0  0  0  0  0  0
    7.4470   -0.5550   27.3330 O   0  0  0  0  0  0  0  0  0  0  0  0
    8.5350   -1.4000   25.3820 C   0  0  0  0  0  0  0  0  0  0  0  0
    8.1660   -0.2270   26.3790 C   0  0  0  0  0  0  0  0  0  0  0  0
    5.6790    3.6080   30.9000 C   0  0  0  0  0  0  0  0  0  0  0  0
   12.3630   -1.3460   23.5800 N   0  0  0  0  0  0  0  0  0  0  0  0
   11.3470   -2.3680   23.2310 C   0  0  0  0  0  0  0  0  0  0  0  0
   10.3730   -2.7520   24.3610 C   0  0  0  0  0  0  0  0  0  0  0  0
    9.8350   -1.4970   24.9180 N   0  0  0  0  0  0  0  0  0  0  0  0
   10.8000   -0.3690   25.1430 C   0  0  0  0  0  0  0  0  0  0  0  0
   11.6300   -0.2140   24.0560 C   0  0  2  0  0  0  0  0  0  0  0  0
    7.7880    1.5560   28.2360 C   0  0  0  0  0  0  0  0  0  0  0  0
    7.4400    2.7520   29.1440 C   0  0  0  0  0  0  0  0  0  0  0  0
    6.1570    2.5280   29.9630 C   0  0  0  0  0  0  0  0  0  0  0  0
    5.4360    1.3380   29.8460 C   0  0  0  0  0  0  0  0  0  0  0  0
    5.8470    0.3160   28.9890 C   0  0  0  0  0  0  0  0  0  0  0  0
    6.9880    0.4110   28.2000 C   0  0  0  0  0  0  0  0  0  0  0  0
    9.1990    1.7760   21.2810 O   0  0  0  0  0  0  0  0  0  0  0  0
    8.7020    0.5640   21.8400 C   0  0  0  0  0  0  0  0  0  0  0  0
    9.3430    0.0700   22.9700 C   0  0  0  0  0  0  0  0  0  0  0  0
    7.5670   -0.1310   21.2800 N   0  0  0  0  0  0  0  0  0  0  0  0
    5.7430    1.0330   20.5020 C   0  0  0  0  0  0  0  0  0  0  0  0
    4.8330    1.5200   19.3590 C   0  0  0  0  0  0  0  0  0  0  0  0
    5.1980    1.0570   17.9250 C   0  0  0  0  0  0  0  0  0  0  0  0
    6.3780    0.1890   17.8520 N   0  0  0  0  0  0  0  0  0  0  0  0
    7.0770   -0.1600   18.9370 C   0  0  0  0  0  0  0  0  0  0  0  0
    6.8350    0.2140   20.2440 C   0  0  0  0  0  0  0  0  0  0  0  0
   10.8320    0.4050   22.9390 C   0  0  0  0  0  0  0  0  0  0  0  0
  2  4  2  0
  3  5  1  0
  4  5  1  0
  1  7  1  0
  7  8  1  0
  8  9  1  0
  4 10  1  0
  9 10  1  0
 10 11  1  0
  7 12  1  0
 11 12  1  0
 13 14  2  0
  6 15  1  0
 14 15  1  0
 15 16  2  0
 16 17  1  0
  3 18  1  0
 13 18  1  0
 17 18  2  0
 19 20  2  0
 20 21  1  0
 20 22  1  0
 23 24  2  0
 24 25  1  0
 25 26  2  0
 26 27  1  0
 22 28  1  0
 23 28  1  0
 27 28  2  0
 12 29  1  6
 21 29  1  0
M  END
