x0689-x3124-x2694-x0820
     RDKit          3D

 51 56  0  0  0  0  0  0  0  0999 V2000
    7.6060   -1.4690   22.2880 N   0  0  0  0  0  0  0  0  0  0  0  0
    7.6590    2.1410   22.9180 N   0  0  0  0  0  0  0  0  0  0  0  0
    9.1150    1.2130   21.2060 O   0  0  0  0  0  0  0  0  0  0  0  0
   10.9350    6.6450   23.8400 O   0  0  0  0  0  0  0  0  0  0  0  0
    6.9590   -0.0970   21.9040 C   0  0  1  0  0  0  0  0  0  0  0  0
    7.9520    1.1030   22.0360 C   0  0  0  0  0  0  0  0  0  0  0  0
   10.3690    1.8040   24.0770 C   0  0  0  0  0  0  0  0  0  0  0  0
   11.8560    6.5020   24.9270 C   0  0  0  0  0  0  0  0  0  0  0  0
   12.4510   -1.3530   23.2800 C   0  0  0  0  0  0  0  0  0  0  0  0
   12.9140    0.1220   23.3930 C   0  0  0  0  0  0  0  0  0  0  0  0
   12.9400   -1.9350   21.9490 C   0  0  0  0  0  0  0  0  0  0  0  0
   13.0070   -2.1980   24.4430 C   0  0  0  0  0  0  0  0  0  0  0  0
   11.9960   -3.0760   25.0830 C   0  0  0  0  0  0  0  0  0  0  0  0
    5.9680   -3.2450   21.4830 N   0  0  0  0  0  0  0  0  0  0  0  0
    5.5780   -5.0120   20.0370 O   0  0  0  0  0  0  0  0  0  0  0  0
    7.0740   -2.9310   22.4710 C   0  0  2  0  0  0  0  0  0  0  0  0
    6.1020   -3.9190   20.2910 C   0  0  0  0  0  0  0  0  0  0  0  0
    6.9290   -3.1960   19.2300 C   0  0  0  0  0  0  0  0  0  0  0  0
    4.2800   -4.7050   27.2100 O   0  0  0  0  0  0  0  0  0  0  0  0
    6.4050    0.1460   17.9510 N   0  0  0  0  0  0  0  0  0  0  0  0
    5.1880    0.9220   17.9250 C   0  0  0  0  0  0  0  0  0  0  0  0
    4.5120    1.3550   19.2040 C   0  0  0  0  0  0  0  0  0  0  0  0
    5.0760    1.0110   20.4080 C   0  0  0  0  0  0  0  0  0  0  0  0
    6.3380    0.2190   20.5460 C   0  0  0  0  0  0  0  0  0  0  0  0
    7.0120   -0.2300   19.2300 C   0  0  0  0  0  0  0  0  0  0  0  0
    9.0370   -1.1030   24.1630 N   0  0  0  0  0  0  0  0  0  0  0  0
   10.4230   -1.1000   24.3450 O   0  0  0  0  0  0  0  0  0  0  0  0
   10.9590   -1.3350   23.2640 C   0  0  0  0  0  0  0  0  0  0  0  0
   10.0500   -1.5210   22.2860 C   0  0  0  0  0  0  0  0  0  0  0  0
    8.8210   -1.3700   22.8730 C   0  0  0  0  0  0  0  0  0  0  0  0
    9.7760    3.2370   23.6820 C   0  0  0  0  0  0  0  0  0  0  0  0
   10.6200    4.3800   23.9180 C   0  0  0  0  0  0  0  0  0  0  0  0
   10.0950    5.5890   23.5820 C   0  0  0  0  0  0  0  0  0  0  0  0
    8.8130    5.6750   23.0310 C   0  0  0  0  0  0  0  0  0  0  0  0
    8.0090    4.5670   22.8040 C   0  0  0  0  0  0  0  0  0  0  0  0
    8.4730    3.3080   23.1310 C   0  0  0  0  0  0  0  0  0  0  0  0
    6.4860   -3.4370   23.8500 C   0  0  0  0  0  0  0  0  0  0  0  0
    7.1690   -4.0590   24.9680 C   0  0  0  0  0  0  0  0  0  0  0  0
    6.3990   -4.4820   26.1070 C   0  0  0  0  0  0  0  0  0  0  0  0
    5.0520   -4.2940   26.1480 C   0  0  0  0  0  0  0  0  0  0  0  0
    4.4350   -3.6680   25.1060 C   0  0  0  0  0  0  0  0  0  0  0  0
    5.1060   -3.2520   23.9650 C   0  0  0  0  0  0  0  0  0  0  0  0
    6.9940   -5.0990   27.2210 C   0  0  0  0  0  0  0  0  0  0  0  0
    8.3510   -5.3200   27.2690 C   0  0  0  0  0  0  0  0  0  0  0  0
    9.1370   -4.9220   26.1920 C   0  0  0  0  0  0  0  0  0  0  0  0
    8.5610   -4.3130   25.0760 C   0  0  0  0  0  0  0  0  0  0  0  0
    1.8760   -4.5650   24.7990 S   0  0  0  0  0  0  0  0  0  0  0  0
    3.0420   -3.4340   25.2590 C   0  0  0  0  0  0  0  0  0  0  0  0
    2.4700   -2.2350   25.8240 C   0  0  0  0  0  0  0  0  0  0  0  0
    1.0650   -2.2670   25.8680 C   0  0  0  0  0  0  0  0  0  0  0  0
    0.7060   -3.4660   25.3410 C   0  0  0  0  0  0  0  0  0  0  0  0
  1  5  1  0
  2  6  1  0
  3  6  2  0
  5  6  1  6
  4  8  1  0
  9 10  1  0
  9 11  1  0
  9 12  1  0
 12 13  1  0
  1 16  1  0
 16 14  1  6
 14 17  1  0
 15 17  2  0
 17 18  1  0
 20 21  2  0
 21 22  1  0
 22 23  2  0
  5 24  1  0
 23 24  1  0
 20 25  1  0
 24 25  2  0
 26 27  1  0
  9 28  1  0
 27 28  1  0
 28 29  2  0
  1 30  1  0
 26 30  2  0
 29 30  1  0
  7 31  1  0
 31 32  2  0
  4 33  1  0
 32 33  1  0
 33 34  2  0
 34 35  1  0
  2 36  1  0
 31 36  1  0
 35 36  2  0
 16 37  1  0
 37 38  2  0
 38 39  1  0
 19 40  1  0
 39 40  2  0
 40 41  1  0
 37 42  1  0
 41 42  2  0
 39 43  1  0
 43 44  2  0
 44 45  1  0
 38 46  1  0
 45 46  2  0
 41 48  1  0
 47 48  1  0
 48 49  2  0
 49 50  1  0
 47 51  1  0
 50 51  2  0
M  END
