x0689-x0820-x2776
     RDKit          3D

 51 56  0  0  0  0  0  0  0  0999 V2000
    7.6400   -1.7950   21.9230 N   0  0  0  0  0  0  0  0  0  0  0  0
    7.8550    1.8350   22.6980 N   0  0  0  0  0  0  0  0  0  0  0  0
    9.2580    0.8920   21.1650 O   0  0  0  0  0  0  0  0  0  0  0  0
   10.7500    6.7230   24.0230 O   0  0  0  0  0  0  0  0  0  0  0  0
    7.0920   -0.3350   21.5610 C   0  0  1  0  0  0  0  0  0  0  0  0
   13.1730   -2.6120   24.5540 O   0  0  0  0  0  0  0  0  0  0  0  0
    8.1840    0.8180   21.7820 C   0  0  0  0  0  0  0  0  0  0  0  0
   10.3800    1.5730   24.0140 C   0  0  0  0  0  0  0  0  0  0  0  0
   11.9200    6.6380   24.8590 C   0  0  0  0  0  0  0  0  0  0  0  0
   12.5350   -1.5610   24.6760 C   0  0  1  0  0  0  0  0  0  0  0  0
   13.2360   -0.3000   24.2750 C   0  0  0  0  0  0  0  0  0  0  0  0
   13.0630   -3.4060   25.5120 C   0  0  0  0  0  0  0  0  0  0  0  0
    6.2090   -3.9550   21.6630 N   0  0  0  0  0  0  0  0  0  0  0  0
    5.7670   -5.2760   19.9860 O   0  0  0  0  0  0  0  0  0  0  0  0
    7.2020   -3.2400   22.4430 C   0  0  2  0  0  0  0  0  0  0  0  0
    6.3070   -4.2570   20.3650 C   0  0  0  0  0  0  0  0  0  0  0  0
    7.0740   -3.3450   19.4240 C   0  0  0  0  0  0  0  0  0  0  0  0
    3.7530   -4.1960   26.6010 O   0  0  0  0  0  0  0  0  0  0  0  0
    6.5120    0.2500   17.7500 N   0  0  0  0  0  0  0  0  0  0  0  0
    5.3570    0.9240   17.7660 C   0  0  0  0  0  0  0  0  0  0  0  0
    4.6910    1.2230   18.9190 C   0  0  0  0  0  0  0  0  0  0  0  0
    5.2500    0.8050   20.1410 C   0  0  0  0  0  0  0  0  0  0  0  0
    6.4760    0.0920   20.1830 C   0  0  0  0  0  0  0  0  0  0  0  0
    7.0490   -0.1520   18.9360 C   0  0  0  0  0  0  0  0  0  0  0  0
    9.8020    2.9030   23.6590 C   0  0  0  0  0  0  0  0  0  0  0  0
   10.6410    4.1280   24.0470 C   0  0  0  0  0  0  0  0  0  0  0  0
   10.1360    5.5300   23.7370 C   0  0  0  0  0  0  0  0  0  0  0  0
    8.7980    5.5590   23.0220 C   0  0  0  0  0  0  0  0  0  0  0  0
    8.0320    4.2840   22.6670 C   0  0  0  0  0  0  0  0  0  0  0  0
    8.5640    3.0240   23.0030 C   0  0  0  0  0  0  0  0  0  0  0  0
   10.0680   -1.8360   21.7870 C   0  0  0  0  0  0  0  0  0  0  0  0
   11.2910   -1.7900   22.4560 C   0  0  0  0  0  0  0  0  0  0  0  0
   11.2630   -1.6120   23.8540 C   0  0  0  0  0  0  0  0  0  0  0  0
   10.1220   -1.4590   24.6230 C   0  0  0  0  0  0  0  0  0  0  0  0
    8.8830   -1.4900   24.0330 C   0  0  0  0  0  0  0  0  0  0  0  0
    8.9050   -1.7010   22.5380 C   0  0  0  0  0  0  0  0  0  0  0  0
    6.6460   -3.5650   23.8610 C   0  0  0  0  0  0  0  0  0  0  0  0
    7.2590   -3.9210   25.1920 C   0  0  0  0  0  0  0  0  0  0  0  0
    6.1410   -4.1280   26.1720 C   0  0  0  0  0  0  0  0  0  0  0  0
    4.7150   -3.9270   25.6620 C   0  0  0  0  0  0  0  0  0  0  0  0
    4.1890   -3.5150   24.3690 C   0  0  0  0  0  0  0  0  0  0  0  0
    5.3350   -3.4420   23.6560 C   0  0  0  0  0  0  0  0  0  0  0  0
    6.4640   -4.4920   27.5060 C   0  0  0  0  0  0  0  0  0  0  0  0
    7.7780   -4.6390   27.9180 C   0  0  0  0  0  0  0  0  0  0  0  0
    8.8400   -4.4350   26.9970 C   0  0  0  0  0  0  0  0  0  0  0  0
    8.5730   -4.0880   25.6570 C   0  0  0  0  0  0  0  0  0  0  0  0
    2.9620   -2.1060   25.9710 S   0  0  0  0  0  0  0  0  0  0  0  0
    3.0270   -3.5910   25.0910 C   0  0  0  0  0  0  0  0  0  0  0  0
    1.9540   -4.3920   25.2910 C   0  0  0  0  0  0  0  0  0  0  0  0
    1.0120   -3.6980   26.2190 C   0  0  0  0  0  0  0  0  0  0  0  0
    1.4620   -2.4570   26.6470 C   0  0  0  0  0  0  0  0  0  0  0  0
  1  5  1  0
  2  7  1  0
  3  7  2  0
  5  7  1  6
  4  9  1  0
  6 10  1  0
 10 11  1  6
  6 12  1  0
  1 15  1  0
 15 13  1  6
 13 16  1  0
 14 16  2  0
 16 17  1  0
 19 20  2  0
 20 21  1  0
 21 22  2  0
  5 23  1  0
 22 23  1  0
 19 24  1  0
 23 24  2  0
  8 25  1  0
 25 26  2  0
  4 27  1  0
 26 27  1  0
 27 28  2  0
 28 29  1  0
  2 30  1  0
 25 30  1  0
 29 30  2  0
 31 32  2  0
 10 33  1  0
 32 33  1  0
 33 34  2  0
 34 35  1  0
  1 36  1  0
 31 36  1  0
 35 36  2  0
 15 37  1  0
 37 38  2  0
 38 39  1  0
 18 40  1  0
 39 40  2  0
 40 41  1  0
 37 42  1  0
 41 42  2  0
 39 43  1  0
 43 44  2  0
 44 45  1  0
 38 46  1  0
 45 46  2  0
 41 48  1  0
 47 48  1  0
 48 49  2  0
 49 50  1  0
 47 51  1  0
 50 51  2  0
M  END
