x0689-x0752
     RDKit          3D

 18 19  0  0  0  0  0  0  0  0999 V2000
    7.4340   -3.2060   19.2150 C   0  0  0  0  0  0  0  0  0  0  0  0
    5.6230   -4.5230   19.9380 O   0  0  0  0  0  0  0  0  0  0  0  0
    6.6410   -3.8950   20.2870 C   0  0  0  0  0  0  0  0  0  0  0  0
    4.0370   -6.3890   26.3290 O   0  0  0  0  0  0  0  0  0  0  0  0
    5.7540   -4.6190   26.8020 O   0  0  0  0  0  0  0  0  0  0  0  0
    4.7640   -5.2120   25.9320 S   0  0  0  0  0  0  0  0  0  0  0  0
    7.0860   -3.8440   21.6080 N   0  0  0  0  0  0  0  0  0  0  0  0
    5.2010   -4.8610   21.8470 N   0  0  0  0  0  0  0  0  0  0  0  0
    5.3150   -6.1220   22.2320 C   0  0  0  0  0  0  0  0  0  0  0  0
    4.8200   -6.4400   23.4690 C   0  0  0  0  0  0  0  0  0  0  0  0
    5.5050   -5.5440   24.4520 N   0  0  0  0  0  0  0  0  0  0  0  0
    6.5600   -4.6250   23.8640 C   0  0  0  0  0  0  0  0  0  0  0  0
    6.1100   -4.0470   22.6440 C   0  0  1  0  0  0  0  0  0  0  0  0
    3.9010   -2.2830   26.0760 S   0  0  0  0  0  0  0  0  0  0  0  0
    3.5230   -3.9380   25.7670 C   0  0  0  0  0  0  0  0  0  0  0  0
    2.0390   -3.9390   25.3910 C   0  0  0  0  0  0  0  0  0  0  0  0
    1.4400   -2.7240   25.4030 C   0  0  0  0  0  0  0  0  0  0  0  0
    2.2950   -1.6870   25.7550 C   0  0  0  0  0  0  0  0  0  0  0  0
  1  3  1  0
  2  3  2  0
  4  6  2  0
  5  6  2  0
  3  7  1  0
  8  9  1  0
  9 10  1  0
  6 11  1  0
 10 11  1  0
 11 12  1  0
 13  7  1  6
  8 13  1  0
 12 13  1  0
  6 15  1  0
 14 15  1  0
 15 16  2  0
 16 17  1  0
 14 18  1  0
 17 18  2  0
M  END
