x0689-x0755
     RDKit          3D

 20 21  0  0  0  0  0  0  0  0999 V2000
    4.4740   -6.3800   26.1290 O   0  0  0  0  0  0  0  0  0  0  0  0
    6.1740   -4.6900   26.7760 O   0  0  0  0  0  0  0  0  0  0  0  0
    5.3680   -4.9590   20.0000 O   0  0  0  0  0  0  0  0  0  0  0  0
    6.3910   -4.6190   20.5750 C   0  0  0  0  0  0  0  0  0  0  0  0
    7.2280   -3.5100   19.9270 C   0  0  0  0  0  0  0  0  0  0  0  0
    2.1460   -5.5180   25.6770 F   0  0  0  0  0  0  0  0  0  0  0  0
    5.5160   -2.1280   26.1020 F   0  0  0  0  0  0  0  0  0  0  0  0
    5.1240   -5.1100   25.8900 S   0  0  0  0  0  0  0  0  0  0  0  0
    2.5340   -4.2410   25.7820 C   0  0  0  0  0  0  0  0  0  0  0  0
    3.8780   -3.8710   25.8880 C   0  0  0  0  0  0  0  0  0  0  0  0
    4.2340   -2.4930   25.9990 C   0  0  0  0  0  0  0  0  0  0  0  0
    3.2670   -1.4360   26.0100 C   0  0  0  0  0  0  0  0  0  0  0  0
    1.9040   -1.7120   25.9120 C   0  0  0  0  0  0  0  0  0  0  0  0
    1.4950   -3.1900   25.7870 C   0  0  0  0  0  0  0  0  0  0  0  0
    6.7320   -5.2720   21.7630 N   0  0  0  0  0  0  0  0  0  0  0  0
    7.5120   -4.7650   22.7560 C   0  0  0  0  0  0  0  0  0  0  0  0
    6.9220   -4.3180   23.9390 C   0  0  0  0  0  0  0  0  0  0  0  0
    5.7370   -5.1390   24.3120 N   0  0  0  0  0  0  0  0  0  0  0  0
    4.9030   -5.6040   23.1950 C   0  0  0  0  0  0  0  0  0  0  0  0
    5.7170   -6.2080   22.2390 C   0  0  0  0  0  0  0  0  0  0  0  0
  3  4  2  0
  4  5  1  0
  1  8  2  0
  2  8  2  0
  6  9  1  0
  8 10  1  0
  9 10  2  0
  7 11  1  0
 10 11  1  0
 11 12  2  0
 12 13  1  0
  9 14  1  0
 13 14  2  0
  4 15  1  0
 15 16  1  0
 16 17  1  0
  8 18  1  0
 17 18  1  0
 18 19  1  0
 15 20  1  0
 19 20  1  0
M  END
