x0689-x1249
     RDKit          3D

 38 41  0  0  0  0  0  0  0  0999 V2000
    7.2680   -3.4660   19.8440 C   0  0  0  0  0  0  0  0  0  0  0  0
    5.2610   -4.6900   19.9390 O   0  0  0  0  0  0  0  0  0  0  0  0
    6.3280   -4.4750   20.4960 C   0  0  0  0  0  0  0  0  0  0  0  0
    4.0380   -6.3320   25.9330 O   0  0  0  0  0  0  0  0  0  0  0  0
    5.7300   -4.6200   26.6560 O   0  0  0  0  0  0  0  0  0  0  0  0
    4.7340   -5.0880   25.7170 S   0  0  0  0  0  0  0  0  0  0  0  0
    5.4190   -3.0130   23.2090 C   0  0  0  0  0  0  0  0  0  0  0  0
    5.5640   -1.8280   23.9210 C   0  0  0  0  0  0  0  0  0  0  0  0
    6.6820   -5.1810   21.6420 N   0  0  0  0  0  0  0  0  0  0  0  0
    5.6990   -6.2270   22.0020 C   0  0  0  0  0  0  0  0  0  0  0  0
    4.8090   -5.8670   23.0510 C   0  0  0  0  0  0  0  0  0  0  0  0
    5.4410   -5.1260   24.1820 N   0  0  0  0  0  0  0  0  0  0  0  0
    6.2750   -4.1300   23.8240 C   0  0  1  0  0  0  0  0  0  0  0  0
    7.3660   -4.6250   22.8390 C   0  0  0  0  0  0  0  0  0  0  0  0
    3.8210   -2.2780   26.2030 S   0  0  0  0  0  0  0  0  0  0  0  0
    3.4310   -3.8820   25.6750 C   0  0  0  0  0  0  0  0  0  0  0  0
    2.0940   -3.9740   25.2870 C   0  0  0  0  0  0  0  0  0  0  0  0
    1.4360   -2.7740   25.4250 C   0  0  0  0  0  0  0  0  0  0  0  0
    2.2210   -1.7550   25.9050 C   0  0  0  0  0  0  0  0  0  0  0  0
    8.1800    0.5960   24.7860 N   0  0  0  0  0  0  0  0  0  0  0  0
    7.6910    1.3660   24.0720 C   0  0  0  0  0  0  0  0  0  0  0  0
    8.3270    2.2740   23.5400 O   0  0  0  0  0  0  0  0  0  0  0  0
    9.4670    0.7920   25.2700 C   0  0  0  0  0  0  0  0  0  0  0  0
   13.8130   -1.7810   20.6210 N   0  0  0  0  0  0  0  0  0  0  0  0
   12.9910   -1.3930   21.7030 C   0  0  0  0  0  0  0  0  0  0  0  0
    3.6300    1.2360   23.6530 O   0  0  0  0  0  0  0  0  0  0  0  0
    4.4540    1.3470   22.5000 C   0  0  0  0  0  0  0  0  0  0  0  0
    5.6140    2.0320   22.8500 C   0  0  0  0  0  0  0  0  0  0  0  0
    6.3410    1.2060   23.8640 N   0  0  0  0  0  0  0  0  0  0  0  0
    5.5520    0.7780   25.0650 C   0  0  0  0  0  0  0  0  0  0  0  0
    4.1890    0.3010   24.5770 C   0  0  2  0  0  0  0  0  0  0  0  0
   11.4770    1.0200   23.9140 C   0  0  0  0  0  0  0  0  0  0  0  0
   12.3200    0.4150   23.0300 C   0  0  0  0  0  0  0  0  0  0  0  0
   12.0790   -0.9210   22.6210 C   0  0  0  0  0  0  0  0  0  0  0  0
   11.0770   -1.8760   22.9530 C   0  0  0  0  0  0  0  0  0  0  0  0
   10.2330   -1.0320   23.9380 C   0  0  0  0  0  0  0  0  0  0  0  0
   10.4160    0.2640   24.3620 C   0  0  0  0  0  0  0  0  0  0  0  0
    4.2850   -1.0060   23.7750 C   0  0  0  0  0  0  0  0  0  0  0  0
  1  3  1  0
  2  3  2  0
  4  6  2  0
  5  6  2  0
  7  8  1  0
  3  9  1  0
  9 10  1  0
 10 11  1  0
  6 12  1  0
 11 12  1  0
 13  7  1  6
 12 13  1  0
  9 14  1  0
 13 14  1  0
  6 16  1  0
 15 16  1  0
 16 17  2  0
 17 18  1  0
 15 19  1  0
 18 19  2  0
 20 21  1  0
 21 22  2  0
 20 23  1  0
 24 25  3  0
 26 27  1  0
 27 28  1  0
 21 29  1  0
 28 29  1  0
 29 30  1  0
 26 31  1  0
 30 31  1  0
 32 33  2  0
 25 34  1  0
 33 34  1  0
 34 35  2  0
 35 36  1  0
 23 37  1  0
 32 37  1  0
 36 37  2  0
  8 38  1  0
 31 38  1  6
M  END
