x0689-x2908
     RDKit          3D

 37 40  0  0  0  0  0  0  0  0999 V2000
    7.2060   -3.3770   19.5850 C   0  0  0  0  0  0  0  0  0  0  0  0
    5.6880   -5.1520   20.0220 O   0  0  0  0  0  0  0  0  0  0  0  0
    6.4160   -4.3000   20.5190 C   0  0  0  0  0  0  0  0  0  0  0  0
    4.1520   -6.3920   26.1040 O   0  0  0  0  0  0  0  0  0  0  0  0
    5.7870   -4.6000   26.7580 O   0  0  0  0  0  0  0  0  0  0  0  0
    4.8510   -5.1640   25.8140 S   0  0  0  0  0  0  0  0  0  0  0  0
    4.6120    1.2690   21.5490 C   0  0  0  0  0  0  0  0  0  0  0  0
    8.5120    0.9730   21.2940 O   0  0  0  0  0  0  0  0  0  0  0  0
   13.2720   -1.9290   21.3990 Cl  0  0  0  0  0  0  0  0  0  0  0  0
    6.8870   -0.7060   20.9740 N   0  0  0  0  0  0  0  0  0  0  0  0
    8.6710   -0.8300   22.5690 N   0  0  0  0  0  0  0  0  0  0  0  0
    8.0630   -0.1300   21.6180 C   0  0  0  0  0  0  0  0  0  0  0  0
    6.5560   -2.6550   22.4130 C   0  0  0  0  0  0  0  0  0  0  0  0
    5.9680   -1.7300   21.5180 C   0  0  0  0  0  0  0  0  0  0  0  0
    6.3960   -4.1670   22.0590 C   0  0  0  0  0  0  0  0  0  0  0  0
    4.9310   -4.5880   22.2750 C   0  0  0  0  0  0  0  0  0  0  0  0
    4.8390   -5.6450   23.1490 C   0  0  0  0  0  0  0  0  0  0  0  0
    5.6610   -5.3570   24.3450 N   0  0  0  0  0  0  0  0  0  0  0  0
    6.9740   -5.0350   24.1480 C   0  0  0  0  0  0  0  0  0  0  0  0
    7.3040   -4.9380   22.7780 C   0  0  0  0  0  0  0  0  0  0  0  0
    3.9500   -2.2510   26.0310 S   0  0  0  0  0  0  0  0  0  0  0  0
    3.5820   -3.9110   25.6950 C   0  0  0  0  0  0  0  0  0  0  0  0
    2.2400   -3.9560   25.3720 C   0  0  0  0  0  0  0  0  0  0  0  0
    1.5530   -2.7870   25.3920 C   0  0  0  0  0  0  0  0  0  0  0  0
    2.3280   -1.6980   25.7400 C   0  0  0  0  0  0  0  0  0  0  0  0
    6.2210    0.5710   17.5850 N   0  0  0  0  0  0  0  0  0  0  0  0
    6.7500   -0.1270   18.6190 C   0  0  0  0  0  0  0  0  0  0  0  0
    6.3340   -0.0020   19.9200 C   0  0  0  0  0  0  0  0  0  0  0  0
    5.1890    0.9970   20.1940 C   0  0  0  0  0  0  0  0  0  0  0  0
    4.6530    1.7280   18.9880 C   0  0  0  0  0  0  0  0  0  0  0  0
    5.2330    1.4430   17.7620 C   0  0  0  0  0  0  0  0  0  0  0  0
   10.4280    0.4270   23.6030 C   0  0  0  0  0  0  0  0  0  0  0  0
   11.7980    0.7170   23.7780 C   0  0  0  0  0  0  0  0  0  0  0  0
   12.9510    0.1190   23.1980 C   0  0  0  0  0  0  0  0  0  0  0  0
   12.2590   -0.9520   22.3190 C   0  0  0  0  0  0  0  0  0  0  0  0
   10.9510   -1.2600   22.1290 C   0  0  0  0  0  0  0  0  0  0  0  0
   10.0160   -0.5760   22.7580 C   0  0  0  0  0  0  0  0  0  0  0  0
  1  3  1  0
  2  3  2  0
  4  6  2  0
  5  6  2  0
  8 12  2  0
 10 12  1  0
 11 12  1  0
 10 14  1  0
 13 14  1  0
 15  3  1  0
 13 15  1  0
 15 16  1  0
 16 17  1  0
  6 18  1  0
 17 18  1  0
 18 19  1  0
 15 20  1  0
 19 20  1  0
  6 22  1  0
 21 22  1  0
 22 23  2  0
 23 24  1  0
 21 25  1  0
 24 25  2  0
 26 27  2  0
 10 28  1  0
 27 28  1  0
  7 29  1  0
 28 29  2  0
 29 30  1  0
 26 31  1  0
 30 31  2  0
 32 33  2  0
 33 34  1  0
  9 35  1  0
 34 35  2  0
 35 36  1  0
 11 37  1  0
 32 37  1  0
 36 37  2  0
M  END
