x0689-x0786
     RDKit          3D

 25 27  0  0  0  0  0  0  0  0999 V2000
    7.1370   -3.4340   19.7850 C   0  0  0  0  0  0  0  0  0  0  0  0
    5.2200   -4.7440   19.9410 O   0  0  0  0  0  0  0  0  0  0  0  0
    6.2750   -4.4690   20.4820 C   0  0  0  0  0  0  0  0  0  0  0  0
    3.1720   -5.9110   25.5300 C   0  0  0  0  0  0  0  0  0  0  0  0
    4.9410   -3.5310   25.6310 O   0  0  0  0  0  0  0  0  0  0  0  0
    4.5230   -4.8490   25.2620 S   0  0  0  0  0  0  0  0  0  0  0  0
    2.2190   -6.8360   25.6420 N   0  0  0  0  0  0  0  0  0  0  0  0
    6.7010   -5.1190   21.6430 N   0  0  0  0  0  0  0  0  0  0  0  0
    5.9830   -6.1730   22.0540 C   0  0  0  0  0  0  0  0  0  0  0  0
    5.2370   -6.1190   23.2430 C   0  0  0  0  0  0  0  0  0  0  0  0
    5.8030   -5.2450   24.3120 N   0  0  0  0  0  0  0  0  0  0  0  0
    6.5000   -4.2340   23.7820 C   0  0  0  0  0  0  0  0  0  0  0  0
    7.2720   -4.5210   22.6890 C   0  0  0  0  0  0  0  0  0  0  0  0
    4.0340   -2.0630   26.3000 S   0  0  0  0  0  0  0  0  0  0  0  0
    3.4460   -3.5820   25.7590 C   0  0  0  0  0  0  0  0  0  0  0  0
    2.0650   -3.5710   25.7580 C   0  0  0  0  0  0  0  0  0  0  0  0
    1.4820   -2.4040   26.1640 C   0  0  0  0  0  0  0  0  0  0  0  0
    2.4390   -1.4530   26.5030 C   0  0  0  0  0  0  0  0  0  0  0  0
    1.5290   -6.0880   23.2870 C   0  0  0  0  0  0  0  0  0  0  0  0
    0.6560   -5.4340   24.1810 C   0  0  0  0  0  0  0  0  0  0  0  0
   -0.9240   -6.2940   24.1480 S   0  0  0  0  0  0  0  0  0  0  0  0
   -0.2250   -7.7820   24.6140 C   0  0  0  0  0  0  0  0  0  0  0  0
    0.5910   -8.2320   23.5710 C   0  0  0  0  0  0  0  0  0  0  0  0
    1.7430   -7.5470   23.5650 N   0  0  0  0  0  0  0  0  0  0  0  0
    2.4340   -7.8030   24.7090 C   0  0  0  0  0  0  0  0  0  0  0  0
  1  3  1  0
  2  3  2  0
  4  6  2  0
  5  6  2  0
  4  7  2  0
  3  8  1  0
  8  9  1  0
  9 10  1  0
  6 11  1  0
 10 11  1  0
 11 12  1  0
  8 13  1  0
 12 13  1  0
  6 15  1  0
 14 15  1  0
 15 16  2  0
 16 17  1  0
 14 18  1  0
 17 18  2  0
 19 20  1  0
 20 21  1  0
 21 22  1  0
 22 23  1  0
 19 24  1  0
 23 24  1  0
  7 25  1  0
 24 25  1  0
M  END
