x0689-x3115
     RDKit          3D

 44 47  0  0  0  0  0  0  0  0999 V2000
    7.3330   -1.1210   21.8990 N   0  0  0  0  0  0  0  0  0  0  0  0
    7.9400    1.7770   23.2270 N   0  0  0  0  0  0  0  0  0  0  0  0
    8.6540    1.5910   21.0320 O   0  0  0  0  0  0  0  0  0  0  0  0
    8.6250    5.2820   23.0210 O   0  0  0  0  0  0  0  0  0  0  0  0
    6.8240    0.1760   21.7690 C   0  0  1  0  0  0  0  0  0  0  0  0
    7.9040    1.2390   21.9450 C   0  0  0  0  0  0  0  0  0  0  0  0
    8.4780    2.9900   23.4830 C   0  0  0  0  0  0  0  0  0  0  0  0
    8.1220    4.0120   22.5950 C   0  0  0  0  0  0  0  0  0  0  0  0
    8.2970    6.2170   22.2780 C   0  0  0  0  0  0  0  0  0  0  0  0
   12.5330   -1.8500   24.2270 C   0  0  0  0  0  0  0  0  0  0  0  0
   13.4050   -1.8080   23.1630 C   0  0  0  0  0  0  0  0  0  0  0  0
   12.8690   -3.0530   25.0730 C   0  0  0  0  0  0  0  0  0  0  0  0
   12.6910   -0.6260   25.0930 C   0  0  0  0  0  0  0  0  0  0  0  0
    6.5350   -2.2810   22.1430 C   0  0  0  0  0  0  0  0  0  0  0  0
    6.3380    0.1980   17.9720 N   0  0  0  0  0  0  0  0  0  0  0  0
    5.2510    0.9740   17.9230 C   0  0  0  0  0  0  0  0  0  0  0  0
    4.6120    1.5100   19.0160 C   0  0  0  0  0  0  0  0  0  0  0  0
    5.1030    1.2570   20.2840 C   0  0  0  0  0  0  0  0  0  0  0  0
    6.2400    0.4580   20.3920 C   0  0  0  0  0  0  0  0  0  0  0  0
    6.8200   -0.0520   19.2190 C   0  0  0  0  0  0  0  0  0  0  0  0
    9.6280   -1.8520   21.7530 C   0  0  0  0  0  0  0  0  0  0  0  0
   10.8900   -2.0700   22.2110 C   0  0  0  0  0  0  0  0  0  0  0  0
   11.1520   -1.6720   23.6630 C   0  0  0  0  0  0  0  0  0  0  0  0
    9.9900   -1.0890   24.4540 C   0  0  0  0  0  0  0  0  0  0  0  0
    8.7320   -0.9080   23.8740 C   0  0  0  0  0  0  0  0  0  0  0  0
    8.6320   -1.3070   22.5150 C   0  0  0  0  0  0  0  0  0  0  0  0
    7.2430   -3.4980   19.9260 C   0  0  0  0  0  0  0  0  0  0  0  0
    5.2430   -4.7450   19.9270 O   0  0  0  0  0  0  0  0  0  0  0  0
    6.2730   -4.5440   20.5450 C   0  0  0  0  0  0  0  0  0  0  0  0
    3.7600   -6.5450   25.9820 O   0  0  0  0  0  0  0  0  0  0  0  0
    5.5260   -4.9170   26.7480 O   0  0  0  0  0  0  0  0  0  0  0  0
    4.5570   -5.3570   25.7630 S   0  0  0  0  0  0  0  0  0  0  0  0
    6.4360   -5.2580   21.7470 N   0  0  0  0  0  0  0  0  0  0  0  0
    5.5680   -6.3900   22.0960 C   0  0  0  0  0  0  0  0  0  0  0  0
    4.6510   -6.0970   23.1150 C   0  0  0  0  0  0  0  0  0  0  0  0
    5.3770   -5.5630   24.3040 N   0  0  0  0  0  0  0  0  0  0  0  0
    6.2260   -4.4050   23.9980 C   0  0  0  0  0  0  0  0  0  0  0  0
    7.0720   -4.6250   22.9220 C   0  0  2  0  0  0  0  0  0  0  0  0
    3.9210   -2.4220   25.9860 S   0  0  0  0  0  0  0  0  0  0  0  0
    3.3780   -4.0300   25.6670 C   0  0  0  0  0  0  0  0  0  0  0  0
    2.0220   -3.9940   25.3800 C   0  0  0  0  0  0  0  0  0  0  0  0
    1.4690   -2.7460   25.4250 C   0  0  0  0  0  0  0  0  0  0  0  0
    2.3560   -1.7370   25.7430 C   0  0  0  0  0  0  0  0  0  0  0  0
    7.6240   -3.3010   22.5360 C   0  0  0  0  0  0  0  0  0  0  0  0
  1  5  1  0
  2  6  1  0
  3  6  2  0
  5  6  1  6
  2  7  1  0
  4  8  1  0
  7  8  1  0
  4  9  1  0
 10 11  1  0
 10 12  1  0
 10 13  1  0
  1 14  1  0
 15 16  2  0
 16 17  1  0
 17 18  2  0
  5 19  1  0
 18 19  1  0
 15 20  1  0
 19 20  2  0
 21 22  2  0
 10 23  1  0
 22 23  1  0
 23 24  2  0
 24 25  1  0
  1 26  1  0
 21 26  1  0
 25 26  2  0
 27 29  1  0
 28 29  2  0
 30 32  2  0
 31 32  2  0
 29 33  1  0
 33 34  1  0
 34 35  1  0
 32 36  1  0
 35 36  1  0
 36 37  1  0
 33 38  1  0
 37 38  1  0
 32 40  1  0
 39 40  1  0
 40 41  2  0
 41 42  1  0
 39 43  1  0
 42 43  2  0
 14 44  1  0
 38 44  1  6
M  END
