x0689-x0397
     RDKit          3D

 26 28  0  0  0  0  0  0  0  0999 V2000
    7.6430   -3.5490   20.2800 C   0  0  0  0  0  0  0  0  0  0  0  0
    5.4630   -4.5060   19.9070 O   0  0  0  0  0  0  0  0  0  0  0  0
    6.4610   -4.4520   20.6400 C   0  0  0  0  0  0  0  0  0  0  0  0
    3.8960   -6.3880   25.9100 O   0  0  0  0  0  0  0  0  0  0  0  0
    5.6260   -4.7580   26.6970 O   0  0  0  0  0  0  0  0  0  0  0  0
    4.6250   -5.1570   25.7330 S   0  0  0  0  0  0  0  0  0  0  0  0
    7.9460   -1.2930   20.8800 C   0  0  0  0  0  0  0  0  0  0  0  0
    7.2580   -2.1070   20.0180 N   0  0  0  0  0  0  0  0  0  0  0  0
    6.9000   -1.6690   18.6370 C   0  0  0  0  0  0  0  0  0  0  0  0
    3.7490    2.0510   19.4860 C   0  0  0  0  0  0  0  0  0  0  0  0
    6.5590   -5.2040   21.8150 N   0  0  0  0  0  0  0  0  0  0  0  0
    5.5860   -6.2550   22.0650 C   0  0  0  0  0  0  0  0  0  0  0  0
    4.7170   -5.8320   23.0730 C   0  0  0  0  0  0  0  0  0  0  0  0
    5.3900   -5.2050   24.2320 N   0  0  0  0  0  0  0  0  0  0  0  0
    6.2350   -4.1710   23.9010 C   0  0  0  0  0  0  0  0  0  0  0  0
    7.1810   -4.7200   23.0460 C   0  0  0  0  0  0  0  0  0  0  0  0
    3.8810   -2.2200   25.9930 S   0  0  0  0  0  0  0  0  0  0  0  0
    3.4870   -3.8720   25.6740 C   0  0  0  0  0  0  0  0  0  0  0  0
    2.1460   -3.9490   25.3830 C   0  0  0  0  0  0  0  0  0  0  0  0
    1.4780   -2.7630   25.4180 C   0  0  0  0  0  0  0  0  0  0  0  0
    2.2900   -1.6780   25.7440 C   0  0  0  0  0  0  0  0  0  0  0  0
    5.1810   -0.3010   19.5850 C   0  0  0  0  0  0  0  0  0  0  0  0
    6.1420   -0.3550   18.5530 C   0  0  0  0  0  0  0  0  0  0  0  0
    6.3460    0.5870   17.6510 N   0  0  0  0  0  0  0  0  0  0  0  0
    5.4620    1.5310   17.9610 O   0  0  0  0  0  0  0  0  0  0  0  0
    4.7740    1.1010   19.0330 C   0  0  0  0  0  0  0  0  0  0  0  0
  1  3  1  0
  2  3  2  0
  4  6  2  0
  5  6  2  0
  1  8  1  0
  7  8  1  0
  8  9  1  0
  3 11  1  0
 11 12  1  0
 12 13  1  0
  6 14  1  0
 13 14  1  0
 14 15  1  0
 11 16  1  0
 15 16  1  0
  6 18  1  0
 17 18  1  0
 18 19  2  0
 19 20  1  0
 17 21  1  0
 20 21  2  0
  9 23  1  0
 22 23  1  0
 23 24  2  0
 24 25  1  0
 10 26  1  0
 22 26  2  0
 25 26  1  0
M  END
