x0689-x0434
     RDKit          3D

 35 38  0  0  0  0  0  0  0  0999 V2000
    8.0690   -3.6620   20.3380 C   0  0  0  0  0  0  0  0  0  0  0  0
    5.8030   -4.4960   19.8510 O   0  0  0  0  0  0  0  0  0  0  0  0
    6.6540   -4.1760   20.6640 C   0  0  0  0  0  0  0  0  0  0  0  0
    3.9310   -6.3860   26.0380 O   0  0  0  0  0  0  0  0  0  0  0  0
    5.6400   -4.7440   26.8900 O   0  0  0  0  0  0  0  0  0  0  0  0
    4.7060   -5.1820   25.8780 S   0  0  0  0  0  0  0  0  0  0  0  0
    8.6000    0.9090   21.2380 O   0  0  0  0  0  0  0  0  0  0  0  0
    8.2220   -0.1970   21.6000 C   0  0  0  0  0  0  0  0  0  0  0  0
    8.9840   -1.0270   22.3680 N   0  0  0  0  0  0  0  0  0  0  0  0
    6.9770   -0.7130   21.2640 N   0  0  0  0  0  0  0  0  0  0  0  0
    6.1010   -2.7110   22.3570 C   0  0  0  0  0  0  0  0  0  0  0  0
    6.8130   -2.0920   21.2950 C   0  0  0  0  0  0  0  0  0  0  0  0
    6.2470   -4.2420   22.1370 C   0  0  0  0  0  0  0  0  0  0  0  0
    5.0750   -4.9810   22.1200 C   0  0  0  0  0  0  0  0  0  0  0  0
    5.0090   -5.9910   23.2760 C   0  0  0  0  0  0  0  0  0  0  0  0
    5.5570   -5.2720   24.4320 N   0  0  0  0  0  0  0  0  0  0  0  0
    6.9530   -4.8060   24.3540 C   0  0  0  0  0  0  0  0  0  0  0  0
    7.3580   -4.8360   23.0220 C   0  0  0  0  0  0  0  0  0  0  0  0
    3.8900   -2.2550   26.0700 S   0  0  0  0  0  0  0  0  0  0  0  0
    3.4600   -3.9070   25.7520 C   0  0  0  0  0  0  0  0  0  0  0  0
    2.1100   -3.9290   25.4380 C   0  0  0  0  0  0  0  0  0  0  0  0
    1.4350   -2.7450   25.4480 C   0  0  0  0  0  0  0  0  0  0  0  0
    2.2780   -1.7110   25.7810 C   0  0  0  0  0  0  0  0  0  0  0  0
   10.5510    0.4040   23.4010 C   0  0  0  0  0  0  0  0  0  0  0  0
   11.8250    0.8700   23.7140 C   0  0  0  0  0  0  0  0  0  0  0  0
   12.9500    0.2260   23.2380 C   0  0  0  0  0  0  0  0  0  0  0  0
   12.7980   -1.0300   22.3600 C   0  0  0  0  0  0  0  0  0  0  0  0
   11.3860   -1.4760   22.0620 C   0  0  0  0  0  0  0  0  0  0  0  0
   10.3320   -0.7340   22.5920 C   0  0  0  0  0  0  0  0  0  0  0  0
    5.1980    0.7030   20.3200 C   0  0  0  0  0  0  0  0  0  0  0  0
    4.6090    1.3730   19.2160 C   0  0  0  0  0  0  0  0  0  0  0  0
    5.2240    1.2720   17.9810 C   0  0  0  0  0  0  0  0  0  0  0  0
    6.3430    0.5680   17.7770 N   0  0  0  0  0  0  0  0  0  0  0  0
    6.9530   -0.1330   18.9120 C   0  0  0  0  0  0  0  0  0  0  0  0
    6.3720   -0.0490   20.1730 C   0  0  0  0  0  0  0  0  0  0  0  0
  1  3  1  0
  2  3  2  0
  4  6  2  0
  5  6  2  0
  7  8  2  0
  8  9  1  0
  8 10  1  0
 10 12  1  0
 11 12  1  0
 13  3  1  0
 11 13  1  0
 13 14  1  0
 14 15  1  0
  6 16  1  0
 15 16  1  0
 16 17  1  0
 13 18  1  0
 17 18  1  0
  6 20  1  0
 19 20  1  0
 20 21  2  0
 21 22  1  0
 19 23  1  0
 22 23  2  0
 24 25  2  0
 25 26  1  0
 26 27  2  0
 27 28  1  0
  9 29  1  0
 24 29  1  0
 28 29  2  0
 30 31  2  0
 31 32  1  0
 32 33  2  0
 33 34  1  0
 10 35  1  0
 30 35  1  0
 34 35  2  0
M  END
