x0689-x2912
     RDKit          3D

 39 42  0  0  0  0  0  0  0  0999 V2000
    7.0050   -0.5710   21.1070 N   0  0  0  0  0  0  0  0  0  0  0  0
    7.6890   -0.8120   24.1310 C   0  0  0  0  0  0  0  0  0  0  0  0
    8.8360    0.9090   21.4360 O   0  0  0  0  0  0  0  0  0  0  0  0
    8.5960   -0.9790   22.9390 C   0  0  1  0  0  0  0  0  0  0  0  0
    8.2020   -0.0930   21.7630 C   0  0  0  0  0  0  0  0  0  0  0  0
   14.1140   -1.3590   20.2690 N   0  0  0  0  0  0  0  0  0  0  0  0
    4.7630    1.2220   21.6280 C   0  0  0  0  0  0  0  0  0  0  0  0
   13.3500   -1.3440   21.3560 C   0  0  0  0  0  0  0  0  0  0  0  0
    7.2690   -3.4590   19.9200 C   0  0  0  0  0  0  0  0  0  0  0  0
    5.1800   -4.5430   19.8880 O   0  0  0  0  0  0  0  0  0  0  0  0
    6.2590   -4.4680   20.4570 C   0  0  0  0  0  0  0  0  0  0  0  0
    3.9980   -6.4030   25.8930 O   0  0  0  0  0  0  0  0  0  0  0  0
    5.6570   -4.6650   26.6620 O   0  0  0  0  0  0  0  0  0  0  0  0
    4.7010   -5.1540   25.6880 S   0  0  0  0  0  0  0  0  0  0  0  0
    7.1490   -2.1450   24.5710 C   0  0  0  0  0  0  0  0  0  0  0  0
    6.3820   -2.8460   23.6450 C   0  0  0  0  0  0  0  0  0  0  0  0
    6.2230    0.5810   17.6410 N   0  0  0  0  0  0  0  0  0  0  0  0
    5.1840    1.4240   17.8460 C   0  0  0  0  0  0  0  0  0  0  0  0
    4.7280    1.6080   19.1610 C   0  0  0  0  0  0  0  0  0  0  0  0
    5.3040    0.9660   20.2520 C   0  0  0  0  0  0  0  0  0  0  0  0
    6.3560    0.1230   19.9950 C   0  0  0  0  0  0  0  0  0  0  0  0
    6.8030   -0.0660   18.7240 C   0  0  0  0  0  0  0  0  0  0  0  0
   10.5520   -0.5100   24.5450 C   0  0  0  0  0  0  0  0  0  0  0  0
   11.9340   -0.4430   24.7390 C   0  0  0  0  0  0  0  0  0  0  0  0
   12.8330   -0.7020   23.7620 C   0  0  0  0  0  0  0  0  0  0  0  0
   12.3760   -1.0970   22.3720 C   0  0  0  0  0  0  0  0  0  0  0  0
   10.8960   -1.1650   22.2180 C   0  0  0  0  0  0  0  0  0  0  0  0
   10.0600   -0.8780   23.2630 C   0  0  0  0  0  0  0  0  0  0  0  0
    6.5560   -5.3040   21.5250 N   0  0  0  0  0  0  0  0  0  0  0  0
    5.6010   -6.1300   22.0170 C   0  0  0  0  0  0  0  0  0  0  0  0
    4.6770   -5.6060   22.9640 C   0  0  0  0  0  0  0  0  0  0  0  0
    5.4870   -5.2050   24.1900 N   0  0  0  0  0  0  0  0  0  0  0  0
    6.6820   -4.3330   23.8700 C   0  0  1  0  0  0  0  0  0  0  0  0
    7.4020   -4.9550   22.6720 C   0  0  0  0  0  0  0  0  0  0  0  0
    3.8960   -2.2690   26.0100 S   0  0  0  0  0  0  0  0  0  0  0  0
    3.4450   -3.8930   25.6340 C   0  0  0  0  0  0  0  0  0  0  0  0
    2.0980   -3.9270   25.3460 C   0  0  0  0  0  0  0  0  0  0  0  0
    1.4960   -2.6970   25.4390 C   0  0  0  0  0  0  0  0  0  0  0  0
    2.2950   -1.6730   25.7850 C   0  0  0  0  0  0  0  0  0  0  0  0
  4  2  1  1
  1  5  1  0
  3  5  2  0
  4  5  1  0
  6  8  3  0
  9 11  1  0
 10 11  2  0
 12 14  2  0
 13 14  2  0
  2 15  1  0
 15 16  1  0
 17 18  2  0
 18 19  1  0
  7 20  1  0
 19 20  2  0
  1 21  1  0
 20 21  1  0
 17 22  1  0
 21 22  2  0
 23 24  2  0
 24 25  1  0
  8 26  1  0
 25 26  2  0
 26 27  1  0
  4 28  1  0
 23 28  1  0
 27 28  2  0
 11 29  1  0
 29 30  1  0
 30 31  1  0
 14 32  1  0
 31 32  1  0
 33 16  1  6
 32 33  1  0
 29 34  1  0
 33 34  1  0
 14 36  1  0
 35 36  1  0
 36 37  2  0
 37 38  1  0
 35 39  1  0
 38 39  2  0
M  END
