x0689-x2776-x0978
     RDKit          3D

 58 62  0  0  0  0  0  0  0  0999 V2000
    7.1180   -1.0390   22.0550 N   0  0  0  0  0  0  0  0  0  0  0  0
    7.8770    2.0890   22.9810 N   0  0  0  0  0  0  0  0  0  0  0  0
    8.8690    1.3770   21.0330 O   0  0  0  0  0  0  0  0  0  0  0  0
   10.7060    6.7360   23.7460 O   0  0  0  0  0  0  0  0  0  0  0  0
    6.8020    0.2930   21.7240 C   0  0  1  0  0  0  0  0  0  0  0  0
   12.4340   -2.8580   24.8890 O   0  0  0  0  0  0  0  0  0  0  0  0
    7.9650    1.2830   21.8550 C   0  0  0  0  0  0  0  0  0  0  0  0
   10.6820    1.9000   23.6960 C   0  0  0  0  0  0  0  0  0  0  0  0
   11.7810    6.7190   24.6960 C   0  0  0  0  0  0  0  0  0  0  0  0
   12.2740   -1.5340   24.4050 C   0  0  1  0  0  0  0  0  0  0  0  0
   13.1770   -1.0120   23.4650 C   0  0  0  0  0  0  0  0  0  0  0  0
   13.6810   -3.0100   25.4990 C   0  0  0  0  0  0  0  0  0  0  0  0
    2.2090   -5.4480   22.9990 N   0  0  0  0  0  0  0  0  0  0  0  0
    2.2110   -8.0000   24.8200 C   0  0  0  0  0  0  0  0  0  0  0  0
    4.2820   -7.8370   24.0940 O   0  0  0  0  0  0  0  0  0  0  0  0
    3.1340   -7.4790   23.9160 C   0  0  2  0  0  0  0  0  0  0  0  0
    1.0630   -7.4150   22.1700 O   0  0  0  0  0  0  0  0  0  0  0  0
    3.1320   -6.1050   23.7240 C   0  0  1  0  0  0  0  0  0  0  0  0
    4.2360   -4.0290   23.4820 O   0  0  0  0  0  0  0  0  0  0  0  0
    1.0520   -6.1000   22.7120 C   0  0  0  0  0  0  0  0  0  0  0  0
   -0.2300   -5.5570   22.8540 C   0  0  0  0  0  0  0  0  0  0  0  0
    6.5140   -2.2370   21.4260 C   0  0  0  0  0  0  0  0  0  0  0  0
    5.8110   -3.1130   22.2720 C   0  0  0  0  0  0  0  0  0  0  0  0
    8.0060   -3.9010   20.5190 C   0  0  0  0  0  0  0  0  0  0  0  0
    5.7160   -4.5440   19.8460 O   0  0  0  0  0  0  0  0  0  0  0  0
    6.5500   -4.3810   20.6980 C   0  0  0  0  0  0  0  0  0  0  0  0
    3.9510   -6.2120   26.4910 O   0  0  0  0  0  0  0  0  0  0  0  0
    5.6750   -4.4920   27.0360 O   0  0  0  0  0  0  0  0  0  0  0  0
    4.7280   -5.0480   26.1130 S   0  0  0  0  0  0  0  0  0  0  0  0
    6.3920    0.4230   17.8760 N   0  0  0  0  0  0  0  0  0  0  0  0
    5.2360    1.2950   17.6980 C   0  0  0  0  0  0  0  0  0  0  0  0
    4.5610    1.8370   18.9510 C   0  0  0  0  0  0  0  0  0  0  0  0
    5.1280    1.4570   20.2740 C   0  0  0  0  0  0  0  0  0  0  0  0
    6.2340    0.6360   20.3680 C   0  0  0  0  0  0  0  0  0  0  0  0
    6.8160    0.1480   19.1540 C   0  0  0  0  0  0  0  0  0  0  0  0
   10.0430    3.2670   23.5310 C   0  0  0  0  0  0  0  0  0  0  0  0
   11.0020    4.3070   23.7730 C   0  0  0  0  0  0  0  0  0  0  0  0
   10.0580    5.5420   23.5530 C   0  0  0  0  0  0  0  0  0  0  0  0
    8.7140    5.6570   23.2090 C   0  0  0  0  0  0  0  0  0  0  0  0
    8.0060    4.5270   23.0160 C   0  0  0  0  0  0  0  0  0  0  0  0
    8.6200    3.3300   23.1710 C   0  0  0  0  0  0  0  0  0  0  0  0
    9.4450   -1.7150   21.9040 C   0  0  0  0  0  0  0  0  0  0  0  0
   10.7200   -1.8440   22.4640 C   0  0  0  0  0  0  0  0  0  0  0  0
   10.9250   -1.4380   23.7710 C   0  0  0  0  0  0  0  0  0  0  0  0
    9.8690   -0.9340   24.4740 C   0  0  0  0  0  0  0  0  0  0  0  0
    8.5960   -0.7870   23.9770 C   0  0  0  0  0  0  0  0  0  0  0  0
    8.3770   -1.1810   22.6500 C   0  0  0  0  0  0  0  0  0  0  0  0
    6.1280   -4.5740   22.1440 C   0  0  2  0  0  0  0  0  0  0  0  0
    5.2630   -5.6590   22.2870 C   0  0  0  0  0  0  0  0  0  0  0  0
    4.5680   -5.4030   23.5070 C   0  0  2  0  0  0  0  0  0  0  0  0
    5.4850   -5.4350   24.6610 N   0  0  0  0  0  0  0  0  0  0  0  0
    6.8380   -4.8090   24.5260 C   0  0  0  0  0  0  0  0  0  0  0  0
    7.3370   -4.8300   23.0240 C   0  0  0  0  0  0  0  0  0  0  0  0
    3.9730   -2.2230   26.0800 S   0  0  0  0  0  0  0  0  0  0  0  0
    3.5310   -3.8910   25.8880 C   0  0  0  0  0  0  0  0  0  0  0  0
    2.1850   -4.0300   25.5650 C   0  0  0  0  0  0  0  0  0  0  0  0
    1.4380   -2.6900   25.4650 C   0  0  0  0  0  0  0  0  0  0  0  0
    2.4160   -1.5710   25.7530 C   0  0  0  0  0  0  0  0  0  0  0  0
  1  5  1  0
  2  7  1  0
  3  7  2  0
  5  7  1  6
  4  9  1  0
  6 10  1  0
 10 11  1  6
  6 12  1  0
 16 14  1  1
 15 16  1  0
 18 13  1  6
 16 18  1  0
 13 20  1  0
 17 20  2  0
 20 21  1  0
  1 22  1  0
 22 23  1  0
 24 26  1  0
 25 26  2  0
 27 29  2  0
 28 29  2  0
 30 31  2  0
 31 32  1  0
 32 33  2  0
  5 34  1  0
 33 34  1  0
 30 35  1  0
 34 35  2  0
  8 36  1  0
 36 37  2  0
  4 38  1  0
 37 38  1  0
 38 39  2  0
 39 40  1  0
  2 41  1  0
 36 41  1  0
 40 41  2  0
 42 43  2  0
 10 44  1  0
 43 44  1  0
 44 45  2  0
 45 46  1  0
  1 47  1  0
 42 47  1  0
 46 47  2  0
 48 23  1  1
 48 26  1  0
 48 49  1  0
 18 50  1  0
 50 19  1  6
 49 50  1  0
 29 51  1  0
 50 51  1  0
 51 52  1  0
 48 53  1  0
 52 53  1  0
 29 55  1  0
 54 55  1  0
 55 56  2  0
 56 57  1  0
 54 58  1  0
 57 58  2  0
M  END
