x0689-x0426-x3110-x1077
     RDKit          3D

 65 71  0  0  0  0  0  0  0  0999 V2000
    8.0310    1.5430   23.3390 N   0  0  0  0  0  0  0  0  0  0  0  0
   13.3960    5.1970   22.9180 C   0  0  0  0  0  0  0  0  0  0  0  0
   12.0540    3.2800   22.3960 O   0  0  0  0  0  0  0  0  0  0  0  0
   12.4760    4.5520   21.8940 C   0  0  0  0  0  0  0  0  0  0  0  0
    7.4350   -1.2910   21.7240 N   0  0  0  0  0  0  0  0  0  0  0  0
   11.1000    4.3810   24.1410 O   0  0  0  0  0  0  0  0  0  0  0  0
   11.1960    3.3940   23.4330 C   0  0  0  0  0  0  0  0  0  0  0  0
    8.6350    1.6810   21.1460 O   0  0  0  0  0  0  0  0  0  0  0  0
   10.3720    2.1520   23.5890 C   0  0  0  0  0  0  0  0  0  0  0  0
    8.8950    2.5750   23.6690 C   0  0  0  0  0  0  0  0  0  0  0  0
    7.9140    1.1600   22.0180 C   0  0  0  0  0  0  0  0  0  0  0  0
    6.8530    0.0850   21.7490 C   0  0  1  0  0  0  0  0  0  0  0  0
   12.3410   -1.9230   24.1930 C   0  0  0  0  0  0  0  0  0  0  0  0
   12.5840   -0.6670   25.0240 C   0  0  0  0  0  0  0  0  0  0  0  0
   13.4790   -2.0880   23.2030 C   0  0  0  0  0  0  0  0  0  0  0  0
   12.2460   -3.1570   25.0750 C   0  0  0  0  0  0  0  0  0  0  0  0
    2.4460    2.1130   24.2110 C   0  0  0  0  0  0  0  0  0  0  0  0
    2.5190    0.9530   24.5470 O   0  0  0  0  0  0  0  0  0  0  0  0
    3.4000    2.7170   23.4130 N   0  0  0  0  0  0  0  0  0  0  0  0
    4.3890    1.9270   22.6920 C   0  0  0  0  0  0  0  0  0  0  0  0
    3.9310    1.7370   21.2500 C   0  0  0  0  0  0  0  0  0  0  0  0
    2.7400    4.7200   25.6640 F   0  0  0  0  0  0  0  0  0  0  0  0
    6.5240    0.3030   17.8870 N   0  0  0  0  0  0  0  0  0  0  0  0
    5.3940    0.9770   17.7400 C   0  0  0  0  0  0  0  0  0  0  0  0
    4.5500    1.4400   18.8560 C   0  0  0  0  0  0  0  0  0  0  0  0
    4.9390    1.1780   20.2730 C   0  0  0  0  0  0  0  0  0  0  0  0
    6.1740    0.4650   20.4370 C   0  0  0  0  0  0  0  0  0  0  0  0
    6.9010    0.0550   19.1550 C   0  0  0  0  0  0  0  0  0  0  0  0
    9.6870   -1.2640   21.7130 C   0  0  0  0  0  0  0  0  0  0  0  0
   10.9530   -1.3780   22.1850 C   0  0  0  0  0  0  0  0  0  0  0  0
   11.0240   -1.7670   23.4810 C   0  0  0  0  0  0  0  0  0  0  0  0
    9.8720   -2.0280   24.1890 C   0  0  0  0  0  0  0  0  0  0  0  0
    8.4930   -1.9780   23.8660 C   0  0  0  0  0  0  0  0  0  0  0  0
    8.5810   -1.5380   22.4960 C   0  0  0  0  0  0  0  0  0  0  0  0
    1.5080    4.2230   25.4800 C   0  0  0  0  0  0  0  0  0  0  0  0
    1.3050    2.9020   24.7390 C   0  0  0  0  0  0  0  0  0  0  0  0
   -0.0400    2.4820   24.6040 C   0  0  0  0  0  0  0  0  0  0  0  0
   -1.1100    3.2130   25.1140 C   0  0  0  0  0  0  0  0  0  0  0  0
   -0.8870    4.4100   25.7880 C   0  0  0  0  0  0  0  0  0  0  0  0
    0.4130    4.9190   25.9710 C   0  0  0  0  0  0  0  0  0  0  0  0
    7.4040   -3.5940   20.1240 C   0  0  0  0  0  0  0  0  0  0  0  0
    5.3510   -4.8120   19.9830 O   0  0  0  0  0  0  0  0  0  0  0  0
    6.3930   -4.6390   20.6040 C   0  0  0  0  0  0  0  0  0  0  0  0
    3.9100   -6.2410   25.8240 O   0  0  0  0  0  0  0  0  0  0  0  0
    5.7460   -4.3150   26.2710 N   0  0  0  0  0  0  0  0  0  0  0  0
    4.5220   -4.9590   25.5480 S   0  0  1  0  0  0  0  0  0  0  0  0
    7.2770   -5.8310   25.2020 O   0  0  0  0  0  0  0  0  0  0  0  0
    7.7740   -5.0740   24.1460 C   0  0  1  0  0  0  0  0  0  0  0  0
    9.0300   -5.3350   23.7920 C   0  0  0  0  0  0  0  0  0  0  0  0
    9.8330   -4.7140   24.7200 C   0  0  0  0  0  0  0  0  0  0  0  0
    9.1290   -3.8200   25.6850 N   0  0  0  0  0  0  0  0  0  0  0  0
    8.1980   -4.4320   26.6940 C   0  0  0  0  0  0  0  0  0  0  0  0
    7.0030   -5.1070   26.3530 C   0  0  1  0  0  0  0  0  0  0  0  0
    6.6350   -5.4200   21.7480 N   0  0  0  0  0  0  0  0  0  0  0  0
    5.5800   -6.4110   21.9790 C   0  0  0  0  0  0  0  0  0  0  0  0
    4.5730   -6.0810   22.9970 C   0  0  0  0  0  0  0  0  0  0  0  0
    4.6820   -4.8530   23.8730 N   0  0  0  0  0  0  0  0  0  0  0  0
    5.6520   -3.9450   23.3590 C   0  0  0  0  0  0  0  0  0  0  0  0
    6.6990   -4.9240   23.0920 C   0  0  2  0  0  0  0  0  0  0  0  0
    3.7580   -2.2140   26.2860 S   0  0  0  0  0  0  0  0  0  0  0  0
    3.2310   -3.7810   25.7600 C   0  0  0  0  0  0  0  0  0  0  0  0
    1.7120   -4.0570   25.4970 C   0  0  0  0  0  0  0  0  0  0  0  0
    1.4280   -2.7170   25.8630 C   0  0  0  0  0  0  0  0  0  0  0  0
    2.1870   -1.6580   26.2680 C   0  0  0  0  0  0  0  0  0  0  0  0
    8.7280   -2.4320   25.3080 C   0  0  0  0  0  0  0  0  0  0  0  0
  2  4  1  0
  3  4  1  0
  3  7  1  0
  6  7  2  0
  7  9  1  0
  1 10  1  0
  9 10  1  0
  1 11  1  0
  8 11  2  0
 12  5  1  6
 11 12  1  0
 13 14  1  0
 13 15  1  0
 13 16  1  0
 17 18  2  0
 17 19  1  0
 19 20  1  0
 20 21  1  0
 23 24  2  0
 24 25  1  0
 21 26  1  0
 25 26  2  0
 12 27  1  0
 26 27  1  0
 23 28  1  0
 27 28  2  0
 29 30  2  0
 13 31  1  0
 30 31  1  0
 31 32  2  0
 32 33  1  0
  5 34  1  0
 29 34  1  0
 33 34  2  0
 22 35  1  0
 17 36  1  0
 35 36  2  0
 36 37  1  0
 37 38  2  0
 38 39  1  0
 35 40  1  0
 39 40  2  0
 41 43  1  0
 42 43  2  0
 44 46  2  0
 45 46  2  0
 47 48  1  0
 48 49  1  6
 49 50  1  0
 50 51  1  0
 51 52  1  0
 45 53  1  0
 47 53  1  0
 53 52  1  6
 43 54  1  0
 54 55  1  0
 55 56  1  0
 46 57  1  0
 56 57  1  0
 57 58  1  0
 48 59  1  0
 59 54  1  6
 58 59  1  0
 46 61  1  1
 60 61  1  0
 61 62  2  0
 62 63  1  0
 60 64  1  0
 63 64  2  0
 33 65  1  0
 51 65  1  0
M  END
