x0689-x0540
     RDKit          3D

 38 41  0  0  0  0  0  0  0  0999 V2000
    7.2190   -3.4280   19.8540 C   0  0  0  0  0  0  0  0  0  0  0  0
    5.2340   -4.6860   19.9220 O   0  0  0  0  0  0  0  0  0  0  0  0
    6.2920   -4.4720   20.4900 C   0  0  0  0  0  0  0  0  0  0  0  0
    4.0640   -6.4080   25.8780 O   0  0  0  0  0  0  0  0  0  0  0  0
    5.7140   -4.6710   26.6300 O   0  0  0  0  0  0  0  0  0  0  0  0
    4.7560   -5.1630   25.6630 S   0  0  0  0  0  0  0  0  0  0  0  0
    3.0060    1.7860   24.5190 O   0  0  0  0  0  0  0  0  0  0  0  0
    2.8900    2.3570   23.4460 C   0  0  0  0  0  0  0  0  0  0  0  0
    3.7630    2.1880   22.3990 N   0  0  0  0  0  0  0  0  0  0  0  0
    5.1670    1.8220   22.6530 C   0  0  0  0  0  0  0  0  0  0  0  0
    5.5660    0.5910   22.0640 C   0  0  1  0  0  0  0  0  0  0  0  0
    1.8520    3.2460   23.1430 N   0  0  0  0  0  0  0  0  0  0  0  0
    5.3380   -3.1500   23.0750 C   0  0  0  0  0  0  0  0  0  0  0  0
    5.8160   -1.9840   22.4920 C   0  0  0  0  0  0  0  0  0  0  0  0
    4.9120   -0.7240   22.5250 C   0  0  0  0  0  0  0  0  0  0  0  0
    6.6040   -5.1930   21.6400 N   0  0  0  0  0  0  0  0  0  0  0  0
    5.7320   -6.2870   22.0950 C   0  0  0  0  0  0  0  0  0  0  0  0
    4.8620   -5.9250   23.1290 C   0  0  0  0  0  0  0  0  0  0  0  0
    5.5020   -5.2420   24.1520 N   0  0  0  0  0  0  0  0  0  0  0  0
    6.2600   -4.0350   23.6610 C   0  0  1  0  0  0  0  0  0  0  0  0
    7.2430   -4.4660   22.7720 C   0  0  0  0  0  0  0  0  0  0  0  0
    3.9270   -2.3220   25.9570 S   0  0  0  0  0  0  0  0  0  0  0  0
    3.4880   -3.9160   25.6200 C   0  0  0  0  0  0  0  0  0  0  0  0
    2.1350   -3.9730   25.3600 C   0  0  0  0  0  0  0  0  0  0  0  0
    1.4720   -2.7780   25.4330 C   0  0  0  0  0  0  0  0  0  0  0  0
    2.3210   -1.7260   25.7580 C   0  0  0  0  0  0  0  0  0  0  0  0
    6.6830   -0.3170   20.0480 C   0  0  0  0  0  0  0  0  0  0  0  0
    6.8370   -0.3520   18.5340 C   0  0  0  0  0  0  0  0  0  0  0  0
    6.0950    0.4140   17.7180 N   0  0  0  0  0  0  0  0  0  0  0  0
    5.1820    1.2340   18.2930 C   0  0  0  0  0  0  0  0  0  0  0  0
    4.9630    1.3350   19.6750 C   0  0  0  0  0  0  0  0  0  0  0  0
    5.7360    0.5410   20.5690 C   0  0  0  0  0  0  0  0  0  0  0  0
    0.3550    4.7000   24.4300 C   0  0  0  0  0  0  0  0  0  0  0  0
   -0.6660    4.9240   25.3780 C   0  0  0  0  0  0  0  0  0  0  0  0
   -1.2630    4.8430   23.9480 C   0  0  0  0  0  0  0  0  0  0  0  0
   -1.5790    3.5450   23.5330 C   0  0  0  0  0  0  0  0  0  0  0  0
   -0.4560    2.7510   23.4460 C   0  0  0  0  0  0  0  0  0  0  0  0
    0.6730    3.3180   24.0180 C   0  0  0  0  0  0  0  0  0  0  0  0
  1  3  1  0
  2  3  2  0
  4  6  2  0
  5  6  2  0
  7  8  2  0
  8  9  1  0
  9 10  1  0
 11 10  1  6
  8 12  1  0
 13 14  1  0
 11 15  1  0
 14 15  1  0
  3 16  1  0
 16 17  1  0
 17 18  1  0
  6 19  1  0
 18 19  1  0
 20 13  1  6
 19 20  1  0
 16 21  1  0
 20 21  1  0
  6 23  1  0
 22 23  1  0
 23 24  2  0
 24 25  1  0
 22 26  1  0
 25 26  2  0
 27 28  2  0
 28 29  1  0
 29 30  2  0
 30 31  1  0
 11 32  1  0
 27 32  1  0
 31 32  2  0
 33 34  1  0
 34 35  1  0
 35 36  1  0
 36 37  1  0
 12 38  1  0
 33 38  1  0
 37 38  1  0
M  END
