x0689-x0678
     RDKit          3D

 36 39  0  0  0  0  0  0  0  0999 V2000
    7.0840   -3.4140   19.8380 C   0  0  0  0  0  0  0  0  0  0  0  0
    5.2350   -4.8290   19.9450 O   0  0  0  0  0  0  0  0  0  0  0  0
    6.2360   -4.4820   20.5450 C   0  0  0  0  0  0  0  0  0  0  0  0
    3.8860   -6.4920   25.8950 O   0  0  0  0  0  0  0  0  0  0  0  0
    5.5840   -4.8210   26.7050 O   0  0  0  0  0  0  0  0  0  0  0  0
    4.6270   -5.2710   25.7160 S   0  0  0  0  0  0  0  0  0  0  0  0
    6.5180   -5.1020   21.7720 N   0  0  0  0  0  0  0  0  0  0  0  0
    5.7080   -6.2960   22.0690 C   0  0  0  0  0  0  0  0  0  0  0  0
    4.7790   -5.9870   23.0720 C   0  0  0  0  0  0  0  0  0  0  0  0
    5.4230   -5.3100   24.2330 N   0  0  0  0  0  0  0  0  0  0  0  0
    6.1250   -4.1730   23.9080 C   0  0  0  0  0  0  0  0  0  0  0  0
    7.1230   -4.5090   22.9800 C   0  0  2  0  0  0  0  0  0  0  0  0
    3.8960   -2.3350   25.9810 S   0  0  0  0  0  0  0  0  0  0  0  0
    3.4210   -3.9580   25.6710 C   0  0  0  0  0  0  0  0  0  0  0  0
    1.9160   -3.9290   25.3980 C   0  0  0  0  0  0  0  0  0  0  0  0
    1.3700   -2.6810   25.4750 C   0  0  0  0  0  0  0  0  0  0  0  0
    2.2990   -1.6880   25.7830 C   0  0  0  0  0  0  0  0  0  0  0  0
    9.1360    1.2870   21.3170 O   0  0  0  0  0  0  0  0  0  0  0  0
    8.6330    0.2580   21.8110 C   0  0  0  0  0  0  0  0  0  0  0  0
    9.1380   -0.2620   23.0170 C   0  0  0  0  0  0  0  0  0  0  0  0
    7.6170   -0.3640   21.2490 N   0  0  0  0  0  0  0  0  0  0  0  0
    7.2610   -1.9650   23.0830 C   0  0  0  0  0  0  0  0  0  0  0  0
    6.8090   -1.2340   21.9960 C   0  0  0  0  0  0  0  0  0  0  0  0
   11.1160   -1.4280   22.2120 C   0  0  0  0  0  0  0  0  0  0  0  0
   12.4050   -1.9220   22.4670 C   0  0  0  0  0  0  0  0  0  0  0  0
   13.2410   -1.2320   23.3550 C   0  0  0  0  0  0  0  0  0  0  0  0
   12.5500   -0.4220   24.4970 C   0  0  0  0  0  0  0  0  0  0  0  0
   11.0560   -0.5070   24.3480 C   0  0  0  0  0  0  0  0  0  0  0  0
   10.6710   -0.3820   23.0290 C   0  0  0  0  0  0  0  0  0  0  0  0
    5.8550    1.0870   20.3910 C   0  0  0  0  0  0  0  0  0  0  0  0
    5.0960    1.6280   19.3250 C   0  0  0  0  0  0  0  0  0  0  0  0
    5.4000    1.2220   18.0420 C   0  0  0  0  0  0  0  0  0  0  0  0
    6.3660    0.3470   17.7630 N   0  0  0  0  0  0  0  0  0  0  0  0
    7.1490   -0.2200   18.8600 C   0  0  0  0  0  0  0  0  0  0  0  0
    6.8820    0.1630   20.1580 C   0  0  0  0  0  0  0  0  0  0  0  0
    7.9260   -3.2540   22.6270 C   0  0  0  0  0  0  0  0  0  0  0  0
  1  3  1  0
  2  3  2  0
  4  6  2  0
  5  6  2  0
  3  7  1  0
  7  8  1  0
  8  9  1  0
  6 10  1  0
  9 10  1  0
 10 11  1  0
  7 12  1  0
 11 12  1  0
  6 14  1  0
 13 14  1  0
 14 15  2  0
 15 16  1  0
 13 17  1  0
 16 17  2  0
 18 19  2  0
 19 20  1  0
 19 21  1  0
 21 23  1  0
 22 23  1  0
 24 25  1  0
 25 26  1  0
 26 27  1  0
 27 28  1  0
 20 29  1  0
 24 29  1  0
 28 29  1  0
 30 31  2  0
 31 32  1  0
 32 33  2  0
 33 34  1  0
 21 35  1  0
 30 35  1  0
 34 35  2  0
 12 36  1  6
 22 36  1  0
M  END
