x0689-x2776-x0820-x2694
     RDKit          3D

 52 57  0  0  0  0  0  0  0  0999 V2000
    7.4400   -1.6890   21.9930 N   0  0  0  0  0  0  0  0  0  0  0  0
    7.7970    1.8680   22.8250 N   0  0  0  0  0  0  0  0  0  0  0  0
    9.2540    0.7030   21.5000 O   0  0  0  0  0  0  0  0  0  0  0  0
   10.8040    6.5310   23.8150 O   0  0  0  0  0  0  0  0  0  0  0  0
    7.0340   -0.2750   21.7340 C   0  0  1  0  0  0  0  0  0  0  0  0
   12.6090   -3.0680   24.4640 O   0  0  0  0  0  0  0  0  0  0  0  0
    8.1170    0.7450   21.9880 C   0  0  0  0  0  0  0  0  0  0  0  0
   10.5800    1.7000   23.8360 C   0  0  0  0  0  0  0  0  0  0  0  0
   11.6860    6.4240   24.6850 C   0  0  0  0  0  0  0  0  0  0  0  0
   13.1530   -2.0720   23.5980 C   0  0  2  0  0  0  0  0  0  0  0  0
   13.0330   -0.6660   24.2520 C   0  0  0  0  0  0  0  0  0  0  0  0
   13.2850   -3.2560   25.6910 C   0  0  0  0  0  0  0  0  0  0  0  0
   12.3510   -2.0900   22.3140 C   0  0  0  0  0  0  0  0  0  0  0  0
    6.8220   -4.1090   21.6880 N   0  0  0  0  0  0  0  0  0  0  0  0
    5.4540   -4.9750   20.0250 O   0  0  0  0  0  0  0  0  0  0  0  0
    6.5380   -2.8440   22.4220 C   0  0  1  0  0  0  0  0  0  0  0  0
    6.3630   -4.2240   20.3940 C   0  0  0  0  0  0  0  0  0  0  0  0
    7.0870   -3.3840   19.3890 C   0  0  0  0  0  0  0  0  0  0  0  0
    4.2290   -4.5810   27.2650 O   0  0  0  0  0  0  0  0  0  0  0  0
    6.3950    0.2250   17.9260 N   0  0  0  0  0  0  0  0  0  0  0  0
    5.2660    0.9640   17.9010 C   0  0  0  0  0  0  0  0  0  0  0  0
    4.5660    1.3760   19.0990 C   0  0  0  0  0  0  0  0  0  0  0  0
    5.1530    0.9500   20.4180 C   0  0  0  0  0  0  0  0  0  0  0  0
    6.3990    0.1450   20.3950 C   0  0  0  0  0  0  0  0  0  0  0  0
    6.9180   -0.1580   19.1310 C   0  0  0  0  0  0  0  0  0  0  0  0
    9.8960    2.9800   23.5520 C   0  0  0  0  0  0  0  0  0  0  0  0
   10.6180    4.1510   23.7850 C   0  0  0  0  0  0  0  0  0  0  0  0
    9.9980    5.4410   23.5360 C   0  0  0  0  0  0  0  0  0  0  0  0
    8.6960    5.5120   23.0540 C   0  0  0  0  0  0  0  0  0  0  0  0
    8.0270    4.2940   22.8350 C   0  0  0  0  0  0  0  0  0  0  0  0
    8.5890    3.0260   23.0750 C   0  0  0  0  0  0  0  0  0  0  0  0
    9.8150   -1.9070   22.0760 C   0  0  0  0  0  0  0  0  0  0  0  0
   10.9570   -1.8110   22.8290 C   0  0  0  0  0  0  0  0  0  0  0  0
   10.8510   -1.4390   24.1470 C   0  0  0  0  0  0  0  0  0  0  0  0
    9.6840   -1.1430   24.7920 C   0  0  0  0  0  0  0  0  0  0  0  0
    8.5740   -1.2450   24.0210 C   0  0  0  0  0  0  0  0  0  0  0  0
    8.6090   -1.6100   22.7090 C   0  0  0  0  0  0  0  0  0  0  0  0
    6.2520   -3.3640   23.8710 C   0  0  0  0  0  0  0  0  0  0  0  0
    6.9880   -3.8480   24.9960 C   0  0  0  0  0  0  0  0  0  0  0  0
    6.3120   -4.2520   26.1310 C   0  0  0  0  0  0  0  0  0  0  0  0
    4.9350   -4.1690   26.1630 C   0  0  0  0  0  0  0  0  0  0  0  0
    4.2530   -3.6640   25.1100 C   0  0  0  0  0  0  0  0  0  0  0  0
    4.8830   -3.2810   23.9720 C   0  0  0  0  0  0  0  0  0  0  0  0
    6.9590   -4.7450   27.2920 C   0  0  0  0  0  0  0  0  0  0  0  0
    8.3020   -4.8440   27.3600 C   0  0  0  0  0  0  0  0  0  0  0  0
    9.0310   -4.4540   26.2540 C   0  0  0  0  0  0  0  0  0  0  0  0
    8.3980   -3.9790   25.1180 C   0  0  0  0  0  0  0  0  0  0  0  0
    2.5060   -1.9620   26.0810 S   0  0  0  0  0  0  0  0  0  0  0  0
    2.8080   -3.5040   25.2870 C   0  0  0  0  0  0  0  0  0  0  0  0
    1.7430   -4.2020   24.9990 C   0  0  0  0  0  0  0  0  0  0  0  0
    0.5980   -3.5250   25.4030 C   0  0  0  0  0  0  0  0  0  0  0  0
    0.8390   -2.2850   26.0120 C   0  0  0  0  0  0  0  0  0  0  0  0
  1  5  1  0
  2  7  1  0
  3  7  2  0
  5  7  1  6
  4  9  1  0
  6 10  1  0
 10 11  1  1
  6 12  1  0
 10 13  1  0
  1 16  1  0
 16 14  1  6
 14 17  1  0
 15 17  2  0
 17 18  1  0
 20 21  2  0
 21 22  1  0
 22 23  2  0
  5 24  1  0
 23 24  1  0
 20 25  1  0
 24 25  2  0
  8 26  1  0
 26 27  2  0
  4 28  1  0
 27 28  1  0
 28 29  2  0
 29 30  1  0
  2 31  1  0
 26 31  1  0
 30 31  2  0
 13 33  1  0
 32 33  2  0
 33 34  1  0
 34 35  2  0
 35 36  1  0
  1 37  1  0
 32 37  1  0
 36 37  2  0
 16 38  1  0
 38 39  2  0
 39 40  1  0
 19 41  1  0
 40 41  2  0
 41 42  1  0
 38 43  1  0
 42 43  2  0
 40 44  1  0
 44 45  2  0
 45 46  1  0
 39 47  1  0
 46 47  2  0
 42 49  1  0
 48 49  1  0
 49 50  2  0
 50 51  1  0
 48 52  1  0
 51 52  2  0
M  END
