x0689-x1334-x2694
     RDKit          3D

 61 69  0  0  0  0  0  0  0  0999 V2000
    7.9010    2.1570   22.9130 N   0  0  0  0  0  0  0  0  0  0  0  0
    9.3160    1.9310   21.3070 O   0  0  0  0  0  0  0  0  0  0  0  0
   10.9530    6.6930   23.9600 O   0  0  0  0  0  0  0  0  0  0  0  0
    7.7260    0.0440   21.1670 C   0  0  2  0  0  0  0  0  0  0  0  0
    8.3680    1.3380   21.7640 C   0  0  0  0  0  0  0  0  0  0  0  0
   10.3940    1.8930   24.0510 C   0  0  0  0  0  0  0  0  0  0  0  0
   11.9050    6.4660   25.0100 C   0  0  0  0  0  0  0  0  0  0  0  0
   12.5230   -0.9600   23.1900 C   0  0  0  0  0  0  0  0  0  0  0  0
   12.8410    0.5090   23.3370 C   0  0  0  0  0  0  0  0  0  0  0  0
   13.1230   -1.5340   21.9000 C   0  0  0  0  0  0  0  0  0  0  0  0
   13.1100   -1.7410   24.3750 C   0  0  0  0  0  0  0  0  0  0  0  0
    7.7830   -4.2240   20.6020 C   0  0  0  0  0  0  0  0  0  0  0  0
    5.5780   -5.3480   19.6190 O   0  0  0  0  0  0  0  0  0  0  0  0
    6.4680   -5.0300   20.6830 C   0  0  0  0  0  0  0  0  0  0  0  0
    3.4160   -6.4240   26.0880 O   0  0  0  0  0  0  0  0  0  0  0  0
    5.3530   -4.8610   26.5980 O   0  0  0  0  0  0  0  0  0  0  0  0
    4.2190   -5.2630   25.7920 S   0  0  0  0  0  0  0  0  0  0  0  0
    6.6220   -1.7710   22.8000 C   0  0  0  0  0  0  0  0  0  0  0  0
    6.1680   -1.8490   18.7630 C   0  0  0  0  0  0  0  0  0  0  0  0
    4.9990   -3.3560   20.1300 O   0  0  0  0  0  0  0  0  0  0  0  0
    7.1510   -5.8640   28.3690 Cl  0  0  0  0  0  0  0  0  0  0  0  0
    6.0510   -2.7290   20.0070 C   0  0  0  0  0  0  0  0  0  0  0  0
    9.9100   -2.9910   24.4420 C   0  0  0  0  0  0  0  0  0  0  0  0
    6.2000    0.4830   17.7010 N   0  0  0  0  0  0  0  0  0  0  0  0
    5.0640    1.2170   17.8480 C   0  0  0  0  0  0  0  0  0  0  0  0
    4.6170    1.6530   19.2310 C   0  0  0  0  0  0  0  0  0  0  0  0
    5.4340    1.2960   20.4530 C   0  0  0  0  0  0  0  0  0  0  0  0
    6.7040    0.4880   20.1730 C   0  0  0  0  0  0  0  0  0  0  0  0
    6.9450    0.1640   18.8580 C   0  0  0  0  0  0  0  0  0  0  0  0
    9.2230   -1.8440   23.9390 N   0  0  0  0  0  0  0  0  0  0  0  0
   10.3510   -0.9580   24.2220 O   0  0  0  0  0  0  0  0  0  0  0  0
   11.1630   -1.1720   23.1440 C   0  0  0  0  0  0  0  0  0  0  0  0
   10.4190   -1.6300   22.0840 C   0  0  0  0  0  0  0  0  0  0  0  0
    9.1970   -1.8260   22.6060 C   0  0  2  0  0  0  0  0  0  0  0  0
    9.8130    3.2620   23.6920 C   0  0  0  0  0  0  0  0  0  0  0  0
   10.5780    4.4030   23.9460 C   0  0  0  0  0  0  0  0  0  0  0  0
   10.1010    5.6620   23.6470 C   0  0  0  0  0  0  0  0  0  0  0  0
    8.8350    5.7900   23.0700 C   0  0  0  0  0  0  0  0  0  0  0  0
    8.0600    4.6490   22.8060 C   0  0  0  0  0  0  0  0  0  0  0  0
    8.5510    3.3760   23.1230 C   0  0  0  0  0  0  0  0  0  0  0  0
    6.1240   -5.3790   22.0200 N   0  0  0  0  0  0  0  0  0  0  0  0
    5.3510   -6.5620   22.3140 C   0  0  0  0  0  0  0  0  0  0  0  0
    4.3680   -6.4610   23.3010 C   0  0  0  0  0  0  0  0  0  0  0  0
    4.6680   -5.3410   24.1850 N   0  0  0  0  0  0  0  0  0  0  0  0
    4.9630   -4.0940   23.5340 C   0  0  0  0  0  0  0  0  0  0  0  0
    6.1760   -4.3940   23.0420 C   0  0  2  0  0  0  0  0  0  0  0  0
    3.7450   -2.2980   26.0710 S   0  0  0  0  0  0  0  0  0  0  0  0
    3.0930   -3.9010   25.7860 C   0  0  0  0  0  0  0  0  0  0  0  0
    1.7150   -3.8720   25.5770 C   0  0  0  0  0  0  0  0  0  0  0  0
    1.1390   -2.4950   25.6520 C   0  0  0  0  0  0  0  0  0  0  0  0
    2.2260   -1.5080   25.9320 C   0  0  0  0  0  0  0  0  0  0  0  0
    7.1950   -2.8720   20.9740 C   0  0  2  0  0  0  0  0  0  0  0  0
    7.8580   -1.4500   21.8310 C   0  0  2  0  0  0  0  0  0  0  0  0
    9.1710   -3.1950   22.3870 N   0  0  0  0  0  0  0  0  0  0  0  0
    8.1100   -3.6610   23.1510 C   0  0  0  0  0  0  0  0  0  0  0  0
    6.9650   -3.2510   22.5320 C   0  0  1  0  0  0  0  0  0  0  0  0
    9.8630   -5.3920   25.5590 C   0  0  0  0  0  0  0  0  0  0  0  0
    9.3530   -3.9990   25.3930 C   0  0  0  0  0  0  0  0  0  0  0  0
    8.0600   -3.7930   26.4810 S   0  0  0  0  0  0  0  0  0  0  0  0
    8.2030   -5.3640   27.1160 C   0  0  0  0  0  0  0  0  0  0  0  0
    9.2060   -6.1340   26.5330 C   0  0  0  0  0  0  0  0  0  0  0  0
  1  5  1  0
  2  5  2  0
  4  5  1  1
  3  7  1  0
  8  9  1  0
  8 10  1  0
  8 11  1  0
 12 14  1  0
 13 14  2  0
 15 17  2  0
 16 17  2  0
 19 22  1  0
 20 22  2  0
 24 25  2  0
 25 26  1  0
 26 27  2  0
  4 28  1  0
 27 28  1  0
 24 29  1  0
 28 29  2  0
 23 30  1  0
 30 31  1  0
  8 32  1  0
 31 32  1  0
 32 33  2  0
 30 34  1  0
 34 33  1  6
  6 35  1  0
 35 36  2  0
  3 37  1  0
 36 37  1  0
 37 38  2  0
 38 39  1  0
  1 40  1  0
 35 40  1  0
 39 40  2  0
 14 41  1  0
 41 42  1  0
 42 43  1  0
 17 44  1  0
 43 44  1  0
 44 45  1  0
 41 46  1  0
 46 45  1  6
 17 48  1  0
 47 48  1  0
 48 49  2  0
 49 50  1  0
 47 51  1  0
 50 51  2  0
 12 52  1  0
 52 22  1  6
  4 53  1  0
 53 18  1  1
 34 53  1  0
 52 53  1  0
 34 54  1  0
 54 55  1  0
 56 18  1  1
 46 56  1  0
 52 56  1  0
 55 56  1  0
 23 58  1  0
 57 58  2  0
 58 59  1  0
 21 60  1  0
 59 60  1  0
 57 61  1  0
 60 61  2  0
M  END
