x0689-x0426-x2540-x3110
     RDKit          3D

 62 68  0  0  0  0  0  0  0  0999 V2000
    8.0610    1.5740   23.1850 N   0  0  0  0  0  0  0  0  0  0  0  0
   13.3940    5.2600   22.9290 C   0  0  0  0  0  0  0  0  0  0  0  0
   12.0760    3.3560   22.3920 O   0  0  0  0  0  0  0  0  0  0  0  0
   12.5780    4.5840   21.8720 C   0  0  0  0  0  0  0  0  0  0  0  0
    7.1580   -1.2470   21.7130 N   0  0  0  0  0  0  0  0  0  0  0  0
   11.2110    4.3980   24.2350 O   0  0  0  0  0  0  0  0  0  0  0  0
   11.2700    3.4620   23.4640 C   0  0  0  0  0  0  0  0  0  0  0  0
    8.6450    1.5690   21.0220 O   0  0  0  0  0  0  0  0  0  0  0  0
   10.4000    2.2260   23.5910 C   0  0  0  0  0  0  0  0  0  0  0  0
    8.9330    2.6400   23.6360 C   0  0  0  0  0  0  0  0  0  0  0  0
    7.8840    1.1380   21.9120 C   0  0  0  0  0  0  0  0  0  0  0  0
    6.7150    0.1540   21.6730 C   0  0  1  0  0  0  0  0  0  0  0  0
   13.2590   -1.3670   24.0090 C   0  0  1  0  0  0  0  0  0  0  0  0
   12.5220   -0.0640   24.2140 C   0  0  0  0  0  0  0  0  0  0  0  0
   13.2690   -1.7580   22.5530 C   0  0  0  0  0  0  0  0  0  0  0  0
   13.0260   -2.4960   25.0250 C   0  0  0  0  0  0  0  0  0  0  0  0
   12.0370   -0.9770   23.0740 C   0  0  1  0  0  0  0  0  0  0  0  0
    8.5080    2.9410   25.0700 C   0  0  0  0  0  0  0  0  0  0  0  0
    8.7170    3.9350   22.8160 C   0  0  0  0  0  0  0  0  0  0  0  0
    2.4750    2.1050   24.1320 C   0  0  0  0  0  0  0  0  0  0  0  0
    2.5850    0.9660   24.5140 O   0  0  0  0  0  0  0  0  0  0  0  0
    3.3720    2.7020   23.2620 N   0  0  0  0  0  0  0  0  0  0  0  0
    4.3640    1.9850   22.6430 C   0  0  0  0  0  0  0  0  0  0  0  0
    3.9430    1.7950   21.1660 C   0  0  0  0  0  0  0  0  0  0  0  0
    2.7740    4.6710   25.6420 F   0  0  0  0  0  0  0  0  0  0  0  0
    7.9960   -3.7210   20.3840 C   0  0  0  0  0  0  0  0  0  0  0  0
    5.9260   -4.5160   19.8490 O   0  0  0  0  0  0  0  0  0  0  0  0
    6.8080   -4.2770   20.6620 C   0  0  0  0  0  0  0  0  0  0  0  0
    4.0310   -6.5620   25.9330 O   0  0  0  0  0  0  0  0  0  0  0  0
    5.6590   -4.9160   26.9380 O   0  0  0  0  0  0  0  0  0  0  0  0
    4.6890   -5.2630   25.8120 S   0  0  0  0  0  0  0  0  0  0  0  0
    6.1120   -2.1190   21.5380 C   0  0  0  0  0  0  0  0  0  0  0  0
    5.9300   -3.1260   22.5260 C   0  0  0  0  0  0  0  0  0  0  0  0
    6.4070    0.5670   17.8160 N   0  0  0  0  0  0  0  0  0  0  0  0
    5.2950    1.2600   17.7250 C   0  0  0  0  0  0  0  0  0  0  0  0
    4.5130    1.6500   18.7610 C   0  0  0  0  0  0  0  0  0  0  0  0
    4.9380    1.2900   20.1220 C   0  0  0  0  0  0  0  0  0  0  0  0
    6.1240    0.5740   20.2900 C   0  0  0  0  0  0  0  0  0  0  0  0
    6.8640    0.2000   19.0150 C   0  0  0  0  0  0  0  0  0  0  0  0
    9.5940   -1.0160   22.2780 C   0  0  0  0  0  0  0  0  0  0  0  0
   10.6950   -1.5060   23.0650 C   0  0  0  0  0  0  0  0  0  0  0  0
   10.5680   -2.5590   23.9330 C   0  0  0  0  0  0  0  0  0  0  0  0
    9.4250   -3.2290   24.1500 C   0  0  0  0  0  0  0  0  0  0  0  0
    8.2190   -2.7690   23.3820 C   0  0  0  0  0  0  0  0  0  0  0  0
    8.3160   -1.6290   22.4120 C   0  0  0  0  0  0  0  0  0  0  0  0
    1.5430    4.1770   25.4470 C   0  0  0  0  0  0  0  0  0  0  0  0
    1.3380    2.8930   24.6870 C   0  0  0  0  0  0  0  0  0  0  0  0
    0.0020    2.4710   24.5410 C   0  0  0  0  0  0  0  0  0  0  0  0
   -1.0860    3.1570   25.0520 C   0  0  0  0  0  0  0  0  0  0  0  0
   -0.8410    4.3470   25.7550 C   0  0  0  0  0  0  0  0  0  0  0  0
    0.4420    4.8660   25.9590 C   0  0  0  0  0  0  0  0  0  0  0  0
    6.3630   -4.5590   22.0860 C   0  0  0  0  0  0  0  0  0  0  0  0
    5.4150   -5.5630   21.9990 C   0  0  0  0  0  0  0  0  0  0  0  0
    4.8970   -5.9700   23.2200 C   0  0  0  0  0  0  0  0  0  0  0  0
    5.5190   -5.1580   24.3000 N   0  0  0  0  0  0  0  0  0  0  0  0
    7.0190   -5.1330   24.3130 C   0  0  0  0  0  0  0  0  0  0  0  0
    7.4880   -5.1050   22.9900 C   0  0  0  0  0  0  0  0  0  0  0  0
    3.8310   -2.4400   26.2530 S   0  0  0  0  0  0  0  0  0  0  0  0
    3.4030   -4.0520   25.8400 C   0  0  0  0  0  0  0  0  0  0  0  0
    1.9600   -4.1410   25.5770 C   0  0  0  0  0  0  0  0  0  0  0  0
    1.2220   -2.8120   25.7460 C   0  0  0  0  0  0  0  0  0  0  0  0
    2.2370   -1.7850   26.1370 C   0  0  0  0  0  0  0  0  0  0  0  0
  2  4  1  0
  3  4  1  0
  3  7  1  0
  6  7  2  0
  7  9  1  0
 10  1  1  0
  9 10  1  0
  1 11  1  0
  8 11  2  0
  5 12  1  0
 12 11  1  6
 13 14  1  0
 13 15  1  0
 13 16  1  6
 13 17  1  0
 14 17  1  0
 15 17  1  0
 10 18  1  0
 10 19  1  0
 20 21  2  0
 20 22  1  0
 22 23  1  0
 23 24  1  0
 26 28  1  0
 27 28  2  0
 29 31  2  0
 30 31  2  0
  5 32  1  0
 32 33  1  0
 34 35  2  0
 35 36  1  0
 24 37  1  0
 36 37  2  0
 12 38  1  0
 37 38  1  0
 34 39  1  0
 38 39  2  0
 17 41  1  1
 40 41  2  0
 41 42  1  0
 42 43  2  0
 43 44  1  0
  5 45  1  0
 40 45  1  0
 44 45  2  0
 25 46  1  0
 20 47  1  0
 46 47  2  0
 47 48  1  0
 48 49  2  0
 49 50  1  0
 46 51  1  0
 50 51  2  0
 52 28  1  0
 33 52  1  0
 52 53  1  0
 53 54  1  0
 31 55  1  0
 54 55  1  0
 55 56  1  0
 52 57  1  0
 56 57  1  0
 31 59  1  0
 58 59  1  0
 59 60  2  0
 60 61  1  0
 58 62  1  0
 61 62  2  0
M  END
