x0689-x1308
     RDKit          3D

 19 20  0  0  0  0  0  0  0  0999 V2000
    7.4350   -3.4340   19.9120 C   0  0  0  0  0  0  0  0  0  0  0  0
    5.4230   -4.6740   19.9670 O   0  0  0  0  0  0  0  0  0  0  0  0
    0.5670   -1.2820   26.4310 Cl  0  0  0  0  0  0  0  0  0  0  0  0
    6.4790   -4.4420   20.5560 C   0  0  0  0  0  0  0  0  0  0  0  0
    6.4950   -5.0690   26.7710 O   0  0  0  0  0  0  0  0  0  0  0  0
    4.7560   -6.7500   26.0780 O   0  0  0  0  0  0  0  0  0  0  0  0
    5.4360   -5.4880   25.8900 S   0  0  0  0  0  0  0  0  0  0  0  0
    6.7540   -5.1340   21.7400 N   0  0  0  0  0  0  0  0  0  0  0  0
    7.6480   -4.5670   22.7620 C   0  0  0  0  0  0  0  0  0  0  0  0
    6.8920   -4.2970   23.9110 C   0  0  0  0  0  0  0  0  0  0  0  0
    5.9850   -5.4180   24.2910 N   0  0  0  0  0  0  0  0  0  0  0  0
    5.1560   -5.9340   23.2970 C   0  0  0  0  0  0  0  0  0  0  0  0
    5.9550   -6.2790   22.1780 C   0  0  0  0  0  0  0  0  0  0  0  0
    4.3920   -2.8630   26.4420 C   0  0  0  0  0  0  0  0  0  0  0  0
    3.1920   -1.9170   26.5510 C   0  0  0  0  0  0  0  0  0  0  0  0
    1.8950   -2.3600   26.2890 C   0  0  0  0  0  0  0  0  0  0  0  0
    1.6960   -3.7040   25.9130 C   0  0  0  0  0  0  0  0  0  0  0  0
    2.7780   -4.6070   25.8030 C   0  0  0  0  0  0  0  0  0  0  0  0
    4.1240   -4.3050   26.0390 C   0  0  0  0  0  0  0  0  0  0  0  0
  1  4  1  0
  2  4  2  0
  5  7  2  0
  6  7  2  0
  4  8  1  0
  8  9  1  0
  9 10  1  0
  7 11  1  0
 10 11  1  0
 11 12  1  0
  8 13  1  0
 12 13  1  0
 14 15  2  0
  3 16  1  0
 15 16  1  0
 16 17  2  0
 17 18  1  0
  7 19  1  0
 14 19  1  0
 18 19  2  0
M  END
