x0689-x3108
     RDKit          3D

 40 43  0  0  0  0  0  0  0  0999 V2000
    5.8950    1.8080   22.1320 C   0  0  0  0  0  0  0  0  0  0  0  0
    9.2460    1.9600   21.3800 O   0  0  0  0  0  0  0  0  0  0  0  0
    8.0690   -0.2310   21.2380 N   0  0  0  0  0  0  0  0  0  0  0  0
    8.0580    0.2140   24.8550 O   0  0  0  0  0  0  0  0  0  0  0  0
    9.2990   -1.1860   23.3350 N   0  0  0  0  0  0  0  0  0  0  0  0
    9.0730    0.5820   21.7490 C   0  0  0  0  0  0  0  0  0  0  0  0
    9.9990   -0.0980   22.6730 C   0  0  0  0  0  0  0  0  0  0  0  0
    8.3130   -0.8690   24.3470 C   0  0  0  0  0  0  0  0  0  0  0  0
    7.4230   -2.0500   24.8530 C   0  0  0  0  0  0  0  0  0  0  0  0
    7.1530   -3.5380   20.0330 C   0  0  0  0  0  0  0  0  0  0  0  0
    5.1830   -4.7790   19.9320 O   0  0  0  0  0  0  0  0  0  0  0  0
    6.2000   -4.5710   20.5490 C   0  0  0  0  0  0  0  0  0  0  0  0
    3.7270   -6.4170   25.6460 O   0  0  0  0  0  0  0  0  0  0  0  0
    5.5290   -4.9440   26.5990 O   0  0  0  0  0  0  0  0  0  0  0  0
    4.5440   -5.2290   25.5800 S   0  0  0  0  0  0  0  0  0  0  0  0
    8.3690   -1.5220   20.8440 C   0  0  0  0  0  0  0  0  0  0  0  0
    7.5080   -2.5500   21.1670 C   0  0  0  0  0  0  0  0  0  0  0  0
    6.2710    0.2700   17.9220 N   0  0  0  0  0  0  0  0  0  0  0  0
    7.1000   -0.1230   18.9100 C   0  0  0  0  0  0  0  0  0  0  0  0
    7.1050    0.2740   20.2620 C   0  0  0  0  0  0  0  0  0  0  0  0
    6.0620    1.2680   20.7430 C   0  0  0  0  0  0  0  0  0  0  0  0
    5.1970    1.6770   19.7220 C   0  0  0  0  0  0  0  0  0  0  0  0
    5.3300    1.1520   18.2950 C   0  0  0  0  0  0  0  0  0  0  0  0
    9.7720   -5.0910   24.6270 N   0  0  0  0  0  0  0  0  0  0  0  0
    9.1150   -3.9530   24.3410 C   0  0  0  0  0  0  0  0  0  0  0  0
    8.1930   -3.3200   25.1470 C   0  0  0  0  0  0  0  0  0  0  0  0
    7.9540   -3.9570   26.3630 C   0  0  0  0  0  0  0  0  0  0  0  0
    8.6140   -5.1460   26.7020 C   0  0  0  0  0  0  0  0  0  0  0  0
    9.5340   -5.7150   25.8150 C   0  0  0  0  0  0  0  0  0  0  0  0
    6.4350   -5.3170   21.7050 N   0  0  0  0  0  0  0  0  0  0  0  0
    5.5630   -6.3370   22.0050 C   0  0  0  0  0  0  0  0  0  0  0  0
    4.7430   -5.7160   22.9410 C   0  0  0  0  0  0  0  0  0  0  0  0
    5.3480   -5.2780   24.0680 N   0  0  0  0  0  0  0  0  0  0  0  0
    6.5600   -4.7060   23.9520 C   0  0  0  0  0  0  0  0  0  0  0  0
    7.3130   -4.9700   22.8150 C   0  0  0  0  0  0  0  0  0  0  0  0
    3.8910   -2.2640   25.9420 S   0  0  0  0  0  0  0  0  0  0  0  0
    3.4130   -3.8830   25.6000 C   0  0  0  0  0  0  0  0  0  0  0  0
    2.0580   -3.9620   25.3580 C   0  0  0  0  0  0  0  0  0  0  0  0
    1.4300   -2.7510   25.4540 C   0  0  0  0  0  0  0  0  0  0  0  0
    2.2750   -1.6820   25.7700 C   0  0  0  0  0  0  0  0  0  0  0  0
  2  6  2  0
  3  6  1  0
  5  7  1  0
  6  7  1  0
  4  8  2  0
  5  8  1  0
  8  9  1  0
 10 12  1  0
 11 12  2  0
 13 15  2  0
 14 15  2  0
  3 16  1  0
 10 17  1  0
 16 17  1  0
 18 19  2  0
  3 20  1  0
 19 20  1  0
  1 21  1  0
 20 21  2  0
 21 22  1  0
 18 23  1  0
 22 23  2  0
 24 25  2  0
  9 26  1  0
 25 26  1  0
 26 27  2  0
 27 28  1  0
 24 29  1  0
 28 29  2  0
 12 30  1  0
 30 31  1  0
 31 32  1  0
 15 33  1  0
 32 33  1  0
 33 34  1  0
 30 35  1  0
 34 35  1  0
 15 37  1  0
 36 37  1  0
 37 38  2  0
 38 39  1  0
 36 40  1  0
 39 40  2  0
M  END
