x0689-x1358
     RDKit          3D

 26 28  0  0  0  0  0  0  0  0999 V2000
    6.9870   -2.5920   25.8530 N   0  0  0  0  0  0  0  0  0  0  0  0
    5.5400   -0.2560   25.3700 O   0  0  0  0  0  0  0  0  0  0  0  0
    4.8020   -3.7570   25.7390 C   0  0  0  0  0  0  0  0  0  0  0  0
    5.2730   -4.1680   19.7140 O   0  0  0  0  0  0  0  0  0  0  0  0
    5.9820   -3.0900   25.0590 C   0  0  2  0  0  0  0  0  0  0  0  0
    6.3840   -3.7870   20.0620 C   0  0  0  0  0  0  0  0  0  0  0  0
    7.3330   -3.1450   19.0540 C   0  0  0  0  0  0  0  0  0  0  0  0
    4.7140   -5.1720   25.4530 O   0  0  0  0  0  0  0  0  0  0  0  0
    4.8820   -3.7790   27.1530 O   0  0  0  0  0  0  0  0  0  0  0  0
    6.2000   -0.3380   26.5790 C   0  0  0  0  0  0  0  0  0  0  0  0
    6.9500   -1.5170   26.8540 C   0  0  0  0  0  0  0  0  0  0  0  0
    7.6280   -1.6380   28.0510 C   0  0  0  0  0  0  0  0  0  0  0  0
    7.5280   -0.4650   29.0440 C   0  0  0  0  0  0  0  0  0  0  0  0
    6.7920    0.6860   28.7710 C   0  0  0  0  0  0  0  0  0  0  0  0
    6.0990    0.8240   27.5570 C   0  0  0  0  0  0  0  0  0  0  0  0
    6.8260   -3.9690   21.3610 N   0  0  0  0  0  0  0  0  0  0  0  0
    7.8980   -3.1710   21.9590 C   0  0  0  0  0  0  0  0  0  0  0  0
    7.6130   -3.0680   23.3100 C   0  0  0  0  0  0  0  0  0  0  0  0
    6.3270   -3.5180   23.5980 C   0  0  0  0  0  0  0  0  0  0  0  0
    6.1530   -4.8840   23.3570 C   0  0  0  0  0  0  0  0  0  0  0  0
    6.5060   -5.2150   22.0480 C   0  0  0  0  0  0  0  0  0  0  0  0
    3.4760   -3.1270   25.2180 C   0  0  0  0  0  0  0  0  0  0  0  0
    2.6370   -4.1060   24.7230 C   0  0  0  0  0  0  0  0  0  0  0  0
    1.2340   -3.8100   25.2730 C   0  0  0  0  0  0  0  0  0  0  0  0
    1.4130   -2.5670   26.1230 C   0  0  0  0  0  0  0  0  0  0  0  0
    2.7710   -2.2150   26.0600 C   0  0  0  0  0  0  0  0  0  0  0  0
  5  1  1  1
  3  5  1  0
  4  6  2  0
  6  7  1  0
  3  8  1  0
  3  9  1  0
  2 10  1  0
  1 11  1  0
 10 11  2  0
 11 12  1  0
 12 13  2  0
 13 14  1  0
 10 15  1  0
 14 15  2  0
  6 16  1  0
 16 17  1  0
 17 18  1  0
  5 19  1  0
 18 19  1  0
 19 20  1  0
 16 21  1  0
 20 21  1  0
  3 22  1  0
 22 23  1  0
 23 24  2  0
 24 25  1  0
 22 26  1  0
 25 26  2  0
M  END
