x0689-x3117
     RDKit          3D

 46 50  0  0  0  0  0  0  0  0999 V2000
    7.1430   -1.0580   21.8700 N   0  0  0  0  0  0  0  0  0  0  0  0
    7.8710    2.1760   22.8390 N   0  0  0  0  0  0  0  0  0  0  0  0
    8.8300    1.2780   20.9840 O   0  0  0  0  0  0  0  0  0  0  0  0
    6.7540    0.2800   21.6980 C   0  0  1  0  0  0  0  0  0  0  0  0
    7.9190    1.2670   21.7920 C   0  0  0  0  0  0  0  0  0  0  0  0
   12.5130   -1.7990   24.3270 C   0  0  0  0  0  0  0  0  0  0  0  0
   12.6910   -0.6970   25.1290 C   0  0  0  0  0  0  0  0  0  0  0  0
   13.4740   -1.7950   23.1550 C   0  0  0  0  0  0  0  0  0  0  0  0
   12.8580   -3.0620   25.0920 C   0  0  0  0  0  0  0  0  0  0  0  0
    7.9800   -3.6670   20.3260 C   0  0  0  0  0  0  0  0  0  0  0  0
    5.7400   -4.5230   19.8850 O   0  0  0  0  0  0  0  0  0  0  0  0
    6.6200   -4.2660   20.6980 C   0  0  0  0  0  0  0  0  0  0  0  0
    4.0250   -6.4100   26.1150 O   0  0  0  0  0  0  0  0  0  0  0  0
    5.6850   -4.6710   26.9060 O   0  0  0  0  0  0  0  0  0  0  0  0
    4.7630   -5.1820   25.9130 S   0  0  0  0  0  0  0  0  0  0  0  0
    6.1880   -2.0320   21.8770 C   0  0  0  0  0  0  0  0  0  0  0  0
    6.0850   -3.0750   22.7830 C   0  0  0  0  0  0  0  0  0  0  0  0
    6.2950    0.2170   17.9350 N   0  0  0  0  0  0  0  0  0  0  0  0
    5.2160    0.9970   17.8750 C   0  0  0  0  0  0  0  0  0  0  0  0
    4.5710    1.5620   18.9420 C   0  0  0  0  0  0  0  0  0  0  0  0
    5.0480    1.3390   20.2190 C   0  0  0  0  0  0  0  0  0  0  0  0
    6.1810    0.5340   20.3240 C   0  0  0  0  0  0  0  0  0  0  0  0
    6.7770   -0.0130   19.1800 C   0  0  0  0  0  0  0  0  0  0  0  0
    9.7080    5.3970   24.3430 O   0  0  0  0  0  0  0  0  0  0  0  0
   10.6210    4.3670   23.9680 C   0  0  0  0  0  0  0  0  0  0  0  0
    9.8760    3.1970   23.8620 C   0  0  0  0  0  0  0  0  0  0  0  0
    8.7760    3.3160   22.7750 C   0  0  0  0  0  0  0  0  0  0  0  0
    8.0080    4.6320   22.9060 C   0  0  0  0  0  0  0  0  0  0  0  0
    8.8060    5.7280   23.2740 C   0  0  0  0  0  0  0  0  0  0  0  0
    9.4030   -1.7770   21.8590 C   0  0  0  0  0  0  0  0  0  0  0  0
   10.6680   -1.9520   22.4350 C   0  0  0  0  0  0  0  0  0  0  0  0
   11.1420   -1.6520   23.7430 C   0  0  0  0  0  0  0  0  0  0  0  0
    9.8230   -1.0940   24.3650 C   0  0  0  0  0  0  0  0  0  0  0  0
    8.5780   -0.9200   23.8110 C   0  0  0  0  0  0  0  0  0  0  0  0
    8.3480   -1.2480   22.5310 C   0  0  0  0  0  0  0  0  0  0  0  0
    6.2990   -4.4930   22.1700 C   0  0  0  0  0  0  0  0  0  0  0  0
    5.1530   -5.2100   22.2100 C   0  0  0  0  0  0  0  0  0  0  0  0
    4.9550   -6.0050   23.3260 C   0  0  0  0  0  0  0  0  0  0  0  0
    5.5670   -5.2960   24.4470 N   0  0  0  0  0  0  0  0  0  0  0  0
    7.0220   -5.0940   24.3460 C   0  0  0  0  0  0  0  0  0  0  0  0
    7.3740   -5.1970   23.0050 C   0  0  0  0  0  0  0  0  0  0  0  0
    3.9690   -2.3200   26.0530 S   0  0  0  0  0  0  0  0  0  0  0  0
    3.5030   -3.9360   25.7500 C   0  0  0  0  0  0  0  0  0  0  0  0
    2.1400   -4.0240   25.4130 C   0  0  0  0  0  0  0  0  0  0  0  0
    1.5100   -2.7510   25.4210 C   0  0  0  0  0  0  0  0  0  0  0  0
    2.3900   -1.7410   25.7520 C   0  0  0  0  0  0  0  0  0  0  0  0
  1  4  1  0
  2  5  1  0
  3  5  2  0
  4  5  1  6
  6  7  1  0
  6  8  1  0
  6  9  1  0
 10 12  1  0
 11 12  2  0
 13 15  2  0
 14 15  2  0
  1 16  1  0
 16 17  1  0
 18 19  2  0
 19 20  1  0
 20 21  2  0
  4 22  1  0
 21 22  1  0
 18 23  1  0
 22 23  2  0
 24 25  1  0
 25 26  1  0
  2 27  1  0
 26 27  1  0
 27 28  1  0
 24 29  1  0
 28 29  1  0
 30 31  2  0
  6 32  1  0
 31 32  1  0
 32 33  2  0
 33 34  1  0
  1 35  1  0
 30 35  1  0
 34 35  2  0
 36 12  1  0
 17 36  1  0
 36 37  1  0
 37 38  1  0
 15 39  1  0
 38 39  1  0
 39 40  1  0
 36 41  1  0
 40 41  1  0
 15 43  1  0
 42 43  1  0
 43 44  2  0
 44 45  1  0
 42 46  1  0
 45 46  2  0
M  END
