x0689-x1458
     RDKit          3D

 22 23  0  0  0  0  0  0  0  0999 V2000
    7.1270   -3.5410   26.3270 N   0  0  0  0  0  0  0  0  0  0  0  0
    9.0610   -4.6320   27.3530 C   0  0  0  0  0  0  0  0  0  0  0  0
    4.8070   -3.9810   25.4440 N   0  0  0  0  0  0  0  0  0  0  0  0
    7.5710   -4.3070   27.3950 C   0  0  0  0  0  0  0  0  0  0  0  0
    5.3070   -4.4670   19.8700 O   0  0  0  0  0  0  0  0  0  0  0  0
    6.8090   -5.5920   27.7710 C   0  0  0  0  0  0  0  0  0  0  0  0
    6.9190   -2.1420   26.7480 C   0  0  0  0  0  0  0  0  0  0  0  0
    6.1890   -4.1520   25.3460 C   0  0  1  0  0  0  0  0  0  0  0  0
    6.3860   -3.9960   20.2290 C   0  0  0  0  0  0  0  0  0  0  0  0
    7.2450   -3.2290   19.2360 C   0  0  0  0  0  0  0  0  0  0  0  0
    4.2330   -5.3330   25.5780 O   0  0  0  0  0  0  0  0  0  0  0  0
    6.8640   -4.1980   21.5160 N   0  0  0  0  0  0  0  0  0  0  0  0
    7.8340   -3.3900   22.1070 C   0  0  0  0  0  0  0  0  0  0  0  0
    7.5500   -3.3520   23.4810 C   0  0  0  0  0  0  0  0  0  0  0  0
    6.5260   -4.1830   23.8890 C   0  0  0  0  0  0  0  0  0  0  0  0
    6.5170   -5.4830   23.4080 C   0  0  0  0  0  0  0  0  0  0  0  0
    6.7040   -5.5760   22.0530 C   0  0  0  0  0  0  0  0  0  0  0  0
    3.9490   -3.0840   26.2040 C   0  0  0  0  0  0  0  0  0  0  0  0
    3.0190   -3.9900   26.7370 C   0  0  0  0  0  0  0  0  0  0  0  0
    1.7320   -3.6650   26.4040 C   0  0  0  0  0  0  0  0  0  0  0  0
    1.6980   -2.5270   25.6770 C   0  0  0  0  0  0  0  0  0  0  0  0
    3.0050   -2.0750   25.5080 C   0  0  0  0  0  0  0  0  0  0  0  0
  1  4  1  0
  2  4  1  0
  4  6  1  0
  1  7  1  0
  8  1  1  1
  3  8  1  0
  5  9  2  0
  9 10  1  0
  3 11  1  0
  9 12  1  0
 12 13  1  0
 13 14  1  0
  8 15  1  0
 14 15  1  0
 15 16  1  0
 12 17  1  0
 16 17  1  0
  3 18  1  0
 18 19  1  0
 19 20  2  0
 20 21  1  0
 18 22  1  0
 21 22  2  0
M  END
