x0689-x2964
     RDKit          3D

 38 41  0  0  0  0  0  0  0  0999 V2000
    6.9220   -3.5610   19.8420 C   0  0  0  0  0  0  0  0  0  0  0  0
    5.2690   -5.1890   19.9730 O   0  0  0  0  0  0  0  0  0  0  0  0
    6.1960   -4.7050   20.5700 C   0  0  0  0  0  0  0  0  0  0  0  0
    3.8220   -6.5130   25.9490 O   0  0  0  0  0  0  0  0  0  0  0  0
    5.5320   -4.8530   26.7620 O   0  0  0  0  0  0  0  0  0  0  0  0
    4.5800   -5.3020   25.7670 S   0  0  0  0  0  0  0  0  0  0  0  0
    6.4870   -5.2440   21.8270 N   0  0  0  0  0  0  0  0  0  0  0  0
    5.6830   -6.4170   22.1790 C   0  0  0  0  0  0  0  0  0  0  0  0
    4.7470   -6.0520   23.1470 C   0  0  0  0  0  0  0  0  0  0  0  0
    5.3980   -5.3750   24.2980 N   0  0  0  0  0  0  0  0  0  0  0  0
    6.1120   -4.2490   23.9700 C   0  0  0  0  0  0  0  0  0  0  0  0
    7.0670   -4.5460   22.9780 C   0  0  2  0  0  0  0  0  0  0  0  0
    3.8870   -2.3540   25.9940 S   0  0  0  0  0  0  0  0  0  0  0  0
    3.3930   -3.9730   25.6920 C   0  0  0  0  0  0  0  0  0  0  0  0
    1.8920   -3.9260   25.4000 C   0  0  0  0  0  0  0  0  0  0  0  0
    1.3630   -2.6700   25.4580 C   0  0  0  0  0  0  0  0  0  0  0  0
    2.3010   -1.6880   25.7690 C   0  0  0  0  0  0  0  0  0  0  0  0
    3.2890    2.1970   19.2160 N   0  0  0  0  0  0  0  0  0  0  0  0
    8.7280    1.6660   21.1750 O   0  0  0  0  0  0  0  0  0  0  0  0
   13.2100   -2.3020   21.4700 Cl  0  0  0  0  0  0  0  0  0  0  0  0
    7.0770   -0.0850   21.1210 N   0  0  0  0  0  0  0  0  0  0  0  0
    8.9110   -0.0670   22.6690 N   0  0  0  0  0  0  0  0  0  0  0  0
    8.2960    0.6030   21.6450 C   0  0  0  0  0  0  0  0  0  0  0  0
    6.8020   -2.1090   22.2690 C   0  0  0  0  0  0  0  0  0  0  0  0
    7.2290   -1.5110   21.1050 C   0  0  0  0  0  0  0  0  0  0  0  0
    4.5080    1.5360   19.1330 C   0  0  0  0  0  0  0  0  0  0  0  0
    5.2010    1.0390   20.2060 C   0  0  0  0  0  0  0  0  0  0  0  0
    6.4130    0.3800   20.0680 C   0  0  0  0  0  0  0  0  0  0  0  0
    6.9100    0.2210   18.7810 C   0  0  0  0  0  0  0  0  0  0  0  0
    6.3390    0.6670   17.6510 N   0  0  0  0  0  0  0  0  0  0  0  0
    5.1760    1.3130   17.7890 C   0  0  0  0  0  0  0  0  0  0  0  0
   10.9970    0.9490   23.3820 C   0  0  0  0  0  0  0  0  0  0  0  0
   12.3320    0.9930   23.4470 C   0  0  0  0  0  0  0  0  0  0  0  0
   12.9930   -0.0380   22.8460 C   0  0  0  0  0  0  0  0  0  0  0  0
   12.2940   -1.0890   22.1980 C   0  0  0  0  0  0  0  0  0  0  0  0
   10.9170   -1.3400   22.0140 C   0  0  0  0  0  0  0  0  0  0  0  0
   10.3610   -0.0930   22.7360 C   0  0  0  0  0  0  0  0  0  0  0  0
    7.7400   -3.2510   22.5890 C   0  0  0  0  0  0  0  0  0  0  0  0
  1  3  1  0
  2  3  2  0
  4  6  2  0
  5  6  2  0
  3  7  1  0
  7  8  1  0
  8  9  1  0
  6 10  1  0
  9 10  1  0
 10 11  1  0
  7 12  1  0
 11 12  1  0
  6 14  1  0
 13 14  1  0
 14 15  2  0
 15 16  1  0
 13 17  1  0
 16 17  2  0
 19 23  2  0
 21 23  1  0
 22 23  1  0
 21 25  1  0
 24 25  1  0
 18 26  1  0
 26 27  2  0
 21 28  1  0
 27 28  1  0
 28 29  2  0
 29 30  1  0
 26 31  1  0
 30 31  2  0
 32 33  2  0
 33 34  1  0
 20 35  1  0
 34 35  2  0
 35 36  1  0
 22 37  1  0
 32 37  1  0
 36 37  2  0
 12 38  1  6
 24 38  1  0
M  END
