x0689-x2562
     RDKit          3D

 41 45  0  0  0  0  0  0  0  0999 V2000
    8.0640   -3.6520   20.3320 C   0  0  0  0  0  0  0  0  0  0  0  0
    5.8320   -4.5940   19.8870 O   0  0  0  0  0  0  0  0  0  0  0  0
    6.6670   -4.1850   20.6760 C   0  0  0  0  0  0  0  0  0  0  0  0
    4.0190   -6.4200   25.8610 O   0  0  0  0  0  0  0  0  0  0  0  0
    5.5750   -4.7150   26.8730 O   0  0  0  0  0  0  0  0  0  0  0  0
    4.7160   -5.1600   25.7980 S   0  0  0  0  0  0  0  0  0  0  0  0
    8.3170   -0.1870   21.4770 C   0  0  0  0  0  0  0  0  0  0  0  0
    8.3030    1.0140   21.1730 O   0  0  0  0  0  0  0  0  0  0  0  0
    7.2490   -1.0060   21.1250 C   0  0  1  0  0  0  0  0  0  0  0  0
   12.0060    2.9280   23.2690 O   0  0  0  0  0  0  0  0  0  0  0  0
    9.3120   -0.8170   22.1510 N   0  0  0  0  0  0  0  0  0  0  0  0
   12.8860    6.8970   22.6590 O   0  0  0  0  0  0  0  0  0  0  0  0
    5.6530   -2.6880   22.2180 C   0  0  0  0  0  0  0  0  0  0  0  0
    6.5120   -1.5530   22.3850 C   0  0  0  0  0  0  0  0  0  0  0  0
    6.2380   -4.1420   22.1310 C   0  0  0  0  0  0  0  0  0  0  0  0
    5.0340   -5.1270   22.2020 C   0  0  0  0  0  0  0  0  0  0  0  0
    5.1980   -5.9690   23.2780 C   0  0  0  0  0  0  0  0  0  0  0  0
    5.6180   -5.0770   24.3780 N   0  0  0  0  0  0  0  0  0  0  0  0
    7.0250   -4.6270   24.3220 C   0  0  0  0  0  0  0  0  0  0  0  0
    7.3310   -4.3900   22.9790 C   0  0  0  0  0  0  0  0  0  0  0  0
    3.9110   -2.2370   26.0260 S   0  0  0  0  0  0  0  0  0  0  0  0
    3.4740   -3.8860   25.7030 C   0  0  0  0  0  0  0  0  0  0  0  0
    2.1150   -3.9230   25.4060 C   0  0  0  0  0  0  0  0  0  0  0  0
    1.4500   -2.7380   25.4330 C   0  0  0  0  0  0  0  0  0  0  0  0
    2.2920   -1.7040   25.7600 C   0  0  0  0  0  0  0  0  0  0  0  0
    4.5640    1.3730   19.5680 N   0  0  0  0  0  0  0  0  0  0  0  0
    5.0090    1.2920   18.2980 C   0  0  0  0  0  0  0  0  0  0  0  0
    6.1330    0.5340   17.7010 N   0  0  0  0  0  0  0  0  0  0  0  0
    6.9150   -0.2670   18.6310 C   0  0  0  0  0  0  0  0  0  0  0  0
    6.4660   -0.2170   20.1120 C   0  0  0  0  0  0  0  0  0  0  0  0
    5.2540    0.6480   20.4720 C   0  0  0  0  0  0  0  0  0  0  0  0
   12.4330    4.6540   21.7810 N   0  0  0  0  0  0  0  0  0  0  0  0
   13.3660    5.6190   22.3000 C   0  0  2  0  0  0  0  0  0  0  0  0
   13.5320    4.7760   23.3760 C   0  0  0  0  0  0  0  0  0  0  0  0
   12.9850    3.8070   22.6650 C   0  0  1  0  0  0  0  0  0  0  0  0
   11.6720   -1.1340   22.3260 C   0  0  0  0  0  0  0  0  0  0  0  0
   13.0460   -0.5750   22.5840 C   0  0  0  0  0  0  0  0  0  0  0  0
   13.1500    0.7680   22.8870 C   0  0  0  0  0  0  0  0  0  0  0  0
   12.0220    1.5710   22.9640 C   0  0  0  0  0  0  0  0  0  0  0  0
   10.7560    1.0220   22.7190 C   0  0  0  0  0  0  0  0  0  0  0  0
   10.5640   -0.2920   22.4020 C   0  0  0  0  0  0  0  0  0  0  0  0
  1  3  1  0
  2  3  2  0
  4  6  2  0
  5  6  2  0
  7  8  2  0
  7  9  1  0
  7 11  1  0
  9 14  1  1
 13 14  1  0
 15  3  1  0
 13 15  1  0
 15 16  1  0
 16 17  1  0
  6 18  1  0
 17 18  1  0
 18 19  1  0
 15 20  1  0
 19 20  1  0
  6 22  1  0
 21 22  1  0
 22 23  2  0
 23 24  1  0
 21 25  1  0
 24 25  2  0
 26 27  2  0
 27 28  1  0
 28 29  2  0
  9 30  1  0
 29 30  1  0
 26 31  1  0
 30 31  2  0
 33 12  1  1
 32 33  1  0
 33 34  1  0
 35 10  1  1
 32 35  1  0
 34 35  1  0
 36 37  2  0
 37 38  1  0
 10 39  1  0
 38 39  2  0
 39 40  1  0
 11 41  1  0
 36 41  1  0
 40 41  2  0
M  END
