x0689-x3080
     RDKit          3D

 45 49  0  0  0  0  0  0  0  0999 V2000
    9.7450   -0.5980   23.5190 N   0  0  0  0  0  0  0  0  0  0  0  0
   10.4790    0.5370   23.8940 C   0  0  0  0  0  0  0  0  0  0  0  0
    9.0000    1.3430   21.1990 O   0  0  0  0  0  0  0  0  0  0  0  0
    9.7400   -0.7320   22.1690 C   0  0  0  0  0  0  0  0  0  0  0  0
    7.7110   -0.5210   20.8900 N   0  0  0  0  0  0  0  0  0  0  0  0
    7.4440   -1.8400   23.3830 N   0  0  0  0  0  0  0  0  0  0  0  0
    8.7810    0.1320   21.3690 C   0  0  0  0  0  0  0  0  0  0  0  0
    8.1470   -0.0870   25.1720 O   0  0  0  0  0  0  0  0  0  0  0  0
    5.3270    1.0090   21.8510 C   0  0  0  0  0  0  0  0  0  0  0  0
    8.6350   -1.1920   24.3760 S   0  0  2  0  0  0  0  0  0  0  0  0
    7.7280   -3.5080   20.2040 C   0  0  0  0  0  0  0  0  0  0  0  0
    5.5050   -4.3880   19.8710 O   0  0  0  0  0  0  0  0  0  0  0  0
    6.5260   -4.3770   20.5710 C   0  0  0  0  0  0  0  0  0  0  0  0
    4.0570   -6.3160   25.8520 O   0  0  0  0  0  0  0  0  0  0  0  0
    5.6550   -4.5560   26.6920 O   0  0  0  0  0  0  0  0  0  0  0  0
    4.7290   -5.0380   25.7020 S   0  0  0  0  0  0  0  0  0  0  0  0
    6.4420   -2.6750   23.8050 C   0  0  1  0  0  0  0  0  0  0  0  0
    5.1000   -2.6160   23.0570 C   0  0  0  0  0  0  0  0  0  0  0  0
    6.1940    0.5780   17.6230 N   0  0  0  0  0  0  0  0  0  0  0  0
    5.1450    1.2770   18.0820 C   0  0  0  0  0  0  0  0  0  0  0  0
    4.8620    1.4140   19.4320 C   0  0  0  0  0  0  0  0  0  0  0  0
    5.6690    0.8320   20.4030 C   0  0  0  0  0  0  0  0  0  0  0  0
    6.7600    0.1200   19.9390 C   0  0  0  0  0  0  0  0  0  0  0  0
    7.0530   -0.0410   18.6190 C   0  0  0  0  0  0  0  0  0  0  0  0
   11.5450   -1.6040   24.6620 N   0  0  0  0  0  0  0  0  0  0  0  0
   10.8180   -2.5920   25.2410 C   0  0  0  0  0  0  0  0  0  0  0  0
   11.3520   -3.6910   25.9070 C   0  0  0  0  0  0  0  0  0  0  0  0
   12.7600   -3.8460   26.0400 C   0  0  0  0  0  0  0  0  0  0  0  0
   13.6020   -2.8920   25.5060 C   0  0  0  0  0  0  0  0  0  0  0  0
   12.9910   -1.7090   24.7710 C   0  0  0  0  0  0  0  0  0  0  0  0
    8.4610   -3.4330   25.7340 C   0  0  0  0  0  0  0  0  0  0  0  0
    9.0560   -4.4920   26.3700 C   0  0  0  0  0  0  0  0  0  0  0  0
   10.4410   -4.6250   26.4580 C   0  0  0  0  0  0  0  0  0  0  0  0
    9.3210   -2.5350   25.1970 C   0  0  0  0  0  0  0  0  0  0  0  0
    6.6220   -5.1520   21.7210 N   0  0  0  0  0  0  0  0  0  0  0  0
    5.6730   -6.1920   22.0550 C   0  0  0  0  0  0  0  0  0  0  0  0
    4.6980   -5.5630   23.0390 C   0  0  0  0  0  0  0  0  0  0  0  0
    5.5170   -5.0780   24.1870 N   0  0  0  0  0  0  0  0  0  0  0  0
    6.7930   -4.2260   23.9400 C   0  0  1  0  0  0  0  0  0  0  0  0
    7.5020   -4.7010   22.8250 C   0  0  0  0  0  0  0  0  0  0  0  0
    3.8530   -2.1880   26.0490 S   0  0  0  0  0  0  0  0  0  0  0  0
    3.4150   -3.8230   25.6630 C   0  0  0  0  0  0  0  0  0  0  0  0
    2.0850   -3.9020   25.3860 C   0  0  0  0  0  0  0  0  0  0  0  0
    1.4040   -2.7030   25.4750 C   0  0  0  0  0  0  0  0  0  0  0  0
    2.2440   -1.6730   25.8300 C   0  0  0  0  0  0  0  0  0  0  0  0
  1  2  1  0
  1  4  1  0
  3  7  2  0
  4  7  1  0
  5  7  1  0
 10  1  1  6
  6 10  2  0
  8 10  2  0
 11 13  1  0
 12 13  2  0
 14 16  2  0
 15 16  2  0
  6 17  1  0
 17 18  1  6
 19 20  2  0
 20 21  1  0
  9 22  1  0
 21 22  2  0
  5 23  1  0
 22 23  1  0
 19 24  1  0
 23 24  2  0
 25 26  2  0
 26 27  1  0
 27 28  2  0
 28 29  1  0
 25 30  1  0
 29 30  2  0
 31 32  1  0
 27 33  1  0
 32 33  2  0
 10 34  1  0
 26 34  1  0
 31 34  2  0
 13 35  1  0
 35 36  1  0
 36 37  1  0
 16 38  1  0
 37 38  1  0
 17 39  1  0
 38 39  1  0
 35 40  1  0
 39 40  1  6
 16 42  1  0
 41 42  1  0
 42 43  2  0
 43 44  1  0
 41 45  1  0
 44 45  2  0
M  END
