x0689-x3124-x3110
     RDKit          3D

 47 50  0  0  0  0  0  0  0  0999 V2000
    8.0010    1.7140   23.3450 N   0  0  0  0  0  0  0  0  0  0  0  0
   13.3800    5.2750   22.9570 C   0  0  0  0  0  0  0  0  0  0  0  0
   12.1610    3.3700   22.3380 O   0  0  0  0  0  0  0  0  0  0  0  0
   12.6040    4.6240   21.8640 C   0  0  0  0  0  0  0  0  0  0  0  0
    7.2290   -1.2130   21.7400 N   0  0  0  0  0  0  0  0  0  0  0  0
   11.2440    4.3220   24.1370 O   0  0  0  0  0  0  0  0  0  0  0  0
   11.2840    3.3250   23.3680 C   0  0  0  0  0  0  0  0  0  0  0  0
    8.6010    1.7180   21.1670 O   0  0  0  0  0  0  0  0  0  0  0  0
   10.3920    2.1590   23.5780 C   0  0  0  0  0  0  0  0  0  0  0  0
    9.0000    2.7320   23.6250 C   0  0  0  0  0  0  0  0  0  0  0  0
    7.8060    1.1620   22.1060 C   0  0  0  0  0  0  0  0  0  0  0  0
    6.9630    0.1600   21.5980 C   0  0  1  0  0  0  0  0  0  0  0  0
   12.4360   -1.9170   24.1940 C   0  0  0  0  0  0  0  0  0  0  0  0
   12.6300   -0.6280   24.9310 C   0  0  0  0  0  0  0  0  0  0  0  0
   13.4350   -1.9750   23.0920 C   0  0  0  0  0  0  0  0  0  0  0  0
   12.7160   -3.0690   25.0960 C   0  0  0  0  0  0  0  0  0  0  0  0
    7.2270   -3.4510   19.9070 C   0  0  0  0  0  0  0  0  0  0  0  0
    5.6080   -4.9750   19.9680 O   0  0  0  0  0  0  0  0  0  0  0  0
    6.4480   -4.3260   20.5620 C   0  0  0  0  0  0  0  0  0  0  0  0
    4.0700   -6.4100   26.0330 O   0  0  0  0  0  0  0  0  0  0  0  0
    5.6520   -4.6300   26.8390 O   0  0  0  0  0  0  0  0  0  0  0  0
    4.7850   -5.1680   25.8270 S   0  0  0  0  0  0  0  0  0  0  0  0
    5.9970   -2.0380   21.7550 C   0  0  0  0  0  0  0  0  0  0  0  0
    6.1280   -3.1610   22.7140 C   0  0  0  0  0  0  0  0  0  0  0  0
    6.3530    0.3700   17.8790 N   0  0  0  0  0  0  0  0  0  0  0  0
    5.2690    1.1780   17.8200 C   0  0  0  0  0  0  0  0  0  0  0  0
    4.6510    1.6980   18.9350 C   0  0  0  0  0  0  0  0  0  0  0  0
    5.1980    1.3710   20.3120 C   0  0  0  0  0  0  0  0  0  0  0  0
    6.3080    0.5480   20.3060 C   0  0  0  0  0  0  0  0  0  0  0  0
    6.8300    0.0840   19.1000 C   0  0  0  0  0  0  0  0  0  0  0  0
    9.5510   -1.3420   21.6360 C   0  0  0  0  0  0  0  0  0  0  0  0
   10.9500   -1.5140   22.1590 C   0  0  0  0  0  0  0  0  0  0  0  0
   11.0420   -1.7840   23.5970 C   0  0  0  0  0  0  0  0  0  0  0  0
    9.8860   -1.8860   24.3600 C   0  0  0  0  0  0  0  0  0  0  0  0
    8.5840   -1.7330   23.8430 C   0  0  0  0  0  0  0  0  0  0  0  0
    8.4330   -1.4500   22.4730 C   0  0  0  0  0  0  0  0  0  0  0  0
    6.3650   -4.5660   22.0950 C   0  0  0  0  0  0  0  0  0  0  0  0
    5.2360   -5.3690   22.1540 C   0  0  0  0  0  0  0  0  0  0  0  0
    4.9610   -6.0300   23.2910 C   0  0  0  0  0  0  0  0  0  0  0  0
    5.6290   -5.2970   24.3550 N   0  0  0  0  0  0  0  0  0  0  0  0
    7.1140   -5.1480   24.2530 C   0  0  0  0  0  0  0  0  0  0  0  0
    7.4720   -5.2320   22.9160 C   0  0  0  0  0  0  0  0  0  0  0  0
    3.9190   -2.2990   26.0250 S   0  0  0  0  0  0  0  0  0  0  0  0
    3.5220   -3.9030   25.7040 C   0  0  0  0  0  0  0  0  0  0  0  0
    2.1760   -3.9360   25.3860 C   0  0  0  0  0  0  0  0  0  0  0  0
    1.4860   -2.7900   25.3960 C   0  0  0  0  0  0  0  0  0  0  0  0
    2.2980   -1.7340   25.7370 C   0  0  0  0  0  0  0  0  0  0  0  0
  2  4  1  0
  3  4  1  0
  3  7  1  0
  6  7  2  0
  7  9  1  0
  1 10  1  0
  9 10  1  0
  1 11  1  0
  8 11  2  0
  5 12  1  0
 12 11  1  6
 13 14  1  0
 13 15  1  0
 13 16  1  0
 17 19  1  0
 18 19  2  0
 20 22  2  0
 21 22  2  0
  5 23  1  0
 23 24  1  0
 25 26  2  0
 26 27  1  0
 27 28  2  0
 12 29  1  0
 28 29  1  0
 25 30  1  0
 29 30  2  0
 31 32  2  0
 13 33  1  0
 32 33  1  0
 33 34  2  0
 34 35  1  0
  5 36  1  0
 31 36  1  0
 35 36  2  0
 37 19  1  0
 24 37  1  0
 37 38  1  0
 38 39  1  0
 22 40  1  0
 39 40  1  0
 40 41  1  0
 37 42  1  0
 41 42  1  0
 22 44  1  0
 43 44  1  0
 44 45  2  0
 45 46  1  0
 43 47  1  0
 46 47  2  0
M  END
