x0689-x2193
     RDKit          3D

 34 37  0  0  0  0  0  0  0  0999 V2000
    7.2460   -3.3910   19.7900 C   0  0  0  0  0  0  0  0  0  0  0  0
    5.1390   -4.4250   19.8350 O   0  0  0  0  0  0  0  0  0  0  0  0
    6.2210   -4.3600   20.3900 C   0  0  0  0  0  0  0  0  0  0  0  0
    3.6910   -6.4500   25.5580 O   0  0  0  0  0  0  0  0  0  0  0  0
    5.6890   -5.2030   26.6800 N   0  0  0  0  0  0  0  0  0  0  0  0
    4.6070   -5.3400   25.5940 S   0  0  1  0  0  0  0  0  0  0  0  0
   11.0990    2.3580   23.1440 C   0  0  0  0  0  0  0  0  0  0  0  0
    9.2580    1.9090   21.1310 O   0  0  0  0  0  0  0  0  0  0  0  0
    8.5130    2.4880   23.5460 O   0  0  0  0  0  0  0  0  0  0  0  0
    9.4710    1.8110   22.7000 S   0  0  0  0  0  0  0  0  0  0  0  0
    6.7690   -4.2010   26.6370 C   0  0  0  0  0  0  0  0  0  0  0  0
    6.4790   -5.1670   21.5060 N   0  0  0  0  0  0  0  0  0  0  0  0
    5.6420   -6.2180   21.8990 C   0  0  0  0  0  0  0  0  0  0  0  0
    4.6960   -5.8150   22.8940 C   0  0  0  0  0  0  0  0  0  0  0  0
    5.3590   -5.2880   24.0810 N   0  0  0  0  0  0  0  0  0  0  0  0
    6.4520   -4.5370   23.8900 C   0  0  0  0  0  0  0  0  0  0  0  0
    7.1380   -4.5880   22.5080 C   0  0  0  0  0  0  0  0  0  0  0  0
    4.0070   -2.3620   26.0230 S   0  0  0  0  0  0  0  0  0  0  0  0
    3.4660   -3.9680   25.6440 C   0  0  0  0  0  0  0  0  0  0  0  0
    2.1160   -3.8770   25.4240 C   0  0  0  0  0  0  0  0  0  0  0  0
    1.5200   -2.6570   25.5390 C   0  0  0  0  0  0  0  0  0  0  0  0
    2.4260   -1.6600   25.8740 C   0  0  0  0  0  0  0  0  0  0  0  0
    9.4320    0.2080   23.1460 C   0  0  0  0  0  0  0  0  0  0  0  0
    8.9590   -0.0200   24.4260 C   0  0  0  0  0  0  0  0  0  0  0  0
    8.8600   -1.3110   24.8840 C   0  0  0  0  0  0  0  0  0  0  0  0
    9.1990   -2.4620   24.1800 C   0  0  0  0  0  0  0  0  0  0  0  0
    9.6980   -2.3040   22.8800 C   0  0  0  0  0  0  0  0  0  0  0  0
    9.8250   -0.8510   22.3120 C   0  0  0  0  0  0  0  0  0  0  0  0
    8.2490   -5.9490   25.7120 N   0  0  0  0  0  0  0  0  0  0  0  0
    8.1920   -4.7820   26.6160 C   0  0  1  0  0  0  0  0  0  0  0  0
    9.1940   -3.9600   26.1500 C   0  0  0  0  0  0  0  0  0  0  0  0
    9.0420   -3.7360   24.7230 N   0  0  0  0  0  0  0  0  0  0  0  0
    9.6320   -4.8200   24.0080 C   0  0  0  0  0  0  0  0  0  0  0  0
    9.4720   -5.9500   24.8410 C   0  0  0  0  0  0  0  0  0  0  0  0
  1  3  1  0
  2  3  2  0
  4  6  2  0
  5  6  2  0
 10  7  1  0
  8 10  2  0
  9 10  2  0
  5 11  1  0
  3 12  1  0
 12 13  1  0
 13 14  1  0
  6 15  1  0
 14 15  1  0
 15 16  1  0
 12 17  1  0
 16 17  1  0
  6 19  1  6
 18 19  1  0
 19 20  2  0
 20 21  1  0
 18 22  1  0
 21 22  2  0
 10 23  1  0
 23 24  2  0
 24 25  1  0
 25 26  2  0
 26 27  1  0
 23 28  1  0
 27 28  2  0
 30 11  1  6
 29 30  1  0
 30 31  1  0
 26 32  1  0
 31 32  1  0
 32 33  1  0
 29 34  1  0
 33 34  1  0
M  END
