x0689-x1493
     RDKit          3D

 18 19  0  0  0  0  0  0  0  0999 V2000
    7.5510   -3.5300   20.2330 C   0  0  0  0  0  0  0  0  0  0  0  0
    5.3800   -4.4450   19.8810 O   0  0  0  0  0  0  0  0  0  0  0  0
    6.4010   -4.4610   20.5740 C   0  0  0  0  0  0  0  0  0  0  0  0
    3.6570   -6.1150   25.8330 O   0  0  0  0  0  0  0  0  0  0  0  0
    5.6930   -5.1020   26.8470 C   0  0  0  0  0  0  0  0  0  0  0  0
    4.5810   -5.0650   25.4820 S   0  0  1  0  0  0  0  0  0  0  0  0
    6.5220   -5.1300   27.6710 O   0  0  0  0  0  0  0  0  0  0  0  0
    6.5380   -5.2970   21.6680 N   0  0  0  0  0  0  0  0  0  0  0  0
    5.6370   -6.4010   21.9760 C   0  0  0  0  0  0  0  0  0  0  0  0
    4.7220   -5.9990   22.9690 C   0  0  0  0  0  0  0  0  0  0  0  0
    5.2910   -5.1150   23.9860 N   0  0  0  0  0  0  0  0  0  0  0  0
    6.4600   -4.2560   23.8110 C   0  0  0  0  0  0  0  0  0  0  0  0
    7.2220   -4.8010   22.8080 C   0  0  0  0  0  0  0  0  0  0  0  0
    3.8380   -2.2390   26.0400 S   0  0  0  0  0  0  0  0  0  0  0  0
    3.3550   -3.8320   25.6100 C   0  0  0  0  0  0  0  0  0  0  0  0
    1.9840   -3.8650   25.4140 C   0  0  0  0  0  0  0  0  0  0  0  0
    1.3410   -2.6650   25.6010 C   0  0  0  0  0  0  0  0  0  0  0  0
    2.2260   -1.6520   25.9540 C   0  0  0  0  0  0  0  0  0  0  0  0
  1  3  1  0
  2  3  2  0
  4  6  2  0
  5  6  2  0
  5  7  2  0
  3  8  1  0
  8  9  1  0
  9 10  1  0
  6 11  1  0
 10 11  1  0
 11 12  1  0
  8 13  1  0
 12 13  1  0
  6 15  1  6
 14 15  1  0
 15 16  2  0
 16 17  1  0
 14 18  1  0
 17 18  2  0
M  END
