x0689-x2764
     RDKit          3D

 35 38  0  0  0  0  0  0  0  0999 V2000
    7.6090   -2.1260   22.1270 N   0  0  0  0  0  0  0  0  0  0  0  0
    7.1370   -2.2860   20.8040 C   0  0  0  0  0  0  0  0  0  0  0  0
    6.7990   -3.4680   20.0730 C   0  0  0  0  0  0  0  0  0  0  0  0
    8.6750   -1.1460   22.4660 C   0  0  0  0  0  0  0  0  0  0  0  0
    7.1510    0.5980   21.9640 O   0  0  0  0  0  0  0  0  0  0  0  0
    8.0040    4.0780   22.5820 N   0  0  0  0  0  0  0  0  0  0  0  0
    8.0210    1.7420   22.1350 C   0  0  0  0  0  0  0  0  0  0  0  0
    7.2650    2.9250   22.3300 C   0  0  0  0  0  0  0  0  0  0  0  0
    5.6200   -5.4010   20.0660 O   0  0  0  0  0  0  0  0  0  0  0  0
    6.4380   -4.7630   20.7600 C   0  0  0  0  0  0  0  0  0  0  0  0
    3.8630   -6.3420   25.9330 O   0  0  0  0  0  0  0  0  0  0  0  0
    5.5490   -4.6790   26.8200 O   0  0  0  0  0  0  0  0  0  0  0  0
    4.6230   -5.1190   25.7950 S   0  0  0  0  0  0  0  0  0  0  0  0
   12.4840   -2.0200   22.6470 N   0  0  0  0  0  0  0  0  0  0  0  0
   11.3170   -1.7390   22.0560 C   0  0  0  0  0  0  0  0  0  0  0  0
   10.0790   -1.5080   22.9300 C   0  0  0  0  0  0  0  0  0  0  0  0
   10.4970   -1.6670   24.2330 C   0  0  0  0  0  0  0  0  0  0  0  0
   12.1860   -2.0320   24.2970 S   0  0  0  0  0  0  0  0  0  0  0  0
    6.3090   -1.0480   18.7640 C   0  0  0  0  0  0  0  0  0  0  0  0
    5.8660    0.0660   18.0600 C   0  0  0  0  0  0  0  0  0  0  0  0
    5.8530    1.3070   18.6230 C   0  0  0  0  0  0  0  0  0  0  0  0
    6.2980    1.4730   19.9220 C   0  0  0  0  0  0  0  0  0  0  0  0
    6.7480    0.3720   20.6690 C   0  0  0  0  0  0  0  0  0  0  0  0
    6.7610   -0.9480   20.0970 C   0  0  0  0  0  0  0  0  0  0  0  0
    6.8330   -5.2970   21.9600 N   0  0  0  0  0  0  0  0  0  0  0  0
    5.9890   -6.2790   22.3710 C   0  0  0  0  0  0  0  0  0  0  0  0
    4.9270   -5.9200   23.2040 C   0  0  0  0  0  0  0  0  0  0  0  0
    5.4780   -5.1530   24.3490 N   0  0  0  0  0  0  0  0  0  0  0  0
    6.4210   -4.0570   24.0130 C   0  0  0  0  0  0  0  0  0  0  0  0
    7.4910   -4.5720   23.0560 C   0  0  0  0  0  0  0  0  0  0  0  0
    3.8430   -2.1750   26.0400 S   0  0  0  0  0  0  0  0  0  0  0  0
    3.4230   -3.8040   25.7180 C   0  0  0  0  0  0  0  0  0  0  0  0
    2.0640   -3.9450   25.4040 C   0  0  0  0  0  0  0  0  0  0  0  0
    1.3890   -2.7120   25.4400 C   0  0  0  0  0  0  0  0  0  0  0  0
    2.2290   -1.6440   25.7740 C   0  0  0  0  0  0  0  0  0  0  0  0
  1  2  1  0
  2  3  2  3
  1  4  1  0
  5  7  1  0
  6  8  3  0
  7  8  1  0
  3 10  1  0
  9 10  2  0
 11 13  2  0
 12 13  2  0
 14 15  2  0
  4 16  1  0
 15 16  1  0
 16 17  2  0
 14 18  1  0
 17 18  1  0
 19 20  2  0
 20 21  1  0
 21 22  2  0
  5 23  1  0
 22 23  1  0
  2 24  1  0
 19 24  1  0
 23 24  2  0
 10 25  1  0
 25 26  1  0
 26 27  1  0
 13 28  1  0
 27 28  1  0
 28 29  1  0
 25 30  1  0
 29 30  1  0
 13 32  1  0
 31 32  1  0
 32 33  2  0
 33 34  1  0
 31 35  1  0
 34 35  2  0
M  END
