x0689-x2703
     RDKit          3D

 48 52  0  0  0  0  0  0  0  0999 V2000
    7.3680   -1.0940   21.9830 N   0  0  0  0  0  0  0  0  0  0  0  0
    7.5520    2.1180   22.8990 N   0  0  0  0  0  0  0  0  0  0  0  0
    8.7510    1.3800   21.0780 O   0  0  0  0  0  0  0  0  0  0  0  0
    6.7790    0.1480   21.7350 C   0  0  1  0  0  0  0  0  0  0  0  0
    7.8040    1.2580   21.8590 C   0  0  0  0  0  0  0  0  0  0  0  0
   10.1070    1.9930   24.0160 C   0  0  0  0  0  0  0  0  0  0  0  0
    9.1960    1.3160   24.8310 C   0  0  0  0  0  0  0  0  0  0  0  0
    6.2680    4.4820   21.9440 C   0  0  0  0  0  0  0  0  0  0  0  0
   12.6800   -1.8710   24.1990 C   0  0  0  0  0  0  0  0  0  0  0  0
   12.9000   -2.9680   24.9970 C   0  0  0  0  0  0  0  0  0  0  0  0
   12.7660   -0.6280   25.0310 C   0  0  0  0  0  0  0  0  0  0  0  0
    6.6450   -2.1830   22.2660 C   0  0  0  0  0  0  0  0  0  0  0  0
    6.2520    0.2290   17.9280 N   0  0  0  0  0  0  0  0  0  0  0  0
    5.0920    0.9110   17.8370 C   0  0  0  0  0  0  0  0  0  0  0  0
    4.4850    1.3110   19.0150 C   0  0  0  0  0  0  0  0  0  0  0  0
    5.0020    1.0630   20.2580 C   0  0  0  0  0  0  0  0  0  0  0  0
    6.1900    0.3810   20.3680 C   0  0  0  0  0  0  0  0  0  0  0  0
    6.7900   -0.0320   19.1920 C   0  0  0  0  0  0  0  0  0  0  0  0
   11.2480   -1.3380   22.2550 N   0  0  0  0  0  0  0  0  0  0  0  0
   11.3090   -1.7130   23.6500 C   0  0  0  0  0  0  0  0  0  0  0  0
   10.1990   -1.8870   24.4580 C   0  0  0  0  0  0  0  0  0  0  0  0
    8.9370   -1.6970   23.9360 C   0  0  0  0  0  0  0  0  0  0  0  0
    8.7260   -1.2820   22.4660 C   0  0  0  0  0  0  0  0  0  0  0  0
    9.9440   -1.1030   21.6350 C   0  0  0  0  0  0  0  0  0  0  0  0
    9.4920    3.2900   23.5550 C   0  0  0  0  0  0  0  0  0  0  0  0
   10.0950    4.5290   23.6250 C   0  0  0  0  0  0  0  0  0  0  0  0
    9.4910    5.7270   23.1730 C   0  0  0  0  0  0  0  0  0  0  0  0
    8.2210    5.9860   22.5740 C   0  0  0  0  0  0  0  0  0  0  0  0
    7.6500    4.5260   22.5530 C   0  0  0  0  0  0  0  0  0  0  0  0
    8.2270    3.3370   22.9990 C   0  0  0  0  0  0  0  0  0  0  0  0
    6.9550   -3.5070   19.9000 C   0  0  0  0  0  0  0  0  0  0  0  0
    5.2460   -5.1060   19.9670 O   0  0  0  0  0  0  0  0  0  0  0  0
    6.1850   -4.6540   20.5740 C   0  0  0  0  0  0  0  0  0  0  0  0
    3.7220   -6.4980   26.0230 O   0  0  0  0  0  0  0  0  0  0  0  0
    5.4980   -4.8470   26.7420 O   0  0  0  0  0  0  0  0  0  0  0  0
    4.5030   -5.3040   25.7920 S   0  0  0  0  0  0  0  0  0  0  0  0
    6.4750   -5.2330   21.8270 N   0  0  0  0  0  0  0  0  0  0  0  0
    5.6150   -6.3680   22.1570 C   0  0  0  0  0  0  0  0  0  0  0  0
    4.6290   -6.0200   23.0940 C   0  0  0  0  0  0  0  0  0  0  0  0
    5.2850   -5.4510   24.2760 N   0  0  0  0  0  0  0  0  0  0  0  0
    6.2520   -4.3840   24.0800 C   0  0  0  0  0  0  0  0  0  0  0  0
    7.0840   -4.5820   23.0020 C   0  0  2  0  0  0  0  0  0  0  0  0
    3.8820   -2.3930   26.0220 S   0  0  0  0  0  0  0  0  0  0  0  0
    3.3210   -3.9800   25.7000 C   0  0  0  0  0  0  0  0  0  0  0  0
    1.9520   -3.9580   25.4090 C   0  0  0  0  0  0  0  0  0  0  0  0
    1.3680   -2.6710   25.4530 C   0  0  0  0  0  0  0  0  0  0  0  0
    2.3230   -1.7280   25.7790 C   0  0  0  0  0  0  0  0  0  0  0  0
    7.6910   -3.2600   22.6100 C   0  0  0  0  0  0  0  0  0  0  0  0
  1  4  1  0
  2  5  1  0
  3  5  2  0
  4  5  1  6
  6  7  1  0
  9 10  1  0
  9 11  1  0
  1 12  1  0
 13 14  2  0
 14 15  1  0
 15 16  2  0
  4 17  1  0
 16 17  1  0
 13 18  1  0
 17 18  2  0
  9 20  1  0
 19 20  2  0
 20 21  1  0
 21 22  2  0
  1 23  1  0
 22 23  1  0
 19 24  1  0
 23 24  2  0
  6 25  1  0
 25 26  2  0
 26 27  1  0
 27 28  2  0
  8 29  1  0
 28 29  1  0
  2 30  1  0
 25 30  1  0
 29 30  2  0
 31 33  1  0
 32 33  2  0
 34 36  2  0
 35 36  2  0
 33 37  1  0
 37 38  1  0
 38 39  1  0
 36 40  1  0
 39 40  1  0
 40 41  1  0
 37 42  1  0
 41 42  1  0
 36 44  1  0
 43 44  1  0
 44 45  2  0
 45 46  1  0
 43 47  1  0
 46 47  2  0
 12 48  1  0
 42 48  1  6
M  END
