x0689-x0387
     RDKit          3D

 32 36  0  0  0  0  0  0  0  0999 V2000
    7.0540   -3.4230   19.8700 C   0  0  0  0  0  0  0  0  0  0  0  0
    5.1580   -4.7670   19.9190 O   0  0  0  0  0  0  0  0  0  0  0  0
    6.1970   -4.5230   20.4880 C   0  0  0  0  0  0  0  0  0  0  0  0
    4.2670   -6.1400   26.0000 O   0  0  0  0  0  0  0  0  0  0  0  0
    5.9510   -4.0770   26.2690 N   0  0  0  0  0  0  0  0  0  0  0  0
    4.8230   -4.8690   25.5930 S   0  0  1  0  0  0  0  0  0  0  0  0
    9.1000   -5.2220   27.4680 O   0  0  0  0  0  0  0  0  0  0  0  0
    9.1390   -2.4650   23.5290 C   0  0  0  0  0  0  0  0  0  0  0  0
    7.2920   -4.6950   26.2620 C   0  0  2  0  0  0  0  0  0  0  0  0
    7.7600   -4.8320   27.5770 C   0  0  0  0  0  0  0  0  0  0  0  0
    6.5590   -5.2380   21.6250 N   0  0  0  0  0  0  0  0  0  0  0  0
    5.6540   -6.3090   22.0260 C   0  0  0  0  0  0  0  0  0  0  0  0
    4.7660   -5.8550   23.0030 C   0  0  0  0  0  0  0  0  0  0  0  0
    5.4040   -5.0020   24.0240 N   0  0  0  0  0  0  0  0  0  0  0  0
    6.2130   -3.9990   23.5420 C   0  0  0  0  0  0  0  0  0  0  0  0
    7.1880   -4.6300   22.7770 C   0  0  0  0  0  0  0  0  0  0  0  0
    3.8400   -2.0460   26.0020 S   0  0  0  0  0  0  0  0  0  0  0  0
    3.5620   -3.7050   25.6080 C   0  0  0  0  0  0  0  0  0  0  0  0
    2.2160   -3.9310   25.3250 C   0  0  0  0  0  0  0  0  0  0  0  0
    1.4650   -2.7890   25.4350 C   0  0  0  0  0  0  0  0  0  0  0  0
    2.2120   -1.6820   25.7990 C   0  0  0  0  0  0  0  0  0  0  0  0
    9.5630   -4.3400   26.4600 C   0  0  2  0  0  0  0  0  0  0  0  0
    8.5460   -4.0710   25.5270 C   0  0  2  0  0  0  0  0  0  0  0  0
    8.7710   -2.7340   25.0310 C   0  0  1  0  0  0  0  0  0  0  0  0
   10.0710   -2.4270   25.5920 N   0  0  0  0  0  0  0  0  0  0  0  0
   11.0650   -3.3820   25.1300 C   0  0  0  0  0  0  0  0  0  0  0  0
   10.9620   -4.6690   25.9890 C   0  0  0  0  0  0  0  0  0  0  0  0
   11.4150   -1.3380   24.1930 C   0  0  0  0  0  0  0  0  0  0  0  0
   10.5850   -1.9540   23.2580 C   0  0  0  0  0  0  0  0  0  0  0  0
   11.2650   -2.0490   22.0360 C   0  0  0  0  0  0  0  0  0  0  0  0
   12.8550   -1.4120   22.0610 S   0  0  0  0  0  0  0  0  0  0  0  0
   12.6650   -0.9860   23.6950 C   0  0  0  0  0  0  0  0  0  0  0  0
  1  3  1  0
  2  3  2  0
  4  6  2  0
  5  6  2  0
  9  5  1  1
  7 10  1  0
  9 10  1  0
  3 11  1  0
 11 12  1  0
 12 13  1  0
  6 14  1  0
 13 14  1  0
 14 15  1  0
 11 16  1  0
 15 16  1  0
  6 18  1  6
 17 18  1  0
 18 19  2  0
 19 20  1  0
 17 21  1  0
 20 21  2  0
  7 22  1  0
 23  9  1  1
 22 23  1  0
 24  8  1  6
 23 24  1  0
 24 25  1  0
 25 26  1  0
 22 27  1  6
 26 27  1  0
  8 29  1  0
 28 29  1  0
 29 30  2  0
 30 31  1  0
 28 32  2  0
 31 32  1  0
M  END
