x0691-x2910
     RDKit          3D

 45 49  0  0  0  0  0  0  0  0999 V2000
    7.0770   -1.0930   21.7720 N   0  0  0  0  0  0  0  0  0  0  0  0
    9.9530    2.7750   23.2560 C   0  0  0  0  0  0  0  0  0  0  0  0
    9.8770    1.3670   23.4800 O   0  0  0  0  0  0  0  0  0  0  0  0
    9.4420   -1.2430   22.8580 O   0  0  0  0  0  0  0  0  0  0  0  0
    5.1780   -2.5790   20.8960 O   0  0  0  0  0  0  0  0  0  0  0  0
    6.3190    1.2460   16.6770 O   0  0  0  0  0  0  0  0  0  0  0  0
    9.0350   -2.4590   22.2430 C   0  0  0  0  0  0  0  0  0  0  0  0
    7.5650   -2.3360   21.9010 C   0  0  1  0  0  0  0  0  0  0  0  0
    5.9310   -1.3550   20.9190 C   0  0  0  0  0  0  0  0  0  0  0  0
    4.1570   -6.8650   26.0190 O   0  0  0  0  0  0  0  0  0  0  0  0
    5.7700   -5.1930   27.0020 O   0  0  0  0  0  0  0  0  0  0  0  0
    5.7900   -4.7630   19.9430 O   0  0  0  0  0  0  0  0  0  0  0  0
    6.6870   -4.3970   20.6860 C   0  0  0  0  0  0  0  0  0  0  0  0
    7.9850   -3.6910   20.2910 C   0  0  0  0  0  0  0  0  0  0  0  0
    3.2940   -0.6820   26.2960 F   0  0  0  0  0  0  0  0  0  0  0  0
    4.8180   -5.5780   25.9870 S   0  0  0  0  0  0  0  0  0  0  0  0
    6.6800   -3.1680   22.7700 C   0  0  0  0  0  0  0  0  0  0  0  0
   11.0160    0.6210   23.0750 C   0  0  0  0  0  0  0  0  0  0  0  0
   10.7110   -0.8490   22.7350 C   0  0  0  0  0  0  0  0  0  0  0  0
   11.8280   -1.5890   22.3390 C   0  0  0  0  0  0  0  0  0  0  0  0
   13.1110   -1.0880   22.2490 C   0  0  0  0  0  0  0  0  0  0  0  0
   13.3970    0.2280   22.5530 C   0  0  0  0  0  0  0  0  0  0  0  0
   12.4580    1.0980   22.9530 C   0  0  0  0  0  0  0  0  0  0  0  0
    4.8370    1.9940   18.2850 N   0  0  0  0  0  0  0  0  0  0  0  0
    4.2460    1.8410   19.6000 C   0  0  0  0  0  0  0  0  0  0  0  0
    4.6560    0.7570   20.3980 C   0  0  0  0  0  0  0  0  0  0  0  0
    5.5840   -0.2110   20.0080 C   0  0  0  0  0  0  0  0  0  0  0  0
    6.1560   -0.0740   18.7600 C   0  0  0  0  0  0  0  0  0  0  0  0
    5.8080    1.0340   17.8700 C   0  0  0  0  0  0  0  0  0  0  0  0
    3.3010    2.7880   20.0000 C   0  0  0  0  0  0  0  0  0  0  0  0
    2.7240    2.7000   21.2490 C   0  0  0  0  0  0  0  0  0  0  0  0
    3.1410    1.6400   22.0520 C   0  0  0  0  0  0  0  0  0  0  0  0
    4.0700    0.6950   21.6540 C   0  0  0  0  0  0  0  0  0  0  0  0
    2.8780   -1.9400   26.0970 C   0  0  0  0  0  0  0  0  0  0  0  0
    3.8050   -2.9640   26.1190 C   0  0  0  0  0  0  0  0  0  0  0  0
    3.5470   -4.3400   25.9320 C   0  0  0  0  0  0  0  0  0  0  0  0
    2.0560   -4.7280   25.6690 C   0  0  0  0  0  0  0  0  0  0  0  0
    0.9960   -3.5710   25.6410 C   0  0  0  0  0  0  0  0  0  0  0  0
    1.5390   -2.1770   25.8770 C   0  0  0  0  0  0  0  0  0  0  0  0
    6.4240   -4.5820   22.1770 C   0  0  0  0  0  0  0  0  0  0  0  0
    5.1300   -5.0820   22.2820 C   0  0  0  0  0  0  0  0  0  0  0  0
    4.8740   -5.9540   23.3120 C   0  0  0  0  0  0  0  0  0  0  0  0
    5.5630   -5.4130   24.4860 N   0  0  0  0  0  0  0  0  0  0  0  0
    7.0400   -5.3010   24.3600 C   0  0  0  0  0  0  0  0  0  0  0  0
    7.3430   -5.4920   22.9990 C   0  0  0  0  0  0  0  0  0  0  0  0
  2  3  1  0
  4  7  1  0
  1  8  1  0
  8  7  1  1
  1  9  1  0
  5  9  2  0
 12 13  2  0
 13 14  1  0
 10 16  2  0
 11 16  2  0
  8 17  1  0
  3 18  1  0
  4 19  1  0
 18 19  2  0
 19 20  1  0
 20 21  2  0
 21 22  1  0
 18 23  1  0
 22 23  2  0
 24 25  2  0
 25 26  1  0
  9 27  1  0
 26 27  2  0
 27 28  1  0
  6 29  1  0
 24 29  1  0
 28 29  2  0
 25 30  1  0
 30 31  2  0
 31 32  1  0
 26 33  1  0
 32 33  2  0
 15 34  1  0
 34 35  2  0
 16 36  1  0
 35 36  1  0
 36 37  2  0
 37 38  1  0
 34 39  1  0
 38 39  2  0
 40 13  1  0
 17 40  1  0
 40 41  1  0
 41 42  1  0
 16 43  1  0
 42 43  1  0
 43 44  1  0
 40 45  1  0
 44 45  1  0
M  END
