x0692-x0978
     RDKit          3D

 30 31  0  0  0  0  0  0  0  0999 V2000
    1.7520   -5.8760   23.3200 N   0  0  0  0  0  0  0  0  0  0  0  0
    2.0230   -8.4030   24.8500 C   0  0  0  0  0  0  0  0  0  0  0  0
    4.3160   -7.9250   24.5200 O   0  0  0  0  0  0  0  0  0  0  0  0
    3.1980   -7.4410   24.5350 C   0  0  1  0  0  0  0  0  0  0  0  0
    5.1060   -6.2900   22.2690 N   0  0  0  0  0  0  0  0  0  0  0  0
    0.5210   -7.3680   21.7130 O   0  0  0  0  0  0  0  0  0  0  0  0
    2.8770   -6.6760   23.2620 C   0  0  2  0  0  0  0  0  0  0  0  0
    4.0350   -4.5840   23.3290 O   0  0  0  0  0  0  0  0  0  0  0  0
    0.5510   -6.2110   22.5520 C   0  0  0  0  0  0  0  0  0  0  0  0
   -0.6200   -5.2300   22.7470 C   0  0  0  0  0  0  0  0  0  0  0  0
    4.0610   -5.7610   22.9520 C   0  0  0  0  0  0  0  0  0  0  0  0
    6.0790   -5.5850   21.6660 C   0  0  0  0  0  0  0  0  0  0  0  0
   10.9700    2.3410   23.7470 C   0  0  0  0  0  0  0  0  0  0  0  0
    5.3720   -3.9410   19.6280 O   0  0  0  0  0  0  0  0  0  0  0  0
    9.5930   -2.4430   23.6400 C   0  0  0  0  0  0  0  0  0  0  0  0
    6.3380   -3.1840   19.7910 C   0  0  0  0  0  0  0  0  0  0  0  0
    7.3430   -3.0010   18.6780 C   0  0  0  0  0  0  0  0  0  0  0  0
   11.3460    0.9140   23.5420 C   0  0  0  0  0  0  0  0  0  0  0  0
   10.3890   -0.0670   23.6920 C   0  0  0  0  0  0  0  0  0  0  0  0
   10.6870   -1.4250   23.4890 C   0  0  0  0  0  0  0  0  0  0  0  0
   11.9580   -1.8860   23.1380 C   0  0  0  0  0  0  0  0  0  0  0  0
   12.9600   -0.9410   22.9790 C   0  0  0  0  0  0  0  0  0  0  0  0
   12.6560    0.5340   23.1860 C   0  0  0  0  0  0  0  0  0  0  0  0
    6.5760   -2.5190   20.9960 N   0  0  0  0  0  0  0  0  0  0  0  0
    7.4250   -1.3520   20.9260 C   0  0  0  0  0  0  0  0  0  0  0  0
    8.7270   -1.4500   21.6970 C   0  0  0  0  0  0  0  0  0  0  0  0
    8.4620   -1.9090   23.0630 N   0  0  0  0  0  0  0  0  0  0  0  0
    7.4070   -2.7120   23.1960 C   0  0  0  0  0  0  0  0  0  0  0  0
    6.9960   -3.3060   22.0110 C   0  0  1  0  0  0  0  0  0  0  0  0
    6.0180   -4.2040   22.2960 C   0  0  0  0  0  0  0  0  0  0  0  0
  4  2  1  6
  3  4  1  0
  7  1  1  1
  4  7  1  0
  1  9  1  0
  6  9  2  0
  9 10  1  0
  5 11  1  0
  7 11  1  0
  8 11  2  0
  5 12  1  0
 14 16  2  0
 16 17  1  0
 13 18  1  0
 18 19  2  0
 15 20  1  0
 19 20  1  0
 20 21  2  0
 21 22  1  0
 18 23  1  0
 22 23  2  0
 16 24  1  0
 24 25  1  0
 25 26  1  0
 15 27  1  0
 26 27  1  0
 27 28  1  0
 24 29  1  0
 28 29  1  0
 12 30  1  0
 29 30  1  1
M  END
