x0691-x2649
     RDKit          3D

 40 43  0  0  0  0  0  0  0  0999 V2000
    4.0710   -6.7520   25.7720 O   0  0  0  0  0  0  0  0  0  0  0  0
    5.7610   -5.1130   26.6470 O   0  0  0  0  0  0  0  0  0  0  0  0
    5.4090   -4.8060   19.9990 O   0  0  0  0  0  0  0  0  0  0  0  0
    6.4190   -4.6800   20.7090 C   0  0  0  0  0  0  0  0  0  0  0  0
    7.4900   -3.6790   20.3750 C   0  0  0  0  0  0  0  0  0  0  0  0
    3.0980   -0.6190   26.1640 F   0  0  0  0  0  0  0  0  0  0  0  0
    4.7470   -5.4780   25.6860 S   0  0  0  0  0  0  0  0  0  0  0  0
    6.9020   -0.5500   20.8680 N   0  0  0  0  0  0  0  0  0  0  0  0
    7.7300   -1.1010   23.8880 C   0  0  0  0  0  0  0  0  0  0  0  0
    8.8410    1.1180   21.2580 O   0  0  0  0  0  0  0  0  0  0  0  0
   13.2650   -2.4240   21.1030 Cl  0  0  0  0  0  0  0  0  0  0  0  0
    8.6080   -1.0820   22.6660 C   0  0  1  0  0  0  0  0  0  0  0  0
    8.1380   -0.1160   21.5720 C   0  0  0  0  0  0  0  0  0  0  0  0
    4.7240    1.1710   21.5410 C   0  0  0  0  0  0  0  0  0  0  0  0
    6.1780   -3.1710   24.6500 C   0  0  0  0  0  0  0  0  0  0  0  0
    7.5130   -2.4160   24.5340 C   0  0  0  0  0  0  0  0  0  0  0  0
    2.8220   -1.9130   25.9610 C   0  0  0  0  0  0  0  0  0  0  0  0
    3.8220   -2.8820   25.9390 C   0  0  0  0  0  0  0  0  0  0  0  0
    3.4830   -4.2150   25.7190 C   0  0  0  0  0  0  0  0  0  0  0  0
    2.1510   -4.5660   25.5270 C   0  0  0  0  0  0  0  0  0  0  0  0
    1.1500   -3.6040   25.5520 C   0  0  0  0  0  0  0  0  0  0  0  0
    1.4840   -2.2690   25.7710 C   0  0  0  0  0  0  0  0  0  0  0  0
    6.6330   -5.4370   21.8280 N   0  0  0  0  0  0  0  0  0  0  0  0
    5.6520   -6.4520   22.1960 C   0  0  0  0  0  0  0  0  0  0  0  0
    4.7260   -5.8920   23.0950 C   0  0  0  0  0  0  0  0  0  0  0  0
    5.4140   -5.3580   24.1220 N   0  0  0  0  0  0  0  0  0  0  0  0
    6.0390   -4.2270   23.7080 C   0  0  2  0  0  0  0  0  0  0  0  0
    7.1920   -4.7200   22.9680 C   0  0  0  0  0  0  0  0  0  0  0  0
    6.2060    0.7230   17.5590 N   0  0  0  0  0  0  0  0  0  0  0  0
    5.1490    1.6010   17.7180 C   0  0  0  0  0  0  0  0  0  0  0  0
    4.6960    1.7100   19.0320 C   0  0  0  0  0  0  0  0  0  0  0  0
    5.2450    1.0170   20.1080 C   0  0  0  0  0  0  0  0  0  0  0  0
    6.2910    0.1700   19.8700 C   0  0  0  0  0  0  0  0  0  0  0  0
    6.7240    0.0630   18.5910 C   0  0  0  0  0  0  0  0  0  0  0  0
   10.5420    0.1840   23.7100 C   0  0  0  0  0  0  0  0  0  0  0  0
   11.8970    0.4770   23.8730 C   0  0  0  0  0  0  0  0  0  0  0  0
   12.8810   -0.3510   23.0360 C   0  0  0  0  0  0  0  0  0  0  0  0
   12.3260   -1.4450   22.0840 C   0  0  0  0  0  0  0  0  0  0  0  0
   10.8630   -1.6960   21.9700 C   0  0  0  0  0  0  0  0  0  0  0  0
   10.0520   -0.7860   22.8570 C   0  0  0  0  0  0  0  0  0  0  0  0
  3  4  2  0
  4  5  1  0
  1  7  2  0
  2  7  2  0
 12  9  1  1
  8 13  1  0
 10 13  2  0
 12 13  1  0
  9 16  1  0
 15 16  1  0
  6 17  1  0
 17 18  2  0
  7 19  1  0
 18 19  1  0
 19 20  2  0
 20 21  1  0
 17 22  1  0
 21 22  2  0
  4 23  1  0
 23 24  1  0
 24 25  1  0
  7 26  1  0
 25 26  1  0
 27 15  1  1
 26 27  1  0
 23 28  1  0
 27 28  1  0
 29 30  2  0
 30 31  1  0
 14 32  1  0
 31 32  2  0
  8 33  1  0
 32 33  1  0
 29 34  1  0
 33 34  2  0
 35 36  2  0
 36 37  1  0
 11 38  1  0
 37 38  2  0
 38 39  1  0
 12 40  1  0
 35 40  1  0
 39 40  2  0
M  END
