x0691-x0387
     RDKit          3D

 34 38  0  0  0  0  0  0  0  0999 V2000
    4.2470   -6.8370   25.7610 O   0  0  0  0  0  0  0  0  0  0  0  0
    6.1220   -5.1930   26.5260 N   0  0  0  0  0  0  0  0  0  0  0  0
    5.1940   -4.6490   19.9100 O   0  0  0  0  0  0  0  0  0  0  0  0
    6.2590   -4.4930   20.4810 C   0  0  0  0  0  0  0  0  0  0  0  0
    7.2050   -3.4240   19.9800 C   0  0  0  0  0  0  0  0  0  0  0  0
    3.0480   -0.4400   26.0140 F   0  0  0  0  0  0  0  0  0  0  0  0
    4.8070   -5.5250   25.5180 S   0  0  2  0  0  0  0  0  0  0  0  0
    9.0880   -4.4540   27.7440 O   0  0  0  0  0  0  0  0  0  0  0  0
    8.9110   -2.1780   23.9850 C   0  0  0  0  0  0  0  0  0  0  0  0
    7.0200   -4.0150   26.4120 C   0  0  1  0  0  0  0  0  0  0  0  0
    7.6790   -4.2480   27.7830 C   0  0  0  0  0  0  0  0  0  0  0  0
    2.8180   -1.7520   25.9030 C   0  0  0  0  0  0  0  0  0  0  0  0
    3.9480   -2.7680   25.7860 C   0  0  0  0  0  0  0  0  0  0  0  0
    3.5720   -4.2720   25.6610 C   0  0  0  0  0  0  0  0  0  0  0  0
    2.0370   -4.6300   25.6620 C   0  0  0  0  0  0  0  0  0  0  0  0
    1.1910   -3.5260   25.7800 C   0  0  0  0  0  0  0  0  0  0  0  0
    1.5230   -2.2000   25.8930 C   0  0  0  0  0  0  0  0  0  0  0  0
    6.5780   -5.2720   21.5580 N   0  0  0  0  0  0  0  0  0  0  0  0
    5.6800   -6.3940   21.9780 C   0  0  0  0  0  0  0  0  0  0  0  0
    4.6840   -5.9240   22.8340 C   0  0  0  0  0  0  0  0  0  0  0  0
    5.4860   -5.4350   23.9900 N   0  0  0  0  0  0  0  0  0  0  0  0
    6.2840   -4.3380   23.7310 C   0  0  0  0  0  0  0  0  0  0  0  0
    7.1540   -4.6110   22.6970 C   0  0  0  0  0  0  0  0  0  0  0  0
    9.2910   -4.8890   26.4590 C   0  0  1  0  0  0  0  0  0  0  0  0
    8.3480   -4.1630   25.6660 C   0  0  2  0  0  0  0  0  0  0  0  0
    9.0890   -2.9440   25.0840 C   0  0  1  0  0  0  0  0  0  0  0  0
   10.2600   -3.5830   24.5430 N   0  0  0  0  0  0  0  0  0  0  0  0
   11.1380   -3.6390   25.5070 C   0  0  0  0  0  0  0  0  0  0  0  0
   10.6480   -4.7920   26.0890 C   0  0  0  0  0  0  0  0  0  0  0  0
   11.3010   -1.3360   24.3420 C   0  0  0  0  0  0  0  0  0  0  0  0
   10.3500   -1.8310   23.4710 C   0  0  0  0  0  0  0  0  0  0  0  0
   10.8760   -1.9570   22.1970 C   0  0  0  0  0  0  0  0  0  0  0  0
   12.5270   -1.4650   22.0990 S   0  0  0  0  0  0  0  0  0  0  0  0
   12.5360   -1.0770   23.7620 C   0  0  0  0  0  0  0  0  0  0  0  0
  3  4  2  0
  4  5  1  0
  1  7  2  0
  2  7  2  0
 10  2  1  6
  8 11  1  0
 10 11  1  0
  6 12  1  0
 12 13  2  0
  7 14  1  6
 13 14  1  0
 14 15  2  0
 15 16  1  0
 12 17  1  0
 16 17  2  0
  4 18  1  0
 18 19  1  0
 19 20  1  0
  7 21  1  0
 20 21  1  0
 21 22  1  0
 18 23  1  0
 22 23  1  0
  8 24  1  0
 25 10  1  1
 24 25  1  0
 26  9  1  6
 25 26  1  0
 26 27  1  0
 27 28  1  0
 24 29  1  6
 28 29  1  0
  9 31  1  0
 30 31  1  0
 31 32  2  0
 32 33  1  0
 30 34  2  0
 33 34  1  0
M  END
