x0691-x0967
     RDKit          3D

 42 44  0  0  0  0  0  0  0  0999 V2000
    7.7230    4.9530   22.3770 C   0  0  0  0  0  0  0  0  0  0  0  0
    8.0850    2.5310   22.6630 N   0  0  0  0  0  0  0  0  0  0  0  0
    6.2510    3.5030   23.6840 O   0  0  0  0  0  0  0  0  0  0  0  0
    7.2580    3.5930   22.9840 C   0  0  0  0  0  0  0  0  0  0  0  0
    8.7300   -1.1180   22.7450 N   0  0  0  0  0  0  0  0  0  0  0  0
    5.6760    0.6060   17.1420 O   0  0  0  0  0  0  0  0  0  0  0  0
    7.7650    1.2730   23.0690 C   0  0  1  0  0  0  0  0  0  0  0  0
   10.0630    0.8750   21.9320 O   0  0  0  0  0  0  0  0  0  0  0  0
    6.3640    0.8920   22.6010 C   0  0  2  0  0  0  0  0  0  0  0  0
    8.9010    0.3260   22.5470 C   0  0  0  0  0  0  0  0  0  0  0  0
    9.7700   -2.0600   22.3010 C   0  0  0  0  0  0  0  0  0  0  0  0
   10.9960   -1.1670   22.0540 C   0  0  0  0  0  0  0  0  0  0  0  0
   12.0140   -1.7130   23.0660 C   0  0  0  0  0  0  0  0  0  0  0  0
   13.2610   -2.3470   24.3450 Br  0  0  0  0  0  0  0  0  0  0  0  0
    3.9240   -6.8310   25.7340 O   0  0  0  0  0  0  0  0  0  0  0  0
    5.6400   -5.2510   26.6750 O   0  0  0  0  0  0  0  0  0  0  0  0
    5.2370   -4.8130   19.9530 O   0  0  0  0  0  0  0  0  0  0  0  0
    6.2600   -4.4830   20.5210 C   0  0  0  0  0  0  0  0  0  0  0  0
    7.1430   -3.4430   19.8760 C   0  0  0  0  0  0  0  0  0  0  0  0
    3.3550   -0.6880   25.7540 O   0  0  0  0  0  0  0  0  0  0  0  0
    4.6020   -5.5530   25.7120 S   0  0  0  0  0  0  0  0  0  0  0  0
    5.6980   -0.2720   23.3660 C   0  0  0  0  0  0  0  0  0  0  0  0
    4.8340    0.2540   24.3310 C   0  0  0  0  0  0  0  0  0  0  0  0
    4.7540   -0.5600   25.4350 C   0  0  0  0  0  0  0  0  0  0  0  0
    6.2270    0.7550   21.1140 C   0  0  0  0  0  0  0  0  0  0  0  0
    6.9490   -0.1900   20.3750 C   0  0  0  0  0  0  0  0  0  0  0  0
    6.7730   -0.2590   19.0050 C   0  0  0  0  0  0  0  0  0  0  0  0
    5.8610    0.6510   18.4620 C   0  0  0  0  0  0  0  0  0  0  0  0
    5.0860    1.6580   19.2190 C   0  0  0  0  0  0  0  0  0  0  0  0
    5.3240    1.6450   20.5240 C   0  0  0  0  0  0  0  0  0  0  0  0
    2.8450   -1.9540   25.7710 C   0  0  0  0  0  0  0  0  0  0  0  0
    3.7990   -2.9870   25.7410 C   0  0  0  0  0  0  0  0  0  0  0  0
    3.4230   -4.3210   25.7510 C   0  0  0  0  0  0  0  0  0  0  0  0
    2.0800   -4.6710   25.7890 C   0  0  0  0  0  0  0  0  0  0  0  0
    1.1010   -3.6650   25.8220 C   0  0  0  0  0  0  0  0  0  0  0  0
    1.4800   -2.3010   25.8160 C   0  0  0  0  0  0  0  0  0  0  0  0
    6.5910   -5.0560   21.7240 N   0  0  0  0  0  0  0  0  0  0  0  0
    5.8810   -6.2990   22.0600 C   0  0  0  0  0  0  0  0  0  0  0  0
    4.8450   -6.0960   23.1890 C   0  0  0  0  0  0  0  0  0  0  0  0
    5.2640   -5.2930   24.1860 N   0  0  0  0  0  0  0  0  0  0  0  0
    6.6750   -4.8710   24.2190 C   0  0  0  0  0  0  0  0  0  0  0  0
    7.0250   -4.2340   22.8600 C   0  0  0  0  0  0  0  0  0  0  0  0
  1  4  1  0
  2  4  1  0
  3  4  2  0
  7  2  1  6
  7  9  1  0
  5 10  1  0
  7 10  1  0
  8 10  2  0
  5 11  1  0
 11 12  1  0
 12 13  3  0
 13 14  1  0
 17 18  2  0
 18 19  1  0
 15 21  2  0
 16 21  2  0
  9 22  1  1
 22 23  1  0
 20 24  1  0
 23 24  1  0
  9 25  1  0
 25 26  2  0
 26 27  1  0
  6 28  1  0
 27 28  2  0
 28 29  1  0
 25 30  1  0
 29 30  2  0
 20 31  1  0
 31 32  2  0
 21 33  1  0
 32 33  1  0
 33 34  2  0
 34 35  1  0
 31 36  1  0
 35 36  2  0
 18 37  1  0
 37 38  1  0
 38 39  1  0
 21 40  1  0
 39 40  1  0
 40 41  1  0
 37 42  1  0
 41 42  1  0
M  END
