x0691-x2540
     RDKit          3D

 45 48  0  0  0  0  0  0  0  0999 V2000
    7.4110   -1.0570   22.1800 N   0  0  0  0  0  0  0  0  0  0  0  0
    8.2370    2.0170   23.1990 N   0  0  0  0  0  0  0  0  0  0  0  0
    8.8330    1.7700   20.9950 O   0  0  0  0  0  0  0  0  0  0  0  0
    7.0150    0.3310   21.7720 C   0  0  1  0  0  0  0  0  0  0  0  0
    8.1320    1.4310   21.9410 C   0  0  0  0  0  0  0  0  0  0  0  0
    8.9800    3.0540   23.4310 C   0  0  0  0  0  0  0  0  0  0  0  0
    8.9370    3.4650   24.8960 C   0  0  0  0  0  0  0  0  0  0  0  0
    8.4120    4.2580   22.6100 C   0  0  0  0  0  0  0  0  0  0  0  0
   10.4280    2.8160   22.9590 C   0  0  0  0  0  0  0  0  0  0  0  0
   12.3230   -1.3870   23.2940 C   0  0  0  0  0  0  0  0  0  0  0  0
   12.8640   -1.7850   21.9110 C   0  0  0  0  0  0  0  0  0  0  0  0
   12.8010    0.0290   23.5790 C   0  0  0  0  0  0  0  0  0  0  0  0
   12.9170   -2.3100   24.3820 C   0  0  0  0  0  0  0  0  0  0  0  0
    4.1650   -6.8680   25.9110 O   0  0  0  0  0  0  0  0  0  0  0  0
    5.7420   -5.2110   26.9510 O   0  0  0  0  0  0  0  0  0  0  0  0
    5.6840   -5.4250   20.0000 O   0  0  0  0  0  0  0  0  0  0  0  0
    6.1890   -4.4420   20.4940 C   0  0  0  0  0  0  0  0  0  0  0  0
    6.9100   -3.4210   19.6340 C   0  0  0  0  0  0  0  0  0  0  0  0
    3.3080   -0.6480   26.0040 F   0  0  0  0  0  0  0  0  0  0  0  0
    4.8280   -5.5820   25.9040 S   0  0  0  0  0  0  0  0  0  0  0  0
    6.3660   -1.8750   22.9330 C   0  0  0  0  0  0  0  0  0  0  0  0
    5.6640   -2.6860   22.0450 C   0  0  0  0  0  0  0  0  0  0  0  0
    6.2930    0.1960   17.9280 N   0  0  0  0  0  0  0  0  0  0  0  0
    5.2400    1.0900   17.8740 C   0  0  0  0  0  0  0  0  0  0  0  0
    4.7540    1.7150   18.9950 C   0  0  0  0  0  0  0  0  0  0  0  0
    5.3770    1.4090   20.1810 C   0  0  0  0  0  0  0  0  0  0  0  0
    6.5090    0.4670   20.3200 C   0  0  0  0  0  0  0  0  0  0  0  0
    6.9430   -0.1240   19.2020 C   0  0  0  0  0  0  0  0  0  0  0  0
   10.0710   -1.6790   24.4260 O   0  0  0  0  0  0  0  0  0  0  0  0
    8.7000   -1.5960   24.1570 N   0  0  0  0  0  0  0  0  0  0  0  0
    8.6330   -1.2500   22.8570 C   0  0  0  0  0  0  0  0  0  0  0  0
    9.8830   -1.1140   22.3040 C   0  0  0  0  0  0  0  0  0  0  0  0
   10.7970   -1.3830   23.2950 C   0  0  0  0  0  0  0  0  0  0  0  0
    2.9000   -1.9200   25.9060 C   0  0  0  0  0  0  0  0  0  0  0  0
    3.8450   -2.9390   25.9340 C   0  0  0  0  0  0  0  0  0  0  0  0
    3.5770   -4.3270   25.8450 C   0  0  0  0  0  0  0  0  0  0  0  0
    2.0690   -4.6800   25.6950 C   0  0  0  0  0  0  0  0  0  0  0  0
    0.9750   -3.5730   25.6570 C   0  0  0  0  0  0  0  0  0  0  0  0
    1.5500   -2.1790   25.7800 C   0  0  0  0  0  0  0  0  0  0  0  0
    5.9930   -4.2300   21.9930 C   0  0  0  0  0  0  0  0  0  0  0  0
    4.8730   -5.0460   22.2540 C   0  0  0  0  0  0  0  0  0  0  0  0
    5.0460   -6.0310   23.2020 C   0  0  0  0  0  0  0  0  0  0  0  0
    5.6190   -5.4170   24.3960 N   0  0  0  0  0  0  0  0  0  0  0  0
    6.9320   -4.8310   24.2150 C   0  0  0  0  0  0  0  0  0  0  0  0
    7.1940   -4.6760   22.8520 C   0  0  0  0  0  0  0  0  0  0  0  0
  1  4  1  0
  2  5  1  0
  3  5  2  0
  4  5  1  6
  6  2  1  0
  6  7  1  0
  6  8  1  0
  6  9  1  0
 10 11  1  0
 10 12  1  0
 10 13  1  0
 16 17  2  0
 17 18  1  0
 14 20  2  0
 15 20  2  0
  1 21  1  0
 21 22  1  0
 23 24  2  0
 24 25  1  0
 25 26  2  0
  4 27  1  0
 26 27  1  0
 23 28  1  0
 27 28  2  0
 29 30  1  0
  1 31  1  0
 30 31  2  0
 31 32  1  0
 10 33  1  0
 29 33  1  0
 32 33  2  0
 19 34  1  0
 34 35  2  0
 20 36  1  0
 35 36  1  0
 36 37  2  0
 37 38  1  0
 34 39  1  0
 38 39  2  0
 40 17  1  0
 22 40  1  0
 40 41  1  0
 41 42  1  0
 20 43  1  0
 42 43  1  0
 43 44  1  0
 40 45  1  0
 44 45  1  0
M  END
