x0692-x1382
     RDKit          3D

 20 21  0  0  0  0  0  0  0  0999 V2000
   13.4660   -1.7800   21.5450 Cl  0  0  0  0  0  0  0  0  0  0  0  0
   11.0040    2.4430   23.8670 C   0  0  0  0  0  0  0  0  0  0  0  0
    9.8670   -1.0240   22.5920 C   0  0  0  0  0  0  0  0  0  0  0  0
   10.9110   -1.9480   21.9650 C   0  0  0  0  0  0  0  0  0  0  0  0
   12.1280   -1.0420   22.1610 C   0  0  0  0  0  0  0  0  0  0  0  0
   12.3250    0.3650   22.7620 C   0  0  0  0  0  0  0  0  0  0  0  0
   11.1320    1.0760   23.2840 C   0  0  0  0  0  0  0  0  0  0  0  0
    9.8670    0.3200   23.1980 C   0  0  0  0  0  0  0  0  0  0  0  0
    7.1550   -0.7080   23.8280 C   0  0  0  0  0  0  0  0  0  0  0  0
    7.0960   -0.6820   20.2620 O   0  0  0  0  0  0  0  0  0  0  0  0
    7.4350   -2.8050   19.3100 C   0  0  0  0  0  0  0  0  0  0  0  0
    5.5480   -4.2650   19.7860 O   0  0  0  0  0  0  0  0  0  0  0  0
    6.0160   -3.3230   19.1390 C   0  0  0  0  0  0  0  0  0  0  0  0
    6.0610   -2.3260   21.2410 N   0  0  0  0  0  0  0  0  0  0  0  0
    7.3550   -1.9340   20.7120 C   0  0  2  0  0  0  0  0  0  0  0  0
    8.2860   -1.6370   21.7550 C   0  0  1  0  0  0  0  0  0  0  0  0
    7.6340   -1.8510   22.9820 N   0  0  0  0  0  0  0  0  0  0  0  0
    7.0460   -3.1810   23.1950 C   0  0  0  0  0  0  0  0  0  0  0  0
    6.0930   -3.4510   22.2040 C   0  0  0  0  0  0  0  0  0  0  0  0
    9.5470   -2.5680   21.9250 C   0  0  0  0  0  0  0  0  0  0  0  0
  3  4  2  0
  1  5  1  0
  4  5  1  0
  5  6  2  0
  2  7  1  0
  6  7  1  0
  3  8  1  0
  7  8  2  0
 11 13  1  0
 12 13  2  0
 15 10  1  6
 11 15  1  0
 14 15  1  0
 15 16  1  0
  9 17  1  0
 16 17  1  0
 17 18  1  0
 14 19  1  0
 18 19  1  0
  4 20  1  0
 16 20  1  6
M  END
