x0691-x0755
     RDKit          3D

 20 21  0  0  0  0  0  0  0  0999 V2000
    4.5160   -6.3950   26.2280 O   0  0  0  0  0  0  0  0  0  0  0  0
    6.2780   -4.6950   26.7760 O   0  0  0  0  0  0  0  0  0  0  0  0
    5.5930   -4.4900   19.9280 O   0  0  0  0  0  0  0  0  0  0  0  0
    6.5880   -4.4950   20.6680 C   0  0  0  0  0  0  0  0  0  0  0  0
    7.8250   -3.6680   20.3700 C   0  0  0  0  0  0  0  0  0  0  0  0
    2.0820   -5.5700   25.7100 F   0  0  0  0  0  0  0  0  0  0  0  0
    5.6280   -2.0510   26.1080 F   0  0  0  0  0  0  0  0  0  0  0  0
    5.1850   -5.1480   25.9510 S   0  0  0  0  0  0  0  0  0  0  0  0
    2.4960   -4.3000   25.7960 C   0  0  0  0  0  0  0  0  0  0  0  0
    3.9350   -3.9220   25.9120 C   0  0  0  0  0  0  0  0  0  0  0  0
    4.3500   -2.4200   26.0080 C   0  0  0  0  0  0  0  0  0  0  0  0
    3.2570   -1.3000   25.9890 C   0  0  0  0  0  0  0  0  0  0  0  0
    1.7570   -1.7390   25.8720 C   0  0  0  0  0  0  0  0  0  0  0  0
    1.5020   -3.2420   25.7810 C   0  0  0  0  0  0  0  0  0  0  0  0
    6.6050   -5.2700   21.8010 N   0  0  0  0  0  0  0  0  0  0  0  0
    7.4630   -4.9750   22.9650 C   0  0  0  0  0  0  0  0  0  0  0  0
    6.7240   -4.3620   24.0020 C   0  0  0  0  0  0  0  0  0  0  0  0
    5.8160   -5.2460   24.4000 N   0  0  0  0  0  0  0  0  0  0  0  0
    4.9130   -5.7470   23.3740 C   0  0  0  0  0  0  0  0  0  0  0  0
    5.4460   -5.9950   22.1330 C   0  0  0  0  0  0  0  0  0  0  0  0
  3  4  2  0
  4  5  1  0
  1  8  2  0
  2  8  2  0
  6  9  1  0
  8 10  1  0
  9 10  2  0
  7 11  1  0
 10 11  1  0
 11 12  2  0
 12 13  1  0
  9 14  1  0
 13 14  2  0
  4 15  1  0
 15 16  1  0
 16 17  1  0
  8 18  1  0
 17 18  1  0
 18 19  1  0
 15 20  1  0
 19 20  1  0
M  END
