x0692-x2608
     RDKit          3D

 27 30  0  0  0  0  0  0  0  0999 V2000
   10.4470    2.2910   23.9860 C   0  0  0  0  0  0  0  0  0  0  0  0
    5.3760   -4.2560   19.7940 O   0  0  0  0  0  0  0  0  0  0  0  0
    9.3390   -2.4840   23.6780 C   0  0  0  0  0  0  0  0  0  0  0  0
    6.1430   -3.2770   19.8980 C   0  0  0  0  0  0  0  0  0  0  0  0
    7.1340   -3.0520   18.7310 C   0  0  0  0  0  0  0  0  0  0  0  0
    7.8090    0.8670   22.1650 O   0  0  0  0  0  0  0  0  0  0  0  0
    7.7830   -0.2570   21.6840 C   0  0  0  0  0  0  0  0  0  0  0  0
   13.0510    1.8640   22.8280 C   0  0  0  0  0  0  0  0  0  0  0  0
   10.9000    0.9210   23.6090 C   0  0  0  0  0  0  0  0  0  0  0  0
   10.0630   -0.1760   23.7830 C   0  0  0  0  0  0  0  0  0  0  0  0
   10.3930   -1.4790   23.4450 C   0  0  0  0  0  0  0  0  0  0  0  0
   11.6430   -1.7130   22.9190 C   0  0  0  0  0  0  0  0  0  0  0  0
   12.5920   -0.5500   22.7110 C   0  0  0  0  0  0  0  0  0  0  0  0
   12.1450    0.7220   23.0670 C   0  0  0  0  0  0  0  0  0  0  0  0
    6.1670   -2.3840   21.0090 N   0  0  0  0  0  0  0  0  0  0  0  0
    7.1840   -1.3310   20.7640 C   0  0  2  0  0  0  0  0  0  0  0  0
    8.2920   -1.6280   21.5090 C   0  0  2  0  0  0  0  0  0  0  0  0
    8.2280   -2.5700   22.7030 N   0  0  0  0  0  0  0  0  0  0  0  0
    7.1360   -3.5430   22.7350 C   0  0  0  0  0  0  0  0  0  0  0  0
    6.0530   -2.7970   22.3100 C   0  0  0  0  0  0  0  0  0  0  0  0
    5.9070    1.1410   17.8660 N   0  0  0  0  0  0  0  0  0  0  0  0
    6.6700   -0.0090   18.4740 C   0  0  0  0  0  0  0  0  0  0  0  0
    5.8830   -0.2450   19.6290 C   0  0  0  0  0  0  0  0  0  0  0  0
    4.7390    0.3850   20.0840 C   0  0  0  0  0  0  0  0  0  0  0  0
    4.1460    1.4090   19.4350 C   0  0  0  0  0  0  0  0  0  0  0  0
    4.7990    1.7570   18.2890 C   0  0  0  0  0  0  0  0  0  0  0  0
    7.2650   -1.1620   19.2620 C   0  0  0  0  0  0  0  0  0  0  0  0
  2  4  2  0
  4  5  1  0
  6  7  2  0
  1  9  1  0
  9 10  2  0
  3 11  1  0
 10 11  1  0
 11 12  2  0
 12 13  1  0
  8 14  1  0
  9 14  1  0
 13 14  2  0
  4 15  1  0
  7 16  1  0
 15 16  1  0
 17  7  1  1
 16 17  1  0
  3 18  1  0
 17 18  1  0
 18 19  1  0
 15 20  1  0
 19 20  1  0
 21 22  2  0
 22 23  1  0
 23 24  2  0
 24 25  1  0
 21 26  1  0
 25 26  2  0
 16 27  1  6
 22 27  1  0
M  END
