x0692-x0734-x2694
     RDKit          3D

 47 51  0  0  0  0  0  0  0  0999 V2000
    7.7720    2.2950   22.5870 N   0  0  0  0  0  0  0  0  0  0  0  0
    9.2330    1.3590   21.1860 O   0  0  0  0  0  0  0  0  0  0  0  0
   10.9410    6.7430   23.9330 O   0  0  0  0  0  0  0  0  0  0  0  0
    7.1660    0.1560   21.4910 C   0  0  1  0  0  0  0  0  0  0  0  0
    8.1630    1.2820   21.7390 C   0  0  0  0  0  0  0  0  0  0  0  0
   10.4020    1.8880   23.9560 C   0  0  0  0  0  0  0  0  0  0  0  0
   11.8530    6.6520   24.7610 C   0  0  0  0  0  0  0  0  0  0  0  0
   12.3470   -1.3000   23.1100 C   0  0  0  0  0  0  0  0  0  0  0  0
   12.7860    0.1230   23.3480 C   0  0  0  0  0  0  0  0  0  0  0  0
   13.0300   -1.7440   21.8090 C   0  0  0  0  0  0  0  0  0  0  0  0
   12.8550   -2.1620   24.3000 C   0  0  0  0  0  0  0  0  0  0  0  0
    5.6170   -3.9480   19.7320 O   0  0  0  0  0  0  0  0  0  0  0  0
    8.6960   -2.1310   24.5900 C   0  0  0  0  0  0  0  0  0  0  0  0
    6.5280   -3.0750   19.8530 C   0  0  0  0  0  0  0  0  0  0  0  0
    7.4650   -2.9400   18.6890 C   0  0  0  0  0  0  0  0  0  0  0  0
    6.2490    0.5460   17.7240 N   0  0  0  0  0  0  0  0  0  0  0  0
    5.1100    1.4480   17.8000 C   0  0  0  0  0  0  0  0  0  0  0  0
    4.5830    1.9340   18.9780 C   0  0  0  0  0  0  0  0  0  0  0  0
    5.1780    1.5670   20.3160 C   0  0  0  0  0  0  0  0  0  0  0  0
    6.3920    0.6310   20.2930 C   0  0  0  0  0  0  0  0  0  0  0  0
    6.9270    0.1020   18.9140 C   0  0  0  0  0  0  0  0  0  0  0  0
    8.7100   -1.3160   23.5000 N   0  0  0  0  0  0  0  0  0  0  0  0
   10.0190   -0.7340   23.8300 O   0  0  0  0  0  0  0  0  0  0  0  0
   10.8780   -1.4000   22.9230 C   0  0  0  0  0  0  0  0  0  0  0  0
   10.1160   -2.0380   22.0040 C   0  0  0  0  0  0  0  0  0  0  0  0
    8.7570   -1.9110   22.2150 C   0  0  2  0  0  0  0  0  0  0  0  0
    9.8070    3.2390   23.5620 C   0  0  0  0  0  0  0  0  0  0  0  0
   10.6100    4.3170   23.8970 C   0  0  0  0  0  0  0  0  0  0  0  0
   10.2220    5.6180   23.6240 C   0  0  0  0  0  0  0  0  0  0  0  0
    8.9900    5.8200   22.9820 C   0  0  0  0  0  0  0  0  0  0  0  0
    8.1970    4.7190   22.6450 C   0  0  0  0  0  0  0  0  0  0  0  0
    8.5680    3.4130   22.9210 C   0  0  0  0  0  0  0  0  0  0  0  0
    6.7350   -2.2600   21.0120 N   0  0  0  0  0  0  0  0  0  0  0  0
    7.7790   -1.4040   21.3150 C   0  0  1  0  0  0  0  0  0  0  0  0
    8.2010   -3.0900   22.5320 N   0  0  0  0  0  0  0  0  0  0  0  0
    7.0230   -3.1850   23.0650 C   0  0  0  0  0  0  0  0  0  0  0  0
    6.0610   -2.6420   22.1420 C   0  0  0  0  0  0  0  0  0  0  0  0
    5.0200   -5.0900   26.3540 N   0  0  0  0  0  0  0  0  0  0  0  0
    4.5210   -5.8540   25.5170 O   0  0  0  0  0  0  0  0  0  0  0  0
    4.4500   -4.0610   26.7460 O   0  0  0  0  0  0  0  0  0  0  0  0
    6.4820   -5.0980   26.4750 C   0  0  0  0  0  0  0  0  0  0  0  0
    7.2380   -4.4310   25.5460 C   0  0  0  0  0  0  0  0  0  0  0  0
    8.6170   -4.3600   25.5670 C   0  0  0  0  0  0  0  0  0  0  0  0
    9.4140   -4.9550   26.5160 C   0  0  0  0  0  0  0  0  0  0  0  0
    8.7540   -5.7380   27.6290 C   0  0  0  0  0  0  0  0  0  0  0  0
    7.2150   -5.8210   27.6210 C   0  0  0  0  0  0  0  0  0  0  0  0
    9.3880   -3.5620   24.5140 C   0  0  0  0  0  0  0  0  0  0  0  0
  1  5  1  0
  2  5  2  0
  4  5  1  6
  3  7  1  0
  8  9  1  0
  8 10  1  0
  8 11  1  0
 12 14  2  0
 14 15  1  0
 16 17  2  0
 17 18  1  0
 18 19  2  0
  4 20  1  0
 19 20  1  0
 16 21  1  0
 20 21  2  0
 13 22  1  0
 22 23  1  0
  8 24  1  0
 23 24  1  0
 24 25  2  0
 22 26  1  0
 26 25  1  6
  6 27  1  0
 27 28  2  0
  3 29  1  0
 28 29  1  0
 29 30  2  0
 30 31  1  0
  1 32  1  0
 27 32  1  0
 31 32  2  0
 14 33  1  0
  4 34  1  0
 26 34  1  0
 34 33  1  1
 26 35  1  0
 35 36  1  0
 33 37  1  0
 36 37  1  0
 38 39  2  0
 38 40  1  0
 38 41  1  0
 41 42  2  0
 42 43  1  0
 43 44  2  0
 44 45  1  0
 41 46  1  0
 45 46  2  0
 13 47  1  0
 43 47  1  0
M  CHG  2  38   1  40  -1
M  END
