x0691-x0752
     RDKit          3D

 20 21  0  0  0  0  0  0  0  0999 V2000
    3.9520   -6.9610   26.0350 O   0  0  0  0  0  0  0  0  0  0  0  0
    5.6410   -5.3430   26.9950 O   0  0  0  0  0  0  0  0  0  0  0  0
    5.7550   -3.7080   19.3410 O   0  0  0  0  0  0  0  0  0  0  0  0
    6.2290   -4.4010   20.2350 C   0  0  0  0  0  0  0  0  0  0  0  0
    7.4500   -3.5340   19.9890 C   0  0  0  0  0  0  0  0  0  0  0  0
    3.2680   -0.5060   25.9840 F   0  0  0  0  0  0  0  0  0  0  0  0
    4.6440   -5.6970   26.0130 S   0  0  0  0  0  0  0  0  0  0  0  0
    7.0700   -4.9380   21.1700 N   0  0  0  0  0  0  0  0  0  0  0  0
    2.8990   -1.7920   25.9320 C   0  0  0  0  0  0  0  0  0  0  0  0
    3.8480   -2.9270   25.9870 C   0  0  0  0  0  0  0  0  0  0  0  0
    3.4280   -4.4210   25.9320 C   0  0  0  0  0  0  0  0  0  0  0  0
    1.9070   -4.7410   25.8030 C   0  0  0  0  0  0  0  0  0  0  0  0
    0.8910   -3.5450   25.7440 C   0  0  0  0  0  0  0  0  0  0  0  0
    1.4910   -2.1320   25.8190 C   0  0  0  0  0  0  0  0  0  0  0  0
    6.4050   -5.0790   22.3630 N   0  0  0  0  0  0  0  0  0  0  0  0
    5.6730   -6.3370   22.4540 C   0  0  0  0  0  0  0  0  0  0  0  0
    4.6240   -6.0480   23.3220 C   0  0  0  0  0  0  0  0  0  0  0  0
    5.3600   -5.5300   24.5050 N   0  0  0  0  0  0  0  0  0  0  0  0
    6.2420   -4.5630   24.3380 C   0  0  0  0  0  0  0  0  0  0  0  0
    7.2880   -4.9520   23.5340 C   0  0  0  0  0  0  0  0  0  0  0  0
  3  4  2  0
  4  5  1  0
  1  7  2  0
  2  7  2  0
  4  8  1  0
  6  9  1  0
  9 10  2  0
  7 11  1  0
 10 11  1  0
 11 12  2  0
 12 13  1  0
  9 14  1  0
 13 14  2  0
  8 15  1  0
 15 16  1  0
 16 17  1  0
  7 18  1  0
 17 18  1  0
 18 19  1  0
 15 20  1  0
 19 20  1  0
M  END
