x0691-x0395
     RDKit          3D

 35 38  0  0  0  0  0  0  0  0999 V2000
    3.1070   -6.6560   25.3000 O   0  0  0  0  0  0  0  0  0  0  0  0
    4.9090   -5.4250   26.6400 N   0  0  0  0  0  0  0  0  0  0  0  0
    5.1200   -4.5490   19.8500 O   0  0  0  0  0  0  0  0  0  0  0  0
    6.1260   -4.3010   20.4720 C   0  0  0  0  0  0  0  0  0  0  0  0
    7.2080   -3.3930   19.8610 C   0  0  0  0  0  0  0  0  0  0  0  0
    2.9240   -0.2090   26.2020 F   0  0  0  0  0  0  0  0  0  0  0  0
    3.8610   -5.4290   25.3440 S   0  0  2  0  0  0  0  0  0  0  0  0
    7.7360   -5.5090   24.0560 C   0  0  0  0  0  0  0  0  0  0  0  0
    9.5860   -0.5760   23.1690 C   0  0  0  0  0  0  0  0  0  0  0  0
   13.5920   -1.9480   20.7880 F   0  0  0  0  0  0  0  0  0  0  0  0
    6.1490   -6.1330   26.3110 C   0  0  0  0  0  0  0  0  0  0  0  0
    6.3970   -5.6130   24.8570 C   0  0  0  0  0  0  0  0  0  0  0  0
    2.4950   -1.4620   26.0020 C   0  0  0  0  0  0  0  0  0  0  0  0
    3.4770   -2.6180   25.7930 C   0  0  0  0  0  0  0  0  0  0  0  0
    2.8540   -4.0260   25.5730 C   0  0  0  0  0  0  0  0  0  0  0  0
    1.4610   -4.0670   25.5880 C   0  0  0  0  0  0  0  0  0  0  0  0
    0.5850   -3.0100   25.7780 C   0  0  0  0  0  0  0  0  0  0  0  0
    0.9950   -1.7060   25.9910 C   0  0  0  0  0  0  0  0  0  0  0  0
    6.2130   -4.8290   21.7330 N   0  0  0  0  0  0  0  0  0  0  0  0
    5.6630   -6.1670   21.9600 C   0  0  0  0  0  0  0  0  0  0  0  0
    4.5180   -6.1230   22.7820 C   0  0  0  0  0  0  0  0  0  0  0  0
    4.7690   -5.2130   23.9080 N   0  0  0  0  0  0  0  0  0  0  0  0
    4.9880   -3.9130   23.4880 C   0  0  0  0  0  0  0  0  0  0  0  0
    6.2120   -3.8700   22.8140 C   0  0  0  0  0  0  0  0  0  0  0  0
    8.1190   -4.0160   23.9580 C   0  0  0  0  0  0  0  0  0  0  0  0
    7.4580   -3.1210   24.7460 N   0  0  0  0  0  0  0  0  0  0  0  0
    7.8380   -1.9280   24.5900 N   0  0  0  0  0  0  0  0  0  0  0  0
    8.9000   -1.8380   23.5930 C   0  0  0  0  0  0  0  0  0  0  0  0
    9.3200   -3.3600   22.9330 S   0  0  0  0  0  0  0  0  0  0  0  0
   11.0520   -0.6890   23.6500 C   0  0  2  0  0  0  0  0  0  0  0  0
   12.1180    0.1910   23.3010 C   0  0  0  0  0  0  0  0  0  0  0  0
   13.0240   -0.3240   22.3830 C   0  0  0  0  0  0  0  0  0  0  0  0
   12.7390   -1.4550   21.6760 C   0  0  0  0  0  0  0  0  0  0  0  0
   11.5380   -2.0220   21.9340 C   0  0  0  0  0  0  0  0  0  0  0  0
   11.4270   -1.9150   23.3770 N   0  0  0  0  0  0  0  0  0  0  0  0
  3  4  2  0
  4  5  1  0
  1  7  2  0
  2  7  2  0
  2 11  1  0
  8 12  1  0
 11 12  1  0
  6 13  1  0
 13 14  2  0
  7 15  1  1
 14 15  1  0
 15 16  2  0
 16 17  1  0
 13 18  1  0
 17 18  2  0
  4 19  1  0
 19 20  1  0
 20 21  1  0
  7 22  1  0
 21 22  1  0
 22 23  1  0
 19 24  1  0
 23 24  1  0
  8 25  1  0
 25 26  2  0
 26 27  1  0
  9 28  1  0
 27 28  2  0
 25 29  1  0
 28 29  1  0
 30  9  1  6
 30 31  1  0
 31 32  1  0
 10 33  1  0
 32 33  2  0
 33 34  1  0
 30 35  1  0
 34 35  1  0
M  END
