x0692-x1336
     RDKit          3D

 28 30  0  0  0  0  0  0  0  0999 V2000
    5.7440   -5.3850   29.2310 C   0  0  0  0  0  0  0  0  0  0  0  0
    8.6680   -1.0270   25.1520 N   0  0  0  0  0  0  0  0  0  0  0  0
    6.4150   -0.9850   25.8570 O   0  0  0  0  0  0  0  0  0  0  0  0
    5.3690   -4.1230   19.7260 O   0  0  0  0  0  0  0  0  0  0  0  0
   10.0880   -3.9020   25.2280 C   0  0  0  0  0  0  0  0  0  0  0  0
    6.4370   -3.5660   19.9880 C   0  0  0  0  0  0  0  0  0  0  0  0
    7.3380   -3.0780   18.8820 C   0  0  0  0  0  0  0  0  0  0  0  0
    7.2960   -1.9760   25.2910 S   0  0  2  0  0  0  0  0  0  0  0  0
    6.7930   -5.0060   28.2370 C   0  0  0  0  0  0  0  0  0  0  0  0
    6.5990   -3.8150   27.3330 C   0  0  0  0  0  0  0  0  0  0  0  0
    7.6470   -3.3920   26.3010 C   0  0  0  0  0  0  0  0  0  0  0  0
    8.9680   -4.2170   26.1870 C   0  0  0  0  0  0  0  0  0  0  0  0
    9.1110   -5.4080   27.1150 C   0  0  0  0  0  0  0  0  0  0  0  0
    8.0440   -5.8200   28.1380 C   0  0  0  0  0  0  0  0  0  0  0  0
    6.8950   -3.4130   21.2810 N   0  0  0  0  0  0  0  0  0  0  0  0
    6.4890   -4.2600   22.3920 C   0  0  0  0  0  0  0  0  0  0  0  0
    5.9500   -3.4370   23.3500 C   0  0  0  0  0  0  0  0  0  0  0  0
    6.8900   -2.3670   23.6930 N   0  0  0  0  0  0  0  0  0  0  0  0
    7.4250   -1.5860   22.5770 C   0  0  0  0  0  0  0  0  0  0  0  0
    7.9450   -2.4440   21.6090 C   0  0  0  0  0  0  0  0  0  0  0  0
   11.4840    2.6650   23.4280 C   0  0  0  0  0  0  0  0  0  0  0  0
   11.6390    1.2880   23.4850 C   0  0  0  0  0  0  0  0  0  0  0  0
   10.5750    0.4340   24.1070 C   0  0  0  0  0  0  0  0  0  0  0  0
   10.7030   -1.0660   24.1750 C   0  0  0  0  0  0  0  0  0  0  0  0
   11.9600   -1.6850   23.5790 C   0  0  0  0  0  0  0  0  0  0  0  0
   12.9600   -0.7080   22.9850 C   0  0  0  0  0  0  0  0  0  0  0  0
   12.7820    0.6780   22.9610 C   0  0  0  0  0  0  0  0  0  0  0  0
    9.7410   -1.8100   24.7420 C   0  0  0  0  0  0  0  0  0  0  0  0
  4  6  2  0
  6  7  1  0
  2  8  2  0
  3  8  2  0
  1  9  1  0
  9 10  2  0
  8 11  1  1
 10 11  1  0
  5 12  1  0
 11 12  2  0
 12 13  1  0
  9 14  1  0
 13 14  2  0
  6 15  1  0
 15 16  1  0
 16 17  1  0
  8 18  1  0
 17 18  1  0
 18 19  1  0
 15 20  1  0
 19 20  1  0
 21 22  1  0
 22 23  2  0
 23 24  1  0
 24 25  2  0
 25 26  1  0
 22 27  1  0
 26 27  2  0
  2 28  1  0
 24 28  1  0
M  END
