x0692-x0072
     RDKit          3D

 23 25  0  0  0  0  0  0  0  0999 V2000
   10.6380    2.4740   24.0090 C   0  0  0  0  0  0  0  0  0  0  0  0
    5.3340   -4.2530   19.7660 O   0  0  0  0  0  0  0  0  0  0  0  0
    9.8000   -2.5990   23.6260 C   0  0  1  0  0  0  0  0  0  0  0  0
    6.1080   -3.3130   19.9300 C   0  0  0  0  0  0  0  0  0  0  0  0
    7.1180   -2.9810   18.8220 C   0  0  0  0  0  0  0  0  0  0  0  0
    6.7510   -4.7500   25.4240 C   0  0  0  0  0  0  0  0  0  0  0  0
    8.3160   -3.9280   25.5990 S   0  0  0  0  0  0  0  0  0  0  0  0
    9.2920   -4.9930   25.6300 O   0  0  0  0  0  0  0  0  0  0  0  0
    8.2250   -3.1810   26.8330 O   0  0  0  0  0  0  0  0  0  0  0  0
    8.6120   -2.7800   24.3240 N   0  0  0  0  0  0  0  0  0  0  0  0
    9.4440   -2.3930   22.1640 C   0  0  0  0  0  0  0  0  0  0  0  0
   11.2250    1.1190   23.6360 C   0  0  0  0  0  0  0  0  0  0  0  0
   10.2380   -0.0250   23.8670 C   0  0  0  0  0  0  0  0  0  0  0  0
   10.6560   -1.4320   23.5020 C   0  0  0  0  0  0  0  0  0  0  0  0
   12.0980   -1.4850   22.9260 C   0  0  0  0  0  0  0  0  0  0  0  0
   12.8980   -0.3590   22.7870 C   0  0  0  0  0  0  0  0  0  0  0  0
   12.5050    0.9160   23.1220 C   0  0  0  0  0  0  0  0  0  0  0  0
    6.0780   -2.5730   21.1190 N   0  0  0  0  0  0  0  0  0  0  0  0
    7.2470   -1.7110   21.2950 C   0  0  0  0  0  0  0  0  0  0  0  0
    8.1470   -2.4800   22.0110 C   0  0  2  0  0  0  0  0  0  0  0  0
    7.5650   -2.5280   23.3670 N   0  0  0  0  0  0  0  0  0  0  0  0
    6.5100   -3.3330   23.3780 C   0  0  0  0  0  0  0  0  0  0  0  0
    5.5300   -3.1080   22.3820 C   0  0  0  0  0  0  0  0  0  0  0  0
  2  4  2  0
  4  5  1  0
  7  6  1  0
  7  8  2  0
  7  9  2  0
  3 10  1  0
  7 10  1  0
  3 11  1  0
  1 12  1  0
 12 13  2  0
  3 14  1  1
 13 14  1  0
 14 15  2  0
 15 16  1  0
 12 17  1  0
 16 17  2  0
  4 18  1  0
 18 19  1  0
 20 11  1  1
 19 20  1  0
 10 21  1  0
 20 21  1  0
 21 22  1  0
 18 23  1  0
 22 23  1  0
M  END
