x0691-x1380
     RDKit          3D

 27 29  0  0  0  0  0  0  0  0999 V2000
    3.8020   -6.8350   25.6630 O   0  0  0  0  0  0  0  0  0  0  0  0
    5.5520   -5.3260   26.5940 O   0  0  0  0  0  0  0  0  0  0  0  0
    5.4060   -4.3550   19.8500 O   0  0  0  0  0  0  0  0  0  0  0  0
    6.3980   -4.3850   20.5790 C   0  0  0  0  0  0  0  0  0  0  0  0
    7.6350   -3.5540   20.2840 C   0  0  0  0  0  0  0  0  0  0  0  0
    3.0660   -0.6340   25.4610 F   0  0  0  0  0  0  0  0  0  0  0  0
    4.5100   -5.5750   25.6400 S   0  0  0  0  0  0  0  0  0  0  0  0
    4.9230   -2.4860   25.1590 N   0  0  0  0  0  0  0  0  0  0  0  0
    6.1320   -2.8060   25.7660 C   0  0  0  0  0  0  0  0  0  0  0  0
    2.7140   -1.9090   25.6730 C   0  0  0  0  0  0  0  0  0  0  0  0
    3.6810   -2.9170   25.5350 C   0  0  0  0  0  0  0  0  0  0  0  0
    3.3250   -4.2550   25.7720 C   0  0  0  0  0  0  0  0  0  0  0  0
    2.0140   -4.5520   26.1180 C   0  0  0  0  0  0  0  0  0  0  0  0
    1.0420   -3.5630   26.2450 C   0  0  0  0  0  0  0  0  0  0  0  0
    1.3940   -2.2310   26.0270 C   0  0  0  0  0  0  0  0  0  0  0  0
    6.4840   -5.1600   21.7390 N   0  0  0  0  0  0  0  0  0  0  0  0
    5.7000   -6.3810   21.9450 C   0  0  0  0  0  0  0  0  0  0  0  0
    4.6720   -6.2260   22.9860 C   0  0  0  0  0  0  0  0  0  0  0  0
    5.1780   -5.3720   24.0770 N   0  0  0  0  0  0  0  0  0  0  0  0
    6.4870   -5.0960   24.0280 C   0  0  0  0  0  0  0  0  0  0  0  0
    6.9890   -4.4970   22.9610 C   0  0  0  0  0  0  0  0  0  0  0  0
    7.9120   -3.9850   27.0110 C   0  0  0  0  0  0  0  0  0  0  0  0
    7.8780   -5.2800   27.3660 C   0  0  0  0  0  0  0  0  0  0  0  0
    7.3270   -5.3840   28.6220 C   0  0  0  0  0  0  0  0  0  0  0  0
    6.0580   -4.8400   28.8110 C   0  0  0  0  0  0  0  0  0  0  0  0
    5.7410   -3.5450   28.0560 C   0  0  0  0  0  0  0  0  0  0  0  0
    6.5330   -3.5640   26.8290 N   0  0  0  0  0  0  0  0  0  0  0  0
  3  4  2  0
  4  5  1  0
  1  7  2  0
  2  7  2  0
  8  9  2  3
  6 10  1  0
  8 11  1  0
 10 11  2  0
  7 12  1  0
 11 12  1  0
 12 13  2  0
 13 14  1  0
 10 15  1  0
 14 15  2  0
  4 16  1  0
 16 17  1  0
 17 18  1  0
  7 19  1  0
 18 19  1  0
 19 20  1  0
 16 21  1  0
 20 21  1  0
 22 23  1  0
 23 24  1  0
 24 25  1  0
 25 26  1  0
  9 27  1  0
 22 27  1  0
 26 27  1  0
M  END
