x0692-x2912
     RDKit          3D

 30 33  0  0  0  0  0  0  0  0999 V2000
    8.3840   -1.8190   23.9960 C   0  0  0  0  0  0  0  0  0  0  0  0
    7.2610    0.9320   22.3890 O   0  0  0  0  0  0  0  0  0  0  0  0
    8.8770   -0.9690   22.9260 C   0  0  1  0  0  0  0  0  0  0  0  0
    7.7130   -0.3840   22.1730 C   0  0  0  0  0  0  0  0  0  0  0  0
   13.8350   -1.4370   20.5310 N   0  0  0  0  0  0  0  0  0  0  0  0
   13.1990   -2.1480   21.6360 C   0  0  0  0  0  0  0  0  0  0  0  0
    9.7380    1.7320   24.3030 C   0  0  0  0  0  0  0  0  0  0  0  0
    5.4120   -4.1860   19.8000 O   0  0  0  0  0  0  0  0  0  0  0  0
    6.1500   -3.1750   19.9130 C   0  0  0  0  0  0  0  0  0  0  0  0
    7.1740   -2.9840   18.7480 C   0  0  0  0  0  0  0  0  0  0  0  0
   10.6680    0.7280   23.6150 C   0  0  0  0  0  0  0  0  0  0  0  0
   12.0330    0.9970   23.5700 C   0  0  0  0  0  0  0  0  0  0  0  0
   12.9490    0.1860   22.9860 C   0  0  0  0  0  0  0  0  0  0  0  0
   12.4400   -1.0740   22.3590 C   0  0  0  0  0  0  0  0  0  0  0  0
   11.0970   -1.3080   22.4200 C   0  0  0  0  0  0  0  0  0  0  0  0
   10.1990   -0.4500   23.0260 C   0  0  0  0  0  0  0  0  0  0  0  0
    6.0810   -2.2360   21.0240 N   0  0  0  0  0  0  0  0  0  0  0  0
    7.2910   -1.3970   21.1630 C   0  0  2  0  0  0  0  0  0  0  0  0
    8.1300   -2.4120   21.7240 C   0  0  0  0  0  0  0  0  0  0  0  0
    7.8290   -2.8090   23.1460 N   0  0  0  0  0  0  0  0  0  0  0  0
    6.4300   -3.1640   23.3850 C   0  0  0  0  0  0  0  0  0  0  0  0
    5.4960   -2.7050   22.2350 C   0  0  0  0  0  0  0  0  0  0  0  0
    5.0240    1.5200   21.7710 C   0  0  0  0  0  0  0  0  0  0  0  0
    6.0480    0.1640   17.9700 N   0  0  0  0  0  0  0  0  0  0  0  0
    4.9990    0.9590   18.1430 C   0  0  0  0  0  0  0  0  0  0  0  0
    4.5770    1.4540   19.3080 C   0  0  0  0  0  0  0  0  0  0  0  0
    5.3380    1.0750   20.3700 C   0  0  0  0  0  0  0  0  0  0  0  0
    6.4500    0.2310   20.0750 C   0  0  0  0  0  0  0  0  0  0  0  0
    6.9650   -0.3410   18.8670 C   0  0  0  0  0  0  0  0  0  0  0  0
    7.7350   -0.6990   19.9490 C   0  0  0  0  0  0  0  0  0  0  0  0
  1  3  1  0
  2  4  2  0
  3  4  1  0
  5  6  3  0
  8  9  2  0
  9 10  1  0
  7 11  1  0
 11 12  2  0
 12 13  1  0
  6 14  1  0
 13 14  2  0
 14 15  1  0
  3 16  1  1
 11 16  1  0
 15 16  2  0
  9 17  1  0
  4 18  1  0
 17 18  1  0
 18 19  1  0
  1 20  1  0
 19 20  1  0
 20 21  1  0
 17 22  1  0
 21 22  1  0
 24 25  2  0
 25 26  1  0
 23 27  1  0
 26 27  2  0
 27 28  1  0
 24 29  1  0
 28 29  2  0
 18 30  1  6
 29 30  1  0
M  END
