x0691-x3117
     RDKit          3D

 48 52  0  0  0  0  0  0  0  0999 V2000
    7.2030   -1.2770   22.0710 N   0  0  0  0  0  0  0  0  0  0  0  0
    7.8940    1.7980   23.2290 N   0  0  0  0  0  0  0  0  0  0  0  0
    8.7280    1.4900   21.0680 O   0  0  0  0  0  0  0  0  0  0  0  0
    6.7940    0.1260   21.7640 C   0  0  1  0  0  0  0  0  0  0  0  0
    7.9270    1.2040   21.9650 C   0  0  0  0  0  0  0  0  0  0  0  0
   12.3450   -1.9160   24.3190 C   0  0  0  0  0  0  0  0  0  0  0  0
   12.6880   -0.7300   25.1540 C   0  0  0  0  0  0  0  0  0  0  0  0
   13.4040   -2.0980   23.2000 C   0  0  0  0  0  0  0  0  0  0  0  0
   12.2390   -3.1850   25.1390 C   0  0  0  0  0  0  0  0  0  0  0  0
    4.0510   -6.8480   25.9020 O   0  0  0  0  0  0  0  0  0  0  0  0
    5.7200   -5.2650   26.9330 O   0  0  0  0  0  0  0  0  0  0  0  0
    5.7180   -4.4490   19.8150 O   0  0  0  0  0  0  0  0  0  0  0  0
    6.5960   -4.1730   20.5950 C   0  0  0  0  0  0  0  0  0  0  0  0
    7.9500   -3.5800   20.2720 C   0  0  0  0  0  0  0  0  0  0  0  0
    3.0620   -0.5460   25.9910 F   0  0  0  0  0  0  0  0  0  0  0  0
    4.7640   -5.5900   25.9000 S   0  0  0  0  0  0  0  0  0  0  0  0
    6.3530   -2.0200   23.0350 C   0  0  0  0  0  0  0  0  0  0  0  0
    5.5540   -3.0050   22.4300 C   0  0  0  0  0  0  0  0  0  0  0  0
    6.2900    0.2310   17.9520 N   0  0  0  0  0  0  0  0  0  0  0  0
    5.2030    0.9740   17.8960 C   0  0  0  0  0  0  0  0  0  0  0  0
    4.5670    1.4660   19.0220 C   0  0  0  0  0  0  0  0  0  0  0  0
    5.0580    1.2010   20.2800 C   0  0  0  0  0  0  0  0  0  0  0  0
    6.2000    0.4310   20.3950 C   0  0  0  0  0  0  0  0  0  0  0  0
    6.7710   -0.0290   19.2130 C   0  0  0  0  0  0  0  0  0  0  0  0
    9.7650    5.1340   24.1670 O   0  0  0  0  0  0  0  0  0  0  0  0
   10.6380    4.1450   23.6210 C   0  0  0  0  0  0  0  0  0  0  0  0
    9.9900    2.9000   23.6050 C   0  0  0  0  0  0  0  0  0  0  0  0
    8.5070    3.1020   23.5520 C   0  0  0  0  0  0  0  0  0  0  0  0
    8.3860    4.1140   22.6800 C   0  0  0  0  0  0  0  0  0  0  0  0
    8.7120    5.3570   23.2360 C   0  0  0  0  0  0  0  0  0  0  0  0
    9.5530   -1.9710   21.8540 C   0  0  0  0  0  0  0  0  0  0  0  0
   10.7780   -2.1120   22.4170 C   0  0  0  0  0  0  0  0  0  0  0  0
   10.9860   -1.7430   23.7180 C   0  0  0  0  0  0  0  0  0  0  0  0
    9.9620   -1.2080   24.5130 C   0  0  0  0  0  0  0  0  0  0  0  0
    8.6420   -1.0080   24.0460 C   0  0  0  0  0  0  0  0  0  0  0  0
    8.5200   -1.4560   22.5790 C   0  0  0  0  0  0  0  0  0  0  0  0
    2.8710   -1.8690   25.9120 C   0  0  0  0  0  0  0  0  0  0  0  0
    4.0480   -2.8290   25.9610 C   0  0  0  0  0  0  0  0  0  0  0  0
    3.5430   -4.2950   25.8530 C   0  0  0  0  0  0  0  0  0  0  0  0
    2.1860   -4.6250   25.7250 C   0  0  0  0  0  0  0  0  0  0  0  0
    1.2030   -3.6440   25.6910 C   0  0  0  0  0  0  0  0  0  0  0  0
    1.5610   -2.3140   25.7860 C   0  0  0  0  0  0  0  0  0  0  0  0
    6.2380   -4.3580   22.0500 C   0  0  0  0  0  0  0  0  0  0  0  0
    5.1990   -5.5250   22.0590 C   0  0  0  0  0  0  0  0  0  0  0  0
    5.1850   -6.3370   23.3310 C   0  0  0  0  0  0  0  0  0  0  0  0
    5.5210   -5.4040   24.4120 N   0  0  0  0  0  0  0  0  0  0  0  0
    6.9220   -4.9050   24.4210 C   0  0  0  0  0  0  0  0  0  0  0  0
    7.4110   -4.6840   22.9920 C   0  0  0  0  0  0  0  0  0  0  0  0
  1  4  1  0
  2  5  1  0
  3  5  2  0
  4  5  1  6
  6  7  1  0
  6  8  1  0
  6  9  1  0
 12 13  2  0
 13 14  1  0
 10 16  2  0
 11 16  2  0
  1 17  1  0
 17 18  1  0
 19 20  2  0
 20 21  1  0
 21 22  2  0
  4 23  1  0
 22 23  1  0
 19 24  1  0
 23 24  2  0
 25 26  1  0
 26 27  1  0
  2 28  1  0
 27 28  1  0
 28 29  1  0
 25 30  1  0
 29 30  1  0
 31 32  2  0
  6 33  1  0
 32 33  1  0
 33 34  2  0
 34 35  1  0
  1 36  1  0
 31 36  1  0
 35 36  2  0
 15 37  1  0
 37 38  2  0
 16 39  1  0
 38 39  1  0
 39 40  2  0
 40 41  1  0
 37 42  1  0
 41 42  2  0
 43 13  1  0
 18 43  1  0
 43 44  1  0
 44 45  1  0
 16 46  1  0
 45 46  1  0
 46 47  1  0
 43 48  1  0
 47 48  1  0
M  END
