x0691-x0991
     RDKit          3D

 24 25  0  0  0  0  0  0  0  0999 V2000
    4.1930   -6.8930   25.7320 O   0  0  0  0  0  0  0  0  0  0  0  0
    5.8240   -5.2940   26.7670 O   0  0  0  0  0  0  0  0  0  0  0  0
    5.2030   -4.5630   19.8730 O   0  0  0  0  0  0  0  0  0  0  0  0
    6.2330   -4.2620   20.4370 C   0  0  0  0  0  0  0  0  0  0  0  0
    7.2370   -3.3340   19.7440 C   0  0  0  0  0  0  0  0  0  0  0  0
    3.1140   -0.5310   25.9020 F   0  0  0  0  0  0  0  0  0  0  0  0
    4.9060   -5.6370   25.7100 S   0  0  0  0  0  0  0  0  0  0  0  0
   10.0980   -5.7540   25.2460 N   0  0  0  0  0  0  0  0  0  0  0  0
    8.7900   -3.8240   23.2350 C   0  0  0  0  0  0  0  0  0  0  0  0
    8.0130   -4.9250   23.9540 C   0  0  1  0  0  0  0  0  0  0  0  0
    7.9710   -4.8930   26.5130 N   0  0  0  0  0  0  0  0  0  0  0  0
    8.7180   -5.2020   25.2940 C   0  0  0  0  0  0  0  0  0  0  0  0
    2.8980   -1.8480   25.8140 C   0  0  0  0  0  0  0  0  0  0  0  0
    4.0660   -2.8430   25.8110 C   0  0  0  0  0  0  0  0  0  0  0  0
    3.6840   -4.3480   25.7080 C   0  0  0  0  0  0  0  0  0  0  0  0
    2.1520   -4.6700   25.6110 C   0  0  0  0  0  0  0  0  0  0  0  0
    1.2560   -3.6000   25.6310 C   0  0  0  0  0  0  0  0  0  0  0  0
    1.5890   -2.2710   25.7280 C   0  0  0  0  0  0  0  0  0  0  0  0
    6.4170   -4.7650   21.6990 N   0  0  0  0  0  0  0  0  0  0  0  0
    5.8810   -5.9830   21.9790 C   0  0  0  0  0  0  0  0  0  0  0  0
    4.9710   -6.0370   23.0400 C   0  0  0  0  0  0  0  0  0  0  0  0
    5.7430   -5.5540   24.2320 N   0  0  0  0  0  0  0  0  0  0  0  0
    6.5700   -4.5040   23.9640 C   0  0  2  0  0  0  0  0  0  0  0  0
    6.3130   -3.9050   22.7550 C   0  0  0  0  0  0  0  0  0  0  0  0
  3  4  2  0
  4  5  1  0
  1  7  2  0
  2  7  2  0
 10  9  1  1
  8 12  2  3
 10 12  1  0
 11 12  1  0
  6 13  1  0
 13 14  2  0
  7 15  1  0
 14 15  1  0
 15 16  2  0
 16 17  1  0
 13 18  1  0
 17 18  2  0
  4 19  1  0
 19 20  1  0
 20 21  1  0
  7 22  1  0
 21 22  1  0
 10 23  1  0
 22 23  1  0
 19 24  1  0
 23 24  1  6
M  END
