x0691-x3108
     RDKit          3D

 41 44  0  0  0  0  0  0  0  0999 V2000
    6.0590    1.6440   22.0050 C   0  0  0  0  0  0  0  0  0  0  0  0
    9.3570    1.5060   21.4650 O   0  0  0  0  0  0  0  0  0  0  0  0
    7.9820   -0.3410   21.1960 N   0  0  0  0  0  0  0  0  0  0  0  0
    8.0320    0.0480   24.8170 O   0  0  0  0  0  0  0  0  0  0  0  0
    9.1050   -1.4160   23.3240 N   0  0  0  0  0  0  0  0  0  0  0  0
    9.0550    0.3330   21.7480 C   0  0  0  0  0  0  0  0  0  0  0  0
    9.8560   -0.5220   22.7410 C   0  0  0  0  0  0  0  0  0  0  0  0
    8.2360   -1.0540   24.3220 C   0  0  0  0  0  0  0  0  0  0  0  0
    7.4130   -2.3090   24.8280 C   0  0  1  0  0  0  0  0  0  0  0  0
    3.9770   -6.7550   25.6400 O   0  0  0  0  0  0  0  0  0  0  0  0
    5.6840   -5.1690   26.6150 O   0  0  0  0  0  0  0  0  0  0  0  0
    5.2550   -4.5200   19.8950 O   0  0  0  0  0  0  0  0  0  0  0  0
    6.3250   -4.5060   20.4950 C   0  0  0  0  0  0  0  0  0  0  0  0
    7.4020   -3.5030   20.1070 C   0  0  0  0  0  0  0  0  0  0  0  0
    3.1940   -0.5900   26.0050 F   0  0  0  0  0  0  0  0  0  0  0  0
    4.6630   -5.4810   25.6370 S   0  0  0  0  0  0  0  0  0  0  0  0
    6.4400   -2.8990   23.8090 C   0  0  0  0  0  0  0  0  0  0  0  0
    6.2620    0.1530   17.9260 N   0  0  0  0  0  0  0  0  0  0  0  0
    7.2120   -0.3890   18.9330 C   0  0  0  0  0  0  0  0  0  0  0  0
    7.0620    0.1570   20.1930 C   0  0  0  0  0  0  0  0  0  0  0  0
    6.1520    1.1100   20.6050 C   0  0  0  0  0  0  0  0  0  0  0  0
    5.2780    1.5820   19.6310 C   0  0  0  0  0  0  0  0  0  0  0  0
    5.3750    1.0840   18.3430 C   0  0  0  0  0  0  0  0  0  0  0  0
    9.8550   -5.2610   24.6190 N   0  0  0  0  0  0  0  0  0  0  0  0
    9.1430   -4.1560   24.3560 C   0  0  0  0  0  0  0  0  0  0  0  0
    8.2180   -3.5130   25.2130 C   0  0  0  0  0  0  0  0  0  0  0  0
    7.9970   -4.0550   26.5000 C   0  0  0  0  0  0  0  0  0  0  0  0
    8.6880   -5.2060   26.8770 C   0  0  0  0  0  0  0  0  0  0  0  0
    9.6230   -5.8210   25.9360 C   0  0  0  0  0  0  0  0  0  0  0  0
    2.8310   -1.8840   25.8850 C   0  0  0  0  0  0  0  0  0  0  0  0
    3.8080   -2.8840   25.8300 C   0  0  0  0  0  0  0  0  0  0  0  0
    3.4290   -4.2380   25.7050 C   0  0  0  0  0  0  0  0  0  0  0  0
    2.0830   -4.5660   25.6340 C   0  0  0  0  0  0  0  0  0  0  0  0
    1.1190   -3.5810   25.6870 C   0  0  0  0  0  0  0  0  0  0  0  0
    1.4620   -2.2300   25.8130 C   0  0  0  0  0  0  0  0  0  0  0  0
    6.5710   -5.4100   21.5260 N   0  0  0  0  0  0  0  0  0  0  0  0
    5.6080   -6.2810   21.8450 C   0  0  0  0  0  0  0  0  0  0  0  0
    4.5630   -5.8170   22.8680 C   0  0  0  0  0  0  0  0  0  0  0  0
    5.2940   -5.2300   24.0650 N   0  0  0  0  0  0  0  0  0  0  0  0
    6.5950   -4.4450   23.8080 C   0  0  1  0  0  0  0  0  0  0  0  0
    7.4020   -5.0380   22.6580 C   0  0  0  0  0  0  0  0  0  0  0  0
  2  6  2  0
  3  6  1  0
  5  7  1  0
  6  7  1  0
  4  8  2  0
  5  8  1  0
  8  9  1  0
 12 13  2  0
 13 14  1  0
 10 16  2  0
 11 16  2  0
  9 17  1  6
 18 19  2  0
  3 20  1  0
 19 20  1  0
  1 21  1  0
 20 21  2  0
 21 22  1  0
 18 23  1  0
 22 23  2  0
 24 25  2  0
  9 26  1  0
 25 26  1  0
 26 27  2  0
 27 28  1  0
 24 29  1  0
 28 29  2  0
 15 30  1  0
 30 31  2  0
 16 32  1  0
 31 32  1  0
 32 33  2  0
 33 34  1  0
 30 35  1  0
 34 35  2  0
 13 36  1  0
 36 37  1  0
 37 38  1  0
 16 39  1  0
 38 39  1  0
 40 17  1  6
 39 40  1  0
 36 41  1  0
 40 41  1  0
M  END
