x0691-x3077
     RDKit          3D

 30 33  0  0  0  0  0  0  0  0999 V2000
    4.1620   -6.8680   25.7610 O   0  0  0  0  0  0  0  0  0  0  0  0
    5.8520   -5.2770   26.7640 O   0  0  0  0  0  0  0  0  0  0  0  0
    5.2390   -4.4430   19.8240 O   0  0  0  0  0  0  0  0  0  0  0  0
    6.2680   -4.1050   20.3680 C   0  0  0  0  0  0  0  0  0  0  0  0
    7.2840   -3.2510   19.6150 C   0  0  0  0  0  0  0  0  0  0  0  0
    3.1330   -0.5480   25.9860 F   0  0  0  0  0  0  0  0  0  0  0  0
    4.8610   -5.6040   25.7660 S   0  0  0  0  0  0  0  0  0  0  0  0
   13.3380   -1.7980   21.1310 Cl  0  0  0  0  0  0  0  0  0  0  0  0
    9.3020   -2.1820   24.1720 C   0  0  0  0  0  0  0  0  0  0  0  0
    2.8250   -1.8490   25.8920 C   0  0  0  0  0  0  0  0  0  0  0  0
    3.9920   -2.8470   25.8870 C   0  0  0  0  0  0  0  0  0  0  0  0
    3.6180   -4.3390   25.7800 C   0  0  0  0  0  0  0  0  0  0  0  0
    2.0960   -4.7090   25.6820 C   0  0  0  0  0  0  0  0  0  0  0  0
    0.9950   -3.6120   25.6950 C   0  0  0  0  0  0  0  0  0  0  0  0
    1.5040   -2.1780   25.8100 C   0  0  0  0  0  0  0  0  0  0  0  0
    6.3980   -4.5480   21.8060 C   0  0  1  0  0  0  0  0  0  0  0  0
    5.7070   -5.7560   22.0240 C   0  0  0  0  0  0  0  0  0  0  0  0
    4.7960   -5.7930   23.0530 C   0  0  0  0  0  0  0  0  0  0  0  0
    5.5350   -5.3090   24.2390 N   0  0  0  0  0  0  0  0  0  0  0  0
    7.0350   -5.3940   24.0510 C   0  0  0  0  0  0  0  0  0  0  0  0
    7.3570   -4.4880   23.0390 C   0  0  2  0  0  0  0  0  0  0  0  0
    8.0970   -1.6480   23.5330 N   0  0  0  0  0  0  0  0  0  0  0  0
    7.7570   -2.2750   22.2570 C   0  0  0  0  0  0  0  0  0  0  0  0
    6.7870   -3.2340   22.5690 C   0  0  1  0  0  0  0  0  0  0  0  0
   10.7960   -0.1220   24.3070 C   0  0  0  0  0  0  0  0  0  0  0  0
   11.9790    0.6830   23.8640 C   0  0  0  0  0  0  0  0  0  0  0  0
   12.7150    0.1180   22.9020 C   0  0  0  0  0  0  0  0  0  0  0  0
   12.3950   -1.1230   22.3530 C   0  0  0  0  0  0  0  0  0  0  0  0
   11.2990   -1.8560   22.7690 C   0  0  0  0  0  0  0  0  0  0  0  0
   10.4900   -1.3690   23.7440 C   0  0  0  0  0  0  0  0  0  0  0  0
  3  4  2  0
  4  5  1  0
  1  7  2  0
  2  7  2  0
  6 10  1  0
 10 11  2  0
  7 12  1  0
 11 12  1  0
 12 13  2  0
 13 14  1  0
 10 15  1  0
 14 15  2  0
 16  4  1  6
 16 17  1  0
 17 18  1  0
  7 19  1  0
 18 19  1  0
 19 20  1  0
 16 21  1  0
 21 20  1  1
  9 22  1  0
 22 23  1  0
 16 24  1  0
 21 24  1  0
 24 23  1  6
 25 26  2  0
 26 27  1  0
  8 28  1  0
 27 28  2  0
 28 29  1  0
  9 30  1  0
 25 30  1  0
 29 30  2  0
M  END
