x0691-x1308
     RDKit          3D

 20 21  0  0  0  0  0  0  0  0999 V2000
    3.9320   -6.8920   25.7430 O   0  0  0  0  0  0  0  0  0  0  0  0
    5.7390   -5.4190   26.6810 O   0  0  0  0  0  0  0  0  0  0  0  0
    5.2710   -4.8210   19.9540 O   0  0  0  0  0  0  0  0  0  0  0  0
    6.2790   -4.4910   20.5490 C   0  0  0  0  0  0  0  0  0  0  0  0
    7.1700   -3.4210   19.9440 C   0  0  0  0  0  0  0  0  0  0  0  0
    3.5160   -0.5240   25.8420 F   0  0  0  0  0  0  0  0  0  0  0  0
    4.7050   -5.6750   25.7080 S   0  0  0  0  0  0  0  0  0  0  0  0
   -0.1050   -1.9790   26.0650 Cl  0  0  0  0  0  0  0  0  0  0  0  0
    3.1570   -1.8100   25.8440 C   0  0  0  0  0  0  0  0  0  0  0  0
    4.0890   -2.9010   25.7670 C   0  0  0  0  0  0  0  0  0  0  0  0
    3.5660   -4.3190   25.7800 C   0  0  0  0  0  0  0  0  0  0  0  0
    2.0150   -4.5270   25.8710 C   0  0  0  0  0  0  0  0  0  0  0  0
    0.8390   -3.4120   25.9720 C   0  0  0  0  0  0  0  0  0  0  0  0
    1.7490   -2.1460   25.9320 C   0  0  0  0  0  0  0  0  0  0  0  0
    6.5580   -5.0790   21.7580 N   0  0  0  0  0  0  0  0  0  0  0  0
    5.7730   -6.2620   22.1800 C   0  0  0  0  0  0  0  0  0  0  0  0
    4.7890   -5.9150   23.1300 C   0  0  0  0  0  0  0  0  0  0  0  0
    5.4570   -5.5560   24.2110 N   0  0  0  0  0  0  0  0  0  0  0  0
    6.2680   -4.3660   24.0130 C   0  0  0  0  0  0  0  0  0  0  0  0
    6.9970   -4.2770   22.8480 C   0  0  0  0  0  0  0  0  0  0  0  0
  3  4  2  0
  4  5  1  0
  1  7  2  0
  2  7  2  0
  6  9  1  0
  9 10  2  0
  7 11  1  0
 10 11  1  0
 11 12  2  0
  8 13  1  0
 12 13  1  0
  9 14  1  0
 13 14  2  0
  4 15  1  0
 15 16  1  0
 16 17  1  0
  7 18  1  0
 17 18  1  0
 18 19  1  0
 15 20  1  0
 19 20  1  0
M  END
