x0691-x3124
     RDKit          3D

 43 46  0  0  0  0  0  0  0  0999 V2000
    7.1500   -1.3640   22.0580 N   0  0  0  0  0  0  0  0  0  0  0  0
    8.0150    1.5250   23.3370 N   0  0  0  0  0  0  0  0  0  0  0  0
    8.6920    1.5080   21.1180 O   0  0  0  0  0  0  0  0  0  0  0  0
    6.7920    0.0610   21.7610 C   0  0  1  0  0  0  0  0  0  0  0  0
    7.9480    1.0970   22.0190 C   0  0  0  0  0  0  0  0  0  0  0  0
    8.7900    2.4640   23.7640 C   0  0  0  0  0  0  0  0  0  0  0  0
   12.4710   -1.8190   24.0550 C   0  0  0  0  0  0  0  0  0  0  0  0
   12.6670   -0.5190   24.8330 C   0  0  0  0  0  0  0  0  0  0  0  0
   13.4050   -2.1120   22.8880 C   0  0  0  0  0  0  0  0  0  0  0  0
   12.7580   -2.9610   25.0220 C   0  0  0  0  0  0  0  0  0  0  0  0
    4.1190   -6.8780   25.9370 O   0  0  0  0  0  0  0  0  0  0  0  0
    5.6980   -5.2120   26.9680 O   0  0  0  0  0  0  0  0  0  0  0  0
    5.6820   -5.5250   19.9800 O   0  0  0  0  0  0  0  0  0  0  0  0
    6.1590   -4.5540   20.5150 C   0  0  0  0  0  0  0  0  0  0  0  0
    6.8710   -3.4870   19.7050 C   0  0  0  0  0  0  0  0  0  0  0  0
    3.2870   -0.6580   26.0240 F   0  0  0  0  0  0  0  0  0  0  0  0
    4.7760   -5.5900   25.9280 S   0  0  0  0  0  0  0  0  0  0  0  0
    6.2570   -2.0630   22.9660 C   0  0  0  0  0  0  0  0  0  0  0  0
    5.5080   -2.9200   22.1710 C   0  0  0  0  0  0  0  0  0  0  0  0
    6.3360    0.1960   17.9570 N   0  0  0  0  0  0  0  0  0  0  0  0
    5.2140    0.9340   17.9180 C   0  0  0  0  0  0  0  0  0  0  0  0
    4.5330    1.4100   19.0060 C   0  0  0  0  0  0  0  0  0  0  0  0
    5.0470    1.1130   20.2580 C   0  0  0  0  0  0  0  0  0  0  0  0
    6.2190    0.3560   20.3850 C   0  0  0  0  0  0  0  0  0  0  0  0
    6.7960   -0.0650   19.1950 C   0  0  0  0  0  0  0  0  0  0  0  0
    9.4810   -1.8320   21.7980 C   0  0  0  0  0  0  0  0  0  0  0  0
   10.8790   -1.9670   22.2770 C   0  0  0  0  0  0  0  0  0  0  0  0
   11.0190   -1.7100   23.5880 C   0  0  0  0  0  0  0  0  0  0  0  0
    9.9790   -1.3610   24.4390 C   0  0  0  0  0  0  0  0  0  0  0  0
    8.6850   -1.2470   23.9470 C   0  0  0  0  0  0  0  0  0  0  0  0
    8.4310   -1.4760   22.6170 C   0  0  0  0  0  0  0  0  0  0  0  0
    2.8770   -1.9300   25.9240 C   0  0  0  0  0  0  0  0  0  0  0  0
    3.8430   -2.9390   25.9620 C   0  0  0  0  0  0  0  0  0  0  0  0
    3.5300   -4.3290   25.8680 C   0  0  0  0  0  0  0  0  0  0  0  0
    2.0290   -4.7090   25.7090 C   0  0  0  0  0  0  0  0  0  0  0  0
    0.9860   -3.5640   25.6700 C   0  0  0  0  0  0  0  0  0  0  0  0
    1.5270   -2.1650   25.7920 C   0  0  0  0  0  0  0  0  0  0  0  0
    5.9390   -4.4100   22.0150 C   0  0  0  0  0  0  0  0  0  0  0  0
    4.8720   -5.2740   22.3080 C   0  0  0  0  0  0  0  0  0  0  0  0
    5.0680   -6.1900   23.3060 C   0  0  0  0  0  0  0  0  0  0  0  0
    5.4980   -5.3790   24.4270 N   0  0  0  0  0  0  0  0  0  0  0  0
    6.8680   -4.8760   24.2790 C   0  0  0  0  0  0  0  0  0  0  0  0
    7.1530   -4.7770   22.9120 C   0  0  0  0  0  0  0  0  0  0  0  0
  1  4  1  0
  2  5  1  0
  3  5  2  0
  4  5  1  6
  2  6  1  0
  7  8  1  0
  7  9  1  0
  7 10  1  0
 13 14  2  0
 14 15  1  0
 11 17  2  0
 12 17  2  0
  1 18  1  0
 18 19  1  0
 20 21  2  0
 21 22  1  0
 22 23  2  0
  4 24  1  0
 23 24  1  0
 20 25  1  0
 24 25  2  0
 26 27  2  0
  7 28  1  0
 27 28  1  0
 28 29  2  0
 29 30  1  0
  1 31  1  0
 26 31  1  0
 30 31  2  0
 16 32  1  0
 32 33  2  0
 17 34  1  0
 33 34  1  0
 34 35  2  0
 35 36  1  0
 32 37  1  0
 36 37  2  0
 38 14  1  0
 19 38  1  0
 38 39  1  0
 39 40  1  0
 17 41  1  0
 40 41  1  0
 41 42  1  0
 38 43  1  0
 42 43  1  0
M  END
