x0691-x0689
     RDKit          3D

 19 20  0  0  0  0  0  0  0  0999 V2000
    3.9350   -6.9690   25.8870 O   0  0  0  0  0  0  0  0  0  0  0  0
    5.6950   -5.3480   26.6730 O   0  0  0  0  0  0  0  0  0  0  0  0
    5.4450   -4.5190   19.9240 O   0  0  0  0  0  0  0  0  0  0  0  0
    6.4210   -4.5330   20.6870 C   0  0  0  0  0  0  0  0  0  0  0  0
    7.6540   -3.6900   20.4530 C   0  0  0  0  0  0  0  0  0  0  0  0
    3.3000   -0.5160   25.9940 F   0  0  0  0  0  0  0  0  0  0  0  0
    4.6450   -5.7210   25.7530 S   0  0  0  0  0  0  0  0  0  0  0  0
    2.9280   -1.7950   25.8790 C   0  0  0  0  0  0  0  0  0  0  0  0
    3.8720   -2.9410   25.8710 C   0  0  0  0  0  0  0  0  0  0  0  0
    3.4400   -4.4320   25.7410 C   0  0  0  0  0  0  0  0  0  0  0  0
    1.9130   -4.7500   25.6040 C   0  0  0  0  0  0  0  0  0  0  0  0
    0.9240   -3.5330   25.6130 C   0  0  0  0  0  0  0  0  0  0  0  0
    1.5210   -2.1290   25.7540 C   0  0  0  0  0  0  0  0  0  0  0  0
    6.4540   -5.3070   21.8110 N   0  0  0  0  0  0  0  0  0  0  0  0
    5.4540   -6.3040   22.1660 C   0  0  0  0  0  0  0  0  0  0  0  0
    4.5790   -5.7890   23.1400 C   0  0  0  0  0  0  0  0  0  0  0  0
    5.3310   -5.6690   24.2240 N   0  0  0  0  0  0  0  0  0  0  0  0
    6.5440   -4.8770   24.1150 C   0  0  0  0  0  0  0  0  0  0  0  0
    7.2180   -4.8850   22.9220 C   0  0  0  0  0  0  0  0  0  0  0  0
  3  4  2  0
  4  5  1  0
  1  7  2  0
  2  7  2  0
  6  8  1  0
  8  9  2  0
  7 10  1  0
  9 10  1  0
 10 11  2  0
 11 12  1  0
  8 13  1  0
 12 13  2  0
  4 14  1  0
 14 15  1  0
 15 16  1  0
  7 17  1  0
 16 17  1  0
 17 18  1  0
 14 19  1  0
 18 19  1  0
M  END
