x0692-x2694-x1334-x0734
     RDKit          3D

 48 52  0  0  0  0  0  0  0  0999 V2000
    7.7630    2.2400   22.8280 N   0  0  0  0  0  0  0  0  0  0  0  0
    9.2920    1.4350   21.1850 O   0  0  0  0  0  0  0  0  0  0  0  0
   10.9510    6.7640   23.8650 O   0  0  0  0  0  0  0  0  0  0  0  0
    7.1110    0.1530   21.5960 C   0  0  1  0  0  0  0  0  0  0  0  0
    8.0940    1.2820   21.8940 C   0  0  0  0  0  0  0  0  0  0  0  0
   10.3040    1.8630   24.0140 C   0  0  0  0  0  0  0  0  0  0  0  0
   11.8620    6.6410   24.6920 C   0  0  0  0  0  0  0  0  0  0  0  0
   12.3260   -1.1620   23.1540 C   0  0  0  0  0  0  0  0  0  0  0  0
   12.6420    0.2970   23.3900 C   0  0  0  0  0  0  0  0  0  0  0  0
   13.0190   -1.6520   21.8830 C   0  0  0  0  0  0  0  0  0  0  0  0
   12.9030   -1.9780   24.3410 C   0  0  0  0  0  0  0  0  0  0  0  0
    5.5450   -3.9900   19.7320 O   0  0  0  0  0  0  0  0  0  0  0  0
    9.6710   -2.9700   24.1960 C   0  0  0  0  0  0  0  0  0  0  0  0
    6.4310   -3.0950   19.8720 C   0  0  0  0  0  0  0  0  0  0  0  0
    7.3700   -2.9190   18.7120 C   0  0  0  0  0  0  0  0  0  0  0  0
    7.6190   -5.8180   28.2500 C   0  0  0  0  0  0  0  0  0  0  0  0
    6.3160    0.5250   17.7960 N   0  0  0  0  0  0  0  0  0  0  0  0
    5.2040    1.2750   17.8370 C   0  0  0  0  0  0  0  0  0  0  0  0
    4.4270    1.8280   19.0510 C   0  0  0  0  0  0  0  0  0  0  0  0
    5.0780    1.4350   20.3740 C   0  0  0  0  0  0  0  0  0  0  0  0
    6.3360    0.5970   20.3040 C   0  0  0  0  0  0  0  0  0  0  0  0
    6.8730    0.1850   18.9540 C   0  0  0  0  0  0  0  0  0  0  0  0
    8.7900   -1.8590   23.7320 N   0  0  0  0  0  0  0  0  0  0  0  0
    9.9140   -0.9010   23.9080 O   0  0  0  0  0  0  0  0  0  0  0  0
   10.8380   -1.3860   22.9730 C   0  0  0  0  0  0  0  0  0  0  0  0
   10.1250   -2.0380   22.0030 C   0  0  0  0  0  0  0  0  0  0  0  0
    8.8200   -2.0470   22.3970 C   0  0  2  0  0  0  0  0  0  0  0  0
    9.8040    3.2400   23.6540 C   0  0  0  0  0  0  0  0  0  0  0  0
   10.6300    4.3470   23.9210 C   0  0  0  0  0  0  0  0  0  0  0  0
   10.2110    5.6390   23.6200 C   0  0  0  0  0  0  0  0  0  0  0  0
    8.9510    5.8400   23.0280 C   0  0  0  0  0  0  0  0  0  0  0  0
    8.1290    4.7280   22.7560 C   0  0  0  0  0  0  0  0  0  0  0  0
    8.5390    3.4150   23.0670 C   0  0  0  0  0  0  0  0  0  0  0  0
    6.5860   -2.3080   21.0620 N   0  0  0  0  0  0  0  0  0  0  0  0
    7.7340   -1.3200   21.3920 C   0  0  1  0  0  0  0  0  0  0  0  0
    8.4530   -3.4260   22.3120 N   0  0  0  0  0  0  0  0  0  0  0  0
    7.1290   -3.7160   22.8410 C   0  0  0  0  0  0  0  0  0  0  0  0
    6.0950   -3.0180   22.2350 C   0  0  0  0  0  0  0  0  0  0  0  0
    9.8920   -5.2350   25.3490 C   0  0  0  0  0  0  0  0  0  0  0  0
    9.2890   -3.9930   25.2260 C   0  0  0  0  0  0  0  0  0  0  0  0
    8.0780   -3.7880   26.4070 S   0  0  0  0  0  0  0  0  0  0  0  0
    8.3840   -5.3310   27.0800 C   0  0  0  0  0  0  0  0  0  0  0  0
    9.3810   -5.9940   26.4030 C   0  0  0  0  0  0  0  0  0  0  0  0
    4.8140   -4.7330   26.3310 N   0  0  0  0  0  0  0  0  0  0  0  0
    4.4030   -5.7580   25.7720 O   0  0  0  0  0  0  0  0  0  0  0  0
    4.3190   -3.6130   26.1820 O   0  0  0  0  0  0  0  0  0  0  0  0
    6.1880   -6.0910   27.8270 C   0  0  0  0  0  0  0  0  0  0  0  0
    5.5000   -4.9070   27.6300 C   0  0  0  0  0  0  0  0  0  0  0  0
  1  5  1  0
  2  5  2  0
  4  5  1  6
  3  7  1  0
  8  9  1  0
  8 10  1  0
  8 11  1  0
 12 14  2  0
 14 15  1  0
 17 18  2  0
 18 19  1  0
 19 20  2  0
  4 21  1  0
 20 21  1  0
 17 22  1  0
 21 22  2  0
 13 23  1  0
 23 24  1  0
  8 25  1  0
 24 25  1  0
 25 26  2  0
 23 27  1  0
 27 26  1  6
  6 28  1  0
 28 29  2  0
  3 30  1  0
 29 30  1  0
 30 31  2  0
 31 32  1  0
  1 33  1  0
 28 33  1  0
 32 33  2  0
 14 34  1  0
  4 35  1  0
 27 35  1  0
 35 34  1  1
 27 36  1  0
 36 37  1  0
 34 38  1  0
 37 38  1  0
 13 40  1  0
 39 40  2  0
 40 41  1  0
 16 42  1  0
 41 42  1  0
 39 43  1  0
 42 43  2  0
 44 45  2  0
 44 46  1  0
 16 47  1  0
 44 48  1  0
 47 48  1  0
M  CHG  2  44   1  46  -1
M  END
