x0691-x0072
     RDKit          3D

 31 34  0  0  0  0  0  0  0  0999 V2000
    4.7020   -6.6270   26.0240 O   0  0  0  0  0  0  0  0  0  0  0  0
    6.3870   -4.7310   26.7370 N   0  0  0  0  0  0  0  0  0  0  0  0
    5.2360   -4.6050   19.9130 O   0  0  0  0  0  0  0  0  0  0  0  0
    6.3350   -4.3850   20.3880 C   0  0  0  0  0  0  0  0  0  0  0  0
    7.2630   -3.3920   19.7070 C   0  0  0  0  0  0  0  0  0  0  0  0
    2.9690   -0.4990   25.9910 F   0  0  0  0  0  0  0  0  0  0  0  0
    5.1800   -5.3020   25.6820 S   0  0  2  0  0  0  0  0  0  0  0  0
    7.8930   -4.7070   26.3340 S   0  0  0  0  0  0  0  0  0  0  0  0
    8.6130   -5.9490   26.1120 O   0  0  0  0  0  0  0  0  0  0  0  0
    8.6210   -3.6680   27.0410 O   0  0  0  0  0  0  0  0  0  0  0  0
    7.8680   -4.0550   24.7480 N   0  0  0  0  0  0  0  0  0  0  0  0
    9.0560   -3.5520   24.4050 C   0  0  0  0  0  0  0  0  0  0  0  0
    9.0320   -2.1720   23.7090 C   0  0  0  0  0  0  0  0  0  0  0  0
    2.8170   -1.8220   25.8830 C   0  0  0  0  0  0  0  0  0  0  0  0
    4.0770   -2.6600   25.8510 C   0  0  0  0  0  0  0  0  0  0  0  0
    3.8270   -4.1800   25.7280 C   0  0  0  0  0  0  0  0  0  0  0  0
    2.3370   -4.6430   25.6510 C   0  0  0  0  0  0  0  0  0  0  0  0
    1.1390   -3.6530   25.6950 C   0  0  0  0  0  0  0  0  0  0  0  0
    1.5310   -2.3310   25.8100 C   0  0  0  0  0  0  0  0  0  0  0  0
    6.7360   -5.0400   21.5270 N   0  0  0  0  0  0  0  0  0  0  0  0
    5.8990   -5.9440   22.0460 C   0  0  0  0  0  0  0  0  0  0  0  0
    5.0360   -5.5320   23.0500 C   0  0  0  0  0  0  0  0  0  0  0  0
    5.7890   -5.2770   24.1160 N   0  0  0  0  0  0  0  0  0  0  0  0
    7.1630   -4.9210   23.7900 C   0  0  1  0  0  0  0  0  0  0  0  0
    7.0390   -4.2120   22.6140 C   0  0  0  0  0  0  0  0  0  0  0  0
   10.4030   -1.5580   23.4480 C   0  0  0  0  0  0  0  0  0  0  0  0
   11.2650   -2.1210   22.5140 C   0  0  0  0  0  0  0  0  0  0  0  0
   12.5040   -1.4750   22.3400 C   0  0  0  0  0  0  0  0  0  0  0  0
   12.9520   -0.2510   23.0680 C   0  0  0  0  0  0  0  0  0  0  0  0
   12.0680    0.2320   23.9510 C   0  0  0  0  0  0  0  0  0  0  0  0
   10.8220   -0.3560   24.1790 C   0  0  0  0  0  0  0  0  0  0  0  0
  3  4  2  0
  4  5  1  0
  1  7  2  0
  2  7  2  0
  8  2  1  0
  8  9  2  0
  8 10  2  0
  8 11  1  0
 11 12  1  0
 12 13  1  0
  6 14  1  0
 14 15  2  0
  7 16  1  6
 15 16  1  0
 16 17  2  0
 17 18  1  0
 14 19  1  0
 18 19  2  0
  4 20  1  0
 20 21  1  0
 21 22  1  0
  7 23  1  0
 22 23  1  0
 11 24  1  0
 23 24  1  0
 20 25  1  0
 24 25  1  6
 13 26  1  0
 26 27  2  0
 27 28  1  0
 28 29  2  0
 29 30  1  0
 26 31  1  0
 30 31  2  0
M  END
