x0692-x0770
     RDKit          3D

 18 19  0  0  0  0  0  0  0  0999 V2000
   10.5910    2.6760   23.0490 C   0  0  0  0  0  0  0  0  0  0  0  0
    5.2610   -4.1750   19.7050 O   0  0  0  0  0  0  0  0  0  0  0  0
    8.7180   -2.1360   24.0300 C   0  0  0  0  0  0  0  0  0  0  0  0
    6.0900   -3.2800   19.8440 C   0  0  0  0  0  0  0  0  0  0  0  0
    7.1310   -3.0130   18.7700 C   0  0  0  0  0  0  0  0  0  0  0  0
   13.5270   -1.6910   22.0350 Cl  0  0  0  0  0  0  0  0  0  0  0  0
   10.7770    1.1860   23.0460 C   0  0  0  0  0  0  0  0  0  0  0  0
    9.6710    0.2590   23.5160 C   0  0  0  0  0  0  0  0  0  0  0  0
    9.8040   -1.2690   23.5630 C   0  0  0  0  0  0  0  0  0  0  0  0
   11.1080   -1.7810   23.0660 C   0  0  0  0  0  0  0  0  0  0  0  0
   12.2080   -0.9290   22.5800 C   0  0  0  0  0  0  0  0  0  0  0  0
   12.0590    0.5900   22.5910 C   0  0  0  0  0  0  0  0  0  0  0  0
    6.1290   -2.5280   20.9890 N   0  0  0  0  0  0  0  0  0  0  0  0
    7.0520   -1.4070   21.0850 C   0  0  0  0  0  0  0  0  0  0  0  0
    8.2150   -1.6920   21.7400 C   0  0  0  0  0  0  0  0  0  0  0  0
    7.8560   -2.2260   22.9950 N   0  0  0  0  0  0  0  0  0  0  0  0
    7.0620   -3.4460   22.9250 C   0  0  0  0  0  0  0  0  0  0  0  0
    5.8420   -3.1380   22.3070 C   0  0  0  0  0  0  0  0  0  0  0  0
  2  4  2  0
  4  5  1  0
  1  7  1  0
  7  8  2  0
  3  9  1  0
  8  9  1  0
  9 10  2  0
  6 11  1  0
 10 11  1  0
  7 12  1  0
 11 12  2  0
  4 13  1  0
 13 14  1  0
 14 15  1  0
  3 16  1  0
 15 16  1  0
 16 17  1  0
 13 18  1  0
 17 18  1  0
M  END
