x0692-x3117
     RDKit          3D

 36 40  0  0  0  0  0  0  0  0999 V2000
    7.4480    2.1230   22.6210 N   0  0  0  0  0  0  0  0  0  0  0  0
    8.8710    1.2390   21.0980 O   0  0  0  0  0  0  0  0  0  0  0  0
    6.7540    0.0250   21.4730 C   0  0  1  0  0  0  0  0  0  0  0  0
    7.8070    1.1550   21.7110 C   0  0  0  0  0  0  0  0  0  0  0  0
   12.2420   -1.9600   24.3920 C   0  0  0  0  0  0  0  0  0  0  0  0
   12.8140   -0.8920   25.2840 C   0  0  0  0  0  0  0  0  0  0  0  0
   13.4440   -2.4460   23.5920 C   0  0  0  0  0  0  0  0  0  0  0  0
   11.5930   -3.1230   25.1570 C   0  0  0  0  0  0  0  0  0  0  0  0
   11.8670    3.3380   23.2820 C   0  0  0  0  0  0  0  0  0  0  0  0
    5.4540   -3.9530   19.7220 O   0  0  0  0  0  0  0  0  0  0  0  0
    9.7970   -2.0730   23.1510 C   0  0  0  0  0  0  0  0  0  0  0  0
    6.5070   -3.2960   19.8600 C   0  0  0  0  0  0  0  0  0  0  0  0
    7.4170   -3.0160   18.6690 C   0  0  0  0  0  0  0  0  0  0  0  0
    6.2980    0.3810   17.7300 N   0  0  0  0  0  0  0  0  0  0  0  0
    5.1490    1.2640   17.7250 C   0  0  0  0  0  0  0  0  0  0  0  0
    4.5980    1.6450   18.8980 C   0  0  0  0  0  0  0  0  0  0  0  0
    5.1250    1.2180   20.0900 C   0  0  0  0  0  0  0  0  0  0  0  0
    6.2480    0.3740   20.1250 C   0  0  0  0  0  0  0  0  0  0  0  0
    6.8680   -0.0840   18.9760 C   0  0  0  0  0  0  0  0  0  0  0  0
   10.2390    5.0050   23.9600 O   0  0  0  0  0  0  0  0  0  0  0  0
   10.4480    3.8980   23.2230 C   0  0  2  0  0  0  0  0  0  0  0  0
    9.5510    2.7610   23.5590 C   0  0  0  0  0  0  0  0  0  0  0  0
    8.3130    3.2110   22.8370 C   0  0  2  0  0  0  0  0  0  0  0  0
    7.9120    4.4380   23.6680 C   0  0  0  0  0  0  0  0  0  0  0  0
    9.0220    5.5260   23.5650 C   0  0  0  0  0  0  0  0  0  0  0  0
    9.4580   -1.8560   22.0080 C   0  0  0  0  0  0  0  0  0  0  0  0
   10.8680   -1.7240   22.3220 C   0  0  0  0  0  0  0  0  0  0  0  0
   11.3190   -1.1530   23.5270 C   0  0  1  0  0  0  0  0  0  0  0  0
   10.0950   -0.6760   23.8360 C   0  0  0  0  0  0  0  0  0  0  0  0
    8.7270   -0.5960   23.7660 C   0  0  0  0  0  0  0  0  0  0  0  0
    8.3280   -1.4950   22.8530 C   0  0  1  0  0  0  0  0  0  0  0  0
    7.1620   -2.7860   21.1080 C   0  0  0  0  0  0  0  0  0  0  0  0
    7.2960   -1.3940   21.7540 C   0  0  0  0  0  0  0  0  0  0  0  0
    8.5350   -2.5180   23.7080 N   0  0  0  0  0  0  0  0  0  0  0  0
    7.9200   -3.8080   23.3070 C   0  0  0  0  0  0  0  0  0  0  0  0
    7.8760   -3.8990   21.8010 C   0  0  0  0  0  0  0  0  0  0  0  0
  1  4  1  0
  2  4  2  0
  3  4  1  6
  5  6  1  0
  5  7  1  0
  5  8  1  0
 10 12  2  0
 12 13  1  0
 14 15  2  0
 15 16  1  0
 16 17  2  0
  3 18  1  0
 17 18  1  0
 14 19  1  0
 18 19  2  0
 21  9  1  1
 20 21  1  0
 21 22  1  0
 23  1  1  1
 22 23  1  0
 23 24  1  0
 20 25  1  0
 24 25  1  0
 26 27  2  0
 28  5  1  1
 27 28  1  0
 11 29  1  0
 28 29  1  0
 29 30  2  0
 31 26  1  6
 30 31  1  0
 12 32  1  0
  3 33  1  0
 31 33  1  0
 32 33  2  0
 11 34  1  0
 31 34  1  0
 34 35  1  0
 32 36  1  0
 35 36  1  0
M  END
