x0692-x2779
     RDKit          3D

 17 18  0  0  0  0  0  0  0  0999 V2000
   11.2240    2.4840   22.8530 C   0  0  0  0  0  0  0  0  0  0  0  0
    5.3550   -4.1060   19.7110 O   0  0  0  0  0  0  0  0  0  0  0  0
    9.1750   -2.2280   23.9030 C   0  0  0  0  0  0  0  0  0  0  0  0
    6.2170   -3.2280   19.8470 C   0  0  0  0  0  0  0  0  0  0  0  0
    7.2460   -3.0040   18.7550 C   0  0  0  0  0  0  0  0  0  0  0  0
   11.4550    0.9980   23.0260 C   0  0  0  0  0  0  0  0  0  0  0  0
   10.2750    0.0810   23.3610 C   0  0  0  0  0  0  0  0  0  0  0  0
   10.3990   -1.4340   23.5750 C   0  0  0  0  0  0  0  0  0  0  0  0
   11.8270   -1.9610   23.4150 C   0  0  0  0  0  0  0  0  0  0  0  0
   13.0190   -1.0940   23.0870 C   0  0  0  0  0  0  0  0  0  0  0  0
   12.8540    0.4310   22.8860 C   0  0  0  0  0  0  0  0  0  0  0  0
    6.3240   -2.4470   20.9850 N   0  0  0  0  0  0  0  0  0  0  0  0
    7.2800   -1.3470   21.0300 C   0  0  0  0  0  0  0  0  0  0  0  0
    8.4680   -1.6560   21.6480 C   0  0  0  0  0  0  0  0  0  0  0  0
    8.2200   -2.1960   22.9250 N   0  0  0  0  0  0  0  0  0  0  0  0
    7.2770   -3.3320   22.9510 C   0  0  0  0  0  0  0  0  0  0  0  0
    6.0650   -2.9880   22.3350 C   0  0  0  0  0  0  0  0  0  0  0  0
  2  4  2  0
  4  5  1  0
  1  6  1  0
  6  7  2  0
  3  8  1  0
  7  8  1  0
  8  9  2  0
  9 10  1  0
  6 11  1  0
 10 11  2  0
  4 12  1  0
 12 13  1  0
 13 14  1  0
  3 15  1  0
 14 15  1  0
 15 16  1  0
 12 17  1  0
 16 17  1  0
M  END
