x0692-x3298
     RDKit          3D

 38 42  0  0  0  0  0  0  0  0999 V2000
    7.1710    2.0310   22.3640 N   0  0  0  0  0  0  0  0  0  0  0  0
    6.9440   -0.0690   21.2250 C   0  0  2  0  0  0  0  0  0  0  0  0
    6.4060   -0.7050   22.1490 O   0  0  0  0  0  0  0  0  0  0  0  0
    7.8080    1.1030   21.5590 C   0  0  0  0  0  0  0  0  0  0  0  0
    9.0140    1.1070   23.6780 N   0  0  0  0  0  0  0  0  0  0  0  0
    8.9360    1.2630   21.1060 O   0  0  0  0  0  0  0  0  0  0  0  0
   10.8530    1.8760   24.7580 O   0  0  0  0  0  0  0  0  0  0  0  0
    9.7950   -0.2620   25.7110 O   0  0  0  0  0  0  0  0  0  0  0  0
   13.7610   -1.7310   20.8440 F   0  0  0  0  0  0  0  0  0  0  0  0
   10.2570    0.6040   24.6420 S   0  0  0  0  0  0  0  0  0  0  0  0
    5.3890   -4.0640   19.7090 O   0  0  0  0  0  0  0  0  0  0  0  0
    9.4630   -3.2210   23.8450 C   0  0  0  0  0  0  0  0  0  0  0  0
    6.3250   -3.2690   19.8700 C   0  0  0  0  0  0  0  0  0  0  0  0
    7.3410   -2.9770   18.7790 C   0  0  0  0  0  0  0  0  0  0  0  0
    6.2720    0.7030   17.5330 N   0  0  0  0  0  0  0  0  0  0  0  0
    6.9030    0.1790   18.7330 C   0  0  0  0  0  0  0  0  0  0  0  0
    6.2500    0.4130   20.0750 C   0  0  0  0  0  0  0  0  0  0  0  0
    5.0410    1.1050   20.1020 C   0  0  0  0  0  0  0  0  0  0  0  0
    4.4220    1.6030   18.9850 C   0  0  0  0  0  0  0  0  0  0  0  0
    5.1310    1.3670   17.6630 C   0  0  0  0  0  0  0  0  0  0  0  0
    7.7350    4.3990   22.4640 C   0  0  0  0  0  0  0  0  0  0  0  0
    8.7160    5.4820   22.9220 C   0  0  0  0  0  0  0  0  0  0  0  0
    9.8140    5.0240   23.6190 C   0  0  0  0  0  0  0  0  0  0  0  0
    9.9600    3.5370   23.8860 C   0  0  0  0  0  0  0  0  0  0  0  0
    9.0510    2.5820   23.4860 C   0  0  0  0  0  0  0  0  0  0  0  0
    7.9780    3.0350   22.7740 C   0  0  0  0  0  0  0  0  0  0  0  0
   12.4680    0.4530   23.3140 C   0  0  0  0  0  0  0  0  0  0  0  0
   13.3420   -0.0530   22.4200 C   0  0  0  0  0  0  0  0  0  0  0  0
   12.9650   -1.2070   21.7500 C   0  0  0  0  0  0  0  0  0  0  0  0
   11.7640   -1.8440   21.9710 C   0  0  0  0  0  0  0  0  0  0  0  0
   10.8590   -1.3630   22.8680 C   0  0  0  0  0  0  0  0  0  0  0  0
   11.2750   -0.1860   23.5120 C   0  0  0  0  0  0  0  0  0  0  0  0
    6.5320   -2.6350   21.1040 N   0  0  0  0  0  0  0  0  0  0  0  0
    7.3070   -1.5480   21.3890 C   0  0  1  0  0  0  0  0  0  0  0  0
    8.4630   -1.8680   22.0980 C   0  0  0  0  0  0  0  0  0  0  0  0
    8.2060   -2.7250   23.2820 N   0  0  0  0  0  0  0  0  0  0  0  0
    7.3820   -3.7400   22.9720 C   0  0  0  0  0  0  0  0  0  0  0  0
    6.2870   -3.3610   22.2040 C   0  0  0  0  0  0  0  0  0  0  0  0
  2  3  1  0
  1  4  1  0
  2  4  1  1
  4  6  2  0
 10  5  1  0
  7 10  2  0
  8 10  2  0
 11 13  2  0
 13 14  1  0
 15 16  2  0
  2 17  1  0
 16 17  1  0
 17 18  2  0
 18 19  1  0
 15 20  1  0
 19 20  2  0
 21 22  2  0
 22 23  1  0
 23 24  2  0
  5 25  1  0
 24 25  1  0
  1 26  1  0
 21 26  1  0
 25 26  2  0
 27 28  2  0
  9 29  1  0
 28 29  1  0
 29 30  2  0
 30 31  1  0
 10 32  1  0
 27 32  1  0
 31 32  2  0
 13 33  1  0
  2 34  1  0
 34  3  1  0
 33 34  1  0
 34 35  1  1
 12 36  1  0
 35 36  1  0
 36 37  1  0
 33 38  1  0
 37 38  1  0
M  END
