x0692-x1249
     RDKit          3D

 28 30  0  0  0  0  0  0  0  0999 V2000
   10.2030    1.9190   24.0800 C   0  0  0  0  0  0  0  0  0  0  0  0
    5.4000   -4.1360   19.7340 O   0  0  0  0  0  0  0  0  0  0  0  0
    9.2580   -2.9770   23.8120 C   0  0  0  0  0  0  0  0  0  0  0  0
    6.2730   -3.2740   19.8870 C   0  0  0  0  0  0  0  0  0  0  0  0
    7.2950   -3.0160   18.7930 C   0  0  0  0  0  0  0  0  0  0  0  0
    8.9160    1.7230   24.6490 N   0  0  0  0  0  0  0  0  0  0  0  0
    7.6460    2.0430   24.0050 C   0  0  0  0  0  0  0  0  0  0  0  0
    7.6390    3.1530   23.5010 O   0  0  0  0  0  0  0  0  0  0  0  0
   13.4280   -1.8640   20.8550 N   0  0  0  0  0  0  0  0  0  0  0  0
   13.6130   -1.1620   21.9860 C   0  0  0  0  0  0  0  0  0  0  0  0
   10.7970    0.6150   23.6430 C   0  0  0  0  0  0  0  0  0  0  0  0
    9.7920   -0.4730   23.9740 C   0  0  0  0  0  0  0  0  0  0  0  0
   10.1710   -1.8670   23.5770 C   0  0  0  0  0  0  0  0  0  0  0  0
   11.5390   -1.9810   22.9000 C   0  0  0  0  0  0  0  0  0  0  0  0
   12.3390   -0.8710   22.6790 C   0  0  0  0  0  0  0  0  0  0  0  0
   12.0230    0.4230   23.0310 C   0  0  0  0  0  0  0  0  0  0  0  0
    6.3700   -2.5460   21.0710 N   0  0  0  0  0  0  0  0  0  0  0  0
    7.3510   -1.4740   21.1100 C   0  0  0  0  0  0  0  0  0  0  0  0
    8.5050   -1.9070   21.7700 C   0  0  0  0  0  0  0  0  0  0  0  0
    8.2700   -3.0160   22.7360 N   0  0  0  0  0  0  0  0  0  0  0  0
    7.0310   -3.2280   23.2240 C   0  0  0  0  0  0  0  0  0  0  0  0
    5.9380   -3.0460   22.3740 C   0  0  0  0  0  0  0  0  0  0  0  0
    3.7260    0.9130   23.8140 O   0  0  0  0  0  0  0  0  0  0  0  0
    4.3180    0.7640   22.5880 C   0  0  0  0  0  0  0  0  0  0  0  0
    5.7410    1.3370   22.7250 C   0  0  0  0  0  0  0  0  0  0  0  0
    6.4790    1.2380   23.8690 N   0  0  0  0  0  0  0  0  0  0  0  0
    5.7720    1.0140   25.0180 C   0  0  0  0  0  0  0  0  0  0  0  0
    4.5050    0.2060   24.6770 C   0  0  0  0  0  0  0  0  0  0  0  0
  2  4  2  0
  4  5  1  0
  1  6  1  0
  6  7  1  0
  7  8  2  0
  9 10  3  0
  1 11  1  0
 11 12  2  0
  3 13  1  0
 12 13  1  0
 13 14  2  0
 10 15  1  0
 14 15  1  0
 11 16  1  0
 15 16  2  0
  4 17  1  0
 17 18  1  0
 18 19  1  0
  3 20  1  0
 19 20  1  0
 20 21  1  0
 17 22  1  0
 21 22  1  0
 23 24  1  0
 24 25  1  0
  7 26  1  0
 25 26  1  0
 26 27  1  0
 23 28  1  0
 27 28  1  0
M  END
