x0691-x0769
     RDKit          3D

 20 21  0  0  0  0  0  0  0  0999 V2000
    3.9950   -6.9240   25.8580 O   0  0  0  0  0  0  0  0  0  0  0  0
    5.7560   -5.3240   26.6700 O   0  0  0  0  0  0  0  0  0  0  0  0
    5.5620   -4.4090   19.9060 O   0  0  0  0  0  0  0  0  0  0  0  0
    6.5610   -4.4640   20.6390 C   0  0  0  0  0  0  0  0  0  0  0  0
    7.8470   -3.7070   20.3280 C   0  0  0  0  0  0  0  0  0  0  0  0
    3.2890   -0.5120   26.0250 F   0  0  0  0  0  0  0  0  0  0  0  0
    4.7220   -5.6830   25.7320 S   0  0  0  0  0  0  0  0  0  0  0  0
    5.2710   -2.5750   26.0360 F   0  0  0  0  0  0  0  0  0  0  0  0
    2.9620   -1.8000   25.8870 C   0  0  0  0  0  0  0  0  0  0  0  0
    3.9730   -2.8940   25.8880 C   0  0  0  0  0  0  0  0  0  0  0  0
    3.5170   -4.3840   25.7200 C   0  0  0  0  0  0  0  0  0  0  0  0
    1.9980   -4.7280   25.5510 C   0  0  0  0  0  0  0  0  0  0  0  0
    0.9710   -3.5460   25.5580 C   0  0  0  0  0  0  0  0  0  0  0  0
    1.5620   -2.1480   25.7330 C   0  0  0  0  0  0  0  0  0  0  0  0
    6.5720   -5.2180   21.7770 N   0  0  0  0  0  0  0  0  0  0  0  0
    5.5560   -6.2160   22.1120 C   0  0  0  0  0  0  0  0  0  0  0  0
    4.6980   -5.7090   23.1110 C   0  0  0  0  0  0  0  0  0  0  0  0
    5.4400   -5.6530   24.2100 N   0  0  0  0  0  0  0  0  0  0  0  0
    6.7440   -5.0000   24.1250 C   0  0  0  0  0  0  0  0  0  0  0  0
    7.3210   -4.7830   22.8930 C   0  0  0  0  0  0  0  0  0  0  0  0
  3  4  2  0
  4  5  1  0
  1  7  2  0
  2  7  2  0
  6  9  1  0
  8 10  1  0
  9 10  2  0
  7 11  1  0
 10 11  1  0
 11 12  2  0
 12 13  1  0
  9 14  1  0
 13 14  2  0
  4 15  1  0
 15 16  1  0
 16 17  1  0
  7 18  1  0
 17 18  1  0
 18 19  1  0
 15 20  1  0
 19 20  1  0
M  END
