x0691-x2572
     RDKit          3D

 41 44  0  0  0  0  0  0  0  0999 V2000
    3.7580   -6.7840   25.8190 O   0  0  0  0  0  0  0  0  0  0  0  0
    5.7420   -5.5740   26.7930 O   0  0  0  0  0  0  0  0  0  0  0  0
    5.4440   -4.7480   19.9860 O   0  0  0  0  0  0  0  0  0  0  0  0
    6.4180   -4.6260   20.7460 C   0  0  0  0  0  0  0  0  0  0  0  0
    7.5380   -3.6490   20.4540 C   0  0  0  0  0  0  0  0  0  0  0  0
    3.2130   -0.4010   25.7580 O   0  0  0  0  0  0  0  0  0  0  0  0
    4.7010   -5.6920   25.8000 S   0  0  0  0  0  0  0  0  0  0  0  0
    4.7680    1.3920   21.6300 C   0  0  0  0  0  0  0  0  0  0  0  0
    8.8330    1.3180   21.3160 O   0  0  0  0  0  0  0  0  0  0  0  0
    7.0220   -0.3000   21.1900 N   0  0  0  0  0  0  0  0  0  0  0  0
   13.6080   -3.3810   20.5700 N   0  0  0  0  0  0  0  0  0  0  0  0
    8.2250    0.3040   21.7080 C   0  0  0  0  0  0  0  0  0  0  0  0
    8.6580   -0.6000   22.8810 C   0  0  0  0  0  0  0  0  0  0  0  0
   13.0460   -2.3120   21.3530 C   0  0  0  0  0  0  0  0  0  0  0  0
    3.9530   -0.0410   24.8330 C   0  0  0  0  0  0  0  0  0  0  0  0
    3.5220   -0.1900   23.3610 C   0  0  0  0  0  0  0  0  0  0  0  0
    4.7830    0.2620   22.5960 C   0  0  0  0  0  0  0  0  0  0  0  0
    2.9000   -1.7270   25.8640 C   0  0  0  0  0  0  0  0  0  0  0  0
    3.9870   -2.5810   25.7520 C   0  0  0  0  0  0  0  0  0  0  0  0
    3.6900   -3.9110   25.8570 C   0  0  0  0  0  0  0  0  0  0  0  0
    2.4970   -4.5610   26.0570 C   0  0  0  0  0  0  0  0  0  0  0  0
    1.4010   -3.6910   26.1710 C   0  0  0  0  0  0  0  0  0  0  0  0
    1.6140   -2.2890   26.0720 C   0  0  0  0  0  0  0  0  0  0  0  0
    6.5170   -5.3650   21.9060 N   0  0  0  0  0  0  0  0  0  0  0  0
    5.6740   -6.3660   22.1700 C   0  0  0  0  0  0  0  0  0  0  0  0
    4.7770   -6.1940   23.2310 C   0  0  0  0  0  0  0  0  0  0  0  0
    5.4450   -5.6610   24.2800 N   0  0  0  0  0  0  0  0  0  0  0  0
    6.1740   -4.4260   23.9380 C   0  0  0  0  0  0  0  0  0  0  0  0
    7.1360   -4.8710   23.1270 C   0  0  0  0  0  0  0  0  0  0  0  0
    6.3250    0.5550   17.6550 N   0  0  0  0  0  0  0  0  0  0  0  0
    6.9000   -0.0170   18.8540 C   0  0  0  0  0  0  0  0  0  0  0  0
    6.3940    0.2640   20.0970 C   0  0  0  0  0  0  0  0  0  0  0  0
    5.3050    1.0960   20.2440 C   0  0  0  0  0  0  0  0  0  0  0  0
    4.7240    1.6600   19.1090 C   0  0  0  0  0  0  0  0  0  0  0  0
    5.1560    1.4620   17.7770 C   0  0  0  0  0  0  0  0  0  0  0  0
   10.7520    0.6570   23.6820 C   0  0  0  0  0  0  0  0  0  0  0  0
   12.2450    0.8430   23.6960 C   0  0  0  0  0  0  0  0  0  0  0  0
   13.0580   -0.1900   22.8840 C   0  0  0  0  0  0  0  0  0  0  0  0
   12.3940   -1.3330   22.1150 C   0  0  0  0  0  0  0  0  0  0  0  0
   10.8690   -1.3280   22.2330 C   0  0  0  0  0  0  0  0  0  0  0  0
   10.1170   -0.4340   22.9330 C   0  0  0  0  0  0  0  0  0  0  0  0
  3  4  2  0
  4  5  1  0
  1  7  2  0
  2  7  2  0
  9 12  2  0
 10 12  1  0
 12 13  1  0
 11 14  3  0
  6 15  1  0
 15 16  1  0
  8 17  1  0
 16 17  1  0
  6 18  1  0
 18 19  2  0
  7 20  1  0
 19 20  1  0
 20 21  2  0
 21 22  1  0
 18 23  1  0
 22 23  2  0
  4 24  1  0
 24 25  1  0
 25 26  1  0
  7 27  1  0
 26 27  1  0
 27 28  1  0
 24 29  1  0
 28 29  1  0
 30 31  2  0
 10 32  1  0
 31 32  1  0
  8 33  1  0
 32 33  2  0
 33 34  1  0
 30 35  1  0
 34 35  2  0
 36 37  2  0
 37 38  1  0
 14 39  1  0
 38 39  2  0
 39 40  1  0
 13 41  1  0
 36 41  1  0
 40 41  2  0
M  END
