x0691-x3110
     RDKit          3D

 49 52  0  0  0  0  0  0  0  0999 V2000
    8.0350    1.3150   23.3510 N   0  0  0  0  0  0  0  0  0  0  0  0
   13.4230    5.2640   22.7580 C   0  0  0  0  0  0  0  0  0  0  0  0
   12.0470    3.3180   22.3950 O   0  0  0  0  0  0  0  0  0  0  0  0
   12.3640    4.4300   21.9880 C   0  0  0  0  0  0  0  0  0  0  0  0
    7.1820   -1.3540   21.9350 N   0  0  0  0  0  0  0  0  0  0  0  0
   10.9690    4.2840   24.0680 O   0  0  0  0  0  0  0  0  0  0  0  0
   11.2530    3.3480   23.3250 C   0  0  0  0  0  0  0  0  0  0  0  0
    8.7380    1.4360   21.0550 O   0  0  0  0  0  0  0  0  0  0  0  0
   10.5000    2.0670   23.6220 C   0  0  0  0  0  0  0  0  0  0  0  0
    9.0010    2.3130   23.9400 C   0  0  0  0  0  0  0  0  0  0  0  0
    7.9780    0.9980   21.9280 C   0  0  0  0  0  0  0  0  0  0  0  0
    6.7510    0.0650   21.7590 C   0  0  1  0  0  0  0  0  0  0  0  0
   12.2860   -1.9010   24.2750 C   0  0  0  0  0  0  0  0  0  0  0  0
   12.8060   -0.5290   24.6680 C   0  0  0  0  0  0  0  0  0  0  0  0
   13.3230   -1.4070   23.3480 C   0  0  0  0  0  0  0  0  0  0  0  0
   12.8230   -3.0590   25.0780 C   0  0  0  0  0  0  0  0  0  0  0  0
    4.0650   -6.8470   25.9450 O   0  0  0  0  0  0  0  0  0  0  0  0
    5.7270   -5.2370   26.9210 O   0  0  0  0  0  0  0  0  0  0  0  0
    5.6640   -5.2530   19.9670 O   0  0  0  0  0  0  0  0  0  0  0  0
    6.3400   -4.4190   20.5040 C   0  0  0  0  0  0  0  0  0  0  0  0
    7.2280   -3.4330   19.7410 C   0  0  0  0  0  0  0  0  0  0  0  0
    3.0580   -0.5390   25.9660 F   0  0  0  0  0  0  0  0  0  0  0  0
    4.7670   -5.5820   25.9040 S   0  0  0  0  0  0  0  0  0  0  0  0
    6.2920   -2.0890   22.8830 C   0  0  0  0  0  0  0  0  0  0  0  0
    5.4710   -3.0380   22.2820 C   0  0  0  0  0  0  0  0  0  0  0  0
    6.3650    0.3130   17.9260 N   0  0  0  0  0  0  0  0  0  0  0  0
    5.2970    1.1260   17.8530 C   0  0  0  0  0  0  0  0  0  0  0  0
    4.6860    1.5890   18.9760 C   0  0  0  0  0  0  0  0  0  0  0  0
    5.1490    1.2430   20.3180 C   0  0  0  0  0  0  0  0  0  0  0  0
    6.2180    0.4380   20.3860 C   0  0  0  0  0  0  0  0  0  0  0  0
    6.8420   -0.0450   19.2170 C   0  0  0  0  0  0  0  0  0  0  0  0
    9.5290   -1.9780   21.8380 C   0  0  0  0  0  0  0  0  0  0  0  0
   10.7530   -2.1140   22.4050 C   0  0  0  0  0  0  0  0  0  0  0  0
   10.9490   -1.7680   23.7060 C   0  0  0  0  0  0  0  0  0  0  0  0
    9.9150   -1.2720   24.4970 C   0  0  0  0  0  0  0  0  0  0  0  0
    8.5930   -1.0870   24.0150 C   0  0  0  0  0  0  0  0  0  0  0  0
    8.4580   -1.4940   22.5290 C   0  0  0  0  0  0  0  0  0  0  0  0
    2.8700   -1.8640   25.8950 C   0  0  0  0  0  0  0  0  0  0  0  0
    4.0490   -2.8210   25.9470 C   0  0  0  0  0  0  0  0  0  0  0  0
    3.5460   -4.2890   25.8490 C   0  0  0  0  0  0  0  0  0  0  0  0
    2.1890   -4.6210   25.7260 C   0  0  0  0  0  0  0  0  0  0  0  0
    1.2050   -3.6440   25.6880 C   0  0  0  0  0  0  0  0  0  0  0  0
    1.5600   -2.3110   25.7740 C   0  0  0  0  0  0  0  0  0  0  0  0
    6.1390   -4.4200   21.9990 C   0  0  0  0  0  0  0  0  0  0  0  0
    5.0550   -5.5430   22.1270 C   0  0  0  0  0  0  0  0  0  0  0  0
    5.1420   -6.3750   23.3690 C   0  0  0  0  0  0  0  0  0  0  0  0
    5.5270   -5.4330   24.4090 N   0  0  0  0  0  0  0  0  0  0  0  0
    6.9380   -4.9690   24.3300 C   0  0  0  0  0  0  0  0  0  0  0  0
    7.3600   -4.7420   22.8770 C   0  0  0  0  0  0  0  0  0  0  0  0
  2  4  1  0
  3  4  1  0
  3  7  1  0
  6  7  2  0
  7  9  1  0
  1 10  1  0
  9 10  1  0
  1 11  1  0
  8 11  2  0
  5 12  1  0
 12 11  1  6
 13 14  1  0
 13 15  1  0
 13 16  1  0
 19 20  2  0
 20 21  1  0
 17 23  2  0
 18 23  2  0
  5 24  1  0
 24 25  1  0
 26 27  2  0
 27 28  1  0
 28 29  2  0
 12 30  1  0
 29 30  1  0
 26 31  1  0
 30 31  2  0
 32 33  2  0
 13 34  1  0
 33 34  1  0
 34 35  2  0
 35 36  1  0
  5 37  1  0
 32 37  1  0
 36 37  2  0
 22 38  1  0
 38 39  2  0
 23 40  1  0
 39 40  1  0
 40 41  2  0
 41 42  1  0
 38 43  1  0
 42 43  2  0
 44 20  1  0
 25 44  1  0
 44 45  1  0
 45 46  1  0
 23 47  1  0
 46 47  1  0
 47 48  1  0
 44 49  1  0
 48 49  1  0
M  END
