x0691-x2600
     RDKit          3D

 40 43  0  0  0  0  0  0  0  0999 V2000
    4.0950   -6.8450   25.8910 O   0  0  0  0  0  0  0  0  0  0  0  0
    5.7540   -5.2150   26.8680 O   0  0  0  0  0  0  0  0  0  0  0  0
    5.6220   -4.5900   19.9030 O   0  0  0  0  0  0  0  0  0  0  0  0
    6.4600   -4.3370   20.7520 C   0  0  0  0  0  0  0  0  0  0  0  0
    7.8100   -3.6940   20.4800 C   0  0  0  0  0  0  0  0  0  0  0  0
    3.2060   -0.6430   25.9620 F   0  0  0  0  0  0  0  0  0  0  0  0
    4.7920   -5.5800   25.8560 S   0  0  0  0  0  0  0  0  0  0  0  0
   13.7240   -3.1830   20.5400 N   0  0  0  0  0  0  0  0  0  0  0  0
    8.0680    0.2690   21.7260 C   0  0  0  0  0  0  0  0  0  0  0  0
    8.6780    1.2540   21.2340 O   0  0  0  0  0  0  0  0  0  0  0  0
    8.6210   -0.4970   22.9040 C   0  0  0  0  0  0  0  0  0  0  0  0
    6.8030   -0.2950   21.2750 N   0  0  0  0  0  0  0  0  0  0  0  0
   13.0580   -2.1610   21.3850 C   0  0  0  0  0  0  0  0  0  0  0  0
    5.4830   -3.2680   22.6020 C   0  0  0  0  0  0  0  0  0  0  0  0
    6.5710   -2.1690   22.7350 C   0  0  0  0  0  0  0  0  0  0  0  0
    6.8740   -1.7860   21.2680 C   0  0  0  0  0  0  0  0  0  0  0  0
    2.9090   -1.9470   25.8790 C   0  0  0  0  0  0  0  0  0  0  0  0
    3.9090   -2.9390   25.9010 C   0  0  0  0  0  0  0  0  0  0  0  0
    3.5570   -4.2930   25.8150 C   0  0  0  0  0  0  0  0  0  0  0  0
    2.2090   -4.5840   25.7030 C   0  0  0  0  0  0  0  0  0  0  0  0
    1.2220   -3.6340   25.6780 C   0  0  0  0  0  0  0  0  0  0  0  0
    1.5450   -2.2890   25.7690 C   0  0  0  0  0  0  0  0  0  0  0  0
    6.0670   -4.6180   22.2150 C   0  0  0  0  0  0  0  0  0  0  0  0
    5.0290   -5.5490   22.1780 C   0  0  0  0  0  0  0  0  0  0  0  0
    5.2450   -6.3550   23.2610 C   0  0  0  0  0  0  0  0  0  0  0  0
    5.5800   -5.4690   24.3670 N   0  0  0  0  0  0  0  0  0  0  0  0
    6.7320   -4.7020   24.2030 C   0  0  0  0  0  0  0  0  0  0  0  0
    7.2270   -4.9090   22.9670 C   0  0  0  0  0  0  0  0  0  0  0  0
    6.3250    0.6660   17.6760 N   0  0  0  0  0  0  0  0  0  0  0  0
    6.8380    0.0990   18.7760 C   0  0  0  0  0  0  0  0  0  0  0  0
    6.2990    0.2770   20.0450 C   0  0  0  0  0  0  0  0  0  0  0  0
    5.1760    1.0600   20.2220 C   0  0  0  0  0  0  0  0  0  0  0  0
    4.6240    1.6520   19.1030 C   0  0  0  0  0  0  0  0  0  0  0  0
    5.2260    1.4340   17.8560 C   0  0  0  0  0  0  0  0  0  0  0  0
   10.7050    0.6880   23.7380 C   0  0  0  0  0  0  0  0  0  0  0  0
   12.2000    0.8600   23.7830 C   0  0  0  0  0  0  0  0  0  0  0  0
   13.0420   -0.1350   22.9630 C   0  0  0  0  0  0  0  0  0  0  0  0
   12.3680   -1.2290   22.1550 C   0  0  0  0  0  0  0  0  0  0  0  0
   10.8440   -1.2450   22.2240 C   0  0  0  0  0  0  0  0  0  0  0  0
   10.0910   -0.3730   22.9410 C   0  0  0  0  0  0  0  0  0  0  0  0
  3  4  2  0
  4  5  1  0
  1  7  2  0
  2  7  2  0
  9 10  2  0
  9 11  1  0
  9 12  1  0
  8 13  3  0
 14 15  1  0
 12 16  1  0
 15 16  1  0
  6 17  1  0
 17 18  2  0
  7 19  1  0
 18 19  1  0
 19 20  2  0
 20 21  1  0
 17 22  1  0
 21 22  2  0
 23  4  1  0
 14 23  1  0
 23 24  1  0
 24 25  1  0
  7 26  1  0
 25 26  1  0
 26 27  1  0
 23 28  1  0
 27 28  1  0
 29 30  2  0
 12 31  1  0
 30 31  1  0
 31 32  2  0
 32 33  1  0
 29 34  1  0
 33 34  2  0
 35 36  2  0
 36 37  1  0
 13 38  1  0
 37 38  2  0
 38 39  1  0
 11 40  1  0
 35 40  1  0
 39 40  2  0
M  END
