x0692-x0946
     RDKit          3D

 24 26  0  0  0  0  0  0  0  0999 V2000
    5.4620   -4.1240   19.7490 O   0  0  0  0  0  0  0  0  0  0  0  0
    9.3950   -2.5360   23.8980 C   0  0  0  0  0  0  0  0  0  0  0  0
    6.3310   -3.2480   19.8830 C   0  0  0  0  0  0  0  0  0  0  0  0
    7.2930   -2.9890   18.7370 C   0  0  0  0  0  0  0  0  0  0  0  0
    9.2160    5.2910   22.7490 N   0  0  0  0  0  0  0  0  0  0  0  0
   10.2490    5.5840   25.0210 O   0  0  0  0  0  0  0  0  0  0  0  0
   11.5900    6.3020   23.1380 O   0  0  0  0  0  0  0  0  0  0  0  0
   10.6550    5.3310   23.6570 S   0  0  0  0  0  0  0  0  0  0  0  0
   10.8770    1.2440   23.5420 C   0  0  0  0  0  0  0  0  0  0  0  0
    9.9180    0.0730   23.8390 C   0  0  0  0  0  0  0  0  0  0  0  0
   10.3530   -1.3940   23.6420 C   0  0  0  0  0  0  0  0  0  0  0  0
   11.7850   -1.7410   23.1610 C   0  0  0  0  0  0  0  0  0  0  0  0
   12.7610   -0.5950   22.8680 C   0  0  0  0  0  0  0  0  0  0  0  0
   12.2920    0.8280   23.0520 C   0  0  0  0  0  0  0  0  0  0  0  0
    6.4770   -2.5000   21.0580 N   0  0  0  0  0  0  0  0  0  0  0  0
    7.5200   -1.4660   21.0560 C   0  0  0  0  0  0  0  0  0  0  0  0
    8.6520   -1.9180   21.7630 C   0  0  0  0  0  0  0  0  0  0  0  0
    8.2980   -2.5830   22.9680 N   0  0  0  0  0  0  0  0  0  0  0  0
    7.3860   -3.7180   22.7910 C   0  0  0  0  0  0  0  0  0  0  0  0
    6.1760   -3.2750   22.2630 C   0  0  0  0  0  0  0  0  0  0  0  0
   12.9880    2.2030   22.8280 C   0  0  0  0  0  0  0  0  0  0  0  0
   12.5360    3.5140   22.9900 C   0  0  0  0  0  0  0  0  0  0  0  0
   11.2820    3.7460   23.4280 C   0  0  0  0  0  0  0  0  0  0  0  0
   10.3730    2.6150   23.7350 C   0  0  0  0  0  0  0  0  0  0  0  0
  1  3  2  0
  3  4  1  0
  8  5  1  0
  6  8  2  0
  7  8  2  0
  9 10  2  0
  2 11  1  0
 10 11  1  0
 11 12  2  0
 12 13  1  0
  9 14  1  0
 13 14  2  0
  3 15  1  0
 15 16  1  0
 16 17  1  0
  2 18  1  0
 17 18  1  0
 18 19  1  0
 15 20  1  0
 19 20  1  0
 14 21  1  0
 21 22  2  0
  8 23  1  0
 22 23  1  0
  9 24  1  0
 23 24  2  0
M  END
