x0692-x2694-x1385
     RDKit          3D

 43 47  0  0  0  0  0  0  0  0999 V2000
    7.6850    2.2760   22.8570 N   0  0  0  0  0  0  0  0  0  0  0  0
    9.2550    1.4110   21.1300 O   0  0  0  0  0  0  0  0  0  0  0  0
   10.9630    6.7370   23.9210 O   0  0  0  0  0  0  0  0  0  0  0  0
    7.0760    0.1180   21.5560 C   0  0  1  0  0  0  0  0  0  0  0  0
    8.0650    1.2680   21.8470 C   0  0  0  0  0  0  0  0  0  0  0  0
   10.2980    1.8890   24.0090 C   0  0  0  0  0  0  0  0  0  0  0  0
   11.8730    6.6160   24.7460 C   0  0  0  0  0  0  0  0  0  0  0  0
   12.3610   -1.1240   23.0460 C   0  0  0  0  0  0  0  0  0  0  0  0
   12.7640    0.1810   23.2380 C   0  0  0  0  0  0  0  0  0  0  0  0
   12.9920   -1.6980   21.7600 C   0  0  0  0  0  0  0  0  0  0  0  0
   12.8980   -1.9640   24.2440 C   0  0  0  0  0  0  0  0  0  0  0  0
    5.5260   -3.9770   19.7360 O   0  0  0  0  0  0  0  0  0  0  0  0
    9.5230   -2.8030   24.4540 C   0  0  0  0  0  0  0  0  0  0  0  0
    6.4100   -3.0760   19.8800 C   0  0  0  0  0  0  0  0  0  0  0  0
    7.3410   -2.8980   18.7020 C   0  0  0  0  0  0  0  0  0  0  0  0
    6.8780   -6.0440   28.5620 Br  0  0  0  0  0  0  0  0  0  0  0  0
    6.3420    0.5520   17.7850 N   0  0  0  0  0  0  0  0  0  0  0  0
    5.1820    1.3420   17.8600 C   0  0  0  0  0  0  0  0  0  0  0  0
    4.6160    1.7300   19.0810 C   0  0  0  0  0  0  0  0  0  0  0  0
    5.1810    1.3580   20.3040 C   0  0  0  0  0  0  0  0  0  0  0  0
    6.3350    0.5820   20.3210 C   0  0  0  0  0  0  0  0  0  0  0  0
    6.8550    0.2120   19.0960 C   0  0  0  0  0  0  0  0  0  0  0  0
    8.7920   -1.8090   23.8160 N   0  0  0  0  0  0  0  0  0  0  0  0
    9.9070   -0.8430   23.9730 O   0  0  0  0  0  0  0  0  0  0  0  0
   10.7860   -1.2930   23.0420 C   0  0  0  0  0  0  0  0  0  0  0  0
   10.0610   -1.9670   22.0900 C   0  0  0  0  0  0  0  0  0  0  0  0
    8.7290   -2.1010   22.3750 C   0  0  2  0  0  0  0  0  0  0  0  0
    9.7810    3.2450   23.6740 C   0  0  0  0  0  0  0  0  0  0  0  0
   10.6460    4.3110   23.9570 C   0  0  0  0  0  0  0  0  0  0  0  0
   10.2210    5.6140   23.6770 C   0  0  0  0  0  0  0  0  0  0  0  0
    8.9620    5.8340   23.1100 C   0  0  0  0  0  0  0  0  0  0  0  0
    8.1340    4.7600   22.8380 C   0  0  0  0  0  0  0  0  0  0  0  0
    8.5200    3.4440   23.1160 C   0  0  0  0  0  0  0  0  0  0  0  0
    6.6040   -2.2680   21.0660 N   0  0  0  0  0  0  0  0  0  0  0  0
    7.7070   -1.3440   21.3500 C   0  0  1  0  0  0  0  0  0  0  0  0
    8.2450   -3.3840   22.4160 N   0  0  0  0  0  0  0  0  0  0  0  0
    6.9240   -3.4820   22.8300 C   0  0  0  0  0  0  0  0  0  0  0  0
    6.1070   -2.7220   22.0130 C   0  0  0  0  0  0  0  0  0  0  0  0
    9.7800   -4.9220   25.8670 C   0  0  0  0  0  0  0  0  0  0  0  0
    9.0390   -3.7690   25.4720 C   0  0  0  0  0  0  0  0  0  0  0  0
    7.5570   -3.7620   26.4030 S   0  0  0  0  0  0  0  0  0  0  0  0
    7.9950   -5.2510   27.2440 C   0  0  0  0  0  0  0  0  0  0  0  0
    9.2210   -5.7110   26.8060 C   0  0  0  0  0  0  0  0  0  0  0  0
  1  5  1  0
  2  5  2  0
  4  5  1  6
  3  7  1  0
  8  9  1  0
  8 10  1  0
  8 11  1  0
 12 14  2  0
 14 15  1  0
 17 18  2  0
 18 19  1  0
 19 20  2  0
  4 21  1  0
 20 21  1  0
 17 22  1  0
 21 22  2  0
 13 23  1  0
 23 24  1  0
  8 25  1  0
 24 25  1  0
 25 26  2  0
 23 27  1  0
 27 26  1  6
  6 28  1  0
 28 29  2  0
  3 30  1  0
 29 30  1  0
 30 31  2  0
 31 32  1  0
  1 33  1  0
 28 33  1  0
 32 33  2  0
 14 34  1  0
  4 35  1  0
 27 35  1  0
 35 34  1  1
 27 36  1  0
 36 37  1  0
 34 38  1  0
 37 38  1  0
 13 40  1  0
 39 40  2  0
 40 41  1  0
 16 42  1  0
 41 42  1  0
 39 43  1  0
 42 43  2  0
M  END
