x0692-x2649
     RDKit          3D

 29 32  0  0  0  0  0  0  0  0999 V2000
    7.2100   -0.0490   23.3290 C   0  0  0  0  0  0  0  0  0  0  0  0
    9.9040   -0.3070   21.3550 O   0  0  0  0  0  0  0  0  0  0  0  0
    8.8020   -0.8300   21.3810 C   0  0  0  0  0  0  0  0  0  0  0  0
    5.4740   -4.0050   19.6900 O   0  0  0  0  0  0  0  0  0  0  0  0
    6.5270   -3.3680   19.8650 C   0  0  0  0  0  0  0  0  0  0  0  0
    7.4510   -3.0670   18.7400 C   0  0  0  0  0  0  0  0  0  0  0  0
    6.9990   -2.9410   21.0800 N   0  0  0  0  0  0  0  0  0  0  0  0
    7.3800   -1.5370   21.1450 C   0  0  1  0  0  0  0  0  0  0  0  0
    7.8060   -1.1560   22.4840 C   0  0  2  0  0  0  0  0  0  0  0  0
    8.1850   -2.3890   23.1180 N   0  0  0  0  0  0  0  0  0  0  0  0
    7.3990   -3.4570   23.3660 C   0  0  0  0  0  0  0  0  0  0  0  0
    6.3140   -3.4890   22.2790 C   0  0  0  0  0  0  0  0  0  0  0  0
   13.2570   -2.0780   21.2640 Cl  0  0  0  0  0  0  0  0  0  0  0  0
   11.5200    2.2200   23.6060 C   0  0  0  0  0  0  0  0  0  0  0  0
   10.3360   -0.0260   23.8870 C   0  0  0  0  0  0  0  0  0  0  0  0
   11.3720    0.7230   23.3620 C   0  0  0  0  0  0  0  0  0  0  0  0
   12.3260    0.1390   22.5630 C   0  0  0  0  0  0  0  0  0  0  0  0
   12.2070   -1.2140   22.2650 C   0  0  0  0  0  0  0  0  0  0  0  0
   11.1630   -1.9500   22.7880 C   0  0  0  0  0  0  0  0  0  0  0  0
   10.2190   -1.3800   23.6090 C   0  0  0  0  0  0  0  0  0  0  0  0
    9.2220   -2.2030   24.0970 C   0  0  0  0  0  0  0  0  0  0  0  0
    3.8620    1.7990   21.1270 C   0  0  0  0  0  0  0  0  0  0  0  0
    6.2570    0.5280   17.9310 N   0  0  0  0  0  0  0  0  0  0  0  0
    5.3270    1.6020   17.6910 C   0  0  0  0  0  0  0  0  0  0  0  0
    4.4180    2.1640   18.6900 C   0  0  0  0  0  0  0  0  0  0  0  0
    4.6660    1.4180   19.9190 C   0  0  0  0  0  0  0  0  0  0  0  0
    5.5820    0.4130   19.9950 C   0  0  0  0  0  0  0  0  0  0  0  0
    6.5200   -0.2550   19.1760 C   0  0  0  0  0  0  0  0  0  0  0  0
    6.4050   -0.6760   20.4990 C   0  0  0  0  0  0  0  0  0  0  0  0
  2  3  2  0
  4  5  2  0
  5  6  1  0
  5  7  1  0
  3  8  1  0
  7  8  1  0
  9  1  1  1
  3  9  1  0
  8  9  1  0
  9 10  1  0
 10 11  1  0
  7 12  1  0
 11 12  1  0
 14 16  1  0
 15 16  2  0
 16 17  1  0
 13 18  1  0
 17 18  2  0
 18 19  1  0
 15 20  1  0
 19 20  2  0
 10 21  1  0
 20 21  1  0
 23 24  2  0
 24 25  1  0
 22 26  1  0
 25 26  2  0
 26 27  1  0
 23 28  1  0
 27 28  2  0
  8 29  1  6
 28 29  1  0
M  END
