x0691-x2964
     RDKit          3D

 40 43  0  0  0  0  0  0  0  0999 V2000
    4.0690   -6.9340   25.9380 O   0  0  0  0  0  0  0  0  0  0  0  0
    5.7770   -5.3080   26.8270 O   0  0  0  0  0  0  0  0  0  0  0  0
    5.7200   -4.3270   19.8320 O   0  0  0  0  0  0  0  0  0  0  0  0
    6.6340   -4.2570   20.6510 C   0  0  0  0  0  0  0  0  0  0  0  0
    8.0250   -3.7130   20.3580 C   0  0  0  0  0  0  0  0  0  0  0  0
    3.1460   -0.5300   25.9670 F   0  0  0  0  0  0  0  0  0  0  0  0
    4.7720   -5.6760   25.8570 S   0  0  0  0  0  0  0  0  0  0  0  0
    3.3100    2.0900   19.2310 N   0  0  0  0  0  0  0  0  0  0  0  0
    8.6010    1.4080   21.0910 O   0  0  0  0  0  0  0  0  0  0  0  0
   13.3710   -1.9850   21.2460 Cl  0  0  0  0  0  0  0  0  0  0  0  0
    7.2090   -0.2970   20.9530 N   0  0  0  0  0  0  0  0  0  0  0  0
    8.7600   -0.2790   22.7060 N   0  0  0  0  0  0  0  0  0  0  0  0
    8.1660    0.3230   21.5340 C   0  0  0  0  0  0  0  0  0  0  0  0
    5.6160   -3.3370   22.5300 C   0  0  0  0  0  0  0  0  0  0  0  0
    6.7610   -2.3680   22.9490 C   0  0  0  0  0  0  0  0  0  0  0  0
    6.7360   -1.3690   21.8040 C   0  0  0  0  0  0  0  0  0  0  0  0
    2.8840   -1.8400   25.8880 C   0  0  0  0  0  0  0  0  0  0  0  0
    4.0080   -2.8800   25.9170 C   0  0  0  0  0  0  0  0  0  0  0  0
    3.5760   -4.3740   25.8210 C   0  0  0  0  0  0  0  0  0  0  0  0
    2.1830   -4.5880   25.7130 C   0  0  0  0  0  0  0  0  0  0  0  0
    1.1790   -3.6190   25.6880 C   0  0  0  0  0  0  0  0  0  0  0  0
    1.4300   -2.2630   25.7720 C   0  0  0  0  0  0  0  0  0  0  0  0
    6.2710   -4.7030   22.0670 C   0  0  0  0  0  0  0  0  0  0  0  0
    5.4940   -5.8310   22.0590 C   0  0  0  0  0  0  0  0  0  0  0  0
    4.7360   -5.8810   23.2280 C   0  0  0  0  0  0  0  0  0  0  0  0
    5.4790   -5.5910   24.3350 N   0  0  0  0  0  0  0  0  0  0  0  0
    6.9070   -5.1520   24.1880 C   0  0  0  0  0  0  0  0  0  0  0  0
    7.4640   -5.0180   22.9250 C   0  0  0  0  0  0  0  0  0  0  0  0
    4.5320    1.4310   19.1630 C   0  0  0  0  0  0  0  0  0  0  0  0
    5.1830    0.9130   20.2140 C   0  0  0  0  0  0  0  0  0  0  0  0
    6.4040    0.2740   19.9840 C   0  0  0  0  0  0  0  0  0  0  0  0
    6.8830    0.1930   18.6880 C   0  0  0  0  0  0  0  0  0  0  0  0
    6.3250    0.6760   17.5930 N   0  0  0  0  0  0  0  0  0  0  0  0
    5.1720    1.2890   17.8180 C   0  0  0  0  0  0  0  0  0  0  0  0
   10.6660    0.8210   23.6220 C   0  0  0  0  0  0  0  0  0  0  0  0
   12.0220    0.9660   23.7120 C   0  0  0  0  0  0  0  0  0  0  0  0
   12.9490    0.1610   23.0360 C   0  0  0  0  0  0  0  0  0  0  0  0
   12.4080   -0.9680   22.1350 C   0  0  0  0  0  0  0  0  0  0  0  0
   10.9010   -1.1590   22.0220 C   0  0  0  0  0  0  0  0  0  0  0  0
   10.1670   -0.1620   22.8310 C   0  0  0  0  0  0  0  0  0  0  0  0
  3  4  2  0
  4  5  1  0
  1  7  2  0
  2  7  2  0
  9 13  2  0
 11 13  1  0
 12 13  1  0
 14 15  1  0
 11 16  1  0
 15 16  1  0
  6 17  1  0
 17 18  2  0
  7 19  1  0
 18 19  1  0
 19 20  2  0
 20 21  1  0
 17 22  1  0
 21 22  2  0
 23  4  1  0
 14 23  1  0
 23 24  1  0
 24 25  1  0
  7 26  1  0
 25 26  1  0
 26 27  1  0
 23 28  1  0
 27 28  1  0
  8 29  1  0
 29 30  2  0
 11 31  1  0
 30 31  1  0
 31 32  2  0
 32 33  1  0
 29 34  1  0
 33 34  2  0
 35 36  2  0
 36 37  1  0
 10 38  1  0
 37 38  2  0
 38 39  1  0
 12 40  1  0
 35 40  1  0
 39 40  2  0
M  END
