x0692-x0831
     RDKit          3D

 18 19  0  0  0  0  0  0  0  0999 V2000
   10.6760    2.6310   23.8830 C   0  0  0  0  0  0  0  0  0  0  0  0
    5.4660   -4.1320   19.7410 O   0  0  0  0  0  0  0  0  0  0  0  0
    9.4730   -2.2760   23.8890 C   0  0  0  0  0  0  0  0  0  0  0  0
    6.3200   -3.2270   19.8860 C   0  0  0  0  0  0  0  0  0  0  0  0
    7.2940   -2.9710   18.7370 C   0  0  0  0  0  0  0  0  0  0  0  0
   12.7980   -2.5010   22.7470 C   0  0  0  0  0  0  0  0  0  0  0  0
   11.1370    1.1930   23.6320 C   0  0  0  0  0  0  0  0  0  0  0  0
   10.2130    0.1390   23.8600 C   0  0  0  0  0  0  0  0  0  0  0  0
   10.5220   -1.2120   23.6400 C   0  0  0  0  0  0  0  0  0  0  0  0
   11.8030   -1.4180   23.1880 C   0  0  0  0  0  0  0  0  0  0  0  0
   12.7980   -0.5500   22.9300 C   0  0  0  0  0  0  0  0  0  0  0  0
   12.4380    0.8960   23.1740 C   0  0  0  0  0  0  0  0  0  0  0  0
    6.4490   -2.4510   21.0460 N   0  0  0  0  0  0  0  0  0  0  0  0
    7.2570   -1.1950   21.1210 C   0  0  0  0  0  0  0  0  0  0  0  0
    8.4920   -1.6480   21.5700 C   0  0  0  0  0  0  0  0  0  0  0  0
    8.3650   -2.2440   22.9300 N   0  0  0  0  0  0  0  0  0  0  0  0
    7.4520   -3.4120   22.9740 C   0  0  0  0  0  0  0  0  0  0  0  0
    6.3100   -3.1050   22.2160 C   0  0  0  0  0  0  0  0  0  0  0  0
  2  4  2  0
  4  5  1  0
  1  7  1  0
  7  8  2  0
  3  9  1  0
  8  9  1  0
  6 10  1  0
  9 10  2  0
 10 11  1  0
  7 12  1  0
 11 12  2  0
  4 13  1  0
 13 14  1  0
 14 15  1  0
  3 16  1  0
 15 16  1  0
 16 17  1  0
 13 18  1  0
 17 18  1  0
M  END
