x0692-x1412
     RDKit          3D

 24 26  0  0  0  0  0  0  0  0999 V2000
   11.1680    2.4320   23.6870 C   0  0  0  0  0  0  0  0  0  0  0  0
    5.3490   -4.1370   19.7170 O   0  0  0  0  0  0  0  0  0  0  0  0
    9.1340   -2.2630   23.8950 C   0  0  2  0  0  0  0  0  0  0  0  0
    6.1850   -3.2350   19.8260 C   0  0  0  0  0  0  0  0  0  0  0  0
    7.1420   -2.9520   18.6840 C   0  0  0  0  0  0  0  0  0  0  0  0
    8.8480   -1.8080   25.0070 O   0  0  0  0  0  0  0  0  0  0  0  0
   11.3630    0.9830   23.4380 C   0  0  0  0  0  0  0  0  0  0  0  0
   10.2460    0.0370   23.7670 C   0  0  0  0  0  0  0  0  0  0  0  0
   10.3360   -1.4650   23.5160 C   0  0  0  0  0  0  0  0  0  0  0  0
   11.6550   -2.0000   22.8880 C   0  0  0  0  0  0  0  0  0  0  0  0
   12.8250   -1.0550   22.5570 C   0  0  0  0  0  0  0  0  0  0  0  0
   12.6430    0.4590   22.8540 C   0  0  0  0  0  0  0  0  0  0  0  0
    6.3190   -2.4760   20.9730 N   0  0  0  0  0  0  0  0  0  0  0  0
    7.2650   -1.3620   21.0320 C   0  0  0  0  0  0  0  0  0  0  0  0
    8.4730   -1.6280   21.6400 C   0  0  0  0  0  0  0  0  0  0  0  0
    8.2090   -2.2270   22.8890 N   0  0  0  0  0  0  0  0  0  0  0  0
    7.3320   -3.4100   22.8270 C   0  0  0  0  0  0  0  0  0  0  0  0
    6.0860   -3.0540   22.3070 C   0  0  0  0  0  0  0  0  0  0  0  0
    9.0970   -4.2790   25.4320 C   0  0  0  0  0  0  0  0  0  0  0  0
    8.1360   -3.5990   26.1850 C   0  0  0  0  0  0  0  0  0  0  0  0
    7.6570   -4.3580   27.6440 S   0  0  0  0  0  0  0  0  0  0  0  0
    8.7040   -5.6640   27.3540 C   0  0  0  0  0  0  0  0  0  0  0  0
    9.4760   -5.5030   26.0510 C   0  0  0  0  0  0  0  0  0  0  0  0
    9.5350   -3.7020   24.2520 C   0  0  0  0  0  0  0  0  0  0  0  0
  2  4  2  0
  4  5  1  0
  3  6  1  1
  1  7  1  0
  7  8  2  0
  3  9  1  0
  8  9  1  0
  9 10  2  0
 10 11  1  0
  7 12  1  0
 11 12  2  0
  4 13  1  0
 13 14  1  0
 14 15  1  0
  3 16  1  0
 15 16  1  0
 16 17  1  0
 13 18  1  0
 17 18  1  0
 19 20  2  0
 20 21  1  0
 21 22  1  0
 19 23  1  0
 22 23  2  0
  3 24  1  0
 19 24  1  0
M  END
