x0692-x0978-x1334-x2694
     RDKit          3D

 56 60  0  0  0  0  0  0  0  0999 V2000
    7.7590    2.2330   22.8330 N   0  0  0  0  0  0  0  0  0  0  0  0
    9.2650    1.4710   21.1460 O   0  0  0  0  0  0  0  0  0  0  0  0
   10.9400    6.6920   23.9030 O   0  0  0  0  0  0  0  0  0  0  0  0
    7.1040    0.1590   21.5790 C   0  0  1  0  0  0  0  0  0  0  0  0
    8.0830    1.3070   21.8810 C   0  0  0  0  0  0  0  0  0  0  0  0
   10.2910    1.8880   24.0500 C   0  0  0  0  0  0  0  0  0  0  0  0
   11.8810    6.5280   24.9640 C   0  0  0  0  0  0  0  0  0  0  0  0
   12.4340   -1.1720   23.2830 C   0  0  0  0  0  0  0  0  0  0  0  0
   12.7160    0.2900   23.4640 C   0  0  0  0  0  0  0  0  0  0  0  0
   13.0820   -1.6830   21.9950 C   0  0  0  0  0  0  0  0  0  0  0  0
   13.0070   -1.9740   24.4780 C   0  0  0  0  0  0  0  0  0  0  0  0
    5.4840   -3.9110   19.6800 O   0  0  0  0  0  0  0  0  0  0  0  0
    9.6990   -3.0220   24.1910 C   0  0  0  0  0  0  0  0  0  0  0  0
    6.4090   -3.0890   19.8740 C   0  0  0  0  0  0  0  0  0  0  0  0
    7.3480   -2.8800   18.7260 C   0  0  0  0  0  0  0  0  0  0  0  0
    7.2440   -5.7900   28.3610 Cl  0  0  0  0  0  0  0  0  0  0  0  0
    6.2660    0.6330   17.6680 N   0  0  0  0  0  0  0  0  0  0  0  0
    5.1870    1.4240   17.7390 C   0  0  0  0  0  0  0  0  0  0  0  0
    4.5750    1.8890   19.0430 C   0  0  0  0  0  0  0  0  0  0  0  0
    5.1990    1.4700   20.3440 C   0  0  0  0  0  0  0  0  0  0  0  0
    6.4010    0.6070   20.3400 C   0  0  0  0  0  0  0  0  0  0  0  0
    6.8450    0.2410   18.9230 C   0  0  0  0  0  0  0  0  0  0  0  0
    8.9750   -1.9080   23.7880 N   0  0  0  0  0  0  0  0  0  0  0  0
   10.1570   -1.0060   23.9960 O   0  0  0  0  0  0  0  0  0  0  0  0
   10.9590   -1.3540   23.1120 C   0  0  0  0  0  0  0  0  0  0  0  0
   10.1710   -1.9220   22.0280 C   0  0  0  0  0  0  0  0  0  0  0  0
    8.9050   -1.9180   22.4070 C   0  0  2  0  0  0  0  0  0  0  0  0
    9.7620    3.2370   23.6690 C   0  0  0  0  0  0  0  0  0  0  0  0
   10.5290    4.3100   23.9220 C   0  0  0  0  0  0  0  0  0  0  0  0
   10.0980    5.5740   23.6030 C   0  0  0  0  0  0  0  0  0  0  0  0
    8.8930    5.8160   23.0110 C   0  0  0  0  0  0  0  0  0  0  0  0
    8.0840    4.6650   22.7420 C   0  0  0  0  0  0  0  0  0  0  0  0
    8.5180    3.4040   23.0730 C   0  0  0  0  0  0  0  0  0  0  0  0
    6.6380   -2.3860   21.1520 N   0  0  0  0  0  0  0  0  0  0  0  0
    7.7390   -1.3020   21.4310 C   0  0  1  0  0  0  0  0  0  0  0  0
    8.5170   -3.3020   22.3780 N   0  0  0  0  0  0  0  0  0  0  0  0
    7.3620   -3.5530   23.0080 C   0  0  0  0  0  0  0  0  0  0  0  0
    6.2770   -3.0920   22.2400 C   0  0  2  0  0  0  0  0  0  0  0  0
    9.8460   -5.1710   25.4380 C   0  0  0  0  0  0  0  0  0  0  0  0
    9.2040   -3.9640   25.2600 C   0  0  0  0  0  0  0  0  0  0  0  0
    7.9040   -3.7480   26.3470 S   0  0  0  0  0  0  0  0  0  0  0  0
    8.2120   -5.2510   27.0590 C   0  0  0  0  0  0  0  0  0  0  0  0
    9.2720   -5.9200   26.4840 C   0  0  0  0  0  0  0  0  0  0  0  0
    1.8490   -5.7530   23.2890 N   0  0  0  0  0  0  0  0  0  0  0  0
    2.1710   -7.3570   25.3800 C   0  0  0  0  0  0  0  0  0  0  0  0
    4.2700   -7.8680   24.6650 O   0  0  0  0  0  0  0  0  0  0  0  0
    2.9500   -7.6500   24.1920 C   0  0  2  0  0  0  0  0  0  0  0  0
    5.3410   -6.3760   22.5760 N   0  0  0  0  0  0  0  0  0  0  0  0
    0.3770   -7.2470   21.7180 O   0  0  0  0  0  0  0  0  0  0  0  0
    2.9980   -6.6830   23.2270 C   0  0  2  0  0  0  0  0  0  0  0  0
    4.3230   -4.7350   23.8530 O   0  0  0  0  0  0  0  0  0  0  0  0
    0.6270   -6.1240   22.5810 C   0  0  0  0  0  0  0  0  0  0  0  0
   -0.5020   -5.3260   22.7130 C   0  0  0  0  0  0  0  0  0  0  0  0
    4.2670   -5.8190   23.2680 C   0  0  0  0  0  0  0  0  0  0  0  0
    5.9880   -5.4220   21.6330 C   0  0  0  0  0  0  0  0  0  0  0  0
    5.3470   -4.2350   21.8640 C   0  0  0  0  0  0  0  0  0  0  0  0
  1  5  1  0
  2  5  2  0
  4  5  1  6
  3  7  1  0
  8  9  1  0
  8 10  1  0
  8 11  1  0
 12 14  2  0
 14 15  1  0
 17 18  2  0
 18 19  1  0
 19 20  2  0
  4 21  1  0
 20 21  1  0
 17 22  1  0
 21 22  2  0
 13 23  1  0
 23 24  1  0
  8 25  1  0
 24 25  1  0
 25 26  2  0
 23 27  1  0
 27 26  1  6
  6 28  1  0
 28 29  2  0
  3 30  1  0
 29 30  1  0
 30 31  2  0
 31 32  1  0
  1 33  1  0
 28 33  1  0
 32 33  2  0
 14 34  1  0
  4 35  1  0
 27 35  1  0
 35 34  1  1
 27 36  1  0
 36 37  1  0
 34 38  1  0
 37 38  1  0
 13 40  1  0
 39 40  2  0
 40 41  1  0
 16 42  1  0
 41 42  1  0
 39 43  1  0
 42 43  2  0
 47 45  1  1
 46 47  1  0
 50 44  1  1
 47 50  1  0
 44 52  1  0
 49 52  2  0
 52 53  1  0
 48 54  1  0
 50 54  1  0
 51 54  2  0
 48 55  1  0
 38 56  1  6
 55 56  1  0
M  END
