x0691-x0540
     RDKit          3D

 38 41  0  0  0  0  0  0  0  0999 V2000
    3.9840   -6.8260   25.7930 O   0  0  0  0  0  0  0  0  0  0  0  0
    5.7840   -5.4020   26.8170 O   0  0  0  0  0  0  0  0  0  0  0  0
    5.2860   -4.8600   19.9660 O   0  0  0  0  0  0  0  0  0  0  0  0
    6.2830   -4.5630   20.6080 C   0  0  0  0  0  0  0  0  0  0  0  0
    7.1900   -3.4650   20.0870 C   0  0  0  0  0  0  0  0  0  0  0  0
    3.5330   -0.3910   25.7330 O   0  0  0  0  0  0  0  0  0  0  0  0
    4.7780   -5.6180   25.8060 S   0  0  0  0  0  0  0  0  0  0  0  0
    2.0060    0.8680   24.3590 N   0  0  0  0  0  0  0  0  0  0  0  0
    2.6970    1.8700   23.6790 C   0  0  0  0  0  0  0  0  0  0  0  0
    4.1620    1.9900   23.4210 N   0  0  0  0  0  0  0  0  0  0  0  0
    5.0210    1.0920   22.8060 C   0  0  0  0  0  0  0  0  0  0  0  0
    4.2210    0.4350   21.6440 C   0  0  0  0  0  0  0  0  0  0  0  0
    1.9350    2.9970   23.1360 N   0  0  0  0  0  0  0  0  0  0  0  0
    3.3640    0.3760   24.5180 C   0  0  0  0  0  0  0  0  0  0  0  0
    3.2230   -1.6000   25.8080 C   0  0  0  0  0  0  0  0  0  0  0  0
    4.2370   -2.7620   25.7390 C   0  0  0  0  0  0  0  0  0  0  0  0
    3.6930   -4.2170   25.8650 C   0  0  0  0  0  0  0  0  0  0  0  0
    2.2950   -4.2900   26.0310 C   0  0  0  0  0  0  0  0  0  0  0  0
    1.3810   -3.2280   26.0900 C   0  0  0  0  0  0  0  0  0  0  0  0
    1.7350   -1.8930   25.9890 C   0  0  0  0  0  0  0  0  0  0  0  0
    6.5440   -5.2200   21.7930 N   0  0  0  0  0  0  0  0  0  0  0  0
    5.7960   -6.4240   22.1330 C   0  0  0  0  0  0  0  0  0  0  0  0
    4.8450   -6.0900   23.0930 C   0  0  0  0  0  0  0  0  0  0  0  0
    5.5720   -5.5360   24.2790 N   0  0  0  0  0  0  0  0  0  0  0  0
    6.1550   -4.3950   23.9740 C   0  0  0  0  0  0  0  0  0  0  0  0
    7.1460   -4.6780   23.0370 C   0  0  0  0  0  0  0  0  0  0  0  0
    6.1430   -0.4420   20.1300 C   0  0  0  0  0  0  0  0  0  0  0  0
    6.8170   -0.3710   18.8240 C   0  0  0  0  0  0  0  0  0  0  0  0
    6.3240    0.5430   17.7920 N   0  0  0  0  0  0  0  0  0  0  0  0
    5.1420    1.3680   18.1120 C   0  0  0  0  0  0  0  0  0  0  0  0
    4.5640    1.2350   19.3820 C   0  0  0  0  0  0  0  0  0  0  0  0
    5.0450    0.3560   20.3710 C   0  0  0  0  0  0  0  0  0  0  0  0
    0.6690    4.6640   24.3290 C   0  0  0  0  0  0  0  0  0  0  0  0
   -0.5370    4.9230   24.9750 C   0  0  0  0  0  0  0  0  0  0  0  0
   -1.6230    4.4710   24.2110 C   0  0  0  0  0  0  0  0  0  0  0  0
   -1.6320    3.0890   23.8840 C   0  0  0  0  0  0  0  0  0  0  0  0
   -0.4890    3.1090   22.8360 C   0  0  0  0  0  0  0  0  0  0  0  0
    0.7230    3.3730   23.7670 C   0  0  0  0  0  0  0  0  0  0  0  0
  3  4  2  0
  4  5  1  0
  1  7  2  0
  2  7  2  0
  8  9  2  3
  9 10  1  0
 10 11  1  0
 11 12  1  0
  9 13  1  0
  6 14  1  0
  8 14  1  0
  6 15  1  0
 15 16  2  0
  7 17  1  0
 16 17  1  0
 17 18  2  0
 18 19  1  0
 15 20  1  0
 19 20  2  0
  4 21  1  0
 21 22  1  0
 22 23  1  0
  7 24  1  0
 23 24  1  0
 24 25  1  0
 21 26  1  0
 25 26  1  0
 27 28  2  0
 28 29  1  0
 29 30  2  0
 30 31  1  0
 12 32  1  0
 27 32  1  0
 31 32  2  0
 33 34  1  0
 34 35  1  0
 35 36  1  0
 36 37  1  0
 13 38  1  0
 33 38  1  0
 37 38  1  0
M  END
