x0692-x0434
     RDKit          3D

 27 30  0  0  0  0  0  0  0  0999 V2000
   10.8660    2.4830   23.7890 C   0  0  0  0  0  0  0  0  0  0  0  0
    5.5170   -4.2090   19.7920 O   0  0  0  0  0  0  0  0  0  0  0  0
    9.5210   -2.5180   23.7640 C   0  0  0  0  0  0  0  0  0  0  0  0
    6.3730   -3.3080   19.8810 C   0  0  0  0  0  0  0  0  0  0  0  0
    7.3290   -3.0850   18.6890 C   0  0  0  0  0  0  0  0  0  0  0  0
    7.6820    0.9600   21.2580 O   0  0  0  0  0  0  0  0  0  0  0  0
    7.7140   -0.4060   21.6460 C   0  0  0  0  0  0  0  0  0  0  0  0
    7.8880   -0.9160   23.0020 N   0  0  0  0  0  0  0  0  0  0  0  0
   11.3370    1.0600   23.5450 C   0  0  0  0  0  0  0  0  0  0  0  0
   10.2840   -0.0080   23.7770 C   0  0  0  0  0  0  0  0  0  0  0  0
   10.5740   -1.4940   23.5550 C   0  0  0  0  0  0  0  0  0  0  0  0
   11.9840   -1.8140   23.1020 C   0  0  0  0  0  0  0  0  0  0  0  0
   13.0500   -0.7220   22.8750 C   0  0  0  0  0  0  0  0  0  0  0  0
   12.7290    0.6280   23.0890 C   0  0  0  0  0  0  0  0  0  0  0  0
    6.5290   -2.4610   21.0090 N   0  0  0  0  0  0  0  0  0  0  0  0
    7.6800   -1.6520   20.8300 C   0  0  2  0  0  0  0  0  0  0  0  0
    8.7310   -2.2820   21.4670 C   0  0  0  0  0  0  0  0  0  0  0  0
    8.3780   -2.3050   22.8140 C   0  0  1  0  0  0  0  0  0  0  0  0
    7.3870   -3.2560   23.0660 C   0  0  0  0  0  0  0  0  0  0  0  0
    6.2190   -2.8690   22.3890 C   0  0  0  0  0  0  0  0  0  0  0  0
    4.6030    1.1230   20.1540 C   0  0  0  0  0  0  0  0  0  0  0  0
    4.4130    1.8940   18.8560 C   0  0  0  0  0  0  0  0  0  0  0  0
    5.3880    1.4710   17.7720 C   0  0  0  0  0  0  0  0  0  0  0  0
    6.3340    0.5170   17.9100 N   0  0  0  0  0  0  0  0  0  0  0  0
    6.4130   -0.1500   19.2010 C   0  0  0  0  0  0  0  0  0  0  0  0
    5.5830    0.1500   20.2580 C   0  0  0  0  0  0  0  0  0  0  0  0
    7.4170   -1.2060   19.3880 C   0  0  0  0  0  0  0  0  0  0  0  0
  2  4  2  0
  4  5  1  0
  6  7  2  0
  7  8  1  0
  1  9  1  0
  9 10  2  0
  3 11  1  0
 10 11  1  0
 11 12  2  0
 12 13  1  0
  9 14  1  0
 13 14  2  0
  4 15  1  0
  7 16  1  0
 15 16  1  0
 16 17  1  0
 18  3  1  1
  8 18  1  0
 17 18  1  0
 18 19  1  0
 15 20  1  0
 19 20  1  0
 21 22  2  0
 22 23  1  0
 23 24  2  0
 24 25  1  0
 21 26  1  0
 25 26  2  0
 16 27  1  6
 25 27  1  0
M  END
