x0692-x0354
     RDKit          3D

 29 31  0  0  0  0  0  0  0  0999 V2000
   11.3820    2.3900   23.5230 C   0  0  0  0  0  0  0  0  0  0  0  0
    5.3860   -4.1250   19.7290 O   0  0  0  0  0  0  0  0  0  0  0  0
    9.4200   -2.4250   23.5980 C   0  0  2  0  0  0  0  0  0  0  0  0
    6.2300   -3.2330   19.8630 C   0  0  0  0  0  0  0  0  0  0  0  0
    7.2460   -2.9860   18.7640 C   0  0  0  0  0  0  0  0  0  0  0  0
   11.5390    0.9420   23.3030 C   0  0  0  0  0  0  0  0  0  0  0  0
   10.4090   -0.0190   23.5730 C   0  0  0  0  0  0  0  0  0  0  0  0
   10.5540   -1.5220   23.3150 C   0  0  0  0  0  0  0  0  0  0  0  0
   11.9060   -2.0210   22.7650 C   0  0  0  0  0  0  0  0  0  0  0  0
   13.0610   -1.0650   22.5020 C   0  0  0  0  0  0  0  0  0  0  0  0
   12.8460    0.4330   22.7900 C   0  0  0  0  0  0  0  0  0  0  0  0
    6.3080   -2.4600   21.0120 N   0  0  0  0  0  0  0  0  0  0  0  0
    7.1650   -1.2850   21.0830 C   0  0  0  0  0  0  0  0  0  0  0  0
    8.4060   -1.4770   21.6530 C   0  0  0  0  0  0  0  0  0  0  0  0
    8.2810   -2.1590   22.8850 N   0  0  0  0  0  0  0  0  0  0  0  0
    7.4120   -3.3540   22.8310 C   0  0  0  0  0  0  0  0  0  0  0  0
    6.1370   -3.0460   22.3480 C   0  0  0  0  0  0  0  0  0  0  0  0
    6.8410   -2.0590   25.3430 O   0  0  0  0  0  0  0  0  0  0  0  0
    7.4850   -0.6850   27.6760 O   0  0  0  0  0  0  0  0  0  0  0  0
    8.0780   -1.6320   25.6730 C   0  0  0  0  0  0  0  0  0  0  0  0
    8.2620   -0.5630   26.5640 C   0  0  0  0  0  0  0  0  0  0  0  0
    5.6220    3.7590   30.8010 C   0  0  0  0  0  0  0  0  0  0  0  0
    7.8870    1.6300   28.3970 C   0  0  0  0  0  0  0  0  0  0  0  0
    7.4260    2.8290   29.2140 C   0  0  0  0  0  0  0  0  0  0  0  0
    6.1230    2.6000   29.9730 C   0  0  0  0  0  0  0  0  0  0  0  0
    5.4530    1.3790   29.8900 C   0  0  0  0  0  0  0  0  0  0  0  0
    5.9510    0.3290   29.1140 C   0  0  0  0  0  0  0  0  0  0  0  0
    7.1500    0.4410   28.3740 C   0  0  0  0  0  0  0  0  0  0  0  0
    9.2920   -2.3210   25.1190 C   0  0  0  0  0  0  0  0  0  0  0  0
  2  4  2  0
  4  5  1  0
  1  6  1  0
  6  7  2  0
  3  8  1  0
  7  8  1  0
  8  9  2  0
  9 10  1  0
  6 11  1  0
 10 11  2  0
  4 12  1  0
 12 13  1  0
 13 14  1  0
  3 15  1  0
 14 15  1  0
 15 16  1  0
 12 17  1  0
 16 17  1  0
 18 20  2  0
 19 21  1  0
 20 21  1  0
 23 24  2  0
 22 25  1  0
 24 25  1  0
 25 26  2  0
 26 27  1  0
 19 28  1  0
 23 28  1  0
 27 28  2  0
  3 29  1  1
 20 29  1  0
M  END
