x0692-x0978-x2694
     RDKit          3D

 50 53  0  0  0  0  0  0  0  0999 V2000
    7.6790    2.2810   22.8190 N   0  0  0  0  0  0  0  0  0  0  0  0
    9.2320    1.4370   21.1100 O   0  0  0  0  0  0  0  0  0  0  0  0
   10.9620    6.7230   23.9060 O   0  0  0  0  0  0  0  0  0  0  0  0
    7.0120    0.1240   21.5440 C   0  0  1  0  0  0  0  0  0  0  0  0
    8.0300    1.2820   21.8210 C   0  0  0  0  0  0  0  0  0  0  0  0
   10.3010    1.9660   24.0240 C   0  0  0  0  0  0  0  0  0  0  0  0
   11.8490    6.5410   25.0050 C   0  0  0  0  0  0  0  0  0  0  0  0
   12.4630   -1.4100   23.1860 C   0  0  0  0  0  0  0  0  0  0  0  0
   12.8150    0.0510   23.5020 C   0  0  0  0  0  0  0  0  0  0  0  0
   13.0280   -1.9740   21.8860 C   0  0  0  0  0  0  0  0  0  0  0  0
   12.9450   -2.2840   24.3530 C   0  0  0  0  0  0  0  0  0  0  0  0
    5.5080   -3.7850   19.6020 O   0  0  0  0  0  0  0  0  0  0  0  0
    8.1340   -1.0790   24.8210 C   0  0  0  0  0  0  0  0  0  0  0  0
    6.4870   -3.0160   19.8030 C   0  0  0  0  0  0  0  0  0  0  0  0
    7.4150   -2.8910   18.6390 C   0  0  0  0  0  0  0  0  0  0  0  0
    6.3780    0.4480   17.7930 N   0  0  0  0  0  0  0  0  0  0  0  0
    5.1960    1.3150   17.8320 C   0  0  0  0  0  0  0  0  0  0  0  0
    4.6640    1.7260   19.0240 C   0  0  0  0  0  0  0  0  0  0  0  0
    5.1960    1.3690   20.2370 C   0  0  0  0  0  0  0  0  0  0  0  0
    6.3280    0.5520   20.2650 C   0  0  0  0  0  0  0  0  0  0  0  0
    6.9250    0.0790   19.0880 C   0  0  0  0  0  0  0  0  0  0  0  0
    8.8150   -0.7820   23.5490 N   0  0  0  0  0  0  0  0  0  0  0  0
   10.2310   -0.8910   24.0200 O   0  0  0  0  0  0  0  0  0  0  0  0
   10.9860   -1.4900   23.0500 C   0  0  0  0  0  0  0  0  0  0  0  0
   10.0220   -2.1040   22.0370 C   0  0  0  0  0  0  0  0  0  0  0  0
    8.6660   -1.7510   22.6350 C   0  0  2  0  0  0  0  0  0  0  0  0
    9.7570    3.3150   23.6580 C   0  0  0  0  0  0  0  0  0  0  0  0
   10.5560    4.4390   23.9100 C   0  0  0  0  0  0  0  0  0  0  0  0
   10.0970    5.6990   23.6020 C   0  0  0  0  0  0  0  0  0  0  0  0
    8.8250    5.8400   23.0200 C   0  0  0  0  0  0  0  0  0  0  0  0
    8.0110    4.7130   22.7530 C   0  0  0  0  0  0  0  0  0  0  0  0
    8.4880    3.4210   23.0830 C   0  0  0  0  0  0  0  0  0  0  0  0
    6.7580   -2.3650   21.0330 N   0  0  0  0  0  0  0  0  0  0  0  0
    7.6150   -1.3120   21.4380 C   0  0  1  0  0  0  0  0  0  0  0  0
    8.1380   -2.7110   23.4710 N   0  0  0  0  0  0  0  0  0  0  0  0
    7.3870   -3.6240   22.8510 C   0  0  0  0  0  0  0  0  0  0  0  0
    6.3030   -3.1690   22.1590 C   0  0  2  0  0  0  0  0  0  0  0  0
    1.7230   -5.7330   23.2560 N   0  0  0  0  0  0  0  0  0  0  0  0
    2.1660   -8.3250   24.7240 C   0  0  0  0  0  0  0  0  0  0  0  0
    4.3520   -7.9470   24.4960 O   0  0  0  0  0  0  0  0  0  0  0  0
    3.0880   -7.2910   24.5600 C   0  0  1  0  0  0  0  0  0  0  0  0
    5.1590   -6.2510   22.3790 N   0  0  0  0  0  0  0  0  0  0  0  0
    0.6340   -7.1690   21.8670 O   0  0  0  0  0  0  0  0  0  0  0  0
    2.9470   -6.5580   23.3820 C   0  0  2  0  0  0  0  0  0  0  0  0
    4.2890   -4.5640   23.6790 O   0  0  0  0  0  0  0  0  0  0  0  0
    0.6280   -6.1570   22.5560 C   0  0  0  0  0  0  0  0  0  0  0  0
   -0.5050   -5.3600   22.6840 C   0  0  0  0  0  0  0  0  0  0  0  0
    4.1860   -5.6850   23.1710 C   0  0  0  0  0  0  0  0  0  0  0  0
    5.8760   -5.4130   21.4580 C   0  0  0  0  0  0  0  0  0  0  0  0
    5.4430   -4.1090   21.6150 C   0  0  0  0  0  0  0  0  0  0  0  0
  1  5  1  0
  2  5  2  0
  4  5  1  6
  3  7  1  0
  8  9  1  0
  8 10  1  0
  8 11  1  0
 12 14  2  0
 14 15  1  0
 16 17  2  0
 17 18  1  0
 18 19  2  0
  4 20  1  0
 19 20  1  0
 16 21  1  0
 20 21  2  0
 13 22  1  0
 22 23  1  0
  8 24  1  0
 23 24  1  0
 24 25  2  0
 22 26  1  0
 26 25  1  6
  6 27  1  0
 27 28  2  0
  3 29  1  0
 28 29  1  0
 29 30  2  0
 30 31  1  0
  1 32  1  0
 27 32  1  0
 31 32  2  0
 14 33  1  0
  4 34  1  0
 26 34  1  0
 34 33  1  1
 26 35  1  0
 35 36  1  0
 33 37  1  0
 36 37  1  0
 41 39  1  6
 40 41  1  0
 44 38  1  1
 41 44  1  0
 38 46  1  0
 43 46  2  0
 46 47  1  0
 42 48  1  0
 44 48  1  0
 45 48  2  0
 42 49  1  0
 37 50  1  6
 49 50  1  0
M  END
