x0691-x1402
     RDKit          3D

 20 21  0  0  0  0  0  0  0  0999 V2000
    3.8750   -6.9280   25.9160 O   0  0  0  0  0  0  0  0  0  0  0  0
    5.7620   -5.4460   26.6890 O   0  0  0  0  0  0  0  0  0  0  0  0
    5.4090   -4.4890   19.8990 O   0  0  0  0  0  0  0  0  0  0  0  0
    6.3890   -4.4600   20.6530 C   0  0  0  0  0  0  0  0  0  0  0  0
    7.6370   -3.6630   20.3540 C   0  0  0  0  0  0  0  0  0  0  0  0
    3.5250   -0.5580   25.8650 F   0  0  0  0  0  0  0  0  0  0  0  0
    4.6740   -5.7360   25.7800 S   0  0  0  0  0  0  0  0  0  0  0  0
   -0.1130   -2.0240   25.8980 Cl  0  0  0  0  0  0  0  0  0  0  0  0
    3.1640   -1.8470   25.8450 C   0  0  0  0  0  0  0  0  0  0  0  0
    4.0980   -2.9390   25.8150 C   0  0  0  0  0  0  0  0  0  0  0  0
    3.5670   -4.3550   25.8000 C   0  0  0  0  0  0  0  0  0  0  0  0
    2.0140   -4.5590   25.8140 C   0  0  0  0  0  0  0  0  0  0  0  0
    0.8380   -3.4500   25.8530 C   0  0  0  0  0  0  0  0  0  0  0  0
    1.7500   -2.1830   25.8610 C   0  0  0  0  0  0  0  0  0  0  0  0
    6.4170   -5.1420   21.8270 N   0  0  0  0  0  0  0  0  0  0  0  0
    5.5220   -6.2500   22.1640 C   0  0  0  0  0  0  0  0  0  0  0  0
    4.6210   -5.8380   23.1640 C   0  0  0  0  0  0  0  0  0  0  0  0
    5.3630   -5.7360   24.2550 N   0  0  0  0  0  0  0  0  0  0  0  0
    6.6090   -5.0070   24.1580 C   0  0  0  0  0  0  0  0  0  0  0  0
    7.0160   -4.5290   22.9450 C   0  0  0  0  0  0  0  0  0  0  0  0
  3  4  2  0
  4  5  1  0
  1  7  2  0
  2  7  2  0
  6  9  1  0
  9 10  2  0
  7 11  1  0
 10 11  1  0
 11 12  2  0
  8 13  1  0
 12 13  1  0
  9 14  1  0
 13 14  2  0
  4 15  1  0
 15 16  1  0
 16 17  1  0
  7 18  1  0
 17 18  1  0
 18 19  1  0
 15 20  1  0
 19 20  1  0
M  END
