x0691-x2705-x0978
     RDKit          3D

 59 63  0  0  0  0  0  0  0  0999 V2000
    7.3760   -1.1290   22.1650 N   0  0  0  0  0  0  0  0  0  0  0  0
    7.7470    2.3260   22.6580 N   0  0  0  0  0  0  0  0  0  0  0  0
    9.0330    1.3080   21.1260 O   0  0  0  0  0  0  0  0  0  0  0  0
    6.9230    0.2250   21.7460 C   0  0  1  0  0  0  0  0  0  0  0  0
    8.0160    1.3030   21.8030 C   0  0  0  0  0  0  0  0  0  0  0  0
   10.2950    2.2760   23.8680 C   0  0  0  0  0  0  0  0  0  0  0  0
    9.3860    1.3860   24.7500 C   0  0  0  0  0  0  0  0  0  0  0  0
    6.2770    4.5570   21.8800 C   0  0  0  0  0  0  0  0  0  0  0  0
   12.2040   -1.4800   23.2480 C   0  0  0  0  0  0  0  0  0  0  0  0
   12.7720   -0.0970   23.5990 C   0  0  0  0  0  0  0  0  0  0  0  0
   12.7290   -2.4840   24.3500 C   0  0  0  0  0  0  0  0  0  0  0  0
   12.7440   -1.9390   21.8740 C   0  0  0  0  0  0  0  0  0  0  0  0
    1.9240   -5.5670   23.4340 N   0  0  0  0  0  0  0  0  0  0  0  0
    2.1190   -8.3020   24.4640 C   0  0  0  0  0  0  0  0  0  0  0  0
    4.3550   -7.8310   24.7070 O   0  0  0  0  0  0  0  0  0  0  0  0
    3.0670   -7.2780   24.4960 C   0  0  1  0  0  0  0  0  0  0  0  0
    0.8540   -7.3810   21.8920 O   0  0  0  0  0  0  0  0  0  0  0  0
    3.1490   -6.3840   23.4470 C   0  0  2  0  0  0  0  0  0  0  0  0
    4.0220   -4.0790   23.3950 O   0  0  0  0  0  0  0  0  0  0  0  0
    0.8440   -6.1620   22.6530 C   0  0  0  0  0  0  0  0  0  0  0  0
   -0.3690   -5.4560   22.6360 C   0  0  0  0  0  0  0  0  0  0  0  0
    6.9140   -2.3140   21.5140 C   0  0  0  0  0  0  0  0  0  0  0  0
    5.9730   -3.0560   22.2430 C   0  0  0  0  0  0  0  0  0  0  0  0
    4.1280   -6.7650   26.3490 O   0  0  0  0  0  0  0  0  0  0  0  0
    5.7400   -4.9730   26.9480 O   0  0  0  0  0  0  0  0  0  0  0  0
    5.7920   -5.5330   19.9820 O   0  0  0  0  0  0  0  0  0  0  0  0
    6.3720   -4.6230   20.5260 C   0  0  0  0  0  0  0  0  0  0  0  0
    7.0660   -3.5380   19.6810 C   0  0  0  0  0  0  0  0  0  0  0  0
    3.1570   -0.5570   25.9180 F   0  0  0  0  0  0  0  0  0  0  0  0
    4.7230   -5.4790   26.0630 S   0  0  0  0  0  0  0  0  0  0  0  0
    6.3090    0.1480   17.9940 N   0  0  0  0  0  0  0  0  0  0  0  0
    5.1780    0.8430   17.8540 C   0  0  0  0  0  0  0  0  0  0  0  0
    4.5050    1.3900   19.0730 C   0  0  0  0  0  0  0  0  0  0  0  0
    5.1000    1.1540   20.2790 C   0  0  0  0  0  0  0  0  0  0  0  0
    6.2850    0.4310   20.3860 C   0  0  0  0  0  0  0  0  0  0  0  0
    6.8800   -0.0800   19.2080 C   0  0  0  0  0  0  0  0  0  0  0  0
   10.1220   -1.3880   24.5340 N   0  0  0  0  0  0  0  0  0  0  0  0
    8.7960   -1.2900   24.2240 N   0  0  0  0  0  0  0  0  0  0  0  0
    8.6530   -1.2360   22.7690 C   0  0  0  0  0  0  0  0  0  0  0  0
    9.9040   -1.3030   22.1610 C   0  0  0  0  0  0  0  0  0  0  0  0
   10.7660   -1.3920   23.2320 C   0  0  0  0  0  0  0  0  0  0  0  0
    9.5590    3.5720   23.4780 C   0  0  0  0  0  0  0  0  0  0  0  0
   10.3040    4.8750   23.7790 C   0  0  0  0  0  0  0  0  0  0  0  0
    9.6370    6.2140   23.4110 C   0  0  0  0  0  0  0  0  0  0  0  0
    8.2470    6.1160   22.7560 C   0  0  0  0  0  0  0  0  0  0  0  0
    7.6760    4.7280   22.5420 C   0  0  0  0  0  0  0  0  0  0  0  0
    8.3080    3.5440   22.8880 C   0  0  0  0  0  0  0  0  0  0  0  0
    2.8460   -1.8830   25.8840 C   0  0  0  0  0  0  0  0  0  0  0  0
    3.8190   -2.8830   25.9740 C   0  0  0  0  0  0  0  0  0  0  0  0
    3.4560   -4.2390   25.9400 C   0  0  0  0  0  0  0  0  0  0  0  0
    2.0940   -4.5790   25.8100 C   0  0  0  0  0  0  0  0  0  0  0  0
    1.1320   -3.5820   25.7190 C   0  0  0  0  0  0  0  0  0  0  0  0
    1.4970   -2.2450   25.7580 C   0  0  0  0  0  0  0  0  0  0  0  0
    6.2270   -4.5700   22.0510 C   0  0  2  0  0  0  0  0  0  0  0  0
    5.1020   -5.5310   22.2190 C   0  0  0  0  0  0  0  0  0  0  0  0
    4.4420   -5.4400   23.3950 C   0  0  2  0  0  0  0  0  0  0  0  0
    5.3940   -5.5840   24.5080 N   0  0  0  0  0  0  0  0  0  0  0  0
    6.8070   -5.0760   24.3510 C   0  0  0  0  0  0  0  0  0  0  0  0
    7.2830   -5.0370   23.0280 C   0  0  0  0  0  0  0  0  0  0  0  0
  1  4  1  0
  2  5  1  0
  3  5  2  0
  4  5  1  6
  6  7  1  0
  9 10  1  0
  9 11  1  0
  9 12  1  0
 16 14  1  6
 15 16  1  0
 18 13  1  1
 16 18  1  0
 13 20  1  0
 17 20  2  0
 20 21  1  0
  1 22  1  0
 22 23  1  0
 26 27  2  0
 27 28  1  0
 24 30  2  0
 25 30  2  0
 31 32  2  0
 32 33  1  0
 33 34  2  0
  4 35  1  0
 34 35  1  0
 31 36  1  0
 35 36  2  0
 37 38  1  0
  1 39  1  0
 38 39  2  0
 39 40  1  0
  9 41  1  0
 37 41  1  0
 40 41  2  0
  6 42  1  0
 42 43  2  0
 43 44  1  0
 44 45  2  0
  8 46  1  0
 45 46  1  0
  2 47  1  0
 42 47  1  0
 46 47  2  0
 29 48  1  0
 48 49  2  0
 30 50  1  0
 49 50  1  0
 50 51  2  0
 51 52  1  0
 48 53  1  0
 52 53  2  0
 54 23  1  1
 54 27  1  0
 54 55  1  0
 18 56  1  0
 56 19  1  1
 55 56  1  0
 30 57  1  0
 56 57  1  0
 57 58  1  0
 54 59  1  0
 58 59  1  0
M  END
