x0691-x2705-x2694
     RDKit          3D

 52 56  0  0  0  0  0  0  0  0999 V2000
    7.5280   -1.0960   21.8170 N   0  0  0  0  0  0  0  0  0  0  0  0
    7.6870    2.3580   22.7750 N   0  0  0  0  0  0  0  0  0  0  0  0
    9.0880    1.5870   21.1800 O   0  0  0  0  0  0  0  0  0  0  0  0
    7.0530    0.2880   21.6590 C   0  0  1  0  0  0  0  0  0  0  0  0
    8.0620    1.4380   21.8290 C   0  0  0  0  0  0  0  0  0  0  0  0
   10.2560    2.1170   23.9140 C   0  0  0  0  0  0  0  0  0  0  0  0
    9.3350    1.2620   24.8110 C   0  0  0  0  0  0  0  0  0  0  0  0
    6.4440    4.8840   22.0270 C   0  0  0  0  0  0  0  0  0  0  0  0
   12.2280   -1.4760   23.3680 C   0  0  0  0  0  0  0  0  0  0  0  0
   12.7730   -0.2480   23.7340 C   0  0  0  0  0  0  0  0  0  0  0  0
   12.7960   -2.5210   24.3530 C   0  0  0  0  0  0  0  0  0  0  0  0
   12.8040   -1.7850   21.9680 C   0  0  0  0  0  0  0  0  0  0  0  0
   10.6870    6.9080   23.8020 O   0  0  0  0  0  0  0  0  0  0  0  0
   11.7130    6.6350   24.6750 C   0  0  0  0  0  0  0  0  0  0  0  0
    3.9680   -6.8160   26.0070 O   0  0  0  0  0  0  0  0  0  0  0  0
    5.6250   -5.2330   27.0120 O   0  0  0  0  0  0  0  0  0  0  0  0
    5.8030   -4.5590   19.9030 O   0  0  0  0  0  0  0  0  0  0  0  0
    6.7010   -4.2910   20.7030 C   0  0  0  0  0  0  0  0  0  0  0  0
    8.0260   -3.6290   20.3250 C   0  0  0  0  0  0  0  0  0  0  0  0
    3.2640   -0.6440   25.9490 F   0  0  0  0  0  0  0  0  0  0  0  0
    4.6980   -5.5680   25.9610 S   0  0  0  0  0  0  0  0  0  0  0  0
    6.3710   -2.0100   21.7970 C   0  0  0  0  0  0  0  0  0  0  0  0
    6.3350   -3.1560   22.8230 C   0  0  0  0  0  0  0  0  0  0  0  0
    6.2700    0.2910   17.8760 N   0  0  0  0  0  0  0  0  0  0  0  0
    5.1120    0.9990   17.7580 C   0  0  0  0  0  0  0  0  0  0  0  0
    4.4150    1.5590   18.9790 C   0  0  0  0  0  0  0  0  0  0  0  0
    5.0410    1.3240   20.3150 C   0  0  0  0  0  0  0  0  0  0  0  0
    6.3360    0.5430   20.3870 C   0  0  0  0  0  0  0  0  0  0  0  0
    6.8260    0.0940   19.1770 C   0  0  0  0  0  0  0  0  0  0  0  0
    9.8940   -1.6140   24.3710 N   0  0  0  0  0  0  0  0  0  0  0  0
    8.5720   -1.5210   23.9770 N   0  0  0  0  0  0  0  0  0  0  0  0
    8.6290   -1.2880   22.6300 C   0  0  0  0  0  0  0  0  0  0  0  0
    9.9710   -1.2530   22.2110 C   0  0  0  0  0  0  0  0  0  0  0  0
   10.7200   -1.4540   23.3300 C   0  0  0  0  0  0  0  0  0  0  0  0
    9.6330    3.4750   23.5520 C   0  0  0  0  0  0  0  0  0  0  0  0
   10.3590    4.6290   23.7950 C   0  0  0  0  0  0  0  0  0  0  0  0
    9.8360    5.8710   23.4840 C   0  0  0  0  0  0  0  0  0  0  0  0
    8.5530    5.9620   22.9030 C   0  0  0  0  0  0  0  0  0  0  0  0
    7.8180    4.7940   22.6560 C   0  0  0  0  0  0  0  0  0  0  0  0
    8.3700    3.5590   22.9910 C   0  0  0  0  0  0  0  0  0  0  0  0
    2.9130   -1.9340   25.8760 C   0  0  0  0  0  0  0  0  0  0  0  0
    3.8650   -2.9560   25.9400 C   0  0  0  0  0  0  0  0  0  0  0  0
    3.5530   -4.3210   25.8700 C   0  0  0  0  0  0  0  0  0  0  0  0
    2.2080   -4.6570   25.7250 C   0  0  0  0  0  0  0  0  0  0  0  0
    1.2330   -3.6800   25.6570 C   0  0  0  0  0  0  0  0  0  0  0  0
    1.5740   -2.3320   25.7340 C   0  0  0  0  0  0  0  0  0  0  0  0
    6.3950   -4.5620   22.1750 C   0  0  0  0  0  0  0  0  0  0  0  0
    5.1300   -5.3960   22.1050 C   0  0  0  0  0  0  0  0  0  0  0  0
    4.9220   -6.2160   23.3550 C   0  0  0  0  0  0  0  0  0  0  0  0
    5.5310   -5.5200   24.4790 N   0  0  0  0  0  0  0  0  0  0  0  0
    7.0160   -5.2720   24.4080 C   0  0  0  0  0  0  0  0  0  0  0  0
    7.4520   -5.3340   22.9560 C   0  0  0  0  0  0  0  0  0  0  0  0
  1  4  1  0
  2  5  1  0
  3  5  2  0
  4  5  1  6
  6  7  1  0
  9 10  1  0
  9 11  1  0
  9 12  1  0
 13 14  1  0
 17 18  2  0
 18 19  1  0
 15 21  2  0
 16 21  2  0
  1 22  1  0
 22 23  1  0
 24 25  2  0
 25 26  1  0
 26 27  2  0
  4 28  1  0
 27 28  1  0
 24 29  1  0
 28 29  2  0
 30 31  1  0
  1 32  1  0
 31 32  2  0
 32 33  1  0
  9 34  1  0
 30 34  1  0
 33 34  2  0
  6 35  1  0
 35 36  2  0
 13 37  1  0
 36 37  1  0
 37 38  2  0
  8 39  1  0
 38 39  1  0
  2 40  1  0
 35 40  1  0
 39 40  2  0
 20 41  1  0
 41 42  2  0
 21 43  1  0
 42 43  1  0
 43 44  2  0
 44 45  1  0
 41 46  1  0
 45 46  2  0
 47 18  1  0
 23 47  1  0
 47 48  1  0
 48 49  1  0
 21 50  1  0
 49 50  1  0
 50 51  1  0
 47 52  1  0
 51 52  1  0
M  END
