x0692-x1386
     RDKit          3D

 17 18  0  0  0  0  0  0  0  0999 V2000
   11.1000    2.5030   23.5520 C   0  0  0  0  0  0  0  0  0  0  0  0
    5.3880   -4.1150   19.7210 O   0  0  0  0  0  0  0  0  0  0  0  0
    9.1710   -2.2660   23.9920 C   0  0  0  0  0  0  0  0  0  0  0  0
    6.2530   -3.2370   19.8440 C   0  0  0  0  0  0  0  0  0  0  0  0
    7.2430   -2.9850   18.7220 C   0  0  0  0  0  0  0  0  0  0  0  0
   11.3820    1.0410   23.4840 C   0  0  0  0  0  0  0  0  0  0  0  0
   10.2380    0.0820   23.7670 C   0  0  0  0  0  0  0  0  0  0  0  0
   10.3770   -1.4390   23.7130 C   0  0  0  0  0  0  0  0  0  0  0  0
   11.7890   -1.9220   23.3550 C   0  0  0  0  0  0  0  0  0  0  0  0
   12.9580   -1.0000   23.0710 C   0  0  0  0  0  0  0  0  0  0  0  0
   12.7690    0.5380   23.1310 C   0  0  0  0  0  0  0  0  0  0  0  0
    6.3960   -2.4800   20.9950 N   0  0  0  0  0  0  0  0  0  0  0  0
    7.3610   -1.3830   21.0550 C   0  0  0  0  0  0  0  0  0  0  0  0
    8.5330   -1.6840   21.7150 C   0  0  0  0  0  0  0  0  0  0  0  0
    8.2470   -2.2300   22.9820 N   0  0  0  0  0  0  0  0  0  0  0  0
    7.3000   -3.3630   22.9790 C   0  0  0  0  0  0  0  0  0  0  0  0
    6.1020   -3.0130   22.3390 C   0  0  0  0  0  0  0  0  0  0  0  0
  2  4  2  0
  4  5  1  0
  1  6  1  0
  6  7  2  0
  3  8  1  0
  7  8  1  0
  8  9  2  0
  9 10  1  0
  6 11  1  0
 10 11  2  0
  4 12  1  0
 12 13  1  0
 13 14  1  0
  3 15  1  0
 14 15  1  0
 15 16  1  0
 12 17  1  0
 16 17  1  0
M  END
