x0692-x0995
     RDKit          3D

 25 27  0  0  0  0  0  0  0  0999 V2000
   11.0030    2.4080   23.6810 C   0  0  0  0  0  0  0  0  0  0  0  0
    5.4810   -4.0180   19.7680 O   0  0  0  0  0  0  0  0  0  0  0  0
    9.5120   -2.3900   24.1190 C   0  0  0  0  0  0  0  0  0  0  0  0
    6.3340   -3.0930   19.9290 C   0  0  0  0  0  0  0  0  0  0  0  0
    7.3060   -2.9630   18.7520 C   0  0  0  0  0  0  0  0  0  0  0  0
    3.3390    1.1640   19.9990 N   0  0  0  0  0  0  0  0  0  0  0  0
    5.3730   -1.1070   21.2690 C   0  0  0  0  0  0  0  0  0  0  0  0
   11.3480    0.9200   23.5670 C   0  0  0  0  0  0  0  0  0  0  0  0
   10.3770   -0.0470   23.8740 C   0  0  0  0  0  0  0  0  0  0  0  0
   10.6250   -1.4320   23.7760 C   0  0  0  0  0  0  0  0  0  0  0  0
   11.8760   -1.8810   23.3630 C   0  0  0  0  0  0  0  0  0  0  0  0
   12.8760   -1.0110   23.0500 C   0  0  0  0  0  0  0  0  0  0  0  0
   12.6080    0.4810   23.1550 C   0  0  0  0  0  0  0  0  0  0  0  0
    6.4740   -2.1660   21.2500 C   0  0  0  0  0  0  0  0  0  0  0  0
    7.7540   -1.5470   21.1470 C   0  0  0  0  0  0  0  0  0  0  0  0
    8.8350   -2.0870   21.8180 C   0  0  0  0  0  0  0  0  0  0  0  0
    8.4680   -2.5840   23.1210 N   0  0  0  0  0  0  0  0  0  0  0  0
    7.4440   -3.6190   23.0000 C   0  0  0  0  0  0  0  0  0  0  0  0
    6.2770   -2.9710   22.5750 C   0  0  0  0  0  0  0  0  0  0  0  0
    4.5620    0.7450   19.5030 C   0  0  0  0  0  0  0  0  0  0  0  0
    4.9860    1.3590   18.3090 C   0  0  0  0  0  0  0  0  0  0  0  0
    6.2680    1.0070   17.6770 N   0  0  0  0  0  0  0  0  0  0  0  0
    6.9590    0.0130   18.4360 C   0  0  0  0  0  0  0  0  0  0  0  0
    6.5840   -0.6450   19.6290 N   0  0  0  0  0  0  0  0  0  0  0  0
    5.4300   -0.2430   20.0740 C   0  0  0  0  0  0  0  0  0  0  0  0
  2  4  2  0
  4  5  1  0
  1  8  1  0
  8  9  2  0
  3 10  1  0
  9 10  1  0
 10 11  2  0
 11 12  1  0
  8 13  1  0
 12 13  2  0
 14  4  1  0
  7 14  1  0
 14 15  1  0
 15 16  1  0
  3 17  1  0
 16 17  1  0
 17 18  1  0
 14 19  1  0
 18 19  1  0
  6 20  1  0
 20 21  2  0
 21 22  1  0
 22 23  2  0
 23 24  1  0
  7 25  1  0
 20 25  1  0
 24 25  2  0
M  END
