x0691-x1493
     RDKit          3D

 20 21  0  0  0  0  0  0  0  0999 V2000
    4.0950   -6.6370   25.8160 O   0  0  0  0  0  0  0  0  0  0  0  0
    6.0510   -5.6630   26.8770 C   0  0  0  0  0  0  0  0  0  0  0  0
    5.2870   -4.5070   19.8910 O   0  0  0  0  0  0  0  0  0  0  0  0
    6.3490   -4.4340   20.5010 C   0  0  0  0  0  0  0  0  0  0  0  0
    7.4200   -3.4580   20.0260 C   0  0  0  0  0  0  0  0  0  0  0  0
    3.1670   -0.5340   26.0180 F   0  0  0  0  0  0  0  0  0  0  0  0
    4.9710   -5.5380   25.4780 S   0  0  2  0  0  0  0  0  0  0  0  0
    6.8610   -5.7430   27.7080 O   0  0  0  0  0  0  0  0  0  0  0  0
    2.8730   -1.8330   25.8880 C   0  0  0  0  0  0  0  0  0  0  0  0
    4.0550   -2.8080   25.7700 C   0  0  0  0  0  0  0  0  0  0  0  0
    3.7100   -4.3000   25.6220 C   0  0  0  0  0  0  0  0  0  0  0  0
    2.1900   -4.6970   25.6000 C   0  0  0  0  0  0  0  0  0  0  0  0
    1.0690   -3.6240   25.7260 C   0  0  0  0  0  0  0  0  0  0  0  0
    1.5550   -2.1830   25.8710 C   0  0  0  0  0  0  0  0  0  0  0  0
    6.5390   -5.2460   21.5990 N   0  0  0  0  0  0  0  0  0  0  0  0
    5.6370   -6.3350   21.9190 C   0  0  0  0  0  0  0  0  0  0  0  0
    4.7490   -5.7310   22.8150 C   0  0  0  0  0  0  0  0  0  0  0  0
    5.6470   -5.4740   23.9560 N   0  0  0  0  0  0  0  0  0  0  0  0
    6.7290   -4.4500   23.7800 C   0  0  0  0  0  0  0  0  0  0  0  0
    7.4920   -4.8500   22.6970 C   0  0  0  0  0  0  0  0  0  0  0  0
  3  4  2  0
  4  5  1  0
  1  7  2  0
  2  7  2  0
  2  8  2  0
  6  9  1  0
  9 10  2  0
  7 11  1  1
 10 11  1  0
 11 12  2  0
 12 13  1  0
  9 14  1  0
 13 14  2  0
  4 15  1  0
 15 16  1  0
 16 17  1  0
  7 18  1  0
 17 18  1  0
 18 19  1  0
 15 20  1  0
 19 20  1  0
M  END
