x0692-x2646
     RDKit          3D

 29 32  0  0  0  0  0  0  0  0999 V2000
   11.0340    2.3370   23.8460 C   0  0  0  0  0  0  0  0  0  0  0  0
    5.3280   -4.1580   19.7450 O   0  0  0  0  0  0  0  0  0  0  0  0
    9.1340   -2.4670   24.1440 C   0  0  0  0  0  0  0  0  0  0  0  0
    6.1180   -3.2150   19.8950 C   0  0  0  0  0  0  0  0  0  0  0  0
    7.1780   -2.9970   18.8000 C   0  0  0  0  0  0  0  0  0  0  0  0
   13.4400   -1.6260   21.4480 Cl  0  0  0  0  0  0  0  0  0  0  0  0
    6.9350    1.0300   22.1110 O   0  0  0  0  0  0  0  0  0  0  0  0
    7.0980   -0.3780   22.2100 C   0  0  0  0  0  0  0  0  0  0  0  0
    7.2760   -1.0400   23.5360 C   0  0  0  0  0  0  0  0  0  0  0  0
   11.1860    0.8660   23.5060 C   0  0  0  0  0  0  0  0  0  0  0  0
   10.1030   -0.0450   24.0440 C   0  0  0  0  0  0  0  0  0  0  0  0
   10.1450   -1.5220   23.7130 C   0  0  0  0  0  0  0  0  0  0  0  0
   11.3270   -1.9440   22.8470 C   0  0  0  0  0  0  0  0  0  0  0  0
   12.2420   -0.9950   22.4320 C   0  0  0  0  0  0  0  0  0  0  0  0
   12.2060    0.3530   22.7410 C   0  0  0  0  0  0  0  0  0  0  0  0
    6.0940   -2.3680   21.0340 N   0  0  0  0  0  0  0  0  0  0  0  0
    7.2740   -1.4860   21.2140 C   0  0  2  0  0  0  0  0  0  0  0  0
    8.2880   -2.2460   21.8120 C   0  0  0  0  0  0  0  0  0  0  0  0
    7.9570   -2.3670   23.1630 C   0  0  1  0  0  0  0  0  0  0  0  0
    6.9590   -3.3360   23.2120 C   0  0  0  0  0  0  0  0  0  0  0  0
    5.7600   -2.9640   22.2950 C   0  0  0  0  0  0  0  0  0  0  0  0
    4.7340    1.3350   21.5760 C   0  0  0  0  0  0  0  0  0  0  0  0
    6.2370    0.4050   17.9050 N   0  0  0  0  0  0  0  0  0  0  0  0
    7.0830   -0.2080   18.9110 C   0  0  0  0  0  0  0  0  0  0  0  0
    6.3150    0.2860   20.1690 C   0  0  0  0  0  0  0  0  0  0  0  0
    5.1690    1.0790   20.2500 C   0  0  0  0  0  0  0  0  0  0  0  0
    4.5490    1.5500   19.1560 C   0  0  0  0  0  0  0  0  0  0  0  0
    5.0950    1.2060   17.9780 C   0  0  0  0  0  0  0  0  0  0  0  0
    7.7830   -0.7160   20.0420 C   0  0  0  0  0  0  0  0  0  0  0  0
  2  4  2  0
  4  5  1  0
  7  8  2  0
  8  9  1  0
  1 10  1  0
 10 11  2  0
  3 12  1  0
 11 12  1  0
 12 13  2  0
  6 14  1  0
 13 14  1  0
 10 15  1  0
 14 15  2  0
  4 16  1  0
  8 17  1  0
 16 17  1  0
 17 18  1  0
 19  3  1  1
  9 19  1  0
 18 19  1  0
 19 20  1  0
 16 21  1  0
 20 21  1  0
 23 24  2  0
 24 25  1  0
 22 26  1  0
 25 26  2  0
 26 27  1  0
 23 28  1  0
 27 28  2  0
 17 29  1  6
 24 29  1  0
M  END
