x0708-x2646
     RDKit          3D

 28 30  0  0  0  0  0  0  0  0999 V2000
    6.5540   -4.7160   21.1670 N   0  0  0  0  0  0  0  0  0  0  0  0
    7.2760   -3.1430   19.2790 C   0  0  0  0  0  0  0  0  0  0  0  0
    5.0950   -3.9800   19.5860 O   0  0  0  0  0  0  0  0  0  0  0  0
    6.2310   -3.9530   20.0190 C   0  0  0  0  0  0  0  0  0  0  0  0
    7.5140   -4.2800   22.0690 N   0  0  0  0  0  0  0  0  0  0  0  0
    6.1540   -2.7970   23.0720 O   0  0  0  0  0  0  0  0  0  0  0  0
    7.2730   -3.0770   22.6720 C   0  0  0  0  0  0  0  0  0  0  0  0
   13.1760   -2.2850   21.2440 Cl  0  0  0  0  0  0  0  0  0  0  0  0
    4.9200    1.3090   21.9000 C   0  0  0  0  0  0  0  0  0  0  0  0
    9.0920    0.9450   21.6230 O   0  0  0  0  0  0  0  0  0  0  0  0
    7.5150   -0.6310   21.2480 N   0  0  0  0  0  0  0  0  0  0  0  0
    8.6430   -0.1650   21.9120 C   0  0  0  0  0  0  0  0  0  0  0  0
    9.4180   -0.9940   23.0400 C   0  0  0  0  0  0  0  0  0  0  0  0
    8.4850   -2.1190   22.8180 C   0  0  0  0  0  0  0  0  0  0  0  0
    9.8500   -2.2690   22.3020 C   0  0  0  0  0  0  0  0  0  0  0  0
   10.9590   -1.3440   22.4960 C   0  0  0  0  0  0  0  0  0  0  0  0
   10.2870   -0.2550   23.3540 C   0  0  0  0  0  0  0  0  0  0  0  0
    8.5650   -0.6140   23.6810 S   0  0  0  0  0  0  0  0  0  0  0  0
   12.4110   -1.1010   22.1930 C   0  0  0  0  0  0  0  0  0  0  0  0
   13.0730    0.0400   22.6670 C   0  0  0  0  0  0  0  0  0  0  0  0
   12.3780    0.9900   23.4430 C   0  0  0  0  0  0  0  0  0  0  0  0
   11.0280    0.8710   23.7940 C   0  0  0  0  0  0  0  0  0  0  0  0
    6.3660    0.4690   17.7650 N   0  0  0  0  0  0  0  0  0  0  0  0
    7.0890   -0.1690   18.8970 C   0  0  0  0  0  0  0  0  0  0  0  0
    6.6870    0.0640   20.2140 C   0  0  0  0  0  0  0  0  0  0  0  0
    5.4960    0.9590   20.5330 C   0  0  0  0  0  0  0  0  0  0  0  0
    4.8170    1.5670   19.2840 C   0  0  0  0  0  0  0  0  0  0  0  0
    5.3190    1.2650   18.0330 C   0  0  0  0  0  0  0  0  0  0  0  0
  1  4  1  0
  2  4  1  0
  3  4  2  0
  1  5  1  0
  5  7  1  0
  6  7  2  0
 10 12  2  0
 11 12  1  0
 12 13  1  0
  7 14  1  0
 13 15  1  0
 14 15  2  0
 15 16  1  0
 16 17  2  0
 14 18  1  0
 17 18  1  0
  8 19  1  0
 16 19  1  0
 19 20  2  0
 20 21  1  0
 17 22  1  0
 21 22  2  0
 23 24  2  0
 11 25  1  0
 24 25  1  0
  9 26  1  0
 25 26  2  0
 26 27  1  0
 23 28  1  0
 27 28  2  0
M  END
