x0705-x2562
     RDKit          3D

 41 45  0  0  0  0  0  0  0  0999 V2000
    0.8760   -2.5620   28.0050 C   0  0  0  0  0  0  0  0  0  0  0  0
    7.4370   -1.4920   26.3600 O   0  0  0  0  0  0  0  0  0  0  0  0
    5.8600   -3.7130   19.6600 O   0  0  0  0  0  0  0  0  0  0  0  0
    6.4440   -1.9750   25.6080 C   0  0  0  0  0  0  0  0  0  0  0  0
    6.7020   -3.7780   20.5880 C   0  0  0  0  0  0  0  0  0  0  0  0
    7.8860   -4.6200   20.4560 C   0  0  0  0  0  0  0  0  0  0  0  0
    2.2550   -2.4210   27.4210 C   0  0  0  0  0  0  0  0  0  0  0  0
    2.5390   -1.4090   26.2860 C   0  0  0  0  0  0  0  0  0  0  0  0
    3.9310   -1.2620   25.6880 C   0  0  0  0  0  0  0  0  0  0  0  0
    5.0860   -2.1170   26.2050 C   0  0  0  0  0  0  0  0  0  0  0  0
    4.8420   -3.1180   27.3200 C   0  0  0  0  0  0  0  0  0  0  0  0
    3.4470   -3.2870   27.9380 C   0  0  0  0  0  0  0  0  0  0  0  0
    6.6300   -3.0690   21.9140 C   0  0  0  0  0  0  0  0  0  0  0  0
    5.6250   -3.6650   22.6130 C   0  0  0  0  0  0  0  0  0  0  0  0
    5.2900   -2.7630   23.5880 C   0  0  0  0  0  0  0  0  0  0  0  0
    6.4960   -2.3590   24.3210 N   0  0  0  0  0  0  0  0  0  0  0  0
    7.8000   -2.2680   23.6290 C   0  0  0  0  0  0  0  0  0  0  0  0
    7.8980   -3.0780   22.5150 C   0  0  0  0  0  0  0  0  0  0  0  0
    8.2990   -0.1250   21.2960 C   0  0  0  0  0  0  0  0  0  0  0  0
    8.1840    1.0970   21.1810 O   0  0  0  0  0  0  0  0  0  0  0  0
    7.1950   -0.9040   20.6150 C   0  0  2  0  0  0  0  0  0  0  0  0
   12.0330    3.0690   23.3170 O   0  0  0  0  0  0  0  0  0  0  0  0
    9.3230   -0.9290   21.9480 N   0  0  0  0  0  0  0  0  0  0  0  0
   13.4850    6.8000   22.1830 O   0  0  0  0  0  0  0  0  0  0  0  0
    4.5110    1.4990   19.4460 N   0  0  0  0  0  0  0  0  0  0  0  0
    4.9530    1.6360   18.1750 C   0  0  0  0  0  0  0  0  0  0  0  0
    6.1260    0.9860   17.5690 N   0  0  0  0  0  0  0  0  0  0  0  0
    6.8120    0.1940   18.3700 C   0  0  0  0  0  0  0  0  0  0  0  0
    6.3810   -0.0010   19.7820 C   0  0  0  0  0  0  0  0  0  0  0  0
    5.2350    0.6800   20.2220 C   0  0  0  0  0  0  0  0  0  0  0  0
   12.5570    4.5980   21.6850 N   0  0  0  0  0  0  0  0  0  0  0  0
   12.6850    5.8190   22.6000 C   0  0  1  0  0  0  0  0  0  0  0  0
   13.3110    4.9440   23.4520 C   0  0  0  0  0  0  0  0  0  0  0  0
   13.0200    3.8990   22.7310 C   0  0  1  0  0  0  0  0  0  0  0  0
   11.6830   -1.1830   22.2360 C   0  0  0  0  0  0  0  0  0  0  0  0
   13.0410   -0.5980   22.5560 C   0  0  0  0  0  0  0  0  0  0  0  0
   13.1490    0.7690   22.8910 C   0  0  0  0  0  0  0  0  0  0  0  0
   11.9270    1.6970   22.9600 C   0  0  0  0  0  0  0  0  0  0  0  0
   10.5950    1.0850   22.6360 C   0  0  0  0  0  0  0  0  0  0  0  0
   10.5350   -0.3800   22.2690 C   0  0  0  0  0  0  0  0  0  0  0  0
    6.3100   -1.5750   21.6650 C   0  0  0  0  0  0  0  0  0  0  0  0
  2  4  2  0
  3  5  2  0
  5  6  1  0
  1  7  1  0
  7  8  2  0
  8  9  1  0
  4 10  1  0
  9 10  2  0
 10 11  1  0
  7 12  1  0
 11 12  2  0
 13  5  1  0
 13 14  1  0
 14 15  1  0
  4 16  1  0
 15 16  1  0
 16 17  1  0
 13 18  1  0
 17 18  1  0
 19 20  2  0
 19 21  1  0
 19 23  1  0
 25 26  2  0
 26 27  1  0
 27 28  2  0
 21 29  1  0
 28 29  1  0
 25 30  1  0
 29 30  2  0
 32 24  1  6
 31 32  1  0
 32 33  1  0
 34 22  1  1
 31 34  1  0
 33 34  1  0
 35 36  2  0
 36 37  1  0
 22 38  1  0
 37 38  2  0
 38 39  1  0
 23 40  1  0
 35 40  1  0
 39 40  2  0
 13 41  1  0
 21 41  1  1
M  END
