x0708-x0540
     RDKit          3D

 36 39  0  0  0  0  0  0  0  0999 V2000
    6.7330   -4.8560   21.3080 N   0  0  0  0  0  0  0  0  0  0  0  0
    7.2940   -3.2140   19.4230 C   0  0  0  0  0  0  0  0  0  0  0  0
    5.1810   -4.2070   19.7530 O   0  0  0  0  0  0  0  0  0  0  0  0
    6.3250   -4.0990   20.1730 C   0  0  0  0  0  0  0  0  0  0  0  0
    7.7530   -4.3950   22.1440 N   0  0  0  0  0  0  0  0  0  0  0  0
    6.3650   -2.5470   22.6260 N   0  0  0  0  0  0  0  0  0  0  0  0
    7.5780   -3.0990   22.4900 C   0  0  0  0  0  0  0  0  0  0  0  0
    2.8920    1.5020   24.4300 O   0  0  0  0  0  0  0  0  0  0  0  0
    2.9570    2.3980   23.5920 C   0  0  0  0  0  0  0  0  0  0  0  0
    4.1670    2.7600   22.8550 N   0  0  0  0  0  0  0  0  0  0  0  0
    5.1900    1.7690   22.5780 C   0  0  0  0  0  0  0  0  0  0  0  0
    4.6350    0.5710   21.8260 C   0  0  2  0  0  0  0  0  0  0  0  0
    1.8500    3.2460   23.2040 N   0  0  0  0  0  0  0  0  0  0  0  0
    6.2620   -1.2520   22.9160 C   0  0  0  0  0  0  0  0  0  0  0  0
    4.8480   -0.6890   22.7130 C   0  0  0  0  0  0  0  0  0  0  0  0
    8.7830   -2.2610   22.6900 C   0  0  0  0  0  0  0  0  0  0  0  0
   10.1840   -2.2900   22.1060 C   0  0  0  0  0  0  0  0  0  0  0  0
   10.9840   -1.2980   22.5590 C   0  0  0  0  0  0  0  0  0  0  0  0
   10.4230   -0.3980   23.4770 C   0  0  0  0  0  0  0  0  0  0  0  0
    8.7530   -0.9230   23.7760 S   0  0  0  0  0  0  0  0  0  0  0  0
   12.4600   -1.0890   22.1260 C   0  0  0  0  0  0  0  0  0  0  0  0
   13.0870    0.0010   22.6710 C   0  0  0  0  0  0  0  0  0  0  0  0
   12.5380    0.8960   23.5520 C   0  0  0  0  0  0  0  0  0  0  0  0
   11.2490    0.7780   24.0150 C   0  0  0  0  0  0  0  0  0  0  0  0
    6.4370   -0.3990   20.0780 C   0  0  0  0  0  0  0  0  0  0  0  0
    6.8560   -0.3060   18.6270 C   0  0  0  0  0  0  0  0  0  0  0  0
    6.2550    0.4720   17.7130 N   0  0  0  0  0  0  0  0  0  0  0  0
    5.2120    1.2080   18.1480 C   0  0  0  0  0  0  0  0  0  0  0  0
    4.6830    1.2490   19.4510 C   0  0  0  0  0  0  0  0  0  0  0  0
    5.2740    0.4550   20.4470 C   0  0  0  0  0  0  0  0  0  0  0  0
    0.5340    4.5900   24.5550 C   0  0  0  0  0  0  0  0  0  0  0  0
   -0.7160    4.9310   25.1070 C   0  0  0  0  0  0  0  0  0  0  0  0
   -1.7320    4.6400   24.2100 C   0  0  0  0  0  0  0  0  0  0  0  0
   -1.6850    3.3000   23.8340 C   0  0  0  0  0  0  0  0  0  0  0  0
   -0.4800    2.9780   23.1940 C   0  0  0  0  0  0  0  0  0  0  0  0
    0.6080    3.2990   24.0040 C   0  0  0  0  0  0  0  0  0  0  0  0
  1  4  1  0
  2  4  1  0
  3  4  2  0
  1  5  1  0
  5  7  1  0
  6  7  2  3
  8  9  2  0
  9 10  1  0
 10 11  1  0
 12 11  1  1
  9 13  1  0
  6 14  1  0
 12 15  1  0
 14 15  1  0
  7 16  1  0
 16 17  2  0
 17 18  1  0
 18 19  2  0
 16 20  1  0
 19 20  1  0
 18 21  1  0
 21 22  2  0
 22 23  1  0
 19 24  1  0
 23 24  2  0
 25 26  2  0
 26 27  1  0
 27 28  2  0
 28 29  1  0
 12 30  1  0
 25 30  1  0
 29 30  2  0
 31 32  1  0
 32 33  1  0
 33 34  1  0
 34 35  1  0
 13 36  1  0
 31 36  1  0
 35 36  1  0
M  END
