x0705-x2608
     RDKit          3D

 34 37  0  0  0  0  0  0  0  0999 V2000
    1.2720   -2.4870   27.8820 C   0  0  0  0  0  0  0  0  0  0  0  0
    7.6960   -1.4000   25.9170 O   0  0  0  0  0  0  0  0  0  0  0  0
    5.5690   -4.0650   19.8310 O   0  0  0  0  0  0  0  0  0  0  0  0
    6.5900   -1.7790   25.2500 C   0  0  0  0  0  0  0  0  0  0  0  0
    6.6260   -3.8670   20.4750 C   0  0  0  0  0  0  0  0  0  0  0  0
    7.8300   -3.7760   19.6600 C   0  0  0  0  0  0  0  0  0  0  0  0
    8.2850   -0.8150   22.6890 N   0  0  0  0  0  0  0  0  0  0  0  0
   12.9890    1.4750   22.9460 C   0  0  0  0  0  0  0  0  0  0  0  0
    8.4680    0.9940   21.1820 O   0  0  0  0  0  0  0  0  0  0  0  0
    6.8620   -0.6030   20.8080 N   0  0  0  0  0  0  0  0  0  0  0  0
    7.9040   -0.0510   21.5130 C   0  0  0  0  0  0  0  0  0  0  0  0
    2.6880   -2.3920   27.2990 C   0  0  0  0  0  0  0  0  0  0  0  0
    2.8330   -1.4830   26.2550 C   0  0  0  0  0  0  0  0  0  0  0  0
    4.1840   -1.2810   25.5650 C   0  0  0  0  0  0  0  0  0  0  0  0
    5.2730   -2.0220   26.0000 C   0  0  0  0  0  0  0  0  0  0  0  0
    5.0860   -3.0230   27.1660 C   0  0  0  0  0  0  0  0  0  0  0  0
    3.7960   -3.1400   27.7380 C   0  0  0  0  0  0  0  0  0  0  0  0
    6.7850   -3.8250   21.8670 N   0  0  0  0  0  0  0  0  0  0  0  0
    5.7310   -3.8720   22.6850 C   0  0  0  0  0  0  0  0  0  0  0  0
    5.3320   -2.7260   23.3810 C   0  0  0  0  0  0  0  0  0  0  0  0
    6.4860   -1.9820   23.8840 N   0  0  0  0  0  0  0  0  0  0  0  0
    7.4020   -1.9060   22.8850 C   0  0  2  0  0  0  0  0  0  0  0  0
    7.8150   -3.0990   22.3810 C   0  0  0  0  0  0  0  0  0  0  0  0
   11.9720    0.4450   23.0520 C   0  0  0  0  0  0  0  0  0  0  0  0
   11.9600   -0.8850   23.4340 C   0  0  0  0  0  0  0  0  0  0  0  0
   10.7330   -1.5350   23.3870 C   0  0  0  0  0  0  0  0  0  0  0  0
    9.7090   -0.6810   22.9430 C   0  0  0  0  0  0  0  0  0  0  0  0
   10.3430    0.8860   22.6240 S   0  0  0  0  0  0  0  0  0  0  0  0
    6.1990    0.8660   17.6380 N   0  0  0  0  0  0  0  0  0  0  0  0
    6.7380    0.1760   18.6210 C   0  0  0  0  0  0  0  0  0  0  0  0
    6.2160    0.0940   19.8990 C   0  0  0  0  0  0  0  0  0  0  0  0
    5.0340    0.7600   20.2090 C   0  0  0  0  0  0  0  0  0  0  0  0
    4.4040    1.5060   19.2330 C   0  0  0  0  0  0  0  0  0  0  0  0
    4.9650    1.5820   17.9510 C   0  0  0  0  0  0  0  0  0  0  0  0
  2  4  2  0
  3  5  2  0
  5  6  1  0
  7 11  1  0
  9 11  2  0
 10 11  1  0
  1 12  1  0
 12 13  2  0
 13 14  1  0
  4 15  1  0
 14 15  2  0
 15 16  1  0
 12 17  1  0
 16 17  2  0
  5 18  1  0
 18 19  1  0
 19 20  1  0
  4 21  1  0
 20 21  1  0
 22  7  1  1
 21 22  1  0
 18 23  1  0
 22 23  1  0
  8 24  1  0
 24 25  2  0
 25 26  1  0
  7 27  1  0
 26 27  2  0
 24 28  1  0
 27 28  1  0
 29 30  2  0
 10 31  1  0
 30 31  1  0
 31 32  2  0
 32 33  1  0
 29 34  1  0
 33 34  2  0
M  END
