x0708-x2608
     RDKit          3D

 27 29  0  0  0  0  0  0  0  0999 V2000
    6.4780   -4.8470   21.0840 N   0  0  0  0  0  0  0  0  0  0  0  0
    7.2180   -3.1560   19.2850 C   0  0  0  0  0  0  0  0  0  0  0  0
    5.0380   -3.9700   19.5570 O   0  0  0  0  0  0  0  0  0  0  0  0
    6.1700   -3.9960   19.9880 C   0  0  0  0  0  0  0  0  0  0  0  0
    7.4450   -4.4930   22.0110 N   0  0  0  0  0  0  0  0  0  0  0  0
    6.1750   -2.9630   23.1060 O   0  0  0  0  0  0  0  0  0  0  0  0
    7.2460   -3.2850   22.6170 C   0  0  0  0  0  0  0  0  0  0  0  0
    9.2290   -1.3060   22.7530 N   0  0  0  0  0  0  0  0  0  0  0  0
    8.9640    0.8330   21.4120 O   0  0  0  0  0  0  0  0  0  0  0  0
    7.4090   -1.0160   21.1700 N   0  0  0  0  0  0  0  0  0  0  0  0
    8.5460   -0.4860   21.7720 C   0  0  0  0  0  0  0  0  0  0  0  0
   13.3490    1.2880   22.9020 C   0  0  0  0  0  0  0  0  0  0  0  0
    8.3880   -2.3130   22.6890 C   0  0  0  0  0  0  0  0  0  0  0  0
    9.7430   -2.4760   22.2620 C   0  0  0  0  0  0  0  0  0  0  0  0
   10.8190   -1.5150   22.3920 C   0  0  0  0  0  0  0  0  0  0  0  0
   10.0400   -0.4130   23.0660 C   0  0  0  0  0  0  0  0  0  0  0  0
    8.3060   -0.7410   23.3880 S   0  0  0  0  0  0  0  0  0  0  0  0
   12.2830   -1.2390   22.1450 C   0  0  0  0  0  0  0  0  0  0  0  0
   13.0100   -0.0590   22.4440 C   0  0  0  0  0  0  0  0  0  0  0  0
   12.0460    0.8060   23.0570 C   0  0  0  0  0  0  0  0  0  0  0  0
   10.7060    0.6910   23.3610 C   0  0  0  0  0  0  0  0  0  0  0  0
    6.1830    0.5400   17.8500 N   0  0  0  0  0  0  0  0  0  0  0  0
    6.9810   -0.2380   18.8300 C   0  0  0  0  0  0  0  0  0  0  0  0
    6.6020   -0.2190   20.1660 C   0  0  0  0  0  0  0  0  0  0  0  0
    5.5010    0.4930   20.6480 C   0  0  0  0  0  0  0  0  0  0  0  0
    4.6110    1.3230   19.7340 C   0  0  0  0  0  0  0  0  0  0  0  0
    5.1040    1.2490   18.2680 C   0  0  0  0  0  0  0  0  0  0  0  0
  1  4  1  0
  2  4  1  0
  3  4  2  0
  1  5  1  0
  5  7  1  0
  6  7  2  0
  8 11  1  0
  9 11  2  0
 10 11  1  0
  7 13  1  0
  8 14  1  0
 13 14  2  0
 14 15  1  0
 15 16  2  0
 13 17  1  0
 16 17  1  0
 15 18  1  0
 12 19  1  0
 18 19  2  0
 19 20  1  0
 16 21  1  0
 20 21  2  0
 22 23  2  0
 10 24  1  0
 23 24  1  0
 24 25  2  0
 25 26  1  0
 22 27  1  0
 26 27  2  0
M  END
