x0705-x1478
     RDKit          3D

 19 20  0  0  0  0  0  0  0  0999 V2000
    1.0300   -2.5180   27.6960 C   0  0  0  0  0  0  0  0  0  0  0  0
    7.4240   -1.4940   26.3480 O   0  0  0  0  0  0  0  0  0  0  0  0
    5.4650   -3.6580   19.6210 O   0  0  0  0  0  0  0  0  0  0  0  0
    6.4430   -1.9080   25.5330 C   0  0  0  0  0  0  0  0  0  0  0  0
    6.4800   -3.4400   20.3270 C   0  0  0  0  0  0  0  0  0  0  0  0
    7.7230   -3.8440   19.7160 C   0  0  0  0  0  0  0  0  0  0  0  0
    5.4780   -5.2910   22.0900 Cl  0  0  0  0  0  0  0  0  0  0  0  0
    2.4400   -2.4150   27.1960 C   0  0  0  0  0  0  0  0  0  0  0  0
    2.7500   -1.5050   26.1600 C   0  0  0  0  0  0  0  0  0  0  0  0
    4.0410   -1.3540   25.6350 C   0  0  0  0  0  0  0  0  0  0  0  0
    5.0770   -2.1290   26.1500 C   0  0  0  0  0  0  0  0  0  0  0  0
    4.8170   -3.1330   27.2750 C   0  0  0  0  0  0  0  0  0  0  0  0
    3.5450   -3.2850   27.7940 C   0  0  0  0  0  0  0  0  0  0  0  0
    6.5720   -2.9510   21.6200 N   0  0  0  0  0  0  0  0  0  0  0  0
    6.2250   -3.8680   22.7090 C   0  0  1  0  0  0  0  0  0  0  0  0
    5.5720   -3.0870   23.6380 C   0  0  0  0  0  0  0  0  0  0  0  0
    6.6060   -2.1500   24.1990 N   0  0  0  0  0  0  0  0  0  0  0  0
    7.9100   -2.1420   23.4490 C   0  0  0  0  0  0  0  0  0  0  0  0
    7.7070   -2.1130   22.0540 C   0  0  0  0  0  0  0  0  0  0  0  0
  2  4  2  0
  3  5  2  0
  5  6  1  0
  1  8  1  0
  8  9  2  0
  9 10  1  0
  4 11  1  0
 10 11  2  0
 11 12  1  0
  8 13  1  0
 12 13  2  0
  5 14  1  0
 15  7  1  6
 14 15  1  0
 15 16  1  0
  4 17  1  0
 16 17  1  0
 17 18  1  0
 14 19  1  0
 18 19  1  0
M  END
