x0705-x0770
     RDKit          3D

 26 28  0  0  0  0  0  0  0  0999 V2000
    1.1380   -2.5440   28.0470 C   0  0  0  0  0  0  0  0  0  0  0  0
    7.4740   -1.2920   26.0820 O   0  0  0  0  0  0  0  0  0  0  0  0
    5.5000   -3.4480   19.4710 O   0  0  0  0  0  0  0  0  0  0  0  0
    6.5020   -1.9300   25.4390 C   0  0  0  0  0  0  0  0  0  0  0  0
    6.5010   -3.2920   20.2090 C   0  0  0  0  0  0  0  0  0  0  0  0
    7.7320   -3.8160   19.6950 C   0  0  0  0  0  0  0  0  0  0  0  0
   13.3340   -1.8440   21.1410 Cl  0  0  0  0  0  0  0  0  0  0  0  0
    9.0270   -2.3210   24.1690 C   0  0  0  0  0  0  0  0  0  0  0  0
    2.4980   -2.3750   27.3830 C   0  0  0  0  0  0  0  0  0  0  0  0
    2.6200   -1.3810   26.2360 C   0  0  0  0  0  0  0  0  0  0  0  0
    3.9710   -1.1970   25.5500 C   0  0  0  0  0  0  0  0  0  0  0  0
    5.1500   -2.0280   26.0550 C   0  0  0  0  0  0  0  0  0  0  0  0
    4.9360   -3.0110   27.2300 C   0  0  0  0  0  0  0  0  0  0  0  0
    3.7250   -3.1590   27.8260 C   0  0  0  0  0  0  0  0  0  0  0  0
    6.5400   -2.7970   21.4880 N   0  0  0  0  0  0  0  0  0  0  0  0
    5.7160   -3.5240   22.3290 C   0  0  0  0  0  0  0  0  0  0  0  0
    5.4270   -2.8290   23.4600 C   0  0  0  0  0  0  0  0  0  0  0  0
    6.6350   -2.4970   24.2170 N   0  0  0  0  0  0  0  0  0  0  0  0
    7.8020   -2.0100   23.4490 C   0  0  2  0  0  0  0  0  0  0  0  0
    7.8150   -2.5060   22.1460 C   0  0  0  0  0  0  0  0  0  0  0  0
   10.5200   -0.2840   24.4440 C   0  0  0  0  0  0  0  0  0  0  0  0
   11.7370    0.5600   24.0810 C   0  0  0  0  0  0  0  0  0  0  0  0
   12.7240    0.1400   23.0240 C   0  0  0  0  0  0  0  0  0  0  0  0
   12.3760   -1.1930   22.3610 C   0  0  0  0  0  0  0  0  0  0  0  0
   11.1330   -1.9840   22.7780 C   0  0  0  0  0  0  0  0  0  0  0  0
   10.2560   -1.5170   23.7870 C   0  0  0  0  0  0  0  0  0  0  0  0
  2  4  2  0
  3  5  2  0
  5  6  1  0
  1  9  1  0
  9 10  2  0
 10 11  1  0
  4 12  1  0
 11 12  2  0
 12 13  1  0
  9 14  1  0
 13 14  2  0
  5 15  1  0
 15 16  1  0
 16 17  1  0
  4 18  1  0
 17 18  1  0
 19  8  1  1
 18 19  1  0
 15 20  1  0
 19 20  1  0
 21 22  2  0
 22 23  1  0
  7 24  1  0
 23 24  2  0
 24 25  1  0
  8 26  1  0
 21 26  1  0
 25 26  2  0
M  END
