x0708-x0107
     RDKit          3D

 27 29  0  0  0  0  0  0  0  0999 V2000
    6.5960   -4.7400   21.2210 N   0  0  0  0  0  0  0  0  0  0  0  0
    7.2220   -3.1580   19.2960 C   0  0  0  0  0  0  0  0  0  0  0  0
    5.0890   -4.0860   19.6540 O   0  0  0  0  0  0  0  0  0  0  0  0
    6.2300   -4.0000   20.0690 C   0  0  0  0  0  0  0  0  0  0  0  0
    7.6550   -4.3490   22.0370 N   0  0  0  0  0  0  0  0  0  0  0  0
    6.4210   -2.9040   23.2190 O   0  0  0  0  0  0  0  0  0  0  0  0
    7.5020   -3.1780   22.7190 C   0  0  0  0  0  0  0  0  0  0  0  0
    9.7270   -1.0910   22.9840 C   0  0  0  0  0  0  0  0  0  0  0  0
    9.0440   -0.0900   21.9350 C   0  0  0  0  0  0  0  0  0  0  0  0
    9.4550    1.0520   21.7500 O   0  0  0  0  0  0  0  0  0  0  0  0
    7.8970   -0.7010   21.2290 N   0  0  0  0  0  0  0  0  0  0  0  0
    5.6130    0.7950   22.0560 C   0  0  0  0  0  0  0  0  0  0  0  0
    8.7360   -2.2280   22.8210 C   0  0  0  0  0  0  0  0  0  0  0  0
   10.1260   -2.3570   22.3350 C   0  0  0  0  0  0  0  0  0  0  0  0
   11.2410   -1.4310   22.4730 C   0  0  0  0  0  0  0  0  0  0  0  0
   10.4990   -0.3240   23.2800 C   0  0  0  0  0  0  0  0  0  0  0  0
    8.7800   -0.6950   23.6150 S   0  0  0  0  0  0  0  0  0  0  0  0
   12.7110   -1.1380   22.1850 C   0  0  0  0  0  0  0  0  0  0  0  0
   13.2500    0.0740   22.6450 C   0  0  0  0  0  0  0  0  0  0  0  0
   12.5000    1.0220   23.3660 C   0  0  0  0  0  0  0  0  0  0  0  0
   11.1630    0.8450   23.6890 C   0  0  0  0  0  0  0  0  0  0  0  0
    6.9960   -0.1240   20.3770 C   0  0  0  0  0  0  0  0  0  0  0  0
    5.8710    0.6170   20.7300 C   0  0  0  0  0  0  0  0  0  0  0  0
    4.9150    1.2360   19.7170 C   0  0  0  0  0  0  0  0  0  0  0  0
    5.3170    0.9570   18.2560 C   0  0  0  0  0  0  0  0  0  0  0  0
    6.3850    0.2420   17.9080 N   0  0  0  0  0  0  0  0  0  0  0  0
    7.1710   -0.2670   18.8850 C   0  0  0  0  0  0  0  0  0  0  0  0
  1  4  1  0
  2  4  1  0
  3  4  2  0
  1  5  1  0
  5  7  1  0
  6  7  2  0
  8  9  1  0
  9 10  2  0
  9 11  1  0
  7 13  1  0
  8 14  1  0
 13 14  2  0
 14 15  1  0
 15 16  2  0
 13 17  1  0
 16 17  1  0
 15 18  1  0
 18 19  2  0
 19 20  1  0
 16 21  1  0
 20 21  2  0
 11 22  1  0
 12 23  1  0
 22 23  2  0
 23 24  1  0
 24 25  2  0
 25 26  1  0
 22 27  1  0
 26 27  2  0
M  END
