x0708-x1380
     RDKit          3D

 27 30  0  0  0  0  0  0  0  0999 V2000
    7.4220   -3.2310   19.3250 C   0  0  0  0  0  0  0  0  0  0  0  0
    5.3640   -4.2720   19.8190 O   0  0  0  0  0  0  0  0  0  0  0  0
    6.4770   -3.9720   20.2550 C   0  0  0  0  0  0  0  0  0  0  0  0
    4.4200   -2.5190   25.0960 O   0  0  0  0  0  0  0  0  0  0  0  0
    5.1960   -3.3980   25.4140 C   0  0  0  0  0  0  0  0  0  0  0  0
    6.9040   -4.3770   21.5610 N   0  0  0  0  0  0  0  0  0  0  0  0
    6.3230   -5.4790   22.3170 C   0  0  0  0  0  0  0  0  0  0  0  0
    5.2930   -4.9100   23.3260 C   0  0  0  0  0  0  0  0  0  0  0  0
    6.0550   -3.9880   24.2910 C   0  0  1  0  0  0  0  0  0  0  0  0
    6.9000   -2.9050   23.6360 C   0  0  0  0  0  0  0  0  0  0  0  0
    7.6730   -3.4960   22.4650 C   0  0  2  0  0  0  0  0  0  0  0  0
    6.4700   -3.5190   27.3490 C   0  0  0  0  0  0  0  0  0  0  0  0
    6.8440   -4.7230   28.2520 C   0  0  0  0  0  0  0  0  0  0  0  0
    5.8700   -4.8930   29.1600 C   0  0  0  0  0  0  0  0  0  0  0  0
    4.5780   -4.9600   28.6690 C   0  0  0  0  0  0  0  0  0  0  0  0
    4.2390   -3.9900   27.7260 C   0  0  0  0  0  0  0  0  0  0  0  0
    5.3230   -3.8690   26.7720 N   0  0  0  0  0  0  0  0  0  0  0  0
    8.7420   -0.9310   22.3530 C   0  0  0  0  0  0  0  0  0  0  0  0
    9.6430   -1.9230   21.9140 C   0  0  0  0  0  0  0  0  0  0  0  0
   10.8140   -1.2290   22.2430 C   0  0  0  0  0  0  0  0  0  0  0  0
   10.8040    0.1470   22.8320 C   0  0  0  0  0  0  0  0  0  0  0  0
    9.1620    0.5650   23.0260 S   0  0  0  0  0  0  0  0  0  0  0  0
   12.1160   -1.7390   22.0410 C   0  0  0  0  0  0  0  0  0  0  0  0
   13.2610   -1.0180   22.3500 C   0  0  0  0  0  0  0  0  0  0  0  0
   13.1820    0.2640   22.8720 C   0  0  0  0  0  0  0  0  0  0  0  0
   12.0340    0.8970   23.1330 C   0  0  0  0  0  0  0  0  0  0  0  0
    8.2210   -2.3600   21.6850 C   0  0  0  0  0  0  0  0  0  0  0  0
  1  3  1  0
  2  3  2  0
  4  5  2  0
  3  6  1  0
  6  7  1  0
  7  8  1  0
  9  5  1  1
  8  9  1  0
  9 10  1  0
  6 11  1  0
 10 11  1  0
 12 13  1  0
 13 14  1  0
 14 15  1  0
 15 16  1  0
  5 17  1  0
 12 17  1  0
 16 17  1  0
 18 19  2  0
 19 20  1  0
 20 21  2  0
 18 22  1  0
 21 22  1  0
 20 23  1  0
 23 24  2  0
 24 25  1  0
 21 26  1  0
 25 26  2  0
 11 27  1  6
 19 27  1  0
M  END
