x0705-x0072
     RDKit          3D

 31 34  0  0  0  0  0  0  0  0999 V2000
    1.2140   -2.5410   27.8190 C   0  0  0  0  0  0  0  0  0  0  0  0
    7.4580   -0.8360   26.0720 O   0  0  0  0  0  0  0  0  0  0  0  0
    5.7940   -3.3700   19.3830 O   0  0  0  0  0  0  0  0  0  0  0  0
    6.6700   -1.7860   25.5600 C   0  0  0  0  0  0  0  0  0  0  0  0
    6.5510   -3.4090   20.3740 C   0  0  0  0  0  0  0  0  0  0  0  0
    7.7570   -4.2570   20.3750 C   0  0  0  0  0  0  0  0  0  0  0  0
    6.2980   -5.0880   26.3830 C   0  0  0  0  0  0  0  0  0  0  0  0
    8.0020   -4.5910   26.2330 S   0  0  0  0  0  0  0  0  0  0  0  0
    8.8010   -5.7480   25.9110 O   0  0  0  0  0  0  0  0  0  0  0  0
    8.3220   -3.7940   27.3870 O   0  0  0  0  0  0  0  0  0  0  0  0
    8.0870   -3.5510   24.9060 N   0  0  0  0  0  0  0  0  0  0  0  0
    9.3870   -3.2230   24.4780 C   0  0  0  0  0  0  0  0  0  0  0  0
    9.2470   -2.2730   23.3420 C   0  0  1  0  0  0  0  0  0  0  0  0
    2.6450   -2.3860   27.2860 C   0  0  0  0  0  0  0  0  0  0  0  0
    2.8260   -1.4580   26.1110 C   0  0  0  0  0  0  0  0  0  0  0  0
    4.2480   -1.2760   25.5410 C   0  0  0  0  0  0  0  0  0  0  0  0
    5.2940   -1.9580   26.1220 C   0  0  0  0  0  0  0  0  0  0  0  0
    5.0330   -2.8030   27.2230 C   0  0  0  0  0  0  0  0  0  0  0  0
    3.7670   -3.0180   27.7900 C   0  0  0  0  0  0  0  0  0  0  0  0
    6.3650   -2.7620   21.5550 N   0  0  0  0  0  0  0  0  0  0  0  0
    6.0730   -3.7830   22.5370 C   0  0  0  0  0  0  0  0  0  0  0  0
    5.8420   -3.2650   23.7580 C   0  0  0  0  0  0  0  0  0  0  0  0
    7.0980   -2.6600   24.4040 C   0  0  1  0  0  0  0  0  0  0  0  0
    7.9000   -1.7930   23.3610 C   0  0  2  0  0  0  0  0  0  0  0  0
    7.2420   -1.6460   21.9680 C   0  0  0  0  0  0  0  0  0  0  0  0
   10.5360   -1.4530   23.2460 C   0  0  0  0  0  0  0  0  0  0  0  0
   11.6640   -1.9470   22.3350 C   0  0  0  0  0  0  0  0  0  0  0  0
   12.8330   -1.1930   22.2680 C   0  0  0  0  0  0  0  0  0  0  0  0
   12.9600    0.0860   23.0810 C   0  0  0  0  0  0  0  0  0  0  0  0
   11.8800    0.4760   23.8930 C   0  0  0  0  0  0  0  0  0  0  0  0
   10.6940   -0.2670   23.9850 C   0  0  0  0  0  0  0  0  0  0  0  0
  2  4  2  0
  3  5  2  0
  5  6  1  0
  8  7  1  0
  8  9  2  0
  8 10  2  0
  8 11  1  0
 11 12  1  0
 12 13  1  0
  1 14  1  0
 14 15  2  0
 15 16  1  0
  4 17  1  0
 16 17  2  0
 17 18  1  0
 14 19  1  0
 18 19  2  0
  5 20  1  0
 20 21  1  0
 21 22  1  0
 23  4  1  1
 11 23  1  0
 22 23  1  0
 13 24  1  0
 23 24  1  0
 20 25  1  0
 24 25  1  6
 13 26  1  1
 26 27  2  0
 27 28  1  0
 28 29  2  0
 29 30  1  0
 26 31  1  0
 30 31  2  0
M  END
