x0705-x0354
     RDKit          3D

 35 38  0  0  0  0  0  0  0  0999 V2000
    1.0630   -2.5280   27.8510 C   0  0  0  0  0  0  0  0  0  0  0  0
    7.3950   -1.1450   26.2320 C   0  0  0  0  0  0  0  0  0  0  0  0
    5.9420   -3.3940   19.2830 O   0  0  0  0  0  0  0  0  0  0  0  0
    6.2970   -1.9020   25.5440 C   0  0  0  0  0  0  0  0  0  0  0  0
    6.6910   -3.5240   20.2490 C   0  0  0  0  0  0  0  0  0  0  0  0
    7.7770   -4.5140   20.3360 C   0  0  0  0  0  0  0  0  0  0  0  0
   13.0180   -1.4940   22.4920 C   0  0  0  0  0  0  0  0  0  0  0  0
    8.1970   -0.3450   28.0350 O   0  0  0  0  0  0  0  0  0  0  0  0
    8.8430   -0.7560   25.9180 C   0  0  0  0  0  0  0  0  0  0  0  0
    9.2140    0.0770   27.1040 C   0  0  0  0  0  0  0  0  0  0  0  0
    5.0970    3.7360   30.8560 C   0  0  0  0  0  0  0  0  0  0  0  0
    2.4850   -2.4310   27.3040 C   0  0  0  0  0  0  0  0  0  0  0  0
    2.6320   -1.5360   26.2920 C   0  0  0  0  0  0  0  0  0  0  0  0
    3.8870   -1.3850   25.7380 C   0  0  0  0  0  0  0  0  0  0  0  0
    4.9760   -2.1190   26.1940 C   0  0  0  0  0  0  0  0  0  0  0  0
    4.7920   -3.0240   27.2270 C   0  0  0  0  0  0  0  0  0  0  0  0
    3.5520   -3.2070   27.8120 C   0  0  0  0  0  0  0  0  0  0  0  0
    6.5820   -2.8230   21.3510 N   0  0  0  0  0  0  0  0  0  0  0  0
    5.6500   -3.4260   22.1280 C   0  0  0  0  0  0  0  0  0  0  0  0
    5.3550   -2.5780   23.2980 C   0  0  0  0  0  0  0  0  0  0  0  0
    6.5520   -2.3840   24.1180 N   0  0  0  0  0  0  0  0  0  0  0  0
    7.7350   -1.8640   23.4370 C   0  0  0  0  0  0  0  0  0  0  0  0
    7.7620   -2.4740   22.0410 C   0  0  0  0  0  0  0  0  0  0  0  0
   11.8280   -1.2450   23.0880 N   0  0  0  0  0  0  0  0  0  0  0  0
   11.1150   -2.3860   23.3260 C   0  0  0  0  0  0  0  0  0  0  0  0
   10.2890   -2.3030   24.4990 C   0  0  0  0  0  0  0  0  0  0  0  0
    9.7640   -1.0350   24.8280 N   0  0  0  0  0  0  0  0  0  0  0  0
   10.8540   -0.2990   24.9750 C   0  0  0  0  0  0  0  0  0  0  0  0
   11.9860   -0.5360   24.2010 C   0  0  0  0  0  0  0  0  0  0  0  0
    8.1290    1.7030   29.3100 C   0  0  0  0  0  0  0  0  0  0  0  0
    7.3780    2.7480   30.0240 C   0  0  0  0  0  0  0  0  0  0  0  0
    5.8590    2.6730   30.1280 C   0  0  0  0  0  0  0  0  0  0  0  0
    5.2370    1.5710   29.5150 C   0  0  0  0  0  0  0  0  0  0  0  0
    5.9950    0.4770   28.7650 C   0  0  0  0  0  0  0  0  0  0  0  0
    7.5190    0.6170   28.6970 C   0  0  0  0  0  0  0  0  0  0  0  0
  2  4  2  0
  3  5  2  0
  5  6  1  0
  2  9  2  0
  8 10  1  0
  9 10  1  0
  1 12  1  0
 12 13  2  0
 13 14  1  0
  4 15  1  0
 14 15  2  0
 15 16  1  0
 12 17  1  0
 16 17  2  0
  5 18  1  0
 18 19  1  0
 19 20  1  0
  4 21  1  0
 20 21  1  0
 21 22  1  0
 18 23  1  0
 22 23  1  0
  7 24  1  0
 24 25  1  0
 25 26  1  0
  9 27  1  0
 26 27  1  0
 27 28  1  0
 24 29  1  0
 28 29  1  0
 30 31  2  0
 11 32  1  0
 31 32  1  0
 32 33  2  0
 33 34  1  0
  8 35  1  0
 30 35  1  0
 34 35  2  0
M  END
