x0705-x2779
     RDKit          3D

 24 26  0  0  0  0  0  0  0  0999 V2000
    1.0300   -2.6130   27.9580 C   0  0  0  0  0  0  0  0  0  0  0  0
    7.4250   -1.4570   26.3710 O   0  0  0  0  0  0  0  0  0  0  0  0
    5.7210   -3.3930   19.5340 O   0  0  0  0  0  0  0  0  0  0  0  0
    6.4660   -1.9510   25.5760 C   0  0  0  0  0  0  0  0  0  0  0  0
    6.7370   -3.2810   20.2970 C   0  0  0  0  0  0  0  0  0  0  0  0
    7.9040   -3.8490   19.7270 C   0  0  0  0  0  0  0  0  0  0  0  0
    9.2720   -2.7290   22.4210 C   0  0  0  0  0  0  0  0  0  0  0  0
    2.4070   -2.4340   27.3420 C   0  0  0  0  0  0  0  0  0  0  0  0
    2.5690   -1.4040   26.2300 C   0  0  0  0  0  0  0  0  0  0  0  0
    3.9440   -1.2030   25.5990 C   0  0  0  0  0  0  0  0  0  0  0  0
    5.0950   -2.0590   26.1220 C   0  0  0  0  0  0  0  0  0  0  0  0
    4.8410   -3.0820   27.2520 C   0  0  0  0  0  0  0  0  0  0  0  0
    3.6110   -3.2430   27.8000 C   0  0  0  0  0  0  0  0  0  0  0  0
    6.8250   -2.8370   21.6230 N   0  0  0  0  0  0  0  0  0  0  0  0
    6.1190   -3.6690   22.4880 C   0  0  0  0  0  0  0  0  0  0  0  0
    5.5770   -2.9790   23.5300 C   0  0  0  0  0  0  0  0  0  0  0  0
    6.6460   -2.3600   24.2950 N   0  0  0  0  0  0  0  0  0  0  0  0
    7.5200   -1.4870   23.5160 C   0  0  0  0  0  0  0  0  0  0  0  0
    7.9030   -2.0280   22.2970 C   0  0  1  0  0  0  0  0  0  0  0  0
   11.9680   -1.8830   22.2490 C   0  0  0  0  0  0  0  0  0  0  0  0
   10.4800   -1.7640   22.6900 C   0  0  0  0  0  0  0  0  0  0  0  0
   10.4110   -0.2430   23.5900 S   0  0  0  0  0  0  0  0  0  0  0  0
   12.1010    0.2130   23.4260 C   0  0  0  0  0  0  0  0  0  0  0  0
   12.8210   -0.8640   22.6270 C   0  0  0  0  0  0  0  0  0  0  0  0
  2  4  2  0
  3  5  2  0
  5  6  1  0
  1  8  1  0
  8  9  2  0
  9 10  1  0
  4 11  1  0
 10 11  2  0
 11 12  1  0
  8 13  1  0
 12 13  2  0
  5 14  1  0
 14 15  1  0
 15 16  1  0
  4 17  1  0
 16 17  1  0
 17 18  1  0
 19  7  1  1
 14 19  1  0
 18 19  1  0
  7 21  1  0
 20 21  2  0
 21 22  1  0
 22 23  1  0
 20 24  1  0
 23 24  2  0
M  END
