x0708-x1308
     RDKit          3D

 32 36  0  0  0  0  0  0  0  0999 V2000
    6.9750   -4.2860   21.0750 N   0  0  0  0  0  0  0  0  0  0  0  0
    7.3630   -3.1540   18.9520 C   0  0  0  0  0  0  0  0  0  0  0  0
    5.2180   -4.0080   19.6180 O   0  0  0  0  0  0  0  0  0  0  0  0
    6.3950   -3.8310   19.8940 C   0  0  0  0  0  0  0  0  0  0  0  0
    7.8900   -3.4110   21.5040 N   0  0  0  0  0  0  0  0  0  0  0  0
    6.4830   -2.2140   22.6030 O   0  0  0  0  0  0  0  0  0  0  0  0
    7.5370   -2.8240   22.6290 C   0  0  2  0  0  0  0  0  0  0  0  0
    0.6300   -1.2690   26.3470 Cl  0  0  0  0  0  0  0  0  0  0  0  0
    6.3910   -5.2770   27.2930 O   0  0  0  0  0  0  0  0  0  0  0  0
    4.5660   -6.9370   26.3000 O   0  0  0  0  0  0  0  0  0  0  0  0
    5.2640   -5.6700   26.2400 S   0  0  0  0  0  0  0  0  0  0  0  0
    8.7410   -2.0080   22.9360 C   0  0  0  0  0  0  0  0  0  0  0  0
    9.9860   -2.3520   22.1390 C   0  0  0  0  0  0  0  0  0  0  0  0
   10.8880   -1.3050   22.6300 C   0  0  0  0  0  0  0  0  0  0  0  0
   10.3320   -0.3370   23.6470 C   0  0  0  0  0  0  0  0  0  0  0  0
    8.6870   -0.7270   24.0630 S   0  0  0  0  0  0  0  0  0  0  0  0
   12.3270   -1.1930   22.1090 C   0  0  0  0  0  0  0  0  0  0  0  0
   13.1300   -0.0270   22.6550 C   0  0  0  0  0  0  0  0  0  0  0  0
   12.4830    0.9380   23.6690 C   0  0  0  0  0  0  0  0  0  0  0  0
   11.1810    0.7780   24.1370 C   0  0  0  0  0  0  0  0  0  0  0  0
    6.3750   -4.6280   22.2700 N   0  0  0  0  0  0  0  0  0  0  0  0
    7.2350   -4.1690   23.2450 C   0  0  2  0  0  0  0  0  0  0  0  0
    6.7150   -4.2570   24.5210 C   0  0  0  0  0  0  0  0  0  0  0  0
    5.9450   -5.5080   24.7020 N   0  0  0  0  0  0  0  0  0  0  0  0
    5.1630   -5.9520   23.6710 C   0  0  0  0  0  0  0  0  0  0  0  0
    5.8600   -5.8440   22.4780 C   0  0  0  0  0  0  0  0  0  0  0  0
    4.4140   -3.0750   26.5990 C   0  0  0  0  0  0  0  0  0  0  0  0
    3.3350   -2.0180   26.6300 C   0  0  0  0  0  0  0  0  0  0  0  0
    1.8910   -2.4330   26.3020 C   0  0  0  0  0  0  0  0  0  0  0  0
    1.6240   -3.7660   25.9770 C   0  0  0  0  0  0  0  0  0  0  0  0
    2.6890   -4.6840   25.9730 C   0  0  0  0  0  0  0  0  0  0  0  0
    4.0330   -4.3960   26.2690 C   0  0  0  0  0  0  0  0  0  0  0  0
  1  4  1  0
  2  4  1  0
  3  4  2  0
  1  5  1  0
  5  7  1  0
  7  6  1  6
  9 11  2  0
 10 11  2  0
  7 12  1  0
 12 13  2  0
 13 14  1  0
 14 15  2  0
 12 16  1  0
 15 16  1  0
 14 17  1  0
 17 18  2  0
 18 19  1  0
 15 20  1  0
 19 20  2  0
  1 21  1  0
  7 22  1  0
 21 22  1  0
 22 23  1  1
 11 24  1  0
 23 24  1  0
 24 25  1  0
 21 26  1  0
 25 26  1  0
 27 28  2  0
  8 29  1  0
 28 29  1  0
 29 30  2  0
 30 31  1  0
 11 32  1  0
 27 32  1  0
 31 32  2  0
M  END
