x0708-x0387
     RDKit          3D

 23 25  0  0  0  0  0  0  0  0999 V2000
    6.5020   -4.6180   21.0560 N   0  0  0  0  0  0  0  0  0  0  0  0
    7.4090   -3.1330   19.1680 C   0  0  0  0  0  0  0  0  0  0  0  0
    5.1590   -3.7770   19.4140 O   0  0  0  0  0  0  0  0  0  0  0  0
    6.2840   -3.8450   19.8870 C   0  0  0  0  0  0  0  0  0  0  0  0
    7.5740   -4.3440   21.9100 N   0  0  0  0  0  0  0  0  0  0  0  0
    6.4740   -2.7000   22.9510 O   0  0  0  0  0  0  0  0  0  0  0  0
    7.5430   -3.1510   22.5760 C   0  0  0  0  0  0  0  0  0  0  0  0
    8.8610   -4.2690   27.5900 O   0  0  0  0  0  0  0  0  0  0  0  0
    8.8240   -2.4380   22.8030 C   0  0  0  0  0  0  0  0  0  0  0  0
    9.9820   -2.5060   21.8280 C   0  0  0  0  0  0  0  0  0  0  0  0
   11.0410   -1.6070   22.3450 C   0  0  0  0  0  0  0  0  0  0  0  0
   10.5120   -1.0070   23.6130 C   0  0  0  0  0  0  0  0  0  0  0  0
    9.1320   -1.5980   23.9870 C   0  0  2  0  0  0  0  0  0  0  0  0
   12.4490   -1.1090   21.9760 C   0  0  0  0  0  0  0  0  0  0  0  0
   13.0980   -0.0440   22.8660 C   0  0  0  0  0  0  0  0  0  0  0  0
   12.4090    0.4240   23.9940 C   0  0  0  0  0  0  0  0  0  0  0  0
   11.1670    0.0040   24.4370 C   0  0  0  0  0  0  0  0  0  0  0  0
    9.1650   -4.8830   26.3390 C   0  0  0  0  0  0  0  0  0  0  0  0
    8.2580   -4.4350   25.3800 C   0  0  0  0  0  0  0  0  0  0  0  0
    8.0220   -3.0670   25.5140 C   0  0  0  0  0  0  0  0  0  0  0  0
    9.2520   -2.3210   25.1280 N   0  0  0  0  0  0  0  0  0  0  0  0
   10.4440   -3.2140   25.1010 C   0  0  0  0  0  0  0  0  0  0  0  0
   10.4890   -4.4970   25.9430 C   0  0  0  0  0  0  0  0  0  0  0  0
  1  4  1  0
  2  4  1  0
  3  4  2  0
  1  5  1  0
  5  7  1  0
  6  7  2  0
  7  9  1  0
  9 10  2  0
 10 11  1  0
 11 12  2  0
  9 13  1  0
 12 13  1  0
 11 14  1  0
 14 15  2  0
 15 16  1  0
 12 17  1  0
 16 17  2  0
  8 18  1  0
 18 19  1  0
 19 20  1  0
 13 21  1  1
 20 21  1  0
 21 22  1  0
 18 23  1  0
 22 23  1  0
M  END
