x0705-x2581
     RDKit          3D

 40 44  0  0  0  0  0  0  0  0999 V2000
    1.0750   -2.5440   27.7640 C   0  0  0  0  0  0  0  0  0  0  0  0
    7.4250   -1.5350   26.2880 O   0  0  0  0  0  0  0  0  0  0  0  0
    5.3710   -3.5440   19.4750 O   0  0  0  0  0  0  0  0  0  0  0  0
    6.5330   -2.1510   25.5230 C   0  0  0  0  0  0  0  0  0  0  0  0
    6.3300   -3.3480   20.2400 C   0  0  0  0  0  0  0  0  0  0  0  0
    7.6290   -3.8350   19.8090 C   0  0  0  0  0  0  0  0  0  0  0  0
    9.2050   -2.5090   23.7160 C   0  0  0  0  0  0  0  0  0  0  0  0
   10.0000   -1.5590   23.8040 O   0  0  0  0  0  0  0  0  0  0  0  0
   10.6960    3.3020   22.0760 N   0  0  0  0  0  0  0  0  0  0  0  0
   10.9400    3.8490   24.4880 O   0  0  0  0  0  0  0  0  0  0  0  0
   11.1940    4.1030   23.1120 C   0  0  0  0  0  0  0  0  0  0  0  0
   11.9960    5.3560   22.8900 C   0  0  0  0  0  0  0  0  0  0  0  0
    2.5040   -2.4840   27.2180 C   0  0  0  0  0  0  0  0  0  0  0  0
    2.7460   -1.4760   26.1090 C   0  0  0  0  0  0  0  0  0  0  0  0
    4.1770   -1.3810   25.5280 C   0  0  0  0  0  0  0  0  0  0  0  0
    5.1510   -2.2090   26.0430 C   0  0  0  0  0  0  0  0  0  0  0  0
    4.8110   -3.1030   27.0680 C   0  0  0  0  0  0  0  0  0  0  0  0
    3.5600   -3.2630   27.6530 C   0  0  0  0  0  0  0  0  0  0  0  0
    6.2860   -2.7920   21.4880 N   0  0  0  0  0  0  0  0  0  0  0  0
    5.9180   -3.7450   22.4950 C   0  0  0  0  0  0  0  0  0  0  0  0
    5.5650   -3.0870   23.6340 C   0  0  0  0  0  0  0  0  0  0  0  0
    6.8420   -2.7150   24.2890 N   0  0  0  0  0  0  0  0  0  0  0  0
    7.7220   -2.0680   23.4560 C   0  0  2  0  0  0  0  0  0  0  0  0
    7.3620   -1.9320   21.9650 C   0  0  0  0  0  0  0  0  0  0  0  0
    8.9550    1.8930   21.2840 N   0  0  0  0  0  0  0  0  0  0  0  0
   10.1130    2.0470   22.1800 C   0  0  0  0  0  0  0  0  0  0  0  0
   10.5000    0.8390   23.0420 C   0  0  0  0  0  0  0  0  0  0  0  0
    9.7440   -0.4680   23.0420 C   0  0  0  0  0  0  0  0  0  0  0  0
    8.6760   -0.5030   22.1560 C   0  0  0  0  0  0  0  0  0  0  0  0
    8.3200    0.7080   21.2950 C   0  0  0  0  0  0  0  0  0  0  0  0
    9.9840    6.7510   22.8360 C   0  0  0  0  0  0  0  0  0  0  0  0
    9.1950    7.7810   23.3160 C   0  0  0  0  0  0  0  0  0  0  0  0
    9.6030    8.6090   24.4610 C   0  0  0  0  0  0  0  0  0  0  0  0
   10.9610    8.2730   25.1190 C   0  0  0  0  0  0  0  0  0  0  0  0
   11.7210    7.2220   24.6050 C   0  0  0  0  0  0  0  0  0  0  0  0
   11.2200    6.4260   23.4110 C   0  0  0  0  0  0  0  0  0  0  0  0
    8.8070    9.6580   24.9270 C   0  0  0  0  0  0  0  0  0  0  0  0
    9.2680   10.5020   26.1090 C   0  0  0  0  0  0  0  0  0  0  0  0
   10.6180   10.1630   26.7680 C   0  0  0  0  0  0  0  0  0  0  0  0
   11.4380    9.0060   26.2110 C   0  0  0  0  0  0  0  0  0  0  0  0
  2  4  2  0
  3  5  2  0
  5  6  1  0
  7  8  1  0
  9 11  1  0
 10 11  2  0
 11 12  1  0
  1 13  1  0
 13 14  2  0
 14 15  1  0
  4 16  1  0
 15 16  2  0
 16 17  1  0
 13 18  1  0
 17 18  2  0
  5 19  1  0
 19 20  1  0
 20 21  1  0
  4 22  1  0
 21 22  1  0
 23  7  1  6
 22 23  1  0
 19 24  1  0
 23 24  1  0
  9 26  1  0
 25 26  2  0
 26 27  1  0
  8 28  1  0
 27 28  2  0
 28 29  1  0
 25 30  1  0
 29 30  2  0
 31 32  2  0
 32 33  1  0
 33 34  2  0
 34 35  1  0
 12 36  1  0
 31 36  1  0
 35 36  2  0
 33 37  1  0
 37 38  2  0
 38 39  1  0
 34 40  1  0
 39 40  2  0
M  END
