x0705-x1093
     RDKit          3D

 38 42  0  0  0  0  0  0  0  0999 V2000
    0.9490   -2.6770   27.8660 C   0  0  0  0  0  0  0  0  0  0  0  0
    7.2450   -1.4690   26.7110 O   0  0  0  0  0  0  0  0  0  0  0  0
    5.9310   -3.5280   19.5870 O   0  0  0  0  0  0  0  0  0  0  0  0
    6.3410   -1.9260   25.8170 C   0  0  0  0  0  0  0  0  0  0  0  0
    6.7630   -3.6080   20.5390 C   0  0  0  0  0  0  0  0  0  0  0  0
    7.8930   -4.5160   20.4370 C   0  0  0  0  0  0  0  0  0  0  0  0
   13.3550   -1.4160   23.9320 C   0  0  0  0  0  0  0  0  0  0  0  0
    8.7710    1.3670   21.1900 O   0  0  0  0  0  0  0  0  0  0  0  0
    8.8050    0.1590   21.4920 C   0  0  0  0  0  0  0  0  0  0  0  0
    7.8980   -0.7940   20.9610 C   0  0  1  0  0  0  0  0  0  0  0  0
    6.9610   -1.3540   21.7880 C   0  0  0  0  0  0  0  0  0  0  0  0
    2.3200   -2.4420   27.3020 C   0  0  0  0  0  0  0  0  0  0  0  0
    2.5380   -1.4750   26.3210 C   0  0  0  0  0  0  0  0  0  0  0  0
    3.9590   -1.2890   25.7930 C   0  0  0  0  0  0  0  0  0  0  0  0
    4.9830   -2.0750   26.2960 C   0  0  0  0  0  0  0  0  0  0  0  0
    4.6770   -3.0090   27.2660 C   0  0  0  0  0  0  0  0  0  0  0  0
    3.3940   -3.2170   27.7810 C   0  0  0  0  0  0  0  0  0  0  0  0
    6.7840   -2.9000   21.9200 C   0  0  0  0  0  0  0  0  0  0  0  0
    5.6280   -3.3130   22.5210 C   0  0  0  0  0  0  0  0  0  0  0  0
    5.3600   -2.4470   23.5750 C   0  0  0  0  0  0  0  0  0  0  0  0
    6.5380   -2.2770   24.4520 N   0  0  0  0  0  0  0  0  0  0  0  0
    7.7880   -2.6010   23.9100 C   0  0  0  0  0  0  0  0  0  0  0  0
    7.9370   -3.3710   22.7700 C   0  0  0  0  0  0  0  0  0  0  0  0
   12.0610   -1.1560   23.6130 N   0  0  0  0  0  0  0  0  0  0  0  0
   11.9270    0.2010   23.1160 C   0  0  0  0  0  0  0  0  0  0  0  0
   10.5990    0.6030   22.8840 C   0  0  0  0  0  0  0  0  0  0  0  0
    9.7570   -0.2950   22.3430 N   0  0  0  0  0  0  0  0  0  0  0  0
   10.0270   -1.5970   22.6090 C   0  0  0  0  0  0  0  0  0  0  0  0
   11.3360   -1.9830   22.8650 C   0  0  0  0  0  0  0  0  0  0  0  0
    6.3110    0.2720   17.7860 N   0  0  0  0  0  0  0  0  0  0  0  0
    7.3220   -0.4720   18.5370 C   0  0  0  0  0  0  0  0  0  0  0  0
    7.1010   -0.2320   19.8460 C   0  0  0  0  0  0  0  0  0  0  0  0
    5.9790    0.5870   20.0500 C   0  0  0  0  0  0  0  0  0  0  0  0
    5.4650    0.9360   18.7730 C   0  0  0  0  0  0  0  0  0  0  0  0
    4.3570    1.7640   18.5980 N   0  0  0  0  0  0  0  0  0  0  0  0
    3.7150    2.2030   19.6940 C   0  0  0  0  0  0  0  0  0  0  0  0
    4.2060    1.8510   20.9580 C   0  0  0  0  0  0  0  0  0  0  0  0
    5.3290    1.0620   21.1110 C   0  0  0  0  0  0  0  0  0  0  0  0
  2  4  2  0
  3  5  2  0
  5  6  1  0
  8  9  2  0
  9 10  1  0
 10 11  1  1
  1 12  1  0
 12 13  2  0
 13 14  1  0
  4 15  1  0
 14 15  2  0
 15 16  1  0
 12 17  1  0
 16 17  2  0
 18  5  1  0
 11 18  1  0
 18 19  1  0
 19 20  1  0
  4 21  1  0
 20 21  1  0
 21 22  1  0
 18 23  1  0
 22 23  1  0
  7 24  1  0
 24 25  1  0
 25 26  1  0
  9 27  1  0
 26 27  1  0
 27 28  1  0
 24 29  1  0
 28 29  1  0
 30 31  1  0
 10 32  1  0
 31 32  2  0
 32 33  1  0
 30 34  2  0
 33 34  1  0
 34 35  1  0
 35 36  1  0
 36 37  2  0
 33 38  2  0
 37 38  1  0
M  END
