x0708-x2562
     RDKit          3D

 32 35  0  0  0  0  0  0  0  0999 V2000
    6.6240   -4.6720   21.2220 N   0  0  0  0  0  0  0  0  0  0  0  0
    7.2390   -3.1650   19.2440 C   0  0  0  0  0  0  0  0  0  0  0  0
    5.1010   -4.0690   19.6490 O   0  0  0  0  0  0  0  0  0  0  0  0
    6.2480   -3.9730   20.0500 C   0  0  0  0  0  0  0  0  0  0  0  0
    7.7020   -4.2540   22.0030 N   0  0  0  0  0  0  0  0  0  0  0  0
    6.5140   -2.7640   23.1980 O   0  0  0  0  0  0  0  0  0  0  0  0
    7.5650   -3.0620   22.6510 C   0  0  0  0  0  0  0  0  0  0  0  0
   12.5560    2.8090   23.4470 O   0  0  0  0  0  0  0  0  0  0  0  0
   12.9100    6.5220   23.2160 O   0  0  0  0  0  0  0  0  0  0  0  0
    8.7890   -0.2210   21.7810 C   0  0  0  0  0  0  0  0  0  0  0  0
    9.0290    0.9450   21.4350 O   0  0  0  0  0  0  0  0  0  0  0  0
    7.5620   -0.9180   21.0950 C   0  0  0  0  0  0  0  0  0  0  0  0
    9.5250   -0.9810   22.7870 N   0  0  0  0  0  0  0  0  0  0  0  0
    8.7100   -2.0500   22.7180 C   0  0  0  0  0  0  0  0  0  0  0  0
   10.1130   -2.1570   22.3840 C   0  0  0  0  0  0  0  0  0  0  0  0
   11.1400   -1.1130   22.5220 C   0  0  0  0  0  0  0  0  0  0  0  0
   10.2450    0.0270   23.0880 C   0  0  0  0  0  0  0  0  0  0  0  0
    8.5190   -0.4390   23.3140 S   0  0  0  0  0  0  0  0  0  0  0  0
   12.6090   -0.7220   22.3660 C   0  0  0  0  0  0  0  0  0  0  0  0
   13.0190    0.5750   22.6960 C   0  0  0  0  0  0  0  0  0  0  0  0
   12.1080    1.5500   23.1750 C   0  0  0  0  0  0  0  0  0  0  0  0
   10.7530    1.2860   23.3850 C   0  0  0  0  0  0  0  0  0  0  0  0
   11.7120    4.8780   22.4970 N   0  0  0  0  0  0  0  0  0  0  0  0
   12.8830    5.6530   22.3370 C   0  0  2  0  0  0  0  0  0  0  0  0
   13.7190    4.5870   22.4170 C   0  0  0  0  0  0  0  0  0  0  0  0
   12.6190    3.8270   22.4150 C   0  0  1  0  0  0  0  0  0  0  0  0
    4.9040    1.4480   19.6430 N   0  0  0  0  0  0  0  0  0  0  0  0
    5.1880    1.3480   18.3270 C   0  0  0  0  0  0  0  0  0  0  0  0
    6.2460    0.5220   17.7710 N   0  0  0  0  0  0  0  0  0  0  0  0
    7.0470   -0.2440   18.7230 C   0  0  0  0  0  0  0  0  0  0  0  0
    6.7390   -0.1220   20.0800 C   0  0  0  0  0  0  0  0  0  0  0  0
    5.6710    0.7240   20.4740 C   0  0  0  0  0  0  0  0  0  0  0  0
  1  4  1  0
  2  4  1  0
  3  4  2  0
  1  5  1  0
  5  7  1  0
  6  7  2  0
 10 11  2  0
 10 12  1  0
 10 13  1  0
  7 14  1  0
 13 15  1  0
 14 15  2  0
 15 16  1  0
 16 17  2  0
 14 18  1  0
 17 18  1  0
 16 19  1  0
 19 20  2  0
  8 21  1  0
 20 21  1  0
 17 22  1  0
 21 22  2  0
 24  9  1  1
 23 24  1  0
 24 25  1  0
 26  8  1  1
 23 26  1  0
 25 26  1  0
 27 28  2  0
 28 29  1  0
 29 30  2  0
 12 31  1  0
 30 31  1  0
 27 32  1  0
 31 32  2  0
M  END
