x0705-x0434
     RDKit          3D

 34 37  0  0  0  0  0  0  0  0999 V2000
    1.5170   -2.6830   27.5570 C   0  0  0  0  0  0  0  0  0  0  0  0
    7.6830   -0.9740   26.2110 O   0  0  0  0  0  0  0  0  0  0  0  0
    5.3860   -3.6690   19.6010 O   0  0  0  0  0  0  0  0  0  0  0  0
    6.8960   -1.7240   25.3990 C   0  0  0  0  0  0  0  0  0  0  0  0
    6.3730   -3.4550   20.3410 C   0  0  0  0  0  0  0  0  0  0  0  0
    7.6280   -3.9340   19.8090 C   0  0  0  0  0  0  0  0  0  0  0  0
    8.8720    1.3460   21.2050 O   0  0  0  0  0  0  0  0  0  0  0  0
    8.1950    0.1490   21.6580 C   0  0  0  0  0  0  0  0  0  0  0  0
    8.6300   -0.5630   22.7740 N   0  0  0  0  0  0  0  0  0  0  0  0
    7.0880   -0.3700   21.0290 N   0  0  0  0  0  0  0  0  0  0  0  0
    2.7970   -2.4530   27.0350 C   0  0  0  0  0  0  0  0  0  0  0  0
    2.9410   -1.5000   26.0090 C   0  0  0  0  0  0  0  0  0  0  0  0
    4.1930   -1.2060   25.4300 C   0  0  0  0  0  0  0  0  0  0  0  0
    5.4890   -1.9220   25.8950 C   0  0  0  0  0  0  0  0  0  0  0  0
    5.2950   -2.8570   26.9100 C   0  0  0  0  0  0  0  0  0  0  0  0
    3.9150   -3.1560   27.5220 C   0  0  0  0  0  0  0  0  0  0  0  0
    6.4450   -2.8980   21.6100 N   0  0  0  0  0  0  0  0  0  0  0  0
    5.8680   -3.5660   22.7110 C   0  0  0  0  0  0  0  0  0  0  0  0
    6.6000   -3.5310   23.9170 C   0  0  0  0  0  0  0  0  0  0  0  0
    7.3620   -2.2850   24.1930 N   0  0  0  0  0  0  0  0  0  0  0  0
    7.5920   -1.6170   23.0290 C   0  0  2  0  0  0  0  0  0  0  0  0
    7.6650   -2.4900   21.9870 C   0  0  0  0  0  0  0  0  0  0  0  0
   10.5980    0.3810   23.8290 C   0  0  0  0  0  0  0  0  0  0  0  0
   11.9660    0.4660   24.0310 C   0  0  0  0  0  0  0  0  0  0  0  0
   12.8550   -0.3800   23.4030 C   0  0  0  0  0  0  0  0  0  0  0  0
   12.3540   -1.3510   22.5390 C   0  0  0  0  0  0  0  0  0  0  0  0
   10.9670   -1.4530   22.3170 C   0  0  0  0  0  0  0  0  0  0  0  0
   10.0690   -0.5740   22.9680 C   0  0  0  0  0  0  0  0  0  0  0  0
    5.2830    1.0450   20.1820 C   0  0  0  0  0  0  0  0  0  0  0  0
    4.6580    1.6700   19.1110 C   0  0  0  0  0  0  0  0  0  0  0  0
    5.1340    1.5430   17.8220 C   0  0  0  0  0  0  0  0  0  0  0  0
    6.3230    0.7180   17.5810 N   0  0  0  0  0  0  0  0  0  0  0  0
    6.9420    0.0780   18.7260 C   0  0  0  0  0  0  0  0  0  0  0  0
    6.4080    0.2670   20.0010 C   0  0  0  0  0  0  0  0  0  0  0  0
  2  4  2  0
  3  5  2  0
  5  6  1  0
  7  8  2  0
  8  9  1  0
  8 10  1  0
  1 11  1  0
 11 12  2  0
 12 13  1  0
  4 14  1  0
 13 14  2  0
 14 15  1  0
 11 16  1  0
 15 16  2  0
  5 17  1  0
 17 18  1  0
 18 19  1  0
  4 20  1  0
 19 20  1  0
 21  9  1  1
 20 21  1  0
 17 22  1  0
 21 22  1  0
 23 24  2  0
 24 25  1  0
 25 26  2  0
 26 27  1  0
  9 28  1  0
 23 28  1  0
 27 28  2  0
 29 30  2  0
 30 31  1  0
 31 32  2  0
 32 33  1  0
 10 34  1  0
 29 34  1  0
 33 34  2  0
M  END
