x0705-x2643
     RDKit          3D

 34 37  0  0  0  0  0  0  0  0999 V2000
    1.2220   -2.4360   27.8300 C   0  0  0  0  0  0  0  0  0  0  0  0
    7.5880   -1.1820   25.9750 O   0  0  0  0  0  0  0  0  0  0  0  0
    5.5330   -3.9990   19.7880 O   0  0  0  0  0  0  0  0  0  0  0  0
    6.5960   -1.8620   25.3540 C   0  0  0  0  0  0  0  0  0  0  0  0
    6.5960   -3.7190   20.3780 C   0  0  0  0  0  0  0  0  0  0  0  0
    7.7950   -3.6540   19.5630 C   0  0  0  0  0  0  0  0  0  0  0  0
    6.8840   -0.6350   20.9710 N   0  0  0  0  0  0  0  0  0  0  0  0
    8.6730    0.8270   21.3590 O   0  0  0  0  0  0  0  0  0  0  0  0
   13.3990   -0.3540   23.0060 Cl  0  0  0  0  0  0  0  0  0  0  0  0
    7.9760   -0.5060   23.1400 C   0  0  1  0  0  0  0  0  0  0  0  0
    7.9200   -0.0320   21.8120 C   0  0  0  0  0  0  0  0  0  0  0  0
    2.6470   -2.3620   27.2710 C   0  0  0  0  0  0  0  0  0  0  0  0
    2.7950   -1.4470   26.2160 C   0  0  0  0  0  0  0  0  0  0  0  0
    4.1840   -1.2800   25.5600 C   0  0  0  0  0  0  0  0  0  0  0  0
    5.2420   -2.0380   26.0340 C   0  0  0  0  0  0  0  0  0  0  0  0
    4.9790   -3.0040   27.1890 C   0  0  0  0  0  0  0  0  0  0  0  0
    3.7130   -3.1400   27.7690 C   0  0  0  0  0  0  0  0  0  0  0  0
    6.8140   -3.5420   21.7190 N   0  0  0  0  0  0  0  0  0  0  0  0
    5.9600   -4.2110   22.7350 C   0  0  0  0  0  0  0  0  0  0  0  0
    5.5200   -3.2450   23.6570 C   0  0  0  0  0  0  0  0  0  0  0  0
    6.6950   -2.4660   24.1110 N   0  0  0  0  0  0  0  0  0  0  0  0
    7.1790   -1.8220   23.0300 C   0  0  2  0  0  0  0  0  0  0  0  0
    7.8310   -2.7430   22.2850 C   0  0  0  0  0  0  0  0  0  0  0  0
   11.7870   -0.4060   23.4470 C   0  0  0  0  0  0  0  0  0  0  0  0
   11.2820   -0.3550   24.7280 C   0  0  0  0  0  0  0  0  0  0  0  0
    9.9030   -0.3960   24.7560 C   0  0  0  0  0  0  0  0  0  0  0  0
    9.3390   -0.4830   23.4890 C   0  0  0  0  0  0  0  0  0  0  0  0
   10.5250   -0.5340   22.2590 S   0  0  0  0  0  0  0  0  0  0  0  0
    6.3860    0.7480   17.6120 N   0  0  0  0  0  0  0  0  0  0  0  0
    6.8710    0.0950   18.6790 C   0  0  0  0  0  0  0  0  0  0  0  0
    6.2520    0.0720   19.9160 C   0  0  0  0  0  0  0  0  0  0  0  0
    5.0440    0.7470   20.0870 C   0  0  0  0  0  0  0  0  0  0  0  0
    4.4840    1.4400   19.0290 C   0  0  0  0  0  0  0  0  0  0  0  0
    5.1220    1.4710   17.7830 C   0  0  0  0  0  0  0  0  0  0  0  0
  2  4  2  0
  3  5  2  0
  5  6  1  0
  7 11  1  0
  8 11  2  0
 10 11  1  6
  1 12  1  0
 12 13  2  0
 13 14  1  0
  4 15  1  0
 14 15  2  0
 15 16  1  0
 12 17  1  0
 16 17  2  0
  5 18  1  0
 18 19  1  0
 19 20  1  0
  4 21  1  0
 20 21  1  0
 10 22  1  0
 21 22  1  0
 18 23  1  0
 22 23  1  1
  9 24  1  0
 24 25  2  0
 25 26  1  0
 10 27  1  0
 26 27  2  0
 24 28  1  0
 27 28  1  0
 29 30  2  0
  7 31  1  0
 30 31  1  0
 31 32  2  0
 32 33  1  0
 29 34  1  0
 33 34  2  0
M  END
