x0708-x3298
     RDKit          3D

 36 40  0  0  0  0  0  0  0  0999 V2000
    7.4810    1.7530   22.7240 N   0  0  0  0  0  0  0  0  0  0  0  0
    7.5590   -0.3020   21.2610 C   0  0  2  0  0  0  0  0  0  0  0  0
    6.8720   -0.9500   22.2650 N   0  0  0  0  0  0  0  0  0  0  0  0
    8.0620    1.0400   21.7280 C   0  0  0  0  0  0  0  0  0  0  0  0
    9.6940    1.3630   24.3350 N   0  0  0  0  0  0  0  0  0  0  0  0
    9.0090    1.4420   21.0700 O   0  0  0  0  0  0  0  0  0  0  0  0
    8.5700    1.6790   26.5520 O   0  0  0  0  0  0  0  0  0  0  0  0
    8.6410   -0.7540   25.3970 O   0  0  0  0  0  0  0  0  0  0  0  0
   13.8110   -1.8400   20.8070 F   0  0  0  0  0  0  0  0  0  0  0  0
    9.3170    0.6610   25.6290 S   0  0  0  0  0  0  0  0  0  0  0  0
    6.7330   -4.3380   21.4440 N   0  0  0  0  0  0  0  0  0  0  0  0
    7.2430   -3.1690   19.2610 C   0  0  0  0  0  0  0  0  0  0  0  0
    5.1790   -4.1920   19.7410 O   0  0  0  0  0  0  0  0  0  0  0  0
    6.2920   -3.9140   20.1570 C   0  0  0  0  0  0  0  0  0  0  0  0
    7.6440   -3.5730   22.0260 N   0  0  0  0  0  0  0  0  0  0  0  0
    7.1120   -2.3500   22.3490 C   0  0  0  0  0  0  0  0  0  0  0  0
    6.2410    0.3430   17.6740 N   0  0  0  0  0  0  0  0  0  0  0  0
    6.9780   -0.0670   18.7060 C   0  0  0  0  0  0  0  0  0  0  0  0
    6.6770    0.1370   20.1660 C   0  0  0  0  0  0  0  0  0  0  0  0
    5.3650    0.8810   20.4480 C   0  0  0  0  0  0  0  0  0  0  0  0
    4.5140    1.3490   19.2800 C   0  0  0  0  0  0  0  0  0  0  0  0
    5.0970    1.0070   17.9050 C   0  0  0  0  0  0  0  0  0  0  0  0
    7.7540    4.1810   22.9400 C   0  0  0  0  0  0  0  0  0  0  0  0
    8.4500    5.3060   23.4310 C   0  0  0  0  0  0  0  0  0  0  0  0
    9.5680    5.0650   24.2270 C   0  0  0  0  0  0  0  0  0  0  0  0
    9.9430    3.7670   24.5020 C   0  0  0  0  0  0  0  0  0  0  0  0
    9.2900    2.6380   24.0530 C   0  0  0  0  0  0  0  0  0  0  0  0
    8.1830    2.8690   23.2550 C   0  0  0  0  0  0  0  0  0  0  0  0
   11.6920   -0.0730   23.0690 C   0  0  2  0  0  0  0  0  0  0  0  0
   12.8970   -0.2570   22.2480 C   0  0  0  0  0  0  0  0  0  0  0  0
   12.9000   -1.4810   21.6700 C   0  0  0  0  0  0  0  0  0  0  0  0
   11.8420   -2.3270   22.0490 C   0  0  0  0  0  0  0  0  0  0  0  0
   10.9400   -1.7840   22.9890 C   0  0  1  0  0  0  0  0  0  0  0  0
   11.5070   -1.0810   23.9910 C   0  0  2  0  0  0  0  0  0  0  0  0
   10.4120   -0.6390   22.3540 C   0  0  0  0  0  0  0  0  0  0  0  0
   11.3280    1.1970   23.9910 S   0  0  2  0  0  0  0  0  0  0  0  0
  2  3  1  1
  1  4  1  0
  2  4  1  0
  4  6  2  0
  5 10  1  0
  7 10  2  0
  8 10  2  0
 11 14  1  0
 12 14  1  0
 13 14  2  0
 11 15  1  0
  3 16  2  3
 15 16  1  0
 17 18  2  0
  2 19  1  0
 18 19  1  0
 19 20  2  0
 20 21  1  0
 17 22  1  0
 21 22  2  0
 23 24  2  0
 24 25  1  0
 25 26  2  0
  5 27  1  0
 26 27  1  0
  1 28  1  0
 23 28  1  0
 27 28  2  0
 29 30  1  6
  9 31  1  0
 30 31  2  0
 31 32  1  0
 33 32  1  6
 29 34  1  0
 34 33  1  6
 29 35  1  0
 33 35  1  0
 36  5  1  6
 29 36  1  0
 34 36  1  0
M  END
