x0705-x0305
     RDKit          3D

 28 30  0  0  0  0  0  0  0  0999 V2000
    1.6150   -2.7330   27.7630 C   0  0  0  0  0  0  0  0  0  0  0  0
    7.9930   -0.6250   26.1040 C   0  0  0  0  0  0  0  0  0  0  0  0
    5.4790   -3.5000   19.4860 O   0  0  0  0  0  0  0  0  0  0  0  0
    6.8140   -1.4220   25.3730 C   0  0  0  0  0  0  0  0  0  0  0  0
    6.4380   -3.3250   20.2700 C   0  0  0  0  0  0  0  0  0  0  0  0
    7.7070   -3.8880   19.8580 C   0  0  0  0  0  0  0  0  0  0  0  0
    7.7230   -0.4040   27.5330 C   0  0  0  0  0  0  0  0  0  0  0  0
    9.2400   -0.0510   25.6820 N   0  0  0  0  0  0  0  0  0  0  0  0
   13.4170   -1.3060   21.6320 C   0  0  0  0  0  0  0  0  0  0  0  0
   13.2370   -2.4640   20.8910 N   0  0  0  0  0  0  0  0  0  0  0  0
    3.0220   -2.4680   27.2060 C   0  0  0  0  0  0  0  0  0  0  0  0
    3.0450   -1.3990   26.1350 C   0  0  0  0  0  0  0  0  0  0  0  0
    4.4690   -1.1530   25.5970 C   0  0  0  0  0  0  0  0  0  0  0  0
    5.5520   -1.8520   26.0700 C   0  0  0  0  0  0  0  0  0  0  0  0
    5.4540   -2.8420   27.0740 C   0  0  0  0  0  0  0  0  0  0  0  0
    4.1820   -3.1360   27.6310 C   0  0  0  0  0  0  0  0  0  0  0  0
    6.4420   -2.7390   21.5130 N   0  0  0  0  0  0  0  0  0  0  0  0
    5.8490   -3.3110   22.5500 C   0  0  0  0  0  0  0  0  0  0  0  0
    5.6110   -2.4860   23.6270 C   0  0  0  0  0  0  0  0  0  0  0  0
    6.7570   -1.7830   24.0500 N   0  0  0  0  0  0  0  0  0  0  0  0
    7.9130   -2.1780   23.4350 C   0  0  0  0  0  0  0  0  0  0  0  0
    7.6300   -2.2750   21.9420 C   0  0  0  0  0  0  0  0  0  0  0  0
   10.2150   -0.4130   24.7040 C   0  0  0  0  0  0  0  0  0  0  0  0
   11.1870    0.5280   24.2990 N   0  0  0  0  0  0  0  0  0  0  0  0
   12.1260    0.2050   23.3760 C   0  0  0  0  0  0  0  0  0  0  0  0
   12.3040   -1.1180   22.6490 C   0  0  0  0  0  0  0  0  0  0  0  0
   11.3830   -2.1050   22.9920 C   0  0  0  0  0  0  0  0  0  0  0  0
   10.2900   -1.8370   24.0280 C   0  0  0  0  0  0  0  0  0  0  0  0
  2  4  2  3
  3  5  2  0
  5  6  1  0
  2  7  1  0
  2  8  1  0
  9 10  3  0
  1 11  1  0
 11 12  2  0
 12 13  1  0
  4 14  1  0
 13 14  2  0
 14 15  1  0
 11 16  1  0
 15 16  2  0
  5 17  1  0
 17 18  1  0
 18 19  1  0
  4 20  1  0
 19 20  1  0
 20 21  1  0
 17 22  1  0
 21 22  1  0
  8 23  1  0
 23 24  2  0
 24 25  1  0
  9 26  1  0
 25 26  2  0
 26 27  1  0
 23 28  1  0
 27 28  2  0
M  END
