x0708-x1358
     RDKit          3D

 29 32  0  0  0  0  0  0  0  0999 V2000
    7.4420   -3.1570   19.0230 C   0  0  0  0  0  0  0  0  0  0  0  0
    5.3060   -4.0370   19.6260 O   0  0  0  0  0  0  0  0  0  0  0  0
    6.4260   -3.7360   20.0120 C   0  0  0  0  0  0  0  0  0  0  0  0
    7.1330   -2.7190   25.9160 N   0  0  0  0  0  0  0  0  0  0  0  0
    5.4500   -0.3780   25.4180 O   0  0  0  0  0  0  0  0  0  0  0  0
    4.8810   -3.3910   25.9210 O   0  0  0  0  0  0  0  0  0  0  0  0
    5.9630   -3.2170   25.3640 C   0  0  0  0  0  0  0  0  0  0  0  0
    6.0080   -0.4550   26.5010 C   0  0  0  0  0  0  0  0  0  0  0  0
    6.9230   -1.6770   26.8410 C   0  0  0  0  0  0  0  0  0  0  0  0
    7.5800   -1.6730   28.2290 C   0  0  0  0  0  0  0  0  0  0  0  0
    7.3560   -0.5400   29.2370 C   0  0  0  0  0  0  0  0  0  0  0  0
    6.4360    0.6010   28.7850 C   0  0  0  0  0  0  0  0  0  0  0  0
    5.7870    0.6000   27.4090 C   0  0  0  0  0  0  0  0  0  0  0  0
    6.7600   -3.9740   21.3580 N   0  0  0  0  0  0  0  0  0  0  0  0
    7.3250   -2.9940   22.0640 C   0  0  1  0  0  0  0  0  0  0  0  0
    7.4280   -3.1920   23.4220 C   0  0  0  0  0  0  0  0  0  0  0  0
    6.1750   -3.5360   23.9190 C   0  0  1  0  0  0  0  0  0  0  0  0
    5.8860   -4.8540   23.4860 C   0  0  0  0  0  0  0  0  0  0  0  0
    6.2360   -5.0940   22.1480 C   0  0  0  0  0  0  0  0  0  0  0  0
    8.5970   -1.3460   22.5610 C   0  0  0  0  0  0  0  0  0  0  0  0
    9.7010   -1.8770   21.8630 C   0  0  0  0  0  0  0  0  0  0  0  0
   10.7460   -0.9940   22.4410 C   0  0  0  0  0  0  0  0  0  0  0  0
   10.3380    0.0730   23.4270 C   0  0  0  0  0  0  0  0  0  0  0  0
    8.6520   -0.0730   23.6840 S   0  0  0  0  0  0  0  0  0  0  0  0
   12.1060   -0.9720   22.1920 C   0  0  0  0  0  0  0  0  0  0  0  0
   13.0250   -0.0730   22.7210 C   0  0  0  0  0  0  0  0  0  0  0  0
   12.6050    0.9090   23.5900 C   0  0  0  0  0  0  0  0  0  0  0  0
   11.3140    1.0330   23.9930 C   0  0  0  0  0  0  0  0  0  0  0  0
    8.5760   -2.6700   21.3780 C   0  0  0  0  0  0  0  0  0  0  0  0
  1  3  1  0
  2  3  2  0
  4  7  1  0
  6  7  2  0
  5  8  1  0
  4  9  1  0
  8  9  2  0
  9 10  1  0
 10 11  2  0
 11 12  1  0
  8 13  1  0
 12 13  2  0
  3 14  1  0
 14 15  1  0
 15 16  1  0
 17  7  1  1
 16 17  1  0
 17 18  1  0
 14 19  1  0
 18 19  1  0
 20 21  2  0
 21 22  1  0
 22 23  2  0
 20 24  1  0
 23 24  1  0
 22 25  1  0
 25 26  2  0
 26 27  1  0
 23 28  1  0
 27 28  2  0
 15 29  1  6
 21 29  1  0
M  END
