x0705-x1386
     RDKit          3D

 24 26  0  0  0  0  0  0  0  0999 V2000
    1.1090   -2.6830   27.9930 C   0  0  0  0  0  0  0  0  0  0  0  0
    7.4960   -1.2380   26.3360 O   0  0  0  0  0  0  0  0  0  0  0  0
    6.0550   -3.3620   19.4770 O   0  0  0  0  0  0  0  0  0  0  0  0
    6.5100   -1.7720   25.5870 C   0  0  0  0  0  0  0  0  0  0  0  0
    6.8540   -3.4530   20.4720 C   0  0  0  0  0  0  0  0  0  0  0  0
    7.9100   -4.4370   20.4410 C   0  0  0  0  0  0  0  0  0  0  0  0
    9.2340   -2.6930   22.6840 C   0  0  0  0  0  0  0  0  0  0  0  0
    2.4820   -2.4470   27.3830 C   0  0  0  0  0  0  0  0  0  0  0  0
    2.6000   -1.4050   26.2780 C   0  0  0  0  0  0  0  0  0  0  0  0
    3.9650   -1.1480   25.6450 C   0  0  0  0  0  0  0  0  0  0  0  0
    5.1540   -1.9580   26.1600 C   0  0  0  0  0  0  0  0  0  0  0  0
    4.9430   -2.9950   27.2870 C   0  0  0  0  0  0  0  0  0  0  0  0
    3.7180   -3.2070   27.8350 C   0  0  0  0  0  0  0  0  0  0  0  0
    6.8260   -2.7850   21.6860 N   0  0  0  0  0  0  0  0  0  0  0  0
    6.0260   -3.5150   22.5690 C   0  0  0  0  0  0  0  0  0  0  0  0
    5.5250   -2.7600   23.5800 C   0  0  0  0  0  0  0  0  0  0  0  0
    6.6340   -2.1690   24.3040 N   0  0  0  0  0  0  0  0  0  0  0  0
    7.4600   -1.3010   23.4810 C   0  0  0  0  0  0  0  0  0  0  0  0
    7.9110   -1.9590   22.3530 C   0  0  1  0  0  0  0  0  0  0  0  0
   11.7750   -1.6440   22.2520 C   0  0  0  0  0  0  0  0  0  0  0  0
   10.4600   -1.7600   23.0160 C   0  0  0  0  0  0  0  0  0  0  0  0
   10.5140   -0.7860   24.2070 C   0  0  0  0  0  0  0  0  0  0  0  0
   11.9980    0.0770   24.2530 S   0  0  0  0  0  0  0  0  0  0  0  0
   12.6560   -0.7230   22.7920 C   0  0  0  0  0  0  0  0  0  0  0  0
  2  4  2  0
  3  5  2  0
  5  6  1  0
  1  8  1  0
  8  9  2  0
  9 10  1  0
  4 11  1  0
 10 11  2  0
 11 12  1  0
  8 13  1  0
 12 13  2  0
  5 14  1  0
 14 15  1  0
 15 16  1  0
  4 17  1  0
 16 17  1  0
 17 18  1  0
 19  7  1  1
 14 19  1  0
 18 19  1  0
  7 21  1  0
 20 21  1  0
 21 22  2  0
 22 23  1  0
 20 24  2  0
 23 24  1  0
M  END
