x0708-x1425
     RDKit          3D

 27 30  0  0  0  0  0  0  0  0999 V2000
    7.3660   -3.2200   19.2390 C   0  0  0  0  0  0  0  0  0  0  0  0
    5.2460   -4.1550   19.7280 O   0  0  0  0  0  0  0  0  0  0  0  0
    6.3780   -3.9360   20.1440 C   0  0  0  0  0  0  0  0  0  0  0  0
    1.3850   -2.3330   28.1430 C   0  0  0  0  0  0  0  0  0  0  0  0
    2.8000   -2.4030   28.3490 O   0  0  0  0  0  0  0  0  0  0  0  0
    3.3830   -2.7070   27.3190 C   0  0  0  0  0  0  0  0  0  0  0  0
    4.7990   -2.1710   27.0360 C   0  0  0  0  0  0  0  0  0  0  0  0
    5.4600   -2.5830   25.7440 C   0  0  0  0  0  0  0  0  0  0  0  0
    4.8080   -3.4980   24.7020 C   0  0  0  0  0  0  0  0  0  0  0  0
    3.3850   -4.0010   25.0540 C   0  0  0  0  0  0  0  0  0  0  0  0
    2.7450   -3.5580   26.3840 C   0  0  0  0  0  0  0  0  0  0  0  0
    6.7970   -4.4160   21.4170 N   0  0  0  0  0  0  0  0  0  0  0  0
    7.4410   -3.4980   22.3180 C   0  0  2  0  0  0  0  0  0  0  0  0
    6.5440   -2.8880   23.1940 C   0  0  0  0  0  0  0  0  0  0  0  0
    5.4570   -3.8250   23.5520 N   0  0  0  0  0  0  0  0  0  0  0  0
    5.6080   -5.1930   23.2360 C   0  0  0  0  0  0  0  0  0  0  0  0
    6.1960   -5.5450   22.0150 C   0  0  0  0  0  0  0  0  0  0  0  0
    8.6260   -1.2550   22.9170 C   0  0  0  0  0  0  0  0  0  0  0  0
    9.4550   -1.8500   21.9330 C   0  0  0  0  0  0  0  0  0  0  0  0
   10.6480   -1.3100   22.4170 C   0  0  0  0  0  0  0  0  0  0  0  0
   10.7080   -0.3870   23.6010 C   0  0  0  0  0  0  0  0  0  0  0  0
    9.1140   -0.2330   24.1900 S   0  0  0  0  0  0  0  0  0  0  0  0
   11.9090   -1.5690   21.8190 C   0  0  0  0  0  0  0  0  0  0  0  0
   13.0860   -0.9950   22.2720 C   0  0  0  0  0  0  0  0  0  0  0  0
   13.0610   -0.1350   23.3500 C   0  0  0  0  0  0  0  0  0  0  0  0
   11.9570    0.2080   24.0560 C   0  0  0  0  0  0  0  0  0  0  0  0
    8.0410   -2.2810   21.6280 C   0  0  0  0  0  0  0  0  0  0  0  0
  1  3  1  0
  2  3  2  0
  4  5  1  0
  5  6  1  0
  6  7  2  0
  7  8  1  0
  8  9  2  0
  9 10  1  0
  6 11  1  0
 10 11  2  0
  3 12  1  0
 12 13  1  0
 13 14  1  0
  9 15  1  0
 14 15  1  0
 15 16  1  0
 12 17  1  0
 16 17  1  0
 18 19  2  0
 19 20  1  0
 20 21  2  0
 18 22  1  0
 21 22  1  0
 20 23  1  0
 23 24  2  0
 24 25  1  0
 21 26  1  0
 25 26  2  0
 13 27  1  6
 19 27  1  0
M  END
