x0705-x0831
     RDKit          3D

 26 28  0  0  0  0  0  0  0  0999 V2000
    1.2850   -2.5150   27.6550 C   0  0  0  0  0  0  0  0  0  0  0  0
    7.7310   -1.1700   26.1550 O   0  0  0  0  0  0  0  0  0  0  0  0
    5.5060   -3.4920   19.5020 O   0  0  0  0  0  0  0  0  0  0  0  0
    6.8080   -1.8530   25.4390 C   0  0  0  0  0  0  0  0  0  0  0  0
    6.5080   -3.3080   20.2340 C   0  0  0  0  0  0  0  0  0  0  0  0
    7.7480   -3.8140   19.7000 C   0  0  0  0  0  0  0  0  0  0  0  0
   12.3350   -2.2170   22.2790 C   0  0  0  0  0  0  0  0  0  0  0  0
    9.3550   -2.1270   23.7790 C   0  0  0  0  0  0  0  0  0  0  0  0
    2.7330   -2.4150   27.1530 C   0  0  0  0  0  0  0  0  0  0  0  0
    2.9370   -1.4890   26.1210 C   0  0  0  0  0  0  0  0  0  0  0  0
    4.3610   -1.3130   25.5450 C   0  0  0  0  0  0  0  0  0  0  0  0
    5.4140   -2.0690   26.0550 C   0  0  0  0  0  0  0  0  0  0  0  0
    5.1090   -3.0640   27.1880 C   0  0  0  0  0  0  0  0  0  0  0  0
    3.7950   -3.1810   27.6710 C   0  0  0  0  0  0  0  0  0  0  0  0
    6.5540   -2.7930   21.5110 N   0  0  0  0  0  0  0  0  0  0  0  0
    5.7630   -3.4060   22.4790 C   0  0  0  0  0  0  0  0  0  0  0  0
    5.7080   -2.6530   23.6220 C   0  0  0  0  0  0  0  0  0  0  0  0
    7.0330   -2.3620   24.1800 N   0  0  0  0  0  0  0  0  0  0  0  0
    8.0080   -1.9400   23.3040 C   0  0  2  0  0  0  0  0  0  0  0  0
    7.9410   -2.5290   22.0310 C   0  0  0  0  0  0  0  0  0  0  0  0
   11.7070   -1.0700   22.9890 C   0  0  0  0  0  0  0  0  0  0  0  0
   10.4270   -1.0380   23.6290 C   0  0  0  0  0  0  0  0  0  0  0  0
   10.0680    0.1800   24.2290 C   0  0  0  0  0  0  0  0  0  0  0  0
   10.8860    1.3050   24.2020 C   0  0  0  0  0  0  0  0  0  0  0  0
   12.1230    1.2490   23.5800 C   0  0  0  0  0  0  0  0  0  0  0  0
   12.5380    0.0690   22.9740 C   0  0  0  0  0  0  0  0  0  0  0  0
  2  4  2  0
  3  5  2  0
  5  6  1  0
  1  9  1  0
  9 10  2  0
 10 11  1  0
  4 12  1  0
 11 12  2  0
 12 13  1  0
  9 14  1  0
 13 14  2  0
  5 15  1  0
 15 16  1  0
 16 17  1  0
  4 18  1  0
 17 18  1  0
 19  8  1  1
 18 19  1  0
 15 20  1  0
 19 20  1  0
  7 21  1  0
  8 22  1  0
 21 22  2  0
 22 23  1  0
 23 24  2  0
 24 25  1  0
 21 26  1  0
 25 26  2  0
M  END
