x0705-x2600
     RDKit          3D

 36 39  0  0  0  0  0  0  0  0999 V2000
    1.2270   -2.7220   27.8120 C   0  0  0  0  0  0  0  0  0  0  0  0
    7.5410   -1.3690   26.1400 O   0  0  0  0  0  0  0  0  0  0  0  0
    5.5270   -3.9220   19.7620 O   0  0  0  0  0  0  0  0  0  0  0  0
    6.5070   -1.6840   25.3340 C   0  0  0  0  0  0  0  0  0  0  0  0
    6.4970   -3.7230   20.5350 C   0  0  0  0  0  0  0  0  0  0  0  0
    7.8240   -3.7840   19.9010 C   0  0  0  0  0  0  0  0  0  0  0  0
   14.1230   -1.3150   20.2470 N   0  0  0  0  0  0  0  0  0  0  0  0
    8.1200   -0.0010   22.0170 C   0  0  0  0  0  0  0  0  0  0  0  0
    8.7650    1.0460   22.0960 O   0  0  0  0  0  0  0  0  0  0  0  0
    8.7570   -1.2650   22.6290 C   0  0  2  0  0  0  0  0  0  0  0  0
    6.8200   -0.3690   21.3910 N   0  0  0  0  0  0  0  0  0  0  0  0
   13.3560   -1.2770   21.4190 C   0  0  0  0  0  0  0  0  0  0  0  0
    2.6250   -2.5180   27.2160 C   0  0  0  0  0  0  0  0  0  0  0  0
    2.7220   -1.4110   26.1960 C   0  0  0  0  0  0  0  0  0  0  0  0
    4.1160   -1.2020   25.6010 C   0  0  0  0  0  0  0  0  0  0  0  0
    5.1890   -1.9660   25.9680 C   0  0  0  0  0  0  0  0  0  0  0  0
    5.0000   -2.9830   26.9320 C   0  0  0  0  0  0  0  0  0  0  0  0
    3.7590   -3.2640   27.5490 C   0  0  0  0  0  0  0  0  0  0  0  0
    6.4400   -3.5350   21.9130 N   0  0  0  0  0  0  0  0  0  0  0  0
    5.3910   -3.1820   22.6180 C   0  0  0  0  0  0  0  0  0  0  0  0
    5.4670   -1.9330   23.1900 C   0  0  0  0  0  0  0  0  0  0  0  0
    6.6260   -1.7270   23.9500 N   0  0  0  0  0  0  0  0  0  0  0  0
    7.8280   -2.1620   23.4050 C   0  0  1  0  0  0  0  0  0  0  0  0
    7.5700   -3.4470   22.6320 C   0  0  0  0  0  0  0  0  0  0  0  0
    6.3450    0.6170   17.7220 N   0  0  0  0  0  0  0  0  0  0  0  0
    6.9400   -0.0310   18.7820 C   0  0  0  0  0  0  0  0  0  0  0  0
    6.3050    0.2210   20.1600 C   0  0  0  0  0  0  0  0  0  0  0  0
    5.0790    1.1250   20.3080 C   0  0  0  0  0  0  0  0  0  0  0  0
    4.5620    1.7230   19.1500 C   0  0  0  0  0  0  0  0  0  0  0  0
    5.1880    1.4930   17.7830 C   0  0  0  0  0  0  0  0  0  0  0  0
   10.5010   -0.6470   24.4790 C   0  0  0  0  0  0  0  0  0  0  0  0
   11.8580   -0.4920   24.7800 C   0  0  0  0  0  0  0  0  0  0  0  0
   12.9150   -0.6860   23.8090 C   0  0  0  0  0  0  0  0  0  0  0  0
   12.4790   -1.0730   22.4450 C   0  0  0  0  0  0  0  0  0  0  0  0
   11.1640   -1.2350   22.1530 C   0  0  0  0  0  0  0  0  0  0  0  0
   10.1100   -1.0220   23.1820 C   0  0  0  0  0  0  0  0  0  0  0  0
  2  4  2  0
  3  5  2  0
  5  6  1  0
  8  9  2  0
 10  8  1  1
  8 11  1  0
  7 12  3  0
  1 13  1  0
 13 14  2  0
 14 15  1  0
  4 16  1  0
 15 16  2  0
 16 17  1  0
 13 18  1  0
 17 18  2  0
  5 19  1  0
 19 20  1  0
 20 21  1  0
  4 22  1  0
 21 22  1  0
 10 23  1  0
 22 23  1  0
 19 24  1  0
 23 24  1  6
 25 26  2  0
 11 27  1  0
 26 27  1  0
 27 28  2  0
 28 29  1  0
 25 30  1  0
 29 30  2  0
 31 32  2  0
 32 33  1  0
 12 34  1  0
 33 34  2  0
 34 35  1  0
 10 36  1  0
 31 36  1  0
 35 36  2  0
M  END
