x0705-x3303
     RDKit          3D

 39 43  0  0  0  0  0  0  0  0999 V2000
    1.1080   -2.5660   28.0340 C   0  0  0  0  0  0  0  0  0  0  0  0
    7.3820   -1.1210   26.1210 O   0  0  0  0  0  0  0  0  0  0  0  0
    5.7700   -3.8220   19.6890 O   0  0  0  0  0  0  0  0  0  0  0  0
    6.4220   -1.7310   25.4090 C   0  0  0  0  0  0  0  0  0  0  0  0
    6.6070   -3.8960   20.6060 C   0  0  0  0  0  0  0  0  0  0  0  0
    7.8490   -4.6570   20.4600 C   0  0  0  0  0  0  0  0  0  0  0  0
    6.2190   -1.5000   20.5480 C   0  0  0  0  0  0  0  0  0  0  0  0
    5.6240   -2.1780   21.6670 N   0  0  0  0  0  0  0  0  0  0  0  0
    6.3100    1.4370   16.7560 O   0  0  0  0  0  0  0  0  0  0  0  0
    2.4520   -2.3400   27.3580 C   0  0  0  0  0  0  0  0  0  0  0  0
    2.5220   -1.3540   26.1980 C   0  0  0  0  0  0  0  0  0  0  0  0
    3.8610   -1.1140   25.5040 C   0  0  0  0  0  0  0  0  0  0  0  0
    5.0730   -1.8840   26.0140 C   0  0  0  0  0  0  0  0  0  0  0  0
    4.9120   -2.8660   27.1980 C   0  0  0  0  0  0  0  0  0  0  0  0
    3.7140   -3.0660   27.8030 C   0  0  0  0  0  0  0  0  0  0  0  0
    6.4180   -3.2490   21.9540 C   0  0  1  0  0  0  0  0  0  0  0  0
    5.9560   -4.1340   22.8820 C   0  0  0  0  0  0  0  0  0  0  0  0
    6.1700   -3.6320   24.1510 C   0  0  0  0  0  0  0  0  0  0  0  0
    6.6290   -2.2150   24.1620 N   0  0  0  0  0  0  0  0  0  0  0  0
    7.8410   -2.1060   23.5750 C   0  0  2  0  0  0  0  0  0  0  0  0
    7.8870   -2.9610   22.3280 C   0  0  0  0  0  0  0  0  0  0  0  0
    4.7930    1.9980   18.4050 N   0  0  0  0  0  0  0  0  0  0  0  0
    4.2010    1.7710   19.6050 C   0  0  0  0  0  0  0  0  0  0  0  0
    4.6520    0.5650   20.4140 C   0  0  0  0  0  0  0  0  0  0  0  0
    5.7410   -0.3210   19.8330 C   0  0  0  0  0  0  0  0  0  0  0  0
    6.3060    0.0400   18.5110 C   0  0  0  0  0  0  0  0  0  0  0  0
    5.7570    1.1740   17.9390 C   0  0  0  0  0  0  0  0  0  0  0  0
    3.9590    0.3200   21.7940 C   0  0  0  0  0  0  0  0  0  0  0  0
    2.9590    1.2200   22.2150 C   0  0  0  0  0  0  0  0  0  0  0  0
    2.5920    2.3150   21.4120 C   0  0  0  0  0  0  0  0  0  0  0  0
    3.2180    2.5870   20.1030 C   0  0  0  0  0  0  0  0  0  0  0  0
   11.8140   -1.4620   22.4680 C   0  0  0  0  0  0  0  0  0  0  0  0
   13.0810   -1.9390   22.3600 C   0  0  0  0  0  0  0  0  0  0  0  0
   13.6110   -2.6480   23.5630 C   0  0  0  0  0  0  0  0  0  0  0  0
   12.7570   -2.7930   24.8060 C   0  0  0  0  0  0  0  0  0  0  0  0
   11.3070   -2.2860   25.0420 C   0  0  0  0  0  0  0  0  0  0  0  0
   11.0820   -1.6260   23.6270 C   0  0  0  0  0  0  0  0  0  0  0  0
    8.8830   -2.6760   24.5280 C   0  0  0  0  0  0  0  0  0  0  0  0
    9.9410   -1.6480   24.8670 C   0  0  0  0  0  0  0  0  0  0  0  0
  2  4  2  0
  3  5  2  0
  5  6  1  0
  7  8  2  3
  1 10  1  0
 10 11  2  0
 11 12  1  0
  4 13  1  0
 12 13  2  0
 13 14  1  0
 10 15  1  0
 14 15  2  0
  5 16  1  0
 16  8  1  6
 16 17  1  0
 17 18  1  0
  4 19  1  0
 18 19  1  0
 19 20  1  0
 16 21  1  0
 20 21  1  0
 22 23  2  0
 23 24  1  0
  7 25  1  0
 24 25  2  0
 25 26  1  0
  9 27  1  0
 22 27  1  0
 26 27  2  0
 24 28  1  0
 28 29  2  0
 29 30  1  0
 23 31  1  0
 30 31  2  0
 32 33  2  0
 33 34  1  0
 34 35  2  0
 35 36  1  0
 32 37  1  0
 36 37  2  0
 20 38  1  1
 36 39  1  0
 38 39  1  0
M  END
