x0708-x2572
     RDKit          3D

 29 31  0  0  0  0  0  0  0  0999 V2000
    6.5330   -4.6860   21.2050 N   0  0  0  0  0  0  0  0  0  0  0  0
    7.3260   -3.1680   19.3270 C   0  0  0  0  0  0  0  0  0  0  0  0
    5.1160   -3.9430   19.5800 O   0  0  0  0  0  0  0  0  0  0  0  0
    6.2400   -3.9330   20.0450 C   0  0  0  0  0  0  0  0  0  0  0  0
    7.5330   -4.2740   22.0810 N   0  0  0  0  0  0  0  0  0  0  0  0
    6.2330   -2.7990   23.1770 O   0  0  0  0  0  0  0  0  0  0  0  0
    7.3290   -3.0850   22.7220 C   0  0  0  0  0  0  0  0  0  0  0  0
    4.8490    1.4140   21.7720 C   0  0  0  0  0  0  0  0  0  0  0  0
    9.1410    1.1020   21.7690 O   0  0  0  0  0  0  0  0  0  0  0  0
    7.4280   -0.3660   21.5260 N   0  0  0  0  0  0  0  0  0  0  0  0
    8.6500    0.0080   22.0530 C   0  0  0  0  0  0  0  0  0  0  0  0
    9.4730   -0.9620   23.0120 C   0  0  0  0  0  0  0  0  0  0  0  0
   13.6030   -3.1970   20.6560 N   0  0  0  0  0  0  0  0  0  0  0  0
   13.0990   -2.1070   21.4620 C   0  0  0  0  0  0  0  0  0  0  0  0
    8.4900   -2.1220   22.8570 C   0  0  0  0  0  0  0  0  0  0  0  0
    9.8290   -2.3010   22.3660 C   0  0  0  0  0  0  0  0  0  0  0  0
   10.9340   -1.3810   22.5150 C   0  0  0  0  0  0  0  0  0  0  0  0
   10.4600   -0.2470   23.2660 C   0  0  0  0  0  0  0  0  0  0  0  0
    8.7080   -0.5660   23.6230 S   0  0  0  0  0  0  0  0  0  0  0  0
   12.3780   -1.0540   22.2590 C   0  0  0  0  0  0  0  0  0  0  0  0
   13.0660    0.0890   22.6670 C   0  0  0  0  0  0  0  0  0  0  0  0
   12.4540    1.0700   23.3750 C   0  0  0  0  0  0  0  0  0  0  0  0
   11.1470    0.9080   23.6830 C   0  0  0  0  0  0  0  0  0  0  0  0
    6.3600    0.4560   17.7780 N   0  0  0  0  0  0  0  0  0  0  0  0
    7.0580   -0.0620   18.8360 C   0  0  0  0  0  0  0  0  0  0  0  0
    6.7270    0.1470   20.2950 C   0  0  0  0  0  0  0  0  0  0  0  0
    5.4710    1.0160   20.4660 C   0  0  0  0  0  0  0  0  0  0  0  0
    4.8440    1.4830   19.3090 C   0  0  0  0  0  0  0  0  0  0  0  0
    5.2870    1.2070   18.0230 C   0  0  0  0  0  0  0  0  0  0  0  0
  1  4  1  0
  2  4  1  0
  3  4  2  0
  1  5  1  0
  5  7  1  0
  6  7  2  0
  9 11  2  0
 10 11  1  0
 11 12  1  0
 13 14  3  0
  7 15  1  0
 12 16  1  0
 15 16  2  0
 16 17  1  0
 17 18  2  0
 15 19  1  0
 18 19  1  0
 14 20  1  0
 17 20  1  0
 20 21  2  0
 21 22  1  0
 18 23  1  0
 22 23  2  0
 24 25  2  0
 10 26  1  0
 25 26  1  0
  8 27  1  0
 26 27  2  0
 27 28  1  0
 24 29  1  0
 28 29  2  0
M  END
