x0708-x2649
     RDKit          3D

 28 30  0  0  0  0  0  0  0  0999 V2000
    7.0510   -4.7060   21.2820 N   0  0  0  0  0  0  0  0  0  0  0  0
    7.3950   -3.2260   19.2730 C   0  0  0  0  0  0  0  0  0  0  0  0
    5.3260   -4.2350   19.8030 O   0  0  0  0  0  0  0  0  0  0  0  0
    6.5000   -4.0630   20.1370 C   0  0  0  0  0  0  0  0  0  0  0  0
    6.8460   -4.1020   22.4970 N   0  0  0  0  0  0  0  0  0  0  0  0
    7.7030   -2.5250   24.4100 O   0  0  0  0  0  0  0  0  0  0  0  0
    7.3970   -2.5550   22.8690 S   0  0  0  0  0  0  0  0  0  0  0  0
    5.9610   -1.5560   23.1490 C   0  0  0  0  0  0  0  0  0  0  0  0
   13.1790   -2.1620   21.1900 Cl  0  0  0  0  0  0  0  0  0  0  0  0
    6.3050   -1.2910   20.8220 N   0  0  0  0  0  0  0  0  0  0  0  0
    8.3240   -0.2390   21.7410 O   0  0  0  0  0  0  0  0  0  0  0  0
    7.2990   -1.2460   21.6820 C   0  0  0  0  0  0  0  0  0  0  0  0
    4.3240    1.4860   21.3170 C   0  0  0  0  0  0  0  0  0  0  0  0
    8.8390   -1.6960   23.0510 C   0  0  0  0  0  0  0  0  0  0  0  0
   10.0960   -2.0740   22.3480 C   0  0  0  0  0  0  0  0  0  0  0  0
   11.1820   -1.1070   22.6010 C   0  0  0  0  0  0  0  0  0  0  0  0
   10.6650   -0.0130   23.5210 C   0  0  0  0  0  0  0  0  0  0  0  0
    9.0320   -0.2930   23.9790 S   0  0  0  0  0  0  0  0  0  0  0  0
   12.6000   -0.9260   22.1930 C   0  0  0  0  0  0  0  0  0  0  0  0
   13.2750    0.1920   22.6330 C   0  0  0  0  0  0  0  0  0  0  0  0
   12.6950    1.1480   23.4470 C   0  0  0  0  0  0  0  0  0  0  0  0
   11.4140    1.0450   23.9030 C   0  0  0  0  0  0  0  0  0  0  0  0
    6.0600    0.5950   17.5660 N   0  0  0  0  0  0  0  0  0  0  0  0
    5.2510    1.6520   17.8230 C   0  0  0  0  0  0  0  0  0  0  0  0
    4.7260    1.8660   19.0910 C   0  0  0  0  0  0  0  0  0  0  0  0
    5.0410    0.9640   20.0830 C   0  0  0  0  0  0  0  0  0  0  0  0
    5.9050   -0.2370   19.8870 C   0  0  0  0  0  0  0  0  0  0  0  0
    6.4210   -0.3410   18.4650 C   0  0  0  0  0  0  0  0  0  0  0  0
  1  4  1  0
  2  4  1  0
  3  4  2  0
  1  5  1  0
  5  7  1  0
  6  7  2  0
  7  8  1  0
  7 12  1  0
 10 12  1  0
 11 12  2  0
  7 14  1  0
 14 15  2  0
 15 16  1  0
 16 17  2  0
 14 18  1  0
 17 18  1  0
  9 19  1  0
 16 19  1  0
 19 20  2  0
 20 21  1  0
 17 22  1  0
 21 22  2  0
 23 24  2  0
 24 25  1  0
 13 26  1  0
 25 26  2  0
 10 27  1  0
 26 27  1  0
 23 28  1  0
 27 28  2  0
M  END
