x0705-x2097
     RDKit          3D

 18 19  0  0  0  0  0  0  0  0999 V2000
    1.0270   -2.6320   27.9460 C   0  0  0  0  0  0  0  0  0  0  0  0
    7.5680   -1.3380   26.1530 O   0  0  0  0  0  0  0  0  0  0  0  0
    5.4550   -3.5460   19.5330 O   0  0  0  0  0  0  0  0  0  0  0  0
    6.5730   -1.8930   25.4370 C   0  0  0  0  0  0  0  0  0  0  0  0
    6.4540   -3.3460   20.2560 C   0  0  0  0  0  0  0  0  0  0  0  0
    7.7030   -3.8280   19.7220 C   0  0  0  0  0  0  0  0  0  0  0  0
    2.3960   -2.4570   27.3380 C   0  0  0  0  0  0  0  0  0  0  0  0
    2.6440   -1.4290   26.2090 C   0  0  0  0  0  0  0  0  0  0  0  0
    4.0240   -1.2470   25.5870 C   0  0  0  0  0  0  0  0  0  0  0  0
    5.2180   -2.0830   26.0660 C   0  0  0  0  0  0  0  0  0  0  0  0
    5.0020   -3.1020   27.1770 C   0  0  0  0  0  0  0  0  0  0  0  0
    3.6180   -3.3050   27.8200 C   0  0  0  0  0  0  0  0  0  0  0  0
    6.4880   -2.8160   21.5290 N   0  0  0  0  0  0  0  0  0  0  0  0
    5.6510   -3.3750   22.5700 C   0  0  0  0  0  0  0  0  0  0  0  0
    5.5360   -2.3660   23.5080 C   0  0  0  0  0  0  0  0  0  0  0  0
    6.7180   -2.2760   24.1330 N   0  0  0  0  0  0  0  0  0  0  0  0
    7.7730   -1.8630   23.2810 C   0  0  0  0  0  0  0  0  0  0  0  0
    7.8260   -2.4440   22.0190 C   0  0  0  0  0  0  0  0  0  0  0  0
  2  4  2  0
  3  5  2  0
  5  6  1  0
  1  7  1  0
  7  8  2  0
  8  9  1  0
  4 10  1  0
  9 10  2  0
 10 11  1  0
  7 12  1  0
 11 12  2  0
  5 13  1  0
 13 14  1  0
 14 15  1  0
  4 16  1  0
 15 16  1  0
 16 17  1  0
 13 18  1  0
 17 18  1  0
M  END
