x0705-x1249
     RDKit          3D

 37 40  0  0  0  0  0  0  0  0999 V2000
    1.1580   -2.8740   27.8720 C   0  0  0  0  0  0  0  0  0  0  0  0
    6.9600   -0.9360   26.1300 N   0  0  0  0  0  0  0  0  0  0  0  0
    5.4390   -3.4260   19.4220 O   0  0  0  0  0  0  0  0  0  0  0  0
    6.3300   -1.8520   25.5130 C   0  0  0  0  0  0  0  0  0  0  0  0
    6.4100   -3.3420   20.1920 C   0  0  0  0  0  0  0  0  0  0  0  0
    7.6550   -3.8490   19.6930 C   0  0  0  0  0  0  0  0  0  0  0  0
    8.2760    0.8690   25.0930 N   0  0  0  0  0  0  0  0  0  0  0  0
    7.5690    1.2690   23.9820 C   0  0  0  0  0  0  0  0  0  0  0  0
    8.1060    1.9640   23.1190 O   0  0  0  0  0  0  0  0  0  0  0  0
    9.6580    1.2480   24.9930 C   0  0  0  0  0  0  0  0  0  0  0  0
   13.5410   -3.0810   20.6640 N   0  0  0  0  0  0  0  0  0  0  0  0
   12.9640   -2.0680   21.5200 C   0  0  0  0  0  0  0  0  0  0  0  0
    8.1230   -0.4840   25.6920 C   0  0  0  0  0  0  0  0  0  0  0  0
    2.5160   -2.6410   27.2910 C   0  0  0  0  0  0  0  0  0  0  0  0
    2.6730   -1.7400   26.0570 C   0  0  0  0  0  0  0  0  0  0  0  0
    3.8980   -1.5260   25.5290 C   0  0  0  0  0  0  0  0  0  0  0  0
    5.0000   -2.1380   26.1330 C   0  0  0  0  0  0  0  0  0  0  0  0
    4.8830   -2.9690   27.2560 C   0  0  0  0  0  0  0  0  0  0  0  0
    3.6470   -3.2310   27.8470 C   0  0  0  0  0  0  0  0  0  0  0  0
    6.4430   -2.9470   21.5070 N   0  0  0  0  0  0  0  0  0  0  0  0
    5.8720   -3.8600   22.4730 C   0  0  0  0  0  0  0  0  0  0  0  0
    5.6820   -3.2000   23.8150 C   0  0  0  0  0  0  0  0  0  0  0  0
    6.6810   -2.5280   24.3790 N   0  0  0  0  0  0  0  0  0  0  0  0
    7.5800   -1.9640   23.5550 C   0  0  0  0  0  0  0  0  0  0  0  0
    7.7170   -2.5360   22.1190 C   0  0  0  0  0  0  0  0  0  0  0  0
    3.2690    1.0320   23.4880 O   0  0  0  0  0  0  0  0  0  0  0  0
    4.1920    0.6940   22.4680 C   0  0  0  0  0  0  0  0  0  0  0  0
    5.5730    1.3510   22.6110 C   0  0  0  0  0  0  0  0  0  0  0  0
    6.2350    0.9160   23.8670 N   0  0  0  0  0  0  0  0  0  0  0  0
    5.3400    0.9910   25.0410 C   0  0  0  0  0  0  0  0  0  0  0  0
    3.8460    1.1680   24.7160 C   0  0  0  0  0  0  0  0  0  0  0  0
   11.8510    0.9520   23.6510 C   0  0  0  0  0  0  0  0  0  0  0  0
   12.6510    0.1530   22.8190 C   0  0  0  0  0  0  0  0  0  0  0  0
   12.2570   -1.1940   22.3560 C   0  0  0  0  0  0  0  0  0  0  0  0
   10.9280   -1.6640   22.8470 C   0  0  0  0  0  0  0  0  0  0  0  0
   10.1530   -0.8830   23.6620 C   0  0  0  0  0  0  0  0  0  0  0  0
   10.5900    0.4950   24.1090 C   0  0  0  0  0  0  0  0  0  0  0  0
  2  4  2  3
  3  5  2  0
  5  6  1  0
  7  8  1  0
  8  9  2  0
  7 10  1  0
 11 12  3  0
  2 13  1  0
  7 13  1  0
  1 14  1  0
 14 15  2  0
 15 16  1  0
  4 17  1  0
 16 17  2  0
 17 18  1  0
 14 19  1  0
 18 19  2  0
  5 20  1  0
 20 21  1  0
 21 22  1  0
  4 23  1  0
 22 23  1  0
 23 24  1  0
 20 25  1  0
 24 25  1  0
 26 27  1  0
 27 28  1  0
  8 29  1  0
 28 29  1  0
 29 30  1  0
 26 31  1  0
 30 31  1  0
 32 33  2  0
 12 34  1  0
 33 34  1  0
 34 35  2  0
 35 36  1  0
 10 37  1  0
 32 37  1  0
 36 37  2  0
M  END
