x0708-x1402
     RDKit          3D

 31 35  0  0  0  0  0  0  0  0999 V2000
    6.4360   -3.7720   21.1500 N   0  0  0  0  0  0  0  0  0  0  0  0
    7.3410   -3.0740   18.9310 C   0  0  0  0  0  0  0  0  0  0  0  0
    5.1090   -3.8370   19.3720 O   0  0  0  0  0  0  0  0  0  0  0  0
    6.2150   -3.6020   19.8060 C   0  0  0  0  0  0  0  0  0  0  0  0
    7.1470   -2.7720   21.6450 N   0  0  0  0  0  0  0  0  0  0  0  0
    6.6360   -2.5880   23.6560 O   0  0  0  0  0  0  0  0  0  0  0  0
    7.5100   -2.9350   22.8910 C   0  0  2  0  0  0  0  0  0  0  0  0
    0.8180   -1.3400   26.1720 Cl  0  0  0  0  0  0  0  0  0  0  0  0
    3.8470   -6.6590   25.7560 O   0  0  0  0  0  0  0  0  0  0  0  0
    5.8960   -5.3930   26.8100 O   0  0  0  0  0  0  0  0  0  0  0  0
    4.9250   -5.4890   25.7420 S   0  0  0  0  0  0  0  0  0  0  0  0
    8.7930   -2.1740   23.0150 C   0  0  0  0  0  0  0  0  0  0  0  0
   10.0190   -2.5550   22.2080 C   0  0  0  0  0  0  0  0  0  0  0  0
   10.9320   -1.4530   22.6320 C   0  0  0  0  0  0  0  0  0  0  0  0
   10.3910   -0.4370   23.6190 C   0  0  0  0  0  0  0  0  0  0  0  0
    8.7680   -0.8270   24.0700 S   0  0  0  0  0  0  0  0  0  0  0  0
   12.3670   -1.3170   22.0940 C   0  0  0  0  0  0  0  0  0  0  0  0
   13.1500   -0.1050   22.5960 C   0  0  0  0  0  0  0  0  0  0  0  0
   12.5120    0.8930   23.5870 C   0  0  0  0  0  0  0  0  0  0  0  0
   11.2210    0.7200   24.0680 C   0  0  0  0  0  0  0  0  0  0  0  0
    6.8530   -4.9170   21.8310 N   0  0  0  0  0  0  0  0  0  0  0  0
    7.5500   -4.4690   22.9420 C   0  0  2  0  0  0  0  0  0  0  0  0
    7.1310   -4.9760   24.1720 C   0  0  0  0  0  0  0  0  0  0  0  0
    5.7650   -5.5510   24.2460 N   0  0  0  0  0  0  0  0  0  0  0  0
    5.0510   -5.6880   23.1060 C   0  0  0  0  0  0  0  0  0  0  0  0
    5.9390   -5.8920   22.0560 C   0  0  0  0  0  0  0  0  0  0  0  0
    2.3750   -3.9340   25.8930 S   0  0  0  0  0  0  0  0  0  0  0  0
    4.1020   -4.0050   25.8780 C   0  0  0  0  0  0  0  0  0  0  0  0
    4.6660   -2.6240   26.0020 C   0  0  0  0  0  0  0  0  0  0  0  0
    3.5550   -1.6030   26.1060 C   0  0  0  0  0  0  0  0  0  0  0  0
    2.2960   -2.2070   26.0620 C   0  0  0  0  0  0  0  0  0  0  0  0
  1  4  1  0
  2  4  1  0
  3  4  2  0
  1  5  1  0
  5  7  1  0
  7  6  1  1
  9 11  2  0
 10 11  2  0
  7 12  1  0
 12 13  2  0
 13 14  1  0
 14 15  2  0
 12 16  1  0
 15 16  1  0
 14 17  1  0
 17 18  2  0
 18 19  1  0
 15 20  1  0
 19 20  2  0
  1 21  1  0
  7 22  1  0
 21 22  1  0
 22 23  1  1
 11 24  1  0
 23 24  1  0
 24 25  1  0
 21 26  1  0
 25 26  1  0
 11 28  1  0
 27 28  1  0
 28 29  2  0
 29 30  1  0
  8 31  1  0
 27 31  1  0
 30 31  2  0
M  END
