x0705-x2964
     RDKit          3D

 37 41  0  0  0  0  0  0  0  0999 V2000
    1.1840   -2.7330   27.8800 C   0  0  0  0  0  0  0  0  0  0  0  0
    7.7060   -1.0280   26.1430 O   0  0  0  0  0  0  0  0  0  0  0  0
    5.8460   -3.5230   19.5540 O   0  0  0  0  0  0  0  0  0  0  0  0
    6.7830   -1.6430   25.3740 C   0  0  0  0  0  0  0  0  0  0  0  0
    6.6630   -3.6120   20.5040 C   0  0  0  0  0  0  0  0  0  0  0  0
    7.8360   -4.4950   20.4390 C   0  0  0  0  0  0  0  0  0  0  0  0
    3.2260    2.2350   19.2160 N   0  0  0  0  0  0  0  0  0  0  0  0
    8.5260    1.0630   21.3710 O   0  0  0  0  0  0  0  0  0  0  0  0
   13.2850   -2.0750   21.3030 Cl  0  0  0  0  0  0  0  0  0  0  0  0
    7.0920   -0.6940   21.0130 N   0  0  0  0  0  0  0  0  0  0  0  0
    8.6030   -0.6390   23.0150 N   0  0  0  0  0  0  0  0  0  0  0  0
    8.0700   -0.0260   21.7520 C   0  0  0  0  0  0  0  0  0  0  0  0
    6.1790   -1.4610   21.8440 C   0  0  0  0  0  0  0  0  0  0  0  0
    2.5610   -2.4570   27.2520 C   0  0  0  0  0  0  0  0  0  0  0  0
    2.7620   -1.4130   26.1250 C   0  0  0  0  0  0  0  0  0  0  0  0
    4.1300   -1.1330   25.5020 C   0  0  0  0  0  0  0  0  0  0  0  0
    5.4140   -1.8490   25.9270 C   0  0  0  0  0  0  0  0  0  0  0  0
    5.2490   -2.7610   26.9050 C   0  0  0  0  0  0  0  0  0  0  0  0
    4.0320   -3.0590   27.5100 C   0  0  0  0  0  0  0  0  0  0  0  0
    6.6370   -2.9130   21.8630 C   0  0  1  0  0  0  0  0  0  0  0  0
    5.9100   -3.5970   22.7920 C   0  0  0  0  0  0  0  0  0  0  0  0
    6.5860   -3.4350   23.9710 C   0  0  0  0  0  0  0  0  0  0  0  0
    7.0120   -2.1150   24.0970 N   0  0  0  0  0  0  0  0  0  0  0  0
    8.2310   -1.9130   23.4130 C   0  0  1  0  0  0  0  0  0  0  0  0
    8.0920   -2.9330   22.3160 C   0  0  0  0  0  0  0  0  0  0  0  0
    4.4220    1.5290   19.1430 C   0  0  0  0  0  0  0  0  0  0  0  0
    5.1680    0.7400   20.2370 C   0  0  0  0  0  0  0  0  0  0  0  0
    6.4840    0.0110   19.9440 C   0  0  0  0  0  0  0  0  0  0  0  0
    6.9910    0.0760   18.6580 C   0  0  0  0  0  0  0  0  0  0  0  0
    6.4640    0.7280   17.6120 N   0  0  0  0  0  0  0  0  0  0  0  0
    5.2190    1.4480   17.8000 C   0  0  0  0  0  0  0  0  0  0  0  0
   10.5970    0.7880   23.6710 C   0  0  0  0  0  0  0  0  0  0  0  0
   11.9650    1.0500   23.6190 C   0  0  0  0  0  0  0  0  0  0  0  0
   12.9110    0.1990   22.8970 C   0  0  0  0  0  0  0  0  0  0  0  0
   12.3260   -1.0100   22.1910 C   0  0  0  0  0  0  0  0  0  0  0  0
   10.9580   -1.2670   22.2460 C   0  0  0  0  0  0  0  0  0  0  0  0
   10.0590   -0.3180   23.0200 C   0  0  0  0  0  0  0  0  0  0  0  0
  2  4  2  0
  3  5  2  0
  5  6  1  0
  8 12  2  0
 10 12  1  0
 11 12  1  0
 10 13  1  0
  1 14  1  0
 14 15  2  0
 15 16  1  0
  4 17  1  0
 16 17  2  0
 17 18  1  0
 14 19  1  0
 18 19  2  0
 20  5  1  6
 13 20  1  0
 20 21  1  0
 21 22  1  0
  4 23  1  0
 22 23  1  0
 24 11  1  6
 23 24  1  0
 20 25  1  0
 24 25  1  0
  7 26  1  0
 26 27  2  0
 10 28  1  0
 27 28  1  0
 28 29  2  0
 29 30  1  0
 26 31  1  0
 30 31  2  0
 32 33  2  0
 33 34  1  0
  9 35  1  0
 34 35  2  0
 35 36  1  0
 11 37  1  0
 32 37  1  0
 36 37  2  0
M  END
