x0705-x0708
     RDKit          3D

 29 33  0  0  0  0  0  0  0  0999 V2000
    7.0920   -4.4710   21.0030 N   0  0  0  0  0  0  0  0  0  0  0  0
    7.4890   -3.1150   19.0690 C   0  0  0  0  0  0  0  0  0  0  0  0
    5.3130   -3.9120   19.6360 O   0  0  0  0  0  0  0  0  0  0  0  0
    6.4990   -3.8370   19.9410 C   0  0  0  0  0  0  0  0  0  0  0  0
    6.5380   -1.9790   22.5120 N   0  0  0  0  0  0  0  0  0  0  0  0
    0.9480   -2.4890   27.9320 C   0  0  0  0  0  0  0  0  0  0  0  0
    7.0950   -1.3140   26.2570 O   0  0  0  0  0  0  0  0  0  0  0  0
    6.2290   -1.9910   25.7180 C   0  0  0  0  0  0  0  0  0  0  0  0
    8.8690   -2.2330   22.7250 C   0  0  0  0  0  0  0  0  0  0  0  0
   10.0600   -2.3480   22.0350 C   0  0  0  0  0  0  0  0  0  0  0  0
   11.0310   -1.4460   22.4040 C   0  0  0  0  0  0  0  0  0  0  0  0
   10.6580   -0.5120   23.4210 C   0  0  0  0  0  0  0  0  0  0  0  0
    9.0760   -0.7760   23.9570 S   0  0  0  0  0  0  0  0  0  0  0  0
   12.4730   -1.2660   21.8960 C   0  0  0  0  0  0  0  0  0  0  0  0
   13.2030   -0.2510   22.4230 C   0  0  0  0  0  0  0  0  0  0  0  0
   12.6650    0.6530   23.4580 C   0  0  0  0  0  0  0  0  0  0  0  0
   11.4310    0.4970   23.9400 C   0  0  0  0  0  0  0  0  0  0  0  0
    2.3310   -2.3500   27.3490 C   0  0  0  0  0  0  0  0  0  0  0  0
    2.5380   -1.4260   26.3210 C   0  0  0  0  0  0  0  0  0  0  0  0
    3.8140   -1.3060   25.7900 C   0  0  0  0  0  0  0  0  0  0  0  0
    4.8560   -2.0880   26.2750 C   0  0  0  0  0  0  0  0  0  0  0  0
    4.6450   -3.0070   27.3030 C   0  0  0  0  0  0  0  0  0  0  0  0
    3.3770   -3.1480   27.8510 C   0  0  0  0  0  0  0  0  0  0  0  0
    7.0640   -4.0290   22.3010 N   0  0  0  0  0  0  0  0  0  0  0  0
    5.8240   -4.0300   22.8470 C   0  0  0  0  0  0  0  0  0  0  0  0
    5.6310   -2.7640   23.3250 C   0  0  1  0  0  0  0  0  0  0  0  0
    6.3890   -2.7360   24.5900 N   0  0  0  0  0  0  0  0  0  0  0  0
    7.5740   -3.0120   24.1570 C   0  0  0  0  0  0  0  0  0  0  0  0
    7.5390   -2.8430   22.8360 C   0  0  2  0  0  0  0  0  0  0  0  0
  1  4  1  0
  2  4  1  0
  3  4  2  0
  7  8  2  0
  9 10  2  0
 10 11  1  0
 11 12  2  0
  9 13  1  0
 12 13  1  0
 11 14  1  0
 14 15  2  0
 15 16  1  0
 12 17  1  0
 16 17  2  0
  6 18  1  0
 18 19  2  0
 19 20  1  0
  8 21  1  0
 20 21  2  0
 21 22  1  0
 18 23  1  0
 22 23  2  0
  1 24  1  0
 24 25  1  0
  5 26  1  0
 26 25  1  6
  8 27  1  0
 26 27  1  0
 27 28  1  0
  5 29  1  0
 29  9  1  6
 24 29  1  0
 28 29  1  0
M  END
