x0708-x1384
     RDKit          3D

 26 30  0  0  0  0  0  0  0  0999 V2000
    6.6030   -4.3670   21.3100 N   0  0  0  0  0  0  0  0  0  0  0  0
    7.3640   -3.0930   19.2310 C   0  0  0  0  0  0  0  0  0  0  0  0
    5.1840   -3.9350   19.5890 O   0  0  0  0  0  0  0  0  0  0  0  0
    6.3100   -3.8060   20.0470 C   0  0  0  0  0  0  0  0  0  0  0  0
    7.7300   -3.9840   22.0460 N   0  0  0  0  0  0  0  0  0  0  0  0
    6.5410   -2.8700   23.8310 N   0  0  0  0  0  0  0  0  0  0  0  0
    7.6190   -2.9970   23.0070 C   0  0  0  0  0  0  0  0  0  0  0  0
    4.7870   -1.6310   24.8020 O   0  0  0  0  0  0  0  0  0  0  0  0
    8.7630   -2.0580   23.1220 C   0  0  0  0  0  0  0  0  0  0  0  0
   10.0550   -2.3060   22.3620 C   0  0  0  0  0  0  0  0  0  0  0  0
   10.9670   -1.2210   22.6970 C   0  0  0  0  0  0  0  0  0  0  0  0
   10.4320   -0.1740   23.6310 C   0  0  0  0  0  0  0  0  0  0  0  0
    8.8310   -0.5700   24.1070 S   0  0  0  0  0  0  0  0  0  0  0  0
   12.3950   -1.1420   22.1230 C   0  0  0  0  0  0  0  0  0  0  0  0
   13.1980    0.0800   22.5520 C   0  0  0  0  0  0  0  0  0  0  0  0
   12.5650    1.1180   23.4890 C   0  0  0  0  0  0  0  0  0  0  0  0
   11.2820    0.9870   23.9930 C   0  0  0  0  0  0  0  0  0  0  0  0
    5.2110   -4.5880   24.8180 C   0  0  1  0  0  0  0  0  0  0  0  0
    5.5040   -3.8660   23.6500 C   0  0  1  0  0  0  0  0  0  0  0  0
    4.1920   -3.7180   24.1270 C   0  0  1  0  0  0  0  0  0  0  0  0
    3.1780   -4.4690   23.5390 C   0  0  0  0  0  0  0  0  0  0  0  0
    3.5680   -5.7760   23.6620 C   0  0  0  0  0  0  0  0  0  0  0  0
    4.8010   -5.8780   24.4500 C   0  0  0  0  0  0  0  0  0  0  0  0
    3.9170   -2.7280   25.0250 C   0  0  1  0  0  0  0  0  0  0  0  0
    4.3880   -3.1510   26.1950 C   0  0  0  0  0  0  0  0  0  0  0  0
    5.2360   -4.2700   26.3670 C   0  0  0  0  0  0  0  0  0  0  0  0
  1  4  1  0
  2  4  1  0
  3  4  2  0
  1  5  1  0
  5  7  1  0
  6  7  2  3
  7  9  1  0
  9 10  2  0
 10 11  1  0
 11 12  2  0
  9 13  1  0
 12 13  1  0
 11 14  1  0
 14 15  2  0
 15 16  1  0
 12 17  1  0
 16 17  2  0
 19  6  1  1
 18 19  1  0
 18 20  1  0
 19 20  1  0
 20 21  1  6
 21 22  1  0
 18 23  1  1
 22 23  2  0
 24  8  1  6
 20 24  1  0
 24 25  1  0
 18 26  1  0
 25 26  2  0
M  END
