x0708-x2964
     RDKit          3D

 28 30  0  0  0  0  0  0  0  0999 V2000
    6.5960   -4.6560   21.1810 N   0  0  0  0  0  0  0  0  0  0  0  0
    7.2710   -3.1410   19.2420 C   0  0  0  0  0  0  0  0  0  0  0  0
    5.0980   -4.0000   19.6010 O   0  0  0  0  0  0  0  0  0  0  0  0
    6.2430   -3.9370   20.0160 C   0  0  0  0  0  0  0  0  0  0  0  0
    7.5950   -4.1750   22.0230 N   0  0  0  0  0  0  0  0  0  0  0  0
    6.2470   -2.6480   22.9540 O   0  0  0  0  0  0  0  0  0  0  0  0
    7.3700   -2.9410   22.5680 C   0  0  0  0  0  0  0  0  0  0  0  0
   13.0840   -2.3610   21.3790 Cl  0  0  0  0  0  0  0  0  0  0  0  0
    3.6930    2.2340   19.8470 N   0  0  0  0  0  0  0  0  0  0  0  0
    9.1860    1.3090   21.4390 O   0  0  0  0  0  0  0  0  0  0  0  0
    7.5970   -0.6000   21.2720 N   0  0  0  0  0  0  0  0  0  0  0  0
    9.4360   -0.8790   22.8150 N   0  0  0  0  0  0  0  0  0  0  0  0
    8.7390   -0.0100   21.8170 C   0  0  0  0  0  0  0  0  0  0  0  0
    8.5380   -1.9880   22.6870 C   0  0  0  0  0  0  0  0  0  0  0  0
    9.9230   -2.0600   22.3080 C   0  0  0  0  0  0  0  0  0  0  0  0
   11.0100   -1.1200   22.4970 C   0  0  0  0  0  0  0  0  0  0  0  0
   10.3020    0.0130   23.2370 C   0  0  0  0  0  0  0  0  0  0  0  0
    8.5750   -0.3980   23.4600 S   0  0  0  0  0  0  0  0  0  0  0  0
   12.3370   -1.0770   22.2070 C   0  0  0  0  0  0  0  0  0  0  0  0
   13.1060    0.1760   22.6520 C   0  0  0  0  0  0  0  0  0  0  0  0
   12.4050    1.1830   23.3210 C   0  0  0  0  0  0  0  0  0  0  0  0
   11.0350    1.1430   23.6300 C   0  0  0  0  0  0  0  0  0  0  0  0
    4.8550    1.4230   19.5040 C   0  0  0  0  0  0  0  0  0  0  0  0
    5.6220    0.8470   20.5440 C   0  0  0  0  0  0  0  0  0  0  0  0
    6.7320    0.0630   20.2120 C   0  0  0  0  0  0  0  0  0  0  0  0
    7.0740   -0.1480   18.8910 C   0  0  0  0  0  0  0  0  0  0  0  0
    6.3840    0.3830   17.8580 N   0  0  0  0  0  0  0  0  0  0  0  0
    5.3110    1.1420   18.1690 C   0  0  0  0  0  0  0  0  0  0  0  0
  1  4  1  0
  2  4  1  0
  3  4  2  0
  1  5  1  0
  5  7  1  0
  6  7  2  0
 10 13  2  0
 11 13  1  0
 12 13  1  0
  7 14  1  0
 12 15  1  0
 14 15  2  0
 15 16  1  0
 16 17  2  0
 14 18  1  0
 17 18  1  0
  8 19  1  0
 16 19  1  0
 19 20  2  0
 20 21  1  0
 17 22  1  0
 21 22  2  0
  9 23  1  0
 23 24  2  0
 11 25  1  0
 24 25  1  0
 25 26  2  0
 26 27  1  0
 23 28  1  0
 27 28  2  0
M  END
