x0705-x0830
     RDKit          3D

 29 32  0  0  0  0  0  0  0  0999 V2000
    1.2300   -2.6170   27.8640 C   0  0  0  0  0  0  0  0  0  0  0  0
    7.5050   -1.2450   26.3890 O   0  0  0  0  0  0  0  0  0  0  0  0
    6.1080   -3.4260   19.5380 O   0  0  0  0  0  0  0  0  0  0  0  0
    6.5270   -1.7830   25.6260 C   0  0  0  0  0  0  0  0  0  0  0  0
    6.9350   -3.5390   20.5110 C   0  0  0  0  0  0  0  0  0  0  0  0
    8.0250   -4.4790   20.3890 C   0  0  0  0  0  0  0  0  0  0  0  0
    9.2900   -2.6250   23.0330 C   0  0  0  0  0  0  0  0  0  0  0  0
    2.5020   -2.4090   27.3240 C   0  0  0  0  0  0  0  0  0  0  0  0
    2.6400   -1.4500   26.3020 C   0  0  0  0  0  0  0  0  0  0  0  0
    3.8960   -1.2140   25.7350 C   0  0  0  0  0  0  0  0  0  0  0  0
    5.1750   -1.9540   26.1690 C   0  0  0  0  0  0  0  0  0  0  0  0
    4.9900   -2.8840   27.1740 C   0  0  0  0  0  0  0  0  0  0  0  0
    3.6120   -3.1410   27.7930 C   0  0  0  0  0  0  0  0  0  0  0  0
    6.9230   -2.9540   21.7740 N   0  0  0  0  0  0  0  0  0  0  0  0
    5.9970   -3.5910   22.6790 C   0  0  0  0  0  0  0  0  0  0  0  0
    5.5180   -2.8140   23.6710 C   0  0  0  0  0  0  0  0  0  0  0  0
    6.6370   -2.2060   24.3460 N   0  0  0  0  0  0  0  0  0  0  0  0
    7.4130   -1.3320   23.4720 C   0  0  0  0  0  0  0  0  0  0  0  0
    7.9380   -2.0510   22.3880 C   0  0  1  0  0  0  0  0  0  0  0  0
   11.7470   -2.1540   22.4870 C   0  0  0  0  0  0  0  0  0  0  0  0
   12.9130   -1.3730   22.3730 C   0  0  0  0  0  0  0  0  0  0  0  0
   12.8670   -0.0610   22.7620 C   0  0  0  0  0  0  0  0  0  0  0  0
   11.7230    0.5130   23.2620 C   0  0  0  0  0  0  0  0  0  0  0  0
   10.5580   -0.2860   23.3920 C   0  0  0  0  0  0  0  0  0  0  0  0
   10.5340   -1.6450   22.9900 C   0  0  0  0  0  0  0  0  0  0  0  0
   11.7360    1.8510   23.6110 C   0  0  0  0  0  0  0  0  0  0  0  0
   10.5780    2.4130   24.1030 C   0  0  0  0  0  0  0  0  0  0  0  0
    9.4360    1.6720   24.2780 C   0  0  0  0  0  0  0  0  0  0  0  0
    9.4160    0.3300   23.9280 C   0  0  0  0  0  0  0  0  0  0  0  0
  2  4  2  0
  3  5  2  0
  5  6  1  0
  1  8  1  0
  8  9  2  0
  9 10  1  0
  4 11  1  0
 10 11  2  0
 11 12  1  0
  8 13  1  0
 12 13  2  0
  5 14  1  0
 14 15  1  0
 15 16  1  0
  4 17  1  0
 16 17  1  0
 17 18  1  0
 19  7  1  1
 14 19  1  0
 18 19  1  0
 20 21  2  0
 21 22  1  0
 22 23  2  0
 23 24  1  0
  7 25  1  0
 20 25  1  0
 24 25  2  0
 23 26  1  0
 26 27  2  0
 27 28  1  0
 24 29  1  0
 28 29  2  0
M  END
