x0708-x0820
     RDKit          3D

 27 31  0  0  0  0  0  0  0  0999 V2000
    6.9880   -4.7590   21.0400 N   0  0  0  0  0  0  0  0  0  0  0  0
    7.5690   -3.1630   19.2590 C   0  0  0  0  0  0  0  0  0  0  0  0
    5.3610   -3.8690   19.6500 O   0  0  0  0  0  0  0  0  0  0  0  0
    6.5310   -3.9040   20.0170 C   0  0  0  0  0  0  0  0  0  0  0  0
    7.7460   -4.4080   22.1700 N   0  0  0  0  0  0  0  0  0  0  0  0
    7.1130   -2.8650   23.8500 N   0  0  0  0  0  0  0  0  0  0  0  0
    7.9020   -3.2180   22.8570 C   0  0  0  0  0  0  0  0  0  0  0  0
    6.4270   -4.8410   22.2870 N   0  0  0  0  0  0  0  0  0  0  0  0
    9.0300   -2.2430   22.8440 C   0  0  0  0  0  0  0  0  0  0  0  0
   10.3550   -2.4100   22.1120 C   0  0  0  0  0  0  0  0  0  0  0  0
   11.1360   -1.2350   22.5270 C   0  0  0  0  0  0  0  0  0  0  0  0
   10.5030   -0.2230   23.4370 C   0  0  0  0  0  0  0  0  0  0  0  0
    8.9290   -0.7390   23.8160 S   0  0  0  0  0  0  0  0  0  0  0  0
   12.5790   -1.0550   22.0470 C   0  0  0  0  0  0  0  0  0  0  0  0
   13.2480    0.2120   22.5460 C   0  0  0  0  0  0  0  0  0  0  0  0
   12.5350    1.2280   23.4520 C   0  0  0  0  0  0  0  0  0  0  0  0
   11.2340    1.0080   23.8780 C   0  0  0  0  0  0  0  0  0  0  0  0
    6.1180   -3.5190   24.4010 C   0  0  0  0  0  0  0  0  0  0  0  0
    6.4420   -4.1380   25.6160 C   0  0  0  0  0  0  0  0  0  0  0  0
    5.4880   -4.8350   26.3450 C   0  0  0  0  0  0  0  0  0  0  0  0
    4.1810   -4.9430   25.8600 C   0  0  0  0  0  0  0  0  0  0  0  0
    3.8110   -4.3580   24.6460 C   0  0  0  0  0  0  0  0  0  0  0  0
    4.8400   -3.5900   23.8550 C   0  0  0  0  0  0  0  0  0  0  0  0
    5.8190   -5.4380   27.5690 C   0  0  0  0  0  0  0  0  0  0  0  0
    7.1120   -5.3610   28.0780 C   0  0  0  0  0  0  0  0  0  0  0  0
    8.0850   -4.6820   27.3660 C   0  0  0  0  0  0  0  0  0  0  0  0
    7.7610   -4.0690   26.1470 C   0  0  0  0  0  0  0  0  0  0  0  0
  1  4  1  0
  2  4  1  0
  3  4  2  0
  1  5  1  0
  5  7  1  0
  6  7  2  3
  1  8  1  0
  5  8  1  0
  7  9  1  0
  9 10  2  0
 10 11  1  0
 11 12  2  0
  9 13  1  0
 12 13  1  0
 11 14  1  0
 14 15  2  0
 15 16  1  0
 12 17  1  0
 16 17  2  0
  6 18  1  0
 18 19  2  0
 19 20  1  0
 20 21  2  0
 21 22  1  0
 18 23  1  0
 22 23  2  0
 20 24  1  0
 24 25  2  0
 25 26  1  0
 19 27  1  0
 26 27  2  0
M  END
