x0731-x0395-x3113
     RDKit          3D

 53 57  0  0  0  0  0  0  0  0999 V2000
    7.3510   -1.1720   22.1790 N   0  0  0  0  0  0  0  0  0  0  0  0
    8.3840    1.7370   23.4080 N   0  0  0  0  0  0  0  0  0  0  0  0
    8.9300    1.6650   21.0020 O   0  0  0  0  0  0  0  0  0  0  0  0
   11.7990    4.0960   23.3300 O   0  0  0  0  0  0  0  0  0  0  0  0
    7.0580    0.2640   21.9440 C   0  0  1  0  0  0  0  0  0  0  0  0
    8.1930    1.2480   22.0480 C   0  0  0  0  0  0  0  0  0  0  0  0
    9.4760    2.5910   23.4620 C   0  0  0  0  0  0  0  0  0  0  0  0
   10.7880    2.0920   23.4740 C   0  0  0  0  0  0  0  0  0  0  0  0
   11.8130    2.9230   22.9950 C   0  0  0  0  0  0  0  0  0  0  0  0
   12.7990    4.7100   22.9440 C   0  0  0  0  0  0  0  0  0  0  0  0
   12.5970   -1.7030   24.2590 C   0  0  0  0  0  0  0  0  0  0  0  0
   13.4620   -1.6460   23.2160 C   0  0  0  0  0  0  0  0  0  0  0  0
   13.0970   -2.8300   25.1920 C   0  0  0  0  0  0  0  0  0  0  0  0
   12.5140   -0.4380   25.0660 C   0  0  0  0  0  0  0  0  0  0  0  0
    8.8730   -5.4930   26.4160 C   0  0  0  0  0  0  0  0  0  0  0  0
    0.7600   -0.8800   26.1150 C   0  0  0  0  0  0  0  0  0  0  0  0
    6.5990   -4.7530   26.8710 N   0  0  0  0  0  0  0  0  0  0  0  0
    4.8930   -6.5770   26.2170 O   0  0  0  0  0  0  0  0  0  0  0  0
    5.2100   -4.9910   19.9710 O   0  0  0  0  0  0  0  0  0  0  0  0
    6.2560   -4.6060   20.4320 C   0  0  0  0  0  0  0  0  0  0  0  0
    7.0490   -3.4880   19.7440 C   0  0  0  0  0  0  0  0  0  0  0  0
    5.3600   -5.2590   25.8490 S   0  0  1  0  0  0  0  0  0  0  0  0
    7.5740   -5.7600   27.2160 C   0  0  0  0  0  0  0  0  0  0  0  0
    6.4730    0.1080   18.1120 N   0  0  0  0  0  0  0  0  0  0  0  0
    5.3130    0.9740   17.9300 C   0  0  0  0  0  0  0  0  0  0  0  0
    4.7210    1.6110   19.1740 C   0  0  0  0  0  0  0  0  0  0  0  0
    5.2900    1.3620   20.4130 C   0  0  0  0  0  0  0  0  0  0  0  0
    6.5080    0.4500   20.5250 C   0  0  0  0  0  0  0  0  0  0  0  0
    7.0010   -0.1130   19.3420 C   0  0  0  0  0  0  0  0  0  0  0  0
    9.7250   -1.6970   21.8720 C   0  0  0  0  0  0  0  0  0  0  0  0
   11.0540   -2.2560   22.4340 C   0  0  0  0  0  0  0  0  0  0  0  0
   11.1800   -1.9130   23.7800 C   0  0  0  0  0  0  0  0  0  0  0  0
   10.1400   -1.7750   24.6640 C   0  0  0  0  0  0  0  0  0  0  0  0
    8.9770   -2.1060   24.0870 C   0  0  2  0  0  0  0  0  0  0  0  0
    8.6320   -1.6310   22.6910 C   0  0  0  0  0  0  0  0  0  0  0  0
    8.8110   -4.1980   25.6320 C   0  0  0  0  0  0  0  0  0  0  0  0
    8.0920   -2.9830   26.1310 N   0  0  0  0  0  0  0  0  0  0  0  0
    7.9260   -2.0470   25.1520 N   0  0  0  0  0  0  0  0  0  0  0  0
    9.4710   -3.8200   24.0780 S   0  0  0  0  0  0  0  0  0  0  0  0
    1.8350   -1.9100   26.0350 C   0  0  0  0  0  0  0  0  0  0  0  0
    1.6080   -3.2780   25.3940 C   0  0  0  0  0  0  0  0  0  0  0  0
    2.6820   -4.3590   25.3050 C   0  0  0  0  0  0  0  0  0  0  0  0
    4.0690   -4.0940   25.8790 C   0  0  0  0  0  0  0  0  0  0  0  0
    4.2990   -2.7170   26.5130 C   0  0  0  0  0  0  0  0  0  0  0  0
    3.2340   -1.6410   26.6000 C   0  0  0  0  0  0  0  0  0  0  0  0
    6.7650   -5.2120   21.5780 N   0  0  0  0  0  0  0  0  0  0  0  0
    7.5480   -4.5200   22.5760 C   0  0  0  0  0  0  0  0  0  0  0  0
    6.6370   -4.1640   23.7390 C   0  0  0  0  0  0  0  0  0  0  0  0
    6.0030   -5.3630   24.2830 N   0  0  0  0  0  0  0  0  0  0  0  0
    5.3140   -6.1380   23.2330 C   0  0  0  0  0  0  0  0  0  0  0  0
    6.0660   -6.3900   22.0880 C   0  0  0  0  0  0  0  0  0  0  0  0
   13.6420   -1.4860   20.9010 F   0  0  0  0  0  0  0  0  0  0  0  0
   12.7700   -1.7470   21.8890 C   0  0  0  0  0  0  0  0  0  0  0  0
  5  1  1  6
  2  6  1  0
  3  6  2  0
  5  6  1  0
  2  7  1  0
  7  8  1  0
  4  9  1  0
  8  9  1  0
  4 10  1  0
 11 12  1  0
 11 13  1  0
 11 14  1  0
 19 20  2  0
 20 21  1  0
 17 22  2  0
 18 22  2  0
 15 23  1  0
 17 23  1  0
 24 25  2  0
 25 26  1  0
 26 27  2  0
  5 28  1  0
 27 28  1  0
 24 29  1  0
 28 29  2  0
 30 31  1  0
 11 32  1  0
 31 32  1  0
 32 33  2  0
 34 33  1  1
  1 35  1  0
 30 35  2  0
 34 35  1  0
 15 36  1  0
 36 37  1  0
 34 38  1  0
 37 38  2  0
 34 39  1  0
 36 39  2  0
 16 40  1  0
 40 41  2  0
 41 42  1  0
 22 43  1  6
 42 43  2  0
 43 44  1  0
 40 45  1  0
 44 45  2  0
 20 46  1  0
 46 47  1  0
 47 48  1  0
 22 49  1  0
 48 49  1  0
 49 50  1  0
 46 51  1  0
 50 51  1  0
 12 53  1  0
 52 53  1  0
M  END
