x0731-x3115-x3117
     RDKit          3D

 48 52  0  0  0  0  0  0  0  0999 V2000
    7.1750   -1.3070   22.0080 N   0  0  0  0  0  0  0  0  0  0  0  0
    7.7960    2.1280   22.9400 N   0  0  0  0  0  0  0  0  0  0  0  0
    8.9310    1.3420   21.0570 O   0  0  0  0  0  0  0  0  0  0  0  0
    6.7680    0.0390   21.7730 C   0  0  1  0  0  0  0  0  0  0  0  0
    7.8370    1.1640   21.9500 C   0  0  0  0  0  0  0  0  0  0  0  0
    7.8120    5.3050   22.2050 C   0  0  0  0  0  0  0  0  0  0  0  0
   12.2900   -2.0660   24.3010 C   0  0  0  0  0  0  0  0  0  0  0  0
   13.5110   -2.3540   23.4600 C   0  0  0  0  0  0  0  0  0  0  0  0
   12.0730   -3.2110   25.2820 C   0  0  0  0  0  0  0  0  0  0  0  0
   12.5660   -0.7540   25.0510 C   0  0  0  0  0  0  0  0  0  0  0  0
    1.0100   -0.9570   26.0830 C   0  0  0  0  0  0  0  0  0  0  0  0
    6.5130   -4.9030   26.9080 O   0  0  0  0  0  0  0  0  0  0  0  0
    4.7020   -6.7050   26.0890 O   0  0  0  0  0  0  0  0  0  0  0  0
    5.2530   -5.0240   19.9820 O   0  0  0  0  0  0  0  0  0  0  0  0
    6.2360   -4.4560   20.4210 C   0  0  0  0  0  0  0  0  0  0  0  0
    6.9210   -3.4190   19.5660 C   0  0  0  0  0  0  0  0  0  0  0  0
    5.3800   -5.2820   25.8620 S   0  0  0  0  0  0  0  0  0  0  0  0
    6.2580   -2.4740   22.2050 C   0  0  0  0  0  0  0  0  0  0  0  0
    6.3120    0.1810   17.9580 N   0  0  0  0  0  0  0  0  0  0  0  0
    5.1130    0.9730   17.9390 C   0  0  0  0  0  0  0  0  0  0  0  0
    4.4750    1.4190   19.0610 C   0  0  0  0  0  0  0  0  0  0  0  0
    4.9940    1.1130   20.2970 C   0  0  0  0  0  0  0  0  0  0  0  0
    6.1680    0.3500   20.4130 C   0  0  0  0  0  0  0  0  0  0  0  0
    6.8530   -0.1400   19.2800 C   0  0  0  0  0  0  0  0  0  0  0  0
    9.4790   -1.4810   21.6320 C   0  0  0  0  0  0  0  0  0  0  0  0
   10.9290   -1.6740   22.0640 C   0  0  0  0  0  0  0  0  0  0  0  0
   11.0220   -1.8620   23.6010 C   0  0  0  0  0  0  0  0  0  0  0  0
    9.8880   -1.8520   24.4180 C   0  0  0  0  0  0  0  0  0  0  0  0
    8.6230   -1.6680   23.8760 C   0  0  0  0  0  0  0  0  0  0  0  0
    8.4470   -1.4910   22.5370 C   0  0  0  0  0  0  0  0  0  0  0  0
    9.9410    5.2300   24.4810 O   0  0  0  0  0  0  0  0  0  0  0  0
   10.5970    4.1990   23.7420 C   0  0  0  0  0  0  0  0  0  0  0  0
    9.8190    3.0220   23.7770 C   0  0  0  0  0  0  0  0  0  0  0  0
    8.6860    3.2400   22.9700 C   0  0  2  0  0  0  0  0  0  0  0  0
    8.0210    4.4460   23.2450 C   0  0  1  0  0  0  0  0  0  0  0  0
    8.6990    5.4290   23.9680 C   0  0  0  0  0  0  0  0  0  0  0  0
    2.0790   -2.0360   25.9990 C   0  0  0  0  0  0  0  0  0  0  0  0
    1.8570   -3.2830   25.4140 C   0  0  0  0  0  0  0  0  0  0  0  0
    2.8380   -4.2570   25.3600 C   0  0  0  0  0  0  0  0  0  0  0  0
    4.1110   -4.0430   25.8920 C   0  0  0  0  0  0  0  0  0  0  0  0
    4.3470   -2.8030   26.4670 C   0  0  0  0  0  0  0  0  0  0  0  0
    3.3670   -1.8090   26.5290 C   0  0  0  0  0  0  0  0  0  0  0  0
    6.7650   -4.7650   21.6280 N   0  0  0  0  0  0  0  0  0  0  0  0
    7.0340   -3.8480   22.5970 C   0  0  2  0  0  0  0  0  0  0  0  0
    6.8500   -4.0330   23.9780 C   0  0  0  0  0  0  0  0  0  0  0  0
    6.0520   -5.2070   24.3090 N   0  0  0  0  0  0  0  0  0  0  0  0
    5.3640   -5.9120   23.2430 C   0  0  0  0  0  0  0  0  0  0  0  0
    6.3430   -6.0220   22.2780 C   0  0  0  0  0  0  0  0  0  0  0  0
  1  4  1  0
  2  5  1  0
  3  5  2  0
  4  5  1  6
  7  8  1  0
  7  9  1  0
  7 10  1  0
 14 15  2  0
 15 16  1  0
 12 17  2  0
 13 17  2  0
  1 18  1  0
 19 20  2  0
 20 21  1  0
 21 22  2  0
  4 23  1  0
 22 23  1  0
 19 24  1  0
 23 24  2  0
 25 26  2  0
  7 27  1  0
 26 27  1  0
 27 28  2  0
 28 29  1  0
  1 30  1  0
 25 30  1  0
 29 30  2  0
 31 32  1  0
 32 33  1  0
 34  2  1  1
 33 34  1  0
 35  6  1  6
 34 35  1  0
 31 36  1  0
 35 36  1  0
 11 37  1  0
 37 38  2  0
 38 39  1  0
 17 40  1  0
 39 40  2  0
 40 41  1  0
 37 42  1  0
 41 42  2  0
 15 43  1  0
 44 18  1  6
 43 44  1  0
 44 45  1  0
 17 46  1  0
 45 46  1  0
 46 47  1  0
 43 48  1  0
 47 48  1  0
M  END
