x0731-x3110-x3113
     RDKit          3D

 48 51  0  0  0  0  0  0  0  0999 V2000
    8.0900    1.2970   23.3150 N   0  0  0  0  0  0  0  0  0  0  0  0
   13.4760    5.1370   22.5530 C   0  0  0  0  0  0  0  0  0  0  0  0
   11.9420    3.2870   22.5290 O   0  0  0  0  0  0  0  0  0  0  0  0
   12.2590    4.3770   22.0500 C   0  0  0  0  0  0  0  0  0  0  0  0
    7.3020   -1.3580   21.7230 N   0  0  0  0  0  0  0  0  0  0  0  0
   10.9270    4.3240   24.1390 O   0  0  0  0  0  0  0  0  0  0  0  0
   11.1090    3.3530   23.4220 C   0  0  0  0  0  0  0  0  0  0  0  0
    8.6330    1.5600   21.0490 O   0  0  0  0  0  0  0  0  0  0  0  0
   10.3500    2.1850   23.5450 C   0  0  0  0  0  0  0  0  0  0  0  0
    8.9660    2.4150   23.7390 C   0  0  0  0  0  0  0  0  0  0  0  0
    7.9470    0.9630   21.8940 C   0  0  0  0  0  0  0  0  0  0  0  0
    6.9940   -0.0430   21.6050 C   0  0  1  0  0  0  0  0  0  0  0  0
   12.5950   -1.8370   24.2430 C   0  0  0  0  0  0  0  0  0  0  0  0
   12.7530   -0.6590   24.9200 C   0  0  0  0  0  0  0  0  0  0  0  0
   13.5180   -1.9600   23.0620 C   0  0  0  0  0  0  0  0  0  0  0  0
   12.9030   -3.0130   25.1400 C   0  0  0  0  0  0  0  0  0  0  0  0
    0.9990   -0.9130   26.0270 C   0  0  0  0  0  0  0  0  0  0  0  0
    6.0260   -5.0710   26.9140 O   0  0  0  0  0  0  0  0  0  0  0  0
    4.4410   -6.6630   25.8320 O   0  0  0  0  0  0  0  0  0  0  0  0
    5.2480   -5.0500   19.9850 O   0  0  0  0  0  0  0  0  0  0  0  0
    6.1980   -4.4700   20.4660 C   0  0  0  0  0  0  0  0  0  0  0  0
    6.9220   -3.4450   19.6110 C   0  0  0  0  0  0  0  0  0  0  0  0
    5.1460   -5.4010   25.8270 S   0  0  0  0  0  0  0  0  0  0  0  0
    6.3190   -2.3540   22.1560 C   0  0  0  0  0  0  0  0  0  0  0  0
    6.3270    0.3150   17.9260 N   0  0  0  0  0  0  0  0  0  0  0  0
    5.2310    1.1210   17.8570 C   0  0  0  0  0  0  0  0  0  0  0  0
    4.5570    1.6350   18.9350 C   0  0  0  0  0  0  0  0  0  0  0  0
    5.1260    1.2520   20.2950 C   0  0  0  0  0  0  0  0  0  0  0  0
    6.3500    0.3610   20.3020 C   0  0  0  0  0  0  0  0  0  0  0  0
    6.9070   -0.0850   19.0940 C   0  0  0  0  0  0  0  0  0  0  0  0
    9.6220   -1.3830   21.7410 C   0  0  0  0  0  0  0  0  0  0  0  0
   10.8800   -1.5030   22.3400 C   0  0  0  0  0  0  0  0  0  0  0  0
   11.2240   -1.7520   23.6960 C   0  0  0  0  0  0  0  0  0  0  0  0
    9.8160   -1.8570   24.3050 C   0  0  0  0  0  0  0  0  0  0  0  0
    8.6060   -1.7450   23.7080 C   0  0  0  0  0  0  0  0  0  0  0  0
    8.4780   -1.5050   22.4200 C   0  0  0  0  0  0  0  0  0  0  0  0
    2.0160   -2.0250   25.9480 C   0  0  0  0  0  0  0  0  0  0  0  0
    1.7270   -3.2330   25.4070 C   0  0  0  0  0  0  0  0  0  0  0  0
    2.6740   -4.2670   25.3540 C   0  0  0  0  0  0  0  0  0  0  0  0
    3.9620   -4.0980   25.8590 C   0  0  0  0  0  0  0  0  0  0  0  0
    4.3230   -2.8760   26.4170 C   0  0  0  0  0  0  0  0  0  0  0  0
    3.4280   -1.8170   26.4940 C   0  0  0  0  0  0  0  0  0  0  0  0
    6.6250   -4.7980   21.7340 N   0  0  0  0  0  0  0  0  0  0  0  0
    6.9780   -3.6900   22.6730 C   0  0  2  0  0  0  0  0  0  0  0  0
    6.5030   -3.8940   24.0200 C   0  0  0  0  0  0  0  0  0  0  0  0
    5.9550   -5.2590   24.3530 N   0  0  0  0  0  0  0  0  0  0  0  0
    5.4130   -6.0410   23.2450 C   0  0  0  0  0  0  0  0  0  0  0  0
    6.4060   -6.1420   22.2660 C   0  0  0  0  0  0  0  0  0  0  0  0
  2  4  1  0
  3  4  1  0
  3  7  1  0
  6  7  2  0
  7  9  1  0
  1 10  1  0
  9 10  1  0
  1 11  1  0
  8 11  2  0
  5 12  1  0
 12 11  1  6
 13 14  1  0
 13 15  1  0
 13 16  1  0
 20 21  2  0
 21 22  1  0
 18 23  2  0
 19 23  2  0
  5 24  1  0
 25 26  2  0
 26 27  1  0
 27 28  2  0
 12 29  1  0
 28 29  1  0
 25 30  1  0
 29 30  2  0
 31 32  2  0
 13 33  1  0
 32 33  1  0
 33 34  2  0
 34 35  1  0
  5 36  1  0
 31 36  1  0
 35 36  2  0
 17 37  1  0
 37 38  2  0
 38 39  1  0
 23 40  1  0
 39 40  2  0
 40 41  1  0
 37 42  1  0
 41 42  2  0
 21 43  1  0
 44 24  1  6
 43 44  1  0
 44 45  1  0
 23 46  1  0
 45 46  1  0
 46 47  1  0
 43 48  1  0
 47 48  1  0
M  END
