x0731-x2540
     RDKit          3D

 45 48  0  0  0  0  0  0  0  0999 V2000
    7.5910   -0.7960   21.9130 N   0  0  0  0  0  0  0  0  0  0  0  0
    8.1480    2.0160   23.2910 N   0  0  0  0  0  0  0  0  0  0  0  0
    8.8510    2.0650   21.1320 O   0  0  0  0  0  0  0  0  0  0  0  0
    7.0780    0.5120   21.7020 C   0  0  1  0  0  0  0  0  0  0  0  0
    8.1030    1.5780   21.9780 C   0  0  0  0  0  0  0  0  0  0  0  0
    9.0560    3.1540   23.4210 C   0  0  0  0  0  0  0  0  0  0  0  0
    9.0500    3.5040   24.9290 C   0  0  0  0  0  0  0  0  0  0  0  0
    8.5110    4.3420   22.6010 C   0  0  0  0  0  0  0  0  0  0  0  0
   10.5130    2.8410   22.9160 C   0  0  0  0  0  0  0  0  0  0  0  0
   12.3510   -1.3440   23.3000 C   0  0  0  0  0  0  0  0  0  0  0  0
   12.9360   -1.7810   21.9730 C   0  0  0  0  0  0  0  0  0  0  0  0
   12.9090   -0.0080   23.6630 C   0  0  0  0  0  0  0  0  0  0  0  0
   12.7700   -2.3570   24.3950 C   0  0  0  0  0  0  0  0  0  0  0  0
    1.0880   -0.9730   26.1330 C   0  0  0  0  0  0  0  0  0  0  0  0
    6.2810   -5.0200   26.8210 O   0  0  0  0  0  0  0  0  0  0  0  0
    4.5330   -6.6970   26.1020 O   0  0  0  0  0  0  0  0  0  0  0  0
    5.2120   -5.0990   19.9790 O   0  0  0  0  0  0  0  0  0  0  0  0
    6.2110   -4.6340   20.4390 C   0  0  0  0  0  0  0  0  0  0  0  0
    6.9820   -3.5180   19.7070 C   0  0  0  0  0  0  0  0  0  0  0  0
    5.2270   -5.4420   25.9230 S   0  0  0  0  0  0  0  0  0  0  0  0
    6.8620   -2.0240   21.8290 C   0  0  0  0  0  0  0  0  0  0  0  0
    7.7980   -2.9350   22.2880 C   0  0  0  0  0  0  0  0  0  0  0  0
    6.2990    0.2440   17.9560 N   0  0  0  0  0  0  0  0  0  0  0  0
    5.2450    1.0860   17.8420 C   0  0  0  0  0  0  0  0  0  0  0  0
    4.7670    1.7480   18.9860 C   0  0  0  0  0  0  0  0  0  0  0  0
    5.3640    1.5530   20.2250 C   0  0  0  0  0  0  0  0  0  0  0  0
    6.4360    0.7030   20.3440 C   0  0  0  0  0  0  0  0  0  0  0  0
    6.8780    0.0620   19.1980 C   0  0  0  0  0  0  0  0  0  0  0  0
   10.1150   -1.4180   24.3900 O   0  0  0  0  0  0  0  0  0  0  0  0
    8.7800   -1.2660   24.0350 N   0  0  0  0  0  0  0  0  0  0  0  0
    8.7220   -1.0020   22.6970 C   0  0  0  0  0  0  0  0  0  0  0  0
    9.9890   -0.9910   22.2100 C   0  0  0  0  0  0  0  0  0  0  0  0
   10.8770   -1.2380   23.2040 C   0  0  0  0  0  0  0  0  0  0  0  0
    2.0990   -2.0870   26.0490 C   0  0  0  0  0  0  0  0  0  0  0  0
    1.7900   -3.3110   25.4460 C   0  0  0  0  0  0  0  0  0  0  0  0
    2.7360   -4.3400   25.3930 C   0  0  0  0  0  0  0  0  0  0  0  0
    4.0050   -4.1500   25.9480 C   0  0  0  0  0  0  0  0  0  0  0  0
    4.3030   -2.9170   26.5360 C   0  0  0  0  0  0  0  0  0  0  0  0
    3.3600   -1.8850   26.5910 C   0  0  0  0  0  0  0  0  0  0  0  0
    6.7530   -5.1600   21.6910 N   0  0  0  0  0  0  0  0  0  0  0  0
    7.2680   -4.2710   22.7360 C   0  0  2  0  0  0  0  0  0  0  0  0
    6.3030   -4.0580   23.8940 C   0  0  0  0  0  0  0  0  0  0  0  0
    5.8430   -5.3790   24.3530 N   0  0  0  0  0  0  0  0  0  0  0  0
    5.2660   -6.2110   23.2910 C   0  0  0  0  0  0  0  0  0  0  0  0
    6.1520   -6.4050   22.2340 C   0  0  0  0  0  0  0  0  0  0  0  0
  1  4  1  0
  2  5  1  0
  3  5  2  0
  4  5  1  6
  6  2  1  0
  6  7  1  0
  6  8  1  0
  6  9  1  0
 10 11  1  0
 10 12  1  0
 10 13  1  0
 17 18  2  0
 18 19  1  0
 15 20  2  0
 16 20  2  0
  1 21  1  0
 21 22  1  0
 23 24  2  0
 24 25  1  0
 25 26  2  0
  4 27  1  0
 26 27  1  0
 23 28  1  0
 27 28  2  0
 29 30  1  0
  1 31  1  0
 30 31  2  0
 31 32  1  0
 10 33  1  0
 29 33  1  0
 32 33  2  0
 14 34  1  0
 34 35  2  0
 35 36  1  0
 20 37  1  0
 36 37  2  0
 37 38  1  0
 34 39  1  0
 38 39  2  0
 18 40  1  0
 41 22  1  6
 40 41  1  0
 41 42  1  0
 20 43  1  0
 42 43  1  0
 43 44  1  0
 40 45  1  0
 44 45  1  0
M  END
