x0731-x2569
     RDKit          3D

 39 42  0  0  0  0  0  0  0  0999 V2000
    0.9740   -0.9680   26.1160 C   0  0  0  0  0  0  0  0  0  0  0  0
    6.2850   -4.9910   26.7800 O   0  0  0  0  0  0  0  0  0  0  0  0
    4.6170   -6.6990   26.0640 O   0  0  0  0  0  0  0  0  0  0  0  0
    5.3070   -5.0330   20.0080 O   0  0  0  0  0  0  0  0  0  0  0  0
    6.2880   -4.4970   20.4940 C   0  0  0  0  0  0  0  0  0  0  0  0
    6.9690   -3.4130   19.6700 C   0  0  0  0  0  0  0  0  0  0  0  0
    5.2560   -5.4200   25.8650 S   0  0  0  0  0  0  0  0  0  0  0  0
    8.2260    0.2010   21.7550 C   0  0  0  0  0  0  0  0  0  0  0  0
    8.8540    1.1890   21.2990 O   0  0  0  0  0  0  0  0  0  0  0  0
    8.8020   -0.6530   22.8950 C   0  0  1  0  0  0  0  0  0  0  0  0
   13.6420   -3.1990   20.6090 N   0  0  0  0  0  0  0  0  0  0  0  0
    6.9240   -0.2340   21.2800 N   0  0  0  0  0  0  0  0  0  0  0  0
   13.1060   -2.1500   21.4250 C   0  0  0  0  0  0  0  0  0  0  0  0
    7.2200   -2.7130   22.3720 C   0  0  0  0  0  0  0  0  0  0  0  0
    8.6250   -2.1250   22.5300 C   0  0  0  0  0  0  0  0  0  0  0  0
    2.0910   -2.0180   26.0600 C   0  0  0  0  0  0  0  0  0  0  0  0
    1.7530   -3.3720   25.4150 C   0  0  0  0  0  0  0  0  0  0  0  0
    2.7550   -4.3420   25.3840 C   0  0  0  0  0  0  0  0  0  0  0  0
    4.0320   -4.1420   25.9040 C   0  0  0  0  0  0  0  0  0  0  0  0
    4.3520   -2.9030   26.4810 C   0  0  0  0  0  0  0  0  0  0  0  0
    3.4830   -1.8110   26.6040 C   0  0  0  0  0  0  0  0  0  0  0  0
    6.7850   -4.9400   21.7330 N   0  0  0  0  0  0  0  0  0  0  0  0
    7.0800   -4.1460   22.8090 C   0  0  2  0  0  0  0  0  0  0  0  0
    6.1910   -4.0500   23.8740 C   0  0  0  0  0  0  0  0  0  0  0  0
    5.8920   -5.3960   24.3170 N   0  0  0  0  0  0  0  0  0  0  0  0
    5.3440   -6.1730   23.3630 C   0  0  0  0  0  0  0  0  0  0  0  0
    6.2800   -6.2200   22.1670 C   0  0  0  0  0  0  0  0  0  0  0  0
   12.2210    0.7490   23.8720 N   0  0  0  0  0  0  0  0  0  0  0  0
   12.9860   -0.0840   23.1300 C   0  0  0  0  0  0  0  0  0  0  0  0
   12.3710   -1.1880   22.2590 C   0  0  0  0  0  0  0  0  0  0  0  0
   11.0110   -1.2640   22.2750 C   0  0  0  0  0  0  0  0  0  0  0  0
   10.2210   -0.4330   23.0090 C   0  0  0  0  0  0  0  0  0  0  0  0
   10.7960    0.5460   23.7920 C   0  0  0  0  0  0  0  0  0  0  0  0
    6.3590    0.6970   17.6390 N   0  0  0  0  0  0  0  0  0  0  0  0
    6.8860    0.1510   18.8560 C   0  0  0  0  0  0  0  0  0  0  0  0
    6.3120    0.3210   20.1020 C   0  0  0  0  0  0  0  0  0  0  0  0
    5.1360    1.0280   20.3260 C   0  0  0  0  0  0  0  0  0  0  0  0
    4.4990    1.6380   19.0930 C   0  0  0  0  0  0  0  0  0  0  0  0
    5.2050    1.4200   17.7590 C   0  0  0  0  0  0  0  0  0  0  0  0
  4  5  2  0
  5  6  1  0
  2  7  2  0
  3  7  2  0
  8  9  2  0
  8 10  1  0
  8 12  1  0
 11 13  3  0
 10 15  1  6
 14 15  1  0
  1 16  1  0
 16 17  2  0
 17 18  1  0
  7 19  1  0
 18 19  2  0
 19 20  1  0
 16 21  1  0
 20 21  2  0
  5 22  1  0
 23 14  1  6
 22 23  1  0
 23 24  1  0
  7 25  1  0
 24 25  1  0
 25 26  1  0
 22 27  1  0
 26 27  1  0
 28 29  2  0
 13 30  1  0
 29 30  1  0
 30 31  2  0
 10 32  1  0
 31 32  1  0
 28 33  1  0
 32 33  2  0
 34 35  2  0
 12 36  1  0
 35 36  1  0
 36 37  2  0
 37 38  1  0
 34 39  1  0
 38 39  2  0
M  END
