x0736-x0678
     RDKit          3D

 32 36  0  0  0  0  0  0  0  0999 V2000
    7.3190   -2.9640   18.8630 C   0  0  0  0  0  0  0  0  0  0  0  0
    5.4080   -4.0670   19.7270 O   0  0  0  0  0  0  0  0  0  0  0  0
    6.3770   -3.3340   19.9890 C   0  0  0  0  0  0  0  0  0  0  0  0
    6.1890   -2.4690   25.0230 O   0  0  0  0  0  0  0  0  0  0  0  0
    7.3590   -2.2030   24.7980 C   0  0  0  0  0  0  0  0  0  0  0  0
    9.0300    1.1910   21.3090 O   0  0  0  0  0  0  0  0  0  0  0  0
    8.5190    0.0800   21.5530 C   0  0  0  0  0  0  0  0  0  0  0  0
    9.0910   -0.6050   22.7610 C   0  0  1  0  0  0  0  0  0  0  0  0
    7.5880   -0.6160   20.9700 N   0  0  0  0  0  0  0  0  0  0  0  0
    6.6070   -2.9290   21.3440 N   0  0  0  0  0  0  0  0  0  0  0  0
    7.2190   -1.6680   21.8320 C   0  0  1  0  0  0  0  0  0  0  0  0
    8.5020   -2.0460   22.5400 C   0  0  2  0  0  0  0  0  0  0  0  0
    8.0010   -2.8280   23.7260 N   0  0  0  0  0  0  0  0  0  0  0  0
    7.4890   -4.0440   23.2750 C   0  0  0  0  0  0  0  0  0  0  0  0
    6.4580   -3.8670   22.3510 C   0  0  0  0  0  0  0  0  0  0  0  0
    8.3690    0.0270   25.2350 O   0  0  0  0  0  0  0  0  0  0  0  0
    8.0500   -1.2760   25.6120 C   0  0  0  0  0  0  0  0  0  0  0  0
    8.5200   -1.4650   26.8940 C   0  0  0  0  0  0  0  0  0  0  0  0
    9.1210   -0.3650   27.3560 C   0  0  0  0  0  0  0  0  0  0  0  0
    9.0200    0.5560   26.3240 C   0  0  0  0  0  0  0  0  0  0  0  0
   11.2040   -1.5870   22.2700 C   0  0  0  0  0  0  0  0  0  0  0  0
   12.6050   -1.6420   22.1980 C   0  0  0  0  0  0  0  0  0  0  0  0
   13.2850   -0.7900   23.0950 C   0  0  0  0  0  0  0  0  0  0  0  0
   12.5020    0.1490   24.0400 C   0  0  0  0  0  0  0  0  0  0  0  0
   11.1480    0.0410   24.0750 C   0  0  0  0  0  0  0  0  0  0  0  0
   10.5600   -0.4650   22.7800 C   0  0  0  0  0  0  0  0  0  0  0  0
    5.5850    0.7780   20.4160 C   0  0  0  0  0  0  0  0  0  0  0  0
    4.7970    1.4340   19.3230 C   0  0  0  0  0  0  0  0  0  0  0  0
    5.2640    1.2770   18.0230 C   0  0  0  0  0  0  0  0  0  0  0  0
    6.3470    0.5910   17.6510 N   0  0  0  0  0  0  0  0  0  0  0  0
    7.0480    0.0060   18.6070 C   0  0  0  0  0  0  0  0  0  0  0  0
    6.7230    0.0560   20.0720 C   0  0  0  0  0  0  0  0  0  0  0  0
  1  3  1  0
  2  3  2  0
  4  5  2  0
  6  7  2  0
  7  8  1  0
  7  9  1  0
  3 10  1  0
 11  9  1  6
 10 11  1  0
  8 12  1  0
 11 12  1  0
  5 13  1  0
 12 13  1  1
 13 14  1  0
 10 15  1  0
 14 15  1  0
  5 17  1  0
 16 17  1  0
 17 18  2  0
 18 19  1  0
 16 20  1  0
 19 20  2  0
 21 22  1  0
 22 23  1  0
 23 24  1  0
 24 25  1  0
  8 26  1  6
 21 26  1  0
 25 26  1  0
 27 28  2  0
 28 29  1  0
 29 30  2  0
 30 31  1  0
  9 32  1  0
 27 32  1  0
 31 32  2  0
M  END
