x0731-x0689
     RDKit          3D

 19 20  0  0  0  0  0  0  0  0999 V2000
    0.8570   -0.9020   26.0750 C   0  0  0  0  0  0  0  0  0  0  0  0
    6.5140   -4.9410   26.7430 O   0  0  0  0  0  0  0  0  0  0  0  0
    4.7280   -6.5580   26.0280 O   0  0  0  0  0  0  0  0  0  0  0  0
    5.2540   -5.0330   19.9860 O   0  0  0  0  0  0  0  0  0  0  0  0
    6.2580   -4.5870   20.4940 C   0  0  0  0  0  0  0  0  0  0  0  0
    7.0000   -3.4850   19.7660 C   0  0  0  0  0  0  0  0  0  0  0  0
    5.4510   -5.3160   25.8490 S   0  0  0  0  0  0  0  0  0  0  0  0
    1.9290   -1.9390   26.0010 C   0  0  0  0  0  0  0  0  0  0  0  0
    1.6630   -3.3170   25.3720 C   0  0  0  0  0  0  0  0  0  0  0  0
    2.7880   -4.3350   25.3400 C   0  0  0  0  0  0  0  0  0  0  0  0
    4.1930   -4.0590   25.9110 C   0  0  0  0  0  0  0  0  0  0  0  0
    4.4480   -2.6630   26.5320 C   0  0  0  0  0  0  0  0  0  0  0  0
    3.3190   -1.6400   26.5650 C   0  0  0  0  0  0  0  0  0  0  0  0
    6.7320   -5.1240   21.6770 N   0  0  0  0  0  0  0  0  0  0  0  0
    7.3780   -4.2580   22.6620 C   0  0  0  0  0  0  0  0  0  0  0  0
    6.5070   -3.9740   23.7100 C   0  0  0  0  0  0  0  0  0  0  0  0
    6.0270   -5.2470   24.2880 N   0  0  0  0  0  0  0  0  0  0  0  0
    5.4000   -6.0970   23.3520 C   0  0  0  0  0  0  0  0  0  0  0  0
    6.1230   -6.3620   22.2080 C   0  0  0  0  0  0  0  0  0  0  0  0
  4  5  2  0
  5  6  1  0
  2  7  2  0
  3  7  2  0
  1  8  1  0
  8  9  2  0
  9 10  1  0
  7 11  1  0
 10 11  2  0
 11 12  1  0
  8 13  1  0
 12 13  2  0
  5 14  1  0
 14 15  1  0
 15 16  1  0
  7 17  1  0
 16 17  1  0
 17 18  1  0
 14 19  1  0
 18 19  1  0
M  END
