x0734-x3113-x3124
     RDKit          3D

 44 47  0  0  0  0  0  0  0  0999 V2000
    7.3490   -1.4210   22.6850 N   0  0  0  0  0  0  0  0  0  0  0  0
    8.3510    1.4470   23.4780 N   0  0  0  0  0  0  0  0  0  0  0  0
    8.7910    1.6050   20.9880 O   0  0  0  0  0  0  0  0  0  0  0  0
   12.4340    3.6520   22.5870 O   0  0  0  0  0  0  0  0  0  0  0  0
    7.0680   -0.0770   21.9710 C   0  0  1  0  0  0  0  0  0  0  0  0
    8.1170    1.0200   22.1090 C   0  0  0  0  0  0  0  0  0  0  0  0
    9.2340    2.4620   23.8150 C   0  0  0  0  0  0  0  0  0  0  0  0
   10.6820    2.2490   23.4570 C   0  0  0  0  0  0  0  0  0  0  0  0
   11.3550    3.5780   23.1660 C   0  0  0  0  0  0  0  0  0  0  0  0
   13.0140    4.7300   22.7540 C   0  0  0  0  0  0  0  0  0  0  0  0
   12.6470   -2.0580   24.2420 C   0  0  0  0  0  0  0  0  0  0  0  0
   13.5510   -2.2820   23.0470 C   0  0  0  0  0  0  0  0  0  0  0  0
   12.9910   -3.0730   25.3360 C   0  0  0  0  0  0  0  0  0  0  0  0
   12.8660   -0.6730   24.8280 C   0  0  0  0  0  0  0  0  0  0  0  0
    5.1050   -4.7440   26.0930 N   0  0  0  0  0  0  0  0  0  0  0  0
    4.4300   -5.6660   25.6030 O   0  0  0  0  0  0  0  0  0  0  0  0
    4.6510   -3.8250   26.7920 O   0  0  0  0  0  0  0  0  0  0  0  0
    5.0790   -4.2890   19.7240 O   0  0  0  0  0  0  0  0  0  0  0  0
    6.2430   -4.0520   19.9840 C   0  0  0  0  0  0  0  0  0  0  0  0
    7.1380   -3.2290   19.0970 C   0  0  0  0  0  0  0  0  0  0  0  0
    6.5430   -0.0930   18.2260 N   0  0  0  0  0  0  0  0  0  0  0  0
    5.3570    0.5240   18.1210 C   0  0  0  0  0  0  0  0  0  0  0  0
    4.6410    0.9570   19.2150 C   0  0  0  0  0  0  0  0  0  0  0  0
    5.1610    0.7610   20.4800 C   0  0  0  0  0  0  0  0  0  0  0  0
    6.3930    0.1320   20.6320 C   0  0  0  0  0  0  0  0  0  0  0  0
    7.0600   -0.2930   19.4730 C   0  0  0  0  0  0  0  0  0  0  0  0
    9.6530   -1.5720   22.0670 C   0  0  0  0  0  0  0  0  0  0  0  0
   10.9750   -1.7380   22.4300 C   0  0  0  0  0  0  0  0  0  0  0  0
   11.2510   -1.9250   23.7810 C   0  0  0  0  0  0  0  0  0  0  0  0
   10.2740   -1.9670   24.7400 C   0  0  0  0  0  0  0  0  0  0  0  0
    8.9560   -1.8020   24.3890 C   0  0  0  0  0  0  0  0  0  0  0  0
    8.6680   -1.5980   23.0490 C   0  0  0  0  0  0  0  0  0  0  0  0
    6.5150   -4.8290   25.9480 C   0  0  0  0  0  0  0  0  0  0  0  0
    7.2290   -4.3460   24.8240 C   0  0  0  0  0  0  0  0  0  0  0  0
    8.6330   -4.4850   24.7860 C   0  0  0  0  0  0  0  0  0  0  0  0
    9.2870   -5.1070   25.8640 C   0  0  0  0  0  0  0  0  0  0  0  0
    8.5730   -5.5760   26.9520 C   0  0  0  0  0  0  0  0  0  0  0  0
    7.1930   -5.4490   27.0250 C   0  0  0  0  0  0  0  0  0  0  0  0
    6.9350   -4.5690   21.1570 N   0  0  0  0  0  0  0  0  0  0  0  0
    6.2290   -5.5170   22.0230 C   0  0  0  0  0  0  0  0  0  0  0  0
    5.5900   -4.8420   23.1300 C   0  0  0  0  0  0  0  0  0  0  0  0
    6.4080   -3.7140   23.7070 N   0  0  0  0  0  0  0  0  0  0  0  0
    6.7440   -2.7810   22.5560 C   0  0  2  0  0  0  0  0  0  0  0  0
    7.7220   -3.6430   21.9100 C   0  0  0  0  0  0  0  0  0  0  0  0
  1  5  1  0
  2  6  1  0
  3  6  2  0
  5  6  1  6
  2  7  1  0
  7  8  1  0
  4  9  1  0
  8  9  1  0
  4 10  1  0
 11 12  1  0
 11 13  1  0
 11 14  1  0
 15 16  2  0
 15 17  1  0
 18 19  2  0
 19 20  1  0
 21 22  2  0
 22 23  1  0
 23 24  2  0
  5 25  1  0
 24 25  1  0
 21 26  1  0
 25 26  2  0
 27 28  2  0
 11 29  1  0
 28 29  1  0
 29 30  2  0
 30 31  1  0
  1 32  1  0
 27 32  1  0
 31 32  2  0
 15 33  1  0
 33 34  2  0
 34 35  1  0
 35 36  2  0
 36 37  1  0
 33 38  1  0
 37 38  2  0
 19 39  1  0
 39 40  1  0
 40 41  1  0
 34 42  1  0
 41 42  1  0
 43  1  1  1
 42 43  1  0
 39 44  1  0
 43 44  1  0
M  CHG  2  15   1  17  -1
M  END
