x0731-x2910
     RDKit          3D

 45 49  0  0  0  0  0  0  0  0999 V2000
    7.2870   -1.0340   21.4530 N   0  0  0  0  0  0  0  0  0  0  0  0
   10.3380    2.6100   23.6220 C   0  0  0  0  0  0  0  0  0  0  0  0
   10.0680    1.4050   23.6640 O   0  0  0  0  0  0  0  0  0  0  0  0
    9.4160   -1.1310   22.8050 O   0  0  0  0  0  0  0  0  0  0  0  0
    5.2700   -2.1810   20.9310 O   0  0  0  0  0  0  0  0  0  0  0  0
    6.2780    1.3070   16.6980 O   0  0  0  0  0  0  0  0  0  0  0  0
    9.0180   -2.0540   22.1030 C   0  0  0  0  0  0  0  0  0  0  0  0
    7.6340   -2.2880   21.9750 C   0  0  1  0  0  0  0  0  0  0  0  0
    5.9860   -1.1930   20.7910 C   0  0  0  0  0  0  0  0  0  0  0  0
    0.9880   -1.1020   25.9770 C   0  0  0  0  0  0  0  0  0  0  0  0
    6.5750   -4.7500   26.5630 O   0  0  0  0  0  0  0  0  0  0  0  0
    4.8290   -6.5430   26.5330 O   0  0  0  0  0  0  0  0  0  0  0  0
    5.5960   -5.3780   20.0490 O   0  0  0  0  0  0  0  0  0  0  0  0
    6.3520   -4.5350   20.5130 C   0  0  0  0  0  0  0  0  0  0  0  0
    7.0210   -3.4520   19.6190 C   0  0  0  0  0  0  0  0  0  0  0  0
    5.4050   -5.3480   25.9630 S   0  0  0  0  0  0  0  0  0  0  0  0
    7.4850   -3.4350   22.6770 C   0  0  0  0  0  0  0  0  0  0  0  0
   11.0830    0.6440   23.1950 C   0  0  0  0  0  0  0  0  0  0  0  0
   10.7930   -0.7790   22.7020 C   0  0  0  0  0  0  0  0  0  0  0  0
   11.8050   -1.6260   22.2020 C   0  0  0  0  0  0  0  0  0  0  0  0
   13.0800   -1.1440   22.1580 C   0  0  0  0  0  0  0  0  0  0  0  0
   13.3480    0.2650   22.6440 C   0  0  0  0  0  0  0  0  0  0  0  0
   12.3780    1.0980   23.1370 C   0  0  0  0  0  0  0  0  0  0  0  0
    4.8110    1.9820   18.2170 N   0  0  0  0  0  0  0  0  0  0  0  0
    4.2420    1.8450   19.4100 C   0  0  0  0  0  0  0  0  0  0  0  0
    4.6060    0.8300   20.2820 C   0  0  0  0  0  0  0  0  0  0  0  0
    5.5690   -0.0850   19.9120 C   0  0  0  0  0  0  0  0  0  0  0  0
    6.1520    0.0530   18.6910 C   0  0  0  0  0  0  0  0  0  0  0  0
    5.7520    1.0870   17.8960 C   0  0  0  0  0  0  0  0  0  0  0  0
    3.2580    2.7750   19.7540 C   0  0  0  0  0  0  0  0  0  0  0  0
    2.6430    2.6920   20.9880 C   0  0  0  0  0  0  0  0  0  0  0  0
    3.0130    1.7000   21.8590 C   0  0  0  0  0  0  0  0  0  0  0  0
    3.9840    0.7660   21.5250 C   0  0  0  0  0  0  0  0  0  0  0  0
    2.0680   -2.1590   25.9520 C   0  0  0  0  0  0  0  0  0  0  0  0
    1.8240   -3.4480   25.4690 C   0  0  0  0  0  0  0  0  0  0  0  0
    2.8290   -4.4240   25.4600 C   0  0  0  0  0  0  0  0  0  0  0  0
    4.1060   -4.1160   25.9390 C   0  0  0  0  0  0  0  0  0  0  0  0
    4.3520   -2.8210   26.4140 C   0  0  0  0  0  0  0  0  0  0  0  0
    3.3380   -1.8450   26.4210 C   0  0  0  0  0  0  0  0  0  0  0  0
    6.6130   -4.5150   22.0510 C   0  0  0  0  0  0  0  0  0  0  0  0
    7.0270   -5.8670   22.5350 C   0  0  0  0  0  0  0  0  0  0  0  0
    7.1600   -5.6440   23.8900 C   0  0  0  0  0  0  0  0  0  0  0  0
    5.7770   -5.7270   24.3630 N   0  0  0  0  0  0  0  0  0  0  0  0
    4.7770   -5.4710   23.3130 C   0  0  0  0  0  0  0  0  0  0  0  0
    5.2030   -4.3420   22.6250 C   0  0  0  0  0  0  0  0  0  0  0  0
  2  3  1  0
  4  7  1  0
  1  8  1  0
  8  7  1  1
  1  9  1  0
  5  9  2  0
 13 14  2  0
 14 15  1  0
 11 16  2  0
 12 16  2  0
  8 17  1  0
  3 18  1  0
  4 19  1  0
 18 19  2  0
 19 20  1  0
 20 21  2  0
 21 22  1  0
 18 23  1  0
 22 23  2  0
 24 25  2  0
 25 26  1  0
  9 27  1  0
 26 27  2  0
 27 28  1  0
  6 29  1  0
 24 29  1  0
 28 29  2  0
 25 30  1  0
 30 31  2  0
 31 32  1  0
 26 33  1  0
 32 33  2  0
 10 34  1  0
 34 35  2  0
 35 36  1  0
 16 37  1  0
 36 37  2  0
 37 38  1  0
 34 39  1  0
 38 39  2  0
 40 14  1  0
 17 40  1  0
 40 41  1  0
 41 42  1  0
 16 43  1  0
 42 43  1  0
 43 44  1  0
 40 45  1  0
 44 45  1  0
M  END
