x0731-x1093
     RDKit          3D

 40 44  0  0  0  0  0  0  0  0999 V2000
    1.0630   -0.9530   26.0440 C   0  0  0  0  0  0  0  0  0  0  0  0
    6.2460   -5.0150   26.9700 O   0  0  0  0  0  0  0  0  0  0  0  0
    4.6830   -6.6870   26.0840 O   0  0  0  0  0  0  0  0  0  0  0  0
    5.4230   -5.0960   20.0180 O   0  0  0  0  0  0  0  0  0  0  0  0
    6.2240   -4.2690   20.4120 C   0  0  0  0  0  0  0  0  0  0  0  0
    7.0170   -3.3740   19.4470 C   0  0  0  0  0  0  0  0  0  0  0  0
    5.3770   -5.4330   25.8960 S   0  0  0  0  0  0  0  0  0  0  0  0
   13.3310   -1.7300   23.7550 C   0  0  0  0  0  0  0  0  0  0  0  0
    8.8660    1.6640   21.1950 O   0  0  0  0  0  0  0  0  0  0  0  0
    8.8710    0.2670   21.5810 C   0  0  0  0  0  0  0  0  0  0  0  0
    7.9330   -0.7860   20.9100 C   0  0  1  0  0  0  0  0  0  0  0  0
    7.4590   -2.9890   22.2710 C   0  0  0  0  0  0  0  0  0  0  0  0
    7.0770   -1.5620   21.9240 C   0  0  0  0  0  0  0  0  0  0  0  0
    2.1170   -2.0130   25.9920 C   0  0  0  0  0  0  0  0  0  0  0  0
    1.8590   -3.3990   25.3840 C   0  0  0  0  0  0  0  0  0  0  0  0
    2.8540   -4.4050   25.3570 C   0  0  0  0  0  0  0  0  0  0  0  0
    4.1120   -4.1660   25.8860 C   0  0  0  0  0  0  0  0  0  0  0  0
    4.3450   -2.7820   26.4670 C   0  0  0  0  0  0  0  0  0  0  0  0
    3.3820   -1.7770   26.5050 C   0  0  0  0  0  0  0  0  0  0  0  0
    6.4630   -4.1270   21.9230 C   0  0  0  0  0  0  0  0  0  0  0  0
    7.0850   -5.2330   22.3830 C   0  0  0  0  0  0  0  0  0  0  0  0
    7.1930   -5.3060   23.7430 C   0  0  0  0  0  0  0  0  0  0  0  0
    5.9510   -5.5110   24.2790 N   0  0  0  0  0  0  0  0  0  0  0  0
    5.0240   -5.2680   23.2240 C   0  0  0  0  0  0  0  0  0  0  0  0
    5.1870   -4.0490   22.5810 C   0  0  0  0  0  0  0  0  0  0  0  0
   12.1620   -1.2020   23.0900 N   0  0  0  0  0  0  0  0  0  0  0  0
   12.0070    0.1350   23.3110 C   0  0  0  0  0  0  0  0  0  0  0  0
   10.6640    0.5520   23.3770 C   0  0  0  0  0  0  0  0  0  0  0  0
    9.7770   -0.3260   22.5930 N   0  0  0  0  0  0  0  0  0  0  0  0
    9.8470   -1.7490   22.9150 C   0  0  0  0  0  0  0  0  0  0  0  0
   11.0820   -2.0100   23.4660 C   0  0  0  0  0  0  0  0  0  0  0  0
    6.2500    0.2160   17.8960 N   0  0  0  0  0  0  0  0  0  0  0  0
    7.2530   -0.4540   18.5660 C   0  0  0  0  0  0  0  0  0  0  0  0
    7.0770   -0.2470   19.9160 C   0  0  0  0  0  0  0  0  0  0  0  0
    5.9730    0.5340   20.1350 C   0  0  0  0  0  0  0  0  0  0  0  0
    5.4090    0.8630   18.9260 C   0  0  0  0  0  0  0  0  0  0  0  0
    4.2190    1.6940   18.8580 N   0  0  0  0  0  0  0  0  0  0  0  0
    3.7840    2.0510   20.0630 C   0  0  0  0  0  0  0  0  0  0  0  0
    4.3470    1.7190   21.2960 C   0  0  0  0  0  0  0  0  0  0  0  0
    5.5080    0.9270   21.4960 C   0  0  0  0  0  0  0  0  0  0  0  0
  4  5  2  0
  5  6  1  0
  2  7  2  0
  3  7  2  0
  9 10  2  0
 10 11  1  0
 11 13  1  1
 12 13  1  0
  1 14  1  0
 14 15  2  0
 15 16  1  0
  7 17  1  0
 16 17  2  0
 17 18  1  0
 14 19  1  0
 18 19  2  0
 20  5  1  0
 12 20  1  0
 20 21  1  0
 21 22  1  0
  7 23  1  0
 22 23  1  0
 23 24  1  0
 20 25  1  0
 24 25  1  0
  8 26  1  0
 26 27  1  0
 27 28  1  0
 10 29  1  0
 28 29  1  0
 29 30  1  0
 26 31  1  0
 30 31  1  0
 32 33  1  0
 11 34  1  0
 33 34  2  0
 34 35  1  0
 32 36  1  0
 35 36  2  0
 36 37  1  0
 37 38  2  0
 38 39  1  0
 35 40  1  0
 39 40  2  0
M  END
