x0734-x3115-x2776
     RDKit          3D

 49 53  0  0  0  0  0  0  0  0999 V2000
    7.3680   -1.6480   22.0540 N   0  0  0  0  0  0  0  0  0  0  0  0
    7.6270    1.8790   23.1230 N   0  0  0  0  0  0  0  0  0  0  0  0
    8.7010    1.2200   20.9790 O   0  0  0  0  0  0  0  0  0  0  0  0
    6.7790   -0.2480   21.9160 C   0  0  1  0  0  0  0  0  0  0  0  0
    7.7370    0.9600   22.0050 C   0  0  0  0  0  0  0  0  0  0  0  0
    8.1520    6.8420   22.4890 C   0  0  0  0  0  0  0  0  0  0  0  0
   12.3810   -1.9460   24.3310 C   0  0  0  0  0  0  0  0  0  0  0  0
   13.5640   -2.2610   23.4900 C   0  0  0  0  0  0  0  0  0  0  0  0
   12.1250   -3.1650   25.2230 C   0  0  0  0  0  0  0  0  0  0  0  0
   12.5950   -0.6880   25.1520 C   0  0  0  0  0  0  0  0  0  0  0  0
   10.9400    6.4880   23.5890 O   0  0  0  0  0  0  0  0  0  0  0  0
   10.4480    1.7390   24.1050 C   0  0  0  0  0  0  0  0  0  0  0  0
   11.8110    6.4500   24.7450 C   0  0  0  0  0  0  0  0  0  0  0  0
    4.9000   -4.6340   26.0920 N   0  0  0  0  0  0  0  0  0  0  0  0
    4.1910   -5.5500   25.6420 O   0  0  0  0  0  0  0  0  0  0  0  0
    4.5090   -3.7060   26.8120 O   0  0  0  0  0  0  0  0  0  0  0  0
    5.1650   -4.2000   19.7300 O   0  0  0  0  0  0  0  0  0  0  0  0
    6.3240   -3.9880   20.0650 C   0  0  0  0  0  0  0  0  0  0  0  0
    7.2610   -3.1780   19.1980 C   0  0  0  0  0  0  0  0  0  0  0  0
    6.3990    0.1580   18.0730 N   0  0  0  0  0  0  0  0  0  0  0  0
    5.2230    0.7840   17.9990 C   0  0  0  0  0  0  0  0  0  0  0  0
    4.3930    1.1310   19.2230 C   0  0  0  0  0  0  0  0  0  0  0  0
    4.8560    0.8020   20.4880 C   0  0  0  0  0  0  0  0  0  0  0  0
    6.0870    0.1550   20.5920 C   0  0  0  0  0  0  0  0  0  0  0  0
    6.8140   -0.1520   19.4330 C   0  0  0  0  0  0  0  0  0  0  0  0
    9.8590   -1.1950   21.6820 C   0  0  0  0  0  0  0  0  0  0  0  0
   11.0760   -1.3150   22.3270 C   0  0  0  0  0  0  0  0  0  0  0  0
   11.1480   -1.7720   23.6130 C   0  0  0  0  0  0  0  0  0  0  0  0
   10.0600   -2.1230   24.3490 C   0  0  0  0  0  0  0  0  0  0  0  0
    8.8370   -2.0420   23.7880 C   0  0  0  0  0  0  0  0  0  0  0  0
    8.6550   -1.6090   22.4730 C   0  0  0  0  0  0  0  0  0  0  0  0
    9.7690    3.0480   23.6790 C   0  0  0  0  0  0  0  0  0  0  0  0
   10.5750    4.1950   23.7890 C   0  0  0  0  0  0  0  0  0  0  0  0
   10.0700    5.4380   23.4250 C   0  0  0  0  0  0  0  0  0  0  0  0
    8.7660    5.5170   22.9360 C   0  0  0  0  0  0  0  0  0  0  0  0
    7.9920    4.3520   22.8460 C   0  0  0  0  0  0  0  0  0  0  0  0
    8.4450    3.0870   23.2140 C   0  0  0  0  0  0  0  0  0  0  0  0
    6.3380   -4.8230   25.9730 C   0  0  0  0  0  0  0  0  0  0  0  0
    7.1020   -4.3650   24.8590 C   0  0  0  0  0  0  0  0  0  0  0  0
    8.5280   -4.6060   24.8140 C   0  0  0  0  0  0  0  0  0  0  0  0
    9.2750   -5.3390   25.9310 C   0  0  0  0  0  0  0  0  0  0  0  0
    8.4380   -5.7940   27.0870 C   0  0  0  0  0  0  0  0  0  0  0  0
    6.9280   -5.5040   27.0560 C   0  0  0  0  0  0  0  0  0  0  0  0
    6.8800   -4.5860   21.2910 N   0  0  0  0  0  0  0  0  0  0  0  0
    6.0620   -5.4250   22.1250 C   0  0  0  0  0  0  0  0  0  0  0  0
    5.4230   -4.6340   23.0810 C   0  0  0  0  0  0  0  0  0  0  0  0
    6.3280   -3.6300   23.7680 N   0  0  0  0  0  0  0  0  0  0  0  0
    7.2800   -2.9200   22.8880 C   0  0  1  0  0  0  0  0  0  0  0  0
    7.8670   -3.8800   22.0850 C   0  0  0  0  0  0  0  0  0  0  0  0
  1  4  1  0
  2  5  1  0
  3  5  2  0
  4  5  1  6
  7  8  1  0
  7  9  1  0
  7 10  1  0
 11 13  1  0
 14 15  2  0
 14 16  1  0
 17 18  2  0
 18 19  1  0
 20 21  2  0
 21 22  1  0
 22 23  2  0
  4 24  1  0
 23 24  1  0
 20 25  1  0
 24 25  2  0
 26 27  2  0
  7 28  1  0
 27 28  1  0
 28 29  2  0
 29 30  1  0
  1 31  1  0
 26 31  1  0
 30 31  2  0
 12 32  1  0
 32 33  2  0
 11 34  1  0
 33 34  1  0
  6 35  1  0
 34 35  2  0
 35 36  1  0
  2 37  1  0
 32 37  1  0
 36 37  2  0
 14 38  1  0
 38 39  2  0
 39 40  1  0
 40 41  2  0
 41 42  1  0
 38 43  1  0
 42 43  2  0
 18 44  1  0
 44 45  1  0
 45 46  1  0
 39 47  1  0
 46 47  1  0
 48  1  1  6
 47 48  1  0
 44 49  1  0
 48 49  1  0
M  CHG  2  14   1  16  -1
M  END
