x0731-x0354
     RDKit          3D

 39 42  0  0  0  0  0  0  0  0999 V2000
    0.9990   -0.8790   26.1630 C   0  0  0  0  0  0  0  0  0  0  0  0
    6.0260   -4.9260   26.3180 N   0  0  0  0  0  0  0  0  0  0  0  0
    4.2290   -6.7400   25.8950 O   0  0  0  0  0  0  0  0  0  0  0  0
    5.2370   -4.9680   19.9720 O   0  0  0  0  0  0  0  0  0  0  0  0
    6.2600   -4.5730   20.4640 C   0  0  0  0  0  0  0  0  0  0  0  0
    7.0790   -3.4540   19.7870 C   0  0  0  0  0  0  0  0  0  0  0  0
    4.8380   -5.4610   25.6250 S   0  0  1  0  0  0  0  0  0  0  0  0
   13.0410   -1.4240   21.9640 C   0  0  0  0  0  0  0  0  0  0  0  0
    8.2680   -2.3340   25.1420 N   0  0  0  0  0  0  0  0  0  0  0  0
    7.5650   -0.5230   27.3610 O   0  0  0  0  0  0  0  0  0  0  0  0
    9.0460   -1.2750   25.4400 C   0  0  0  0  0  0  0  0  0  0  0  0
    8.6750   -0.1960   26.5120 C   0  0  0  0  0  0  0  0  0  0  0  0
    5.6870    3.6420   30.8490 C   0  0  0  0  0  0  0  0  0  0  0  0
    6.9410   -4.2360   25.4770 C   0  0  0  0  0  0  0  0  0  0  0  0
    7.0250   -2.7530   25.6970 C   0  0  0  0  0  0  0  0  0  0  0  0
    1.9240   -2.0370   25.9960 C   0  0  0  0  0  0  0  0  0  0  0  0
    1.4630   -3.2030   25.3520 C   0  0  0  0  0  0  0  0  0  0  0  0
    2.3220   -4.2570   25.2170 C   0  0  0  0  0  0  0  0  0  0  0  0
    3.7300   -4.1640   25.7530 C   0  0  0  0  0  0  0  0  0  0  0  0
    4.1350   -2.9750   26.3790 C   0  0  0  0  0  0  0  0  0  0  0  0
    3.2320   -1.9390   26.4890 C   0  0  0  0  0  0  0  0  0  0  0  0
    6.6820   -5.2050   21.6460 N   0  0  0  0  0  0  0  0  0  0  0  0
    7.1740   -4.4590   22.6490 C   0  0  0  0  0  0  0  0  0  0  0  0
    6.0810   -4.1310   23.4750 C   0  0  0  0  0  0  0  0  0  0  0  0
    5.4330   -5.3490   24.0140 N   0  0  0  0  0  0  0  0  0  0  0  0
    5.1760   -6.2820   23.0880 C   0  0  0  0  0  0  0  0  0  0  0  0
    6.0630   -6.4670   22.0490 C   0  0  0  0  0  0  0  0  0  0  0  0
   12.5080   -1.4230   23.3010 N   0  0  0  0  0  0  0  0  0  0  0  0
   11.5050   -2.3170   23.3360 C   0  0  0  0  0  0  0  0  0  0  0  0
   10.8530   -2.4760   24.5320 C   0  0  0  0  0  0  0  0  0  0  0  0
   10.2260   -1.2610   24.7400 N   0  0  0  0  0  0  0  0  0  0  0  0
   11.1740   -0.1700   24.8240 C   0  0  0  0  0  0  0  0  0  0  0  0
   12.0270   -0.1040   23.7310 C   0  0  0  0  0  0  0  0  0  0  0  0
    7.7540    1.6060   28.2750 C   0  0  0  0  0  0  0  0  0  0  0  0
    7.3320    2.6490   29.1120 C   0  0  0  0  0  0  0  0  0  0  0  0
    6.1940    2.5250   29.9140 C   0  0  0  0  0  0  0  0  0  0  0  0
    5.4700    1.3250   29.8650 C   0  0  0  0  0  0  0  0  0  0  0  0
    5.9030    0.2840   29.0230 C   0  0  0  0  0  0  0  0  0  0  0  0
    7.0460    0.4190   28.2230 C   0  0  0  0  0  0  0  0  0  0  0  0
  4  5  2  0
  5  6  1  0
  2  7  2  0
  3  7  2  0
  9 11  2  3
 10 12  1  0
 11 12  1  0
  2 14  1  0
  9 15  1  0
 14 15  1  0
  1 16  1  0
 16 17  2  0
 17 18  1  0
  7 19  1  6
 18 19  2  0
 19 20  1  0
 16 21  1  0
 20 21  2  0
  5 22  1  0
 22 23  1  0
 23 24  1  0
  7 25  1  0
 24 25  1  0
 25 26  1  0
 22 27  1  0
 26 27  1  0
  8 28  1  0
 28 29  1  0
 29 30  1  0
 11 31  1  0
 30 31  1  0
 31 32  1  0
 28 33  1  0
 32 33  1  0
 34 35  2  0
 13 36  1  0
 35 36  1  0
 36 37  2  0
 37 38  1  0
 10 39  1  0
 34 39  1  0
 38 39  2  0
M  END
