x0731-x2119
     RDKit          3D

 22 25  0  0  0  0  0  0  0  0999 V2000
    0.7980   -0.7740   26.0680 C   0  0  0  0  0  0  0  0  0  0  0  0
    6.2150   -4.9070   26.8170 O   0  0  0  0  0  0  0  0  0  0  0  0
    4.6270   -6.5440   25.8530 O   0  0  0  0  0  0  0  0  0  0  0  0
    5.0740   -5.3530   19.9370 O   0  0  0  0  0  0  0  0  0  0  0  0
    6.1090   -5.0240   20.3740 C   0  0  0  0  0  0  0  0  0  0  0  0
    6.7650   -3.6900   20.0880 C   0  0  0  0  0  0  0  0  0  0  0  0
    5.2780   -5.2510   25.7750 S   0  0  0  0  0  0  0  0  0  0  0  0
    1.9300   -1.8430   25.9950 C   0  0  0  0  0  0  0  0  0  0  0  0
    1.5860   -3.2280   25.3660 C   0  0  0  0  0  0  0  0  0  0  0  0
    2.6730   -4.3070   25.2940 C   0  0  0  0  0  0  0  0  0  0  0  0
    4.0380   -3.9960   25.8330 C   0  0  0  0  0  0  0  0  0  0  0  0
    4.3030   -2.6250   26.4210 C   0  0  0  0  0  0  0  0  0  0  0  0
    3.2110   -1.5700   26.4820 C   0  0  0  0  0  0  0  0  0  0  0  0
    7.3110   -4.3550   22.3750 C   0  0  2  0  0  0  0  0  0  0  0  0
    8.3370   -4.1510   23.2120 C   0  0  0  0  0  0  0  0  0  0  0  0
    7.0800   -4.0320   23.8560 C   0  0  2  0  0  0  0  0  0  0  0  0
    6.0470   -5.0830   24.2410 C   0  0  0  0  0  0  0  0  0  0  0  0
    5.8300   -5.9840   23.2180 C   0  0  0  0  0  0  0  0  0  0  0  0
    6.6620   -5.6190   22.1830 C   0  0  0  0  0  0  0  0  0  0  0  0
    5.9240   -3.1360   23.4980 C   0  0  0  0  0  0  0  0  0  0  0  0
    5.9000   -2.6740   22.1700 C   0  0  0  0  0  0  0  0  0  0  0  0
    6.9540   -3.2120   21.4530 N   0  0  0  0  0  0  0  0  0  0  0  0
  4  5  2  0
  5  6  1  0
  2  7  2  0
  3  7  2  0
  1  8  1  0
  8  9  2  0
  9 10  1  0
  7 11  1  0
 10 11  2  0
 11 12  1  0
  8 13  1  0
 12 13  2  0
 14 15  1  1
 14 16  1  0
 16 15  1  1
  7 17  1  0
 16 17  1  0
 17 18  2  0
 14 19  1  0
 18 19  1  0
 16 20  1  0
 20 21  2  0
  6 22  1  0
 14 22  1  0
 21 22  1  0
M  END
