x0731-x3110-x1077
     RDKit          3D

 54 59  0  0  0  0  0  0  0  0999 V2000
    8.1290    1.3740   23.3610 N   0  0  0  0  0  0  0  0  0  0  0  0
   13.3890    5.2200   22.9360 C   0  0  0  0  0  0  0  0  0  0  0  0
   12.0420    3.3070   22.3990 O   0  0  0  0  0  0  0  0  0  0  0  0
   12.5100    4.5610   21.8940 C   0  0  0  0  0  0  0  0  0  0  0  0
    7.5830   -1.4630   21.6880 N   0  0  0  0  0  0  0  0  0  0  0  0
   11.0330    4.3800   24.1420 O   0  0  0  0  0  0  0  0  0  0  0  0
   11.1840    3.3960   23.4400 C   0  0  0  0  0  0  0  0  0  0  0  0
    8.7580    1.5690   21.0950 O   0  0  0  0  0  0  0  0  0  0  0  0
   10.4000    2.0680   23.6240 C   0  0  0  0  0  0  0  0  0  0  0  0
    8.9400    2.3930   23.7880 C   0  0  0  0  0  0  0  0  0  0  0  0
    8.0520    1.0160   21.9420 C   0  0  0  0  0  0  0  0  0  0  0  0
    7.0090   -0.0590   21.6450 C   0  0  1  0  0  0  0  0  0  0  0  0
   12.4860   -1.8550   24.2330 C   0  0  0  0  0  0  0  0  0  0  0  0
   12.6680   -0.5900   25.0160 C   0  0  0  0  0  0  0  0  0  0  0  0
   13.4910   -1.9840   23.0880 C   0  0  0  0  0  0  0  0  0  0  0  0
   12.7680   -3.0420   25.1690 C   0  0  0  0  0  0  0  0  0  0  0  0
    6.3250    0.2350   17.8660 N   0  0  0  0  0  0  0  0  0  0  0  0
    5.2490    1.0280   17.9100 C   0  0  0  0  0  0  0  0  0  0  0  0
    4.6840    1.4890   19.0680 C   0  0  0  0  0  0  0  0  0  0  0  0
    5.2490    1.1300   20.2890 C   0  0  0  0  0  0  0  0  0  0  0  0
    6.3820    0.3070   20.3220 C   0  0  0  0  0  0  0  0  0  0  0  0
    6.9400   -0.1630   19.1410 C   0  0  0  0  0  0  0  0  0  0  0  0
    9.8490   -1.3570   21.8070 C   0  0  0  0  0  0  0  0  0  0  0  0
   11.0870   -1.4230   22.3110 C   0  0  0  0  0  0  0  0  0  0  0  0
   11.1160   -1.8030   23.6020 C   0  0  0  0  0  0  0  0  0  0  0  0
    9.9700   -2.1080   24.3230 C   0  0  0  0  0  0  0  0  0  0  0  0
    8.5850   -2.0850   23.8890 C   0  0  0  0  0  0  0  0  0  0  0  0
    8.7140   -1.6560   22.5200 C   0  0  0  0  0  0  0  0  0  0  0  0
    0.5000   -1.0790   26.5180 C   0  0  0  0  0  0  0  0  0  0  0  0
    4.5360   -5.5090   24.5700 O   0  0  0  0  0  0  0  0  0  0  0  0
    5.1050   -4.6700   19.8850 O   0  0  0  0  0  0  0  0  0  0  0  0
    6.1890   -4.3780   20.3050 C   0  0  0  0  0  0  0  0  0  0  0  0
    7.1120   -3.4180   19.5730 C   0  0  0  0  0  0  0  0  0  0  0  0
    5.4680   -4.6760   25.6050 S   0  0  0  0  0  0  0  0  0  0  0  0
    7.8200   -5.7390   25.5130 O   0  0  0  0  0  0  0  0  0  0  0  0
    7.5870   -5.1500   24.3370 C   0  0  1  0  0  0  0  0  0  0  0  0
    8.7850   -5.5260   23.8520 C   0  0  0  0  0  0  0  0  0  0  0  0
    9.6990   -4.9110   24.7510 C   0  0  0  0  0  0  0  0  0  0  0  0
    9.1310   -3.9030   25.7730 N   0  0  0  0  0  0  0  0  0  0  0  0
    8.1750   -4.3430   26.9010 C   0  0  0  0  0  0  0  0  0  0  0  0
    7.1640   -4.8010   26.1180 C   0  0  0  0  0  0  0  0  0  0  0  0
    1.6950   -1.9500   26.3310 C   0  0  0  0  0  0  0  0  0  0  0  0
    1.6160   -3.1840   25.4980 C   0  0  0  0  0  0  0  0  0  0  0  0
    2.8730   -4.0070   25.3390 C   0  0  0  0  0  0  0  0  0  0  0  0
    4.2190   -3.6470   25.9870 C   0  0  0  0  0  0  0  0  0  0  0  0
    4.2620   -2.5000   26.7700 C   0  0  0  0  0  0  0  0  0  0  0  0
    3.0240   -1.5960   26.9850 C   0  0  0  0  0  0  0  0  0  0  0  0
    6.6800   -4.9030   21.4600 N   0  0  0  0  0  0  0  0  0  0  0  0
    6.7240   -4.0720   22.6070 C   0  0  0  0  0  0  0  0  0  0  0  0
    5.5810   -4.5870   23.4160 C   0  0  0  0  0  0  0  0  0  0  0  0
    6.1130   -5.6890   24.3490 C   0  0  0  0  0  0  0  0  0  0  0  0
    5.5430   -6.3540   23.1400 C   0  0  0  0  0  0  0  0  0  0  0  0
    6.2580   -6.2710   21.7740 C   0  0  0  0  0  0  0  0  0  0  0  0
    8.7540   -2.5140   25.3410 C   0  0  0  0  0  0  0  0  0  0  0  0
  2  4  1  0
  3  4  1  0
  3  7  1  0
  6  7  2  0
  7  9  1  0
  1 10  1  0
  9 10  1  0
  1 11  1  0
  8 11  2  0
 12  5  1  6
 11 12  1  0
 13 14  1  0
 13 15  1  0
 13 16  1  0
 17 18  2  0
 18 19  1  0
 19 20  2  0
 12 21  1  0
 20 21  1  0
 17 22  1  0
 21 22  2  0
 23 24  2  0
 13 25  1  0
 24 25  1  0
 25 26  2  0
 26 27  1  0
  5 28  1  0
 23 28  1  0
 27 28  2  0
 31 32  2  0
 32 33  1  0
 30 34  2  0
 35 36  1  0
 36 37  1  6
 37 38  1  0
 38 39  1  0
 39 40  1  0
 34 41  2  0
 35 41  1  0
 40 41  1  0
 29 42  1  0
 42 43  2  0
 43 44  1  0
 34 45  1  0
 44 45  2  0
 45 46  1  0
 42 47  1  0
 46 47  2  0
 32 48  1  0
 48 49  1  0
 49 50  1  0
 34 51  1  0
 36 51  1  0
 51 50  1  0
 51 52  1  0
 48 53  1  0
 52 53  1  0
 27 54  1  0
 39 54  1  0
M  END
