x0736-x0978
     RDKit          3D

 28 29  0  0  0  0  0  0  0  0999 V2000
    1.8120   -5.7320   23.3920 N   0  0  0  0  0  0  0  0  0  0  0  0
    2.1280   -8.2380   24.7130 C   0  0  0  0  0  0  0  0  0  0  0  0
    4.4120   -7.9160   24.4620 O   0  0  0  0  0  0  0  0  0  0  0  0
    3.3310   -7.3840   24.4600 C   0  0  1  0  0  0  0  0  0  0  0  0
    5.2890   -6.1220   22.1010 N   0  0  0  0  0  0  0  0  0  0  0  0
    0.5940   -7.3310   21.7910 O   0  0  0  0  0  0  0  0  0  0  0  0
    3.0020   -6.5480   23.2180 C   0  0  2  0  0  0  0  0  0  0  0  0
    4.1030   -4.4230   23.3070 O   0  0  0  0  0  0  0  0  0  0  0  0
    0.6570   -6.1400   22.5930 C   0  0  0  0  0  0  0  0  0  0  0  0
   -0.6100   -5.3470   22.5260 C   0  0  0  0  0  0  0  0  0  0  0  0
    4.1600   -5.5800   22.9030 C   0  0  0  0  0  0  0  0  0  0  0  0
    6.4590   -5.3680   22.2240 C   0  0  0  0  0  0  0  0  0  0  0  0
    7.3310   -2.9580   18.7990 C   0  0  0  0  0  0  0  0  0  0  0  0
    5.2930   -3.9590   19.5520 O   0  0  0  0  0  0  0  0  0  0  0  0
    6.2330   -3.2230   19.8180 C   0  0  0  0  0  0  0  0  0  0  0  0
    5.4110   -1.6450   24.2680 O   0  0  0  0  0  0  0  0  0  0  0  0
    6.4840   -2.2200   24.3320 C   0  0  0  0  0  0  0  0  0  0  0  0
    6.2590   -2.6720   21.0700 N   0  0  0  0  0  0  0  0  0  0  0  0
    7.2440   -1.9280   21.6090 C   0  0  0  0  0  0  0  0  0  0  0  0
    8.1070   -2.6410   22.4440 C   0  0  0  0  0  0  0  0  0  0  0  0
    6.9910   -3.1240   23.3120 N   0  0  0  0  0  0  0  0  0  0  0  0
    6.0860   -3.9980   22.8510 C   0  0  1  0  0  0  0  0  0  0  0  0
    5.4020   -3.2780   21.9340 C   0  0  0  0  0  0  0  0  0  0  0  0
    8.5760   -1.9270   25.0490 O   0  0  0  0  0  0  0  0  0  0  0  0
    7.2790   -2.0890   25.3380 C   0  0  0  0  0  0  0  0  0  0  0  0
    6.9790   -2.1050   26.6900 C   0  0  0  0  0  0  0  0  0  0  0  0
    8.2990   -1.9310   27.2730 C   0  0  0  0  0  0  0  0  0  0  0  0
    9.1520   -1.8410   26.2100 C   0  0  0  0  0  0  0  0  0  0  0  0
  4  2  1  6
  3  4  1  0
  7  1  1  1
  4  7  1  0
  1  9  1  0
  6  9  2  0
  9 10  1  0
  5 11  1  0
  7 11  1  0
  8 11  2  0
  5 12  1  0
 13 15  1  0
 14 15  2  0
 16 17  2  0
 15 18  1  0
 18 19  1  0
 19 20  1  0
 17 21  1  0
 20 21  1  0
 22 12  1  6
 21 22  1  0
 18 23  1  0
 22 23  1  0
 17 25  1  0
 24 25  1  0
 25 26  2  0
 26 27  1  0
 24 28  1  0
 27 28  2  0
M  END
