x0734-x2705-x2776
     RDKit          3D

 51 55  0  0  0  0  0  0  0  0999 V2000
    7.2920   -0.9450   22.0750 N   0  0  0  0  0  0  0  0  0  0  0  0
    7.6710    2.3100   22.8000 N   0  0  0  0  0  0  0  0  0  0  0  0
    8.9320    1.5230   21.0780 O   0  0  0  0  0  0  0  0  0  0  0  0
    6.9420    0.3380   21.6390 C   0  0  1  0  0  0  0  0  0  0  0  0
    7.9540    1.4280   21.8020 C   0  0  0  0  0  0  0  0  0  0  0  0
   10.1900    2.3610   23.9400 C   0  0  0  0  0  0  0  0  0  0  0  0
    9.2870    1.5320   24.8750 C   0  0  0  0  0  0  0  0  0  0  0  0
    6.1360    4.5680   21.8710 C   0  0  0  0  0  0  0  0  0  0  0  0
   12.4490   -1.4840   23.1900 C   0  0  0  0  0  0  0  0  0  0  0  0
   13.0050   -0.3040   23.8250 C   0  0  0  0  0  0  0  0  0  0  0  0
   12.9200   -2.8050   23.8230 C   0  0  0  0  0  0  0  0  0  0  0  0
   12.9170   -1.5520   21.8430 C   0  0  0  0  0  0  0  0  0  0  0  0
   13.1870   -2.7990   25.3440 C   0  0  0  0  0  0  0  0  0  0  0  0
   10.9550    6.1620   24.0270 O   0  0  0  0  0  0  0  0  0  0  0  0
   11.8780    6.2930   24.8270 C   0  0  0  0  0  0  0  0  0  0  0  0
    5.0760   -4.8680   26.3820 N   0  0  0  0  0  0  0  0  0  0  0  0
    4.2990   -5.7180   25.5990 O   0  0  0  0  0  0  0  0  0  0  0  0
    4.6750   -3.7950   26.8660 O   0  0  0  0  0  0  0  0  0  0  0  0
    5.2060   -4.2320   19.7610 O   0  0  0  0  0  0  0  0  0  0  0  0
    6.3720   -4.0250   20.0960 C   0  0  0  0  0  0  0  0  0  0  0  0
    7.2840   -3.1960   19.2040 C   0  0  0  0  0  0  0  0  0  0  0  0
    6.3900   -1.9720   22.5810 C   0  0  0  0  0  0  0  0  0  0  0  0
    6.2970    0.0650   17.9160 N   0  0  0  0  0  0  0  0  0  0  0  0
    5.1300    0.9150   17.8890 C   0  0  0  0  0  0  0  0  0  0  0  0
    4.5980    1.5020   18.9910 C   0  0  0  0  0  0  0  0  0  0  0  0
    5.2430    1.2520   20.1640 C   0  0  0  0  0  0  0  0  0  0  0  0
    6.3680    0.4400   20.1980 C   0  0  0  0  0  0  0  0  0  0  0  0
    7.0300   -0.2440   19.1710 C   0  0  0  0  0  0  0  0  0  0  0  0
   10.1090   -1.2120   24.5120 N   0  0  0  0  0  0  0  0  0  0  0  0
    8.7750   -1.0670   24.1520 N   0  0  0  0  0  0  0  0  0  0  0  0
    8.5720   -1.0730   22.7200 C   0  0  0  0  0  0  0  0  0  0  0  0
    9.9380   -1.2410   22.1290 C   0  0  0  0  0  0  0  0  0  0  0  0
   10.9490   -1.3290   23.2830 C   0  0  0  0  0  0  0  0  0  0  0  0
    9.5250    3.6680   23.5410 C   0  0  0  0  0  0  0  0  0  0  0  0
   10.4030    4.9140   23.8590 C   0  0  0  0  0  0  0  0  0  0  0  0
    9.4200    6.0000   23.3050 C   0  0  0  0  0  0  0  0  0  0  0  0
    8.1600    5.8710   22.7180 C   0  0  0  0  0  0  0  0  0  0  0  0
    7.5550    4.6750   22.5340 C   0  0  0  0  0  0  0  0  0  0  0  0
    8.2550    3.5920   22.9570 C   0  0  0  0  0  0  0  0  0  0  0  0
    6.5300   -5.0440   26.2780 C   0  0  0  0  0  0  0  0  0  0  0  0
    7.2190   -4.7190   25.1170 C   0  0  0  0  0  0  0  0  0  0  0  0
    8.7240   -4.9320   25.0830 C   0  0  0  0  0  0  0  0  0  0  0  0
    9.3540   -5.4410   26.2080 C   0  0  0  0  0  0  0  0  0  0  0  0
    8.6060   -5.7460   27.3410 C   0  0  0  0  0  0  0  0  0  0  0  0
    7.2180   -5.5530   27.3850 C   0  0  0  0  0  0  0  0  0  0  0  0
    6.8990   -4.6090   21.2430 N   0  0  0  0  0  0  0  0  0  0  0  0
    6.2450   -5.5720   22.0120 C   0  0  0  0  0  0  0  0  0  0  0  0
    5.6740   -5.2280   23.2400 C   0  0  0  0  0  0  0  0  0  0  0  0
    6.4480   -4.1810   23.9680 N   0  0  0  0  0  0  0  0  0  0  0  0
    7.1940   -3.1640   23.1770 C   0  0  1  0  0  0  0  0  0  0  0  0
    7.8890   -3.8470   22.0400 C   0  0  0  0  0  0  0  0  0  0  0  0
  1  4  1  0
  2  5  1  0
  3  5  2  0
  4  5  1  6
  6  7  1  0
  9 10  1  0
  9 11  1  0
  9 12  1  0
 11 13  1  0
 14 15  1  0
 16 17  2  0
 16 18  1  0
 19 20  2  0
 20 21  1  0
  1 22  1  0
 23 24  2  0
 24 25  1  0
 25 26  2  0
  4 27  1  0
 26 27  1  0
 23 28  1  0
 27 28  2  0
 29 30  1  0
  1 31  1  0
 30 31  1  0
 31 32  2  0
  9 33  1  0
 29 33  2  0
 32 33  1  0
  6 34  1  0
 14 35  1  0
 34 35  2  0
 35 36  1  0
 36 37  2  0
  8 38  1  0
 37 38  1  0
  2 39  1  0
 34 39  1  0
 38 39  2  0
 16 40  1  0
 40 41  2  0
 41 42  1  0
 42 43  2  0
 43 44  1  0
 40 45  1  0
 44 45  2  0
 20 46  1  0
 46 47  1  0
 47 48  1  0
 41 49  1  0
 48 49  1  0
 50 22  1  6
 49 50  1  0
 46 51  1  0
 50 51  1  0
M  CHG  2  16   1  18  -1
M  END
