x0731-x3080
     RDKit          3D

 46 50  0  0  0  0  0  0  0  0999 V2000
    9.3870   -0.2630   23.4590 N   0  0  0  0  0  0  0  0  0  0  0  0
   10.5540    0.5630   23.5640 C   0  0  0  0  0  0  0  0  0  0  0  0
    8.9610    1.3870   21.0940 O   0  0  0  0  0  0  0  0  0  0  0  0
    9.2860   -0.7130   22.1970 C   0  0  0  0  0  0  0  0  0  0  0  0
    7.5410   -0.5560   20.8470 N   0  0  0  0  0  0  0  0  0  0  0  0
    7.2580   -1.6820   24.2780 N   0  0  0  0  0  0  0  0  0  0  0  0
    8.6660    0.1850   21.3560 C   0  0  0  0  0  0  0  0  0  0  0  0
    9.4840   -0.0820   25.6290 O   0  0  0  0  0  0  0  0  0  0  0  0
    5.2070    0.8140   21.8890 C   0  0  0  0  0  0  0  0  0  0  0  0
    8.7250   -0.8710   24.6880 S   0  0  2  0  0  0  0  0  0  0  0  0
    0.8560   -1.0270   26.0910 C   0  0  0  0  0  0  0  0  0  0  0  0
    6.4500   -4.5430   26.6430 O   0  0  0  0  0  0  0  0  0  0  0  0
    4.8230   -6.3070   25.8830 O   0  0  0  0  0  0  0  0  0  0  0  0
    5.2920   -5.0960   19.9900 O   0  0  0  0  0  0  0  0  0  0  0  0
    6.2730   -4.6190   20.4990 C   0  0  0  0  0  0  0  0  0  0  0  0
    6.9540   -3.4340   19.8030 C   0  0  0  0  0  0  0  0  0  0  0  0
    5.4070   -4.9830   25.7390 S   0  0  0  0  0  0  0  0  0  0  0  0
    7.0490   -2.3930   23.3630 C   0  0  0  0  0  0  0  0  0  0  0  0
    6.2230    0.6520   17.5550 N   0  0  0  0  0  0  0  0  0  0  0  0
    5.1590    1.3090   17.9940 C   0  0  0  0  0  0  0  0  0  0  0  0
    4.7650    1.3910   19.4520 C   0  0  0  0  0  0  0  0  0  0  0  0
    5.5260    0.7740   20.4420 C   0  0  0  0  0  0  0  0  0  0  0  0
    6.6270    0.1140   19.9570 C   0  0  0  0  0  0  0  0  0  0  0  0
    6.9590    0.0580   18.4980 C   0  0  0  0  0  0  0  0  0  0  0  0
   11.6020   -1.4880   24.8660 N   0  0  0  0  0  0  0  0  0  0  0  0
   10.6790   -2.5690   25.3790 C   0  0  0  0  0  0  0  0  0  0  0  0
   11.2320   -3.7050   25.8870 C   0  0  0  0  0  0  0  0  0  0  0  0
   12.6350   -3.7750   25.9190 C   0  0  0  0  0  0  0  0  0  0  0  0
   13.4740   -2.7600   25.4460 C   0  0  0  0  0  0  0  0  0  0  0  0
   12.9290   -1.6170   24.9100 C   0  0  0  0  0  0  0  0  0  0  0  0
    8.4760   -3.2900   25.7570 C   0  0  0  0  0  0  0  0  0  0  0  0
    9.0030   -4.4710   26.2690 C   0  0  0  0  0  0  0  0  0  0  0  0
   10.3680   -4.6750   26.3340 C   0  0  0  0  0  0  0  0  0  0  0  0
    9.3330   -2.3310   25.3090 C   0  0  0  0  0  0  0  0  0  0  0  0
    1.9710   -2.0230   25.9910 C   0  0  0  0  0  0  0  0  0  0  0  0
    1.7520   -3.2690   25.3940 C   0  0  0  0  0  0  0  0  0  0  0  0
    2.8240   -4.1640   25.3300 C   0  0  0  0  0  0  0  0  0  0  0  0
    4.0810   -3.8250   25.8480 C   0  0  0  0  0  0  0  0  0  0  0  0
    4.3010   -2.5860   26.4410 C   0  0  0  0  0  0  0  0  0  0  0  0
    3.2320   -1.6960   26.5020 C   0  0  0  0  0  0  0  0  0  0  0  0
    6.7210   -5.2400   21.6870 N   0  0  0  0  0  0  0  0  0  0  0  0
    7.6730   -4.6270   22.6110 C   0  0  0  0  0  0  0  0  0  0  0  0
    7.0940   -3.9100   23.6460 C   0  0  2  0  0  0  0  0  0  0  0  0
    5.8590   -4.7300   24.1310 N   0  0  0  0  0  0  0  0  0  0  0  0
    5.1030   -5.6240   23.1600 C   0  0  0  0  0  0  0  0  0  0  0  0
    5.9760   -6.2770   22.3300 C   0  0  0  0  0  0  0  0  0  0  0  0
  1  2  1  0
  1  4  1  0
  3  7  2  0
  4  7  1  0
  5  7  1  0
 10  1  1  6
  6 10  2  0
  8 10  2  0
 14 15  2  0
 15 16  1  0
 12 17  2  0
 13 17  2  0
  6 18  1  0
 19 20  2  0
 20 21  1  0
  9 22  1  0
 21 22  2  0
  5 23  1  0
 22 23  1  0
 19 24  1  0
 23 24  2  0
 25 26  2  0
 26 27  1  0
 27 28  2  0
 28 29  1  0
 25 30  1  0
 29 30  2  0
 31 32  1  0
 27 33  1  0
 32 33  2  0
 10 34  1  0
 26 34  1  0
 31 34  2  0
 11 35  1  0
 35 36  2  0
 36 37  1  0
 17 38  1  0
 37 38  2  0
 38 39  1  0
 35 40  1  0
 39 40  2  0
 15 41  1  0
 41 42  1  0
 43 18  1  6
 42 43  1  0
 17 44  1  0
 43 44  1  0
 44 45  1  0
 41 46  1  0
 45 46  1  0
M  END
