x0734-x1336
     RDKit          3D

 25 26  0  0  0  0  0  0  0  0999 V2000
    6.0380   -5.2060   29.1910 C   0  0  0  0  0  0  0  0  0  0  0  0
    8.8270   -1.0220   25.1350 O   0  0  0  0  0  0  0  0  0  0  0  0
    6.1090   -1.0320   25.7040 N   0  0  0  0  0  0  0  0  0  0  0  0
    5.4540   -4.1250   19.7290 O   0  0  0  0  0  0  0  0  0  0  0  0
   10.1610   -3.7640   24.9200 C   0  0  0  0  0  0  0  0  0  0  0  0
    6.4850   -3.4840   19.9530 C   0  0  0  0  0  0  0  0  0  0  0  0
    7.4170   -3.0710   18.8260 C   0  0  0  0  0  0  0  0  0  0  0  0
    7.5850   -1.7440   25.2400 S   0  0  2  0  0  0  0  0  0  0  0  0
    7.0560   -4.8670   28.1500 C   0  0  0  0  0  0  0  0  0  0  0  0
    6.8850   -3.6310   27.2980 C   0  0  0  0  0  0  0  0  0  0  0  0
    7.8820   -3.2180   26.2050 C   0  0  0  0  0  0  0  0  0  0  0  0
    9.1300   -4.1070   25.9700 C   0  0  0  0  0  0  0  0  0  0  0  0
    9.2680   -5.3470   26.8520 C   0  0  0  0  0  0  0  0  0  0  0  0
    8.2520   -5.7480   27.9410 C   0  0  0  0  0  0  0  0  0  0  0  0
    6.8650   -3.1470   21.2280 N   0  0  0  0  0  0  0  0  0  0  0  0
    7.0050   -4.1570   22.2720 C   0  0  0  0  0  0  0  0  0  0  0  0
    6.6260   -3.5890   23.4610 C   0  0  0  0  0  0  0  0  0  0  0  0
    7.2760   -2.2830   23.6560 N   0  0  0  0  0  0  0  0  0  0  0  0
    8.3320   -2.0720   22.6770 C   0  0  0  0  0  0  0  0  0  0  0  0
    7.7680   -2.0050   21.4080 C   0  0  0  0  0  0  0  0  0  0  0  0
    4.9400   -5.2610   26.4180 N   0  0  0  0  0  0  0  0  0  0  0  0
    4.4440   -5.8690   25.4520 O   0  0  0  0  0  0  0  0  0  0  0  0
    4.4390   -3.9540   26.7510 O   0  0  0  0  0  0  0  0  0  0  0  0
    5.1610   -1.8310   26.4460 C   0  0  0  0  0  0  0  0  0  0  0  0
    4.9540   -3.0410   25.7890 C   0  0  0  0  0  0  0  0  0  0  0  0
  4  6  2  0
  6  7  1  0
  2  8  2  0
  3  8  2  0
  1  9  1  0
  9 10  2  0
  8 11  1  1
 10 11  1  0
  5 12  1  0
 11 12  2  0
 12 13  1  0
  9 14  1  0
 13 14  2  0
  6 15  1  0
 15 16  1  0
 16 17  1  0
  8 18  1  0
 17 18  1  0
 18 19  1  0
 15 20  1  0
 19 20  1  0
 21 22  2  0
 21 23  1  0
  3 24  1  0
 23 25  1  0
 24 25  1  0
M  CHG  1  21   1
M  END
