x0734-x0978-x3113
     RDKit          3D

 55 59  0  0  0  0  0  0  0  0999 V2000
    7.3410   -1.3980   22.3310 N   0  0  0  0  0  0  0  0  0  0  0  0
    8.3820    1.5100   23.2440 N   0  0  0  0  0  0  0  0  0  0  0  0
    8.7590    1.4100   21.0620 O   0  0  0  0  0  0  0  0  0  0  0  0
   11.8260    4.1390   23.4090 O   0  0  0  0  0  0  0  0  0  0  0  0
    7.0010   -0.0930   21.8390 C   0  0  1  0  0  0  0  0  0  0  0  0
    8.1010    0.9630   22.0180 C   0  0  0  0  0  0  0  0  0  0  0  0
    9.3640    2.4760   23.3800 C   0  0  0  0  0  0  0  0  0  0  0  0
   10.7830    1.9860   23.4770 C   0  0  0  0  0  0  0  0  0  0  0  0
   11.8370    2.9980   22.9710 C   0  0  0  0  0  0  0  0  0  0  0  0
   12.8150    4.7630   22.9960 C   0  0  0  0  0  0  0  0  0  0  0  0
   12.5980   -1.9990   24.3240 C   0  0  0  0  0  0  0  0  0  0  0  0
   13.5220   -2.2050   23.1320 C   0  0  0  0  0  0  0  0  0  0  0  0
   12.9210   -2.9960   25.1940 C   0  0  0  0  0  0  0  0  0  0  0  0
   12.8570   -0.6540   24.9630 C   0  0  0  0  0  0  0  0  0  0  0  0
    2.1630   -6.5920   22.5710 N   0  0  0  0  0  0  0  0  0  0  0  0
    2.1210   -8.2130   24.6660 C   0  0  0  0  0  0  0  0  0  0  0  0
    4.3890   -7.8940   24.2230 O   0  0  0  0  0  0  0  0  0  0  0  0
    3.2060   -7.3340   24.5260 C   0  0  1  0  0  0  0  0  0  0  0  0
    4.6910   -5.3530   22.0650 N   0  0  0  0  0  0  0  0  0  0  0  0
    0.1230   -7.2190   21.7080 O   0  0  0  0  0  0  0  0  0  0  0  0
    2.9250   -6.2090   23.7310 C   0  0  1  0  0  0  0  0  0  0  0  0
    4.7590   -4.6970   24.2780 N   0  0  0  0  0  0  0  0  0  0  0  0
    0.7810   -6.4940   22.4490 C   0  0  0  0  0  0  0  0  0  0  0  0
    0.1200   -5.5190   23.1920 C   0  0  0  0  0  0  0  0  0  0  0  0
    4.1520   -5.4140   23.3290 C   0  0  0  0  0  0  0  0  0  0  0  0
    5.2970   -4.6550   26.4160 N   0  0  0  0  0  0  0  0  0  0  0  0
    4.6050   -5.6470   26.1480 O   0  0  0  0  0  0  0  0  0  0  0  0
    4.8690   -3.6270   26.9600 O   0  0  0  0  0  0  0  0  0  0  0  0
    5.0110   -4.2100   19.5940 O   0  0  0  0  0  0  0  0  0  0  0  0
    6.0320   -3.6540   19.9190 C   0  0  0  0  0  0  0  0  0  0  0  0
    7.0720   -3.1070   18.9060 C   0  0  0  0  0  0  0  0  0  0  0  0
    6.4530    0.0570   18.0120 N   0  0  0  0  0  0  0  0  0  0  0  0
    5.3230    0.7830   17.9860 C   0  0  0  0  0  0  0  0  0  0  0  0
    4.6790    1.2360   19.1300 C   0  0  0  0  0  0  0  0  0  0  0  0
    5.2310    0.9320   20.3760 C   0  0  0  0  0  0  0  0  0  0  0  0
    6.4240    0.1760   20.4350 C   0  0  0  0  0  0  0  0  0  0  0  0
    6.9850   -0.2370   19.2210 C   0  0  0  0  0  0  0  0  0  0  0  0
    9.7400   -1.4410   22.0210 C   0  0  0  0  0  0  0  0  0  0  0  0
   11.0040   -1.6020   22.5100 C   0  0  0  0  0  0  0  0  0  0  0  0
   11.1830   -1.8690   23.8600 C   0  0  0  0  0  0  0  0  0  0  0  0
   10.1120   -1.9770   24.7150 C   0  0  0  0  0  0  0  0  0  0  0  0
    8.8340   -1.8110   24.2220 C   0  0  0  0  0  0  0  0  0  0  0  0
    8.6470   -1.5420   22.8690 C   0  0  0  0  0  0  0  0  0  0  0  0
    6.7300   -4.8360   26.3330 C   0  0  0  0  0  0  0  0  0  0  0  0
    7.5280   -4.4300   25.2410 C   0  0  0  0  0  0  0  0  0  0  0  0
    8.9120   -4.6540   25.2750 C   0  0  0  0  0  0  0  0  0  0  0  0
    9.5110   -5.2740   26.3780 C   0  0  0  0  0  0  0  0  0  0  0  0
    8.8000   -5.7090   27.5090 C   0  0  0  0  0  0  0  0  0  0  0  0
    7.2820   -5.4570   27.4530 C   0  0  0  0  0  0  0  0  0  0  0  0
    6.2640   -3.5200   21.2540 N   0  0  0  0  0  0  0  0  0  0  0  0
    5.9660   -4.6650   22.1430 C   0  0  1  0  0  0  0  0  0  0  0  0
    5.8170   -4.0240   23.5110 C   0  0  2  0  0  0  0  0  0  0  0  0
    7.1370   -3.7860   24.0510 N   0  0  0  0  0  0  0  0  0  0  0  0
    8.0430   -3.7000   22.8820 C   0  0  0  0  0  0  0  0  0  0  0  0
    7.4370   -2.7580   21.7410 C   0  0  2  0  0  0  0  0  0  0  0  0
  1  5  1  0
  2  6  1  0
  3  6  2  0
  5  6  1  6
  2  7  1  0
  7  8  1  0
  4  9  1  0
  8  9  1  0
  4 10  1  0
 11 12  1  0
 11 13  1  0
 11 14  1  0
 18 16  1  6
 17 18  1  0
 21 15  1  6
 18 21  1  0
 15 23  1  0
 20 23  2  0
 23 24  1  0
 19 25  1  0
 21 25  1  0
 22 25  2  0
 26 27  2  0
 26 28  1  0
 29 30  2  0
 30 31  1  0
 32 33  2  0
 33 34  1  0
 34 35  2  0
  5 36  1  0
 35 36  1  0
 32 37  1  0
 36 37  2  0
 38 39  2  0
 11 40  1  0
 39 40  1  0
 40 41  2  0
 41 42  1  0
  1 43  1  0
 38 43  1  0
 42 43  2  0
 26 44  1  0
 44 45  2  0
 45 46  1  0
 46 47  2  0
 47 48  1  0
 44 49  1  0
 48 49  2  0
 30 50  1  0
 51 19  1  6
 50 51  1  0
 52 22  1  1
 51 52  1  0
 45 53  1  0
 52 53  1  0
 53 54  1  0
 55  1  1  1
 50 55  1  0
 54 55  1  0
M  CHG  2  26   1  28  -1
M  END
