x0736-x0771
     RDKit          3D

 32 35  0  0  0  0  0  0  0  0999 V2000
    0.6640   -1.3400   26.1930 C   0  0  0  0  0  0  0  0  0  0  0  0
    4.3790   -7.0840   25.6470 O   0  0  0  0  0  0  0  0  0  0  0  0
    6.0850   -5.4300   26.8470 O   0  0  0  0  0  0  0  0  0  0  0  0
    5.6230   -4.5550   19.9410 O   0  0  0  0  0  0  0  0  0  0  0  0
    2.0440   -6.1750   24.9440 C   0  0  0  0  0  0  0  0  0  0  0  0
    6.6560   -4.3290   20.6030 C   0  0  0  0  0  0  0  0  0  0  0  0
    7.7980   -3.4870   20.0370 C   0  0  0  0  0  0  0  0  0  0  0  0
    4.9830   -5.7740   25.7420 S   0  0  0  0  0  0  0  0  0  0  0  0
    5.9460   -1.9930   24.7250 O   0  0  0  0  0  0  0  0  0  0  0  0
    7.1530   -2.1690   24.5800 C   0  0  0  0  0  0  0  0  0  0  0  0
    1.7030   -2.4090   26.0720 C   0  0  0  0  0  0  0  0  0  0  0  0
    1.3750   -3.8220   25.5460 C   0  0  0  0  0  0  0  0  0  0  0  0
    2.3890   -4.7870   25.4630 C   0  0  0  0  0  0  0  0  0  0  0  0
    3.6940   -4.5440   25.8330 C   0  0  0  0  0  0  0  0  0  0  0  0
    4.0120   -3.2760   26.3020 C   0  0  0  0  0  0  0  0  0  0  0  0
    3.1480   -2.1980   26.4520 C   0  0  0  0  0  0  0  0  0  0  0  0
    6.7860   -4.8210   21.9240 N   0  0  0  0  0  0  0  0  0  0  0  0
    6.2720   -6.1850   22.1780 C   0  0  0  0  0  0  0  0  0  0  0  0
    5.2270   -6.2130   23.1130 C   0  0  0  0  0  0  0  0  0  0  0  0
    5.7200   -5.4740   24.2750 N   0  0  0  0  0  0  0  0  0  0  0  0
    5.7150   -4.1840   24.0190 C   0  0  0  0  0  0  0  0  0  0  0  0
    6.5600   -3.8680   22.9620 C   0  0  1  0  0  0  0  0  0  0  0  0
    6.5610   -1.9590   21.2890 N   0  0  0  0  0  0  0  0  0  0  0  0
    7.7800   -1.3630   21.8620 C   0  0  0  0  0  0  0  0  0  0  0  0
    8.6100   -2.3970   22.6610 C   0  0  0  0  0  0  0  0  0  0  0  0
    7.7050   -3.1200   23.5860 N   0  0  0  0  0  0  0  0  0  0  0  0
    5.8070   -2.6910   22.2230 C   0  0  0  0  0  0  0  0  0  0  0  0
    8.4580   -0.0940   25.1570 O   0  0  0  0  0  0  0  0  0  0  0  0
    7.9710   -1.3440   25.4700 C   0  0  0  0  0  0  0  0  0  0  0  0
    8.3800   -1.6970   26.8510 C   0  0  0  0  0  0  0  0  0  0  0  0
    9.1470   -0.5520   27.3390 C   0  0  0  0  0  0  0  0  0  0  0  0
    9.1310    0.3280   26.2770 C   0  0  0  0  0  0  0  0  0  0  0  0
  4  6  2  0
  6  7  1  0
  2  8  2  0
  3  8  2  0
  9 10  2  0
  1 11  1  0
 11 12  2  0
  5 13  1  0
 12 13  1  0
  8 14  1  0
 13 14  2  0
 14 15  1  0
 11 16  1  0
 15 16  2  0
  6 17  1  0
 17 18  1  0
 18 19  1  0
  8 20  1  0
 19 20  1  0
 20 21  1  0
 22 17  1  0
 22 21  1  1
 23 24  1  0
 24 25  1  0
 10 26  1  0
 22 26  1  0
 25 26  1  0
 22 27  1  0
 23 27  1  0
 10 29  1  0
 28 29  1  0
 29 30  2  0
 30 31  1  0
 28 32  1  0
 31 32  2  0
M  END
