x0734-x0978
     RDKit          3D

 29 31  0  0  0  0  0  0  0  0999 V2000
    1.9260   -5.8050   23.0360 N   0  0  0  0  0  0  0  0  0  0  0  0
    1.8260   -8.4470   24.5210 C   0  0  0  0  0  0  0  0  0  0  0  0
    4.1220   -7.9220   24.7470 O   0  0  0  0  0  0  0  0  0  0  0  0
    3.0200   -7.4650   24.4500 C   0  0  1  0  0  0  0  0  0  0  0  0
    4.9620   -5.6840   21.8650 N   0  0  0  0  0  0  0  0  0  0  0  0
    0.5030   -7.4090   21.7290 O   0  0  0  0  0  0  0  0  0  0  0  0
    2.9720   -6.7120   23.1160 C   0  0  2  0  0  0  0  0  0  0  0  0
    5.0940   -5.4780   24.1340 N   0  0  0  0  0  0  0  0  0  0  0  0
    0.6270   -6.2060   22.4900 C   0  0  0  0  0  0  0  0  0  0  0  0
   -0.5320   -5.2410   22.8080 C   0  0  0  0  0  0  0  0  0  0  0  0
    4.3100   -5.9680   23.0350 C   0  0  0  0  0  0  0  0  0  0  0  0
    5.2320   -4.5910   26.6370 N   0  0  0  0  0  0  0  0  0  0  0  0
    4.4360   -5.4070   26.1430 O   0  0  0  0  0  0  0  0  0  0  0  0
    4.8040   -3.2500   26.9130 O   0  0  0  0  0  0  0  0  0  0  0  0
    5.1610   -4.0700   19.6250 O   0  0  0  0  0  0  0  0  0  0  0  0
    6.2890   -3.7550   19.9730 C   0  0  0  0  0  0  0  0  0  0  0  0
    7.2650   -3.1360   18.9940 C   0  0  0  0  0  0  0  0  0  0  0  0
    6.6550   -4.8650   26.5230 C   0  0  0  0  0  0  0  0  0  0  0  0
    7.4790   -4.5720   25.2500 C   0  0  0  0  0  0  0  0  0  0  0  0
    8.8060   -4.9300   25.3680 C   0  0  0  0  0  0  0  0  0  0  0  0
    9.3940   -5.4910   26.4670 C   0  0  0  0  0  0  0  0  0  0  0  0
    8.6920   -5.7600   27.6380 C   0  0  0  0  0  0  0  0  0  0  0  0
    7.3310   -5.4730   27.7280 C   0  0  0  0  0  0  0  0  0  0  0  0
    6.7380   -3.9940   21.2530 N   0  0  0  0  0  0  0  0  0  0  0  0
    5.7510   -4.4750   22.2040 C   0  0  2  0  0  0  0  0  0  0  0  0
    6.2130   -4.9820   23.3820 C   0  0  1  0  0  0  0  0  0  0  0  0
    7.0460   -4.0400   24.0680 N   0  0  0  0  0  0  0  0  0  0  0  0
    7.8820   -3.2640   23.3340 C   0  0  0  0  0  0  0  0  0  0  0  0
    7.6180   -3.1290   21.8310 C   0  0  0  0  0  0  0  0  0  0  0  0
  4  2  1  6
  3  4  1  0
  7  1  1  1
  4  7  1  0
  1  9  1  0
  6  9  2  0
  9 10  1  0
  5 11  1  0
  7 11  1  0
  8 11  2  0
 12 13  2  0
 12 14  1  0
 15 16  2  0
 16 17  1  0
 12 18  1  0
 18 19  2  0
 19 20  1  0
 20 21  2  0
 21 22  1  0
 18 23  1  0
 22 23  2  0
 16 24  1  0
 25  5  1  6
 24 25  1  0
 26  8  1  1
 25 26  1  0
 19 27  1  0
 26 27  1  0
 27 28  1  0
 24 29  1  0
 28 29  1  0
M  CHG  2  12   1  14  -1
M  END
