x0736-x0991
     RDKit          3D

 21 23  0  0  0  0  0  0  0  0999 V2000
    7.4170   -3.0850   18.9440 C   0  0  0  0  0  0  0  0  0  0  0  0
    5.4830   -4.2120   19.8030 O   0  0  0  0  0  0  0  0  0  0  0  0
    6.4990   -3.5550   20.0670 C   0  0  0  0  0  0  0  0  0  0  0  0
    5.6820   -2.2140   25.4730 O   0  0  0  0  0  0  0  0  0  0  0  0
    6.7910   -2.0240   25.0170 C   0  0  0  0  0  0  0  0  0  0  0  0
    9.7230   -6.0620   24.3640 N   0  0  0  0  0  0  0  0  0  0  0  0
    9.1770   -3.2990   23.0450 C   0  0  0  0  0  0  0  0  0  0  0  0
    8.5070   -3.9830   24.1750 C   0  0  2  0  0  0  0  0  0  0  0  0
    8.2800   -5.2390   26.2640 N   0  0  0  0  0  0  0  0  0  0  0  0
    8.8410   -5.1140   24.9080 C   0  0  0  0  0  0  0  0  0  0  0  0
    6.8800   -3.2760   21.3800 N   0  0  0  0  0  0  0  0  0  0  0  0
    7.6980   -2.0710   21.5670 C   0  0  0  0  0  0  0  0  0  0  0  0
    8.2150   -2.1600   22.8390 C   0  0  1  0  0  0  0  0  0  0  0  0
    7.1220   -2.5970   23.7340 N   0  0  0  0  0  0  0  0  0  0  0  0
    7.0480   -4.0170   23.7060 C   0  0  1  0  0  0  0  0  0  0  0  0
    7.0690   -4.3160   22.3240 C   0  0  0  0  0  0  0  0  0  0  0  0
    8.2730   -0.0570   25.2090 O   0  0  0  0  0  0  0  0  0  0  0  0
    7.7860   -1.2340   25.7370 C   0  0  0  0  0  0  0  0  0  0  0  0
    8.4080   -1.4410   26.9780 C   0  0  0  0  0  0  0  0  0  0  0  0
    9.2690   -0.3990   27.2240 C   0  0  0  0  0  0  0  0  0  0  0  0
    9.1500    0.3940   26.1420 C   0  0  0  0  0  0  0  0  0  0  0  0
  1  3  1  0
  2  3  2  0
  4  5  2  0
  7  8  1  0
  6 10  2  3
  8 10  1  6
  9 10  1  0
  3 11  1  0
 11 12  1  0
 13  7  1  6
 12 13  1  0
  5 14  1  0
 13 14  1  0
  8 15  1  0
 14 15  1  0
 11 16  1  0
 15 16  1  6
  5 18  1  0
 17 18  1  0
 18 19  2  0
 19 20  1  0
 17 21  1  0
 20 21  2  0
M  END
