x0731-x2776-x3117
     RDKit          3D

 52 56  0  0  0  0  0  0  0  0999 V2000
    7.1690   -1.1460   21.9040 N   0  0  0  0  0  0  0  0  0  0  0  0
    7.9100    1.9710   22.9970 N   0  0  0  0  0  0  0  0  0  0  0  0
    8.8600    1.4340   21.0070 O   0  0  0  0  0  0  0  0  0  0  0  0
   10.9570    6.7580   23.8220 O   0  0  0  0  0  0  0  0  0  0  0  0
    6.8960    0.2110   21.6290 C   0  0  1  0  0  0  0  0  0  0  0  0
   12.4350   -2.7990   24.7770 O   0  0  0  0  0  0  0  0  0  0  0  0
    7.9870    1.2450   21.8370 C   0  0  0  0  0  0  0  0  0  0  0  0
   10.6020    1.7690   23.8490 C   0  0  0  0  0  0  0  0  0  0  0  0
   11.8370    6.6230   24.6820 C   0  0  0  0  0  0  0  0  0  0  0  0
   12.3730   -1.7140   24.2100 C   0  0  0  0  0  0  0  0  0  0  0  0
   13.2910   -1.4050   23.1400 C   0  0  0  0  0  0  0  0  0  0  0  0
   13.5870   -3.0530   25.4370 C   0  0  0  0  0  0  0  0  0  0  0  0
   12.5310   -0.5640   25.2190 C   0  0  0  0  0  0  0  0  0  0  0  0
    1.0520   -0.9790   26.0990 C   0  0  0  0  0  0  0  0  0  0  0  0
    6.4730   -4.7880   26.8850 O   0  0  0  0  0  0  0  0  0  0  0  0
    4.8220   -6.5490   26.1800 O   0  0  0  0  0  0  0  0  0  0  0  0
    5.6250   -5.4660   19.9630 O   0  0  0  0  0  0  0  0  0  0  0  0
    6.2030   -4.4940   20.3950 C   0  0  0  0  0  0  0  0  0  0  0  0
    6.9850   -3.4700   19.5620 C   0  0  0  0  0  0  0  0  0  0  0  0
    5.4430   -5.2600   25.9910 S   0  0  0  0  0  0  0  0  0  0  0  0
    6.2670   -1.8420   22.6850 C   0  0  0  0  0  0  0  0  0  0  0  0
    5.5740   -2.8110   21.9620 C   0  0  0  0  0  0  0  0  0  0  0  0
    6.2740    0.3020   17.7980 N   0  0  0  0  0  0  0  0  0  0  0  0
    5.1880    1.0740   17.8580 C   0  0  0  0  0  0  0  0  0  0  0  0
    4.6130    1.5630   19.0110 C   0  0  0  0  0  0  0  0  0  0  0  0
    5.1650    1.2690   20.2070 C   0  0  0  0  0  0  0  0  0  0  0  0
    6.2770    0.4930   20.2000 C   0  0  0  0  0  0  0  0  0  0  0  0
    6.8980   -0.0400   19.0870 C   0  0  0  0  0  0  0  0  0  0  0  0
    9.9650    3.1170   23.6010 C   0  0  0  0  0  0  0  0  0  0  0  0
   10.7570    4.2520   23.8120 C   0  0  0  0  0  0  0  0  0  0  0  0
   10.1350    5.6160   23.5780 C   0  0  0  0  0  0  0  0  0  0  0  0
    8.6920    5.7690   23.1080 C   0  0  0  0  0  0  0  0  0  0  0  0
    7.8580    4.4930   22.8800 C   0  0  0  0  0  0  0  0  0  0  0  0
    8.6240    3.1960   23.1740 C   0  0  0  0  0  0  0  0  0  0  0  0
    9.4450   -1.8680   21.7680 C   0  0  0  0  0  0  0  0  0  0  0  0
   10.7190   -2.0150   22.3160 C   0  0  0  0  0  0  0  0  0  0  0  0
   10.9760   -1.5880   23.6090 C   0  0  0  0  0  0  0  0  0  0  0  0
    9.9390   -1.0380   24.3200 C   0  0  0  0  0  0  0  0  0  0  0  0
    8.7000   -0.8980   23.7790 C   0  0  0  0  0  0  0  0  0  0  0  0
    8.4100   -1.2940   22.4950 C   0  0  0  0  0  0  0  0  0  0  0  0
    2.1690   -2.1130   26.0260 C   0  0  0  0  0  0  0  0  0  0  0  0
    1.8990   -3.3250   25.4110 C   0  0  0  0  0  0  0  0  0  0  0  0
    2.8790   -4.3020   25.3750 C   0  0  0  0  0  0  0  0  0  0  0  0
    4.1260   -4.0630   25.9560 C   0  0  0  0  0  0  0  0  0  0  0  0
    4.3980   -2.8430   26.5620 C   0  0  0  0  0  0  0  0  0  0  0  0
    3.4110   -1.8650   26.5940 C   0  0  0  0  0  0  0  0  0  0  0  0
    6.1150   -4.2530   21.9030 C   0  0  0  0  0  0  0  0  0  0  0  0
    7.4620   -4.3810   22.6400 C   0  0  0  0  0  0  0  0  0  0  0  0
    7.3700   -4.4550   24.1750 C   0  0  0  0  0  0  0  0  0  0  0  0
    6.1060   -5.1870   24.4320 N   0  0  0  0  0  0  0  0  0  0  0  0
    5.7540   -6.2180   23.4580 C   0  0  0  0  0  0  0  0  0  0  0  0
    5.1470   -5.3300   22.4210 C   0  0  0  0  0  0  0  0  0  0  0  0
  1  5  1  0
  2  7  1  0
  3  7  2  0
  5  7  1  6
  4  9  1  0
 10  6  1  0
 10 11  1  0
  6 12  1  0
 10 13  1  0
 17 18  2  0
 18 19  1  0
 15 20  2  0
 16 20  2  0
  1 21  1  0
 21 22  1  0
 23 24  2  0
 24 25  1  0
 25 26  2  0
  5 27  1  0
 26 27  1  0
 23 28  1  0
 27 28  2  0
  8 29  1  0
 29 30  2  0
  4 31  1  0
 30 31  1  0
 31 32  2  0
 32 33  1  0
  2 34  1  0
 29 34  1  0
 33 34  2  0
 35 36  2  0
 10 37  1  0
 36 37  1  0
 37 38  2  0
 38 39  1  0
  1 40  1  0
 35 40  1  0
 39 40  2  0
 14 41  1  0
 41 42  2  0
 42 43  1  0
 20 44  1  0
 43 44  2  0
 44 45  1  0
 41 46  1  0
 45 46  2  0
 47 18  1  0
 22 47  1  0
 47 48  1  0
 48 49  1  0
 20 50  1  0
 49 50  1  0
 50 51  1  0
 47 52  1  0
 51 52  1  0
M  END
