x0734-x0831
     RDKit          3D

 27 29  0  0  0  0  0  0  0  0999 V2000
    5.2760   -4.8720   26.2270 N   0  0  0  0  0  0  0  0  0  0  0  0
    4.6610   -5.7050   25.5470 O   0  0  0  0  0  0  0  0  0  0  0  0
    4.7660   -3.8660   26.7450 O   0  0  0  0  0  0  0  0  0  0  0  0
    5.0170   -4.2170   19.6490 O   0  0  0  0  0  0  0  0  0  0  0  0
    6.0930   -3.7590   19.9490 C   0  0  0  0  0  0  0  0  0  0  0  0
    7.0610   -3.1090   18.9700 C   0  0  0  0  0  0  0  0  0  0  0  0
    6.7260   -4.9910   26.3070 C   0  0  0  0  0  0  0  0  0  0  0  0
    7.5280   -4.5960   25.2220 C   0  0  0  0  0  0  0  0  0  0  0  0
    8.9160   -4.7380   25.3760 C   0  0  0  0  0  0  0  0  0  0  0  0
    9.4650   -5.2480   26.5450 C   0  0  0  0  0  0  0  0  0  0  0  0
    8.6460   -5.6350   27.6030 C   0  0  0  0  0  0  0  0  0  0  0  0
    7.2650   -5.5070   27.4910 C   0  0  0  0  0  0  0  0  0  0  0  0
    6.5200   -3.8420   21.2420 N   0  0  0  0  0  0  0  0  0  0  0  0
    6.5050   -5.1600   21.8640 C   0  0  0  0  0  0  0  0  0  0  0  0
    6.0900   -5.0360   23.3100 C   0  0  0  0  0  0  0  0  0  0  0  0
    6.9570   -4.0920   24.0550 N   0  0  0  0  0  0  0  0  0  0  0  0
    7.6610   -2.9570   23.3630 C   0  0  2  0  0  0  0  0  0  0  0  0
    7.0820   -2.6950   21.9670 C   0  0  0  0  0  0  0  0  0  0  0  0
   12.6280   -2.2490   22.7570 C   0  0  0  0  0  0  0  0  0  0  0  0
   10.0120   -2.2580   24.3650 C   0  0  0  0  0  0  0  0  0  0  0  0
   12.0110   -0.9920   23.2500 C   0  0  0  0  0  0  0  0  0  0  0  0
   10.8030   -1.0080   23.9850 C   0  0  0  0  0  0  0  0  0  0  0  0
   10.2720    0.2050   24.4130 C   0  0  0  0  0  0  0  0  0  0  0  0
   10.9050    1.4160   24.1370 C   0  0  0  0  0  0  0  0  0  0  0  0
   12.0890    1.4250   23.4280 C   0  0  0  0  0  0  0  0  0  0  0  0
   12.6440    0.2290   22.9850 C   0  0  0  0  0  0  0  0  0  0  0  0
    9.2040   -2.9700   23.3040 C   0  0  0  0  0  0  0  0  0  0  0  0
  1  2  2  0
  1  3  1  0
  4  5  2  0
  5  6  1  0
  1  7  1  0
  7  8  2  0
  8  9  1  0
  9 10  2  0
 10 11  1  0
  7 12  1  0
 11 12  2  0
  5 13  1  0
 13 14  1  0
 14 15  1  0
  8 16  1  0
 15 16  1  0
 16 17  1  0
 13 18  1  0
 17 18  1  0
 19 21  1  0
 20 22  1  0
 21 22  2  0
 22 23  1  0
 23 24  2  0
 24 25  1  0
 21 26  1  0
 25 26  2  0
 17 27  1  6
 20 27  1  0
M  CHG  2   1   1   3  -1
M  END
