x0734-x3115-x3113
     RDKit          3D

 47 50  0  0  0  0  0  0  0  0999 V2000
    7.4340   -1.3400   22.8800 N   0  0  0  0  0  0  0  0  0  0  0  0
    8.1440    1.4010   23.1920 N   0  0  0  0  0  0  0  0  0  0  0  0
    8.8370    1.3670   20.9770 O   0  0  0  0  0  0  0  0  0  0  0  0
   11.6060    3.8080   22.4530 O   0  0  0  0  0  0  0  0  0  0  0  0
    7.1090   -0.1550   22.0680 C   0  0  1  0  0  0  0  0  0  0  0  0
    8.1680    0.9440   21.9070 C   0  0  0  0  0  0  0  0  0  0  0  0
    9.0600    2.4410   23.4380 C   0  0  1  0  0  0  0  0  0  0  0  0
   10.4260    2.0390   23.4390 C   0  0  0  0  0  0  0  0  0  0  0  0
   11.3910    3.0720   23.4060 C   0  0  0  0  0  0  0  0  0  0  0  0
   12.8200    4.4620   22.5500 C   0  0  0  0  0  0  0  0  0  0  0  0
   12.7950   -2.0010   24.2190 C   0  0  0  0  0  0  0  0  0  0  0  0
   13.5520   -2.2650   23.1190 C   0  0  0  0  0  0  0  0  0  0  0  0
   12.9150   -2.9400   25.2450 C   0  0  0  0  0  0  0  0  0  0  0  0
   12.8870   -0.7350   24.9730 C   0  0  0  0  0  0  0  0  0  0  0  0
    8.7560    4.8120   23.2870 O   0  0  0  0  0  0  0  0  0  0  0  0
    8.6820    3.6270   22.6120 C   0  0  0  0  0  0  0  0  0  0  0  0
    8.3830    5.9390   22.4640 C   0  0  0  0  0  0  0  0  0  0  0  0
    5.0490   -4.6410   26.1150 N   0  0  0  0  0  0  0  0  0  0  0  0
    4.2170   -5.6700   25.4820 O   0  0  0  0  0  0  0  0  0  0  0  0
    4.6350   -3.7470   26.8630 O   0  0  0  0  0  0  0  0  0  0  0  0
    5.0160   -4.0700   19.5380 O   0  0  0  0  0  0  0  0  0  0  0  0
    6.1710   -3.7820   19.7770 C   0  0  0  0  0  0  0  0  0  0  0  0
    7.1540   -3.1140   18.8030 C   0  0  0  0  0  0  0  0  0  0  0  0
    6.4970   -0.2160   18.2380 N   0  0  0  0  0  0  0  0  0  0  0  0
    5.3110    0.4140   18.2010 C   0  0  0  0  0  0  0  0  0  0  0  0
    4.6270    0.8610   19.3090 C   0  0  0  0  0  0  0  0  0  0  0  0
    5.2390    0.6350   20.5410 C   0  0  0  0  0  0  0  0  0  0  0  0
    6.4850   -0.0150   20.6380 C   0  0  0  0  0  0  0  0  0  0  0  0
    7.1000   -0.4430   19.4470 C   0  0  0  0  0  0  0  0  0  0  0  0
    9.7190   -1.5400   22.1210 C   0  0  0  0  0  0  0  0  0  0  0  0
   11.0810   -1.7210   22.3960 C   0  0  0  0  0  0  0  0  0  0  0  0
   11.3950   -1.8370   23.7660 C   0  0  0  0  0  0  0  0  0  0  0  0
   10.4500   -1.7810   24.7670 C   0  0  0  0  0  0  0  0  0  0  0  0
    9.1490   -1.6030   24.4410 C   0  0  0  0  0  0  0  0  0  0  0  0
    8.7710   -1.4820   23.1450 C   0  0  0  0  0  0  0  0  0  0  0  0
    6.4760   -4.8380   26.0480 C   0  0  0  0  0  0  0  0  0  0  0  0
    7.3260   -4.3290   24.8590 C   0  0  0  0  0  0  0  0  0  0  0  0
    8.7160   -4.5460   24.8180 C   0  0  0  0  0  0  0  0  0  0  0  0
    9.4480   -5.3020   25.9620 C   0  0  0  0  0  0  0  0  0  0  0  0
    8.6120   -5.7990   27.1440 C   0  0  0  0  0  0  0  0  0  0  0  0
    7.1010   -5.5380   27.1390 C   0  0  0  0  0  0  0  0  0  0  0  0
    6.7180   -4.0760   20.9860 N   0  0  0  0  0  0  0  0  0  0  0  0
    6.1180   -4.5600   21.7870 C   0  0  0  0  0  0  0  0  0  0  0  0
    5.6460   -4.6440   23.1820 C   0  0  0  0  0  0  0  0  0  0  0  0
    6.5170   -3.6080   23.7940 N   0  0  0  0  0  0  0  0  0  0  0  0
    7.3020   -2.7840   22.7680 C   0  0  1  0  0  0  0  0  0  0  0  0
    7.5730   -3.2430   21.5050 C   0  0  0  0  0  0  0  0  0  0  0  0
  1  5  1  0
  2  6  1  0
  3  6  2  0
  5  6  1  6
  2  7  1  0
  7  8  1  6
  4  9  1  0
  8  9  1  0
  4 10  1  0
 11 12  1  0
 11 13  1  0
 11 14  1  0
  7 16  1  0
 15 16  1  0
 15 17  1  0
 18 19  2  0
 18 20  1  0
 21 22  2  0
 22 23  1  0
 24 25  2  0
 25 26  1  0
 26 27  2  0
  5 28  1  0
 27 28  1  0
 24 29  1  0
 28 29  2  0
 30 31  2  0
 11 32  1  0
 31 32  1  0
 32 33  2  0
 33 34  1  0
  1 35  1  0
 30 35  1  0
 34 35  2  0
 18 36  1  0
 36 37  2  0
 37 38  1  0
 38 39  2  0
 39 40  1  0
 36 41  1  0
 40 41  2  0
 22 42  1  0
 42 43  1  0
 43 44  1  0
 37 45  1  0
 44 45  1  0
 46  1  1  6
 45 46  1  0
 42 47  1  0
 46 47  1  0
M  CHG  2  18   1  20  -1
M  END
