x0731-x2540-x3115
     RDKit          3D

 48 52  0  0  0  0  0  0  0  0999 V2000
    7.4160   -0.8120   21.9860 N   0  0  0  0  0  0  0  0  0  0  0  0
    8.3880    1.7100   23.3590 N   0  0  0  0  0  0  0  0  0  0  0  0
    8.8550    1.8410   20.9650 O   0  0  0  0  0  0  0  0  0  0  0  0
    7.2030    0.3250   21.8060 C   0  0  1  0  0  0  0  0  0  0  0  0
    8.2380    1.3720   22.0690 C   0  0  0  0  0  0  0  0  0  0  0  0
    9.0150    3.2210   23.6060 S   0  0  0  0  0  0  0  0  0  0  0  0
    9.3110    4.0040   25.1670 C   0  0  0  0  0  0  0  0  0  0  0  0
    8.2490    4.8420   23.2830 C   0  0  1  0  0  0  0  0  0  0  0  0
   10.5610    3.1830   22.8650 C   0  0  0  0  0  0  0  0  0  0  0  0
   12.4220   -1.2770   23.0800 C   0  0  0  0  0  0  0  0  0  0  0  0
   12.8140   -1.6710   21.6750 C   0  0  0  0  0  0  0  0  0  0  0  0
   12.8300   -0.0010   23.5170 C   0  0  0  0  0  0  0  0  0  0  0  0
   13.1890   -2.2720   23.9560 C   0  0  0  0  0  0  0  0  0  0  0  0
    9.1180    5.9550   22.7530 C   0  0  0  0  0  0  0  0  0  0  0  0
   12.3830   -2.8290   25.0950 C   0  0  0  0  0  0  0  0  0  0  0  0
    7.8690    3.8480   22.3580 C   0  0  0  0  0  0  0  0  0  0  0  0
    0.9560   -0.8530   26.0560 C   0  0  0  0  0  0  0  0  0  0  0  0
    6.2310   -4.9690   26.9870 O   0  0  0  0  0  0  0  0  0  0  0  0
    4.6820   -6.5870   26.2560 O   0  0  0  0  0  0  0  0  0  0  0  0
    5.2750   -5.1790   19.9740 O   0  0  0  0  0  0  0  0  0  0  0  0
    6.2560   -4.6410   20.4210 C   0  0  0  0  0  0  0  0  0  0  0  0
    6.9210   -3.5040   19.6750 C   0  0  0  0  0  0  0  0  0  0  0  0
    5.2900   -5.3320   25.8720 S   0  0  0  0  0  0  0  0  0  0  0  0
    6.3260   -1.3840   22.6050 C   0  0  0  0  0  0  0  0  0  0  0  0
    6.0460   -2.8520   22.3970 C   0  0  0  0  0  0  0  0  0  0  0  0
    6.3510    0.1850   17.9150 N   0  0  0  0  0  0  0  0  0  0  0  0
    5.3100    1.0570   17.8410 C   0  0  0  0  0  0  0  0  0  0  0  0
    4.7990    1.7660   19.1080 C   0  0  0  0  0  0  0  0  0  0  0  0
    5.4850    1.4750   20.4410 C   0  0  0  0  0  0  0  0  0  0  0  0
    6.5520    0.5650   20.4220 C   0  0  0  0  0  0  0  0  0  0  0  0
    6.9510   -0.0710   19.0970 C   0  0  0  0  0  0  0  0  0  0  0  0
   10.1750   -1.6170   24.2650 O   0  0  0  0  0  0  0  0  0  0  0  0
    8.8260   -1.5010   23.9720 N   0  0  0  0  0  0  0  0  0  0  0  0
    8.6400   -1.0850   22.7120 C   0  0  0  0  0  0  0  0  0  0  0  0
    9.9030   -0.9530   22.1980 C   0  0  0  0  0  0  0  0  0  0  0  0
   10.9130   -1.2970   23.2090 C   0  0  0  0  0  0  0  0  0  0  0  0
    1.9780   -1.9410   25.9830 C   0  0  0  0  0  0  0  0  0  0  0  0
    1.6400   -3.1850   25.3880 C   0  0  0  0  0  0  0  0  0  0  0  0
    2.6510   -4.3450   25.2990 C   0  0  0  0  0  0  0  0  0  0  0  0
    4.0490   -4.1270   25.8750 C   0  0  0  0  0  0  0  0  0  0  0  0
    4.3340   -2.7650   26.4860 C   0  0  0  0  0  0  0  0  0  0  0  0
    3.2400   -1.6860   26.5140 C   0  0  0  0  0  0  0  0  0  0  0  0
    6.7680   -5.0730   21.6090 N   0  0  0  0  0  0  0  0  0  0  0  0
    6.8990   -3.9940   22.5270 C   0  0  2  0  0  0  0  0  0  0  0  0
    6.9280   -4.4610   23.9720 C   0  0  0  0  0  0  0  0  0  0  0  0
    6.0080   -5.4160   24.3940 N   0  0  0  0  0  0  0  0  0  0  0  0
    5.4120   -6.1720   23.3810 C   0  0  0  0  0  0  0  0  0  0  0  0
    6.2320   -6.3790   22.1220 C   0  0  0  0  0  0  0  0  0  0  0  0
  1  4  1  0
  2  5  1  0
  3  5  2  0
  4  5  1  6
  2  6  1  0
  6  7  1  0
  6  8  1  0
  6  9  1  0
 10 11  1  0
 10 12  1  0
 10 13  1  0
  8 14  1  6
 13 15  1  0
  6 16  1  0
  8 16  1  0
 20 21  2  0
 21 22  1  0
 18 23  2  0
 19 23  2  0
  1 24  1  0
 24 25  1  0
 26 27  2  0
 27 28  1  0
 28 29  2  0
  4 30  1  0
 29 30  1  0
 26 31  1  0
 30 31  2  0
 32 33  1  0
  1 34  1  0
 33 34  2  0
 34 35  1  0
 10 36  1  0
 32 36  1  0
 35 36  2  0
 17 37  1  0
 37 38  2  0
 38 39  1  0
 23 40  1  0
 39 40  2  0
 40 41  1  0
 37 42  1  0
 41 42  2  0
 21 43  1  0
 44 25  1  1
 43 44  1  0
 44 45  1  0
 23 46  1  0
 45 46  1  0
 46 47  1  0
 43 48  1  0
 47 48  1  0
M  END
