x0734-x0759
     RDKit          3D

 27 29  0  0  0  0  0  0  0  0999 V2000
    5.1470   -4.8190   26.3410 N   0  0  0  0  0  0  0  0  0  0  0  0
    4.4530   -5.5950   25.6580 O   0  0  0  0  0  0  0  0  0  0  0  0
    4.7600   -3.7310   26.7880 O   0  0  0  0  0  0  0  0  0  0  0  0
    5.2220   -4.0600   19.6720 O   0  0  0  0  0  0  0  0  0  0  0  0
    6.3920   -3.8790   19.9990 C   0  0  0  0  0  0  0  0  0  0  0  0
    7.3570   -3.1920   19.0430 C   0  0  0  0  0  0  0  0  0  0  0  0
    6.5140   -5.0550   26.3540 C   0  0  0  0  0  0  0  0  0  0  0  0
    7.1860   -4.8280   24.9990 C   0  0  0  0  0  0  0  0  0  0  0  0
    8.7010   -5.0850   24.9480 C   0  0  0  0  0  0  0  0  0  0  0  0
    9.4280   -5.5400   26.2120 C   0  0  0  0  0  0  0  0  0  0  0  0
    8.6550   -5.7300   27.5370 C   0  0  0  0  0  0  0  0  0  0  0  0
    7.1390   -5.4600   27.5280 C   0  0  0  0  0  0  0  0  0  0  0  0
    6.8870   -4.3940   21.2010 N   0  0  0  0  0  0  0  0  0  0  0  0
    6.3230   -5.6140   21.7490 C   0  0  0  0  0  0  0  0  0  0  0  0
    5.7570   -5.3880   23.1800 C   0  0  0  0  0  0  0  0  0  0  0  0
    6.4730   -4.4170   23.8860 N   0  0  0  0  0  0  0  0  0  0  0  0
    6.8990   -3.2170   23.1900 C   0  0  0  0  0  0  0  0  0  0  0  0
    7.6450   -3.6570   22.1400 C   0  0  2  0  0  0  0  0  0  0  0  0
   13.2850    0.7650   23.1230 F   0  0  0  0  0  0  0  0  0  0  0  0
    9.9270    0.1850   24.3680 C   0  0  0  0  0  0  0  0  0  0  0  0
   11.1870    0.7330   24.1760 C   0  0  0  0  0  0  0  0  0  0  0  0
   12.0910    0.2130   23.2640 C   0  0  0  0  0  0  0  0  0  0  0  0
   11.7270   -0.8880   22.5050 C   0  0  0  0  0  0  0  0  0  0  0  0
   10.3540   -1.5260   22.6660 C   0  0  0  0  0  0  0  0  0  0  0  0
    9.4380   -0.8970   23.6900 C   0  0  0  0  0  0  0  0  0  0  0  0
    8.4300   -2.4680   21.5780 C   0  0  0  0  0  0  0  0  0  0  0  0
    9.8980   -2.6830   21.9020 C   0  0  0  0  0  0  0  0  0  0  0  0
  1  2  2  0
  1  3  1  0
  4  5  2  0
  5  6  1  0
  1  7  1  0
  7  8  2  0
  8  9  1  0
  9 10  2  0
 10 11  1  0
  7 12  1  0
 11 12  2  0
  5 13  1  0
 13 14  1  0
 14 15  1  0
  8 16  1  0
 15 16  1  0
 16 17  1  0
 13 18  1  0
 17 18  1  0
 20 21  2  0
 19 22  1  0
 21 22  1  0
 22 23  2  0
 23 24  1  0
 20 25  1  0
 24 25  2  0
 18 26  1  6
 24 27  1  0
 26 27  1  0
M  CHG  2   1   1   3  -1
M  END
