x0734-x0678-x2754
     RDKit          3D

 37 40  0  0  0  0  0  0  0  0999 V2000
    4.8400   -3.6020   25.3330 C   0  0  0  0  0  0  0  0  0  0  0  0
    3.6850   -3.2130   25.2060 O   0  0  0  0  0  0  0  0  0  0  0  0
    5.6600   -3.0200   26.2920 N   0  0  0  0  0  0  0  0  0  0  0  0
    5.2150   -4.4910   19.8670 O   0  0  0  0  0  0  0  0  0  0  0  0
    6.1990   -3.8930   20.2920 C   0  0  0  0  0  0  0  0  0  0  0  0
    7.0940   -3.1680   19.3040 C   0  0  0  0  0  0  0  0  0  0  0  0
    4.8840   -2.3110   27.3200 C   0  0  0  0  0  0  0  0  0  0  0  0
    4.6900   -4.7530   25.5970 O   0  0  0  0  0  0  0  0  0  0  0  0
    9.2000    1.2100   21.3820 O   0  0  0  0  0  0  0  0  0  0  0  0
    8.6620    0.1770   21.8340 C   0  0  0  0  0  0  0  0  0  0  0  0
    9.0500   -0.3540   23.2530 C   0  0  0  0  0  0  0  0  0  0  0  0
    7.5880   -0.6670   21.1560 N   0  0  0  0  0  0  0  0  0  0  0  0
    6.7040   -1.4240   22.1090 C   0  0  0  0  0  0  0  0  0  0  0  0
    6.5150   -3.9330   21.6480 N   0  0  0  0  0  0  0  0  0  0  0  0
    7.1760   -2.8780   22.3340 C   0  0  2  0  0  0  0  0  0  0  0  0
    6.8700   -3.0550   23.8230 C   0  0  0  0  0  0  0  0  0  0  0  0
    5.4250   -3.6250   23.9000 C   0  0  1  0  0  0  0  0  0  0  0  0
    5.3340   -4.8890   23.3890 C   0  0  0  0  0  0  0  0  0  0  0  0
    6.2790   -5.0500   22.3740 C   0  0  0  0  0  0  0  0  0  0  0  0
    7.0990   -4.6580   27.4320 C   0  0  0  0  0  0  0  0  0  0  0  0
    8.3390   -5.2270   27.7570 C   0  0  0  0  0  0  0  0  0  0  0  0
    9.5430   -4.7510   27.2740 C   0  0  0  0  0  0  0  0  0  0  0  0
    9.5070   -3.5430   26.3380 C   0  0  0  0  0  0  0  0  0  0  0  0
    8.1790   -2.9180   25.9820 C   0  0  0  0  0  0  0  0  0  0  0  0
    6.9130   -3.5410   26.5840 C   0  0  0  0  0  0  0  0  0  0  0  0
   11.1920   -1.0030   22.2250 C   0  0  0  0  0  0  0  0  0  0  0  0
   12.5040   -1.7470   22.4250 C   0  0  0  0  0  0  0  0  0  0  0  0
   13.2070   -1.0390   23.3950 C   0  0  0  0  0  0  0  0  0  0  0  0
   12.3610   -0.2920   24.4340 C   0  0  0  0  0  0  0  0  0  0  0  0
   11.0510   -0.8080   24.5590 C   0  0  0  0  0  0  0  0  0  0  0  0
   10.3840   -1.0500   23.3450 C   0  0  0  0  0  0  0  0  0  0  0  0
    5.7580    0.8500   20.5250 C   0  0  0  0  0  0  0  0  0  0  0  0
    4.9770    1.5370   19.4040 C   0  0  0  0  0  0  0  0  0  0  0  0
    5.3080    1.3320   18.0470 C   0  0  0  0  0  0  0  0  0  0  0  0
    6.4090    0.4490   17.6770 N   0  0  0  0  0  0  0  0  0  0  0  0
    7.1450   -0.2060   18.7450 C   0  0  0  0  0  0  0  0  0  0  0  0
    6.8170    0.0030   20.1940 C   0  0  0  0  0  0  0  0  0  0  0  0
  1  2  1  0
  1  3  1  0
  4  5  2  0
  5  6  1  0
  3  7  1  0
  1  8  1  0
  9 10  2  0
 10 11  1  0
 10 12  1  0
 12 13  1  0
  5 14  1  0
 15 13  1  6
 14 15  1  0
 15 16  1  0
 17  1  1  1
 16 17  1  0
 17 18  1  0
 14 19  1  0
 18 19  1  0
 20 21  2  0
 21 22  1  0
 22 23  2  0
 23 24  1  0
  3 25  1  0
 20 25  1  0
 24 25  2  0
 26 27  1  0
 27 28  1  0
 28 29  1  0
 29 30  1  0
 11 31  1  0
 26 31  1  0
 30 31  1  0
 32 33  2  0
 33 34  1  0
 34 35  2  0
 35 36  1  0
 12 37  1  0
 32 37  1  0
 36 37  2  0
M  END
