x0736-x2572
     RDKit          3D

 35 39  0  0  0  0  0  0  0  0999 V2000
    4.2750    1.0700   21.4860 C   0  0  0  0  0  0  0  0  0  0  0  0
    8.1110    1.4460   21.8620 O   0  0  0  0  0  0  0  0  0  0  0  0
    6.7720   -0.4370   21.2990 N   0  0  0  0  0  0  0  0  0  0  0  0
   13.7000   -3.3870   20.5630 N   0  0  0  0  0  0  0  0  0  0  0  0
    7.9520    0.2320   21.8250 C   0  0  0  0  0  0  0  0  0  0  0  0
    8.9770   -0.8030   22.2450 C   0  0  1  0  0  0  0  0  0  0  0  0
   13.2580   -2.2440   21.4070 C   0  0  0  0  0  0  0  0  0  0  0  0
    7.1540   -3.0610   18.9320 C   0  0  0  0  0  0  0  0  0  0  0  0
    5.2640   -4.2840   19.7610 O   0  0  0  0  0  0  0  0  0  0  0  0
    6.1280   -3.4500   20.0010 C   0  0  0  0  0  0  0  0  0  0  0  0
    6.0160   -2.6000   25.1540 O   0  0  0  0  0  0  0  0  0  0  0  0
    7.3070   -2.2230   24.6990 C   0  0  0  0  0  0  0  0  0  0  0  0
    6.4280    0.5490   17.7500 N   0  0  0  0  0  0  0  0  0  0  0  0
    6.8780   -0.0070   18.9370 C   0  0  0  0  0  0  0  0  0  0  0  0
    6.2170    0.1450   20.1520 C   0  0  0  0  0  0  0  0  0  0  0  0
    5.0290    0.8790   20.2100 C   0  0  0  0  0  0  0  0  0  0  0  0
    4.5270    1.4600   19.0530 C   0  0  0  0  0  0  0  0  0  0  0  0
    5.1910    1.3130   17.8670 C   0  0  0  0  0  0  0  0  0  0  0  0
   10.7970    0.4610   23.5480 C   0  0  0  0  0  0  0  0  0  0  0  0
   12.1570    0.5740   23.7530 C   0  0  0  0  0  0  0  0  0  0  0  0
   13.0770   -0.2510   23.1050 C   0  0  0  0  0  0  0  0  0  0  0  0
   12.6110   -1.2150   22.2400 C   0  0  0  0  0  0  0  0  0  0  0  0
   11.1670   -1.3280   22.0300 C   0  0  0  0  0  0  0  0  0  0  0  0
   10.3290   -0.5080   22.6650 C   0  0  0  0  0  0  0  0  0  0  0  0
    6.1930   -2.8900   21.2570 N   0  0  0  0  0  0  0  0  0  0  0  0
    7.1610   -1.8000   21.3740 C   0  0  2  0  0  0  0  0  0  0  0  0
    8.2280   -2.0540   22.3520 C   0  0  2  0  0  0  0  0  0  0  0  0
    7.7620   -2.7150   23.4730 N   0  0  0  0  0  0  0  0  0  0  0  0
    7.0610   -3.9480   23.2030 C   0  0  0  0  0  0  0  0  0  0  0  0
    5.9140   -3.6790   22.4460 C   0  0  0  0  0  0  0  0  0  0  0  0
    8.5860   -0.1700   24.9940 O   0  0  0  0  0  0  0  0  0  0  0  0
    8.0900   -1.3450   25.4930 C   0  0  0  0  0  0  0  0  0  0  0  0
    8.5560   -1.4030   26.9210 C   0  0  0  0  0  0  0  0  0  0  0  0
    9.2780   -0.2880   27.1520 C   0  0  0  0  0  0  0  0  0  0  0  0
    9.3010    0.4710   25.9800 C   0  0  0  0  0  0  0  0  0  0  0  0
  2  5  2  0
  3  5  1  0
  5  6  1  0
  4  7  3  0
  8 10  1  0
  9 10  2  0
 11 12  2  0
 13 14  2  0
  3 15  1  0
 14 15  1  0
  1 16  1  0
 15 16  2  0
 16 17  1  0
 13 18  1  0
 17 18  2  0
 19 20  2  0
 20 21  1  0
  7 22  1  0
 21 22  2  0
 22 23  1  0
  6 24  1  1
 19 24  1  0
 23 24  2  0
 10 25  1  0
 26  3  1  1
 25 26  1  0
  6 27  1  0
 26 27  1  0
 12 28  1  0
 27 28  1  1
 28 29  1  0
 25 30  1  0
 29 30  1  0
 12 32  1  0
 31 32  1  0
 32 33  2  0
 33 34  1  0
 31 35  1  0
 34 35  2  0
M  END
