x0734-x2646
     RDKit          3D

 37 40  0  0  0  0  0  0  0  0999 V2000
    5.0900   -4.7460   26.2030 N   0  0  0  0  0  0  0  0  0  0  0  0
    4.4060   -5.5750   25.5790 O   0  0  0  0  0  0  0  0  0  0  0  0
    4.6510   -3.7410   26.7760 O   0  0  0  0  0  0  0  0  0  0  0  0
    5.0770   -4.3540   19.7520 O   0  0  0  0  0  0  0  0  0  0  0  0
    6.1840   -3.9520   20.0450 C   0  0  0  0  0  0  0  0  0  0  0  0
    7.0260   -3.1560   19.0650 C   0  0  0  0  0  0  0  0  0  0  0  0
    4.5740    1.3980   21.6320 C   0  0  0  0  0  0  0  0  0  0  0  0
    8.5870    0.9230   21.7850 O   0  0  0  0  0  0  0  0  0  0  0  0
   13.4230   -1.8990   21.1100 Cl  0  0  0  0  0  0  0  0  0  0  0  0
    6.8990   -0.6260   21.1980 N   0  0  0  0  0  0  0  0  0  0  0  0
    8.1220   -0.2130   21.8600 C   0  0  0  0  0  0  0  0  0  0  0  0
    8.8380   -1.3230   22.6340 C   0  0  2  0  0  0  0  0  0  0  0  0
    7.9880   -1.9540   23.7410 C   0  0  0  0  0  0  0  0  0  0  0  0
    6.5290   -4.9800   26.2650 C   0  0  0  0  0  0  0  0  0  0  0  0
    7.3060   -4.5920   24.9970 C   0  0  0  0  0  0  0  0  0  0  0  0
    8.7820   -4.8500   25.0900 C   0  0  0  0  0  0  0  0  0  0  0  0
    9.3560   -5.4650   26.3850 C   0  0  0  0  0  0  0  0  0  0  0  0
    8.4870   -5.7520   27.4550 C   0  0  0  0  0  0  0  0  0  0  0  0
    7.1190   -5.5230   27.4130 C   0  0  0  0  0  0  0  0  0  0  0  0
    6.7480   -4.2420   21.2730 N   0  0  0  0  0  0  0  0  0  0  0  0
    6.3560   -5.4330   21.9980 C   0  0  0  0  0  0  0  0  0  0  0  0
    5.7560   -5.0770   23.2260 C   0  0  0  0  0  0  0  0  0  0  0  0
    6.6210   -4.0670   23.9090 N   0  0  0  0  0  0  0  0  0  0  0  0
    7.0320   -3.0090   23.1390 C   0  0  2  0  0  0  0  0  0  0  0  0
    7.6450   -3.3520   21.9640 C   0  0  0  0  0  0  0  0  0  0  0  0
    6.2990    0.6000   17.6490 N   0  0  0  0  0  0  0  0  0  0  0  0
    6.8070   -0.0670   18.7020 C   0  0  0  0  0  0  0  0  0  0  0  0
    6.3170    0.1040   20.1070 C   0  0  0  0  0  0  0  0  0  0  0  0
    5.1980    1.0770   20.3140 C   0  0  0  0  0  0  0  0  0  0  0  0
    4.7210    1.7510   19.0330 C   0  0  0  0  0  0  0  0  0  0  0  0
    5.2780    1.4940   17.7720 C   0  0  0  0  0  0  0  0  0  0  0  0
   10.5770    0.1770   23.8720 C   0  0  0  0  0  0  0  0  0  0  0  0
   11.9390    0.4990   23.9150 C   0  0  0  0  0  0  0  0  0  0  0  0
   12.8750   -0.1160   23.0810 C   0  0  0  0  0  0  0  0  0  0  0  0
   12.4370   -1.0860   22.1770 C   0  0  0  0  0  0  0  0  0  0  0  0
   11.1500   -1.4660   22.0610 C   0  0  0  0  0  0  0  0  0  0  0  0
   10.1710   -0.8000   22.9440 C   0  0  0  0  0  0  0  0  0  0  0  0
  1  2  2  0
  1  3  1  0
  4  5  2  0
  5  6  1  0
  8 11  2  0
 10 11  1  0
 11 12  1  0
 12 13  1  1
  1 14  1  0
 14 15  2  0
 15 16  1  0
 16 17  2  0
 17 18  1  0
 14 19  1  0
 18 19  2  0
  5 20  1  0
 20 21  1  0
 21 22  1  0
 15 23  1  0
 22 23  1  0
 24 13  1  1
 23 24  1  0
 20 25  1  0
 24 25  1  0
 26 27  2  0
 10 28  1  0
 27 28  1  0
  7 29  1  0
 28 29  2  0
 29 30  1  0
 26 31  1  0
 30 31  2  0
 32 33  2  0
 33 34  1  0
  9 35  1  0
 34 35  2  0
 35 36  1  0
 12 37  1  0
 32 37  1  0
 36 37  2  0
M  CHG  2   1   1   3  -1
M  END
