x0734-x2703
     RDKit          3D

 47 51  0  0  0  0  0  0  0  0999 V2000
    7.5270   -1.6860   21.6380 N   0  0  0  0  0  0  0  0  0  0  0  0
    7.4160    1.8620   22.6820 N   0  0  0  0  0  0  0  0  0  0  0  0
    8.9760    0.8440   21.3960 O   0  0  0  0  0  0  0  0  0  0  0  0
    6.8190   -0.3430   21.5620 C   0  0  1  0  0  0  0  0  0  0  0  0
    7.8460    0.8170   21.8710 C   0  0  0  0  0  0  0  0  0  0  0  0
   10.0930    1.9630   23.8590 C   0  0  0  0  0  0  0  0  0  0  0  0
    9.2230    1.1100   24.8040 C   0  0  0  0  0  0  0  0  0  0  0  0
    6.0990    4.3570   21.7990 C   0  0  0  0  0  0  0  0  0  0  0  0
   12.5040   -1.6010   24.6900 C   0  0  0  0  0  0  0  0  0  0  0  0
   13.1050   -2.9230   25.1920 C   0  0  0  0  0  0  0  0  0  0  0  0
   13.3510   -1.0550   23.5280 C   0  0  0  0  0  0  0  0  0  0  0  0
    5.0450   -5.0340   26.3950 N   0  0  0  0  0  0  0  0  0  0  0  0
    4.4310   -5.7980   25.6370 O   0  0  0  0  0  0  0  0  0  0  0  0
    4.5800   -3.9700   26.8410 O   0  0  0  0  0  0  0  0  0  0  0  0
    4.8810   -3.9780   19.4540 O   0  0  0  0  0  0  0  0  0  0  0  0
    5.9390   -3.6570   19.9280 C   0  0  0  0  0  0  0  0  0  0  0  0
    7.0200   -3.0520   19.0450 C   0  0  0  0  0  0  0  0  0  0  0  0
    6.3150    0.3800   17.8550 N   0  0  0  0  0  0  0  0  0  0  0  0
    5.1350    1.0160   17.9000 C   0  0  0  0  0  0  0  0  0  0  0  0
    4.4260    1.2370   19.0530 C   0  0  0  0  0  0  0  0  0  0  0  0
    4.9610    0.7860   20.2510 C   0  0  0  0  0  0  0  0  0  0  0  0
    6.1970    0.1230   20.2570 C   0  0  0  0  0  0  0  0  0  0  0  0
    6.8130   -0.0500   19.0300 C   0  0  0  0  0  0  0  0  0  0  0  0
   11.2420   -1.2600   22.5780 N   0  0  0  0  0  0  0  0  0  0  0  0
   11.1830   -1.6680   23.9890 C   0  0  0  0  0  0  0  0  0  0  0  0
    9.9190   -2.0940   24.6460 C   0  0  0  0  0  0  0  0  0  0  0  0
    8.6730   -2.0860   23.8060 C   0  0  0  0  0  0  0  0  0  0  0  0
    8.7470   -1.6510   22.3380 C   0  0  0  0  0  0  0  0  0  0  0  0
   10.1210   -1.2630   21.8700 C   0  0  0  0  0  0  0  0  0  0  0  0
    9.3490    3.1970   23.3930 C   0  0  0  0  0  0  0  0  0  0  0  0
   10.0190    4.4400   23.5520 C   0  0  0  0  0  0  0  0  0  0  0  0
    9.4000    5.6370   23.1400 C   0  0  0  0  0  0  0  0  0  0  0  0
    8.1290    5.5560   22.5800 C   0  0  0  0  0  0  0  0  0  0  0  0
    7.4840    4.3310   22.4300 C   0  0  0  0  0  0  0  0  0  0  0  0
    8.0560    3.1200   22.8260 C   0  0  0  0  0  0  0  0  0  0  0  0
    6.4860   -5.1140   26.3410 C   0  0  0  0  0  0  0  0  0  0  0  0
    7.1740   -4.7110   25.0410 C   0  0  0  0  0  0  0  0  0  0  0  0
    8.6960   -4.7970   25.0300 C   0  0  0  0  0  0  0  0  0  0  0  0
    9.4260   -5.2860   26.2830 C   0  0  0  0  0  0  0  0  0  0  0  0
    8.5730   -5.6550   27.4870 C   0  0  0  0  0  0  0  0  0  0  0  0
    7.1780   -5.5590   27.4850 C   0  0  0  0  0  0  0  0  0  0  0  0
    6.1960   -3.8680   21.2880 N   0  0  0  0  0  0  0  0  0  0  0  0
    6.2460   -5.2750   21.7230 C   0  0  0  0  0  0  0  0  0  0  0  0
    5.8490   -5.3460   23.0580 C   0  0  0  0  0  0  0  0  0  0  0  0
    6.4460   -4.2940   23.9200 N   0  0  0  0  0  0  0  0  0  0  0  0
    6.4030   -2.9080   23.4240 C   0  0  0  0  0  0  0  0  0  0  0  0
    6.9330   -2.9470   22.1460 C   0  0  2  0  0  0  0  0  0  0  0  0
  1  4  1  0
  2  5  1  0
  3  5  2  0
  4  5  1  6
  6  7  1  0
  9 10  1  0
  9 11  1  0
 12 13  2  0
 12 14  1  0
 15 16  2  0
 16 17  1  0
 18 19  2  0
 19 20  1  0
 20 21  2  0
  4 22  1  0
 21 22  1  0
 18 23  1  0
 22 23  2  0
  9 25  1  0
 24 25  2  0
 25 26  1  0
 26 27  2  0
  1 28  1  0
 27 28  1  0
 24 29  1  0
 28 29  2  0
  6 30  1  0
 30 31  2  0
 31 32  1  0
 32 33  2  0
  8 34  1  0
 33 34  1  0
  2 35  1  0
 30 35  1  0
 34 35  2  0
 12 36  1  0
 36 37  2  0
 37 38  1  0
 38 39  2  0
 39 40  1  0
 36 41  1  0
 40 41  2  0
 16 42  1  0
 42 43  1  0
 43 44  1  0
 37 45  1  0
 44 45  1  0
 45 46  1  0
 47  1  1  6
 42 47  1  0
 46 47  1  0
M  CHG  2  12   1  14  -1
M  END
