x0734-x0434
     RDKit          3D

 35 38  0  0  0  0  0  0  0  0999 V2000
    5.0310   -4.6000   26.1390 N   0  0  0  0  0  0  0  0  0  0  0  0
    4.3010   -5.4760   25.6430 O   0  0  0  0  0  0  0  0  0  0  0  0
    4.6450   -3.6470   26.8260 O   0  0  0  0  0  0  0  0  0  0  0  0
    5.2460   -4.1750   19.7400 O   0  0  0  0  0  0  0  0  0  0  0  0
    6.4180   -3.9350   20.0340 C   0  0  0  0  0  0  0  0  0  0  0  0
    7.3300   -3.1630   19.0950 C   0  0  0  0  0  0  0  0  0  0  0  0
    8.5790    0.6590   21.2860 O   0  0  0  0  0  0  0  0  0  0  0  0
    8.3010   -0.4700   21.6670 C   0  0  0  0  0  0  0  0  0  0  0  0
    9.1260   -1.1830   22.4800 N   0  0  0  0  0  0  0  0  0  0  0  0
    7.1190   -1.1100   21.2900 N   0  0  0  0  0  0  0  0  0  0  0  0
    6.4850   -1.8020   22.0400 C   0  0  0  0  0  0  0  0  0  0  0  0
    6.4640   -4.8250   26.0510 C   0  0  0  0  0  0  0  0  0  0  0  0
    7.2520   -4.4020   24.8090 C   0  0  0  0  0  0  0  0  0  0  0  0
    8.7720   -4.7140   24.8160 C   0  0  0  0  0  0  0  0  0  0  0  0
    9.4060   -5.4160   26.0490 C   0  0  0  0  0  0  0  0  0  0  0  0
    8.5950   -5.8110   27.2820 C   0  0  0  0  0  0  0  0  0  0  0  0
    7.0900   -5.4960   27.2500 C   0  0  0  0  0  0  0  0  0  0  0  0
    7.0240   -4.4290   21.2010 N   0  0  0  0  0  0  0  0  0  0  0  0
    6.3030   -5.2640   21.9390 C   0  0  0  0  0  0  0  0  0  0  0  0
    5.6730   -4.7670   23.0520 C   0  0  0  0  0  0  0  0  0  0  0  0
    6.5760   -3.7580   23.7150 N   0  0  0  0  0  0  0  0  0  0  0  0
    7.3070   -2.8840   22.8930 C   0  0  1  0  0  0  0  0  0  0  0  0
    7.9990   -3.6450   21.9730 C   0  0  0  0  0  0  0  0  0  0  0  0
   10.5400    0.4120   23.5090 C   0  0  0  0  0  0  0  0  0  0  0  0
   11.7900    0.9360   23.7270 C   0  0  0  0  0  0  0  0  0  0  0  0
   13.0460    0.3380   23.1220 C   0  0  0  0  0  0  0  0  0  0  0  0
   12.9380   -0.9060   22.2450 C   0  0  0  0  0  0  0  0  0  0  0  0
   11.5340   -1.4480   22.0320 C   0  0  0  0  0  0  0  0  0  0  0  0
   10.3880   -0.7070   22.7080 C   0  0  0  0  0  0  0  0  0  0  0  0
    5.2040    0.3180   20.4430 C   0  0  0  0  0  0  0  0  0  0  0  0
    4.6340    1.0270   19.3690 C   0  0  0  0  0  0  0  0  0  0  0  0
    5.2240    1.0920   18.1000 C   0  0  0  0  0  0  0  0  0  0  0  0
    6.3820    0.4640   17.8440 N   0  0  0  0  0  0  0  0  0  0  0  0
    6.9550   -0.2650   18.9620 C   0  0  0  0  0  0  0  0  0  0  0  0
    6.4120   -0.3580   20.2520 C   0  0  0  0  0  0  0  0  0  0  0  0
  1  2  2  0
  1  3  1  0
  4  5  2  0
  5  6  1  0
  7  8  2  0
  8  9  1  0
  8 10  1  0
 10 11  1  0
  1 12  1  0
 12 13  2  0
 13 14  1  0
 14 15  2  0
 15 16  1  0
 12 17  1  0
 16 17  2  0
  5 18  1  0
 18 19  1  0
 19 20  1  0
 13 21  1  0
 20 21  1  0
 22 11  1  6
 21 22  1  0
 18 23  1  0
 22 23  1  0
 24 25  2  0
 25 26  1  0
 26 27  2  0
 27 28  1  0
  9 29  1  0
 24 29  1  0
 28 29  2  0
 30 31  2  0
 31 32  1  0
 32 33  2  0
 33 34  1  0
 10 35  1  0
 30 35  1  0
 34 35  2  0
M  CHG  2   1   1   3  -1
M  END
