x0734-x1380
     RDKit          3D

 18 19  0  0  0  0  0  0  0  0999 V2000
    5.2450   -4.9330   26.2770 N   0  0  0  0  0  0  0  0  0  0  0  0
    4.6830   -5.7640   25.5450 O   0  0  0  0  0  0  0  0  0  0  0  0
    4.7000   -3.9240   26.7500 O   0  0  0  0  0  0  0  0  0  0  0  0
    5.1000   -4.1520   19.6740 O   0  0  0  0  0  0  0  0  0  0  0  0
    6.2250   -3.8300   20.0130 C   0  0  0  0  0  0  0  0  0  0  0  0
    7.1490   -3.1230   19.0460 C   0  0  0  0  0  0  0  0  0  0  0  0
    6.6330   -4.9960   26.3850 C   0  0  0  0  0  0  0  0  0  0  0  0
    7.3910   -4.6150   25.1070 C   0  0  0  0  0  0  0  0  0  0  0  0
    8.9260   -4.6610   25.1980 C   0  0  0  0  0  0  0  0  0  0  0  0
    9.6070   -5.0760   26.5040 C   0  0  0  0  0  0  0  0  0  0  0  0
    8.7450   -5.4470   27.7320 C   0  0  0  0  0  0  0  0  0  0  0  0
    7.2080   -5.3780   27.5920 C   0  0  0  0  0  0  0  0  0  0  0  0
    6.7180   -4.1570   21.2600 N   0  0  0  0  0  0  0  0  0  0  0  0
    6.4050   -5.4290   21.8690 C   0  0  0  0  0  0  0  0  0  0  0  0
    5.9370   -5.1950   23.3150 C   0  0  0  0  0  0  0  0  0  0  0  0
    6.7530   -4.2490   23.9380 N   0  0  0  0  0  0  0  0  0  0  0  0
    7.0830   -2.9890   23.2620 C   0  0  0  0  0  0  0  0  0  0  0  0
    7.5340   -3.2530   21.9860 C   0  0  0  0  0  0  0  0  0  0  0  0
  1  2  2  0
  1  3  1  0
  4  5  2  0
  5  6  1  0
  1  7  1  0
  7  8  2  0
  8  9  1  0
  9 10  2  0
 10 11  1  0
  7 12  1  0
 11 12  2  0
  5 13  1  0
 13 14  1  0
 14 15  1  0
  8 16  1  0
 15 16  1  0
 16 17  1  0
 13 18  1  0
 17 18  1  0
M  CHG  2   1   1   3  -1
M  END
