x0731-x1308-x2694
     RDKit          3D

 57 62  0  0  0  0  0  0  0  0999 V2000
    7.3980   -0.8250   22.0060 N   0  0  0  0  0  0  0  0  0  0  0  0
    7.7460    2.5770   22.6800 N   0  0  0  0  0  0  0  0  0  0  0  0
    9.0940    1.5660   21.1850 O   0  0  0  0  0  0  0  0  0  0  0  0
   11.1670    6.7630   23.9940 O   0  0  0  0  0  0  0  0  0  0  0  0
    6.9840    0.5050   21.6730 C   0  0  1  0  0  0  0  0  0  0  0  0
    8.0440    1.5530   21.8090 C   0  0  0  0  0  0  0  0  0  0  0  0
   10.4370    2.1040   23.9840 C   0  0  0  0  0  0  0  0  0  0  0  0
   11.8440    6.5530   24.9990 C   0  0  0  0  0  0  0  0  0  0  0  0
   12.2730   -1.3960   23.2100 C   0  0  0  0  0  0  0  0  0  0  0  0
   12.8670   -0.0170   23.5390 C   0  0  0  0  0  0  0  0  0  0  0  0
   12.9140   -1.8520   21.9380 C   0  0  0  0  0  0  0  0  0  0  0  0
   12.7440   -2.3640   24.3080 C   0  0  0  0  0  0  0  0  0  0  0  0
    0.7780   -0.9600   26.1050 C   0  0  0  0  0  0  0  0  0  0  0  0
    6.1870   -4.8630   26.5320 O   0  0  0  0  0  0  0  0  0  0  0  0
    4.4960   -6.7480   25.7480 N   0  0  0  0  0  0  0  0  0  0  0  0
    5.3940   -5.4690   19.9320 O   0  0  0  0  0  0  0  0  0  0  0  0
    6.1420   -4.6040   20.2880 C   0  0  0  0  0  0  0  0  0  0  0  0
    7.0520   -3.6290   19.4060 C   0  0  0  0  0  0  0  0  0  0  0  0
    5.1290   -5.2170   25.6250 S   0  0  1  0  0  0  0  0  0  0  0  0
    6.8250   -1.8920   21.1880 C   0  0  0  0  0  0  0  0  0  0  0  0
    6.0310   -2.8970   22.0620 C   0  0  0  0  0  0  0  0  0  0  0  0
    9.1980   -3.0200   22.0030 C   0  0  0  0  0  0  0  0  0  0  0  0
    7.1830   -2.8400   20.9830 O   0  0  0  0  0  0  0  0  0  0  0  0
    7.9420   -3.4590   21.7260 C   0  0  0  0  0  0  0  0  0  0  0  0
    6.3260    0.2850   17.9360 N   0  0  0  0  0  0  0  0  0  0  0  0
    5.2170    1.0740   17.8960 C   0  0  0  0  0  0  0  0  0  0  0  0
    4.6210    1.6890   18.9940 C   0  0  0  0  0  0  0  0  0  0  0  0
    5.2180    1.4790   20.2270 C   0  0  0  0  0  0  0  0  0  0  0  0
    6.3550    0.6870   20.3110 C   0  0  0  0  0  0  0  0  0  0  0  0
    6.8660    0.1090   19.1390 C   0  0  0  0  0  0  0  0  0  0  0  0
    8.7130   -1.2460   24.2040 N   0  0  0  0  0  0  0  0  0  0  0  0
   10.0830   -1.4000   24.4730 O   0  0  0  0  0  0  0  0  0  0  0  0
   10.7840   -1.2830   23.2420 C   0  0  0  0  0  0  0  0  0  0  0  0
    9.8960   -1.0650   22.2250 C   0  0  0  0  0  0  0  0  0  0  0  0
    8.6060   -1.0290   22.7340 C   0  0  0  0  0  0  0  0  0  0  0  0
    9.7950    3.4430   23.5800 C   0  0  0  0  0  0  0  0  0  0  0  0
   10.6430    4.4970   23.8980 C   0  0  0  0  0  0  0  0  0  0  0  0
   10.2570    5.8130   23.6250 C   0  0  0  0  0  0  0  0  0  0  0  0
    9.0150    6.0530   23.0170 C   0  0  0  0  0  0  0  0  0  0  0  0
    8.1780    4.9650   22.7010 C   0  0  0  0  0  0  0  0  0  0  0  0
    8.5790    3.6540   22.9920 C   0  0  0  0  0  0  0  0  0  0  0  0
    1.8720   -2.0040   25.9870 C   0  0  0  0  0  0  0  0  0  0  0  0
    1.5850   -3.3930   25.4000 C   0  0  0  0  0  0  0  0  0  0  0  0
    2.5900   -4.3090   25.3170 C   0  0  0  0  0  0  0  0  0  0  0  0
    3.8660   -4.0080   25.7520 C   0  0  0  0  0  0  0  0  0  0  0  0
    4.1520   -2.7460   26.2870 C   0  0  0  0  0  0  0  0  0  0  0  0
    3.1750   -1.7640   26.4020 C   0  0  0  0  0  0  0  0  0  0  0  0
    6.1840   -4.4470   21.7830 C   0  0  2  0  0  0  0  0  0  0  0  0
    7.3750   -4.7150   22.2500 C   0  0  2  0  0  0  0  0  0  0  0  0
    7.2170   -4.6660   23.7770 C   0  0  0  0  0  0  0  0  0  0  0  0
    5.7620   -5.0230   24.0290 C   0  0  2  0  0  0  0  0  0  0  0  0
    4.6950   -4.4820   23.4820 C   0  0  0  0  0  0  0  0  0  0  0  0
    5.2210   -5.1350   22.4580 C   0  0  1  0  0  0  0  0  0  0  0  0
    6.7190   -5.8720   27.5940 O   0  0  0  0  0  0  0  0  0  0  0  0
    4.5120   -7.2390   27.1090 N   0  0  0  0  0  0  0  0  0  0  0  0
    5.4830   -6.3310   28.2000 S   0  0  0  0  0  0  0  0  0  0  0  0
    0.3140   -0.8030   27.7850 Cl  0  0  0  0  0  0  0  0  0  0  0  0
  1  5  1  0
  2  6  1  0
  3  6  2  0
  5  6  1  6
  4  8  1  0
  9 10  1  0
  9 11  1  0
  9 12  1  0
 16 17  2  0
 17 18  1  0
 14 19  2  0
 15 19  2  0
  1 20  1  0
 20 21  1  0
 22 24  1  0
 23 24  2  0
 25 26  2  0
 26 27  1  0
 27 28  2  0
  5 29  1  0
 28 29  1  0
 25 30  1  0
 29 30  2  0
 31 32  1  0
  9 33  1  0
 32 33  1  0
 33 34  2  0
  1 35  1  0
 31 35  2  0
 34 35  1  0
  7 36  1  0
 36 37  2  0
  4 38  1  0
 37 38  1  0
 38 39  2  0
 39 40  1  0
  2 41  1  0
 36 41  1  0
 40 41  2  0
 13 42  1  0
 42 43  2  0
 43 44  1  0
 19 45  1  6
 44 45  2  0
 45 46  1  0
 42 47  1  0
 46 47  2  0
 48 17  1  0
 48 21  1  6
 49 24  1  6
 48 49  1  0
 49 50  1  0
 19 51  1  0
 51 50  1  6
 51 52  1  0
 48 53  1  0
 51 53  1  0
 53 52  1  1
 15 55  1  0
 54 56  2  0
 55 56  2  0
 13 57  1  0
M  END
