x0734-x0678
     RDKit          3D

 35 38  0  0  0  0  0  0  0  0999 V2000
    5.1590   -4.7060   26.1200 N   0  0  0  0  0  0  0  0  0  0  0  0
    4.5790   -5.6420   25.5410 O   0  0  0  0  0  0  0  0  0  0  0  0
    4.6010   -3.7910   26.7400 O   0  0  0  0  0  0  0  0  0  0  0  0
    5.3280   -4.2190   19.7580 O   0  0  0  0  0  0  0  0  0  0  0  0
    6.4770   -3.8700   20.0420 C   0  0  0  0  0  0  0  0  0  0  0  0
    7.3630   -3.1710   19.0270 C   0  0  0  0  0  0  0  0  0  0  0  0
    8.9680    1.3330   21.2140 O   0  0  0  0  0  0  0  0  0  0  0  0
    8.6820    0.3660   21.9330 C   0  0  0  0  0  0  0  0  0  0  0  0
    9.4520    0.1750   23.2620 C   0  0  0  0  0  0  0  0  0  0  0  0
    7.6780   -0.5610   21.6560 N   0  0  0  0  0  0  0  0  0  0  0  0
    7.0850   -1.3940   22.7770 C   0  0  0  0  0  0  0  0  0  0  0  0
    6.6190   -4.7370   26.1280 C   0  0  0  0  0  0  0  0  0  0  0  0
    7.3370   -4.2400   24.8480 C   0  0  0  0  0  0  0  0  0  0  0  0
    8.8940   -4.2930   24.8920 C   0  0  0  0  0  0  0  0  0  0  0  0
    9.6340   -4.8130   26.1480 C   0  0  0  0  0  0  0  0  0  0  0  0
    8.7840   -5.2800   27.3620 C   0  0  0  0  0  0  0  0  0  0  0  0
    7.3900   -5.2450   27.3530 C   0  0  0  0  0  0  0  0  0  0  0  0
    7.0310   -4.1580   21.2860 N   0  0  0  0  0  0  0  0  0  0  0  0
    6.5210   -5.3440   22.0000 C   0  0  0  0  0  0  0  0  0  0  0  0
    5.8070   -4.9270   23.1230 C   0  0  0  0  0  0  0  0  0  0  0  0
    6.5220   -3.7960   23.7460 N   0  0  0  0  0  0  0  0  0  0  0  0
    6.9990   -2.9710   22.5920 C   0  0  2  0  0  0  0  0  0  0  0  0
    8.0460   -3.4410   21.8740 C   0  0  0  0  0  0  0  0  0  0  0  0
   11.2970   -1.0340   22.2790 C   0  0  0  0  0  0  0  0  0  0  0  0
   12.4850   -1.9390   22.5450 C   0  0  0  0  0  0  0  0  0  0  0  0
   13.2840   -1.1930   23.6100 C   0  0  0  0  0  0  0  0  0  0  0  0
   12.4120   -0.4030   24.5910 C   0  0  0  0  0  0  0  0  0  0  0  0
   11.0330   -1.0620   24.6190 C   0  0  0  0  0  0  0  0  0  0  0  0
   10.4380   -0.9990   23.3610 C   0  0  0  0  0  0  0  0  0  0  0  0
    5.6030    0.7560   20.7230 C   0  0  0  0  0  0  0  0  0  0  0  0
    4.9470    1.1550   19.5280 C   0  0  0  0  0  0  0  0  0  0  0  0
    5.4550    0.7800   18.2820 C   0  0  0  0  0  0  0  0  0  0  0  0
    6.5510    0.0390   18.1190 N   0  0  0  0  0  0  0  0  0  0  0  0
    7.2160   -0.3750   19.2150 C   0  0  0  0  0  0  0  0  0  0  0  0
    6.8800   -0.0990   20.5480 C   0  0  0  0  0  0  0  0  0  0  0  0
  1  2  2  0
  1  3  1  0
  4  5  2  0
  5  6  1  0
  7  8  2  0
  8  9  1  0
  8 10  1  0
 10 11  1  0
  1 12  1  0
 12 13  2  0
 13 14  1  0
 14 15  2  0
 15 16  1  0
 12 17  1  0
 16 17  2  0
  5 18  1  0
 18 19  1  0
 19 20  1  0
 13 21  1  0
 20 21  1  0
 22 11  1  1
 21 22  1  0
 18 23  1  0
 22 23  1  0
 24 25  1  0
 25 26  1  0
 26 27  1  0
 27 28  1  0
  9 29  1  0
 24 29  1  0
 28 29  1  0
 30 31  2  0
 31 32  1  0
 32 33  2  0
 33 34  1  0
 10 35  1  0
 30 35  1  0
 34 35  2  0
M  CHG  2   1   1   3  -1
M  END
