x0734-x2964
     RDKit          3D

 37 40  0  0  0  0  0  0  0  0999 V2000
    5.0430   -4.7080   26.3090 N   0  0  0  0  0  0  0  0  0  0  0  0
    4.3380   -5.5050   25.6650 O   0  0  0  0  0  0  0  0  0  0  0  0
    4.6580   -3.6320   26.7830 O   0  0  0  0  0  0  0  0  0  0  0  0
    5.0980   -4.0740   19.5750 O   0  0  0  0  0  0  0  0  0  0  0  0
    6.1950   -3.6850   19.9350 C   0  0  0  0  0  0  0  0  0  0  0  0
    7.2160   -3.0940   18.9580 C   0  0  0  0  0  0  0  0  0  0  0  0
    3.3860    1.9580   19.7270 N   0  0  0  0  0  0  0  0  0  0  0  0
    8.6740    1.2640   21.1670 O   0  0  0  0  0  0  0  0  0  0  0  0
   13.3330   -2.0270   21.2700 Cl  0  0  0  0  0  0  0  0  0  0  0  0
    7.2740   -0.6340   21.1760 N   0  0  0  0  0  0  0  0  0  0  0  0
    8.9530   -0.3310   22.7630 N   0  0  0  0  0  0  0  0  0  0  0  0
    8.3170    0.1800   21.6620 C   0  0  0  0  0  0  0  0  0  0  0  0
    6.7690   -1.4560   21.8590 C   0  0  0  0  0  0  0  0  0  0  0  0
    6.4750   -4.9500   26.2860 C   0  0  0  0  0  0  0  0  0  0  0  0
    7.2860   -4.6370   25.0180 C   0  0  0  0  0  0  0  0  0  0  0  0
    8.7890   -4.9440   25.0760 C   0  0  0  0  0  0  0  0  0  0  0  0
    9.3900   -5.5200   26.3430 C   0  0  0  0  0  0  0  0  0  0  0  0
    8.5840   -5.8080   27.5850 C   0  0  0  0  0  0  0  0  0  0  0  0
    7.0680   -5.5200   27.5720 C   0  0  0  0  0  0  0  0  0  0  0  0
    6.5420   -3.7900   21.2490 N   0  0  0  0  0  0  0  0  0  0  0  0
    6.5390   -5.1420   21.7740 C   0  0  0  0  0  0  0  0  0  0  0  0
    6.0620   -5.1290   23.0390 C   0  0  0  0  0  0  0  0  0  0  0  0
    6.8190   -4.1160   23.8210 N   0  0  0  0  0  0  0  0  0  0  0  0
    7.8180   -3.2140   23.1400 C   0  0  0  0  0  0  0  0  0  0  0  0
    7.4370   -2.8190   21.8410 C   0  0  2  0  0  0  0  0  0  0  0  0
    4.6100    1.2750   19.3020 C   0  0  0  0  0  0  0  0  0  0  0  0
    5.2400    0.7100   20.4060 C   0  0  0  0  0  0  0  0  0  0  0  0
    6.5460   -0.0570   20.2080 C   0  0  0  0  0  0  0  0  0  0  0  0
    6.9420   -0.0720   18.7390 C   0  0  0  0  0  0  0  0  0  0  0  0
    6.2640    0.5110   17.7280 N   0  0  0  0  0  0  0  0  0  0  0  0
    5.1280    1.1680   18.0260 C   0  0  0  0  0  0  0  0  0  0  0  0
   10.8500    0.8680   23.5480 C   0  0  0  0  0  0  0  0  0  0  0  0
   12.2210    1.0060   23.5560 C   0  0  0  0  0  0  0  0  0  0  0  0
   13.0120    0.1270   22.8690 C   0  0  0  0  0  0  0  0  0  0  0  0
   12.4560   -0.9190   22.1570 C   0  0  0  0  0  0  0  0  0  0  0  0
   11.0910   -1.0550   22.1510 C   0  0  0  0  0  0  0  0  0  0  0  0
   10.2650   -0.1810   22.8260 C   0  0  0  0  0  0  0  0  0  0  0  0
  1  2  2  0
  1  3  1  0
  4  5  2  0
  5  6  1  0
  8 12  2  0
 10 12  1  0
 11 12  1  0
 10 13  1  0
  1 14  1  0
 14 15  2  0
 15 16  1  0
 16 17  2  0
 17 18  1  0
 14 19  1  0
 18 19  2  0
  5 20  1  0
 20 21  1  0
 21 22  1  0
 15 23  1  0
 22 23  1  0
 23 24  1  0
 25 13  1  1
 20 25  1  0
 24 25  1  0
  7 26  1  0
 26 27  2  0
 10 28  1  0
 27 28  1  0
 28 29  2  0
 29 30  1  0
 26 31  1  0
 30 31  2  0
 32 33  2  0
 33 34  1  0
  9 35  1  0
 34 35  2  0
 35 36  1  0
 11 37  1  0
 32 37  1  0
 36 37  2  0
M  CHG  2   1   1   3  -1
M  END
