x0734-x1418
     RDKit          3D

 25 27  0  0  0  0  0  0  0  0999 V2000
    5.2740   -4.8840   26.1920 N   0  0  0  0  0  0  0  0  0  0  0  0
    4.7040   -5.7300   25.4830 O   0  0  0  0  0  0  0  0  0  0  0  0
    4.7220   -3.8980   26.7050 O   0  0  0  0  0  0  0  0  0  0  0  0
    5.0780   -4.0560   19.5920 O   0  0  0  0  0  0  0  0  0  0  0  0
    6.1940   -3.7610   19.9770 C   0  0  0  0  0  0  0  0  0  0  0  0
    7.2020   -3.1300   19.0320 C   0  0  0  0  0  0  0  0  0  0  0  0
    6.6560   -4.9830   26.3560 C   0  0  0  0  0  0  0  0  0  0  0  0
    7.4920   -4.6330   25.1190 C   0  0  0  0  0  0  0  0  0  0  0  0
    9.0140   -4.7260   25.2850 C   0  0  0  0  0  0  0  0  0  0  0  0
    9.6140   -5.1500   26.6150 C   0  0  0  0  0  0  0  0  0  0  0  0
    8.6870   -5.4870   27.7960 C   0  0  0  0  0  0  0  0  0  0  0  0
    7.1620   -5.3760   27.5860 C   0  0  0  0  0  0  0  0  0  0  0  0
    6.5900   -4.0320   21.2650 N   0  0  0  0  0  0  0  0  0  0  0  0
    6.3650   -5.3360   21.8330 C   0  0  0  0  0  0  0  0  0  0  0  0
    6.0490   -5.1480   23.3250 C   0  0  0  0  0  0  0  0  0  0  0  0
    6.9480   -4.2530   23.9150 N   0  0  0  0  0  0  0  0  0  0  0  0
    7.4270   -3.0310   23.2320 C   0  0  2  0  0  0  0  0  0  0  0  0
    7.5870   -3.2510   21.8830 C   0  0  0  0  0  0  0  0  0  0  0  0
    9.9510   -2.7480   23.4230 C   0  0  0  0  0  0  0  0  0  0  0  0
   12.0450   -1.4650   22.5920 C   0  0  0  0  0  0  0  0  0  0  0  0
   10.9230   -1.5980   23.4370 C   0  0  0  0  0  0  0  0  0  0  0  0
   10.7300   -0.2910   24.5390 S   0  0  0  0  0  0  0  0  0  0  0  0
   12.1140    0.4800   23.9150 C   0  0  0  0  0  0  0  0  0  0  0  0
   12.7650   -0.3140   22.8090 C   0  0  0  0  0  0  0  0  0  0  0  0
    8.6730   -2.3950   23.9090 C   0  0  0  0  0  0  0  0  0  0  0  0
  1  2  2  0
  1  3  1  0
  4  5  2  0
  5  6  1  0
  1  7  1  0
  7  8  2  0
  8  9  1  0
  9 10  2  0
 10 11  1  0
  7 12  1  0
 11 12  2  0
  5 13  1  0
 13 14  1  0
 14 15  1  0
  8 16  1  0
 15 16  1  0
 16 17  1  0
 13 18  1  0
 17 18  1  0
 19 21  1  0
 20 21  2  0
 21 22  1  0
 22 23  1  0
 20 24  1  0
 23 24  2  0
 17 25  1  1
 19 25  1  0
M  CHG  2   1   1   3  -1
M  END
