x0734-x1336-x0678
     RDKit          3D

 42 46  0  0  0  0  0  0  0  0999 V2000
    6.1060   -5.5690   29.0960 C   0  0  0  0  0  0  0  0  0  0  0  0
    8.7840   -0.8430   25.3720 N   0  0  0  0  0  0  0  0  0  0  0  0
    6.1780   -1.0830   25.7700 N   0  0  0  0  0  0  0  0  0  0  0  0
    5.5560   -4.1150   19.7580 O   0  0  0  0  0  0  0  0  0  0  0  0
   10.0500   -3.5230   25.1330 C   0  0  0  0  0  0  0  0  0  0  0  0
    6.5880   -3.4440   19.9670 C   0  0  0  0  0  0  0  0  0  0  0  0
    7.5060   -3.0940   18.8320 C   0  0  0  0  0  0  0  0  0  0  0  0
    7.5420   -1.9400   25.3620 S   0  0  2  0  0  0  0  0  0  0  0  0
    9.1320    1.1790   21.3000 O   0  0  0  0  0  0  0  0  0  0  0  0
    8.4620    0.2540   21.8100 C   0  0  0  0  0  0  0  0  0  0  0  0
    9.0350   -0.6150   22.9500 C   0  0  1  0  0  0  0  0  0  0  0  0
    7.1060   -0.1740   21.5160 N   0  0  0  0  0  0  0  0  0  0  0  0
    8.7040    0.0640   24.2630 C   0  0  0  0  0  0  0  0  0  0  0  0
    7.1620   -5.0880   28.0990 C   0  0  0  0  0  0  0  0  0  0  0  0
    6.8160   -3.8520   27.3250 C   0  0  0  0  0  0  0  0  0  0  0  0
    7.8350   -3.3320   26.2970 C   0  0  0  0  0  0  0  0  0  0  0  0
    9.0280   -3.9930   26.1120 C   0  0  0  0  0  0  0  0  0  0  0  0
    9.2440   -5.1360   26.8960 C   0  0  0  0  0  0  0  0  0  0  0  0
    8.3740   -5.6780   27.8470 C   0  0  0  0  0  0  0  0  0  0  0  0
    6.9800   -3.0260   21.2450 N   0  0  0  0  0  0  0  0  0  0  0  0
    6.8700   -3.9190   22.2290 C   0  0  0  0  0  0  0  0  0  0  0  0
    6.4710   -3.1790   23.3170 C   0  0  0  0  0  0  0  0  0  0  0  0
    7.3850   -2.2860   23.7280 N   0  0  0  0  0  0  0  0  0  0  0  0
    8.3620   -2.0140   22.8140 C   0  0  1  0  0  0  0  0  0  0  0  0
    7.9930   -2.4530   21.4000 C   0  0  0  0  0  0  0  0  0  0  0  0
   11.2500   -1.9170   22.2840 C   0  0  0  0  0  0  0  0  0  0  0  0
   12.7820   -1.7030   22.2880 C   0  0  0  0  0  0  0  0  0  0  0  0
   13.3170   -1.1300   23.6000 C   0  0  0  0  0  0  0  0  0  0  0  0
   12.2900   -0.8850   24.5010 C   0  0  0  0  0  0  0  0  0  0  0  0
   11.2010    0.0150   23.9490 C   0  0  0  0  0  0  0  0  0  0  0  0
   10.6210   -0.5530   22.7860 C   0  0  0  0  0  0  0  0  0  0  0  0
    5.4150    1.2090   20.4160 C   0  0  0  0  0  0  0  0  0  0  0  0
    4.8000    1.7420   19.2020 C   0  0  0  0  0  0  0  0  0  0  0  0
    5.3520    1.3600   17.8410 C   0  0  0  0  0  0  0  0  0  0  0  0
    6.5070    0.4460   17.7310 N   0  0  0  0  0  0  0  0  0  0  0  0
    7.0860   -0.0720   18.9700 C   0  0  0  0  0  0  0  0  0  0  0  0
    6.4970    0.3540   20.3020 C   0  0  0  0  0  0  0  0  0  0  0  0
    4.9460   -5.2180   26.4330 N   0  0  0  0  0  0  0  0  0  0  0  0
    4.4630   -6.0040   25.3330 O   0  0  0  0  0  0  0  0  0  0  0  0
    4.2520   -3.9930   26.7080 O   0  0  0  0  0  0  0  0  0  0  0  0
    5.2750   -1.7360   26.6340 C   0  0  0  0  0  0  0  0  0  0  0  0
    4.8280   -2.9860   25.8750 C   0  0  0  0  0  0  0  0  0  0  0  0
  4  6  2  0
  6  7  1  0
  2  8  2  0
  3  8  2  0
  9 10  2  0
 11 10  1  6
 10 12  1  0
  2 13  1  0
 11 13  1  0
  1 14  1  0
 14 15  2  0
  8 16  1  1
 15 16  1  0
  5 17  1  0
 16 17  2  0
 17 18  1  0
 14 19  1  0
 18 19  2  0
  6 20  1  0
 20 21  1  0
 21 22  1  0
  8 23  1  0
 22 23  1  0
 11 24  1  0
 23 24  1  0
 20 25  1  0
 24 25  1  6
 26 27  1  0
 27 28  1  0
 28 29  1  0
 29 30  1  0
 11 31  1  0
 26 31  1  0
 30 31  1  0
 32 33  2  0
 33 34  1  0
 34 35  2  0
 35 36  1  0
 12 37  1  0
 32 37  1  0
 36 37  2  0
 38 39  2  0
 38 40  1  0
  3 41  1  0
 40 42  1  0
 41 42  1  0
M  CHG  1  38   1
M  END
