x0734-x2705-x0981
     RDKit          3D

 60 65  0  0  0  0  0  0  0  0999 V2000
    7.5520   -0.8690   21.9940 N   0  0  0  0  0  0  0  0  0  0  0  0
    7.6090    2.4270   22.7960 N   0  0  0  0  0  0  0  0  0  0  0  0
    8.9930    1.6370   21.1600 O   0  0  0  0  0  0  0  0  0  0  0  0
    7.0720    0.3930   21.7550 C   0  0  1  0  0  0  0  0  0  0  0  0
    7.9990    1.5290   21.8640 C   0  0  0  0  0  0  0  0  0  0  0  0
   10.2480    2.3150   23.9160 C   0  0  0  0  0  0  0  0  0  0  0  0
    9.3550    1.4750   24.8470 C   0  0  0  0  0  0  0  0  0  0  0  0
    6.2930    4.7800   21.9470 C   0  0  0  0  0  0  0  0  0  0  0  0
   12.4830   -1.4460   23.2980 C   0  0  0  0  0  0  0  0  0  0  0  0
   13.0080   -0.1240   23.5650 C   0  0  0  0  0  0  0  0  0  0  0  0
   12.9960   -2.4570   24.3520 C   0  0  0  0  0  0  0  0  0  0  0  0
   12.9150   -1.8540   21.9920 C   0  0  0  0  0  0  0  0  0  0  0  0
    1.1180   -8.7740   21.2340 C   0  0  0  0  0  0  0  0  0  0  0  0
    2.6140   -7.4280   22.6770 N   0  0  0  0  0  0  0  0  0  0  0  0
    0.4380   -6.8070   22.1350 O   0  0  0  0  0  0  0  0  0  0  0  0
    1.3320   -7.6430   22.0170 C   0  0  0  0  0  0  0  0  0  0  0  0
    2.2940   -8.3410   26.3980 N   0  0  0  0  0  0  0  0  0  0  0  0
    3.9190   -8.2790   24.5850 O   0  0  0  0  0  0  0  0  0  0  0  0
    2.8310   -6.2340   23.4720 C   0  0  1  0  0  0  0  0  0  0  0  0
    4.8770   -5.9450   22.0620 N   0  0  0  0  0  0  0  0  0  0  0  0
    4.5820   -4.8750   24.2170 N   0  0  0  0  0  0  0  0  0  0  0  0
    2.5150   -6.4460   24.8230 C   0  0  0  0  0  0  0  0  0  0  0  0
    2.8700   -7.6940   25.3180 C   0  0  0  0  0  0  0  0  0  0  0  0
    4.0880   -5.6790   23.2740 C   0  0  0  0  0  0  0  0  0  0  0  0
    7.3010   -1.9580   21.1470 C   0  0  0  0  0  0  0  0  0  0  0  0
    5.2960   -4.7010   26.4380 N   0  0  0  0  0  0  0  0  0  0  0  0
    4.6000   -5.6810   26.1680 O   0  0  0  0  0  0  0  0  0  0  0  0
    4.8620   -3.6530   26.9400 O   0  0  0  0  0  0  0  0  0  0  0  0
    5.0530   -4.5470   19.8020 O   0  0  0  0  0  0  0  0  0  0  0  0
    6.1530   -4.1630   20.1050 C   0  0  0  0  0  0  0  0  0  0  0  0
    7.0060   -3.3230   19.1430 C   0  0  0  0  0  0  0  0  0  0  0  0
    6.2620    0.1450   17.8640 N   0  0  0  0  0  0  0  0  0  0  0  0
    5.1420    0.8820   17.8370 C   0  0  0  0  0  0  0  0  0  0  0  0
    4.5280    1.4880   18.9200 C   0  0  0  0  0  0  0  0  0  0  0  0
    5.1250    1.3590   20.3100 C   0  0  0  0  0  0  0  0  0  0  0  0
    6.4090    0.5390   20.4210 C   0  0  0  0  0  0  0  0  0  0  0  0
    6.9160   -0.0520   19.1160 C   0  0  0  0  0  0  0  0  0  0  0  0
   10.2440   -1.1520   24.4850 N   0  0  0  0  0  0  0  0  0  0  0  0
    8.9610   -0.9960   24.1110 N   0  0  0  0  0  0  0  0  0  0  0  0
    8.7590   -1.0020   22.7490 C   0  0  0  0  0  0  0  0  0  0  0  0
   10.1510   -1.1970   22.2790 C   0  0  0  0  0  0  0  0  0  0  0  0
   10.9720   -1.2720   23.3540 C   0  0  0  0  0  0  0  0  0  0  0  0
    9.5840    3.6150   23.4960 C   0  0  0  0  0  0  0  0  0  0  0  0
   10.2880    4.8040   23.6650 C   0  0  0  0  0  0  0  0  0  0  0  0
    9.7170    6.0340   23.2830 C   0  0  0  0  0  0  0  0  0  0  0  0
    8.4290    6.0790   22.7240 C   0  0  0  0  0  0  0  0  0  0  0  0
    7.6880    4.7680   22.5550 C   0  0  0  0  0  0  0  0  0  0  0  0
    8.3070    3.6100   22.9550 C   0  0  0  0  0  0  0  0  0  0  0  0
    6.7320   -4.9010   26.4580 C   0  0  0  0  0  0  0  0  0  0  0  0
    7.5350   -4.5110   25.3610 C   0  0  0  0  0  0  0  0  0  0  0  0
    8.9230   -4.6860   25.3630 C   0  0  0  0  0  0  0  0  0  0  0  0
    9.5370   -5.2510   26.4490 C   0  0  0  0  0  0  0  0  0  0  0  0
    8.7820   -5.7090   27.6770 C   0  0  0  0  0  0  0  0  0  0  0  0
    7.2700   -5.4890   27.6090 C   0  0  0  0  0  0  0  0  0  0  0  0
    6.7280   -4.4600   21.3370 N   0  0  0  0  0  0  0  0  0  0  0  0
    6.1830   -5.3850   22.3500 C   0  0  1  0  0  0  0  0  0  0  0  0
    5.8080   -4.4860   23.5360 C   0  0  2  0  0  0  0  0  0  0  0  0
    6.9630   -3.9190   24.2370 N   0  0  0  0  0  0  0  0  0  0  0  0
    7.8260   -3.2710   23.2700 C   0  0  0  0  0  0  0  0  0  0  0  0
    6.9730   -3.1890   22.0080 C   0  0  1  0  0  0  0  0  0  0  0  0
  1  4  1  0
  2  5  1  0
  3  5  2  0
  4  5  1  6
  6  7  1  0
  9 10  1  0
  9 11  1  0
  9 12  1  0
 13 16  1  0
 14 16  1  0
 15 16  2  0
 14 19  1  0
 19 22  1  1
 17 23  1  0
 18 23  2  0
 22 23  1  0
 19 24  1  0
 20 24  1  0
 21 24  2  0
  1 25  1  0
 26 27  2  0
 26 28  1  0
 29 30  2  0
 30 31  1  0
 32 33  2  0
 33 34  1  0
 34 35  2  0
  4 36  1  0
 35 36  1  0
 32 37  1  0
 36 37  2  0
 38 39  1  0
  1 40  1  0
 39 40  1  0
 40 41  2  0
  9 42  1  0
 38 42  2  0
 41 42  1  0
  6 43  1  0
 43 44  2  0
 44 45  1  0
 45 46  2  0
  8 47  1  0
 46 47  1  0
  2 48  1  0
 43 48  1  0
 47 48  2  0
 26 49  1  0
 49 50  2  0
 50 51  1  0
 51 52  2  0
 52 53  1  0
 49 54  1  0
 53 54  2  0
 30 55  1  0
 56 20  1  6
 55 56  1  0
 57 21  1  1
 56 57  1  0
 50 58  1  0
 57 58  1  0
 58 59  1  0
 60 25  1  6
 55 60  1  0
 59 60  1  0
M  CHG  2  26   1  28  -1
M  END
