x0736-x0434
     RDKit          3D

 32 35  0  0  0  0  0  0  0  0999 V2000
    7.4170   -3.0420   18.9070 C   0  0  0  0  0  0  0  0  0  0  0  0
    5.5170   -4.1670   19.7980 O   0  0  0  0  0  0  0  0  0  0  0  0
    6.5270   -3.4800   20.0540 C   0  0  0  0  0  0  0  0  0  0  0  0
    6.0440   -2.4810   25.2100 O   0  0  0  0  0  0  0  0  0  0  0  0
    7.2150   -2.3920   24.8900 C   0  0  0  0  0  0  0  0  0  0  0  0
    8.3800   -0.6690   20.3840 O   0  0  0  0  0  0  0  0  0  0  0  0
    8.1190   -0.8550   21.5320 C   0  0  1  0  0  0  0  0  0  0  0  0
    8.7480   -0.2550   22.4770 N   0  0  0  0  0  0  0  0  0  0  0  0
    6.7660   -0.4450   21.4450 N   0  0  0  0  0  0  0  0  0  0  0  0
    6.8950   -3.1510   21.3670 N   0  0  0  0  0  0  0  0  0  0  0  0
    8.1200   -2.3080   21.7130 C   0  0  2  0  0  0  0  0  0  0  0  0
    8.6840   -2.6630   22.9370 C   0  0  0  0  0  0  0  0  0  0  0  0
    7.7680   -3.2990   23.8780 N   0  0  0  0  0  0  0  0  0  0  0  0
    6.8910   -4.2640   23.2420 C   0  0  0  0  0  0  0  0  0  0  0  0
    6.0750   -3.5020   22.4200 C   0  0  0  0  0  0  0  0  0  0  0  0
    8.5870   -0.2260   24.9500 O   0  0  0  0  0  0  0  0  0  0  0  0
    8.0750   -1.3880   25.4920 C   0  0  0  0  0  0  0  0  0  0  0  0
    8.4950   -1.5070   26.7850 C   0  0  0  0  0  0  0  0  0  0  0  0
    9.2640   -0.4190   27.0220 C   0  0  0  0  0  0  0  0  0  0  0  0
    9.2750    0.3250   25.8420 C   0  0  0  0  0  0  0  0  0  0  0  0
   10.6270    0.8170   23.4640 C   0  0  0  0  0  0  0  0  0  0  0  0
   11.9820    0.9470   23.6870 C   0  0  0  0  0  0  0  0  0  0  0  0
   12.9620    0.1190   23.1720 C   0  0  0  0  0  0  0  0  0  0  0  0
   12.5700   -0.9250   22.3770 C   0  0  0  0  0  0  0  0  0  0  0  0
   11.0770   -1.0830   22.1220 C   0  0  0  0  0  0  0  0  0  0  0  0
   10.1370   -0.2120   22.6610 C   0  0  0  0  0  0  0  0  0  0  0  0
    4.9790    0.9320   20.3430 C   0  0  0  0  0  0  0  0  0  0  0  0
    4.4380    1.5710   19.0990 C   0  0  0  0  0  0  0  0  0  0  0  0
    5.2510    1.3590   17.8650 C   0  0  0  0  0  0  0  0  0  0  0  0
    6.3850    0.6660   17.7550 N   0  0  0  0  0  0  0  0  0  0  0  0
    6.7900    0.1300   18.9070 C   0  0  0  0  0  0  0  0  0  0  0  0
    6.1590    0.2020   20.2980 C   0  0  0  0  0  0  0  0  0  0  0  0
  1  3  1  0
  2  3  2  0
  4  5  2  0
  7  6  1  6
  7  8  1  0
  7  9  1  0
  3 10  1  0
  7 11  1  0
 10 11  1  0
 11 12  1  1
  5 13  1  0
 12 13  1  0
 13 14  1  0
 10 15  1  0
 14 15  1  0
  5 17  1  0
 16 17  1  0
 17 18  2  0
 18 19  1  0
 16 20  1  0
 19 20  2  0
 21 22  2  0
 22 23  1  0
 23 24  2  0
 24 25  1  0
  8 26  1  0
 21 26  1  0
 25 26  2  0
 27 28  2  0
 28 29  1  0
 29 30  2  0
 30 31  1  0
  9 32  1  0
 27 32  1  0
 31 32  2  0
M  END
