x0731-x0769
     RDKit          3D

 20 21  0  0  0  0  0  0  0  0999 V2000
    0.8130   -0.9570   26.1900 C   0  0  0  0  0  0  0  0  0  0  0  0
    6.4920   -4.9220   26.7040 O   0  0  0  0  0  0  0  0  0  0  0  0
    4.7280   -6.5630   25.9800 O   0  0  0  0  0  0  0  0  0  0  0  0
    5.2640   -5.0390   19.9860 O   0  0  0  0  0  0  0  0  0  0  0  0
    6.2650   -4.5720   20.4840 C   0  0  0  0  0  0  0  0  0  0  0  0
    6.9790   -3.4540   19.7470 C   0  0  0  0  0  0  0  0  0  0  0  0
    5.4290   -5.3110   25.8080 S   0  0  0  0  0  0  0  0  0  0  0  0
    5.6850   -2.2520   26.7010 F   0  0  0  0  0  0  0  0  0  0  0  0
    1.8970   -1.9800   26.0700 C   0  0  0  0  0  0  0  0  0  0  0  0
    1.5820   -3.4010   25.5810 C   0  0  0  0  0  0  0  0  0  0  0  0
    2.7110   -4.4110   25.5030 C   0  0  0  0  0  0  0  0  0  0  0  0
    4.1550   -4.0710   25.8920 C   0  0  0  0  0  0  0  0  0  0  0  0
    4.4530   -2.6300   26.3600 C   0  0  0  0  0  0  0  0  0  0  0  0
    3.3300   -1.5940   26.4500 C   0  0  0  0  0  0  0  0  0  0  0  0
    6.7560   -5.0950   21.6690 N   0  0  0  0  0  0  0  0  0  0  0  0
    7.3500   -4.2020   22.6640 C   0  0  0  0  0  0  0  0  0  0  0  0
    6.4490   -3.9280   23.6870 C   0  0  0  0  0  0  0  0  0  0  0  0
    5.9990   -5.2090   24.2540 N   0  0  0  0  0  0  0  0  0  0  0  0
    5.4180   -6.0660   23.3050 C   0  0  0  0  0  0  0  0  0  0  0  0
    6.1760   -6.3570   22.1920 C   0  0  0  0  0  0  0  0  0  0  0  0
  4  5  2  0
  5  6  1  0
  2  7  2  0
  3  7  2  0
  1  9  1  0
  9 10  2  0
 10 11  1  0
  7 12  1  0
 11 12  2  0
  8 13  1  0
 12 13  1  0
  9 14  1  0
 13 14  2  0
  5 15  1  0
 15 16  1  0
 16 17  1  0
  7 18  1  0
 17 18  1  0
 18 19  1  0
 15 20  1  0
 19 20  1  0
M  END
