x0734-x2572
     RDKit          3D

 38 41  0  0  0  0  0  0  0  0999 V2000
    5.0750   -4.8240   26.3640 N   0  0  0  0  0  0  0  0  0  0  0  0
    4.4150   -5.6210   25.6730 O   0  0  0  0  0  0  0  0  0  0  0  0
    4.6500   -3.7470   26.8030 O   0  0  0  0  0  0  0  0  0  0  0  0
    5.0620   -4.2230   19.6860 O   0  0  0  0  0  0  0  0  0  0  0  0
    6.1850   -3.8700   19.9890 C   0  0  0  0  0  0  0  0  0  0  0  0
    7.1120   -3.1420   19.0360 C   0  0  0  0  0  0  0  0  0  0  0  0
    4.5280    1.4150   21.5460 C   0  0  0  0  0  0  0  0  0  0  0  0
    8.5270    0.9990   21.8420 O   0  0  0  0  0  0  0  0  0  0  0  0
    6.8260   -0.5410   21.2930 N   0  0  0  0  0  0  0  0  0  0  0  0
   14.1290   -1.5210   20.3130 N   0  0  0  0  0  0  0  0  0  0  0  0
    8.0510   -0.1330   21.9420 C   0  0  0  0  0  0  0  0  0  0  0  0
    8.7750   -1.2230   22.7430 C   0  0  2  0  0  0  0  0  0  0  0  0
   13.4020   -1.2330   21.4590 C   0  0  0  0  0  0  0  0  0  0  0  0
    8.0100   -1.9820   23.8560 C   0  0  0  0  0  0  0  0  0  0  0  0
    6.5490   -5.0300   26.3790 C   0  0  0  0  0  0  0  0  0  0  0  0
    7.2800   -4.6690   25.0880 C   0  0  0  0  0  0  0  0  0  0  0  0
    8.8040   -4.9230   25.1950 C   0  0  0  0  0  0  0  0  0  0  0  0
    9.2990   -5.4340   26.3930 C   0  0  0  0  0  0  0  0  0  0  0  0
    8.5440   -5.7200   27.5020 C   0  0  0  0  0  0  0  0  0  0  0  0
    7.1790   -5.5280   27.5240 C   0  0  0  0  0  0  0  0  0  0  0  0
    6.7390   -4.1520   21.2220 N   0  0  0  0  0  0  0  0  0  0  0  0
    6.3560   -5.3430   21.9520 C   0  0  0  0  0  0  0  0  0  0  0  0
    5.8180   -5.2140   23.2280 C   0  0  0  0  0  0  0  0  0  0  0  0
    6.6330   -4.1860   23.9610 N   0  0  0  0  0  0  0  0  0  0  0  0
    6.9080   -2.8890   23.2600 C   0  0  2  0  0  0  0  0  0  0  0  0
    7.4730   -3.2930   21.9220 C   0  0  0  0  0  0  0  0  0  0  0  0
    6.3070    0.5510   17.6750 N   0  0  0  0  0  0  0  0  0  0  0  0
    6.8230   -0.0890   18.7380 C   0  0  0  0  0  0  0  0  0  0  0  0
    6.3260    0.0890   20.1480 C   0  0  0  0  0  0  0  0  0  0  0  0
    5.1770    1.0710   20.2470 C   0  0  0  0  0  0  0  0  0  0  0  0
    4.7120    1.6770   19.0870 C   0  0  0  0  0  0  0  0  0  0  0  0
    5.2820    1.4050   17.8560 C   0  0  0  0  0  0  0  0  0  0  0  0
   10.4600    0.2960   23.9910 C   0  0  0  0  0  0  0  0  0  0  0  0
   11.7930    0.7080   24.0580 C   0  0  0  0  0  0  0  0  0  0  0  0
   12.7920    0.2150   23.2510 C   0  0  0  0  0  0  0  0  0  0  0  0
   12.5170   -0.7300   22.3160 C   0  0  0  0  0  0  0  0  0  0  0  0
   11.1500   -1.2240   22.1740 C   0  0  0  0  0  0  0  0  0  0  0  0
   10.1110   -0.6650   23.0500 C   0  0  0  0  0  0  0  0  0  0  0  0
  1  2  2  0
  1  3  1  0
  4  5  2  0
  5  6  1  0
  8 11  2  0
  9 11  1  0
 11 12  1  0
 10 13  3  0
 12 14  1  1
  1 15  1  0
 15 16  2  0
 16 17  1  0
 17 18  2  0
 18 19  1  0
 15 20  1  0
 19 20  2  0
  5 21  1  0
 21 22  1  0
 22 23  1  0
 16 24  1  0
 23 24  1  0
 25 14  1  1
 24 25  1  0
 21 26  1  0
 25 26  1  0
 27 28  2  0
  9 29  1  0
 28 29  1  0
  7 30  1  0
 29 30  2  0
 30 31  1  0
 27 32  1  0
 31 32  2  0
 33 34  2  0
 34 35  1  0
 13 36  1  0
 35 36  2  0
 36 37  1  0
 12 38  1  0
 33 38  1  0
 37 38  2  0
M  CHG  2   1   1   3  -1
M  END
