x0734-x1077
     RDKit          3D

 27 29  0  0  0  0  0  0  0  0999 V2000
    5.3460   -4.7050   26.0790 N   0  0  0  0  0  0  0  0  0  0  0  0
    4.7610   -5.6300   25.4840 O   0  0  0  0  0  0  0  0  0  0  0  0
    4.7690   -3.8230   26.7330 O   0  0  0  0  0  0  0  0  0  0  0  0
    5.1550   -4.0670   19.6230 O   0  0  0  0  0  0  0  0  0  0  0  0
    6.2670   -3.6920   19.9680 C   0  0  0  0  0  0  0  0  0  0  0  0
    7.2410   -3.1170   18.9640 C   0  0  0  0  0  0  0  0  0  0  0  0
    6.7250   -4.8340   26.2770 C   0  0  0  0  0  0  0  0  0  0  0  0
    7.6280   -4.3950   25.0960 C   0  0  0  0  0  0  0  0  0  0  0  0
    9.1350   -4.5470   25.3230 C   0  0  0  0  0  0  0  0  0  0  0  0
    9.6630   -5.0880   26.6410 C   0  0  0  0  0  0  0  0  0  0  0  0
    8.6800   -5.4970   27.7590 C   0  0  0  0  0  0  0  0  0  0  0  0
    7.1730   -5.3340   27.4910 C   0  0  0  0  0  0  0  0  0  0  0  0
    6.6960   -3.8380   21.2640 N   0  0  0  0  0  0  0  0  0  0  0  0
    6.4490   -5.0870   21.9290 C   0  0  0  0  0  0  0  0  0  0  0  0
    6.1290   -4.7360   23.3780 C   0  0  0  0  0  0  0  0  0  0  0  0
    7.1260   -3.9070   23.9040 N   0  0  0  0  0  0  0  0  0  0  0  0
    7.6380   -2.6820   23.1420 C   0  0  2  0  0  0  0  0  0  0  0  0
    7.7380   -3.0250   21.8020 C   0  0  0  0  0  0  0  0  0  0  0  0
    9.2010    1.0380   21.7030 N   0  0  0  0  0  0  0  0  0  0  0  0
    8.7090   -0.2260   21.7780 C   0  0  0  0  0  0  0  0  0  0  0  0
    8.9610   -1.1300   22.8360 C   0  0  0  0  0  0  0  0  0  0  0  0
    8.0610   -1.1300   23.9990 C   0  0  0  0  0  0  0  0  0  0  0  0
    8.3580   -2.0330   25.0670 C   0  0  0  0  0  0  0  0  0  0  0  0
    9.5790   -2.8010   24.7410 C   0  0  0  0  0  0  0  0  0  0  0  0
   10.5070   -2.8450   23.5720 C   0  0  0  0  0  0  0  0  0  0  0  0
   10.1970   -1.9910   22.5700 N   0  0  0  0  0  0  0  0  0  0  0  0
    8.9930   -1.9530   23.6990 C   0  0  0  0  0  0  0  0  0  0  0  0
  1  2  2  0
  1  3  1  0
  4  5  2  0
  5  6  1  0
  1  7  1  0
  7  8  2  0
  8  9  1  0
  9 10  2  0
 10 11  1  0
  7 12  1  0
 11 12  2  0
  5 13  1  0
 13 14  1  0
 14 15  1  0
  8 16  1  0
 15 16  1  0
 16 17  1  0
 13 18  1  0
 17 18  1  0
 19 20  3  0
 20 21  1  0
 21 22  2  0
 22 23  1  0
 23 24  2  0
 24 25  1  0
 21 26  1  0
 25 26  2  0
 17 27  1  1
 24 27  1  0
M  CHG  2   1   1   3  -1
M  END
