x0734-x0708
     RDKit          3D

 28 31  0  0  0  0  0  0  0  0999 V2000
    7.6750   -3.2290   19.1040 C   0  0  0  0  0  0  0  0  0  0  0  0
    5.5070   -4.0580   19.7060 O   0  0  0  0  0  0  0  0  0  0  0  0
    6.6770   -3.9130   20.0630 C   0  0  0  0  0  0  0  0  0  0  0  0
    5.1550   -4.8140   26.3820 N   0  0  0  0  0  0  0  0  0  0  0  0
    4.4600   -5.5920   25.7070 O   0  0  0  0  0  0  0  0  0  0  0  0
    4.7680   -3.7220   26.8150 O   0  0  0  0  0  0  0  0  0  0  0  0
    6.5870   -5.0480   26.3460 C   0  0  0  0  0  0  0  0  0  0  0  0
    7.2830   -4.7770   25.1630 C   0  0  0  0  0  0  0  0  0  0  0  0
    8.6660   -5.0240   25.1600 C   0  0  0  0  0  0  0  0  0  0  0  0
    9.3020   -5.5180   26.2960 C   0  0  0  0  0  0  0  0  0  0  0  0
    8.5830   -5.7690   27.4630 C   0  0  0  0  0  0  0  0  0  0  0  0
    7.2130   -5.5360   27.4980 C   0  0  0  0  0  0  0  0  0  0  0  0
    7.1170   -4.4450   21.2950 N   0  0  0  0  0  0  0  0  0  0  0  0
    6.4070   -5.5870   21.8540 C   0  0  0  0  0  0  0  0  0  0  0  0
    5.8180   -5.2560   23.2380 C   0  0  0  0  0  0  0  0  0  0  0  0
    6.6110   -4.2820   24.0530 N   0  0  0  0  0  0  0  0  0  0  0  0
    7.3860   -3.2280   23.3790 C   0  0  0  0  0  0  0  0  0  0  0  0
    8.1130   -3.8850   22.2220 C   0  0  2  0  0  0  0  0  0  0  0  0
    8.8680   -1.6280   22.6800 C   0  0  0  0  0  0  0  0  0  0  0  0
   10.0240   -2.0130   21.9720 C   0  0  0  0  0  0  0  0  0  0  0  0
   10.9000   -1.0370   22.5680 C   0  0  0  0  0  0  0  0  0  0  0  0
   10.4230   -0.1320   23.4880 C   0  0  0  0  0  0  0  0  0  0  0  0
    8.8200   -0.3790   23.8100 S   0  0  0  0  0  0  0  0  0  0  0  0
   12.2710   -0.9420   22.2240 C   0  0  0  0  0  0  0  0  0  0  0  0
   13.0600    0.0380   22.7640 C   0  0  0  0  0  0  0  0  0  0  0  0
   12.5150    0.9210   23.6480 C   0  0  0  0  0  0  0  0  0  0  0  0
   11.2060    0.8490   24.0380 C   0  0  0  0  0  0  0  0  0  0  0  0
    9.0340   -2.9490   21.4450 C   0  0  0  0  0  0  0  0  0  0  0  0
  1  3  1  0
  2  3  2  0
  4  5  2  0
  4  6  1  0
  4  7  1  0
  7  8  2  0
  8  9  1  0
  9 10  2  0
 10 11  1  0
  7 12  1  0
 11 12  2  0
  3 13  1  0
 13 14  1  0
 14 15  1  0
  8 16  1  0
 15 16  1  0
 16 17  1  0
 13 18  1  0
 17 18  1  0
 19 20  2  0
 20 21  1  0
 21 22  2  0
 19 23  1  0
 22 23  1  0
 21 24  1  0
 24 25  2  0
 25 26  1  0
 22 27  1  0
 26 27  2  0
 18 28  1  6
 20 28  1  0
M  CHG  2   4   1   6  -1
M  END
