x0736-x0967
     RDKit          3D

 36 38  0  0  0  0  0  0  0  0999 V2000
    7.6630    4.6830   22.4280 C   0  0  0  0  0  0  0  0  0  0  0  0
    8.0960    2.2290   22.8760 N   0  0  0  0  0  0  0  0  0  0  0  0
    6.1610    3.3130   23.6540 O   0  0  0  0  0  0  0  0  0  0  0  0
    7.2160    3.3820   23.0400 C   0  0  0  0  0  0  0  0  0  0  0  0
    8.5030   -1.2420   21.4500 N   0  0  0  0  0  0  0  0  0  0  0  0
    5.7470    0.9840   16.9390 O   0  0  0  0  0  0  0  0  0  0  0  0
    7.8130    0.7920   22.9730 C   0  0  1  0  0  0  0  0  0  0  0  0
    9.6210    0.7240   21.5480 O   0  0  0  0  0  0  0  0  0  0  0  0
    6.3830    0.4380   22.5760 C   0  0  0  0  0  0  0  0  0  0  0  0
    8.6870    0.0610   21.9460 C   0  0  0  0  0  0  0  0  0  0  0  0
    9.8010   -1.8520   21.7650 C   0  0  0  0  0  0  0  0  0  0  0  0
   10.7200   -0.7360   22.2030 C   0  0  0  0  0  0  0  0  0  0  0  0
   11.9250   -1.2460   22.5740 C   0  0  0  0  0  0  0  0  0  0  0  0
   13.5020   -2.0560   23.1320 Br  0  0  0  0  0  0  0  0  0  0  0  0
    7.4340   -2.9440   18.8790 C   0  0  0  0  0  0  0  0  0  0  0  0
    5.4200   -3.9080   19.6520 O   0  0  0  0  0  0  0  0  0  0  0  0
    6.4810   -3.3450   19.9770 C   0  0  0  0  0  0  0  0  0  0  0  0
    5.6160   -2.5570   25.1700 O   0  0  0  0  0  0  0  0  0  0  0  0
    6.8310   -2.5220   25.0130 C   0  0  0  0  0  0  0  0  0  0  0  0
    6.2000    0.5770   21.1070 C   0  0  0  0  0  0  0  0  0  0  0  0
    6.8740   -0.1970   20.1590 C   0  0  0  0  0  0  0  0  0  0  0  0
    6.7190   -0.0610   18.8270 C   0  0  0  0  0  0  0  0  0  0  0  0
    5.8820    0.8520   18.2500 C   0  0  0  0  0  0  0  0  0  0  0  0
    5.1530    1.6720   19.0990 C   0  0  0  0  0  0  0  0  0  0  0  0
    5.2980    1.5530   20.6330 C   0  0  0  0  0  0  0  0  0  0  0  0
    6.8110   -3.2030   21.3320 N   0  0  0  0  0  0  0  0  0  0  0  0
    7.4000   -2.0460   21.9940 C   0  0  1  0  0  0  0  0  0  0  0  0
    8.1760   -2.5840   23.1820 C   0  0  0  0  0  0  0  0  0  0  0  0
    7.4540   -3.2270   24.0530 N   0  0  0  0  0  0  0  0  0  0  0  0
    6.8530   -4.3100   23.5430 C   0  0  0  0  0  0  0  0  0  0  0  0
    6.2990   -4.1090   22.1700 C   0  0  0  0  0  0  0  0  0  0  0  0
    8.3710   -0.6430   25.2210 O   0  0  0  0  0  0  0  0  0  0  0  0
    7.7120   -1.7400   25.8030 C   0  0  0  0  0  0  0  0  0  0  0  0
    8.1630   -1.8020   27.2130 C   0  0  0  0  0  0  0  0  0  0  0  0
    9.0930   -0.6920   27.3260 C   0  0  0  0  0  0  0  0  0  0  0  0
    9.2030   -0.0100   26.1300 C   0  0  0  0  0  0  0  0  0  0  0  0
  1  4  1  0
  2  4  1  0
  3  4  2  0
  2  7  1  0
  7  9  1  6
  5 10  1  0
  7 10  1  0
  8 10  2  0
  5 11  1  0
 11 12  1  0
 12 13  3  0
 13 14  1  0
 15 17  1  0
 16 17  2  0
 18 19  2  0
  9 20  1  0
 20 21  2  0
 21 22  1  0
  6 23  1  0
 22 23  2  0
 23 24  1  0
 20 25  1  0
 24 25  2  0
 17 26  1  0
 27  5  1  6
 26 27  1  0
 27 28  1  0
 19 29  1  0
 28 29  1  0
 29 30  1  0
 26 31  1  0
 30 31  1  0
 19 33  1  0
 32 33  1  0
 33 34  2  0
 34 35  1  0
 32 36  1  0
 35 36  2  0
M  END
