x0731-x1077-x3110
     RDKit          3D

 54 59  0  0  0  0  0  0  0  0999 V2000
    8.1600    1.2600   23.3120 N   0  0  0  0  0  0  0  0  0  0  0  0
   13.0610    5.3810   22.9590 C   0  0  0  0  0  0  0  0  0  0  0  0
   11.9230    3.3990   22.2780 O   0  0  0  0  0  0  0  0  0  0  0  0
   12.9150    4.1140   22.1770 C   0  0  0  0  0  0  0  0  0  0  0  0
    7.2930   -1.4600   21.9030 N   0  0  0  0  0  0  0  0  0  0  0  0
   11.1620    4.4350   24.1720 O   0  0  0  0  0  0  0  0  0  0  0  0
   11.1930    3.4800   23.4160 C   0  0  0  0  0  0  0  0  0  0  0  0
    8.7270    1.4780   21.1170 O   0  0  0  0  0  0  0  0  0  0  0  0
   10.3990    2.1770   23.6070 C   0  0  0  0  0  0  0  0  0  0  0  0
    8.9070    2.4630   23.6920 C   0  0  0  0  0  0  0  0  0  0  0  0
    7.9990    0.9480   21.9720 C   0  0  0  0  0  0  0  0  0  0  0  0
    6.9010   -0.0020   21.6960 C   0  0  1  0  0  0  0  0  0  0  0  0
   12.4030   -1.9050   24.3150 C   0  0  0  0  0  0  0  0  0  0  0  0
   12.6100   -0.6160   25.0890 C   0  0  0  0  0  0  0  0  0  0  0  0
   13.5320   -2.0360   23.2900 C   0  0  0  0  0  0  0  0  0  0  0  0
   12.6430   -3.1200   25.1930 C   0  0  0  0  0  0  0  0  0  0  0  0
    6.3970    0.2040   17.9360 N   0  0  0  0  0  0  0  0  0  0  0  0
    5.2340    1.1060   17.8790 C   0  0  0  0  0  0  0  0  0  0  0  0
    4.6780    1.5760   19.0680 C   0  0  0  0  0  0  0  0  0  0  0  0
    5.2580    1.1750   20.2560 C   0  0  0  0  0  0  0  0  0  0  0  0
    6.3550    0.3330   20.3230 C   0  0  0  0  0  0  0  0  0  0  0  0
    6.8960   -0.1380   19.1400 C   0  0  0  0  0  0  0  0  0  0  0  0
    9.7790   -1.2780   21.7220 C   0  0  0  0  0  0  0  0  0  0  0  0
   11.0030   -1.3690   22.2230 C   0  0  0  0  0  0  0  0  0  0  0  0
   11.1250   -1.7560   23.4720 C   0  0  0  0  0  0  0  0  0  0  0  0
   10.0790   -2.0910   24.2980 C   0  0  0  0  0  0  0  0  0  0  0  0
    8.5270   -2.1260   24.0800 C   0  0  0  0  0  0  0  0  0  0  0  0
    8.5680   -1.6230   22.5550 C   0  0  0  0  0  0  0  0  0  0  0  0
    0.7250   -1.1870   26.6660 C   0  0  0  0  0  0  0  0  0  0  0  0
    4.6940   -5.2860   24.3040 O   0  0  0  0  0  0  0  0  0  0  0  0
    5.0220   -4.4610   19.7900 O   0  0  0  0  0  0  0  0  0  0  0  0
    6.1630   -4.3770   20.1590 C   0  0  0  0  0  0  0  0  0  0  0  0
    7.1440   -3.4110   19.4920 C   0  0  0  0  0  0  0  0  0  0  0  0
    5.4260   -4.6860   25.3820 S   0  0  0  0  0  0  0  0  0  0  0  0
    7.8520   -5.7590   25.4540 O   0  0  0  0  0  0  0  0  0  0  0  0
    7.7470   -5.0860   24.3750 C   0  0  1  0  0  0  0  0  0  0  0  0
    8.9310   -5.3420   23.8800 C   0  0  0  0  0  0  0  0  0  0  0  0
    9.7670   -4.9460   24.9420 C   0  0  0  0  0  0  0  0  0  0  0  0
    9.0840   -3.9720   25.9680 N   0  0  0  0  0  0  0  0  0  0  0  0
    7.9490   -4.4380   26.9950 C   0  0  0  0  0  0  0  0  0  0  0  0
    7.1000   -4.8780   26.0450 C   0  0  0  0  0  0  0  0  0  0  0  0
    1.8990   -2.0600   26.3780 C   0  0  0  0  0  0  0  0  0  0  0  0
    1.7090   -3.2160   25.6520 C   0  0  0  0  0  0  0  0  0  0  0  0
    2.7860   -4.0180   25.3740 C   0  0  0  0  0  0  0  0  0  0  0  0
    4.0650   -3.6710   25.8200 C   0  0  0  0  0  0  0  0  0  0  0  0
    4.2740   -2.5240   26.5580 C   0  0  0  0  0  0  0  0  0  0  0  0
    3.1760   -1.7270   26.8280 C   0  0  0  0  0  0  0  0  0  0  0  0
    6.6130   -5.1640   21.1910 N   0  0  0  0  0  0  0  0  0  0  0  0
    7.3740   -4.4530   22.1570 C   0  0  0  0  0  0  0  0  0  0  0  0
    6.3000   -4.1780   23.1570 C   0  0  0  0  0  0  0  0  0  0  0  0
    6.2780   -5.4020   24.0220 C   0  0  0  0  0  0  0  0  0  0  0  0
    5.8980   -6.5810   23.1400 C   0  0  0  0  0  0  0  0  0  0  0  0
    5.5390   -6.0890   21.7330 C   0  0  0  0  0  0  0  0  0  0  0  0
    8.8270   -2.5760   25.5140 C   0  0  0  0  0  0  0  0  0  0  0  0
  2  4  1  0
  3  4  1  0
  3  7  1  0
  6  7  2  0
  7  9  1  0
  1 10  1  0
  9 10  1  0
  1 11  1  0
  8 11  2  0
 12  5  1  6
 11 12  1  0
 13 14  1  0
 13 15  1  0
 13 16  1  0
 17 18  2  0
 18 19  1  0
 19 20  2  0
 12 21  1  0
 20 21  1  0
 17 22  1  0
 21 22  2  0
 23 24  2  0
 13 25  1  0
 24 25  1  0
 25 26  2  0
 26 27  1  0
  5 28  1  0
 23 28  1  0
 27 28  2  0
 31 32  2  0
 32 33  1  0
 30 34  2  0
 35 36  1  0
 36 37  1  6
 37 38  1  0
 38 39  1  0
 39 40  1  0
 34 41  2  0
 35 41  1  0
 40 41  1  0
 29 42  1  0
 42 43  2  0
 43 44  1  0
 34 45  1  0
 44 45  2  0
 45 46  1  0
 42 47  1  0
 46 47  2  0
 32 48  1  0
 48 49  1  0
 49 50  1  0
 34 51  1  0
 36 51  1  0
 51 50  1  0
 51 52  1  0
 48 53  1  0
 52 53  1  0
 27 54  1  0
 39 54  1  0
M  END
