x0736-x0734
     RDKit          3D

 25 27  0  0  0  0  0  0  0  0999 V2000
    5.0350   -4.8310   26.0990 N   0  0  0  0  0  0  0  0  0  0  0  0
    4.3580   -5.6580   25.4740 O   0  0  0  0  0  0  0  0  0  0  0  0
    4.5720   -3.9350   26.8210 O   0  0  0  0  0  0  0  0  0  0  0  0
    5.1420   -4.3150   19.7560 O   0  0  0  0  0  0  0  0  0  0  0  0
    6.1880   -3.8020   20.1150 C   0  0  0  0  0  0  0  0  0  0  0  0
    7.1020   -3.1470   19.0750 C   0  0  0  0  0  0  0  0  0  0  0  0
    5.9420   -1.9340   24.3470 O   0  0  0  0  0  0  0  0  0  0  0  0
    7.1530   -2.1580   24.4060 C   0  0  0  0  0  0  0  0  0  0  0  0
    6.4830   -5.0730   26.1810 C   0  0  0  0  0  0  0  0  0  0  0  0
    7.4500   -4.8980   25.0570 C   0  0  0  0  0  0  0  0  0  0  0  0
    8.7780   -5.1510   25.2280 C   0  0  0  0  0  0  0  0  0  0  0  0
    9.3060   -5.6160   26.5640 C   0  0  0  0  0  0  0  0  0  0  0  0
    8.3940   -5.7700   27.6130 C   0  0  0  0  0  0  0  0  0  0  0  0
    7.0380   -5.5230   27.4760 C   0  0  0  0  0  0  0  0  0  0  0  0
    6.5420   -3.8650   21.4870 N   0  0  0  0  0  0  0  0  0  0  0  0
    6.4660   -5.1780   21.9120 C   0  0  0  0  0  0  0  0  0  0  0  0
    6.0870   -5.1450   23.2540 C   0  0  0  0  0  0  0  0  0  0  0  0
    7.2340   -4.5500   23.9830 N   0  0  0  0  0  0  0  0  0  0  0  0
    7.7110   -3.2320   23.5510 C   0  0  1  0  0  0  0  0  0  0  0  0
    7.6850   -3.0770   22.1420 C   0  0  0  0  0  0  0  0  0  0  0  0
    8.5480   -0.1760   24.7960 O   0  0  0  0  0  0  0  0  0  0  0  0
    8.0230   -1.3730   25.3280 C   0  0  0  0  0  0  0  0  0  0  0  0
    8.4790   -1.5040   26.6530 C   0  0  0  0  0  0  0  0  0  0  0  0
    9.2600   -0.4520   26.9680 C   0  0  0  0  0  0  0  0  0  0  0  0
    9.3100    0.4270   25.7470 C   0  0  0  0  0  0  0  0  0  0  0  0
  1  2  2  0
  1  3  1  0
  4  5  2  0
  5  6  1  0
  7  8  2  0
  1  9  1  0
  9 10  2  0
 10 11  1  0
 11 12  2  0
 12 13  1  0
  9 14  1  0
 13 14  2  0
  5 15  1  0
 15 16  1  0
 16 17  1  0
 10 18  1  0
 17 18  1  0
 19  8  1  1
 18 19  1  0
 15 20  1  0
 19 20  1  0
  8 22  1  0
 21 22  1  0
 22 23  2  0
 23 24  1  0
 21 25  1  0
 24 25  2  0
M  CHG  2   1   1   3  -1
M  END
