x0736-x0770
     RDKit          3D

 24 26  0  0  0  0  0  0  0  0999 V2000
    7.3340   -2.9890   18.9020 C   0  0  0  0  0  0  0  0  0  0  0  0
    5.4470   -4.1540   19.7670 O   0  0  0  0  0  0  0  0  0  0  0  0
    6.3960   -3.3990   20.0300 C   0  0  0  0  0  0  0  0  0  0  0  0
    5.8280   -2.6110   25.1700 O   0  0  0  0  0  0  0  0  0  0  0  0
    6.9890   -2.4860   24.8300 C   0  0  0  0  0  0  0  0  0  0  0  0
   13.4030   -1.8100   21.0740 Cl  0  0  0  0  0  0  0  0  0  0  0  0
    9.1410   -1.7980   23.9360 C   0  0  0  0  0  0  0  0  0  0  0  0
    6.5990   -2.9520   21.3760 N   0  0  0  0  0  0  0  0  0  0  0  0
    7.8130   -2.1690   21.8280 C   0  0  0  0  0  0  0  0  0  0  0  0
    8.4260   -2.6880   22.9970 C   0  0  2  0  0  0  0  0  0  0  0  0
    7.5500   -3.3550   23.7880 N   0  0  0  0  0  0  0  0  0  0  0  0
    6.9000   -4.3890   23.1870 C   0  0  0  0  0  0  0  0  0  0  0  0
    5.9050   -3.7680   22.4610 C   0  0  0  0  0  0  0  0  0  0  0  0
    8.2260   -0.1580   24.9800 O   0  0  0  0  0  0  0  0  0  0  0  0
    7.8290   -1.4570   25.4590 C   0  0  0  0  0  0  0  0  0  0  0  0
    8.3810   -1.6650   26.7110 C   0  0  0  0  0  0  0  0  0  0  0  0
    9.1110   -0.5500   27.0220 C   0  0  0  0  0  0  0  0  0  0  0  0
    9.0180    0.3520   25.9780 C   0  0  0  0  0  0  0  0  0  0  0  0
   10.8440    0.0230   24.1960 C   0  0  0  0  0  0  0  0  0  0  0  0
   12.0430    0.6300   23.8680 C   0  0  0  0  0  0  0  0  0  0  0  0
   12.8860    0.1060   22.9080 C   0  0  0  0  0  0  0  0  0  0  0  0
   12.4990   -1.0590   22.2660 C   0  0  0  0  0  0  0  0  0  0  0  0
   11.1960   -1.7130   22.6240 C   0  0  0  0  0  0  0  0  0  0  0  0
   10.4130   -1.1540   23.5770 C   0  0  0  0  0  0  0  0  0  0  0  0
  1  3  1  0
  2  3  2  0
  4  5  2  0
  3  8  1  0
  8  9  1  0
 10  7  1  1
  9 10  1  0
  5 11  1  0
 10 11  1  0
 11 12  1  0
  8 13  1  0
 12 13  1  0
  5 15  1  0
 14 15  1  0
 15 16  2  0
 16 17  1  0
 14 18  1  0
 17 18  2  0
 19 20  2  0
 20 21  1  0
  6 22  1  0
 21 22  2  0
 22 23  1  0
  7 24  1  0
 19 24  1  0
 23 24  2  0
M  END
