x0731-x3110-x1458
     RDKit          3D

 59 64  0  0  0  0  0  0  0  0999 V2000
    8.3590    1.2560   23.3370 N   0  0  0  0  0  0  0  0  0  0  0  0
   13.3600    5.5550   21.9600 C   0  0  0  0  0  0  0  0  0  0  0  0
   12.0500    3.5390   22.4750 O   0  0  0  0  0  0  0  0  0  0  0  0
   13.1590    4.2730   22.6770 C   0  0  0  0  0  0  0  0  0  0  0  0
    7.3290   -1.1740   21.6470 N   0  0  0  0  0  0  0  0  0  0  0  0
   11.0970    4.5930   24.4150 O   0  0  0  0  0  0  0  0  0  0  0  0
   11.1710    3.5510   23.5630 C   0  0  0  0  0  0  0  0  0  0  0  0
    8.9190    1.8640   21.1730 O   0  0  0  0  0  0  0  0  0  0  0  0
   10.3000    2.2270   23.6680 C   0  0  0  0  0  0  0  0  0  0  0  0
    8.9610    2.4240   23.6780 C   0  0  0  0  0  0  0  0  0  0  0  0
    8.2080    1.1980   21.9260 C   0  0  0  0  0  0  0  0  0  0  0  0
    7.1090    0.2760   21.4700 C   0  0  1  0  0  0  0  0  0  0  0  0
   12.3990   -2.0410   24.4420 C   0  0  0  0  0  0  0  0  0  0  0  0
   12.8740   -0.6470   24.7510 C   0  0  0  0  0  0  0  0  0  0  0  0
   13.3510   -1.6150   23.5790 C   0  0  0  0  0  0  0  0  0  0  0  0
   12.8580   -3.0640   25.2120 C   0  0  0  0  0  0  0  0  0  0  0  0
    7.3280   -3.8550   25.7700 N   0  0  0  0  0  0  0  0  0  0  0  0
    9.1250   -4.6220   27.1100 C   0  0  0  0  0  0  0  0  0  0  0  0
    5.1090   -3.5980   26.2220 N   0  0  0  0  0  0  0  0  0  0  0  0
    7.8170   -4.7930   26.6430 C   0  0  0  0  0  0  0  0  0  0  0  0
    5.8720   -5.4050   20.0720 O   0  0  0  0  0  0  0  0  0  0  0  0
    6.9690   -5.0950   27.7110 C   0  0  0  0  0  0  0  0  0  0  0  0
    7.3360   -2.5150   26.2990 C   0  0  0  0  0  0  0  0  0  0  0  0
    6.0730   -4.0040   25.4040 C   0  0  0  0  0  0  0  0  0  0  0  0
    6.5450   -4.4720   20.5420 C   0  0  0  0  0  0  0  0  0  0  0  0
    7.1930   -3.5000   19.5600 C   0  0  0  0  0  0  0  0  0  0  0  0
    6.1970   -1.6320   22.3700 C   0  0  0  0  0  0  0  0  0  0  0  0
    0.5910   -0.7190   26.4660 C   0  0  0  0  0  0  0  0  0  0  0  0
    5.1670   -5.8790   26.3760 O   0  0  0  0  0  0  0  0  0  0  0  0
    4.5740   -7.1830   24.3360 O   0  0  0  0  0  0  0  0  0  0  0  0
    5.4280   -5.4190   19.5450 O   0  0  0  0  0  0  0  0  0  0  0  0
    5.4280   -4.8300   20.6030 C   0  0  0  0  0  0  0  0  0  0  0  0
    5.4230   -3.3170   20.8370 C   0  0  0  0  0  0  0  0  0  0  0  0
    4.6320   -5.9300   25.0200 S   0  0  0  0  0  0  0  0  0  0  0  0
    6.3190    0.4150   17.8270 N   0  0  0  0  0  0  0  0  0  0  0  0
    5.2710    1.2730   17.7830 C   0  0  0  0  0  0  0  0  0  0  0  0
    4.7580    1.8450   18.9350 C   0  0  0  0  0  0  0  0  0  0  0  0
    5.3210    1.5630   20.2430 C   0  0  0  0  0  0  0  0  0  0  0  0
    6.4910    0.6100   20.2410 C   0  0  0  0  0  0  0  0  0  0  0  0
    6.9100    0.0910   19.0170 C   0  0  0  0  0  0  0  0  0  0  0  0
    9.6880   -1.1390   21.7370 C   0  0  0  0  0  0  0  0  0  0  0  0
   11.0350   -1.3480   22.3940 C   0  0  0  0  0  0  0  0  0  0  0  0
   11.0600   -1.8950   23.8090 C   0  0  0  0  0  0  0  0  0  0  0  0
    9.7710   -2.2400   24.5280 C   0  0  0  0  0  0  0  0  0  0  0  0
    8.4730   -1.9980   23.7880 C   0  0  0  0  0  0  0  0  0  0  0  0
    8.5030   -1.4250   22.3630 C   0  0  0  0  0  0  0  0  0  0  0  0
    6.7210   -4.1820   22.0770 C   0  0  1  0  0  0  0  0  0  0  0  0
    5.7630   -3.1030   22.3390 C   0  0  1  0  0  0  0  0  0  0  0  0
    4.7450   -3.5200   23.4200 C   0  0  0  0  0  0  0  0  0  0  0  0
    5.4870   -4.6260   24.1350 C   0  0  1  0  0  0  0  0  0  0  0  0
    6.3310   -5.2840   23.1070 C   0  0  1  0  0  0  0  0  0  0  0  0
    7.7490   -4.6940   23.0100 C   0  0  1  0  0  0  0  0  0  0  0  0
    1.6420   -1.7490   26.2350 C   0  0  0  0  0  0  0  0  0  0  0  0
    1.3980   -2.9310   25.6340 C   0  0  0  0  0  0  0  0  0  0  0  0
    2.4330   -3.8380   25.4660 C   0  0  0  0  0  0  0  0  0  0  0  0
    3.8170   -3.8200   25.8080 C   0  0  0  0  0  0  0  0  0  0  0  0
    3.9040   -2.5360   26.4120 C   0  0  0  0  0  0  0  0  0  0  0  0
    2.9340   -1.5820   26.6160 C   0  0  0  0  0  0  0  0  0  0  0  0
    7.4590   -6.0940   23.3690 C   0  0  0  0  0  0  0  0  0  0  0  0
  2  4  1  0
  3  4  1  0
  3  7  1  0
  6  7  2  0
  7  9  1  0
  1 10  1  0
  9 10  1  0
  1 11  1  0
  8 11  2  0
  5 12  1  0
 12 11  1  6
 13 14  1  0
 13 15  1  0
 13 16  1  0
 17 20  1  0
 18 20  1  0
 20 22  1  0
 17 23  1  0
 17 24  1  0
 19 24  2  3
 21 25  2  0
 25 26  1  0
  5 27  1  0
 31 32  2  0
 32 33  1  0
 29 34  2  0
 30 34  2  0
 35 36  2  0
 36 37  1  0
 37 38  2  0
 12 39  1  0
 38 39  1  0
 35 40  1  0
 39 40  2  0
 41 42  2  0
 13 43  1  0
 42 43  1  0
 43 44  2  0
 44 45  1  0
  5 46  1  0
 41 46  1  0
 45 46  2  0
 47 25  1  6
 48 27  1  6
 48 33  1  0
 47 48  1  0
 48 49  1  0
 50 24  1  1
 34 50  1  0
 49 50  1  0
 47 51  1  0
 50 51  1  0
 47 52  1  0
 51 52  1  0
 28 53  1  0
 53 54  2  0
 54 55  1  0
 19 56  1  0
 55 56  2  0
 56 57  1  0
 53 58  1  0
 57 58  2  0
 51 59  1  6
 52 59  1  6
M  END
