x0734-x0981
     RDKit          3D

 30 32  0  0  0  0  0  0  0  0999 V2000
    1.2190   -8.7870   21.2420 C   0  0  0  0  0  0  0  0  0  0  0  0
    2.5270   -7.3160   22.6550 N   0  0  0  0  0  0  0  0  0  0  0  0
    0.3870   -6.7220   22.1340 O   0  0  0  0  0  0  0  0  0  0  0  0
    1.3150   -7.5190   22.0480 C   0  0  0  0  0  0  0  0  0  0  0  0
    2.3980   -8.3630   26.2770 N   0  0  0  0  0  0  0  0  0  0  0  0
    3.9330   -8.2520   24.6210 O   0  0  0  0  0  0  0  0  0  0  0  0
    2.7470   -6.1870   23.5320 C   0  0  1  0  0  0  0  0  0  0  0  0
    4.9440   -5.8680   22.0880 N   0  0  0  0  0  0  0  0  0  0  0  0
    4.5590   -4.6070   23.9440 N   0  0  0  0  0  0  0  0  0  0  0  0
    2.6080   -6.4480   24.9050 C   0  0  0  0  0  0  0  0  0  0  0  0
    3.0330   -7.7340   25.2410 C   0  0  0  0  0  0  0  0  0  0  0  0
    4.1190   -5.5560   23.1690 C   0  0  0  0  0  0  0  0  0  0  0  0
    5.1910   -4.5960   26.5710 N   0  0  0  0  0  0  0  0  0  0  0  0
    4.4280   -5.4160   26.0510 O   0  0  0  0  0  0  0  0  0  0  0  0
    4.8500   -3.4810   26.9970 O   0  0  0  0  0  0  0  0  0  0  0  0
    5.1400   -4.3540   19.7720 O   0  0  0  0  0  0  0  0  0  0  0  0
    6.2610   -3.9810   20.0690 C   0  0  0  0  0  0  0  0  0  0  0  0
    7.1580   -3.2070   19.0990 C   0  0  0  0  0  0  0  0  0  0  0  0
    6.6040   -4.8780   26.4630 C   0  0  0  0  0  0  0  0  0  0  0  0
    7.4120   -4.5100   25.2170 C   0  0  0  0  0  0  0  0  0  0  0  0
    8.7610   -4.8670   25.2850 C   0  0  0  0  0  0  0  0  0  0  0  0
    9.3030   -5.5550   26.5170 C   0  0  0  0  0  0  0  0  0  0  0  0
    8.5090   -5.8460   27.6080 C   0  0  0  0  0  0  0  0  0  0  0  0
    7.1690   -5.5140   27.5870 C   0  0  0  0  0  0  0  0  0  0  0  0
    6.8040   -4.2800   21.3040 N   0  0  0  0  0  0  0  0  0  0  0  0
    6.1770   -5.1250   22.3140 C   0  0  1  0  0  0  0  0  0  0  0  0
    5.8120   -4.2020   23.3000 C   0  0  2  0  0  0  0  0  0  0  0  0
    7.0010   -3.8830   24.0640 N   0  0  0  0  0  0  0  0  0  0  0  0
    8.0590   -3.3240   23.1870 C   0  0  0  0  0  0  0  0  0  0  0  0
    7.5730   -3.1360   21.9000 C   0  0  0  0  0  0  0  0  0  0  0  0
  1  4  1  0
  2  4  1  0
  3  4  2  0
  2  7  1  0
  7 10  1  1
  5 11  1  0
  6 11  2  0
 10 11  1  0
  7 12  1  0
  8 12  1  0
  9 12  2  0
 13 14  2  0
 13 15  1  0
 16 17  2  0
 17 18  1  0
 13 19  1  0
 19 20  2  0
 20 21  1  0
 21 22  2  0
 22 23  1  0
 19 24  1  0
 23 24  2  0
 17 25  1  0
 26  8  1  6
 25 26  1  0
 27  9  1  1
 26 27  1  0
 20 28  1  0
 27 28  1  0
 28 29  1  0
 25 30  1  0
 29 30  1  0
M  CHG  2  13   1  15  -1
M  END
