x0734-x3115-x3124
     RDKit          3D

 43 46  0  0  0  0  0  0  0  0999 V2000
    7.2590   -1.5080   22.5490 N   0  0  0  0  0  0  0  0  0  0  0  0
    7.2670    1.6880   22.7350 N   0  0  0  0  0  0  0  0  0  0  0  0
    9.0010    0.8640   21.3760 O   0  0  0  0  0  0  0  0  0  0  0  0
    8.4550    5.0860   22.9150 O   0  0  0  0  0  0  0  0  0  0  0  0
    6.8020   -0.2480   22.0220 C   0  0  1  0  0  0  0  0  0  0  0  0
    7.9160    0.7900   21.9390 C   0  0  0  0  0  0  0  0  0  0  0  0
    7.9640    2.8450   23.0860 C   0  0  0  0  0  0  0  0  0  0  0  0
    7.8220    4.1090   22.4800 C   0  0  0  0  0  0  0  0  0  0  0  0
    8.2420    6.1370   22.3020 C   0  0  0  0  0  0  0  0  0  0  0  0
   12.5800   -2.0180   24.2990 C   0  0  0  0  0  0  0  0  0  0  0  0
   13.4210   -2.1770   23.2140 C   0  0  0  0  0  0  0  0  0  0  0  0
   12.9310   -3.0900   25.3410 C   0  0  0  0  0  0  0  0  0  0  0  0
   12.8080   -0.6430   24.9030 C   0  0  0  0  0  0  0  0  0  0  0  0
    5.1670   -4.7470   26.1780 N   0  0  0  0  0  0  0  0  0  0  0  0
    4.5210   -5.6440   25.6210 O   0  0  0  0  0  0  0  0  0  0  0  0
    4.5580   -3.6050   26.8670 O   0  0  0  0  0  0  0  0  0  0  0  0
    5.1690   -4.1200   19.6680 O   0  0  0  0  0  0  0  0  0  0  0  0
    6.3440   -3.9080   19.9430 C   0  0  0  0  0  0  0  0  0  0  0  0
    7.3440   -3.2010   19.0240 C   0  0  0  0  0  0  0  0  0  0  0  0
    6.3730    0.0250   18.1160 N   0  0  0  0  0  0  0  0  0  0  0  0
    5.2240    0.6980   18.0680 C   0  0  0  0  0  0  0  0  0  0  0  0
    4.5180    1.0810   19.1630 C   0  0  0  0  0  0  0  0  0  0  0  0
    4.9800    0.7850   20.4310 C   0  0  0  0  0  0  0  0  0  0  0  0
    6.2470    0.0490   20.5970 C   0  0  0  0  0  0  0  0  0  0  0  0
    6.9650   -0.3500   19.4320 C   0  0  0  0  0  0  0  0  0  0  0  0
    9.7520   -1.6500   21.9920 C   0  0  0  0  0  0  0  0  0  0  0  0
   11.0130   -1.7860   22.5070 C   0  0  0  0  0  0  0  0  0  0  0  0
   11.2660   -1.9280   23.8490 C   0  0  0  0  0  0  0  0  0  0  0  0
   10.2190   -1.9510   24.7520 C   0  0  0  0  0  0  0  0  0  0  0  0
    8.8910   -1.8170   24.3180 C   0  0  0  0  0  0  0  0  0  0  0  0
    8.5710   -1.6580   22.9660 C   0  0  0  0  0  0  0  0  0  0  0  0
    6.6280   -4.7280   26.0220 C   0  0  0  0  0  0  0  0  0  0  0  0
    7.2390   -4.2340   24.8370 C   0  0  0  0  0  0  0  0  0  0  0  0
    8.6510   -4.2670   24.7710 C   0  0  0  0  0  0  0  0  0  0  0  0
    9.4140   -4.7680   25.8520 C   0  0  0  0  0  0  0  0  0  0  0  0
    8.7060   -5.2790   27.0990 C   0  0  0  0  0  0  0  0  0  0  0  0
    7.3160   -5.2430   27.1480 C   0  0  0  0  0  0  0  0  0  0  0  0
    6.8850   -4.3750   21.1250 N   0  0  0  0  0  0  0  0  0  0  0  0
    6.3740   -5.5010   21.9420 C   0  0  0  0  0  0  0  0  0  0  0  0
    5.6970   -4.9560   23.2190 C   0  0  0  0  0  0  0  0  0  0  0  0
    6.3640   -3.7380   23.7610 N   0  0  0  0  0  0  0  0  0  0  0  0
    6.6250   -2.7800   22.5690 C   0  0  2  0  0  0  0  0  0  0  0  0
    7.5140   -3.6220   21.7200 C   0  0  0  0  0  0  0  0  0  0  0  0
  1  5  1  0
  2  6  1  0
  3  6  2  0
  5  6  1  6
  2  7  1  0
  4  8  1  0
  7  8  1  0
  4  9  1  0
 10 11  1  0
 10 12  1  0
 10 13  1  0
 14 15  2  0
 14 16  1  0
 17 18  2  0
 18 19  1  0
 20 21  2  0
 21 22  1  0
 22 23  2  0
  5 24  1  0
 23 24  1  0
 20 25  1  0
 24 25  2  0
 26 27  2  0
 10 28  1  0
 27 28  1  0
 28 29  2  0
 29 30  1  0
  1 31  1  0
 26 31  1  0
 30 31  2  0
 14 32  1  0
 32 33  2  0
 33 34  1  0
 34 35  2  0
 35 36  1  0
 32 37  1  0
 36 37  2  0
 18 38  1  0
 38 39  1  0
 39 40  1  0
 33 41  1  0
 40 41  1  0
 42  1  1  1
 41 42  1  0
 38 43  1  0
 42 43  1  0
M  CHG  2  14   1  16  -1
M  END
