x0731-x1308-x2776
     RDKit          3D

 58 63  0  0  0  0  0  0  0  0999 V2000
    7.1350   -0.8150   22.1240 N   0  0  0  0  0  0  0  0  0  0  0  0
    7.8020    2.2690   22.9360 N   0  0  0  0  0  0  0  0  0  0  0  0
    8.8550    1.5480   21.0180 O   0  0  0  0  0  0  0  0  0  0  0  0
   11.0260    6.7320   23.9080 O   0  0  0  0  0  0  0  0  0  0  0  0
    6.7520    0.4950   21.6310 C   0  0  1  0  0  0  0  0  0  0  0  0
   12.4450   -2.8190   24.8800 O   0  0  0  0  0  0  0  0  0  0  0  0
    7.9270    1.4870   21.8180 C   0  0  0  0  0  0  0  0  0  0  0  0
   10.6790    1.9130   23.8380 C   0  0  0  0  0  0  0  0  0  0  0  0
   11.8050    6.5970   24.8510 C   0  0  0  0  0  0  0  0  0  0  0  0
   12.2970   -1.4430   24.5310 C   0  0  1  0  0  0  0  0  0  0  0  0
   13.2620   -1.0900   23.4210 C   0  0  0  0  0  0  0  0  0  0  0  0
   13.6830   -3.0160   25.4950 C   0  0  0  0  0  0  0  0  0  0  0  0
    0.6390   -0.7870   26.0060 C   0  0  0  0  0  0  0  0  0  0  0  0
    6.1260   -4.5390   26.5960 O   0  0  0  0  0  0  0  0  0  0  0  0
    4.4300   -6.5080   26.0320 N   0  0  0  0  0  0  0  0  0  0  0  0
    5.7540   -5.4270   19.9820 O   0  0  0  0  0  0  0  0  0  0  0  0
    6.2840   -4.4350   20.4430 C   0  0  0  0  0  0  0  0  0  0  0  0
    7.2620   -3.4740   19.6010 C   0  0  0  0  0  0  0  0  0  0  0  0
    5.1050   -5.1780   25.7980 S   0  0  1  0  0  0  0  0  0  0  0  0
    6.6520   -1.9480   21.4470 C   0  0  0  0  0  0  0  0  0  0  0  0
    5.7890   -2.6950   22.2140 C   0  0  0  0  0  0  0  0  0  0  0  0
    9.1740   -3.8210   22.1010 C   0  0  0  0  0  0  0  0  0  0  0  0
    8.0770   -5.8850   21.1080 O   0  0  0  0  0  0  0  0  0  0  0  0
    8.1800   -4.7670   21.9530 C   0  0  0  0  0  0  0  0  0  0  0  0
    6.3240    0.3470   17.8700 N   0  0  0  0  0  0  0  0  0  0  0  0
    5.1650    1.2880   17.7450 C   0  0  0  0  0  0  0  0  0  0  0  0
    4.6170    1.8650   18.8520 C   0  0  0  0  0  0  0  0  0  0  0  0
    5.2220    1.5120   20.0170 C   0  0  0  0  0  0  0  0  0  0  0  0
    6.3610    0.6000   20.1630 C   0  0  0  0  0  0  0  0  0  0  0  0
    6.8910    0.0240   19.0820 C   0  0  0  0  0  0  0  0  0  0  0  0
    9.9730    3.2330   23.6010 C   0  0  0  0  0  0  0  0  0  0  0  0
   10.7090    4.4210   23.8180 C   0  0  0  0  0  0  0  0  0  0  0  0
   10.1700    5.6930   23.6390 C   0  0  0  0  0  0  0  0  0  0  0  0
    8.8560    5.8150   23.2180 C   0  0  0  0  0  0  0  0  0  0  0  0
    8.1030    4.6550   22.9930 C   0  0  0  0  0  0  0  0  0  0  0  0
    8.6410    3.3650   23.1830 C   0  0  0  0  0  0  0  0  0  0  0  0
    9.4410   -1.4840   21.9240 C   0  0  0  0  0  0  0  0  0  0  0  0
   10.8690   -1.7100   22.4120 C   0  0  0  0  0  0  0  0  0  0  0  0
   11.0680   -1.3380   23.8870 C   0  0  0  0  0  0  0  0  0  0  0  0
    9.7810   -0.8290   24.5830 C   0  0  0  0  0  0  0  0  0  0  0  0
    8.5620   -0.6980   23.9710 C   0  0  0  0  0  0  0  0  0  0  0  0
    8.3960   -1.0130   22.6600 C   0  0  0  0  0  0  0  0  0  0  0  0
    1.6620   -1.8580   25.9100 C   0  0  0  0  0  0  0  0  0  0  0  0
    1.3860   -3.1080   25.3600 C   0  0  0  0  0  0  0  0  0  0  0  0
    2.3990   -4.2540   25.2540 C   0  0  0  0  0  0  0  0  0  0  0  0
    3.7930   -4.0300   25.7810 C   0  0  0  0  0  0  0  0  0  0  0  0
    4.0490   -2.6190   26.3720 C   0  0  0  0  0  0  0  0  0  0  0  0
    2.9400   -1.5940   26.4010 C   0  0  0  0  0  0  0  0  0  0  0  0
    5.8680   -4.1750   21.9300 C   0  0  2  0  0  0  0  0  0  0  0  0
    7.0210   -4.7130   22.6370 C   0  0  2  0  0  0  0  0  0  0  0  0
    6.9910   -4.6610   23.9630 C   0  0  0  0  0  0  0  0  0  0  0  0
    5.7940   -5.2630   24.2260 C   0  0  1  0  0  0  0  0  0  0  0  0
    5.2820   -6.2010   23.2810 C   0  0  0  0  0  0  0  0  0  0  0  0
    4.9380   -5.0510   22.7680 C   0  0  2  0  0  0  0  0  0  0  0  0
    7.2230   -5.8190   27.1070 O   0  0  0  0  0  0  0  0  0  0  0  0
    4.7660   -7.0810   27.1570 N   0  0  0  0  0  0  0  0  0  0  0  0
    5.9230   -6.2860   28.0230 S   0  0  0  0  0  0  0  0  0  0  0  0
    0.1890   -0.6090   27.6900 Cl  0  0  0  0  0  0  0  0  0  0  0  0
  1  5  1  0
  2  7  1  0
  3  7  2  0
  5  7  1  6
  4  9  1  0
  6 10  1  0
 10 11  1  6
  6 12  1  0
 16 17  2  0
 17 18  1  0
 14 19  2  0
 15 19  2  0
  1 20  1  0
 20 21  1  0
 22 24  1  0
 23 24  2  0
 25 26  2  0
 26 27  1  0
 27 28  2  0
  5 29  1  0
 28 29  1  0
 25 30  1  0
 29 30  2  0
  8 31  1  0
 31 32  2  0
  4 33  1  0
 32 33  1  0
 33 34  2  0
 34 35  1  0
  2 36  1  0
 31 36  1  0
 35 36  2  0
 37 38  2  0
 10 39  1  0
 38 39  1  0
 39 40  2  0
 40 41  1  0
  1 42  1  0
 37 42  1  0
 41 42  2  0
 13 43  1  0
 43 44  2  0
 44 45  1  0
 19 46  1  6
 45 46  2  0
 46 47  1  0
 43 48  1  0
 47 48  2  0
 49 17  1  0
 49 21  1  6
 50 24  1  6
 49 50  1  0
 50 51  1  0
 19 52  1  0
 52 51  1  1
 52 53  1  0
 49 54  1  0
 52 54  1  0
 54 53  1  6
 15 56  1  0
 55 57  2  0
 56 57  2  0
 13 58  1  0
M  END
