x0734-x3113
     RDKit          3D

 44 47  0  0  0  0  0  0  0  0999 V2000
    7.3490   -1.5170   22.5750 N   0  0  0  0  0  0  0  0  0  0  0  0
    8.3470    1.3070   23.3640 N   0  0  0  0  0  0  0  0  0  0  0  0
    8.6300    1.4070   21.0980 O   0  0  0  0  0  0  0  0  0  0  0  0
   12.4000    3.6700   22.5080 O   0  0  0  0  0  0  0  0  0  0  0  0
    6.8860   -0.1640   22.0050 C   0  0  1  0  0  0  0  0  0  0  0  0
    8.0380    0.9150   22.0760 C   0  0  0  0  0  0  0  0  0  0  0  0
    9.0440    2.5480   23.5730 C   0  0  0  0  0  0  0  0  0  0  0  0
   10.5730    2.3650   23.4590 C   0  0  0  0  0  0  0  0  0  0  0  0
   11.2260    3.7500   23.2810 C   0  0  0  0  0  0  0  0  0  0  0  0
   13.2270    4.8180   22.6530 C   0  0  0  0  0  0  0  0  0  0  0  0
   12.7180   -2.1000   24.3630 C   0  0  0  0  0  0  0  0  0  0  0  0
   13.5980   -2.3570   23.1610 C   0  0  0  0  0  0  0  0  0  0  0  0
   13.0740   -3.1300   25.4380 C   0  0  0  0  0  0  0  0  0  0  0  0
   12.9050   -0.7010   24.9100 C   0  0  0  0  0  0  0  0  0  0  0  0
    5.0730   -4.6680   25.9910 N   0  0  0  0  0  0  0  0  0  0  0  0
    4.4120   -5.6060   25.5140 O   0  0  0  0  0  0  0  0  0  0  0  0
    4.6080   -3.7950   26.7380 O   0  0  0  0  0  0  0  0  0  0  0  0
    5.0910   -4.2830   19.7390 O   0  0  0  0  0  0  0  0  0  0  0  0
    6.2540   -4.0630   20.0310 C   0  0  0  0  0  0  0  0  0  0  0  0
    7.1410   -3.2230   19.1230 C   0  0  0  0  0  0  0  0  0  0  0  0
    6.5110   -0.0040   18.0880 N   0  0  0  0  0  0  0  0  0  0  0  0
    5.3600    0.6990   18.0690 C   0  0  0  0  0  0  0  0  0  0  0  0
    4.6470    1.1330   19.1930 C   0  0  0  0  0  0  0  0  0  0  0  0
    5.1350    0.8420   20.4810 C   0  0  0  0  0  0  0  0  0  0  0  0
    6.3300    0.1210   20.5890 C   0  0  0  0  0  0  0  0  0  0  0  0
    7.0190   -0.3090   19.3040 C   0  0  0  0  0  0  0  0  0  0  0  0
    9.7220   -1.5490   22.0020 C   0  0  0  0  0  0  0  0  0  0  0  0
   11.1470   -1.7080   22.4190 C   0  0  0  0  0  0  0  0  0  0  0  0
   11.3260   -1.9850   23.9010 C   0  0  0  0  0  0  0  0  0  0  0  0
   10.2640   -2.0900   24.7480 C   0  0  0  0  0  0  0  0  0  0  0  0
    8.9870   -1.9330   24.2900 C   0  0  0  0  0  0  0  0  0  0  0  0
    8.7200   -1.6650   22.9520 C   0  0  0  0  0  0  0  0  0  0  0  0
    6.5660   -4.8320   25.9750 C   0  0  0  0  0  0  0  0  0  0  0  0
    7.1750   -4.3280   24.7910 C   0  0  0  0  0  0  0  0  0  0  0  0
    8.5850   -4.4270   24.6700 C   0  0  0  0  0  0  0  0  0  0  0  0
    9.3740   -5.0830   25.8310 C   0  0  0  0  0  0  0  0  0  0  0  0
    8.6750   -5.6170   27.0860 C   0  0  0  0  0  0  0  0  0  0  0  0
    7.1690   -5.4420   27.0880 C   0  0  0  0  0  0  0  0  0  0  0  0
    6.8580   -4.6040   21.1580 N   0  0  0  0  0  0  0  0  0  0  0  0
    6.0810   -5.5390   21.9670 C   0  0  0  0  0  0  0  0  0  0  0  0
    5.4980   -4.8810   23.2260 C   0  0  0  0  0  0  0  0  0  0  0  0
    6.3230   -3.7480   23.7500 N   0  0  0  0  0  0  0  0  0  0  0  0
    6.7060   -2.8690   22.5350 C   0  0  2  0  0  0  0  0  0  0  0  0
    7.6280   -3.6400   21.8950 C   0  0  0  0  0  0  0  0  0  0  0  0
  1  5  1  0
  2  6  1  0
  3  6  2  0
  5  6  1  6
  2  7  1  0
  7  8  1  0
  4  9  1  0
  8  9  1  0
  4 10  1  0
 11 12  1  0
 11 13  1  0
 11 14  1  0
 15 16  2  0
 15 17  1  0
 18 19  2  0
 19 20  1  0
 21 22  2  0
 22 23  1  0
 23 24  2  0
  5 25  1  0
 24 25  1  0
 21 26  1  0
 25 26  2  0
 27 28  2  0
 11 29  1  0
 28 29  1  0
 29 30  2  0
 30 31  1  0
  1 32  1  0
 27 32  1  0
 31 32  2  0
 15 33  1  0
 33 34  2  0
 34 35  1  0
 35 36  2  0
 36 37  1  0
 33 38  1  0
 37 38  2  0
 19 39  1  0
 39 40  1  0
 40 41  1  0
 34 42  1  0
 41 42  1  0
 43  1  1  1
 42 43  1  0
 39 44  1  0
 43 44  1  0
M  CHG  2  15   1  17  -1
M  END
