x0731-x1249
     RDKit          3D

 39 42  0  0  0  0  0  0  0  0999 V2000
    1.0920   -1.0110   26.0790 C   0  0  0  0  0  0  0  0  0  0  0  0
    6.3530   -5.0020   26.8280 O   0  0  0  0  0  0  0  0  0  0  0  0
    4.7440   -6.7200   25.9980 O   0  0  0  0  0  0  0  0  0  0  0  0
    5.3000   -5.1440   20.0070 O   0  0  0  0  0  0  0  0  0  0  0  0
    6.2730   -4.6280   20.4970 C   0  0  0  0  0  0  0  0  0  0  0  0
    6.9850   -3.4870   19.7600 C   0  0  0  0  0  0  0  0  0  0  0  0
    5.3760   -5.4260   25.8530 S   0  0  0  0  0  0  0  0  0  0  0  0
    8.2620    0.4630   24.9220 N   0  0  0  0  0  0  0  0  0  0  0  0
    7.6320    1.4160   23.9740 C   0  0  0  0  0  0  0  0  0  0  0  0
    8.3930    2.3290   23.1970 O   0  0  0  0  0  0  0  0  0  0  0  0
    9.5580    0.7970   25.2480 C   0  0  0  0  0  0  0  0  0  0  0  0
   13.5590   -2.7790   20.7040 N   0  0  0  0  0  0  0  0  0  0  0  0
   12.9460   -1.8700   21.6130 C   0  0  0  0  0  0  0  0  0  0  0  0
    1.7770    0.1800   25.5040 C   0  0  0  0  0  0  0  0  0  0  0  0
    3.0670   -0.1560   24.7580 C   0  0  0  0  0  0  0  0  0  0  0  0
    2.1000   -2.0940   26.0210 C   0  0  0  0  0  0  0  0  0  0  0  0
    1.8720   -3.4300   25.3120 C   0  0  0  0  0  0  0  0  0  0  0  0
    2.8720   -4.4220   25.2710 C   0  0  0  0  0  0  0  0  0  0  0  0
    4.0970   -4.2010   25.8830 C   0  0  0  0  0  0  0  0  0  0  0  0
    4.2940   -2.8750   26.5800 C   0  0  0  0  0  0  0  0  0  0  0  0
    3.3250   -1.8950   26.6280 C   0  0  0  0  0  0  0  0  0  0  0  0
    6.7670   -5.1200   21.7220 N   0  0  0  0  0  0  0  0  0  0  0  0
    7.2450   -4.2030   22.6000 C   0  0  0  0  0  0  0  0  0  0  0  0
    6.4480   -4.1570   23.7500 C   0  0  0  0  0  0  0  0  0  0  0  0
    6.0480   -5.3920   24.2810 N   0  0  0  0  0  0  0  0  0  0  0  0
    5.4580   -6.1210   23.3050 C   0  0  0  0  0  0  0  0  0  0  0  0
    6.2030   -6.2540   22.1590 C   0  0  0  0  0  0  0  0  0  0  0  0
    3.8500    1.0000   24.3410 N   0  0  0  0  0  0  0  0  0  0  0  0
    4.2640    0.9830   23.0490 C   0  0  0  0  0  0  0  0  0  0  0  0
    5.5150    1.5700   22.7560 C   0  0  0  0  0  0  0  0  0  0  0  0
    6.2660    1.3820   23.9020 N   0  0  0  0  0  0  0  0  0  0  0  0
    5.7010    2.0830   24.9110 C   0  0  0  0  0  0  0  0  0  0  0  0
    4.9290    0.9800   25.1520 C   0  0  0  0  0  0  0  0  0  0  0  0
   11.7000    0.8170   23.8370 C   0  0  0  0  0  0  0  0  0  0  0  0
   12.5680    0.1820   22.9340 C   0  0  0  0  0  0  0  0  0  0  0  0
   12.2130   -1.0980   22.5090 C   0  0  0  0  0  0  0  0  0  0  0  0
   11.0680   -1.6890   22.9690 C   0  0  0  0  0  0  0  0  0  0  0  0
   10.2060   -1.1070   23.8450 C   0  0  0  0  0  0  0  0  0  0  0  0
   10.5180    0.1720   24.2930 C   0  0  0  0  0  0  0  0  0  0  0  0
  4  5  2  0
  5  6  1  0
  2  7  2  0
  3  7  2  0
  8  9  1  0
  9 10  2  0
  8 11  1  0
 12 13  3  0
  1 14  1  0
 14 15  1  0
  1 16  1  0
 16 17  2  0
 17 18  1  0
  7 19  1  0
 18 19  2  0
 19 20  1  0
 16 21  1  0
 20 21  2  0
  5 22  1  0
 22 23  1  0
 23 24  1  0
  7 25  1  0
 24 25  1  0
 25 26  1  0
 22 27  1  0
 26 27  1  0
 15 28  1  0
 28 29  1  0
 29 30  1  0
  9 31  1  0
 30 31  1  0
 31 32  1  0
 28 33  1  0
 32 33  1  0
 34 35  2  0
 13 36  1  0
 35 36  1  0
 36 37  2  0
 37 38  1  0
 11 39  1  0
 34 39  1  0
 38 39  2  0
M  END
