x0731-x0978-x2694
     RDKit          3D

 59 63  0  0  0  0  0  0  0  0999 V2000
    7.5100   -1.1140   22.0000 N   0  0  0  0  0  0  0  0  0  0  0  0
    7.7190    2.3770   22.8280 N   0  0  0  0  0  0  0  0  0  0  0  0
    9.1730    1.6010   21.1510 O   0  0  0  0  0  0  0  0  0  0  0  0
   10.9470    6.8390   23.8990 O   0  0  0  0  0  0  0  0  0  0  0  0
    7.0300    0.1960   21.6870 C   0  0  1  0  0  0  0  0  0  0  0  0
    7.9890    1.3950   21.9040 C   0  0  0  0  0  0  0  0  0  0  0  0
   10.3120    1.9570   24.0030 C   0  0  0  0  0  0  0  0  0  0  0  0
   11.8870    6.7250   24.9630 C   0  0  0  0  0  0  0  0  0  0  0  0
   12.3800   -1.4420   23.1860 C   0  0  0  0  0  0  0  0  0  0  0  0
   12.8460   -0.0210   23.5240 C   0  0  0  0  0  0  0  0  0  0  0  0
   12.9060   -1.9850   21.8570 C   0  0  0  0  0  0  0  0  0  0  0  0
   12.9030   -2.3550   24.3030 C   0  0  0  0  0  0  0  0  0  0  0  0
    2.2030   -5.5050   22.9330 N   0  0  0  0  0  0  0  0  0  0  0  0
    1.9470   -7.9120   24.7940 C   0  0  0  0  0  0  0  0  0  0  0  0
    4.2820   -7.9880   24.5670 O   0  0  0  0  0  0  0  0  0  0  0  0
    3.1400   -7.4750   23.9260 C   0  0  2  0  0  0  0  0  0  0  0  0
    0.9820   -7.4050   22.2850 O   0  0  0  0  0  0  0  0  0  0  0  0
    3.2480   -5.9520   23.8270 C   0  0  1  0  0  0  0  0  0  0  0  0
    4.3200   -3.9590   23.5230 O   0  0  0  0  0  0  0  0  0  0  0  0
    0.9770   -6.2470   22.6850 C   0  0  0  0  0  0  0  0  0  0  0  0
   -0.2270   -5.5800   22.8730 C   0  0  0  0  0  0  0  0  0  0  0  0
    6.5950   -2.0210   22.6520 C   0  0  0  0  0  0  0  0  0  0  0  0
    5.7310   -2.8880   21.9520 C   0  0  0  0  0  0  0  0  0  0  0  0
    0.9490   -0.8620   25.9540 C   0  0  0  0  0  0  0  0  0  0  0  0
    6.2270   -4.6010   26.9380 O   0  0  0  0  0  0  0  0  0  0  0  0
    4.5990   -6.4520   26.5110 O   0  0  0  0  0  0  0  0  0  0  0  0
    5.7240   -5.6300   19.9580 O   0  0  0  0  0  0  0  0  0  0  0  0
    6.2220   -4.6240   20.4290 C   0  0  0  0  0  0  0  0  0  0  0  0
    6.8780   -3.5350   19.5890 C   0  0  0  0  0  0  0  0  0  0  0  0
    5.2160   -5.2060   26.1280 S   0  0  0  0  0  0  0  0  0  0  0  0
    6.3330    0.1970   17.9220 N   0  0  0  0  0  0  0  0  0  0  0  0
    5.2220    0.9690   17.9110 C   0  0  0  0  0  0  0  0  0  0  0  0
    4.6420    1.5000   19.0460 C   0  0  0  0  0  0  0  0  0  0  0  0
    5.2540    1.2190   20.2580 C   0  0  0  0  0  0  0  0  0  0  0  0
    6.3910    0.4420   20.3230 C   0  0  0  0  0  0  0  0  0  0  0  0
    6.9000   -0.0600   19.1150 C   0  0  0  0  0  0  0  0  0  0  0  0
    8.8150   -1.3490   24.1320 N   0  0  0  0  0  0  0  0  0  0  0  0
   10.1750   -1.4390   24.3940 O   0  0  0  0  0  0  0  0  0  0  0  0
   10.8720   -1.3820   23.2160 C   0  0  0  0  0  0  0  0  0  0  0  0
    9.9880   -1.2550   22.1370 C   0  0  0  0  0  0  0  0  0  0  0  0
    8.7350   -1.2320   22.6720 C   0  0  0  0  0  0  0  0  0  0  0  0
    9.7950    3.3350   23.6580 C   0  0  0  0  0  0  0  0  0  0  0  0
   10.6130    4.4270   23.9250 C   0  0  0  0  0  0  0  0  0  0  0  0
   10.2050    5.7230   23.6480 C   0  0  0  0  0  0  0  0  0  0  0  0
    8.9460    5.9160   23.0740 C   0  0  0  0  0  0  0  0  0  0  0  0
    8.1190    4.8130   22.7970 C   0  0  0  0  0  0  0  0  0  0  0  0
    8.5340    3.5160   23.0910 C   0  0  0  0  0  0  0  0  0  0  0  0
    1.9960   -1.9290   25.9760 C   0  0  0  0  0  0  0  0  0  0  0  0
    1.7340   -3.2180   25.5770 C   0  0  0  0  0  0  0  0  0  0  0  0
    2.6610   -4.2540   25.5910 C   0  0  0  0  0  0  0  0  0  0  0  0
    3.9460   -3.9670   26.0380 C   0  0  0  0  0  0  0  0  0  0  0  0
    4.2690   -2.6650   26.4460 C   0  0  0  0  0  0  0  0  0  0  0  0
    3.2900   -1.6690   26.4090 C   0  0  0  0  0  0  0  0  0  0  0  0
    6.1330   -4.3990   21.8870 C   0  0  1  0  0  0  0  0  0  0  0  0
    7.2750   -4.6440   22.6110 C   0  0  0  0  0  0  0  0  0  0  0  0
    7.0260   -4.8270   24.1220 C   0  0  0  0  0  0  0  0  0  0  0  0
    5.6890   -5.4140   24.4890 N   0  0  0  0  0  0  0  0  0  0  0  0
    4.5890   -5.3420   23.5250 C   0  0  1  0  0  0  0  0  0  0  0  0
    5.1390   -5.5070   22.2990 C   0  0  0  0  0  0  0  0  0  0  0  0
  1  5  1  0
  2  6  1  0
  3  6  2  0
  5  6  1  6
  4  8  1  0
  9 10  1  0
  9 11  1  0
  9 12  1  0
 16 14  1  1
 15 16  1  0
 18 13  1  6
 16 18  1  0
 13 20  1  0
 17 20  2  0
 20 21  1  0
  1 22  1  0
 22 23  1  0
 27 28  2  0
 28 29  1  0
 25 30  2  0
 26 30  2  0
 31 32  2  0
 32 33  1  0
 33 34  2  0
  5 35  1  0
 34 35  1  0
 31 36  1  0
 35 36  2  0
 37 38  1  0
  9 39  1  0
 38 39  1  0
 39 40  2  0
  1 41  1  0
 37 41  2  0
 40 41  1  0
  7 42  1  0
 42 43  2  0
  4 44  1  0
 43 44  1  0
 44 45  2  0
 45 46  1  0
  2 47  1  0
 42 47  1  0
 46 47  2  0
 24 48  1  0
 48 49  2  0
 49 50  1  0
 30 51  1  0
 50 51  2  0
 51 52  1  0
 48 53  1  0
 52 53  2  0
 54 23  1  6
 54 28  1  0
 54 55  1  0
 55 56  1  0
 30 57  1  0
 56 57  1  0
 18 58  1  0
 58 19  1  6
 57 58  1  0
 54 59  1  0
 58 59  1  0
M  END
