x0734-x3115-x0981
     RDKit          3D

 55 59  0  0  0  0  0  0  0  0999 V2000
    7.6170   -1.6150   21.5500 N   0  0  0  0  0  0  0  0  0  0  0  0
    7.4960    1.7010   22.9650 N   0  0  0  0  0  0  0  0  0  0  0  0
    8.6820    1.1990   21.0540 O   0  0  0  0  0  0  0  0  0  0  0  0
    8.3880    4.9990   23.0280 O   0  0  0  0  0  0  0  0  0  0  0  0
    6.8370   -0.3270   21.6260 C   0  0  1  0  0  0  0  0  0  0  0  0
    7.7820    0.9240   21.8550 C   0  0  0  0  0  0  0  0  0  0  0  0
    8.2030    2.7280   23.2890 C   0  0  0  0  0  0  0  0  0  0  0  0
    7.8330    4.0060   22.5230 C   0  0  0  0  0  0  0  0  0  0  0  0
    8.2470    6.0200   22.3430 C   0  0  0  0  0  0  0  0  0  0  0  0
   12.5740   -1.8960   24.3950 C   0  0  0  0  0  0  0  0  0  0  0  0
   13.5250   -2.0370   23.2260 C   0  0  0  0  0  0  0  0  0  0  0  0
   12.8570   -3.0740   25.3300 C   0  0  0  0  0  0  0  0  0  0  0  0
   12.7460   -0.5820   25.0920 C   0  0  0  0  0  0  0  0  0  0  0  0
    1.3320   -8.5510   21.5950 C   0  0  0  0  0  0  0  0  0  0  0  0
    2.4770   -7.1210   22.6270 N   0  0  0  0  0  0  0  0  0  0  0  0
    0.2790   -6.5040   22.1510 O   0  0  0  0  0  0  0  0  0  0  0  0
    1.2410   -7.2690   22.1400 C   0  0  0  0  0  0  0  0  0  0  0  0
    2.3480   -8.4170   26.2020 N   0  0  0  0  0  0  0  0  0  0  0  0
    3.9930   -8.2870   24.6520 O   0  0  0  0  0  0  0  0  0  0  0  0
    2.7720   -6.1980   23.5820 C   0  0  1  0  0  0  0  0  0  0  0  0
    4.5050   -5.4670   22.0590 N   0  0  0  0  0  0  0  0  0  0  0  0
    4.6250   -5.0450   24.3270 N   0  0  0  0  0  0  0  0  0  0  0  0
    2.5800   -6.5490   24.9080 C   0  0  0  0  0  0  0  0  0  0  0  0
    3.0500   -7.8020   25.2140 C   0  0  0  0  0  0  0  0  0  0  0  0
    3.9710   -5.5890   23.2990 C   0  0  0  0  0  0  0  0  0  0  0  0
    5.3370   -4.7700   26.5840 N   0  0  0  0  0  0  0  0  0  0  0  0
    4.6880   -5.7670   26.2600 O   0  0  0  0  0  0  0  0  0  0  0  0
    4.8480   -3.6590   26.8580 O   0  0  0  0  0  0  0  0  0  0  0  0
    5.1150   -4.5940   19.7830 O   0  0  0  0  0  0  0  0  0  0  0  0
    5.9700   -3.8200   20.1100 C   0  0  0  0  0  0  0  0  0  0  0  0
    6.9370   -3.1590   19.1210 C   0  0  0  0  0  0  0  0  0  0  0  0
    6.3460    0.3010   17.8790 N   0  0  0  0  0  0  0  0  0  0  0  0
    5.1970    1.0040   17.9260 C   0  0  0  0  0  0  0  0  0  0  0  0
    4.5420    1.2920   19.0340 C   0  0  0  0  0  0  0  0  0  0  0  0
    5.0350    0.8690   20.2470 C   0  0  0  0  0  0  0  0  0  0  0  0
    6.2300    0.1360   20.3070 C   0  0  0  0  0  0  0  0  0  0  0  0
    6.8400   -0.1220   19.0800 C   0  0  0  0  0  0  0  0  0  0  0  0
    9.7930   -2.1070   21.8830 C   0  0  0  0  0  0  0  0  0  0  0  0
   10.9600   -2.2140   22.4830 C   0  0  0  0  0  0  0  0  0  0  0  0
   11.2710   -1.7890   23.7560 C   0  0  0  0  0  0  0  0  0  0  0  0
   10.0810   -1.1110   24.5240 C   0  0  0  0  0  0  0  0  0  0  0  0
    8.7010   -0.9790   23.7960 C   0  0  0  0  0  0  0  0  0  0  0  0
    8.7030   -1.5550   22.4010 C   0  0  0  0  0  0  0  0  0  0  0  0
    6.7840   -4.8800   26.5230 C   0  0  0  0  0  0  0  0  0  0  0  0
    7.5360   -4.6870   25.3420 C   0  0  0  0  0  0  0  0  0  0  0  0
    8.9360   -4.8040   25.3680 C   0  0  0  0  0  0  0  0  0  0  0  0
    9.6370   -5.1100   26.5170 C   0  0  0  0  0  0  0  0  0  0  0  0
    8.9670   -5.3150   27.6940 C   0  0  0  0  0  0  0  0  0  0  0  0
    7.4340   -5.1970   27.7220 C   0  0  0  0  0  0  0  0  0  0  0  0
    6.0290   -3.5490   21.4720 N   0  0  0  0  0  0  0  0  0  0  0  0
    5.7720   -4.7580   22.2250 C   0  0  1  0  0  0  0  0  0  0  0  0
    5.7060   -4.3610   23.6570 C   0  0  2  0  0  0  0  0  0  0  0  0
    7.0780   -4.3790   24.0670 N   0  0  0  0  0  0  0  0  0  0  0  0
    7.6760   -3.1920   23.4420 C   0  0  0  0  0  0  0  0  0  0  0  0
    7.3060   -3.0170   21.9400 C   0  0  2  0  0  0  0  0  0  0  0  0
  1  5  1  0
  2  6  1  0
  3  6  2  0
  5  6  1  6
  2  7  1  0
  4  8  1  0
  7  8  1  0
  4  9  1  0
 10 11  1  0
 10 12  1  0
 10 13  1  0
 14 17  1  0
 15 17  1  0
 16 17  2  0
 15 20  1  0
 20 23  1  1
 18 24  1  0
 19 24  2  0
 23 24  1  0
 20 25  1  0
 21 25  1  0
 22 25  2  0
 26 27  2  0
 26 28  1  0
 29 30  2  0
 30 31  1  0
 32 33  2  0
 33 34  1  0
 34 35  2  0
  5 36  1  0
 35 36  1  0
 32 37  1  0
 36 37  2  0
 38 39  2  0
 10 40  1  0
 39 40  1  0
 40 41  2  0
 41 42  1  0
  1 43  1  0
 38 43  1  0
 42 43  2  0
 26 44  1  0
 44 45  2  0
 45 46  1  0
 46 47  2  0
 47 48  1  0
 44 49  1  0
 48 49  2  0
 30 50  1  0
 51 21  1  6
 50 51  1  0
 52 22  1  1
 51 52  1  0
 45 53  1  0
 52 53  1  0
 53 54  1  0
 55  1  1  1
 50 55  1  0
 54 55  1  0
M  CHG  2  26   1  28  -1
M  END
