x0731-x2776
     RDKit          3D

 51 55  0  0  0  0  0  0  0  0999 V2000
    7.0170   -1.0560   21.8040 N   0  0  0  0  0  0  0  0  0  0  0  0
    7.8900    2.1010   22.9200 N   0  0  0  0  0  0  0  0  0  0  0  0
    8.8990    1.4430   21.0030 O   0  0  0  0  0  0  0  0  0  0  0  0
   10.7360    6.9240   23.8350 O   0  0  0  0  0  0  0  0  0  0  0  0
    6.7480    0.3800   21.5890 C   0  0  1  0  0  0  0  0  0  0  0  0
   12.4260   -2.8490   24.9590 O   0  0  0  0  0  0  0  0  0  0  0  0
    7.9610    1.3350   21.7830 C   0  0  0  0  0  0  0  0  0  0  0  0
   10.5510    1.7850   23.7510 C   0  0  0  0  0  0  0  0  0  0  0  0
   11.8420    6.9080   24.7560 C   0  0  0  0  0  0  0  0  0  0  0  0
   12.4180   -1.9970   24.0840 C   0  0  2  0  0  0  0  0  0  0  0  0
   12.9160   -0.6350   24.4670 C   0  0  0  0  0  0  0  0  0  0  0  0
   13.5520   -3.0160   25.3960 C   0  0  0  0  0  0  0  0  0  0  0  0
    1.0740   -0.9730   26.0610 C   0  0  0  0  0  0  0  0  0  0  0  0
    6.5810   -4.8000   26.7790 O   0  0  0  0  0  0  0  0  0  0  0  0
    4.8700   -6.5800   26.2420 O   0  0  0  0  0  0  0  0  0  0  0  0
    5.4600   -5.1520   19.9920 O   0  0  0  0  0  0  0  0  0  0  0  0
    6.2810   -4.4050   20.4910 C   0  0  0  0  0  0  0  0  0  0  0  0
    7.0990   -3.4310   19.6460 C   0  0  0  0  0  0  0  0  0  0  0  0
    5.4870   -5.2950   25.9900 S   0  0  0  0  0  0  0  0  0  0  0  0
    5.9670   -2.0710   21.7710 C   0  0  0  0  0  0  0  0  0  0  0  0
    6.0600   -3.1340   22.6320 C   0  0  0  0  0  0  0  0  0  0  0  0
    6.3700    0.4470   17.7930 N   0  0  0  0  0  0  0  0  0  0  0  0
    5.2120    1.3320   17.7350 C   0  0  0  0  0  0  0  0  0  0  0  0
    4.6110    1.8370   18.8920 C   0  0  0  0  0  0  0  0  0  0  0  0
    5.0920    1.5320   20.1580 C   0  0  0  0  0  0  0  0  0  0  0  0
    6.1930    0.7080   20.2420 C   0  0  0  0  0  0  0  0  0  0  0  0
    6.8320    0.1550   18.9980 C   0  0  0  0  0  0  0  0  0  0  0  0
    9.9280    3.1360   23.5520 C   0  0  0  0  0  0  0  0  0  0  0  0
   10.8100    4.3410   23.8230 C   0  0  0  0  0  0  0  0  0  0  0  0
   10.1140    5.6770   23.6190 C   0  0  0  0  0  0  0  0  0  0  0  0
    8.7840    5.7360   23.2020 C   0  0  0  0  0  0  0  0  0  0  0  0
    8.0530    4.5690   22.9670 C   0  0  0  0  0  0  0  0  0  0  0  0
    8.6040    3.2870   23.1420 C   0  0  0  0  0  0  0  0  0  0  0  0
    9.3650   -1.8690   21.7980 C   0  0  0  0  0  0  0  0  0  0  0  0
   10.6590   -2.1040   22.3150 C   0  0  0  0  0  0  0  0  0  0  0  0
   11.0410   -1.7500   23.6120 C   0  0  0  0  0  0  0  0  0  0  0  0
    9.9520   -1.1000   24.4360 C   0  0  0  0  0  0  0  0  0  0  0  0
    8.5680   -0.8430   23.9120 C   0  0  0  0  0  0  0  0  0  0  0  0
    8.3060   -1.2640   22.4900 C   0  0  0  0  0  0  0  0  0  0  0  0
    2.1430   -2.0190   26.0190 C   0  0  0  0  0  0  0  0  0  0  0  0
    1.9400   -3.3800   25.3910 C   0  0  0  0  0  0  0  0  0  0  0  0
    2.9530   -4.3280   25.3900 C   0  0  0  0  0  0  0  0  0  0  0  0
    4.2030   -4.0690   25.9670 C   0  0  0  0  0  0  0  0  0  0  0  0
    4.3770   -2.8050   26.5300 C   0  0  0  0  0  0  0  0  0  0  0  0
    3.4100   -1.7950   26.5720 C   0  0  0  0  0  0  0  0  0  0  0  0
    6.3980   -4.5210   22.0070 C   0  0  0  0  0  0  0  0  0  0  0  0
    7.5340   -4.9570   22.6730 C   0  0  0  0  0  0  0  0  0  0  0  0
    7.4360   -4.9740   24.0750 C   0  0  0  0  0  0  0  0  0  0  0  0
    6.0320   -5.3280   24.4150 N   0  0  0  0  0  0  0  0  0  0  0  0
    5.3390   -6.2460   23.4970 C   0  0  0  0  0  0  0  0  0  0  0  0
    5.2670   -5.5680   22.1840 C   0  0  0  0  0  0  0  0  0  0  0  0
  1  5  1  0
  2  7  1  0
  3  7  2  0
  5  7  1  6
  4  9  1  0
  6 10  1  0
 10 11  1  1
  6 12  1  0
 16 17  2  0
 17 18  1  0
 14 19  2  0
 15 19  2  0
  1 20  1  0
 20 21  1  0
 22 23  2  0
 23 24  1  0
 24 25  2  0
  5 26  1  0
 25 26  1  0
 22 27  1  0
 26 27  2  0
  8 28  1  0
 28 29  2  0
  4 30  1  0
 29 30  1  0
 30 31  2  0
 31 32  1  0
  2 33  1  0
 28 33  1  0
 32 33  2  0
 34 35  2  0
 10 36  1  0
 35 36  1  0
 36 37  2  0
 37 38  1  0
  1 39  1  0
 34 39  1  0
 38 39  2  0
 13 40  1  0
 40 41  2  0
 41 42  1  0
 19 43  1  0
 42 43  2  0
 43 44  1  0
 40 45  1  0
 44 45  2  0
 46 17  1  0
 21 46  1  0
 46 47  1  0
 47 48  1  0
 19 49  1  0
 48 49  1  0
 49 50  1  0
 46 51  1  0
 50 51  1  0
M  END
