x0736-x1412
     RDKit          3D

 21 23  0  0  0  0  0  0  0  0999 V2000
    7.4140   -3.0380   18.8740 C   0  0  0  0  0  0  0  0  0  0  0  0
    5.4330   -4.0900   19.7260 O   0  0  0  0  0  0  0  0  0  0  0  0
    6.4030   -3.3590   19.9690 C   0  0  0  0  0  0  0  0  0  0  0  0
    6.4660   -2.7110   25.0460 O   0  0  0  0  0  0  0  0  0  0  0  0
    7.6840   -2.6630   24.9420 C   0  0  1  0  0  0  0  0  0  0  0  0
    6.6280   -2.8310   21.2630 N   0  0  0  0  0  0  0  0  0  0  0  0
    7.6510   -1.8270   21.5770 C   0  0  0  0  0  0  0  0  0  0  0  0
    8.6910   -2.1560   22.6110 C   0  0  0  0  0  0  0  0  0  0  0  0
    8.2020   -2.9760   23.6220 N   0  0  0  0  0  0  0  0  0  0  0  0
    7.5960   -4.1640   22.9980 C   0  0  0  0  0  0  0  0  0  0  0  0
    6.2720   -3.6910   22.3870 C   0  0  0  0  0  0  0  0  0  0  0  0
    8.6820   -0.3910   24.8470 O   0  0  0  0  0  0  0  0  0  0  0  0
    8.2960   -1.5870   25.5750 C   0  0  0  0  0  0  0  0  0  0  0  0
    8.6530   -1.4100   26.8930 C   0  0  0  0  0  0  0  0  0  0  0  0
    9.2320   -0.1960   26.9940 C   0  0  0  0  0  0  0  0  0  0  0  0
    9.2560    0.4350   25.7680 C   0  0  0  0  0  0  0  0  0  0  0  0
    9.0580   -4.7720   25.3110 C   0  0  0  0  0  0  0  0  0  0  0  0
    8.1300   -3.8420   25.8440 C   0  0  0  0  0  0  0  0  0  0  0  0
    7.6150   -4.1480   27.4650 S   0  0  0  0  0  0  0  0  0  0  0  0
    8.6510   -5.5710   27.4820 C   0  0  0  0  0  0  0  0  0  0  0  0
    9.3510   -5.7840   26.2970 C   0  0  0  0  0  0  0  0  0  0  0  0
  1  3  1  0
  2  3  2  0
  5  4  1  6
  3  6  1  0
  6  7  1  0
  7  8  1  0
  5  9  1  0
  8  9  1  0
  9 10  1  0
  6 11  1  0
 10 11  1  0
  5 13  1  0
 12 13  1  0
 13 14  2  0
 14 15  1  0
 12 16  1  0
 15 16  2  0
  5 18  1  0
 17 18  2  0
 18 19  1  0
 19 20  1  0
 17 21  1  0
 20 21  2  0
M  END
