x0734-x2703-x2694
     RDKit          3D

 52 56  0  0  0  0  0  0  0  0999 V2000
    7.5540   -0.8380   21.9730 N   0  0  0  0  0  0  0  0  0  0  0  0
    7.6460    2.7350   22.3580 N   0  0  0  0  0  0  0  0  0  0  0  0
    9.1990    1.4820   21.2190 O   0  0  0  0  0  0  0  0  0  0  0  0
   10.9390    6.8710   23.9610 O   0  0  0  0  0  0  0  0  0  0  0  0
    7.0610    0.4640   21.7020 C   0  0  1  0  0  0  0  0  0  0  0  0
    8.1050    1.5780   21.7350 C   0  0  0  0  0  0  0  0  0  0  0  0
   10.0600    2.0820   23.9660 C   0  0  0  0  0  0  0  0  0  0  0  0
   11.8760    6.6340   25.0160 C   0  0  0  0  0  0  0  0  0  0  0  0
   12.3770   -1.2390   23.2150 C   0  0  0  0  0  0  0  0  0  0  0  0
   12.9310    0.0310   23.4480 C   0  0  0  0  0  0  0  0  0  0  0  0
   12.8280   -1.8880   21.8770 C   0  0  0  0  0  0  0  0  0  0  0  0
   12.9250   -2.1430   24.3640 C   0  0  0  0  0  0  0  0  0  0  0  0
   12.0210   -3.0120   24.9680 C   0  0  0  0  0  0  0  0  0  0  0  0
    9.1590    1.5420   24.9360 C   0  0  0  0  0  0  0  0  0  0  0  0
    5.1590   -4.8460   26.2680 N   0  0  0  0  0  0  0  0  0  0  0  0
    4.3920   -5.6850   25.5490 O   0  0  0  0  0  0  0  0  0  0  0  0
    4.7170   -3.6920   26.8710 O   0  0  0  0  0  0  0  0  0  0  0  0
    5.1740   -4.2350   19.7510 O   0  0  0  0  0  0  0  0  0  0  0  0
    6.3330   -3.9870   20.0800 C   0  0  0  0  0  0  0  0  0  0  0  0
    7.2410   -3.1850   19.1560 C   0  0  0  0  0  0  0  0  0  0  0  0
    6.5540   -1.8320   22.4450 C   0  0  0  0  0  0  0  0  0  0  0  0
    6.2210    0.2210   17.7730 N   0  0  0  0  0  0  0  0  0  0  0  0
    5.3100    0.8270   18.0620 C   0  0  0  0  0  0  0  0  0  0  0  0
    4.5490    1.4570   18.9930 C   0  0  0  0  0  0  0  0  0  0  0  0
    5.0860    1.3680   20.2800 C   0  0  0  0  0  0  0  0  0  0  0  0
    6.3070    0.6510   20.3860 C   0  0  0  0  0  0  0  0  0  0  0  0
    6.8810    0.0490   19.0520 C   0  0  0  0  0  0  0  0  0  0  0  0
    8.8210   -1.0030   24.2930 N   0  0  0  0  0  0  0  0  0  0  0  0
   10.1940   -1.1240   24.5580 O   0  0  0  0  0  0  0  0  0  0  0  0
   10.8970   -1.1430   23.2990 C   0  0  0  0  0  0  0  0  0  0  0  0
   10.0110   -1.0450   22.2500 C   0  0  0  0  0  0  0  0  0  0  0  0
    8.7560   -0.9560   22.8170 C   0  0  0  0  0  0  0  0  0  0  0  0
    9.7380    3.5210   23.5840 C   0  0  0  0  0  0  0  0  0  0  0  0
   10.7080    4.4410   24.0780 C   0  0  0  0  0  0  0  0  0  0  0  0
   10.1650    5.8060   23.5860 C   0  0  0  0  0  0  0  0  0  0  0  0
    9.0430    6.1140   22.8400 C   0  0  0  0  0  0  0  0  0  0  0  0
    8.2320    5.1060   22.4420 C   0  0  0  0  0  0  0  0  0  0  0  0
    8.5330    3.8170   22.7880 C   0  0  0  0  0  0  0  0  0  0  0  0
    6.5430   -5.0380   26.1940 C   0  0  0  0  0  0  0  0  0  0  0  0
    7.3160   -4.7200   25.0580 C   0  0  0  0  0  0  0  0  0  0  0  0
    8.6840   -4.9440   25.0610 C   0  0  0  0  0  0  0  0  0  0  0  0
    9.2970   -5.4720   26.1650 C   0  0  0  0  0  0  0  0  0  0  0  0
    8.5720   -5.7930   27.3050 C   0  0  0  0  0  0  0  0  0  0  0  0
    7.1660   -5.5860   27.3580 C   0  0  0  0  0  0  0  0  0  0  0  0
    6.8780   -4.4910   21.2660 N   0  0  0  0  0  0  0  0  0  0  0  0
    6.3530   -5.6550   22.0090 C   0  0  0  0  0  0  0  0  0  0  0  0
    5.7870   -5.1640   23.1740 C   0  0  0  0  0  0  0  0  0  0  0  0
    6.6110   -4.1410   23.8730 N   0  0  0  0  0  0  0  0  0  0  0  0
    7.2640   -3.0910   23.0230 C   0  0  1  0  0  0  0  0  0  0  0  0
    7.8770   -3.6860   22.0020 C   0  0  0  0  0  0  0  0  0  0  0  0
    6.0300    4.5390   22.2240 C   0  0  0  0  0  0  0  0  0  0  0  0
    6.2860    3.1920   22.0120 C   0  0  0  0  0  0  0  0  0  0  0  0
  1  5  1  0
  2  6  1  0
  3  6  2  0
  5  6  1  6
  4  8  1  0
  9 10  1  0
  9 11  1  0
  9 12  1  0
 12 13  1  0
  7 14  1  0
 15 16  2  0
 15 17  1  0
 18 19  2  0
 19 20  1  0
  1 21  1  0
 22 23  2  0
 23 24  1  0
 24 25  2  0
  5 26  1  0
 25 26  1  0
 22 27  1  0
 26 27  2  0
 28 29  1  0
  9 30  1  0
 29 30  1  0
 30 31  2  0
  1 32  1  0
 28 32  2  0
 31 32  1  0
  7 33  1  0
 33 34  2  0
  4 35  1  0
 34 35  1  0
 35 36  2  0
 36 37  1  0
  2 38  1  0
 33 38  1  0
 37 38  2  0
 15 39  1  0
 39 40  2  0
 40 41  1  0
 41 42  2  0
 42 43  1  0
 39 44  1  0
 43 44  2  0
 19 45  1  0
 45 46  1  0
 46 47  1  0
 40 48  1  0
 47 48  1  0
 49 21  1  6
 48 49  1  0
 45 50  1  0
 49 50  1  0
  2 52  1  0
 51 52  1  0
M  CHG  2  15   1  17  -1
M  END
