x0731-x3115-x3113
     RDKit          3D

 49 52  0  0  0  0  0  0  0  0999 V2000
    7.3550   -1.4770   22.0190 N   0  0  0  0  0  0  0  0  0  0  0  0
    8.3120    1.4730   23.2150 N   0  0  0  0  0  0  0  0  0  0  0  0
    8.7310    1.2560   20.9790 O   0  0  0  0  0  0  0  0  0  0  0  0
   11.7690    3.8500   22.3890 O   0  0  0  0  0  0  0  0  0  0  0  0
    6.9500   -0.1250   21.8620 C   0  0  1  0  0  0  0  0  0  0  0  0
    8.0840    0.9080   21.9640 C   0  0  0  0  0  0  0  0  0  0  0  0
    8.9460    2.6580   23.2050 C   0  0  1  0  0  0  0  0  0  0  0  0
   10.2980    2.2330   23.2530 C   0  0  0  0  0  0  0  0  0  0  0  0
   11.3620    3.1670   23.3280 C   0  0  0  0  0  0  0  0  0  0  0  0
   13.0040    4.5120   22.6630 C   0  0  0  0  0  0  0  0  0  0  0  0
   12.5160   -1.8550   24.1810 C   0  0  0  0  0  0  0  0  0  0  0  0
   13.4730   -1.9660   22.9920 C   0  0  0  0  0  0  0  0  0  0  0  0
   12.9200   -2.9970   25.1040 C   0  0  0  0  0  0  0  0  0  0  0  0
   12.7290   -0.5310   24.8780 C   0  0  0  0  0  0  0  0  0  0  0  0
    8.5450    5.0820   23.3020 O   0  0  0  0  0  0  0  0  0  0  0  0
    9.1170    3.9940   22.5650 C   0  0  0  0  0  0  0  0  0  0  0  0
    8.3630    6.0580   22.5590 C   0  0  0  0  0  0  0  0  0  0  0  0
    0.8400   -1.0800   26.0460 C   0  0  0  0  0  0  0  0  0  0  0  0
    6.4540   -4.7970   26.6270 O   0  0  0  0  0  0  0  0  0  0  0  0
    4.7210   -6.4920   25.9000 O   0  0  0  0  0  0  0  0  0  0  0  0
    5.2610   -5.0510   19.9910 O   0  0  0  0  0  0  0  0  0  0  0  0
    6.2480   -4.5210   20.4630 C   0  0  0  0  0  0  0  0  0  0  0  0
    6.9630   -3.4710   19.6400 C   0  0  0  0  0  0  0  0  0  0  0  0
    5.3720   -5.2070   25.7540 S   0  0  0  0  0  0  0  0  0  0  0  0
    6.5220   -2.5310   22.4470 C   0  0  0  0  0  0  0  0  0  0  0  0
    6.4450    0.2350   18.0190 N   0  0  0  0  0  0  0  0  0  0  0  0
    5.3210    0.9750   17.9150 C   0  0  0  0  0  0  0  0  0  0  0  0
    4.5840    1.4300   19.1720 C   0  0  0  0  0  0  0  0  0  0  0  0
    5.1330    1.0490   20.5130 C   0  0  0  0  0  0  0  0  0  0  0  0
    6.2990    0.2930   20.5450 C   0  0  0  0  0  0  0  0  0  0  0  0
    6.8870   -0.0770   19.2810 C   0  0  0  0  0  0  0  0  0  0  0  0
    9.7440   -2.0790   21.8550 C   0  0  0  0  0  0  0  0  0  0  0  0
   11.1230   -2.2980   22.1020 C   0  0  0  0  0  0  0  0  0  0  0  0
   11.1390   -1.7870   23.5760 C   0  0  0  0  0  0  0  0  0  0  0  0
   10.1290   -1.2860   24.3740 C   0  0  0  0  0  0  0  0  0  0  0  0
    8.8930   -1.1820   23.8910 C   0  0  0  0  0  0  0  0  0  0  0  0
    8.6290   -1.5580   22.6310 C   0  0  0  0  0  0  0  0  0  0  0  0
    2.0710   -2.0400   26.0200 C   0  0  0  0  0  0  0  0  0  0  0  0
    1.8610   -3.2920   25.4420 C   0  0  0  0  0  0  0  0  0  0  0  0
    2.8920   -4.2190   25.3810 C   0  0  0  0  0  0  0  0  0  0  0  0
    4.1560   -3.9240   25.8930 C   0  0  0  0  0  0  0  0  0  0  0  0
    4.3290   -2.6580   26.4590 C   0  0  0  0  0  0  0  0  0  0  0  0
    3.3180   -1.6820   26.5450 C   0  0  0  0  0  0  0  0  0  0  0  0
    6.7390   -4.9140   21.6860 N   0  0  0  0  0  0  0  0  0  0  0  0
    7.2750   -3.8960   22.6120 C   0  0  2  0  0  0  0  0  0  0  0  0
    7.1250   -4.2800   23.9410 C   0  0  0  0  0  0  0  0  0  0  0  0
    5.8730   -5.0070   24.1640 N   0  0  0  0  0  0  0  0  0  0  0  0
    5.4220   -6.0220   23.2120 C   0  0  0  0  0  0  0  0  0  0  0  0
    6.3270   -6.2050   22.2210 C   0  0  0  0  0  0  0  0  0  0  0  0
  1  5  1  0
  2  6  1  0
  3  6  2  0
  5  6  1  6
  2  7  1  0
  7  8  1  6
  4  9  1  0
  8  9  1  0
  4 10  1  0
 11 12  1  0
 11 13  1  0
 11 14  1  0
  7 16  1  0
 15 16  1  0
 15 17  1  0
 21 22  2  0
 22 23  1  0
 19 24  2  0
 20 24  2  0
  1 25  1  0
 26 27  2  0
 27 28  1  0
 28 29  2  0
  5 30  1  0
 29 30  1  0
 26 31  1  0
 30 31  2  0
 32 33  2  0
 11 34  1  0
 33 34  1  0
 34 35  2  0
 35 36  1  0
  1 37  1  0
 32 37  1  0
 36 37  2  0
 18 38  1  0
 38 39  2  0
 39 40  1  0
 24 41  1  0
 40 41  2  0
 41 42  1  0
 38 43  1  0
 42 43  2  0
 22 44  1  0
 45 25  1  1
 44 45  1  0
 45 46  1  0
 24 47  1  0
 46 47  1  0
 47 48  1  0
 44 49  1  0
 48 49  1  0
M  END
