x0736-x2600
     RDKit          3D

 34 37  0  0  0  0  0  0  0  0999 V2000
    7.4090   -2.9500   18.9290 C   0  0  0  0  0  0  0  0  0  0  0  0
    5.4770   -4.0370   19.7430 O   0  0  0  0  0  0  0  0  0  0  0  0
    6.4820   -3.3660   20.0530 C   0  0  0  0  0  0  0  0  0  0  0  0
    6.1360   -2.7480   25.2120 O   0  0  0  0  0  0  0  0  0  0  0  0
    7.3090   -2.5580   24.9400 C   0  0  0  0  0  0  0  0  0  0  0  0
   13.5470   -3.2750   20.6570 N   0  0  0  0  0  0  0  0  0  0  0  0
    7.7020   -0.6300   21.6310 C   0  0  1  0  0  0  0  0  0  0  0  0
    8.2990   -0.4660   20.3870 O   0  0  0  0  0  0  0  0  0  0  0  0
    8.4800    0.1810   22.6240 C   0  0  0  0  0  0  0  0  0  0  0  0
    6.3720   -0.2000   21.4400 N   0  0  0  0  0  0  0  0  0  0  0  0
   12.9230   -2.2510   21.3870 C   0  0  0  0  0  0  0  0  0  0  0  0
    6.7630   -3.1030   21.4200 N   0  0  0  0  0  0  0  0  0  0  0  0
    7.5850   -2.0360   22.0520 C   0  0  1  0  0  0  0  0  0  0  0  0
    8.5870   -2.6110   22.7650 C   0  0  0  0  0  0  0  0  0  0  0  0
    7.9380   -3.3210   23.8570 N   0  0  0  0  0  0  0  0  0  0  0  0
    7.1120   -4.4240   23.3850 C   0  0  0  0  0  0  0  0  0  0  0  0
    6.2500   -3.9690   22.3690 C   0  0  0  0  0  0  0  0  0  0  0  0
    8.5770   -0.4060   25.0430 O   0  0  0  0  0  0  0  0  0  0  0  0
    8.0960   -1.5620   25.6690 C   0  0  0  0  0  0  0  0  0  0  0  0
    8.5190   -1.4940   26.9810 C   0  0  0  0  0  0  0  0  0  0  0  0
    9.2360   -0.3550   27.1690 C   0  0  0  0  0  0  0  0  0  0  0  0
    9.2700    0.3130   25.9790 C   0  0  0  0  0  0  0  0  0  0  0  0
    6.3430    0.6270   17.7830 N   0  0  0  0  0  0  0  0  0  0  0  0
    6.6880    0.0860   18.9840 C   0  0  0  0  0  0  0  0  0  0  0  0
    6.0330    0.3420   20.1900 C   0  0  0  0  0  0  0  0  0  0  0  0
    4.8410    1.2890   20.1570 C   0  0  0  0  0  0  0  0  0  0  0  0
    4.4600    1.8550   18.9690 C   0  0  0  0  0  0  0  0  0  0  0  0
    5.2920    1.4710   17.7460 C   0  0  0  0  0  0  0  0  0  0  0  0
   10.6660    0.8550   23.6630 C   0  0  0  0  0  0  0  0  0  0  0  0
   12.1390    0.6740   23.7920 C   0  0  0  0  0  0  0  0  0  0  0  0
   12.8470   -0.2690   23.1050 C   0  0  0  0  0  0  0  0  0  0  0  0
   12.1840   -1.2120   22.1550 C   0  0  0  0  0  0  0  0  0  0  0  0
   10.6740   -0.9870   22.0590 C   0  0  0  0  0  0  0  0  0  0  0  0
    9.9790    0.0010   22.7800 C   0  0  0  0  0  0  0  0  0  0  0  0
  1  3  1  0
  2  3  2  0
  4  5  2  0
  7  8  1  6
  7  9  1  0
  7 10  1  0
  6 11  3  0
  3 12  1  0
  7 13  1  0
 12 13  1  0
 13 14  1  6
  5 15  1  0
 14 15  1  0
 15 16  1  0
 12 17  1  0
 16 17  1  0
  5 19  1  0
 18 19  1  0
 19 20  2  0
 20 21  1  0
 18 22  1  0
 21 22  2  0
 23 24  2  0
 10 25  1  0
 24 25  1  0
 25 26  2  0
 26 27  1  0
 23 28  1  0
 27 28  2  0
 29 30  2  0
 30 31  1  0
 11 32  1  0
 31 32  2  0
 32 33  1  0
  9 34  1  0
 29 34  1  0
 33 34  2  0
M  END
