x0734-x1351
     RDKit          3D

 28 30  0  0  0  0  0  0  0  0999 V2000
    5.1920   -4.9030   26.2460 N   0  0  0  0  0  0  0  0  0  0  0  0
    4.5100   -5.7470   25.6350 O   0  0  0  0  0  0  0  0  0  0  0  0
    4.7630   -3.8630   26.7480 O   0  0  0  0  0  0  0  0  0  0  0  0
    5.1130   -4.0370   19.6100 O   0  0  0  0  0  0  0  0  0  0  0  0
    6.2630   -3.8220   19.9550 C   0  0  0  0  0  0  0  0  0  0  0  0
    7.2540   -3.1450   19.0230 C   0  0  0  0  0  0  0  0  0  0  0  0
    6.5580   -5.1140   26.3020 C   0  0  0  0  0  0  0  0  0  0  0  0
    7.3000   -4.8410   24.9850 C   0  0  0  0  0  0  0  0  0  0  0  0
    8.8100   -5.0780   25.0090 C   0  0  0  0  0  0  0  0  0  0  0  0
    9.4660   -5.5560   26.2960 C   0  0  0  0  0  0  0  0  0  0  0  0
    8.6360   -5.7930   27.5760 C   0  0  0  0  0  0  0  0  0  0  0  0
    7.1220   -5.5410   27.4950 C   0  0  0  0  0  0  0  0  0  0  0  0
    6.7340   -4.2450   21.1780 N   0  0  0  0  0  0  0  0  0  0  0  0
    6.3400   -5.5190   21.7370 C   0  0  0  0  0  0  0  0  0  0  0  0
    5.8360   -5.3060   23.1720 C   0  0  0  0  0  0  0  0  0  0  0  0
    6.6700   -4.4090   23.8360 N   0  0  0  0  0  0  0  0  0  0  0  0
    7.0970   -3.1570   23.1970 C   0  0  0  0  0  0  0  0  0  0  0  0
    7.5940   -3.4330   21.9500 C   0  0  0  0  0  0  0  0  0  0  0  0
    5.9870   -2.6130   25.3720 N   0  0  0  0  0  0  0  0  0  0  0  0
    7.9180   -2.7810   26.5640 O   0  0  0  0  0  0  0  0  0  0  0  0
    6.8850   -2.1910   26.2810 C   0  0  0  0  0  0  0  0  0  0  0  0
    7.1820   -0.5350   28.1290 C   0  0  0  0  0  0  0  0  0  0  0  0
    6.9050    0.6500   28.8100 C   0  0  0  0  0  0  0  0  0  0  0  0
    5.9370    1.5170   28.3040 C   0  0  0  0  0  0  0  0  0  0  0  0
    5.1450    1.2490   27.0260 C   0  0  0  0  0  0  0  0  0  0  0  0
    5.4590   -0.0540   26.2900 C   0  0  0  0  0  0  0  0  0  0  0  0
    6.5370   -0.9180   26.9440 C   0  0  0  0  0  0  0  0  0  0  0  0
    4.7160   -2.8920   25.7300 C   0  0  0  0  0  0  0  0  0  0  0  0
  1  2  2  0
  1  3  1  0
  4  5  2  0
  5  6  1  0
  1  7  1  0
  7  8  1  0
  8  9  2  0
  9 10  1  0
 10 11  2  0
  7 12  2  0
 11 12  1  0
  5 13  1  0
 13 14  1  0
 14 15  1  0
  8 16  1  0
 15 16  1  0
 16 17  1  0
 13 18  1  0
 17 18  1  0
 19 21  1  0
 20 21  2  0
 22 23  2  0
 23 24  1  0
 24 25  2  0
 25 26  1  0
 21 27  1  0
 22 27  1  0
 26 27  2  0
  3 28  1  0
 19 28  1  0
M  CHG  1   1   1
M  END
