x0731-x3124
     RDKit          3D

 42 45  0  0  0  0  0  0  0  0999 V2000
    7.1080   -1.2860   22.0100 N   0  0  0  0  0  0  0  0  0  0  0  0
    7.9540    1.4910   23.3530 N   0  0  0  0  0  0  0  0  0  0  0  0
    8.7170    1.6100   21.1950 O   0  0  0  0  0  0  0  0  0  0  0  0
    6.7740    0.1270   21.6760 C   0  0  1  0  0  0  0  0  0  0  0  0
    7.9210    1.1310   22.0210 C   0  0  0  0  0  0  0  0  0  0  0  0
    8.8080    2.5750   23.7710 C   0  0  0  0  0  0  0  0  0  0  0  0
   12.4790   -1.8700   24.1630 C   0  0  0  0  0  0  0  0  0  0  0  0
   12.7400   -0.5980   24.9310 C   0  0  0  0  0  0  0  0  0  0  0  0
   13.4350   -1.9550   22.9860 C   0  0  0  0  0  0  0  0  0  0  0  0
   12.7930   -3.0300   25.0800 C   0  0  0  0  0  0  0  0  0  0  0  0
    1.0110   -0.9200   26.0350 C   0  0  0  0  0  0  0  0  0  0  0  0
    6.0860   -5.1560   26.8770 O   0  0  0  0  0  0  0  0  0  0  0  0
    4.5820   -6.7050   25.8100 O   0  0  0  0  0  0  0  0  0  0  0  0
    5.1260   -4.7310   19.8860 O   0  0  0  0  0  0  0  0  0  0  0  0
    6.1780   -4.3550   20.3320 C   0  0  0  0  0  0  0  0  0  0  0  0
    7.0020   -3.3380   19.5510 C   0  0  0  0  0  0  0  0  0  0  0  0
    5.2230   -5.4140   25.7580 S   0  0  0  0  0  0  0  0  0  0  0  0
    6.2210   -2.4140   22.2550 C   0  0  0  0  0  0  0  0  0  0  0  0
    6.3150    0.3370   17.8530 N   0  0  0  0  0  0  0  0  0  0  0  0
    5.1390    1.1860   17.8110 C   0  0  0  0  0  0  0  0  0  0  0  0
    4.5640    1.6090   18.9820 C   0  0  0  0  0  0  0  0  0  0  0  0
    5.0900    1.2540   20.2200 C   0  0  0  0  0  0  0  0  0  0  0  0
    6.2240    0.4500   20.3050 C   0  0  0  0  0  0  0  0  0  0  0  0
    6.8450   -0.0260   19.1560 C   0  0  0  0  0  0  0  0  0  0  0  0
    9.3900   -1.8230   21.7370 C   0  0  0  0  0  0  0  0  0  0  0  0
   10.8330   -2.0210   22.1510 C   0  0  0  0  0  0  0  0  0  0  0  0
   11.0910   -1.7640   23.6190 C   0  0  0  0  0  0  0  0  0  0  0  0
    9.8840   -1.3730   24.4500 C   0  0  0  0  0  0  0  0  0  0  0  0
    8.6220   -1.2390   23.9190 C   0  0  0  0  0  0  0  0  0  0  0  0
    8.3610   -1.4480   22.5740 C   0  0  0  0  0  0  0  0  0  0  0  0
    2.0520   -1.9980   25.9540 C   0  0  0  0  0  0  0  0  0  0  0  0
    1.8060   -3.2520   25.3840 C   0  0  0  0  0  0  0  0  0  0  0  0
    2.7390   -4.2820   25.3050 C   0  0  0  0  0  0  0  0  0  0  0  0
    4.0360   -4.1940   25.7870 C   0  0  0  0  0  0  0  0  0  0  0  0
    4.3970   -2.8510   26.4160 C   0  0  0  0  0  0  0  0  0  0  0  0
    3.3260   -1.7420   26.4780 C   0  0  0  0  0  0  0  0  0  0  0  0
    6.5820   -4.8790   21.5490 N   0  0  0  0  0  0  0  0  0  0  0  0
    6.9390   -3.7730   22.4770 C   0  0  2  0  0  0  0  0  0  0  0  0
    6.9460   -4.1380   23.9570 C   0  0  0  0  0  0  0  0  0  0  0  0
    6.0680   -5.2800   24.2760 N   0  0  0  0  0  0  0  0  0  0  0  0
    6.0390   -6.3560   23.3050 C   0  0  0  0  0  0  0  0  0  0  0  0
    5.6490   -5.8840   22.0830 C   0  0  0  0  0  0  0  0  0  0  0  0
  1  4  1  0
  2  5  1  0
  3  5  2  0
  4  5  1  6
  2  6  1  0
  7  8  1  0
  7  9  1  0
  7 10  1  0
 14 15  2  0
 15 16  1  0
 12 17  2  0
 13 17  2  0
  1 18  1  0
 19 20  2  0
 20 21  1  0
 21 22  2  0
  4 23  1  0
 22 23  1  0
 19 24  1  0
 23 24  2  0
 25 26  2  0
  7 27  1  0
 26 27  1  0
 27 28  2  0
 28 29  1  0
  1 30  1  0
 25 30  1  0
 29 30  2  0
 11 31  1  0
 31 32  2  0
 32 33  1  0
 17 34  1  0
 33 34  2  0
 34 35  1  0
 31 36  1  0
 35 36  2  0
 15 37  1  0
 38 18  1  1
 37 38  1  0
 38 39  1  0
 17 40  1  0
 39 40  1  0
 40 41  1  0
 37 42  1  0
 41 42  1  0
M  END
