x0736-x0107
     RDKit          3D

 27 30  0  0  0  0  0  0  0  0999 V2000
    7.3580   -3.0850   18.8600 C   0  0  0  0  0  0  0  0  0  0  0  0
    5.4660   -4.1930   19.7930 O   0  0  0  0  0  0  0  0  0  0  0  0
    6.4120   -3.4140   20.0000 C   0  0  0  0  0  0  0  0  0  0  0  0
    6.1120   -2.4740   24.9210 O   0  0  0  0  0  0  0  0  0  0  0  0
    7.2790   -2.2470   24.6490 C   0  0  0  0  0  0  0  0  0  0  0  0
    9.4790   -1.1330   22.7320 C   0  0  0  0  0  0  0  0  0  0  0  0
    8.8440   -0.0870   21.8270 C   0  0  0  0  0  0  0  0  0  0  0  0
    9.3320    1.0100   21.5920 O   0  0  0  0  0  0  0  0  0  0  0  0
    7.6200   -0.5890   21.3280 N   0  0  0  0  0  0  0  0  0  0  0  0
    5.3560    0.9300   22.0790 C   0  0  0  0  0  0  0  0  0  0  0  0
    6.6590   -2.8350   21.2750 N   0  0  0  0  0  0  0  0  0  0  0  0
    7.7770   -2.0140   21.4210 C   0  0  2  0  0  0  0  0  0  0  0  0
    8.6000   -2.3340   22.4880 C   0  0  2  0  0  0  0  0  0  0  0  0
    7.8560   -2.8630   23.5290 N   0  0  0  0  0  0  0  0  0  0  0  0
    7.1830   -3.9880   23.1230 C   0  0  0  0  0  0  0  0  0  0  0  0
    6.1290   -3.4800   22.3760 C   0  0  0  0  0  0  0  0  0  0  0  0
    8.5030   -0.1220   24.9940 O   0  0  0  0  0  0  0  0  0  0  0  0
    8.0720   -1.3510   25.4860 C   0  0  0  0  0  0  0  0  0  0  0  0
    8.5380   -1.4460   26.7880 C   0  0  0  0  0  0  0  0  0  0  0  0
    9.2410   -0.3190   27.0900 C   0  0  0  0  0  0  0  0  0  0  0  0
    9.2160    0.4860   25.9860 C   0  0  0  0  0  0  0  0  0  0  0  0
    6.8190   -0.0120   20.3110 C   0  0  0  0  0  0  0  0  0  0  0  0
    5.7130    0.7370   20.6460 C   0  0  0  0  0  0  0  0  0  0  0  0
    4.8680    1.3560   19.5100 C   0  0  0  0  0  0  0  0  0  0  0  0
    5.2280    1.1530   18.1820 C   0  0  0  0  0  0  0  0  0  0  0  0
    6.3960    0.3540   17.8280 N   0  0  0  0  0  0  0  0  0  0  0  0
    7.1270   -0.1890   18.9740 C   0  0  0  0  0  0  0  0  0  0  0  0
  1  3  1  0
  2  3  2  0
  4  5  2  0
  6  7  1  0
  7  8  2  0
  7  9  1  0
  3 11  1  0
 12  9  1  1
 11 12  1  0
 13  6  1  1
 12 13  1  0
  5 14  1  0
 13 14  1  0
 14 15  1  0
 11 16  1  0
 15 16  1  0
  5 18  1  0
 17 18  1  0
 18 19  2  0
 19 20  1  0
 17 21  1  0
 20 21  2  0
  9 22  1  0
 10 23  1  0
 22 23  2  0
 23 24  1  0
 24 25  2  0
 25 26  1  0
 22 27  1  0
 26 27  2  0
M  END
