x0731-x0967
     RDKit          3D

 41 43  0  0  0  0  0  0  0  0999 V2000
    7.7410    4.8690   22.4040 C   0  0  0  0  0  0  0  0  0  0  0  0
    8.0340    2.4100   22.4850 N   0  0  0  0  0  0  0  0  0  0  0  0
    6.2680    3.3560   23.6360 O   0  0  0  0  0  0  0  0  0  0  0  0
    7.2570    3.4770   22.9130 C   0  0  0  0  0  0  0  0  0  0  0  0
    9.4210   -0.8380   23.5750 N   0  0  0  0  0  0  0  0  0  0  0  0
    5.6590    0.8410   17.0370 O   0  0  0  0  0  0  0  0  0  0  0  0
    7.9230    1.1560   23.0750 C   0  0  1  0  0  0  0  0  0  0  0  0
    9.8070    0.5370   21.6730 O   0  0  0  0  0  0  0  0  0  0  0  0
    6.6150    0.4300   22.6830 C   0  0  0  0  0  0  0  0  0  0  0  0
    9.1390    0.2780   22.6580 C   0  0  0  0  0  0  0  0  0  0  0  0
    9.7460   -1.2590   22.3270 C   0  0  1  0  0  0  0  0  0  0  0  0
   11.2200   -1.3840   21.8970 C   0  0  0  0  0  0  0  0  0  0  0  0
   12.1410   -1.7930   23.0530 C   0  0  0  0  0  0  0  0  0  0  0  0
   13.2770   -2.3150   24.4770 Br  0  0  0  0  0  0  0  0  0  0  0  0
    0.8490   -0.9380   26.0540 C   0  0  0  0  0  0  0  0  0  0  0  0
    6.3300   -4.7900   26.5840 O   0  0  0  0  0  0  0  0  0  0  0  0
    4.6290   -6.5180   25.8690 O   0  0  0  0  0  0  0  0  0  0  0  0
    5.1950   -4.8200   19.9450 O   0  0  0  0  0  0  0  0  0  0  0  0
    6.2390   -4.3740   20.3670 C   0  0  0  0  0  0  0  0  0  0  0  0
    6.9920   -3.3620   19.5250 C   0  0  0  0  0  0  0  0  0  0  0  0
    5.2260   -5.2040   25.7560 S   0  0  0  0  0  0  0  0  0  0  0  0
    9.1330   -2.5980   22.1220 C   0  0  0  0  0  0  0  0  0  0  0  0
    7.7580   -2.6950   22.2090 C   0  0  0  0  0  0  0  0  0  0  0  0
    6.3770    0.5160   21.2190 C   0  0  0  0  0  0  0  0  0  0  0  0
    7.1240   -0.3130   20.3660 C   0  0  0  0  0  0  0  0  0  0  0  0
    6.8960   -0.2170   19.0120 C   0  0  0  0  0  0  0  0  0  0  0  0
    5.8950    0.7270   18.4010 C   0  0  0  0  0  0  0  0  0  0  0  0
    5.0920    1.6140   19.3180 C   0  0  0  0  0  0  0  0  0  0  0  0
    5.3990    1.4480   20.7920 C   0  0  0  0  0  0  0  0  0  0  0  0
    1.9470   -2.0110   25.9720 C   0  0  0  0  0  0  0  0  0  0  0  0
    1.6730   -3.2570   25.3950 C   0  0  0  0  0  0  0  0  0  0  0  0
    2.6940   -4.1860   25.3540 C   0  0  0  0  0  0  0  0  0  0  0  0
    3.9570   -3.9280   25.8570 C   0  0  0  0  0  0  0  0  0  0  0  0
    4.2420   -2.6890   26.4290 C   0  0  0  0  0  0  0  0  0  0  0  0
    3.2270   -1.7120   26.4910 C   0  0  0  0  0  0  0  0  0  0  0  0
    6.7360   -4.8610   21.5720 N   0  0  0  0  0  0  0  0  0  0  0  0
    7.3150   -4.0880   22.6480 C   0  0  2  0  0  0  0  0  0  0  0  0
    6.4670   -3.9420   23.8890 C   0  0  0  0  0  0  0  0  0  0  0  0
    5.6750   -4.9720   24.1560 N   0  0  0  0  0  0  0  0  0  0  0  0
    6.0420   -6.1550   23.5200 C   0  0  0  0  0  0  0  0  0  0  0  0
    6.2770   -6.1880   22.0300 C   0  0  0  0  0  0  0  0  0  0  0  0
  1  4  1  0
  2  4  1  0
  3  4  2  0
  2  7  1  0
  7  9  1  6
  5 10  1  0
  7 10  1  0
  8 10  2  0
  5 11  1  0
 11 12  1  1
 12 13  3  0
 13 14  1  0
 18 19  2  0
 19 20  1  0
 16 21  2  0
 17 21  2  0
 11 22  1  0
 22 23  1  0
  9 24  1  0
 24 25  2  0
 25 26  1  0
  6 27  1  0
 26 27  2  0
 27 28  1  0
 24 29  1  0
 28 29  2  0
 15 30  1  0
 30 31  2  0
 31 32  1  0
 21 33  1  0
 32 33  2  0
 33 34  1  0
 30 35  1  0
 34 35  2  0
 19 36  1  0
 37 23  1  6
 36 37  1  0
 37 38  1  0
 21 39  1  0
 38 39  1  0
 39 40  1  0
 36 41  1  0
 40 41  1  0
M  END
