x0734-x0978-x2694
     RDKit          3D

 59 64  0  0  0  0  0  0  0  0999 V2000
    7.4000   -0.9540   21.7800 N   0  0  0  0  0  0  0  0  0  0  0  0
    7.7270    2.5400   22.6210 N   0  0  0  0  0  0  0  0  0  0  0  0
    9.0730    1.4650   21.1050 O   0  0  0  0  0  0  0  0  0  0  0  0
   11.0180    7.0940   23.9520 O   0  0  0  0  0  0  0  0  0  0  0  0
    6.9330    0.4360   21.6240 C   0  0  1  0  0  0  0  0  0  0  0  0
    8.0420    1.5200   21.7490 C   0  0  0  0  0  0  0  0  0  0  0  0
   10.2560    2.0040   23.9370 C   0  0  0  0  0  0  0  0  0  0  0  0
   11.8710    6.9770   24.8300 C   0  0  0  0  0  0  0  0  0  0  0  0
   12.2950   -1.4000   23.2540 C   0  0  0  0  0  0  0  0  0  0  0  0
   12.8770   -0.0410   23.5760 C   0  0  0  0  0  0  0  0  0  0  0  0
   12.9050   -1.8680   21.9210 C   0  0  0  0  0  0  0  0  0  0  0  0
   12.7160   -2.3880   24.3620 C   0  0  0  0  0  0  0  0  0  0  0  0
    1.8610   -5.8190   23.1740 N   0  0  0  0  0  0  0  0  0  0  0  0
    2.1550   -8.2650   24.6200 C   0  0  0  0  0  0  0  0  0  0  0  0
    4.3030   -7.9260   24.3180 O   0  0  0  0  0  0  0  0  0  0  0  0
    3.1100   -7.2980   24.3080 C   0  0  1  0  0  0  0  0  0  0  0  0
    4.7800   -5.2440   21.9120 N   0  0  0  0  0  0  0  0  0  0  0  0
    0.6290   -7.3730   21.7970 O   0  0  0  0  0  0  0  0  0  0  0  0
    2.9690   -6.5460   23.1430 C   0  0  2  0  0  0  0  0  0  0  0  0
    4.6700   -4.9190   24.2300 N   0  0  0  0  0  0  0  0  0  0  0  0
    0.7070   -6.1720   22.5640 C   0  0  0  0  0  0  0  0  0  0  0  0
   -0.4590   -5.4260   22.6260 C   0  0  0  0  0  0  0  0  0  0  0  0
    4.1430   -5.5760   23.0540 C   0  0  0  0  0  0  0  0  0  0  0  0
    6.2500   -1.9340   21.9400 C   0  0  0  0  0  0  0  0  0  0  0  0
    5.2290   -4.7830   26.5140 N   0  0  0  0  0  0  0  0  0  0  0  0
    4.5440   -5.7600   26.1890 O   0  0  0  0  0  0  0  0  0  0  0  0
    4.7660   -3.7250   26.9680 O   0  0  0  0  0  0  0  0  0  0  0  0
    5.3020   -4.4320   19.8070 O   0  0  0  0  0  0  0  0  0  0  0  0
    6.2520   -3.7060   20.0610 C   0  0  0  0  0  0  0  0  0  0  0  0
    7.1340   -3.1160   18.9850 C   0  0  0  0  0  0  0  0  0  0  0  0
    6.3210    0.4070   17.8800 N   0  0  0  0  0  0  0  0  0  0  0  0
    5.2250    1.1970   17.8350 C   0  0  0  0  0  0  0  0  0  0  0  0
    4.6730    1.7190   18.9170 C   0  0  0  0  0  0  0  0  0  0  0  0
    5.1820    1.5000   20.1690 C   0  0  0  0  0  0  0  0  0  0  0  0
    6.3170    0.6980   20.2800 C   0  0  0  0  0  0  0  0  0  0  0  0
    6.8410    0.1750   19.1070 C   0  0  0  0  0  0  0  0  0  0  0  0
    8.6940   -1.0290   23.9670 N   0  0  0  0  0  0  0  0  0  0  0  0
   10.0570   -1.1630   24.2870 O   0  0  0  0  0  0  0  0  0  0  0  0
   10.8030   -1.2700   23.1450 C   0  0  0  0  0  0  0  0  0  0  0  0
    9.8660   -1.2050   22.1330 C   0  0  0  0  0  0  0  0  0  0  0  0
    8.5640   -1.0570   22.6190 C   0  0  0  0  0  0  0  0  0  0  0  0
    9.7800    3.4040   23.5860 C   0  0  0  0  0  0  0  0  0  0  0  0
   10.7580    4.5270   23.9840 C   0  0  0  0  0  0  0  0  0  0  0  0
   10.3310    5.9540   23.6770 C   0  0  0  0  0  0  0  0  0  0  0  0
    8.9440    6.0070   22.9740 C   0  0  0  0  0  0  0  0  0  0  0  0
    8.1670    4.8960   22.6630 C   0  0  0  0  0  0  0  0  0  0  0  0
    8.5720    3.6170   22.9650 C   0  0  0  0  0  0  0  0  0  0  0  0
    6.6840   -4.9240   26.4750 C   0  0  0  0  0  0  0  0  0  0  0  0
    7.4720   -4.5620   25.3810 C   0  0  0  0  0  0  0  0  0  0  0  0
    9.0050   -4.7300   25.4300 C   0  0  0  0  0  0  0  0  0  0  0  0
    9.7110   -5.2780   26.6260 C   0  0  0  0  0  0  0  0  0  0  0  0
    8.7700   -5.6640   27.7940 C   0  0  0  0  0  0  0  0  0  0  0  0
    7.2740   -5.4470   27.6220 C   0  0  0  0  0  0  0  0  0  0  0  0
    6.5500   -3.3920   21.5120 C   0  0  2  0  0  0  0  0  0  0  0  0
    5.9750   -4.5190   22.3710 C   0  0  1  0  0  0  0  0  0  0  0  0
    5.7270   -4.0880   23.6610 C   0  0  2  0  0  0  0  0  0  0  0  0
    7.0640   -4.0410   24.1980 N   0  0  0  0  0  0  0  0  0  0  0  0
    8.0680   -3.2590   23.4450 C   0  0  0  0  0  0  0  0  0  0  0  0
    7.9860   -3.5910   21.9560 C   0  0  0  0  0  0  0  0  0  0  0  0
  1  5  1  0
  2  6  1  0
  3  6  2  0
  5  6  1  6
  4  8  1  0
  9 10  1  0
  9 11  1  0
  9 12  1  0
 16 14  1  6
 15 16  1  0
 19 13  1  1
 16 19  1  0
 13 21  1  0
 18 21  2  0
 21 22  1  0
 17 23  1  0
 19 23  1  0
 20 23  2  0
  1 24  1  0
 25 26  2  0
 25 27  1  0
 28 29  2  0
 29 30  1  0
 31 32  2  0
 32 33  1  0
 33 34  2  0
  5 35  1  0
 34 35  1  0
 31 36  1  0
 35 36  2  0
 37 38  1  0
  9 39  1  0
 38 39  1  0
 39 40  2  0
  1 41  1  0
 37 41  2  0
 40 41  1  0
  7 42  1  0
 42 43  2  0
  4 44  1  0
 43 44  1  0
 44 45  2  0
 45 46  1  0
  2 47  1  0
 42 47  1  0
 46 47  2  0
 25 48  1  0
 48 49  2  0
 49 50  1  0
 50 51  2  0
 51 52  1  0
 48 53  1  0
 52 53  2  0
 54 24  1  1
 54 29  1  0
 55 17  1  6
 54 55  1  0
 56 20  1  1
 55 56  1  0
 49 57  1  0
 56 57  1  0
 57 58  1  0
 54 59  1  0
 58 59  1  0
M  CHG  2  25   1  27  -1
M  END
