x0731-x2600
     RDKit          3D

 39 42  0  0  0  0  0  0  0  0999 V2000
    0.8220   -0.9770   26.0550 C   0  0  0  0  0  0  0  0  0  0  0  0
    6.4550   -4.7050   26.5480 O   0  0  0  0  0  0  0  0  0  0  0  0
    4.7850   -6.4850   25.9780 O   0  0  0  0  0  0  0  0  0  0  0  0
    5.3030   -5.0040   19.9930 O   0  0  0  0  0  0  0  0  0  0  0  0
    6.3260   -4.4910   20.4150 C   0  0  0  0  0  0  0  0  0  0  0  0
    7.0210   -3.4480   19.5520 C   0  0  0  0  0  0  0  0  0  0  0  0
    5.3450   -5.1710   25.7480 S   0  0  0  0  0  0  0  0  0  0  0  0
   13.6180   -3.2550   20.6270 N   0  0  0  0  0  0  0  0  0  0  0  0
    8.0430    0.4070   21.7530 C   0  0  0  0  0  0  0  0  0  0  0  0
    8.5660    1.3750   21.1490 O   0  0  0  0  0  0  0  0  0  0  0  0
    8.5670   -0.0590   23.1150 C   0  0  0  0  0  0  0  0  0  0  0  0
    6.9200   -0.4060   21.2930 N   0  0  0  0  0  0  0  0  0  0  0  0
   12.9660   -2.2470   21.4100 C   0  0  0  0  0  0  0  0  0  0  0  0
    6.5690   -2.7040   22.3280 C   0  0  0  0  0  0  0  0  0  0  0  0
    7.1710   -1.8490   21.1770 C   0  0  0  0  0  0  0  0  0  0  0  0
    2.0030   -1.9600   26.0080 C   0  0  0  0  0  0  0  0  0  0  0  0
    1.7380   -3.3330   25.3730 C   0  0  0  0  0  0  0  0  0  0  0  0
    2.7930   -4.2390   25.3310 C   0  0  0  0  0  0  0  0  0  0  0  0
    4.0640   -3.9620   25.8340 C   0  0  0  0  0  0  0  0  0  0  0  0
    4.3190   -2.7120   26.4100 C   0  0  0  0  0  0  0  0  0  0  0  0
    3.3880   -1.6710   26.5430 C   0  0  0  0  0  0  0  0  0  0  0  0
    6.8780   -4.8980   21.6290 N   0  0  0  0  0  0  0  0  0  0  0  0
    7.2690   -4.0310   22.5980 C   0  0  2  0  0  0  0  0  0  0  0  0
    7.0770   -4.3780   23.9460 C   0  0  0  0  0  0  0  0  0  0  0  0
    5.7720   -5.0340   24.1350 N   0  0  0  0  0  0  0  0  0  0  0  0
    5.4080   -6.0210   23.2880 C   0  0  0  0  0  0  0  0  0  0  0  0
    6.4080   -6.1460   22.1640 C   0  0  0  0  0  0  0  0  0  0  0  0
    6.4010    0.5580   17.7360 N   0  0  0  0  0  0  0  0  0  0  0  0
    6.9380   -0.0280   18.8320 C   0  0  0  0  0  0  0  0  0  0  0  0
    6.3170    0.2160   20.2170 C   0  0  0  0  0  0  0  0  0  0  0  0
    5.1890    1.0410   20.3270 C   0  0  0  0  0  0  0  0  0  0  0  0
    4.6780    1.6110   19.1770 C   0  0  0  0  0  0  0  0  0  0  0  0
    5.2390    1.3980   17.9380 C   0  0  0  0  0  0  0  0  0  0  0  0
   10.8370    0.7090   23.8080 C   0  0  0  0  0  0  0  0  0  0  0  0
   12.2170    0.6410   23.7740 C   0  0  0  0  0  0  0  0  0  0  0  0
   12.9590   -0.2660   23.0400 C   0  0  0  0  0  0  0  0  0  0  0  0
   12.2000   -1.2660   22.2040 C   0  0  0  0  0  0  0  0  0  0  0  0
   10.6880   -1.2330   22.2010 C   0  0  0  0  0  0  0  0  0  0  0  0
   10.0490   -0.1660   23.0690 C   0  0  0  0  0  0  0  0  0  0  0  0
  4  5  2  0
  5  6  1  0
  2  7  2  0
  3  7  2  0
  9 10  2  0
  9 11  1  0
  9 12  1  0
  8 13  3  0
 12 15  1  0
 14 15  1  0
  1 16  1  0
 16 17  2  0
 17 18  1  0
  7 19  1  0
 18 19  2  0
 19 20  1  0
 16 21  1  0
 20 21  2  0
  5 22  1  0
 23 14  1  6
 22 23  1  0
 23 24  1  0
  7 25  1  0
 24 25  1  0
 25 26  1  0
 22 27  1  0
 26 27  1  0
 28 29  2  0
 12 30  1  0
 29 30  1  0
 30 31  2  0
 31 32  1  0
 28 33  1  0
 32 33  2  0
 34 35  2  0
 35 36  1  0
 13 37  1  0
 36 37  2  0
 37 38  1  0
 11 39  1  0
 34 39  1  0
 38 39  2  0
M  END
