x0731-x0771
     RDKit          3D

 20 21  0  0  0  0  0  0  0  0999 V2000
    0.4260   -1.2580   26.2560 C   0  0  0  0  0  0  0  0  0  0  0  0
    4.3890   -6.8120   25.6710 O   0  0  0  0  0  0  0  0  0  0  0  0
    6.0100   -5.2390   26.6980 O   0  0  0  0  0  0  0  0  0  0  0  0
    5.3290   -4.6200   19.9310 O   0  0  0  0  0  0  0  0  0  0  0  0
    2.1170   -6.1950   24.9390 C   0  0  0  0  0  0  0  0  0  0  0  0
    6.3900   -4.3280   20.4440 C   0  0  0  0  0  0  0  0  0  0  0  0
    7.3170   -3.2920   19.7830 C   0  0  0  0  0  0  0  0  0  0  0  0
    5.0490   -5.5230   25.6570 S   0  0  0  0  0  0  0  0  0  0  0  0
    1.6030   -2.3290   26.1020 C   0  0  0  0  0  0  0  0  0  0  0  0
    1.2500   -3.7430   25.5840 C   0  0  0  0  0  0  0  0  0  0  0  0
    2.3270   -4.7880   25.4300 C   0  0  0  0  0  0  0  0  0  0  0  0
    3.7620   -4.4320   25.7910 C   0  0  0  0  0  0  0  0  0  0  0  0
    4.0450   -3.0250   26.2900 C   0  0  0  0  0  0  0  0  0  0  0  0
    2.9210   -2.0000   26.4290 C   0  0  0  0  0  0  0  0  0  0  0  0
    6.7780   -4.9470   21.6390 N   0  0  0  0  0  0  0  0  0  0  0  0
    6.1000   -6.2000   21.9890 C   0  0  0  0  0  0  0  0  0  0  0  0
    5.2030   -6.0640   23.0290 C   0  0  0  0  0  0  0  0  0  0  0  0
    5.8540   -5.4110   24.1970 N   0  0  0  0  0  0  0  0  0  0  0  0
    6.4790   -4.2550   23.9000 C   0  0  0  0  0  0  0  0  0  0  0  0
    7.2870   -4.1480   22.7580 C   0  0  0  0  0  0  0  0  0  0  0  0
  4  6  2  0
  6  7  1  0
  2  8  2  0
  3  8  2  0
  1  9  1  0
  9 10  2  0
  5 11  1  0
 10 11  1  0
  8 12  1  0
 11 12  2  0
 12 13  1  0
  9 14  1  0
 13 14  2  0
  6 15  1  0
 15 16  1  0
 16 17  1  0
  8 18  1  0
 17 18  1  0
 18 19  1  0
 15 20  1  0
 19 20  1  0
M  END
