x0734-x1093
     RDKit          3D

 38 42  0  0  0  0  0  0  0  0999 V2000
    5.1330   -4.6470   26.0850 N   0  0  0  0  0  0  0  0  0  0  0  0
    4.4980   -5.5900   25.5790 O   0  0  0  0  0  0  0  0  0  0  0  0
    4.6290   -3.7170   26.7280 O   0  0  0  0  0  0  0  0  0  0  0  0
    5.2910   -4.2020   19.7560 O   0  0  0  0  0  0  0  0  0  0  0  0
    6.4490   -3.9230   20.0670 C   0  0  0  0  0  0  0  0  0  0  0  0
    7.3660   -3.2190   19.0880 C   0  0  0  0  0  0  0  0  0  0  0  0
   13.3590   -1.9280   23.9690 C   0  0  0  0  0  0  0  0  0  0  0  0
    8.8210    1.3590   21.2940 O   0  0  0  0  0  0  0  0  0  0  0  0
    8.8740    0.1680   21.6630 C   0  0  0  0  0  0  0  0  0  0  0  0
    7.9080   -0.9320   21.1320 C   0  0  1  0  0  0  0  0  0  0  0  0
    7.0280   -1.5940   22.2600 C   0  0  0  0  0  0  0  0  0  0  0  0
    6.5870   -4.7960   26.1760 C   0  0  0  0  0  0  0  0  0  0  0  0
    7.4170   -4.2470   24.9800 C   0  0  0  0  0  0  0  0  0  0  0  0
    8.9440   -4.4180   25.0930 C   0  0  0  0  0  0  0  0  0  0  0  0
    9.4530   -5.1150   26.3980 C   0  0  0  0  0  0  0  0  0  0  0  0
    8.5390   -5.5400   27.3700 C   0  0  0  0  0  0  0  0  0  0  0  0
    7.1700   -5.4040   27.2950 C   0  0  0  0  0  0  0  0  0  0  0  0
    7.0200   -4.2910   21.2750 N   0  0  0  0  0  0  0  0  0  0  0  0
    6.2200   -5.1550   22.1240 C   0  0  0  0  0  0  0  0  0  0  0  0
    5.7180   -4.4480   23.2290 C   0  0  0  0  0  0  0  0  0  0  0  0
    6.8160   -3.6170   23.8430 N   0  0  0  0  0  0  0  0  0  0  0  0
    7.6020   -2.8880   22.9700 C   0  0  1  0  0  0  0  0  0  0  0  0
    8.1230   -3.6210   21.9630 C   0  0  0  0  0  0  0  0  0  0  0  0
   12.3240   -1.2720   23.1980 N   0  0  0  0  0  0  0  0  0  0  0  0
   12.2240    0.0620   23.4290 C   0  0  0  0  0  0  0  0  0  0  0  0
   10.7730    0.5210   23.1970 C   0  0  0  0  0  0  0  0  0  0  0  0
    9.8530   -0.2460   22.5530 N   0  0  0  0  0  0  0  0  0  0  0  0
   10.1980   -1.5380   22.3580 C   0  0  0  0  0  0  0  0  0  0  0  0
   11.1700   -1.8830   23.4590 C   0  0  0  0  0  0  0  0  0  0  0  0
    6.3530    0.0450   17.9500 N   0  0  0  0  0  0  0  0  0  0  0  0
    7.2660   -0.6070   18.7090 C   0  0  0  0  0  0  0  0  0  0  0  0
    7.0560   -0.3910   20.0410 C   0  0  0  0  0  0  0  0  0  0  0  0
    5.9530    0.4110   20.2250 C   0  0  0  0  0  0  0  0  0  0  0  0
    5.4840    0.7240   18.9220 C   0  0  0  0  0  0  0  0  0  0  0  0
    4.3990    1.5280   18.7010 N   0  0  0  0  0  0  0  0  0  0  0  0
    3.7000    2.0300   19.7560 C   0  0  0  0  0  0  0  0  0  0  0  0
    4.0590    1.7820   21.0780 C   0  0  0  0  0  0  0  0  0  0  0  0
    5.2910    0.9040   21.2710 C   0  0  0  0  0  0  0  0  0  0  0  0
  1  2  2  0
  1  3  1  0
  4  5  2  0
  5  6  1  0
  8  9  2  0
  9 10  1  0
 10 11  1  1
  1 12  1  0
 12 13  2  0
 13 14  1  0
 14 15  2  0
 15 16  1  0
 12 17  1  0
 16 17  2  0
  5 18  1  0
 18 19  1  0
 19 20  1  0
 13 21  1  0
 20 21  1  0
 22 11  1  6
 21 22  1  0
 18 23  1  0
 22 23  1  0
  7 24  1  0
 24 25  1  0
 25 26  1  0
  9 27  1  0
 26 27  1  0
 27 28  1  0
 24 29  1  0
 28 29  1  0
 30 31  1  0
 10 32  1  0
 31 32  2  0
 32 33  1  0
 30 34  2  0
 33 34  1  0
 34 35  1  0
 35 36  1  0
 36 37  2  0
 33 38  2  0
 37 38  1  0
M  CHG  2   1   1   3  -1
M  END
