x0731-x3110-x3117
     RDKit          3D

 52 57  0  0  0  0  0  0  0  0999 V2000
    8.2660    1.7510   23.4470 N   0  0  0  0  0  0  0  0  0  0  0  0
   13.7180    5.2940   22.4780 C   0  0  0  0  0  0  0  0  0  0  0  0
   12.1940    3.5100   23.1900 O   0  0  0  0  0  0  0  0  0  0  0  0
   12.5140    4.4490   22.2720 C   0  0  0  0  0  0  0  0  0  0  0  0
    7.2390   -1.4120   22.0870 N   0  0  0  0  0  0  0  0  0  0  0  0
   10.8170    3.3900   23.3200 C   0  0  0  0  0  0  0  0  0  0  0  0
    8.6760    1.0180   21.3380 O   0  0  0  0  0  0  0  0  0  0  0  0
   10.0320    2.3820   22.3890 C   0  0  0  0  0  0  0  0  0  0  0  0
    7.9490    0.9610   22.3380 C   0  0  0  0  0  0  0  0  0  0  0  0
    6.7720   -0.0070   22.0140 C   0  0  1  0  0  0  0  0  0  0  0  0
   12.6000   -1.7990   24.1210 C   0  0  0  0  0  0  0  0  0  0  0  0
   12.6680   -0.5940   25.0270 C   0  0  0  0  0  0  0  0  0  0  0  0
   13.4520   -2.0030   23.0530 C   0  0  0  0  0  0  0  0  0  0  0  0
   12.8350   -2.9320   25.0550 C   0  0  0  0  0  0  0  0  0  0  0  0
    0.8380   -0.6670   26.2060 C   0  0  0  0  0  0  0  0  0  0  0  0
    6.1410   -4.9910   26.9270 O   0  0  0  0  0  0  0  0  0  0  0  0
    4.4740   -6.7460   25.8670 O   0  0  0  0  0  0  0  0  0  0  0  0
    5.2550   -5.1580   19.9850 O   0  0  0  0  0  0  0  0  0  0  0  0
    6.2090   -4.5850   20.4560 C   0  0  0  0  0  0  0  0  0  0  0  0
    6.9120   -3.5060   19.6580 C   0  0  0  0  0  0  0  0  0  0  0  0
    5.1040   -5.4500   25.8280 S   0  0  0  0  0  0  0  0  0  0  0  0
    6.3820   -2.5090   22.4800 C   0  0  0  0  0  0  0  0  0  0  0  0
    6.4840    0.2340   18.0950 N   0  0  0  0  0  0  0  0  0  0  0  0
    5.3070    1.0760   17.8720 C   0  0  0  0  0  0  0  0  0  0  0  0
    4.4910    1.6270   19.0330 C   0  0  0  0  0  0  0  0  0  0  0  0
    4.9360    1.2860   20.4460 C   0  0  0  0  0  0  0  0  0  0  0  0
    6.1830    0.4070   20.6740 C   0  0  0  0  0  0  0  0  0  0  0  0
    6.8890   -0.0750   19.3600 C   0  0  0  0  0  0  0  0  0  0  0  0
    9.5200   -1.8230   21.7100 C   0  0  0  0  0  0  0  0  0  0  0  0
   10.8270   -1.9370   22.1190 C   0  0  0  0  0  0  0  0  0  0  0  0
   11.2520   -1.7390   23.5530 C   0  0  0  0  0  0  0  0  0  0  0  0
   10.2050   -1.4400   24.4470 C   0  0  0  0  0  0  0  0  0  0  0  0
    8.8950   -1.3330   24.0060 C   0  0  0  0  0  0  0  0  0  0  0  0
    8.5430   -1.5220   22.5990 C   0  0  0  0  0  0  0  0  0  0  0  0
    9.3070    4.6770   24.7920 O   0  0  0  0  0  0  0  0  0  0  0  0
    9.6920    3.8350   23.9450 C   0  0  0  0  0  0  0  0  0  0  0  0
    8.9550    2.9530   23.1430 C   0  0  2  0  0  0  0  0  0  0  0  0
    7.9670    3.7920   22.3680 C   0  0  0  0  0  0  0  0  0  0  0  0
    7.6890    5.1990   22.9300 C   0  0  0  0  0  0  0  0  0  0  0  0
    8.7290    5.7200   23.9620 C   0  0  0  0  0  0  0  0  0  0  0  0
    1.8580   -1.8480   26.0820 C   0  0  0  0  0  0  0  0  0  0  0  0
    1.4830   -3.1780   25.4370 C   0  0  0  0  0  0  0  0  0  0  0  0
    2.4690   -4.3260   25.3320 C   0  0  0  0  0  0  0  0  0  0  0  0
    3.8980   -4.1910   25.8790 C   0  0  0  0  0  0  0  0  0  0  0  0
    4.2230   -2.8290   26.5060 C   0  0  0  0  0  0  0  0  0  0  0  0
    3.1540   -1.7010   26.5740 C   0  0  0  0  0  0  0  0  0  0  0  0
    6.6890   -4.9290   21.7010 N   0  0  0  0  0  0  0  0  0  0  0  0
    7.1280   -3.8770   22.6470 C   0  0  2  0  0  0  0  0  0  0  0  0
    6.9850   -4.4360   24.0470 C   0  0  0  0  0  0  0  0  0  0  0  0
    5.7160   -5.2000   24.2600 N   0  0  0  0  0  0  0  0  0  0  0  0
    5.3370   -6.1640   23.2200 C   0  0  0  0  0  0  0  0  0  0  0  0
    6.3300   -6.2410   22.2610 C   0  0  0  0  0  0  0  0  0  0  0  0
  2  4  1  0
  3  4  1  0
  3  6  1  0
  6  8  1  0
  1  9  1  0
  7  9  2  0
  5 10  1  0
 10  9  1  6
 11 12  1  0
 11 13  1  0
 11 14  1  0
 18 19  2  0
 19 20  1  0
 16 21  2  0
 17 21  2  0
  5 22  1  0
 23 24  2  0
 24 25  1  0
 25 26  2  0
 10 27  1  0
 26 27  1  0
 23 28  1  0
 27 28  2  0
 29 30  2  0
 11 31  1  0
 30 31  1  0
 31 32  2  0
 32 33  1  0
  5 34  1  0
 29 34  1  0
 33 34  2  0
  6 36  2  0
 35 36  1  0
 37  1  1  1
  8 37  1  0
 36 37  1  0
 37 38  1  0
 38 39  1  0
 35 40  1  0
 39 40  1  0
 15 41  1  0
 41 42  2  0
 42 43  1  0
 21 44  1  0
 43 44  2  0
 44 45  1  0
 41 46  1  0
 45 46  2  0
 19 47  1  0
 48 22  1  1
 47 48  1  0
 48 49  1  0
 21 50  1  0
 49 50  1  0
 50 51  1  0
 47 52  1  0
 51 52  1  0
M  END
