x0734-x1334
     RDKit          3D

 21 22  0  0  0  0  0  0  0  0999 V2000
    5.2320   -4.8180   25.8940 N   0  0  0  0  0  0  0  0  0  0  0  0
    4.6460   -5.7330   25.2940 O   0  0  0  0  0  0  0  0  0  0  0  0
    4.6630   -3.9120   26.5260 O   0  0  0  0  0  0  0  0  0  0  0  0
    5.0490   -4.0170   19.5370 O   0  0  0  0  0  0  0  0  0  0  0  0
    6.1720   -3.7110   19.8910 C   0  0  0  0  0  0  0  0  0  0  0  0
    7.1650   -3.0980   18.9130 C   0  0  0  0  0  0  0  0  0  0  0  0
    6.9900   -5.9280   29.0350 Cl  0  0  0  0  0  0  0  0  0  0  0  0
    6.5910   -4.9750   26.1420 C   0  0  0  0  0  0  0  0  0  0  0  0
    7.5010   -4.6670   25.0120 C   0  0  0  0  0  0  0  0  0  0  0  0
    8.9360   -4.8510   25.3990 C   0  0  0  0  0  0  0  0  0  0  0  0
    9.2920   -5.3100   26.8090 C   0  0  0  0  0  0  0  0  0  0  0  0
    8.3470   -5.6620   28.0330 C   0  0  0  0  0  0  0  0  0  0  0  0
    6.9600   -5.3860   27.3810 C   0  0  0  0  0  0  0  0  0  0  0  0
    6.5770   -3.9540   21.1760 N   0  0  0  0  0  0  0  0  0  0  0  0
    6.4120   -5.2700   21.7340 C   0  0  0  0  0  0  0  0  0  0  0  0
    6.0940   -5.0750   23.2080 C   0  0  0  0  0  0  0  0  0  0  0  0
    7.0730   -4.2740   23.7870 N   0  0  0  0  0  0  0  0  0  0  0  0
    7.6150   -3.0580   23.1610 C   0  0  2  0  0  0  0  0  0  0  0  0
    7.5010   -3.0810   21.7930 C   0  0  0  0  0  0  0  0  0  0  0  0
    9.2930   -2.4280   24.8700 C   0  0  0  0  0  0  0  0  0  0  0  0
    9.0790   -2.7410   23.5280 C   0  0  0  0  0  0  0  0  0  0  0  0
  1  2  2  0
  1  3  1  0
  4  5  2  0
  5  6  1  0
  1  8  1  0
  8  9  2  0
  9 10  1  0
 10 11  2  0
  7 12  1  0
 11 12  1  0
  8 13  1  0
 12 13  2  0
  5 14  1  0
 14 15  1  0
 15 16  1  0
  9 17  1  0
 16 17  1  0
 17 18  1  0
 14 19  1  0
 18 19  1  0
 18 21  1  6
 20 21  1  0
M  CHG  2   1   1   3  -1
M  END
