x0734-x0736
     RDKit          3D

 25 27  0  0  0  0  0  0  0  0999 V2000
    4.9440   -4.8980   26.2270 N   0  0  0  0  0  0  0  0  0  0  0  0
    4.3060   -5.6910   25.5150 O   0  0  0  0  0  0  0  0  0  0  0  0
    4.4540   -3.9260   26.8180 O   0  0  0  0  0  0  0  0  0  0  0  0
    5.1260   -4.2810   19.7410 O   0  0  0  0  0  0  0  0  0  0  0  0
    6.2160   -3.8600   20.0910 C   0  0  0  0  0  0  0  0  0  0  0  0
    7.1060   -3.1380   19.0950 C   0  0  0  0  0  0  0  0  0  0  0  0
    5.8910   -1.6360   24.2370 O   0  0  0  0  0  0  0  0  0  0  0  0
    7.0440   -2.0110   24.3200 C   0  0  0  0  0  0  0  0  0  0  0  0
    6.3840   -5.1170   26.3870 C   0  0  0  0  0  0  0  0  0  0  0  0
    7.2230   -4.7960   25.1460 C   0  0  0  0  0  0  0  0  0  0  0  0
    8.7210   -5.0040   25.2500 C   0  0  0  0  0  0  0  0  0  0  0  0
    9.3630   -5.5230   26.5320 C   0  0  0  0  0  0  0  0  0  0  0  0
    8.4990   -5.8300   27.7600 C   0  0  0  0  0  0  0  0  0  0  0  0
    7.0040   -5.6200   27.6730 C   0  0  0  0  0  0  0  0  0  0  0  0
    6.6940   -4.0750   21.3750 N   0  0  0  0  0  0  0  0  0  0  0  0
    6.5480   -5.4070   21.9190 C   0  0  0  0  0  0  0  0  0  0  0  0
    5.9900   -5.2980   23.1740 C   0  0  0  0  0  0  0  0  0  0  0  0
    6.6590   -4.3340   23.9720 N   0  0  0  0  0  0  0  0  0  0  0  0
    7.4600   -3.2160   23.4460 C   0  0  1  0  0  0  0  0  0  0  0  0
    7.2380   -2.9090   22.0900 C   0  0  0  0  0  0  0  0  0  0  0  0
    8.4050   -0.0480   24.9290 O   0  0  0  0  0  0  0  0  0  0  0  0
    7.9190   -1.3180   25.2640 C   0  0  0  0  0  0  0  0  0  0  0  0
    8.3970   -1.6750   26.5360 C   0  0  0  0  0  0  0  0  0  0  0  0
    9.1600   -0.6430   26.9860 C   0  0  0  0  0  0  0  0  0  0  0  0
    9.1780    0.4290   25.9500 C   0  0  0  0  0  0  0  0  0  0  0  0
  1  2  2  0
  1  3  1  0
  4  5  2  0
  5  6  1  0
  7  8  2  0
  1  9  1  0
  9 10  2  0
 10 11  1  0
 11 12  2  0
 12 13  1  0
  9 14  1  0
 13 14  2  0
  5 15  1  0
 15 16  1  0
 16 17  1  0
 10 18  1  0
 17 18  1  0
 19  8  1  1
 18 19  1  0
 15 20  1  0
 19 20  1  0
  8 22  1  0
 21 22  1  0
 22 23  2  0
 23 24  1  0
 21 25  1  0
 24 25  2  0
M  CHG  2   1   1   3  -1
M  END
