x0734-x2776-x2703
     RDKit          3D

 51 55  0  0  0  0  0  0  0  0999 V2000
    7.2050   -1.0330   21.7360 N   0  0  0  0  0  0  0  0  0  0  0  0
    7.7570    2.2090   22.8280 N   0  0  0  0  0  0  0  0  0  0  0  0
    8.9230    1.4310   21.0960 O   0  0  0  0  0  0  0  0  0  0  0  0
   10.9050    6.6500   23.8080 O   0  0  0  0  0  0  0  0  0  0  0  0
    6.8300    0.2960   21.5690 C   0  0  1  0  0  0  0  0  0  0  0  0
   12.6340   -2.8700   24.3360 O   0  0  0  0  0  0  0  0  0  0  0  0
    7.9170    1.3250   21.8030 C   0  0  0  0  0  0  0  0  0  0  0  0
   10.4200    1.7890   23.9770 C   0  0  0  0  0  0  0  0  0  0  0  0
   11.7690    6.5160   24.6720 C   0  0  0  0  0  0  0  0  0  0  0  0
   12.3310   -1.6810   24.3280 C   0  0  1  0  0  0  0  0  0  0  0  0
   13.1180   -0.7700   23.3980 C   0  0  0  0  0  0  0  0  0  0  0  0
   13.1650   -3.2910   25.5870 C   0  0  0  0  0  0  0  0  0  0  0  0
    9.4910    1.0980   24.9820 C   0  0  0  0  0  0  0  0  0  0  0  0
    6.6680    4.8010   22.0860 C   0  0  0  0  0  0  0  0  0  0  0  0
    5.2010   -4.8490   26.2420 N   0  0  0  0  0  0  0  0  0  0  0  0
    4.3600   -5.7590   25.4730 O   0  0  0  0  0  0  0  0  0  0  0  0
    4.7730   -3.8350   26.8130 O   0  0  0  0  0  0  0  0  0  0  0  0
    5.2670   -4.2580   19.7150 O   0  0  0  0  0  0  0  0  0  0  0  0
    6.2600   -3.6150   20.0170 C   0  0  0  0  0  0  0  0  0  0  0  0
    7.2440   -3.0600   18.9650 C   0  0  0  0  0  0  0  0  0  0  0  0
    6.1630   -1.9940   21.9380 C   0  0  0  0  0  0  0  0  0  0  0  0
    6.3390    0.4470   17.7470 N   0  0  0  0  0  0  0  0  0  0  0  0
    5.2280    1.2360   17.7980 C   0  0  0  0  0  0  0  0  0  0  0  0
    4.6010    1.7210   18.9430 C   0  0  0  0  0  0  0  0  0  0  0  0
    5.1350    1.3950   20.1740 C   0  0  0  0  0  0  0  0  0  0  0  0
    6.2570    0.6090   20.1970 C   0  0  0  0  0  0  0  0  0  0  0  0
    6.8710    0.1150   18.9350 C   0  0  0  0  0  0  0  0  0  0  0  0
    9.8860    3.0890   23.6370 C   0  0  0  0  0  0  0  0  0  0  0  0
   10.5980    4.2800   23.8460 C   0  0  0  0  0  0  0  0  0  0  0  0
   10.1050    5.5600   23.5360 C   0  0  0  0  0  0  0  0  0  0  0  0
    8.8330    5.7200   22.9620 C   0  0  0  0  0  0  0  0  0  0  0  0
    8.0320    4.5810   22.7070 C   0  0  0  0  0  0  0  0  0  0  0  0
    8.5010    3.2990   23.0290 C   0  0  0  0  0  0  0  0  0  0  0  0
    9.6400   -1.2390   21.7730 C   0  0  0  0  0  0  0  0  0  0  0  0
   10.8640   -1.4000   22.3740 C   0  0  0  0  0  0  0  0  0  0  0  0
   10.9370   -1.5470   23.7520 C   0  0  0  0  0  0  0  0  0  0  0  0
    9.7640   -1.5450   24.4970 C   0  0  0  0  0  0  0  0  0  0  0  0
    8.5400   -1.3830   23.8470 C   0  0  0  0  0  0  0  0  0  0  0  0
    8.4520   -1.2220   22.4630 C   0  0  0  0  0  0  0  0  0  0  0  0
    6.6240   -5.1300   26.3280 C   0  0  0  0  0  0  0  0  0  0  0  0
    7.4810   -4.9880   25.2390 C   0  0  0  0  0  0  0  0  0  0  0  0
    8.8310   -5.2600   25.3580 C   0  0  0  0  0  0  0  0  0  0  0  0
    9.3620   -5.6800   26.5600 C   0  0  0  0  0  0  0  0  0  0  0  0
    8.5960   -5.8570   27.7220 C   0  0  0  0  0  0  0  0  0  0  0  0
    7.0920   -5.5490   27.5670 C   0  0  0  0  0  0  0  0  0  0  0  0
    6.4650   -3.4150   21.5180 C   0  0  0  0  0  0  0  0  0  0  0  0
    5.6550   -4.5850   22.0870 C   0  0  0  0  0  0  0  0  0  0  0  0
    5.7770   -4.7400   23.6060 C   0  0  0  0  0  0  0  0  0  0  0  0
    7.1800   -4.5890   23.9750 N   0  0  0  0  0  0  0  0  0  0  0  0
    7.9150   -3.4560   23.5110 C   0  0  0  0  0  0  0  0  0  0  0  0
    7.8720   -3.7040   21.9680 C   0  0  0  0  0  0  0  0  0  0  0  0
  1  5  1  0
  2  7  1  0
  3  7  2  0
  5  7  1  6
  4  9  1  0
  6 10  1  0
 10 11  1  6
  6 12  1  0
  8 13  1  0
 15 16  2  0
 15 17  1  0
 18 19  2  0
 19 20  1  0
  1 21  1  0
 22 23  2  0
 23 24  1  0
 24 25  2  0
  5 26  1  0
 25 26  1  0
 22 27  1  0
 26 27  2  0
  8 28  1  0
 28 29  2  0
  4 30  1  0
 29 30  1  0
 30 31  2  0
 14 32  1  0
 31 32  1  0
  2 33  1  0
 28 33  1  0
 32 33  2  0
 34 35  2  0
 10 36  1  0
 35 36  1  0
 36 37  2  0
 37 38  1  0
  1 39  1  0
 34 39  1  0
 38 39  2  0
 15 40  1  0
 40 41  2  0
 41 42  1  0
 42 43  2  0
 43 44  1  0
 40 45  1  0
 44 45  2  0
 46 19  1  0
 21 46  1  0
 46 47  1  0
 47 48  1  0
 41 49  1  0
 48 49  1  0
 49 50  1  0
 46 51  1  0
 50 51  1  0
M  CHG  2  15   1  17  -1
M  END
