x0734-x0967-x2776
     RDKit          3D

 52 57  0  0  0  0  0  0  0  0999 V2000
    8.3700    2.0580   22.4700 N   0  0  0  0  0  0  0  0  0  0  0  0
    6.2450    2.8930   23.1050 O   0  0  0  0  0  0  0  0  0  0  0  0
    7.4450    3.0630   22.8950 C   0  0  0  0  0  0  0  0  0  0  0  0
    5.7570    0.8660   17.0430 O   0  0  0  0  0  0  0  0  0  0  0  0
    8.0460    0.7930   22.9900 C   0  0  1  0  0  0  0  0  0  0  0  0
   10.4980    0.1110   22.4820 O   0  0  0  0  0  0  0  0  0  0  0  0
    6.5960    0.3450   22.6710 C   0  0  0  0  0  0  0  0  0  0  0  0
    9.1500   -0.2840   22.7550 C   0  0  0  0  0  0  0  0  0  0  0  0
   12.1730   -1.7800   23.3260 C   0  0  2  0  0  0  0  0  0  0  0  0
   12.6210   -1.9820   24.7170 N   0  0  0  0  0  0  0  0  0  0  0  0
   12.9060   -0.7700   24.0330 C   0  0  0  0  0  0  0  0  0  0  0  0
   13.5970   -2.8610   24.9430 C   0  0  0  0  0  0  0  0  0  0  0  0
   10.8670    6.8510   23.9350 O   0  0  0  0  0  0  0  0  0  0  0  0
   11.0690    2.0840   23.6250 C   0  0  0  0  0  0  0  0  0  0  0  0
   11.8100    6.8030   24.7230 C   0  0  0  0  0  0  0  0  0  0  0  0
    5.2760   -4.8820   26.2560 N   0  0  0  0  0  0  0  0  0  0  0  0
    4.6850   -5.7110   25.5520 O   0  0  0  0  0  0  0  0  0  0  0  0
    4.7560   -3.8640   26.7380 O   0  0  0  0  0  0  0  0  0  0  0  0
    4.9870   -4.0490   19.5360 O   0  0  0  0  0  0  0  0  0  0  0  0
    6.0980   -3.7740   19.9420 C   0  0  0  0  0  0  0  0  0  0  0  0
    7.1390   -3.1320   19.0400 C   0  0  0  0  0  0  0  0  0  0  0  0
    8.8040   -3.4800   22.6670 C   0  0  0  0  0  0  0  0  0  0  0  0
    6.2440    0.6030   21.2040 C   0  0  0  0  0  0  0  0  0  0  0  0
    6.9750   -0.1510   20.2900 C   0  0  0  0  0  0  0  0  0  0  0  0
    6.8490   -0.1030   18.9090 C   0  0  0  0  0  0  0  0  0  0  0  0
    5.9050    0.7840   18.3750 C   0  0  0  0  0  0  0  0  0  0  0  0
    5.1270    1.5780   19.2140 C   0  0  0  0  0  0  0  0  0  0  0  0
    5.2860    1.5030   20.7610 C   0  0  0  0  0  0  0  0  0  0  0  0
    9.9210   -2.5080   22.8860 C   0  0  0  0  0  0  0  0  0  0  0  0
   10.7330   -1.4540   23.0550 C   0  0  0  0  0  0  0  0  0  0  0  0
   10.1530   -0.2160   22.9910 C   0  0  0  0  0  0  0  0  0  0  0  0
    8.7770    0.0680   22.7630 C   0  0  0  0  0  0  0  0  0  0  0  0
    7.6640   -0.7720   22.5510 C   0  0  0  0  0  0  0  0  0  0  0  0
    8.7220   -1.7760   22.7050 C   0  0  0  0  0  0  0  0  0  0  0  0
   10.3380    3.3770   23.5550 C   0  0  0  0  0  0  0  0  0  0  0  0
   10.9720    4.5320   23.7760 C   0  0  0  0  0  0  0  0  0  0  0  0
   10.2170    5.6450   23.6900 C   0  0  0  0  0  0  0  0  0  0  0  0
    8.8930    5.5580   23.3830 C   0  0  0  0  0  0  0  0  0  0  0  0
    8.0450    4.4130   23.1170 C   0  0  0  0  0  0  0  0  0  0  0  0
    8.9950    3.3730   23.2580 C   0  0  0  0  0  0  0  0  0  0  0  0
    6.6810   -4.9570   26.2960 C   0  0  0  0  0  0  0  0  0  0  0  0
    7.4610   -4.7680   25.1770 C   0  0  0  0  0  0  0  0  0  0  0  0
    8.8650   -4.8540   25.2870 C   0  0  0  0  0  0  0  0  0  0  0  0
    9.5150   -5.1350   26.5350 C   0  0  0  0  0  0  0  0  0  0  0  0
    8.7730   -5.3380   27.6970 C   0  0  0  0  0  0  0  0  0  0  0  0
    7.3510   -5.2610   27.6390 C   0  0  0  0  0  0  0  0  0  0  0  0
    6.4270   -4.0620   21.2250 N   0  0  0  0  0  0  0  0  0  0  0  0
    6.2940   -5.4350   21.7140 C   0  0  0  0  0  0  0  0  0  0  0  0
    6.0220   -5.4180   23.2640 C   0  0  0  0  0  0  0  0  0  0  0  0
    6.9680   -4.4910   23.9200 N   0  0  0  0  0  0  0  0  0  0  0  0
    7.3910   -3.2450   23.2410 C   0  0  2  0  0  0  0  0  0  0  0  0
    6.4960   -3.0110   22.2300 C   0  0  0  0  0  0  0  0  0  0  0  0
  1  3  1  0
  2  3  2  0
  1  5  1  0
  5  7  1  6
  5  8  1  0
  6  8  2  0
  9 10  1  0
  9 11  1  0
 10 11  1  0
 10 12  1  0
 13 15  1  0
 16 17  2  0
 16 18  1  0
 19 20  2  0
 20 21  1  0
  7 23  1  0
 23 24  2  0
 24 25  1  0
  4 26  1  0
 25 26  2  0
 26 27  1  0
 23 28  1  0
 27 28  2  0
 22 29  1  0
  9 30  1  1
 29 30  1  0
 30 31  2  0
 31 32  1  0
 32 33  2  0
  8 34  1  0
 29 34  2  0
 33 34  1  0
 14 35  1  0
 35 36  2  0
 13 37  1  0
 36 37  1  0
 37 38  2  0
  3 39  1  0
 38 39  1  0
 35 40  1  0
 39 40  2  0
 16 41  1  0
 41 42  2  0
 42 43  1  0
 43 44  2  0
 44 45  1  0
 41 46  1  0
 45 46  2  0
 20 47  1  0
 47 48  1  0
 48 49  1  0
 42 50  1  0
 49 50  1  0
 51 22  1  6
 50 51  1  0
 47 52  1  0
 51 52  1  0
M  CHG  2  16   1  18  -1
M  END
