x0731-x0678
     RDKit          3D

 37 40  0  0  0  0  0  0  0  0999 V2000
    0.8850   -0.9210   26.0070 C   0  0  0  0  0  0  0  0  0  0  0  0
    6.5070   -4.9420   26.6820 O   0  0  0  0  0  0  0  0  0  0  0  0
    4.7360   -6.6060   26.0270 O   0  0  0  0  0  0  0  0  0  0  0  0
    5.2630   -4.9870   19.9850 O   0  0  0  0  0  0  0  0  0  0  0  0
    6.2790   -4.4840   20.3950 C   0  0  0  0  0  0  0  0  0  0  0  0
    7.0110   -3.4350   19.5380 C   0  0  0  0  0  0  0  0  0  0  0  0
    5.4330   -5.3560   25.8090 S   0  0  0  0  0  0  0  0  0  0  0  0
    9.0710    1.4700   21.3160 O   0  0  0  0  0  0  0  0  0  0  0  0
    8.6990    0.4440   21.9110 C   0  0  0  0  0  0  0  0  0  0  0  0
    9.4310   -0.0750   23.1910 C   0  0  0  0  0  0  0  0  0  0  0  0
    7.6030   -0.3230   21.4940 N   0  0  0  0  0  0  0  0  0  0  0  0
    6.6870   -2.5430   22.1110 C   0  0  0  0  0  0  0  0  0  0  0  0
    7.8710   -1.7580   21.5620 C   0  0  0  0  0  0  0  0  0  0  0  0
    1.9720   -1.9440   25.9540 C   0  0  0  0  0  0  0  0  0  0  0  0
    1.8180   -3.3330   25.3770 C   0  0  0  0  0  0  0  0  0  0  0  0
    2.9470   -4.3450   25.3580 C   0  0  0  0  0  0  0  0  0  0  0  0
    4.2170   -4.0430   25.8830 C   0  0  0  0  0  0  0  0  0  0  0  0
    4.4690   -2.7880   26.4290 C   0  0  0  0  0  0  0  0  0  0  0  0
    3.3880   -1.6970   26.4920 C   0  0  0  0  0  0  0  0  0  0  0  0
    6.8150   -4.9080   21.6200 N   0  0  0  0  0  0  0  0  0  0  0  0
    7.1370   -3.9830   22.5690 C   0  0  2  0  0  0  0  0  0  0  0  0
    6.5390   -3.9780   23.8180 C   0  0  0  0  0  0  0  0  0  0  0  0
    6.0610   -5.3510   24.2450 N   0  0  0  0  0  0  0  0  0  0  0  0
    5.4810   -6.0330   23.2420 C   0  0  0  0  0  0  0  0  0  0  0  0
    6.3540   -6.0600   22.1570 C   0  0  0  0  0  0  0  0  0  0  0  0
   11.2240   -1.4050   22.4010 C   0  0  0  0  0  0  0  0  0  0  0  0
   12.5670   -1.7390   22.3650 C   0  0  0  0  0  0  0  0  0  0  0  0
   13.2540   -1.2350   23.4800 C   0  0  0  0  0  0  0  0  0  0  0  0
   12.4500   -1.0060   24.5840 C   0  0  0  0  0  0  0  0  0  0  0  0
   11.5320   -0.0180   24.3060 C   0  0  0  0  0  0  0  0  0  0  0  0
   10.9220   -0.1810   23.0570 C   0  0  0  0  0  0  0  0  0  0  0  0
    5.8070    1.0780   20.4970 C   0  0  0  0  0  0  0  0  0  0  0  0
    5.0810    1.5560   19.3940 C   0  0  0  0  0  0  0  0  0  0  0  0
    5.3460    1.1650   18.0860 C   0  0  0  0  0  0  0  0  0  0  0  0
    6.4440    0.1980   17.8680 N   0  0  0  0  0  0  0  0  0  0  0  0
    7.1680   -0.2750   19.0590 C   0  0  0  0  0  0  0  0  0  0  0  0
    6.8600    0.1600   20.3480 C   0  0  0  0  0  0  0  0  0  0  0  0
  4  5  2  0
  5  6  1  0
  2  7  2  0
  3  7  2  0
  8  9  2  0
  9 10  1  0
  9 11  1  0
 11 13  1  0
 12 13  1  0
  1 14  1  0
 14 15  2  0
 15 16  1  0
  7 17  1  0
 16 17  2  0
 17 18  1  0
 14 19  1  0
 18 19  2  0
  5 20  1  0
 21 12  1  6
 20 21  1  0
 21 22  1  0
  7 23  1  0
 22 23  1  0
 23 24  1  0
 20 25  1  0
 24 25  1  0
 26 27  1  0
 27 28  1  0
 28 29  1  0
 29 30  1  0
 10 31  1  0
 26 31  1  0
 30 31  1  0
 32 33  2  0
 33 34  1  0
 34 35  2  0
 35 36  1  0
 11 37  1  0
 32 37  1  0
 36 37  2  0
M  END
