x0731-x3113
     RDKit          3D

 46 49  0  0  0  0  0  0  0  0999 V2000
    7.4240   -1.3330   21.9740 N   0  0  0  0  0  0  0  0  0  0  0  0
    8.4850    1.2530   23.3540 N   0  0  0  0  0  0  0  0  0  0  0  0
    8.8590    1.5690   21.1500 O   0  0  0  0  0  0  0  0  0  0  0  0
   12.4480    3.6300   22.6280 O   0  0  0  0  0  0  0  0  0  0  0  0
    7.0550    0.0420   21.7790 C   0  0  1  0  0  0  0  0  0  0  0  0
    8.1980    1.0010   22.0270 C   0  0  0  0  0  0  0  0  0  0  0  0
    9.0000    2.6130   23.4490 C   0  0  0  0  0  0  0  0  0  0  0  0
   10.5340    2.3780   23.4250 C   0  0  0  0  0  0  0  0  0  0  0  0
   11.3680    3.6740   23.1960 C   0  0  0  0  0  0  0  0  0  0  0  0
   13.0580    4.7010   22.7130 C   0  0  0  0  0  0  0  0  0  0  0  0
   12.4200   -2.1170   24.3120 C   0  0  0  0  0  0  0  0  0  0  0  0
   13.4970   -2.4350   23.3070 C   0  0  0  0  0  0  0  0  0  0  0  0
   12.1950   -3.2430   25.2780 C   0  0  0  0  0  0  0  0  0  0  0  0
   12.7680   -0.8310   25.0510 C   0  0  0  0  0  0  0  0  0  0  0  0
    0.8870   -1.0000   26.0170 C   0  0  0  0  0  0  0  0  0  0  0  0
    6.3980   -4.7970   26.6830 O   0  0  0  0  0  0  0  0  0  0  0  0
    4.7160   -6.5160   25.9330 O   0  0  0  0  0  0  0  0  0  0  0  0
    5.2610   -5.2100   19.9860 O   0  0  0  0  0  0  0  0  0  0  0  0
    6.1900   -4.5770   20.3900 C   0  0  0  0  0  0  0  0  0  0  0  0
    6.8590   -3.4560   19.5860 C   0  0  0  0  0  0  0  0  0  0  0  0
    5.3150   -5.2040   25.8150 S   0  0  0  0  0  0  0  0  0  0  0  0
    6.5040   -2.4250   22.3390 C   0  0  0  0  0  0  0  0  0  0  0  0
    6.3760    0.1400   17.9940 N   0  0  0  0  0  0  0  0  0  0  0  0
    5.2800    0.9300   17.9300 C   0  0  0  0  0  0  0  0  0  0  0  0
    4.7450    1.4240   19.1030 C   0  0  0  0  0  0  0  0  0  0  0  0
    5.2980    1.1430   20.3540 C   0  0  0  0  0  0  0  0  0  0  0  0
    6.4260    0.3380   20.4330 C   0  0  0  0  0  0  0  0  0  0  0  0
    6.9860   -0.1840   19.2810 C   0  0  0  0  0  0  0  0  0  0  0  0
    9.8240   -1.3520   21.8190 C   0  0  0  0  0  0  0  0  0  0  0  0
   11.0740   -1.5460   22.3750 C   0  0  0  0  0  0  0  0  0  0  0  0
   11.1210   -1.9080   23.6960 C   0  0  0  0  0  0  0  0  0  0  0  0
    9.9820   -2.0760   24.4550 C   0  0  0  0  0  0  0  0  0  0  0  0
    8.7390   -1.8860   23.9020 C   0  0  0  0  0  0  0  0  0  0  0  0
    8.6670   -1.5240   22.5710 C   0  0  0  0  0  0  0  0  0  0  0  0
    2.0000   -2.0030   25.9800 C   0  0  0  0  0  0  0  0  0  0  0  0
    1.7850   -3.2600   25.4110 C   0  0  0  0  0  0  0  0  0  0  0  0
    2.7850   -4.2360   25.3550 C   0  0  0  0  0  0  0  0  0  0  0  0
    4.0540   -3.9760   25.8800 C   0  0  0  0  0  0  0  0  0  0  0  0
    4.3500   -2.7360   26.4640 C   0  0  0  0  0  0  0  0  0  0  0  0
    3.2470   -1.6520   26.5270 C   0  0  0  0  0  0  0  0  0  0  0  0
    6.7930   -4.8370   21.6700 N   0  0  0  0  0  0  0  0  0  0  0  0
    7.2470   -3.7890   22.6080 C   0  0  2  0  0  0  0  0  0  0  0  0
    7.1280   -4.2730   23.9110 C   0  0  0  0  0  0  0  0  0  0  0  0
    5.8230   -4.9650   24.1800 N   0  0  0  0  0  0  0  0  0  0  0  0
    5.4370   -6.0170   23.1910 C   0  0  0  0  0  0  0  0  0  0  0  0
    6.4370   -6.1440   22.2550 C   0  0  0  0  0  0  0  0  0  0  0  0
  1  5  1  0
  2  6  1  0
  3  6  2  0
  5  6  1  6
  2  7  1  0
  7  8  1  0
  4  9  1  0
  8  9  1  0
  4 10  1  0
 11 12  1  0
 11 13  1  0
 11 14  1  0
 18 19  2  0
 19 20  1  0
 16 21  2  0
 17 21  2  0
  1 22  1  0
 23 24  2  0
 24 25  1  0
 25 26  2  0
  5 27  1  0
 26 27  1  0
 23 28  1  0
 27 28  2  0
 29 30  2  0
 11 31  1  0
 30 31  1  0
 31 32  2  0
 32 33  1  0
  1 34  1  0
 29 34  1  0
 33 34  2  0
 15 35  1  0
 35 36  2  0
 36 37  1  0
 21 38  1  0
 37 38  2  0
 38 39  1  0
 35 40  1  0
 39 40  2  0
 19 41  1  0
 42 22  1  1
 41 42  1  0
 42 43  1  0
 21 44  1  0
 43 44  1  0
 44 45  1  0
 41 46  1  0
 45 46  1  0
M  END
