x0749-x3080
     RDKit          3D

 37 40  0  0  0  0  0  0  0  0999 V2000
    9.9940   -0.4520   23.3850 N   0  0  0  0  0  0  0  0  0  0  0  0
   10.9570    0.6420   23.5250 C   0  0  0  0  0  0  0  0  0  0  0  0
    9.0760    1.2700   21.2350 O   0  0  0  0  0  0  0  0  0  0  0  0
    9.7110   -0.9140   22.1410 C   0  0  0  0  0  0  0  0  0  0  0  0
    7.6760   -0.5450   20.8770 N   0  0  0  0  0  0  0  0  0  0  0  0
    7.3870   -0.8600   24.1370 O   0  0  0  0  0  0  0  0  0  0  0  0
    8.8100    0.0670   21.3750 C   0  0  0  0  0  0  0  0  0  0  0  0
    9.0420    0.4820   25.7350 O   0  0  0  0  0  0  0  0  0  0  0  0
    5.2490    0.9600   21.8970 C   0  0  0  0  0  0  0  0  0  0  0  0
    8.8750   -0.6940   24.6780 S   0  0  0  0  0  0  0  0  0  0  0  0
    6.2560    0.5820   17.6460 N   0  0  0  0  0  0  0  0  0  0  0  0
    5.1370    1.3050   18.1100 C   0  0  0  0  0  0  0  0  0  0  0  0
    4.8300    1.4120   19.4640 C   0  0  0  0  0  0  0  0  0  0  0  0
    5.6440    0.8030   20.4200 C   0  0  0  0  0  0  0  0  0  0  0  0
    6.7460    0.1060   19.9640 C   0  0  0  0  0  0  0  0  0  0  0  0
    7.0010    0.0180   18.6210 C   0  0  0  0  0  0  0  0  0  0  0  0
   11.6840   -1.2930   24.9040 N   0  0  0  0  0  0  0  0  0  0  0  0
   10.8870   -2.3150   25.2550 C   0  0  0  0  0  0  0  0  0  0  0  0
   11.3540   -3.5620   25.7100 C   0  0  0  0  0  0  0  0  0  0  0  0
   12.8970   -3.6990   25.8240 C   0  0  0  0  0  0  0  0  0  0  0  0
   13.7960   -2.5630   25.4480 C   0  0  0  0  0  0  0  0  0  0  0  0
   13.0070   -1.3460   24.9630 C   0  0  0  0  0  0  0  0  0  0  0  0
    8.6140   -3.0540   25.4730 C   0  0  0  0  0  0  0  0  0  0  0  0
    9.0000   -4.4180   25.9390 C   0  0  0  0  0  0  0  0  0  0  0  0
   10.4950   -4.6020   26.0440 C   0  0  0  0  0  0  0  0  0  0  0  0
    9.5110   -2.1400   25.1750 C   0  0  0  0  0  0  0  0  0  0  0  0
    7.3880   -3.2150   19.2390 C   0  0  0  0  0  0  0  0  0  0  0  0
    5.3230   -4.3360   19.8210 O   0  0  0  0  0  0  0  0  0  0  0  0
    6.4560   -4.0120   20.1710 C   0  0  0  0  0  0  0  0  0  0  0  0
    6.9400   -4.4090   21.4180 N   0  0  0  0  0  0  0  0  0  0  0  0
    7.9110   -3.7430   22.0620 C   0  0  0  0  0  0  0  0  0  0  0  0
    8.3230   -4.2660   23.4370 C   0  0  0  0  0  0  0  0  0  0  0  0
    7.6930   -5.5860   23.8820 C   0  0  0  0  0  0  0  0  0  0  0  0
    6.9470   -6.2020   22.8740 C   0  0  0  0  0  0  0  0  0  0  0  0
    6.1340   -5.3510   22.1550 C   0  0  0  0  0  0  0  0  0  0  0  0
    7.9850   -5.4340   26.2330 C   0  0  0  0  0  0  0  0  0  0  0  0
    7.1080   -5.3910   25.1490 C   0  0  0  0  0  0  0  0  0  0  0  0
  1  2  1  0
  1  4  1  0
  3  7  2  0
  4  7  1  0
  5  7  1  0
 10  1  1  0
  6 10  2  0
  8 10  2  0
 11 12  2  0
 12 13  1  0
  9 14  1  0
 13 14  2  0
  5 15  1  0
 14 15  1  0
 11 16  1  0
 15 16  2  0
 17 18  2  0
 18 19  1  0
 19 20  2  0
 20 21  1  0
 17 22  1  0
 21 22  2  0
 23 24  1  0
 19 25  1  0
 24 25  2  0
 10 26  1  0
 18 26  1  0
 23 26  2  0
 27 29  1  0
 28 29  2  0
 29 30  1  0
 30 31  1  0
 31 32  1  0
 32 33  1  0
 33 34  1  0
 30 35  1  0
 34 35  1  0
 24 36  1  0
 33 37  1  0
 36 37  1  0
M  END
