x0749-x0981
     RDKit          3D

 30 32  0  0  0  0  0  0  0  0999 V2000
    1.2960   -8.7960   21.2230 C   0  0  0  0  0  0  0  0  0  0  0  0
    2.5070   -7.1510   22.6860 N   0  0  0  0  0  0  0  0  0  0  0  0
    0.3030   -6.8130   22.1960 O   0  0  0  0  0  0  0  0  0  0  0  0
    1.3210   -7.5000   22.0890 C   0  0  0  0  0  0  0  0  0  0  0  0
    2.4260   -8.4270   26.3210 N   0  0  0  0  0  0  0  0  0  0  0  0
    4.0080   -8.2140   24.6310 O   0  0  0  0  0  0  0  0  0  0  0  0
    2.7790   -5.9100   23.3880 C   0  0  1  0  0  0  0  0  0  0  0  0
    4.8710   -5.6450   22.2620 N   0  0  0  0  0  0  0  0  0  0  0  0
    4.3390   -4.1000   23.5480 O   0  0  0  0  0  0  0  0  0  0  0  0
    2.7210   -6.2960   24.9110 C   0  0  0  0  0  0  0  0  0  0  0  0
    3.1120   -7.6940   25.2490 C   0  0  0  0  0  0  0  0  0  0  0  0
    4.1060   -5.1840   23.0200 C   0  0  0  0  0  0  0  0  0  0  0  0
    7.3030   -3.3450   19.4700 C   0  0  0  0  0  0  0  0  0  0  0  0
    5.2740   -4.6390   19.9130 O   0  0  0  0  0  0  0  0  0  0  0  0
    6.3020   -4.1530   20.3590 C   0  0  0  0  0  0  0  0  0  0  0  0
    6.6060   -4.3130   21.7150 N   0  0  0  0  0  0  0  0  0  0  0  0
    7.9290   -3.9230   22.2900 C   0  0  0  0  0  0  0  0  0  0  0  0
    8.0200   -4.3980   23.5960 C   0  0  1  0  0  0  0  0  0  0  0  0
    8.1570   -5.7950   23.7190 C   0  0  0  0  0  0  0  0  0  0  0  0
    7.1090   -6.3050   22.6980 C   0  0  0  0  0  0  0  0  0  0  0  0
    6.0930   -5.2360   22.5090 C   0  0  2  0  0  0  0  0  0  0  0  0
    9.7510   -2.7060   23.4950 N   0  0  0  0  0  0  0  0  0  0  0  0
    9.3020   -3.8200   24.0040 C   0  0  0  0  0  0  0  0  0  0  0  0
   10.3290   -4.6010   25.1910 S   0  0  0  0  0  0  0  0  0  0  0  0
   11.5070   -3.4530   25.0400 C   0  0  0  0  0  0  0  0  0  0  0  0
   10.9780   -2.4480   24.0250 C   0  0  0  0  0  0  0  0  0  0  0  0
   11.8750   -1.2610   23.6970 C   0  0  0  0  0  0  0  0  0  0  0  0
   13.2130   -1.2000   24.4020 C   0  0  0  0  0  0  0  0  0  0  0  0
   13.6120   -2.1780   25.3140 C   0  0  0  0  0  0  0  0  0  0  0  0
   12.7370   -3.3450   25.6510 C   0  0  0  0  0  0  0  0  0  0  0  0
  1  4  1  0
  2  4  1  0
  3  4  2  0
  2  7  1  0
  7 10  1  1
  5 11  1  0
  6 11  2  0
 10 11  1  0
  7 12  1  0
  8 12  1  0
  9 12  2  0
 13 15  1  0
 14 15  2  0
 15 16  1  0
 16 17  1  0
 17 18  1  0
 18 19  1  0
 19 20  1  0
 21  8  1  6
 16 21  1  0
 20 21  1  0
 18 23  1  6
 22 23  2  0
 23 24  1  0
 24 25  1  0
 22 26  1  0
 25 26  2  0
 26 27  1  0
 27 28  2  0
 28 29  1  0
 25 30  1  0
 29 30  2  0
M  END
