x0749-x0734
     RDKit          3D

 28 31  0  0  0  0  0  0  0  0999 V2000
    4.8810   -4.5350   26.1990 N   0  0  0  0  0  0  0  0  0  0  0  0
    4.2080   -5.3810   25.5890 O   0  0  0  0  0  0  0  0  0  0  0  0
    4.4270   -3.5670   26.8190 O   0  0  0  0  0  0  0  0  0  0  0  0
    5.0060   -4.0450   19.5610 O   0  0  0  0  0  0  0  0  0  0  0  0
    6.1220   -3.7750   19.9500 C   0  0  0  0  0  0  0  0  0  0  0  0
    7.1930   -3.1430   19.0590 C   0  0  0  0  0  0  0  0  0  0  0  0
    6.2440   -4.8780   26.4690 C   0  0  0  0  0  0  0  0  0  0  0  0
    7.1340   -4.8610   25.2610 C   0  0  0  0  0  0  0  0  0  0  0  0
    8.5450   -5.2390   25.5380 C   0  0  0  0  0  0  0  0  0  0  0  0
    9.2160   -5.6060   26.7520 C   0  0  0  0  0  0  0  0  0  0  0  0
    8.1750   -5.5290   27.7390 C   0  0  0  0  0  0  0  0  0  0  0  0
    6.8150   -5.2110   27.6640 C   0  0  0  0  0  0  0  0  0  0  0  0
    6.4710   -4.0820   21.2540 N   0  0  0  0  0  0  0  0  0  0  0  0
    6.4040   -5.4600   21.7690 C   0  0  0  0  0  0  0  0  0  0  0  0
    5.9830   -5.4990   23.1050 C   0  0  0  0  0  0  0  0  0  0  0  0
    6.6820   -4.5110   23.9710 N   0  0  0  0  0  0  0  0  0  0  0  0
    6.8590   -3.1390   23.4390 C   0  0  0  0  0  0  0  0  0  0  0  0
    7.3270   -3.1660   21.9760 C   0  0  0  0  0  0  0  0  0  0  0  0
    9.6330   -2.2430   23.3220 N   0  0  0  0  0  0  0  0  0  0  0  0
    9.0600   -3.3610   23.7350 C   0  0  0  0  0  0  0  0  0  0  0  0
   10.1860   -4.0800   24.7090 S   0  0  0  0  0  0  0  0  0  0  0  0
   11.4920   -3.0890   24.7220 C   0  0  0  0  0  0  0  0  0  0  0  0
   10.9330   -2.0210   23.7940 C   0  0  0  0  0  0  0  0  0  0  0  0
   11.8350   -0.8800   23.4990 C   0  0  0  0  0  0  0  0  0  0  0  0
   13.2040   -0.9310   24.1670 C   0  0  0  0  0  0  0  0  0  0  0  0
   13.5680   -2.1290   25.0950 C   0  0  0  0  0  0  0  0  0  0  0  0
   12.7140   -3.1440   25.3330 C   0  0  0  0  0  0  0  0  0  0  0  0
   10.0840   -5.6100   25.5550 C   0  0  0  0  0  0  0  0  0  0  0  0
  1  2  2  0
  1  3  1  0
  4  5  2  0
  5  6  1  0
  1  7  1  0
  7  8  2  0
  8  9  1  0
  9 10  2  0
 10 11  1  0
  7 12  1  0
 11 12  2  0
  5 13  1  0
 13 14  1  0
 14 15  1  0
  8 16  1  0
 15 16  1  0
 16 17  1  0
 13 18  1  0
 17 18  1  0
 19 20  1  0
 20 21  2  0
 21 22  1  0
 19 23  1  0
 22 23  2  0
 23 24  1  0
 24 25  2  0
 25 26  1  0
 22 27  1  0
 26 27  2  0
 10 28  1  0
 21 28  1  0
M  CHG  2   1   1   3  -1
M  END
