x0749-x0946
     RDKit          3D

 30 33  0  0  0  0  0  0  0  0999 V2000
    7.3320   -3.2650   19.3580 C   0  0  0  0  0  0  0  0  0  0  0  0
    5.1080   -4.2010   19.7090 O   0  0  0  0  0  0  0  0  0  0  0  0
    6.2260   -4.0150   20.1450 C   0  0  0  0  0  0  0  0  0  0  0  0
    9.0840    5.3640   22.6960 N   0  0  0  0  0  0  0  0  0  0  0  0
   10.1640    5.6150   25.1840 O   0  0  0  0  0  0  0  0  0  0  0  0
   11.4700    6.5810   23.0640 O   0  0  0  0  0  0  0  0  0  0  0  0
   12.2810   -0.2000   22.7340 N   0  0  0  0  0  0  0  0  0  0  0  0
   10.5270    5.4360   23.6380 S   0  0  0  0  0  0  0  0  0  0  0  0
   13.5020   -0.5170   22.3020 C   0  0  0  0  0  0  0  0  0  0  0  0
    6.5540   -4.5270   21.4050 N   0  0  0  0  0  0  0  0  0  0  0  0
    7.4940   -3.8620   22.2770 C   0  0  0  0  0  0  0  0  0  0  0  0
    8.1720   -4.9170   23.0220 C   0  0  2  0  0  0  0  0  0  0  0  0
    7.2990   -5.5630   23.8070 C   0  0  0  0  0  0  0  0  0  0  0  0
    6.3500   -6.1440   22.9720 C   0  0  0  0  0  0  0  0  0  0  0  0
    5.8880   -5.4260   21.8270 C   0  0  0  0  0  0  0  0  0  0  0  0
    9.8080   -2.9850   23.0110 N   0  0  0  0  0  0  0  0  0  0  0  0
    9.3580   -4.2470   23.5790 C   0  0  0  0  0  0  0  0  0  0  0  0
   10.2810   -4.8700   24.8240 S   0  0  0  0  0  0  0  0  0  0  0  0
   11.3900   -3.5280   24.6650 C   0  0  0  0  0  0  0  0  0  0  0  0
   10.9690   -2.6450   23.6570 C   0  0  0  0  0  0  0  0  0  0  0  0
   11.5660   -1.3430   23.0880 C   0  0  0  0  0  0  0  0  0  0  0  0
   12.8610   -1.1700   23.9760 C   0  0  0  0  0  0  0  0  0  0  0  0
   13.2960   -2.1460   25.0700 C   0  0  0  0  0  0  0  0  0  0  0  0
   12.5170   -3.3190   25.3660 C   0  0  0  0  0  0  0  0  0  0  0  0
   11.8670    1.1060   22.8830 C   0  0  0  0  0  0  0  0  0  0  0  0
   12.8930    2.2280   22.8790 C   0  0  0  0  0  0  0  0  0  0  0  0
   12.3670    3.6490   23.1110 C   0  0  0  0  0  0  0  0  0  0  0  0
   11.0230    3.8840   23.3220 C   0  0  0  0  0  0  0  0  0  0  0  0
    9.9930    2.7510   23.2890 C   0  0  0  0  0  0  0  0  0  0  0  0
   10.5160    1.3530   23.0510 C   0  0  0  0  0  0  0  0  0  0  0  0
  1  3  1  0
  2  3  2  0
  8  4  1  0
  5  8  2  0
  6  8  2  0
  7  9  1  0
  3 10  1  0
 10 11  1  0
 11 12  1  0
 12 13  1  0
 13 14  1  0
 10 15  1  0
 14 15  1  0
 12 17  1  1
 16 17  2  0
 17 18  1  0
 18 19  1  0
 16 20  1  0
 19 20  2  0
  7 21  1  0
 20 21  1  0
 21 22  2  0
 22 23  1  0
 19 24  1  0
 23 24  2  0
  7 25  1  0
 25 26  2  0
 26 27  1  0
  8 28  1  0
 27 28  2  0
 28 29  1  0
 25 30  1  0
 29 30  2  0
M  END
