x0749-x0678
     RDKit          3D

 29 32  0  0  0  0  0  0  0  0999 V2000
    7.3600   -3.2220   19.3110 C   0  0  0  0  0  0  0  0  0  0  0  0
    5.1760   -4.2150   19.7320 O   0  0  0  0  0  0  0  0  0  0  0  0
    6.2870   -3.9440   20.1510 C   0  0  0  0  0  0  0  0  0  0  0  0
    6.6330   -4.3480   21.4380 N   0  0  0  0  0  0  0  0  0  0  0  0
    7.3990   -3.4910   22.2960 C   0  0  0  0  0  0  0  0  0  0  0  0
    8.1790   -4.5310   23.1150 C   0  0  2  0  0  0  0  0  0  0  0  0
    7.4420   -5.5820   23.8370 C   0  0  0  0  0  0  0  0  0  0  0  0
    6.6420   -6.2990   22.9370 C   0  0  0  0  0  0  0  0  0  0  0  0
    5.9520   -5.4530   22.0530 C   0  0  0  0  0  0  0  0  0  0  0  0
    9.8260   -2.6190   23.4290 N   0  0  0  0  0  0  0  0  0  0  0  0
    9.3650   -3.9380   23.7680 C   0  0  0  0  0  0  0  0  0  0  0  0
   10.3090   -4.7430   24.9180 S   0  0  0  0  0  0  0  0  0  0  0  0
   11.4300   -3.4230   24.9250 C   0  0  0  0  0  0  0  0  0  0  0  0
   10.9850   -2.3750   24.0900 C   0  0  0  0  0  0  0  0  0  0  0  0
   11.6310   -1.1720   23.8980 C   0  0  0  0  0  0  0  0  0  0  0  0
   12.9570   -1.0350   24.6490 C   0  0  0  0  0  0  0  0  0  0  0  0
   13.5260   -2.1260   25.5440 C   0  0  0  0  0  0  0  0  0  0  0  0
   12.6250   -3.3540   25.6310 C   0  0  0  0  0  0  0  0  0  0  0  0
    9.2550    1.6530   21.3520 O   0  0  0  0  0  0  0  0  0  0  0  0
    8.8740    0.6000   21.8580 C   0  0  0  0  0  0  0  0  0  0  0  0
    9.5120    0.0080   23.1300 C   0  0  0  0  0  0  0  0  0  0  0  0
    7.8290   -0.1710   21.3700 N   0  0  0  0  0  0  0  0  0  0  0  0
    5.9490    1.1080   20.5610 C   0  0  0  0  0  0  0  0  0  0  0  0
    5.0580    1.5360   19.3720 C   0  0  0  0  0  0  0  0  0  0  0  0
    5.3260    1.0370   18.1070 C   0  0  0  0  0  0  0  0  0  0  0  0
    6.3270    0.1840   17.8400 N   0  0  0  0  0  0  0  0  0  0  0  0
    7.1090   -0.2020   18.8680 C   0  0  0  0  0  0  0  0  0  0  0  0
    6.9940    0.2270   20.3070 C   0  0  0  0  0  0  0  0  0  0  0  0
   11.0440   -0.1070   22.9980 C   0  0  0  0  0  0  0  0  0  0  0  0
  1  3  1  0
  2  3  2  0
  3  4  1  0
  4  5  1  0
  5  6  1  0
  6  7  1  0
  7  8  1  0
  4  9  1  0
  8  9  1  0
  6 11  1  1
 10 11  2  0
 11 12  1  0
 12 13  1  0
 10 14  1  0
 13 14  2  0
 14 15  1  0
 15 16  2  0
 16 17  1  0
 13 18  1  0
 17 18  2  0
 19 20  2  0
 20 21  1  0
 20 22  1  0
 23 24  2  0
 24 25  1  0
 25 26  2  0
 26 27  1  0
 22 28  1  0
 23 28  1  0
 27 28  2  0
 15 29  1  0
 21 29  1  0
M  END
