x0755-x1249
     RDKit          3D

 39 42  0  0  0  0  0  0  0  0999 V2000
    4.3870   -6.2060   26.0100 O   0  0  0  0  0  0  0  0  0  0  0  0
    6.0920   -4.5130   26.6860 O   0  0  0  0  0  0  0  0  0  0  0  0
    5.2270   -4.6680   19.9140 O   0  0  0  0  0  0  0  0  0  0  0  0
    6.2830   -4.4250   20.4670 C   0  0  0  0  0  0  0  0  0  0  0  0
    7.2150   -3.4100   19.7990 C   0  0  0  0  0  0  0  0  0  0  0  0
    2.1400   -5.4650   25.7280 F   0  0  0  0  0  0  0  0  0  0  0  0
    5.3160   -1.8250   25.9830 O   0  0  0  0  0  0  0  0  0  0  0  0
    5.0240   -4.9210   25.8050 S   0  0  0  0  0  0  0  0  0  0  0  0
    8.1550    0.4670   25.0460 N   0  0  0  0  0  0  0  0  0  0  0  0
    7.5420    1.3410   24.1850 C   0  0  0  0  0  0  0  0  0  0  0  0
    8.0780    2.3700   23.7780 O   0  0  0  0  0  0  0  0  0  0  0  0
    9.4970    0.6720   25.4540 C   0  0  0  0  0  0  0  0  0  0  0  0
   13.8520   -1.7260   20.5600 N   0  0  0  0  0  0  0  0  0  0  0  0
   13.0900   -1.3480   21.6520 C   0  0  0  0  0  0  0  0  0  0  0  0
    5.7760   -1.1430   24.7880 C   0  0  0  0  0  0  0  0  0  0  0  0
    2.4410   -4.1620   25.8130 C   0  0  0  0  0  0  0  0  0  0  0  0
    3.7670   -3.7120   25.8570 C   0  0  0  0  0  0  0  0  0  0  0  0
    4.0450   -2.3330   25.9440 C   0  0  0  0  0  0  0  0  0  0  0  0
    2.9780   -1.4400   25.9940 C   0  0  0  0  0  0  0  0  0  0  0  0
    1.6850   -1.9020   25.9520 C   0  0  0  0  0  0  0  0  0  0  0  0
    1.3960   -3.2450   25.8600 C   0  0  0  0  0  0  0  0  0  0  0  0
    6.5680   -5.0750   21.6580 N   0  0  0  0  0  0  0  0  0  0  0  0
    7.5260   -4.6940   22.5270 C   0  0  0  0  0  0  0  0  0  0  0  0
    7.0370   -4.7510   23.9910 C   0  0  0  0  0  0  0  0  0  0  0  0
    5.5740   -4.8950   24.2000 N   0  0  0  0  0  0  0  0  0  0  0  0
    4.9430   -5.7470   23.3650 C   0  0  0  0  0  0  0  0  0  0  0  0
    5.7360   -6.1970   22.1430 C   0  0  0  0  0  0  0  0  0  0  0  0
    3.6180    1.3370   23.5560 O   0  0  0  0  0  0  0  0  0  0  0  0
    4.3830    1.0610   22.3910 C   0  0  0  0  0  0  0  0  0  0  0  0
    5.7890    1.5060   22.6680 C   0  0  0  0  0  0  0  0  0  0  0  0
    6.2820    0.9780   23.8010 N   0  0  0  0  0  0  0  0  0  0  0  0
    5.4650    0.3900   24.7470 C   0  0  1  0  0  0  0  0  0  0  0  0
    4.0520    0.4580   24.5850 C   0  0  0  0  0  0  0  0  0  0  0  0
   11.5090    0.9290   23.9900 C   0  0  0  0  0  0  0  0  0  0  0  0
   12.3980    0.4330   23.0600 C   0  0  0  0  0  0  0  0  0  0  0  0
   12.2340   -0.8500   22.5950 C   0  0  0  0  0  0  0  0  0  0  0  0
   11.2010   -1.6170   23.0670 C   0  0  0  0  0  0  0  0  0  0  0  0
   10.3110   -1.1580   23.9870 C   0  0  0  0  0  0  0  0  0  0  0  0
   10.4560    0.1370   24.4610 C   0  0  0  0  0  0  0  0  0  0  0  0
  3  4  2  0
  4  5  1  0
  1  8  2  0
  2  8  2  0
  9 10  1  0
 10 11  2  0
  9 12  1  0
 13 14  3  0
  7 15  1  0
  6 16  1  0
  8 17  1  0
 16 17  2  0
  7 18  1  0
 17 18  1  0
 18 19  2  0
 19 20  1  0
 16 21  1  0
 20 21  2  0
  4 22  1  0
 22 23  1  0
 23 24  1  0
  8 25  1  0
 24 25  1  0
 25 26  1  0
 22 27  1  0
 26 27  1  0
 28 29  1  0
 29 30  1  0
 10 31  1  0
 30 31  1  0
 32 15  1  6
 31 32  1  0
 28 33  1  0
 32 33  1  0
 34 35  2  0
 14 36  1  0
 35 36  1  0
 36 37  2  0
 37 38  1  0
 12 39  1  0
 34 39  1  0
 38 39  2  0
M  END
