x0752-x0769
     RDKit          3D

 20 21  0  0  0  0  0  0  0  0999 V2000
    5.6320   -5.1870   26.9010 O   0  0  0  0  0  0  0  0  0  0  0  0
    3.6950   -6.5140   25.9820 O   0  0  0  0  0  0  0  0  0  0  0  0
    5.3890   -4.2580   19.8120 O   0  0  0  0  0  0  0  0  0  0  0  0
    6.5740   -4.0790   20.0890 C   0  0  0  0  0  0  0  0  0  0  0  0
    7.4600   -3.2350   19.2210 C   0  0  0  0  0  0  0  0  0  0  0  0
    5.5820   -2.4230   26.2510 F   0  0  0  0  0  0  0  0  0  0  0  0
    4.5520   -5.3540   25.9560 S   0  0  0  0  0  0  0  0  0  0  0  0
    7.1630   -4.7080   21.1570 N   0  0  0  0  0  0  0  0  0  0  0  0
    4.2510   -2.5060   26.1360 C   0  0  0  0  0  0  0  0  0  0  0  0
    3.5550   -3.9210   25.9780 C   0  0  0  0  0  0  0  0  0  0  0  0
    2.2150   -4.0640   25.8570 C   0  0  0  0  0  0  0  0  0  0  0  0
    1.2890   -2.8200   25.8730 C   0  0  0  0  0  0  0  0  0  0  0  0
    1.8840   -1.4100   26.0250 C   0  0  0  0  0  0  0  0  0  0  0  0
    3.4070   -1.2320   26.1600 C   0  0  0  0  0  0  0  0  0  0  0  0
    6.3640   -4.8870   22.2520 N   0  0  0  0  0  0  0  0  0  0  0  0
    5.8700   -6.2560   22.3240 C   0  0  0  0  0  0  0  0  0  0  0  0
    4.7820   -6.2910   23.4200 C   0  0  0  0  0  0  0  0  0  0  0  0
    5.1890   -5.2790   24.4130 N   0  0  0  0  0  0  0  0  0  0  0  0
    6.4780   -4.9190   24.4660 C   0  0  0  0  0  0  0  0  0  0  0  0
    7.0000   -4.4130   23.3090 C   0  0  0  0  0  0  0  0  0  0  0  0
  3  4  2  0
  4  5  1  0
  1  7  2  0
  2  7  2  0
  4  8  1  0
  6  9  1  0
  7 10  1  0
  9 10  2  0
 10 11  1  0
 11 12  2  0
 12 13  1  0
  9 14  1  0
 13 14  2  0
  8 15  1  0
 15 16  1  0
 16 17  1  0
  7 18  1  0
 17 18  1  0
 18 19  1  0
 15 20  1  0
 19 20  1  0
M  END
