x0759-x1425
     RDKit          3D

 26 28  0  0  0  0  0  0  0  0999 V2000
    1.4360   -2.3450   28.2990 C   0  0  0  0  0  0  0  0  0  0  0  0
    2.6630   -2.2650   28.3480 O   0  0  0  0  0  0  0  0  0  0  0  0
    5.3010   -4.5740   19.8870 O   0  0  0  0  0  0  0  0  0  0  0  0
    6.3580   -4.0440   20.2110 C   0  0  0  0  0  0  0  0  0  0  0  0
    7.1910   -3.2610   19.1970 C   0  0  0  0  0  0  0  0  0  0  0  0
    3.3450   -2.6380   27.2180 C   0  0  0  0  0  0  0  0  0  0  0  0
    4.7390   -2.1240   26.9990 C   0  0  0  0  0  0  0  0  0  0  0  0
    5.4490   -2.5550   25.7490 C   0  0  0  0  0  0  0  0  0  0  0  0
    4.7810   -3.4060   24.8570 C   0  0  0  0  0  0  0  0  0  0  0  0
    3.4740   -3.8570   25.1140 C   0  0  0  0  0  0  0  0  0  0  0  0
    2.7640   -3.4910   26.2600 C   0  0  0  0  0  0  0  0  0  0  0  0
    6.8600   -4.1690   21.5000 N   0  0  0  0  0  0  0  0  0  0  0  0
    7.3280   -3.0330   22.2900 C   0  0  1  0  0  0  0  0  0  0  0  0
    6.6470   -2.9930   23.5090 C   0  0  0  0  0  0  0  0  0  0  0  0
    5.5550   -3.7610   23.6770 N   0  0  0  0  0  0  0  0  0  0  0  0
    5.6470   -5.1770   23.2880 C   0  0  0  0  0  0  0  0  0  0  0  0
    6.5060   -5.3220   22.2060 C   0  0  0  0  0  0  0  0  0  0  0  0
   12.8370    0.7490   24.0010 F   0  0  0  0  0  0  0  0  0  0  0  0
    9.3560   -0.6190   24.1830 C   0  0  0  0  0  0  0  0  0  0  0  0
   10.4940    0.2300   24.6240 C   0  0  0  0  0  0  0  0  0  0  0  0
   11.7340    0.0830   23.7760 C   0  0  0  0  0  0  0  0  0  0  0  0
   11.6750   -0.8850   22.6050 C   0  0  0  0  0  0  0  0  0  0  0  0
   10.6830   -1.7320   22.0700 C   0  0  0  0  0  0  0  0  0  0  0  0
    9.5390   -1.5240   22.9470 C   0  0  0  0  0  0  0  0  0  0  0  0
    8.8300   -3.1160   22.6590 C   0  0  0  0  0  0  0  0  0  0  0  0
    9.5960   -2.4980   21.6850 C   0  0  0  0  0  0  0  0  0  0  0  0
  1  2  1  0
  3  4  2  0
  4  5  1  0
  2  6  1  0
  6  7  2  0
  7  8  1  0
  8  9  2  0
  9 10  1  0
  6 11  1  0
 10 11  2  0
  4 12  1  0
 12 13  1  0
 13 14  1  0
  9 15  1  0
 14 15  1  0
 15 16  1  0
 12 17  1  0
 16 17  1  0
 19 20  2  0
 18 21  1  0
 20 21  1  0
 21 22  2  0
 22 23  1  0
 19 24  1  0
 23 24  2  0
 13 25  1  1
 23 26  1  0
 25 26  1  0
M  END
