x0755-x3124
     RDKit          3D

 44 47  0  0  0  0  0  0  0  0999 V2000
    7.3350   -1.0700   21.7550 N   0  0  0  0  0  0  0  0  0  0  0  0
    7.8750    1.8450   23.2840 N   0  0  0  0  0  0  0  0  0  0  0  0
    8.6670    1.8570   21.1450 O   0  0  0  0  0  0  0  0  0  0  0  0
    6.8110    0.2980   21.6930 C   0  0  1  0  0  0  0  0  0  0  0  0
    7.8800    1.3920   21.9740 C   0  0  0  0  0  0  0  0  0  0  0  0
    8.9480    2.6490   23.7890 C   0  0  0  0  0  0  0  0  0  0  0  0
   12.5180   -1.8400   24.2630 C   0  0  0  0  0  0  0  0  0  0  0  0
   12.7550   -0.7110   24.9940 C   0  0  0  0  0  0  0  0  0  0  0  0
   13.4610   -1.9530   23.0730 C   0  0  0  0  0  0  0  0  0  0  0  0
   12.8470   -3.0540   25.1130 C   0  0  0  0  0  0  0  0  0  0  0  0
    6.4520   -2.0890   22.2600 C   0  0  0  0  0  0  0  0  0  0  0  0
    6.2850    0.3760   17.8470 N   0  0  0  0  0  0  0  0  0  0  0  0
    5.2010    1.1730   17.8430 C   0  0  0  0  0  0  0  0  0  0  0  0
    4.5850    1.6990   18.9680 C   0  0  0  0  0  0  0  0  0  0  0  0
    5.0870    1.4230   20.2300 C   0  0  0  0  0  0  0  0  0  0  0  0
    6.2090    0.6190   20.3560 C   0  0  0  0  0  0  0  0  0  0  0  0
    6.7890    0.0920   19.0520 C   0  0  0  0  0  0  0  0  0  0  0  0
    9.5120   -1.7540   21.7360 C   0  0  0  0  0  0  0  0  0  0  0  0
   10.8720   -2.0050   22.2580 C   0  0  0  0  0  0  0  0  0  0  0  0
   11.1460   -1.6490   23.6870 C   0  0  0  0  0  0  0  0  0  0  0  0
   10.0170   -1.0710   24.5210 C   0  0  0  0  0  0  0  0  0  0  0  0
    8.6560   -0.8660   23.8380 C   0  0  0  0  0  0  0  0  0  0  0  0
    8.5140   -1.2200   22.4870 C   0  0  0  0  0  0  0  0  0  0  0  0
    4.1580   -6.4940   26.3760 O   0  0  0  0  0  0  0  0  0  0  0  0
    5.9820   -4.8730   26.9100 O   0  0  0  0  0  0  0  0  0  0  0  0
    5.3240   -5.1570   19.9850 O   0  0  0  0  0  0  0  0  0  0  0  0
    6.2870   -4.7420   20.5890 C   0  0  0  0  0  0  0  0  0  0  0  0
    7.0970   -3.6000   19.9370 C   0  0  0  0  0  0  0  0  0  0  0  0
    1.9680   -5.4590   25.6500 F   0  0  0  0  0  0  0  0  0  0  0  0
    5.5270   -2.3300   26.1980 F   0  0  0  0  0  0  0  0  0  0  0  0
    4.9270   -5.3210   26.0350 S   0  0  0  0  0  0  0  0  0  0  0  0
    2.4440   -4.2110   25.7520 C   0  0  0  0  0  0  0  0  0  0  0  0
    3.8010   -3.9700   25.9270 C   0  0  0  0  0  0  0  0  0  0  0  0
    4.2360   -2.6440   26.0260 C   0  0  0  0  0  0  0  0  0  0  0  0
    3.3300   -1.5920   25.9550 C   0  0  0  0  0  0  0  0  0  0  0  0
    1.9740   -1.8530   25.7850 C   0  0  0  0  0  0  0  0  0  0  0  0
    1.5270   -3.1640   25.6800 C   0  0  0  0  0  0  0  0  0  0  0  0
    6.5700   -5.3300   21.8380 N   0  0  0  0  0  0  0  0  0  0  0  0
    6.6210   -4.4000   22.9480 C   0  0  1  0  0  0  0  0  0  0  0  0
    6.8550   -4.9600   24.1500 C   0  0  0  0  0  0  0  0  0  0  0  0
    5.5990   -5.6100   24.5040 N   0  0  0  0  0  0  0  0  0  0  0  0
    4.8060   -6.0410   23.3200 C   0  0  0  0  0  0  0  0  0  0  0  0
    5.6610   -6.4160   22.2500 C   0  0  0  0  0  0  0  0  0  0  0  0
    7.3990   -3.1710   22.7370 C   0  0  0  0  0  0  0  0  0  0  0  0
  1  4  1  0
  2  5  1  0
  3  5  2  0
  4  5  1  6
  2  6  1  0
  7  8  1  0
  7  9  1  0
  7 10  1  0
  1 11  1  0
 12 13  2  0
 13 14  1  0
 14 15  2  0
  4 16  1  0
 15 16  1  0
 12 17  1  0
 16 17  2  0
 18 19  2  0
  7 20  1  0
 19 20  1  0
 20 21  2  0
 21 22  1  0
  1 23  1  0
 18 23  1  0
 22 23  2  0
 26 27  2  0
 27 28  1  0
 24 31  2  0
 25 31  2  0
 29 32  1  0
 31 33  1  0
 32 33  2  0
 30 34  1  0
 33 34  1  0
 34 35  2  0
 35 36  1  0
 32 37  1  0
 36 37  2  0
 27 38  1  0
 38 39  1  0
 39 40  1  0
 31 41  1  0
 40 41  1  0
 41 42  1  0
 38 43  1  0
 42 43  1  0
 11 44  1  0
 39 44  1  6
M  END
