x0755-x0107
     RDKit          3D

 34 36  0  0  0  0  0  0  0  0999 V2000
    4.3750   -6.3300   26.1240 O   0  0  0  0  0  0  0  0  0  0  0  0
    6.0810   -4.6520   26.8390 O   0  0  0  0  0  0  0  0  0  0  0  0
    5.3350   -4.9340   19.9960 O   0  0  0  0  0  0  0  0  0  0  0  0
    6.3660   -4.6140   20.5680 C   0  0  0  0  0  0  0  0  0  0  0  0
    7.1950   -3.5030   19.9350 C   0  0  0  0  0  0  0  0  0  0  0  0
    2.1400   -5.4940   25.8280 F   0  0  0  0  0  0  0  0  0  0  0  0
    5.5380   -2.1260   25.9350 O   0  0  0  0  0  0  0  0  0  0  0  0
    5.0580   -5.0720   25.9090 S   0  0  0  0  0  0  0  0  0  0  0  0
    9.9110   -0.7090   22.5290 C   0  0  0  0  0  0  0  0  0  0  0  0
    9.0130    0.1320   21.5930 C   0  0  0  0  0  0  0  0  0  0  0  0
    9.2310    1.3300   21.3530 O   0  0  0  0  0  0  0  0  0  0  0  0
    7.9310   -0.6590   21.0320 N   0  0  0  0  0  0  0  0  0  0  0  0
    5.4720    0.6430   22.0520 C   0  0  0  0  0  0  0  0  0  0  0  0
    5.9280   -0.9730   25.1620 C   0  0  0  0  0  0  0  0  0  0  0  0
    5.1040   -0.7660   24.0440 C   0  0  0  0  0  0  0  0  0  0  0  0
    5.7330   -0.6690   22.8060 C   0  0  0  0  0  0  0  0  0  0  0  0
    2.4860   -4.2010   25.8540 C   0  0  0  0  0  0  0  0  0  0  0  0
    3.8290   -3.7930   25.8860 C   0  0  0  0  0  0  0  0  0  0  0  0
    4.2080   -2.4360   25.9080 C   0  0  0  0  0  0  0  0  0  0  0  0
    3.2790   -1.3890   25.9070 C   0  0  0  0  0  0  0  0  0  0  0  0
    1.8120   -1.7950   25.8810 C   0  0  0  0  0  0  0  0  0  0  0  0
    1.4500   -3.2800   25.8480 C   0  0  0  0  0  0  0  0  0  0  0  0
    6.7500   -5.2830   21.7310 N   0  0  0  0  0  0  0  0  0  0  0  0
    7.5230   -4.6460   22.7050 C   0  0  0  0  0  0  0  0  0  0  0  0
    6.6790   -4.0730   23.8480 C   0  0  0  0  0  0  0  0  0  0  0  0
    5.7660   -5.1310   24.3790 N   0  0  0  0  0  0  0  0  0  0  0  0
    4.8870   -5.6300   23.3100 C   0  0  0  0  0  0  0  0  0  0  0  0
    5.7810   -6.2540   22.2350 C   0  0  0  0  0  0  0  0  0  0  0  0
    6.9170   -0.1110   20.2130 C   0  0  0  0  0  0  0  0  0  0  0  0
    5.7320    0.5260   20.6480 C   0  0  0  0  0  0  0  0  0  0  0  0
    4.8260    1.0330   19.6710 C   0  0  0  0  0  0  0  0  0  0  0  0
    5.1500    0.8770   18.3210 C   0  0  0  0  0  0  0  0  0  0  0  0
    6.2580    0.2710   17.8910 N   0  0  0  0  0  0  0  0  0  0  0  0
    7.1010   -0.2050   18.8270 C   0  0  0  0  0  0  0  0  0  0  0  0
  3  4  2  0
  4  5  1  0
  1  8  2  0
  2  8  2  0
  9 10  1  0
 10 11  2  0
 10 12  1  0
  7 14  1  0
 14 15  1  0
 13 16  1  0
 15 16  1  0
  6 17  1  0
  8 18  1  0
 17 18  2  0
  7 19  1  0
 18 19  1  0
 19 20  2  0
 20 21  1  0
 17 22  1  0
 21 22  2  0
  4 23  1  0
 23 24  1  0
 24 25  1  0
  8 26  1  0
 25 26  1  0
 26 27  1  0
 23 28  1  0
 27 28  1  0
 12 29  1  0
 13 30  1  0
 29 30  2  0
 30 31  1  0
 31 32  2  0
 32 33  1  0
 29 34  1  0
 33 34  2  0
M  END
