x0755-x0769
     RDKit          3D

 20 21  0  0  0  0  0  0  0  0999 V2000
    4.4790   -6.3750   26.2220 O   0  0  0  0  0  0  0  0  0  0  0  0
    6.1480   -4.6020   26.7930 O   0  0  0  0  0  0  0  0  0  0  0  0
    5.2930   -4.8130   19.9650 O   0  0  0  0  0  0  0  0  0  0  0  0
    6.3240   -4.5550   20.5700 C   0  0  0  0  0  0  0  0  0  0  0  0
    7.2440   -3.5060   19.9570 C   0  0  0  0  0  0  0  0  0  0  0  0
    1.9500   -5.4350   25.6450 F   0  0  0  0  0  0  0  0  0  0  0  0
    5.5390   -2.1510   26.1000 F   0  0  0  0  0  0  0  0  0  0  0  0
    5.1040   -5.1040   25.9340 S   0  0  0  0  0  0  0  0  0  0  0  0
    2.3920   -4.1790   25.7450 C   0  0  0  0  0  0  0  0  0  0  0  0
    3.8870   -3.8530   25.8840 C   0  0  0  0  0  0  0  0  0  0  0  0
    4.2590   -2.5260   25.9780 C   0  0  0  0  0  0  0  0  0  0  0  0
    3.1750   -1.4430   25.9460 C   0  0  0  0  0  0  0  0  0  0  0  0
    1.8290   -1.8080   25.8220 C   0  0  0  0  0  0  0  0  0  0  0  0
    1.4480   -3.1460   25.7210 C   0  0  0  0  0  0  0  0  0  0  0  0
    6.5940   -5.2220   21.7620 N   0  0  0  0  0  0  0  0  0  0  0  0
    7.4570   -4.6020   22.7820 C   0  0  0  0  0  0  0  0  0  0  0  0
    6.7030   -4.1190   23.8610 C   0  0  0  0  0  0  0  0  0  0  0  0
    5.7750   -5.1890   24.3540 N   0  0  0  0  0  0  0  0  0  0  0  0
    4.8980   -5.7930   23.3070 C   0  0  0  0  0  0  0  0  0  0  0  0
    5.7070   -6.2660   22.2760 C   0  0  0  0  0  0  0  0  0  0  0  0
  3  4  2  0
  4  5  1  0
  1  8  2  0
  2  8  2  0
  6  9  1  0
  8 10  1  0
  9 10  2  0
  7 11  1  0
 10 11  1  0
 11 12  2  0
 12 13  1  0
  9 14  1  0
 13 14  2  0
  4 15  1  0
 15 16  1  0
 16 17  1  0
  8 18  1  0
 17 18  1  0
 18 19  1  0
 15 20  1  0
 19 20  1  0
M  END
