x0755-x2193
     RDKit          3D

 37 40  0  0  0  0  0  0  0  0999 V2000
    5.3490   -4.0810   26.7970 O   0  0  0  0  0  0  0  0  0  0  0  0
    6.5630   -4.5400   26.2240 C   0  0  0  0  0  0  0  0  0  0  0  0
    5.1690   -4.5350   19.8770 O   0  0  0  0  0  0  0  0  0  0  0  0
    6.2840   -4.4500   20.3610 C   0  0  0  0  0  0  0  0  0  0  0  0
    7.2400   -3.4320   19.7490 C   0  0  0  0  0  0  0  0  0  0  0  0
    2.0650   -5.6810   25.5940 F   0  0  0  0  0  0  0  0  0  0  0  0
    4.7930   -1.8160   25.9850 F   0  0  0  0  0  0  0  0  0  0  0  0
    4.9850   -4.3640   25.4410 S   0  0  2  0  0  0  0  0  0  0  0  0
   10.9170    2.6030   22.9600 C   0  0  0  0  0  0  0  0  0  0  0  0
    9.2380    1.7090   21.0950 O   0  0  0  0  0  0  0  0  0  0  0  0
    8.3130    2.5790   23.2340 O   0  0  0  0  0  0  0  0  0  0  0  0
    9.3550    1.8790   22.5170 S   0  0  0  0  0  0  0  0  0  0  0  0
    6.9290   -5.0920   24.8700 C   0  0  0  0  0  0  0  0  0  0  0  0
    2.2240   -4.3770   25.8220 C   0  0  0  0  0  0  0  0  0  0  0  0
    3.4510   -3.7530   25.7840 C   0  0  0  0  0  0  0  0  0  0  0  0
    3.5800   -2.3960   26.0260 C   0  0  0  0  0  0  0  0  0  0  0  0
    2.4840   -1.6220   26.3060 C   0  0  0  0  0  0  0  0  0  0  0  0
    1.2330   -2.2230   26.3460 C   0  0  0  0  0  0  0  0  0  0  0  0
    1.1000   -3.5950   26.1060 C   0  0  0  0  0  0  0  0  0  0  0  0
    6.6550   -5.2810   21.4100 N   0  0  0  0  0  0  0  0  0  0  0  0
    7.5570   -4.8250   22.4410 C   0  0  0  0  0  0  0  0  0  0  0  0
    6.6750   -4.0370   23.4010 C   0  0  0  0  0  0  0  0  0  0  0  0
    5.6530   -4.9470   23.9970 N   0  0  0  0  0  0  0  0  0  0  0  0
    4.7800   -5.6160   23.0120 C   0  0  0  0  0  0  0  0  0  0  0  0
    5.6810   -6.2360   21.9440 C   0  0  0  0  0  0  0  0  0  0  0  0
    9.4590    0.2560   23.2060 C   0  0  0  0  0  0  0  0  0  0  0  0
    8.8090    0.0420   24.5410 C   0  0  0  0  0  0  0  0  0  0  0  0
    8.9090   -1.3410   25.1190 C   0  0  0  0  0  0  0  0  0  0  0  0
    9.5760   -2.3370   24.4520 C   0  0  0  0  0  0  0  0  0  0  0  0
   10.1740   -2.0960   23.1770 C   0  0  0  0  0  0  0  0  0  0  0  0
   10.1110   -0.8010   22.5600 C   0  0  0  0  0  0  0  0  0  0  0  0
    8.5410   -6.0820   26.2950 N   0  0  0  0  0  0  0  0  0  0  0  0
    8.0360   -4.9000   26.1280 C   0  0  2  0  0  0  0  0  0  0  0  0
    8.8310   -3.8510   26.4030 C   0  0  0  0  0  0  0  0  0  0  0  0
    9.6070   -3.6220   25.1780 N   0  0  0  0  0  0  0  0  0  0  0  0
    9.7890   -4.8570   24.4760 C   0  0  0  0  0  0  0  0  0  0  0  0
    9.6680   -5.9790   25.2940 C   0  0  0  0  0  0  0  0  0  0  0  0
  3  4  2  0
  4  5  1  0
  1  8  2  0
  2  8  2  0
 12  9  1  0
 10 12  2  0
 11 12  2  0
  2 13  1  0
  6 14  1  0
  8 15  1  6
 14 15  2  0
  7 16  1  0
 15 16  1  0
 16 17  2  0
 17 18  1  0
 14 19  1  0
 18 19  2  0
  4 20  1  0
 20 21  1  0
 21 22  1  0
  8 23  1  0
 22 23  1  0
 23 24  1  0
 20 25  1  0
 24 25  1  0
 12 26  1  0
 26 27  2  0
 27 28  1  0
 28 29  2  0
 29 30  1  0
 26 31  1  0
 30 31  2  0
 33  2  1  1
 32 33  1  0
 33 34  1  0
 29 35  1  0
 34 35  1  0
 35 36  1  0
 32 37  1  0
 36 37  1  0
M  END
