x0755-x0354
     RDKit          3D

 39 42  0  0  0  0  0  0  0  0999 V2000
    4.1550   -6.4980   26.0810 O   0  0  0  0  0  0  0  0  0  0  0  0
    5.8640   -4.8700   26.8660 O   0  0  0  0  0  0  0  0  0  0  0  0
    5.3120   -4.7280   19.9550 O   0  0  0  0  0  0  0  0  0  0  0  0
    6.3580   -4.5440   20.5680 C   0  0  0  0  0  0  0  0  0  0  0  0
    7.3290   -3.5180   19.9960 C   0  0  0  0  0  0  0  0  0  0  0  0
    1.9090   -5.4490   25.5370 F   0  0  0  0  0  0  0  0  0  0  0  0
    5.5410   -2.4410   26.2350 O   0  0  0  0  0  0  0  0  0  0  0  0
    4.8800   -5.2620   25.9050 S   0  0  0  0  0  0  0  0  0  0  0  0
   13.1460   -1.2840   22.4980 C   0  0  0  0  0  0  0  0  0  0  0  0
    7.5160   -1.8160   24.9170 N   0  0  0  0  0  0  0  0  0  0  0  0
    7.5670   -0.4820   27.3610 O   0  0  0  0  0  0  0  0  0  0  0  0
    8.6690   -1.1340   25.4430 C   0  0  0  0  0  0  0  0  0  0  0  0
    8.3940   -0.1940   26.4630 C   0  0  0  0  0  0  0  0  0  0  0  0
    5.6190    3.5460   30.8520 C   0  0  0  0  0  0  0  0  0  0  0  0
    6.1800   -1.4890   25.4050 C   0  0  0  0  0  0  0  0  0  0  0  0
    2.3830   -4.2070   25.7050 C   0  0  0  0  0  0  0  0  0  0  0  0
    3.7270   -3.9500   25.8850 C   0  0  0  0  0  0  0  0  0  0  0  0
    4.1980   -2.6510   26.0590 C   0  0  0  0  0  0  0  0  0  0  0  0
    3.3360   -1.5390   26.0600 C   0  0  0  0  0  0  0  0  0  0  0  0
    1.9630   -1.7070   25.8870 C   0  0  0  0  0  0  0  0  0  0  0  0
    1.4930   -3.1460   25.6990 C   0  0  0  0  0  0  0  0  0  0  0  0
    6.6150   -5.2730   21.7280 N   0  0  0  0  0  0  0  0  0  0  0  0
    7.5290   -4.8550   22.8150 C   0  0  0  0  0  0  0  0  0  0  0  0
    6.7170   -4.3570   24.0210 C   0  0  0  0  0  0  0  0  0  0  0  0
    5.5730   -5.2770   24.3600 N   0  0  0  0  0  0  0  0  0  0  0  0
    4.7680   -5.7710   23.2180 C   0  0  0  0  0  0  0  0  0  0  0  0
    5.6590   -6.3220   22.1210 C   0  0  0  0  0  0  0  0  0  0  0  0
   11.9790   -1.2120   23.2480 N   0  0  0  0  0  0  0  0  0  0  0  0
   11.4300   -2.4410   23.4120 C   0  0  0  0  0  0  0  0  0  0  0  0
   10.3820   -2.6660   24.3090 C   0  0  0  0  0  0  0  0  0  0  0  0
    9.9710   -1.3860   24.9600 N   0  0  0  0  0  0  0  0  0  0  0  0
   10.9250   -0.4780   25.1150 C   0  0  0  0  0  0  0  0  0  0  0  0
   12.1540   -0.5850   24.4140 C   0  0  0  0  0  0  0  0  0  0  0  0
    7.7250    1.7830   28.2580 C   0  0  0  0  0  0  0  0  0  0  0  0
    7.2440    2.7660   29.1190 C   0  0  0  0  0  0  0  0  0  0  0  0
    6.1420    2.4880   29.9250 C   0  0  0  0  0  0  0  0  0  0  0  0
    5.5400    1.2350   29.8610 C   0  0  0  0  0  0  0  0  0  0  0  0
    6.0330    0.2530   28.9950 C   0  0  0  0  0  0  0  0  0  0  0  0
    7.1380    0.5310   28.1860 C   0  0  0  0  0  0  0  0  0  0  0  0
  3  4  2  0
  4  5  1  0
  1  8  2  0
  2  8  2  0
 10 12  2  3
 11 13  1  0
 12 13  1  0
  7 15  1  0
 10 15  1  0
  6 16  1  0
  8 17  1  0
 16 17  2  0
  7 18  1  0
 17 18  1  0
 18 19  2  0
 19 20  1  0
 16 21  1  0
 20 21  2  0
  4 22  1  0
 22 23  1  0
 23 24  1  0
  8 25  1  0
 24 25  1  0
 25 26  1  0
 22 27  1  0
 26 27  1  0
  9 28  1  0
 28 29  1  0
 29 30  1  0
 12 31  1  0
 30 31  1  0
 31 32  1  0
 28 33  1  0
 32 33  1  0
 34 35  2  0
 14 36  1  0
 35 36  1  0
 36 37  2  0
 37 38  1  0
 11 39  1  0
 34 39  1  0
 38 39  2  0
M  END
