x0759-x2649
     RDKit          3D

 29 32  0  0  0  0  0  0  0  0999 V2000
    7.0440   -0.6000   21.4000 N   0  0  0  0  0  0  0  0  0  0  0  0
    8.2690   -1.4010   23.5850 C   0  0  0  0  0  0  0  0  0  0  0  0
    8.4410    1.3480   21.6400 O   0  0  0  0  0  0  0  0  0  0  0  0
   13.2470   -2.7560   21.1530 Cl  0  0  0  0  0  0  0  0  0  0  0  0
    8.8180   -0.6800   22.4630 C   0  0  1  0  0  0  0  0  0  0  0  0
    8.1650    0.1730   21.8400 C   0  0  0  0  0  0  0  0  0  0  0  0
    4.8120    1.1440   21.6550 C   0  0  0  0  0  0  0  0  0  0  0  0
   13.4880    0.9580   23.2530 F   0  0  0  0  0  0  0  0  0  0  0  0
    5.3270   -4.4240   19.8160 O   0  0  0  0  0  0  0  0  0  0  0  0
    6.1100   -3.5020   20.0050 C   0  0  0  0  0  0  0  0  0  0  0  0
    7.0950   -3.0680   18.9040 C   0  0  0  0  0  0  0  0  0  0  0  0
    6.3010    0.4060   17.7760 N   0  0  0  0  0  0  0  0  0  0  0  0
    5.2290    1.2480   17.9440 C   0  0  0  0  0  0  0  0  0  0  0  0
    4.7510    1.4670   19.2690 C   0  0  0  0  0  0  0  0  0  0  0  0
    5.3380    0.8610   20.3930 C   0  0  0  0  0  0  0  0  0  0  0  0
    6.4200    0.0130   20.2130 C   0  0  0  0  0  0  0  0  0  0  0  0
    6.9050   -0.2240   18.9430 C   0  0  0  0  0  0  0  0  0  0  0  0
   10.8320    0.5420   23.1040 C   0  0  0  0  0  0  0  0  0  0  0  0
   12.1960    0.8930   23.2570 C   0  0  0  0  0  0  0  0  0  0  0  0
   12.9320   -0.2980   22.5690 C   0  0  0  0  0  0  0  0  0  0  0  0
   12.3670   -1.5400   21.8890 C   0  0  0  0  0  0  0  0  0  0  0  0
   10.9150   -1.6800   21.8590 C   0  0  0  0  0  0  0  0  0  0  0  0
   10.2440   -0.5400   22.5150 C   0  0  0  0  0  0  0  0  0  0  0  0
    6.1090   -2.8770   21.2290 N   0  0  0  0  0  0  0  0  0  0  0  0
    7.2770   -2.0430   21.5390 C   0  0  2  0  0  0  0  0  0  0  0  0
    8.0370   -2.5540   22.6930 C   0  0  2  0  0  0  0  0  0  0  0  0
    7.5450   -3.6310   23.5190 O   0  0  0  0  0  0  0  0  0  0  0  0
    6.6750   -4.4940   22.8370 C   0  0  0  0  0  0  0  0  0  0  0  0
    5.6640   -3.6920   22.3690 C   0  0  0  0  0  0  0  0  0  0  0  0
  2  5  1  0
  1  6  1  0
  3  6  2  0
  5  6  1  0
  9 10  2  0
 10 11  1  0
 12 13  2  0
 13 14  1  0
  7 15  1  0
 14 15  2  0
  1 16  1  0
 15 16  1  0
 12 17  1  0
 16 17  2  0
  8 19  1  0
 18 19  2  0
 19 20  1  0
  4 21  1  0
 20 21  2  0
 21 22  1  0
  5 23  1  1
 18 23  1  0
 22 23  2  0
 10 24  1  0
 25  1  1  1
 24 25  1  0
 26  2  1  1
 25 26  1  0
 26 27  1  0
 27 28  1  0
 24 29  1  0
 28 29  1  0
M  END
