x0755-x3303
     RDKit          3D

 46 51  0  0  0  0  0  0  0  0999 V2000
    4.2730   -6.3950   26.2130 O   0  0  0  0  0  0  0  0  0  0  0  0
    5.9690   -4.6680   26.8430 O   0  0  0  0  0  0  0  0  0  0  0  0
    5.6810   -4.2540   19.7380 O   0  0  0  0  0  0  0  0  0  0  0  0
    6.5980   -4.1710   20.5400 C   0  0  0  0  0  0  0  0  0  0  0  0
    7.9940   -3.6100   20.2640 C   0  0  0  0  0  0  0  0  0  0  0  0
    1.8140   -5.4510   25.6020 F   0  0  0  0  0  0  0  0  0  0  0  0
    5.3700   -2.1530   26.3230 F   0  0  0  0  0  0  0  0  0  0  0  0
    4.9250   -5.1290   25.9730 S   0  0  0  0  0  0  0  0  0  0  0  0
    6.2700   -1.3650   21.2190 C   0  0  0  0  0  0  0  0  0  0  0  0
    5.3020   -2.3250   21.4840 N   0  0  0  0  0  0  0  0  0  0  0  0
    6.3750    1.0660   16.9070 O   0  0  0  0  0  0  0  0  0  0  0  0
    5.3690   -3.4350   22.4520 C   0  0  0  0  0  0  0  0  0  0  0  0
    2.2500   -4.1980   25.7790 C   0  0  0  0  0  0  0  0  0  0  0  0
    3.7260   -3.8600   25.9710 C   0  0  0  0  0  0  0  0  0  0  0  0
    4.0930   -2.5210   26.1500 C   0  0  0  0  0  0  0  0  0  0  0  0
    3.1190   -1.5180   26.1550 C   0  0  0  0  0  0  0  0  0  0  0  0
    1.7770   -1.8420   25.9800 C   0  0  0  0  0  0  0  0  0  0  0  0
    1.3450   -3.1510   25.7940 C   0  0  0  0  0  0  0  0  0  0  0  0
    6.2840   -4.5870   21.9580 C   0  0  0  0  0  0  0  0  0  0  0  0
    7.3980   -4.7680   22.7530 C   0  0  0  0  0  0  0  0  0  0  0  0
    7.0160   -4.9590   24.2150 C   0  0  0  0  0  0  0  0  0  0  0  0
    5.5430   -5.1350   24.3740 N   0  0  0  0  0  0  0  0  0  0  0  0
    4.8740   -6.0480   23.4080 C   0  0  0  0  0  0  0  0  0  0  0  0
    5.5350   -5.9130   22.0430 C   0  0  0  0  0  0  0  0  0  0  0  0
    8.5860   -0.3990   21.3690 C   0  0  0  0  0  0  0  0  0  0  0  0
    9.4020    0.1100   22.5490 C   0  0  0  0  0  0  0  0  0  0  0  0
    9.7230   -0.9890   23.4860 N   0  0  0  0  0  0  0  0  0  0  0  0
    8.7180   -1.8390   23.7560 C   0  0  0  0  0  0  0  0  0  0  0  0
    8.0100   -2.3560   22.6950 C   0  0  0  0  0  0  0  0  0  0  0  0
    7.5160   -1.2920   21.8170 N   0  0  0  0  0  0  0  0  0  0  0  0
    5.0470    1.7330   18.4660 N   0  0  0  0  0  0  0  0  0  0  0  0
    4.5290    1.6590   19.6700 C   0  0  0  0  0  0  0  0  0  0  0  0
    4.9080    0.6630   20.6030 C   0  0  0  0  0  0  0  0  0  0  0  0
    5.8630   -0.2930   20.2250 C   0  0  0  0  0  0  0  0  0  0  0  0
    6.4190   -0.2240   18.9450 C   0  0  0  0  0  0  0  0  0  0  0  0
    5.9510    0.8270   18.1420 C   0  0  0  0  0  0  0  0  0  0  0  0
   11.7680   -1.5750   22.3670 C   0  0  0  0  0  0  0  0  0  0  0  0
   13.0450   -2.0870   22.3930 C   0  0  0  0  0  0  0  0  0  0  0  0
   13.5680   -2.5320   23.5980 C   0  0  0  0  0  0  0  0  0  0  0  0
   12.8330   -2.4540   24.7610 C   0  0  0  0  0  0  0  0  0  0  0  0
   11.5590   -1.9320   24.7040 C   0  0  0  0  0  0  0  0  0  0  0  0
   11.0000   -1.4900   23.5210 C   0  0  0  0  0  0  0  0  0  0  0  0
    4.3060    0.6930   21.8610 C   0  0  0  0  0  0  0  0  0  0  0  0
    3.3570    1.6640   22.1890 C   0  0  0  0  0  0  0  0  0  0  0  0
    2.9910    2.6200   21.2640 C   0  0  0  0  0  0  0  0  0  0  0  0
    3.5830    2.6080   20.0110 C   0  0  0  0  0  0  0  0  0  0  0  0
  3  4  2  0
  4  5  1  0
  1  8  2  0
  2  8  2  0
  9 10  2  3
 10 12  1  0
  6 13  1  0
  8 14  1  0
 13 14  2  0
  7 15  1  0
 14 15  1  0
 15 16  2  0
 16 17  1  0
 13 18  1  0
 17 18  2  0
 19  4  1  0
 12 19  1  0
 19 20  1  0
 20 21  1  0
  8 22  1  0
 21 22  1  0
 22 23  1  0
 19 24  1  0
 23 24  1  0
 25 26  1  0
 26 27  1  0
 27 28  1  0
 28 29  1  0
  9 30  1  0
 25 30  1  0
 29 30  1  0
 31 32  2  0
 32 33  1  0
  9 34  1  0
 33 34  2  0
 34 35  1  0
 11 36  1  0
 31 36  1  0
 35 36  2  0
 37 38  2  0
 38 39  1  0
 39 40  2  0
 40 41  1  0
 27 42  1  0
 37 42  1  0
 41 42  2  0
 33 43  1  0
 43 44  2  0
 44 45  1  0
 32 46  1  0
 45 46  2  0
M  END
