x0755-x2572
     RDKit          3D

 42 45  0  0  0  0  0  0  0  0999 V2000
    4.4050   -6.4180   26.1480 O   0  0  0  0  0  0  0  0  0  0  0  0
    6.1300   -4.7570   26.8580 O   0  0  0  0  0  0  0  0  0  0  0  0
    5.2990   -4.8150   19.9670 O   0  0  0  0  0  0  0  0  0  0  0  0
    6.3430   -4.5460   20.5420 C   0  0  0  0  0  0  0  0  0  0  0  0
    7.2240   -3.4660   19.9230 C   0  0  0  0  0  0  0  0  0  0  0  0
    2.1460   -5.4910   25.8150 F   0  0  0  0  0  0  0  0  0  0  0  0
    5.6810   -2.2550   25.9780 O   0  0  0  0  0  0  0  0  0  0  0  0
    5.0830   -5.1570   25.9460 S   0  0  0  0  0  0  0  0  0  0  0  0
    4.7750    1.2460   21.6040 C   0  0  0  0  0  0  0  0  0  0  0  0
    8.8860    1.3050   21.2710 O   0  0  0  0  0  0  0  0  0  0  0  0
    7.1540   -0.3300   21.1400 N   0  0  0  0  0  0  0  0  0  0  0  0
   13.5970   -2.3490   20.7310 N   0  0  0  0  0  0  0  0  0  0  0  0
    8.2590    0.3420   21.7570 C   0  0  0  0  0  0  0  0  0  0  0  0
    8.5930   -0.1730   23.0020 C   0  0  1  0  0  0  0  0  0  0  0  0
   13.0090   -1.7650   21.4690 C   0  0  0  0  0  0  0  0  0  0  0  0
    6.2170   -1.2450   25.1230 C   0  0  0  0  0  0  0  0  0  0  0  0
    7.4990   -1.5700   24.6960 C   0  0  0  0  0  0  0  0  0  0  0  0
    7.8250   -1.4580   23.3520 C   0  0  0  0  0  0  0  0  0  0  0  0
    2.5250   -4.2070   25.8470 C   0  0  0  0  0  0  0  0  0  0  0  0
    3.8960   -3.8460   25.9030 C   0  0  0  0  0  0  0  0  0  0  0  0
    4.3410   -2.5040   25.9320 C   0  0  0  0  0  0  0  0  0  0  0  0
    3.2660   -1.4160   25.9090 C   0  0  0  0  0  0  0  0  0  0  0  0
    1.7900   -1.7870   25.8560 C   0  0  0  0  0  0  0  0  0  0  0  0
    1.5000   -3.2630   25.8220 C   0  0  0  0  0  0  0  0  0  0  0  0
    6.6710   -5.2300   21.7110 N   0  0  0  0  0  0  0  0  0  0  0  0
    7.6350   -4.7850   22.7430 C   0  0  0  0  0  0  0  0  0  0  0  0
    6.9010   -4.3290   24.0040 C   0  0  0  0  0  0  0  0  0  0  0  0
    5.7600   -5.2190   24.3900 N   0  0  0  0  0  0  0  0  0  0  0  0
    4.9700   -5.7100   23.3980 C   0  0  0  0  0  0  0  0  0  0  0  0
    5.6400   -6.0890   22.2390 C   0  0  0  0  0  0  0  0  0  0  0  0
    6.2680    0.5430   17.6650 N   0  0  0  0  0  0  0  0  0  0  0  0
    6.9030    0.0140   18.7170 C   0  0  0  0  0  0  0  0  0  0  0  0
    6.4770    0.2040   20.0460 C   0  0  0  0  0  0  0  0  0  0  0  0
    5.3320    0.9740   20.2490 C   0  0  0  0  0  0  0  0  0  0  0  0
    4.6850    1.5110   19.1580 C   0  0  0  0  0  0  0  0  0  0  0  0
    5.1820    1.2800   17.8980 C   0  0  0  0  0  0  0  0  0  0  0  0
   10.7330    0.6190   23.9300 C   0  0  0  0  0  0  0  0  0  0  0  0
   12.1040    0.6510   23.9980 C   0  0  0  0  0  0  0  0  0  0  0  0
   12.8710   -0.1360   23.1930 C   0  0  0  0  0  0  0  0  0  0  0  0
   12.2510   -0.9690   22.3080 C   0  0  0  0  0  0  0  0  0  0  0  0
   10.8790   -1.0120   22.2300 C   0  0  0  0  0  0  0  0  0  0  0  0
   10.0890   -0.2180   23.0330 C   0  0  0  0  0  0  0  0  0  0  0  0
  3  4  2  0
  4  5  1  0
  1  8  2  0
  2  8  2  0
 10 13  2  0
 11 13  1  0
 13 14  1  0
 12 15  3  0
  7 16  1  0
 16 17  1  0
 14 18  1  6
 17 18  1  0
  6 19  1  0
  8 20  1  0
 19 20  2  0
  7 21  1  0
 20 21  1  0
 21 22  2  0
 22 23  1  0
 19 24  1  0
 23 24  2  0
  4 25  1  0
 25 26  1  0
 26 27  1  0
  8 28  1  0
 27 28  1  0
 28 29  1  0
 25 30  1  0
 29 30  1  0
 31 32  2  0
 11 33  1  0
 32 33  1  0
  9 34  1  0
 33 34  2  0
 34 35  1  0
 31 36  1  0
 35 36  2  0
 37 38  2  0
 38 39  1  0
 15 40  1  0
 39 40  2  0
 40 41  1  0
 14 42  1  0
 37 42  1  0
 41 42  2  0
M  END
