x0759-x0426
     RDKit          3D

 37 40  0  0  0  0  0  0  0  0999 V2000
    2.3010    1.7540   23.7520 C   0  0  0  0  0  0  0  0  0  0  0  0
    2.2520    0.5300   23.6520 O   0  0  0  0  0  0  0  0  0  0  0  0
    3.4510    2.3920   23.0910 N   0  0  0  0  0  0  0  0  0  0  0  0
    4.2820    1.5530   22.3620 C   0  0  2  0  0  0  0  0  0  0  0  0
    3.7290    1.1370   21.2530 C   0  0  0  0  0  0  0  0  0  0  0  0
    2.8350    4.3090   25.1910 F   0  0  0  0  0  0  0  0  0  0  0  0
    5.3900   -4.3020   19.8340 O   0  0  0  0  0  0  0  0  0  0  0  0
    6.2950   -3.5040   20.1230 C   0  0  0  0  0  0  0  0  0  0  0  0
    7.2140   -3.0200   19.0040 C   0  0  0  0  0  0  0  0  0  0  0  0
   12.9700    0.5520   23.6480 F   0  0  0  0  0  0  0  0  0  0  0  0
    4.8800    0.4660   23.1780 C   0  0  0  0  0  0  0  0  0  0  0  0
    5.3470   -0.6660   22.4750 C   0  0  0  0  0  0  0  0  0  0  0  0
    6.7610   -0.6310   22.3710 C   0  0  0  0  0  0  0  0  0  0  0  0
    1.5970    3.7720   25.1620 C   0  0  0  0  0  0  0  0  0  0  0  0
    1.2740    2.5560   24.4940 C   0  0  0  0  0  0  0  0  0  0  0  0
   -0.0580    2.0590   24.5140 C   0  0  0  0  0  0  0  0  0  0  0  0
   -1.0810    2.7520   25.1880 C   0  0  0  0  0  0  0  0  0  0  0  0
   -0.8180    3.9370   25.8520 C   0  0  0  0  0  0  0  0  0  0  0  0
    0.6030    4.4850   25.8410 C   0  0  0  0  0  0  0  0  0  0  0  0
    5.7340    0.0060   20.1310 C   0  0  0  0  0  0  0  0  0  0  0  0
    6.6160   -0.1120   18.8740 C   0  0  0  0  0  0  0  0  0  0  0  0
    6.4420    0.5750   17.7510 N   0  0  0  0  0  0  0  0  0  0  0  0
    5.3010    1.5270   17.7290 C   0  0  0  0  0  0  0  0  0  0  0  0
    4.5010    1.6370   18.8750 C   0  0  0  0  0  0  0  0  0  0  0  0
    4.6000    0.9620   20.1030 C   0  0  0  0  0  0  0  0  0  0  0  0
    6.4940   -3.0770   21.4480 N   0  0  0  0  0  0  0  0  0  0  0  0
    7.3950   -2.0050   21.9360 C   0  0  2  0  0  0  0  0  0  0  0  0
    8.1370   -2.4490   23.0340 C   0  0  1  0  0  0  0  0  0  0  0  0
    8.3600   -3.8430   22.8980 O   0  0  0  0  0  0  0  0  0  0  0  0
    7.2220   -4.5370   23.1770 C   0  0  0  0  0  0  0  0  0  0  0  0
    6.1140   -4.0620   22.4780 C   0  0  0  0  0  0  0  0  0  0  0  0
    9.6190   -0.7220   24.1360 C   0  0  0  0  0  0  0  0  0  0  0  0
   10.7640   -0.0060   24.2850 C   0  0  0  0  0  0  0  0  0  0  0  0
   11.8750   -0.1720   23.4680 C   0  0  0  0  0  0  0  0  0  0  0  0
   11.8100   -1.0920   22.4800 C   0  0  0  0  0  0  0  0  0  0  0  0
   10.5770   -1.8800   22.2960 C   0  0  0  0  0  0  0  0  0  0  0  0
    9.4510   -1.6900   23.1450 C   0  0  0  0  0  0  0  0  0  0  0  0
  1  2  2  0
  1  3  1  0
  3  4  1  0
  4  5  1  6
  7  8  2  0
  8  9  1  0
  4 11  1  0
 11 12  1  0
 12 13  1  0
  6 14  1  0
  1 15  1  0
 14 15  2  0
 15 16  1  0
 16 17  2  0
 17 18  1  0
 14 19  1  0
 18 19  2  0
 20 21  2  0
 21 22  1  0
 22 23  2  0
 23 24  1  0
  5 25  1  0
 20 25  1  0
 24 25  2  0
  8 26  1  0
 27 13  1  1
 26 27  1  0
 27 28  1  0
 28 29  1  0
 29 30  1  0
 26 31  1  0
 30 31  1  0
 32 33  2  0
 10 34  1  0
 33 34  1  0
 34 35  2  0
 35 36  1  0
 28 37  1  6
 32 37  1  0
 36 37  2  0
M  END
