x0755-x0691
     RDKit          3D

 20 21  0  0  0  0  0  0  0  0999 V2000
    4.4860   -6.4120   26.2480 O   0  0  0  0  0  0  0  0  0  0  0  0
    6.2240   -4.6790   26.7560 O   0  0  0  0  0  0  0  0  0  0  0  0
    5.5860   -4.5290   19.9380 O   0  0  0  0  0  0  0  0  0  0  0  0
    6.5850   -4.5500   20.6800 C   0  0  0  0  0  0  0  0  0  0  0  0
    7.8030   -3.6790   20.3670 C   0  0  0  0  0  0  0  0  0  0  0  0
    1.9680   -5.4480   25.7050 F   0  0  0  0  0  0  0  0  0  0  0  0
    5.5770   -2.1740   26.0940 F   0  0  0  0  0  0  0  0  0  0  0  0
    5.1230   -5.1480   25.9470 S   0  0  0  0  0  0  0  0  0  0  0  0
    2.4180   -4.1930   25.7900 C   0  0  0  0  0  0  0  0  0  0  0  0
    3.9210   -3.8790   25.9090 C   0  0  0  0  0  0  0  0  0  0  0  0
    4.2960   -2.5500   25.9920 C   0  0  0  0  0  0  0  0  0  0  0  0
    3.2160   -1.4620   25.9670 C   0  0  0  0  0  0  0  0  0  0  0  0
    1.8680   -1.8200   25.8610 C   0  0  0  0  0  0  0  0  0  0  0  0
    1.4810   -3.1570   25.7730 C   0  0  0  0  0  0  0  0  0  0  0  0
    6.6340   -5.3580   21.8090 N   0  0  0  0  0  0  0  0  0  0  0  0
    7.5930   -5.0190   22.8730 C   0  0  0  0  0  0  0  0  0  0  0  0
    6.9650   -4.4530   23.9910 C   0  0  0  0  0  0  0  0  0  0  0  0
    5.7450   -5.2430   24.3570 N   0  0  0  0  0  0  0  0  0  0  0  0
    4.8040   -5.6120   23.2560 C   0  0  0  0  0  0  0  0  0  0  0  0
    5.5460   -6.2210   22.2460 C   0  0  0  0  0  0  0  0  0  0  0  0
  3  4  2  0
  4  5  1  0
  1  8  2  0
  2  8  2  0
  6  9  1  0
  8 10  1  0
  9 10  2  0
  7 11  1  0
 10 11  1  0
 11 12  2  0
 12 13  1  0
  9 14  1  0
 13 14  2  0
  4 15  1  0
 15 16  1  0
 16 17  1  0
  8 18  1  0
 17 18  1  0
 18 19  1  0
 15 20  1  0
 19 20  1  0
M  END
