x0755-x0978-x3110-x3113-x0426
     RDKit          3D

 70 74  0  0  0  0  0  0  0  0999 V2000
    8.1030    1.4330   23.3950 N   0  0  0  0  0  0  0  0  0  0  0  0
   13.4170    5.2280   22.8870 C   0  0  0  0  0  0  0  0  0  0  0  0
   12.0890    3.4540   22.3400 O   0  0  0  0  0  0  0  0  0  0  0  0
   12.4510    4.5360   21.8920 C   0  0  0  0  0  0  0  0  0  0  0  0
    7.1470   -1.2200   22.0440 N   0  0  0  0  0  0  0  0  0  0  0  0
   11.2110    4.5050   24.1770 O   0  0  0  0  0  0  0  0  0  0  0  0
   11.2890    3.5380   23.4280 C   0  0  0  0  0  0  0  0  0  0  0  0
    8.7350    1.7110   21.2050 O   0  0  0  0  0  0  0  0  0  0  0  0
   10.4890    2.2200   23.5630 C   0  0  0  0  0  0  0  0  0  0  0  0
    9.0330    2.4020   23.9320 C   0  0  0  0  0  0  0  0  0  0  0  0
    7.9880    1.1840   22.0550 C   0  0  0  0  0  0  0  0  0  0  0  0
    6.8640    0.2090   21.6600 C   0  0  1  0  0  0  0  0  0  0  0  0
   12.4750   -1.8440   24.0950 C   0  0  0  0  0  0  0  0  0  0  0  0
   12.7120   -0.5770   24.8890 C   0  0  0  0  0  0  0  0  0  0  0  0
   13.4660   -1.9660   22.9450 C   0  0  0  0  0  0  0  0  0  0  0  0
   12.7440   -2.9890   24.9850 C   0  0  0  0  0  0  0  0  0  0  0  0
    2.3180    2.1620   24.0460 C   0  0  0  0  0  0  0  0  0  0  0  0
    2.5350    1.0610   24.5360 O   0  0  0  0  0  0  0  0  0  0  0  0
    3.0540    2.6820   22.9640 N   0  0  0  0  0  0  0  0  0  0  0  0
    3.7570    1.8010   22.1430 C   0  0  0  0  0  0  0  0  0  0  0  0
    4.7870    2.4640   21.2410 C   0  0  0  0  0  0  0  0  0  0  0  0
    2.8030    4.4830   25.5680 F   0  0  0  0  0  0  0  0  0  0  0  0
    1.9370   -5.7810   23.4890 N   0  0  0  0  0  0  0  0  0  0  0  0
    2.1470   -7.6610   25.3880 C   0  0  0  0  0  0  0  0  0  0  0  0
    4.3360   -7.8610   24.4680 O   0  0  0  0  0  0  0  0  0  0  0  0
    3.1720   -7.6170   24.2070 C   0  0  2  0  0  0  0  0  0  0  0  0
    0.8550   -7.3510   21.8380 O   0  0  0  0  0  0  0  0  0  0  0  0
    3.1960   -6.3530   23.3650 C   0  0  2  0  0  0  0  0  0  0  0  0
    0.8130   -6.2560   22.6630 C   0  0  0  0  0  0  0  0  0  0  0  0
   -0.3330   -5.4960   22.7860 C   0  0  0  0  0  0  0  0  0  0  0  0
    6.2000   -1.9830   22.7870 C   0  0  0  0  0  0  0  0  0  0  0  0
    5.5770   -2.9390   22.0020 C   0  0  0  0  0  0  0  0  0  0  0  0
    4.1230   -6.2310   26.5200 O   0  0  0  0  0  0  0  0  0  0  0  0
    5.9090   -4.5360   26.8890 O   0  0  0  0  0  0  0  0  0  0  0  0
    5.8690   -5.4880   19.9800 O   0  0  0  0  0  0  0  0  0  0  0  0
    6.4230   -4.5280   20.4830 C   0  0  0  0  0  0  0  0  0  0  0  0
    7.1770   -3.5010   19.6650 C   0  0  0  0  0  0  0  0  0  0  0  0
    1.7630   -5.3820   25.8220 F   0  0  0  0  0  0  0  0  0  0  0  0
    5.6240   -2.1700   26.2310 F   0  0  0  0  0  0  0  0  0  0  0  0
    4.8590   -5.0650   26.0890 S   0  0  0  0  0  0  0  0  0  0  0  0
    6.2280    0.0480   17.8990 N   0  0  0  0  0  0  0  0  0  0  0  0
    5.2860    1.0840   17.8030 C   0  0  0  0  0  0  0  0  0  0  0  0
    4.8620    1.8040   18.8730 C   0  0  0  0  0  0  0  0  0  0  0  0
    5.3390    1.5630   20.1500 C   0  0  0  0  0  0  0  0  0  0  0  0
    6.2800    0.5300   20.2860 C   0  0  0  0  0  0  0  0  0  0  0  0
    6.6660   -0.1620   19.1580 C   0  0  0  0  0  0  0  0  0  0  0  0
    9.5500   -1.4320   21.6920 C   0  0  0  0  0  0  0  0  0  0  0  0
   10.8300   -1.5930   22.2340 C   0  0  0  0  0  0  0  0  0  0  0  0
   11.0610   -1.7140   23.6120 C   0  0  0  0  0  0  0  0  0  0  0  0
   10.0220   -1.6900   24.5140 C   0  0  0  0  0  0  0  0  0  0  0  0
    8.7420   -1.5430   24.0600 C   0  0  0  0  0  0  0  0  0  0  0  0
    8.4610   -1.3950   22.5200 C   0  0  0  0  0  0  0  0  0  0  0  0
    1.5290    4.0890   25.4140 C   0  0  0  0  0  0  0  0  0  0  0  0
    1.2350    2.9660   24.6750 C   0  0  0  0  0  0  0  0  0  0  0  0
   -0.1100    2.5820   24.5330 C   0  0  0  0  0  0  0  0  0  0  0  0
   -1.1290    3.3140   25.1310 C   0  0  0  0  0  0  0  0  0  0  0  0
   -0.8290    4.4510   25.8840 C   0  0  0  0  0  0  0  0  0  0  0  0
    0.4970    4.8630   26.0400 C   0  0  0  0  0  0  0  0  0  0  0  0
    2.1760   -4.0700   25.8960 C   0  0  0  0  0  0  0  0  0  0  0  0
    3.6950   -3.7380   26.0270 C   0  0  0  0  0  0  0  0  0  0  0  0
    4.3270   -2.4830   26.1180 C   0  0  0  0  0  0  0  0  0  0  0  0
    3.1560   -1.5080   26.0640 C   0  0  0  0  0  0  0  0  0  0  0  0
    1.7760   -1.8400   25.9480 C   0  0  0  0  0  0  0  0  0  0  0  0
    1.2810   -3.1010   25.8610 C   0  0  0  0  0  0  0  0  0  0  0  0
    6.2230   -4.3530   21.9680 C   0  0  1  0  0  0  0  0  0  0  0  0
    7.2380   -4.5680   22.8940 C   0  0  0  0  0  0  0  0  0  0  0  0
    6.8000   -4.8510   24.3580 C   0  0  0  0  0  0  0  0  0  0  0  0
    5.3930   -5.2950   24.5970 N   0  0  0  0  0  0  0  0  0  0  0  0
    4.3990   -5.2650   23.4520 C   0  0  1  0  0  0  0  0  0  0  0  0
    5.2180   -5.4490   22.2260 C   0  0  0  0  0  0  0  0  0  0  0  0
  2  4  1  0
  3  4  1  0
  3  7  1  0
  6  7  2  0
  7  9  1  0
  1 10  1  0
  9 10  1  0
  1 11  1  0
  8 11  2  0
  5 12  1  0
 12 11  1  6
 13 14  1  0
 13 15  1  0
 13 16  1  0
 17 18  2  0
 17 19  1  0
 19 20  1  0
 20 21  1  0
 26 24  1  1
 25 26  1  0
 28 23  1  1
 26 28  1  0
 23 29  1  0
 27 29  2  0
 29 30  1  0
  5 31  1  0
 31 32  1  0
 35 36  2  0
 36 37  1  0
 33 40  2  0
 34 40  2  0
 41 42  2  0
 42 43  1  0
 21 44  1  0
 43 44  2  0
 12 45  1  0
 44 45  1  0
 41 46  1  0
 45 46  2  0
 47 48  2  0
 13 49  1  0
 48 49  1  0
 49 50  2  0
 50 51  1  0
  5 52  1  0
 47 52  1  0
 51 52  2  0
 22 53  1  0
 17 54  1  0
 53 54  2  0
 54 55  1  0
 55 56  2  0
 56 57  1  0
 53 58  1  0
 57 58  2  0
 38 59  1  0
 40 60  1  0
 59 60  2  0
 39 61  1  0
 60 61  1  0
 61 62  2  0
 62 63  1  0
 59 64  1  0
 63 64  2  0
 65 32  1  6
 65 36  1  0
 65 66  1  0
 66 67  1  0
 40 68  1  0
 67 68  1  0
 28 69  1  0
 68 69  1  0
 65 70  1  0
 69 70  1  6
M  END
