x0759-x1077
     RDKit          3D

 26 28  0  0  0  0  0  0  0  0999 V2000
    5.3430   -4.2520   19.7900 O   0  0  0  0  0  0  0  0  0  0  0  0
    6.2870   -3.5070   20.0640 C   0  0  0  0  0  0  0  0  0  0  0  0
    7.2790   -3.0620   18.9800 C   0  0  0  0  0  0  0  0  0  0  0  0
   13.2950    0.5900   23.2890 F   0  0  0  0  0  0  0  0  0  0  0  0
    6.5000   -3.0720   21.3710 N   0  0  0  0  0  0  0  0  0  0  0  0
    7.3740   -1.9570   21.6560 C   0  0  0  0  0  0  0  0  0  0  0  0
    8.3190   -2.4010   22.7510 C   0  0  1  0  0  0  0  0  0  0  0  0
    8.6420   -3.8060   22.5520 O   0  0  0  0  0  0  0  0  0  0  0  0
    7.7500   -4.6270   22.8280 C   0  0  2  0  0  0  0  0  0  0  0  0
    6.4120   -4.1040   22.3420 C   0  0  0  0  0  0  0  0  0  0  0  0
    9.7880   -0.4910   23.8410 C   0  0  0  0  0  0  0  0  0  0  0  0
   11.0110    0.2890   24.0050 C   0  0  0  0  0  0  0  0  0  0  0  0
   12.1250   -0.0380   23.2240 C   0  0  0  0  0  0  0  0  0  0  0  0
   11.8030   -1.0840   22.4250 C   0  0  0  0  0  0  0  0  0  0  0  0
   10.7950   -1.9220   22.1030 C   0  0  0  0  0  0  0  0  0  0  0  0
    9.6670   -1.5920   22.8950 C   0  0  0  0  0  0  0  0  0  0  0  0
    6.8090   -5.0800   25.1370 O   0  0  0  0  0  0  0  0  0  0  0  0
    7.9290   -4.7400   24.3550 C   0  0  1  0  0  0  0  0  0  0  0  0
    9.0590   -5.6750   24.6860 C   0  0  0  0  0  0  0  0  0  0  0  0
   10.1650   -4.7950   25.2380 C   0  0  0  0  0  0  0  0  0  0  0  0
    9.4260   -3.8780   26.1660 N   0  0  0  0  0  0  0  0  0  0  0  0
    8.4550   -4.6230   26.9630 C   0  0  0  0  0  0  0  0  0  0  0  0
    6.9710   -4.4750   26.4320 C   0  0  0  0  0  0  0  0  0  0  0  0
    9.7440    1.3760   22.1730 N   0  0  0  0  0  0  0  0  0  0  0  0
    9.6860   -0.0990   22.2580 C   0  0  0  0  0  0  0  0  0  0  0  0
   10.5950   -0.6980   23.1980 C   0  0  0  0  0  0  0  0  0  0  0  0
  1  2  2  0
  2  3  1  0
  2  5  1  0
  5  6  1  0
  6  7  1  0
  7  8  1  0
  8  9  1  0
  5 10  1  0
  9 10  1  1
 11 12  2  0
  4 13  1  0
 12 13  1  0
 13 14  2  0
 14 15  1  0
  7 16  1  6
 11 16  1  0
 15 16  2  0
  9 18  1  0
 17 18  1  0
 18 19  1  6
 19 20  1  0
 20 21  1  0
 21 22  1  0
 17 23  1  0
 22 23  1  0
 24 25  3  0
 14 26  1  0
 25 26  1  0
M  END
