x0759-x0734
     RDKit          3D

 27 29  0  0  0  0  0  0  0  0999 V2000
    5.1300   -4.7720   26.2350 N   0  0  0  0  0  0  0  0  0  0  0  0
    4.4760   -5.5570   25.5360 O   0  0  0  0  0  0  0  0  0  0  0  0
    4.6880   -3.7440   26.7680 O   0  0  0  0  0  0  0  0  0  0  0  0
    5.1300   -4.0290   19.5630 O   0  0  0  0  0  0  0  0  0  0  0  0
    6.2720   -3.7690   19.9140 C   0  0  0  0  0  0  0  0  0  0  0  0
    7.2990   -3.1780   18.9500 C   0  0  0  0  0  0  0  0  0  0  0  0
    6.5560   -5.0640   26.3910 C   0  0  0  0  0  0  0  0  0  0  0  0
    7.3660   -4.8160   25.1330 C   0  0  0  0  0  0  0  0  0  0  0  0
    8.8200   -5.1010   25.2180 C   0  0  0  0  0  0  0  0  0  0  0  0
    9.3650   -5.5970   26.5070 C   0  0  0  0  0  0  0  0  0  0  0  0
    8.5460   -5.7890   27.6190 C   0  0  0  0  0  0  0  0  0  0  0  0
    7.1600   -5.5280   27.5640 C   0  0  0  0  0  0  0  0  0  0  0  0
    6.6810   -4.0320   21.1860 N   0  0  0  0  0  0  0  0  0  0  0  0
    6.5090   -5.2230   21.7790 C   0  0  0  0  0  0  0  0  0  0  0  0
    6.1120   -5.2190   23.1210 C   0  0  0  0  0  0  0  0  0  0  0  0
    6.6960   -4.3220   23.9430 N   0  0  0  0  0  0  0  0  0  0  0  0
    7.2170   -3.2130   23.4100 C   0  0  0  0  0  0  0  0  0  0  0  0
    7.0950   -2.9510   22.0580 C   0  0  1  0  0  0  0  0  0  0  0  0
   13.4750    0.4860   22.9490 F   0  0  0  0  0  0  0  0  0  0  0  0
    9.9200    0.1380   24.4120 C   0  0  0  0  0  0  0  0  0  0  0  0
   11.3300    0.6780   24.1810 C   0  0  0  0  0  0  0  0  0  0  0  0
   12.2510    0.0360   23.1510 C   0  0  0  0  0  0  0  0  0  0  0  0
   11.6490   -1.1560   22.3760 C   0  0  0  0  0  0  0  0  0  0  0  0
   10.2050   -1.5790   22.7090 C   0  0  0  0  0  0  0  0  0  0  0  0
    9.4350   -0.9430   23.6770 C   0  0  0  0  0  0  0  0  0  0  0  0
    8.3460   -2.2590   21.4850 C   0  0  0  0  0  0  0  0  0  0  0  0
    9.5660   -2.6940   21.9860 C   0  0  0  0  0  0  0  0  0  0  0  0
  1  2  2  0
  1  3  1  0
  4  5  2  0
  5  6  1  0
  1  7  1  0
  7  8  2  0
  8  9  1  0
  9 10  2  0
 10 11  1  0
  7 12  1  0
 11 12  2  0
  5 13  1  0
 13 14  1  0
 14 15  1  0
  8 16  1  0
 15 16  1  0
 16 17  1  0
 13 18  1  0
 17 18  1  0
 20 21  2  0
 19 22  1  0
 21 22  1  0
 22 23  2  0
 23 24  1  0
 20 25  1  0
 24 25  2  0
 18 26  1  6
 24 27  1  0
 26 27  1  0
M  CHG  2   1   1   3  -1
M  END
