x0755-x2581
     RDKit          3D

 44 48  0  0  0  0  0  0  0  0999 V2000
    4.2180   -6.3600   26.1090 O   0  0  0  0  0  0  0  0  0  0  0  0
    5.9230   -4.6750   26.8160 O   0  0  0  0  0  0  0  0  0  0  0  0
    5.3150   -4.7480   19.9560 O   0  0  0  0  0  0  0  0  0  0  0  0
    6.3430   -4.4400   20.5470 C   0  0  0  0  0  0  0  0  0  0  0  0
    7.2370   -3.4090   19.8590 C   0  0  0  0  0  0  0  0  0  0  0  0
    1.9520   -5.4370   25.6560 F   0  0  0  0  0  0  0  0  0  0  0  0
    5.4080   -2.1580   26.1230 F   0  0  0  0  0  0  0  0  0  0  0  0
    4.8950   -5.1000   25.9030 S   0  0  0  0  0  0  0  0  0  0  0  0
   10.1720   -2.4770   23.5620 C   0  0  0  0  0  0  0  0  0  0  0  0
   10.0800   -1.2960   23.9440 O   0  0  0  0  0  0  0  0  0  0  0  0
   10.3540    3.2880   22.1070 N   0  0  0  0  0  0  0  0  0  0  0  0
   11.3010    3.3910   24.1600 O   0  0  0  0  0  0  0  0  0  0  0  0
   11.1730    3.8970   23.0910 C   0  0  0  0  0  0  0  0  0  0  0  0
   11.7920    5.0970   22.7430 C   0  0  0  0  0  0  0  0  0  0  0  0
    7.8870   -3.0660   22.8840 C   0  0  0  0  0  0  0  0  0  0  0  0
    9.1860   -2.8200   22.4500 C   0  0  0  0  0  0  0  0  0  0  0  0
    2.3570   -4.1650   25.7680 C   0  0  0  0  0  0  0  0  0  0  0  0
    3.6990   -3.8240   25.8890 C   0  0  0  0  0  0  0  0  0  0  0  0
    4.1140   -2.4810   26.0060 C   0  0  0  0  0  0  0  0  0  0  0  0
    3.1950   -1.4230   26.0070 C   0  0  0  0  0  0  0  0  0  0  0  0
    1.8450   -1.7150   25.8920 C   0  0  0  0  0  0  0  0  0  0  0  0
    1.4040   -3.1620   25.7630 C   0  0  0  0  0  0  0  0  0  0  0  0
    6.6140   -5.0460   21.7790 N   0  0  0  0  0  0  0  0  0  0  0  0
    7.5200   -4.5520   22.8520 C   0  0  2  0  0  0  0  0  0  0  0  0
    7.0100   -4.9490   24.2220 C   0  0  0  0  0  0  0  0  0  0  0  0
    5.5300   -5.0960   24.3410 N   0  0  0  0  0  0  0  0  0  0  0  0
    4.8510   -5.8580   23.2670 C   0  0  0  0  0  0  0  0  0  0  0  0
    5.8120   -6.2260   22.1540 C   0  0  0  0  0  0  0  0  0  0  0  0
    8.9110    1.7410   21.2480 N   0  0  0  0  0  0  0  0  0  0  0  0
    9.8620    1.9830   22.1810 C   0  0  0  0  0  0  0  0  0  0  0  0
   10.3240    1.0480   23.1170 C   0  0  0  0  0  0  0  0  0  0  0  0
    9.7610   -0.2540   23.0960 C   0  0  0  0  0  0  0  0  0  0  0  0
    8.7650   -0.5180   22.1140 C   0  0  0  0  0  0  0  0  0  0  0  0
    8.3880    0.5010   21.2370 C   0  0  0  0  0  0  0  0  0  0  0  0
    9.8360    6.6760   22.8260 C   0  0  0  0  0  0  0  0  0  0  0  0
    9.1400    7.7480   23.3560 C   0  0  0  0  0  0  0  0  0  0  0  0
    9.6670    8.4470   24.4280 C   0  0  0  0  0  0  0  0  0  0  0  0
   10.9060    8.0610   24.9750 C   0  0  0  0  0  0  0  0  0  0  0  0
   11.6010    6.9730   24.4360 C   0  0  0  0  0  0  0  0  0  0  0  0
   11.0650    6.2730   23.3480 C   0  0  0  0  0  0  0  0  0  0  0  0
    8.9760    9.5460   24.9650 C   0  0  0  0  0  0  0  0  0  0  0  0
    9.5090   10.2550   26.0330 C   0  0  0  0  0  0  0  0  0  0  0  0
   10.7370    9.8760   26.5830 C   0  0  0  0  0  0  0  0  0  0  0  0
   11.4300    8.7850   26.0580 C   0  0  0  0  0  0  0  0  0  0  0  0
  3  4  2  0
  4  5  1  0
  1  8  2  0
  2  8  2  0
  9 10  1  0
 11 13  1  0
 12 13  2  0
 13 14  1  0
  9 16  1  0
 15 16  1  0
  6 17  1  0
  8 18  1  0
 17 18  2  0
  7 19  1  0
 18 19  1  0
 19 20  2  0
 20 21  1  0
 17 22  1  0
 21 22  2  0
  4 23  1  0
 24 15  1  1
 23 24  1  0
 24 25  1  0
  8 26  1  0
 25 26  1  0
 26 27  1  0
 23 28  1  0
 27 28  1  0
 11 30  1  0
 29 30  2  0
 30 31  1  0
 10 32  1  0
 31 32  2  0
 32 33  1  0
 29 34  1  0
 33 34  2  0
 35 36  2  0
 36 37  1  0
 37 38  2  0
 38 39  1  0
 14 40  1  0
 35 40  1  0
 39 40  2  0
 37 41  1  0
 41 42  2  0
 42 43  1  0
 38 44  1  0
 43 44  2  0
M  END
