x0759-x1336
     RDKit          3D

 27 29  0  0  0  0  0  0  0  0999 V2000
    6.0350   -5.3290   29.1370 C   0  0  0  0  0  0  0  0  0  0  0  0
    8.7480   -0.9760   25.2560 N   0  0  0  0  0  0  0  0  0  0  0  0
    6.2130   -1.3690   25.7680 O   0  0  0  0  0  0  0  0  0  0  0  0
    5.3700   -4.1130   19.6910 O   0  0  0  0  0  0  0  0  0  0  0  0
   10.0450   -3.8540   25.1440 C   0  0  0  0  0  0  0  0  0  0  0  0
    6.4020   -3.4830   19.9170 C   0  0  0  0  0  0  0  0  0  0  0  0
    7.3770   -3.0920   18.8240 C   0  0  0  0  0  0  0  0  0  0  0  0
    7.4950   -1.8660   25.3320 S   0  0  2  0  0  0  0  0  0  0  0  0
   13.0450    0.7060   23.4840 F   0  0  0  0  0  0  0  0  0  0  0  0
    7.0400   -4.9250   28.1070 C   0  0  0  0  0  0  0  0  0  0  0  0
    6.8380   -3.6980   27.2670 C   0  0  0  0  0  0  0  0  0  0  0  0
    7.7910   -3.3400   26.3090 C   0  0  0  0  0  0  0  0  0  0  0  0
    8.9540   -4.1430   26.1370 C   0  0  0  0  0  0  0  0  0  0  0  0
    9.1280   -5.2850   26.9290 C   0  0  0  0  0  0  0  0  0  0  0  0
    8.1880   -5.6700   27.8970 C   0  0  0  0  0  0  0  0  0  0  0  0
    6.7470   -3.1370   21.1780 N   0  0  0  0  0  0  0  0  0  0  0  0
    6.6800   -4.1410   22.2300 C   0  0  0  0  0  0  0  0  0  0  0  0
    6.4030   -3.5070   23.4450 C   0  0  0  0  0  0  0  0  0  0  0  0
    7.3320   -2.4030   23.7260 N   0  0  0  0  0  0  0  0  0  0  0  0
    7.4610   -1.3930   22.6720 C   0  0  0  0  0  0  0  0  0  0  0  0
    7.7520   -2.1030   21.3630 C   0  0  0  0  0  0  0  0  0  0  0  0
    9.7560   -1.1550   24.2160 C   0  0  0  0  0  0  0  0  0  0  0  0
   10.8870   -0.1510   24.3580 C   0  0  0  0  0  0  0  0  0  0  0  0
   12.0470   -0.1570   23.3800 C   0  0  0  0  0  0  0  0  0  0  0  0
   12.0230   -1.1120   22.3640 C   0  0  0  0  0  0  0  0  0  0  0  0
   10.9400   -2.0450   22.2500 C   0  0  0  0  0  0  0  0  0  0  0  0
    9.8420   -2.0530   23.1630 C   0  0  0  0  0  0  0  0  0  0  0  0
  4  6  2  0
  6  7  1  0
  2  8  2  0
  3  8  2  0
  1 10  1  0
 10 11  2  0
  8 12  1  1
 11 12  1  0
  5 13  1  0
 12 13  2  0
 13 14  1  0
 10 15  1  0
 14 15  2  0
  6 16  1  0
 16 17  1  0
 17 18  1  0
  8 19  1  0
 18 19  1  0
 19 20  1  0
 16 21  1  0
 20 21  1  0
  2 22  1  0
 22 23  2  0
  9 24  1  0
 23 24  1  0
 24 25  2  0
 25 26  1  0
 22 27  1  0
 26 27  2  0
M  END
