x0755-x0434
     RDKit          3D

 39 42  0  0  0  0  0  0  0  0999 V2000
    4.6260   -6.3330   26.4390 O   0  0  0  0  0  0  0  0  0  0  0  0
    6.3280   -4.5220   26.8360 O   0  0  0  0  0  0  0  0  0  0  0  0
    5.5100   -5.2640   19.9720 O   0  0  0  0  0  0  0  0  0  0  0  0
    6.3110   -4.5380   20.5200 C   0  0  0  0  0  0  0  0  0  0  0  0
    7.1140   -3.5030   19.7070 C   0  0  0  0  0  0  0  0  0  0  0  0
    2.0650   -5.4550   25.7310 F   0  0  0  0  0  0  0  0  0  0  0  0
    5.5840   -2.0930   26.2350 F   0  0  0  0  0  0  0  0  0  0  0  0
    5.2200   -5.0630   26.0840 S   0  0  0  0  0  0  0  0  0  0  0  0
    2.4860   -4.1900   25.8290 C   0  0  0  0  0  0  0  0  0  0  0  0
    3.9750   -3.8370   25.9990 C   0  0  0  0  0  0  0  0  0  0  0  0
    4.3160   -2.5000   26.0880 C   0  0  0  0  0  0  0  0  0  0  0  0
    3.2090   -1.4390   26.0200 C   0  0  0  0  0  0  0  0  0  0  0  0
    1.8770   -1.8310   25.8700 C   0  0  0  0  0  0  0  0  0  0  0  0
    1.5230   -3.1780   25.7730 C   0  0  0  0  0  0  0  0  0  0  0  0
    6.3140   -4.7580   22.0360 C   0  0  0  0  0  0  0  0  0  0  0  0
    7.4580   -4.8780   22.8010 C   0  0  0  0  0  0  0  0  0  0  0  0
    7.2080   -4.9780   24.1810 C   0  0  0  0  0  0  0  0  0  0  0  0
    5.7360   -5.1680   24.4660 N   0  0  0  0  0  0  0  0  0  0  0  0
    4.9780   -6.1120   23.6290 C   0  0  0  0  0  0  0  0  0  0  0  0
    5.6220   -6.1140   22.2670 C   0  0  0  0  0  0  0  0  0  0  0  0
    8.7840    1.1440   21.1110 O   0  0  0  0  0  0  0  0  0  0  0  0
    8.3550    0.0330   21.4740 C   0  0  0  0  0  0  0  0  0  0  0  0
    9.0680   -0.8630   22.2360 N   0  0  0  0  0  0  0  0  0  0  0  0
    7.0920   -0.4650   21.1460 N   0  0  0  0  0  0  0  0  0  0  0  0
    6.0850   -2.2000   22.5970 C   0  0  0  0  0  0  0  0  0  0  0  0
    6.8750   -1.9000   21.3360 C   0  0  0  0  0  0  0  0  0  0  0  0
   10.6570    0.5030   23.3510 C   0  0  0  0  0  0  0  0  0  0  0  0
   12.0410    0.8830   23.7290 C   0  0  0  0  0  0  0  0  0  0  0  0
   13.0300    0.0670   23.2440 C   0  0  0  0  0  0  0  0  0  0  0  0
   12.7440   -1.0580   22.4470 C   0  0  0  0  0  0  0  0  0  0  0  0
   11.4070   -1.3880   22.1070 C   0  0  0  0  0  0  0  0  0  0  0  0
   10.3660   -0.5810   22.5710 C   0  0  0  0  0  0  0  0  0  0  0  0
    5.2230    0.8870   20.2200 C   0  0  0  0  0  0  0  0  0  0  0  0
    4.6050    1.4870   19.1290 C   0  0  0  0  0  0  0  0  0  0  0  0
    5.1930    1.3460   17.8870 C   0  0  0  0  0  0  0  0  0  0  0  0
    6.3190    0.6550   17.6890 N   0  0  0  0  0  0  0  0  0  0  0  0
    6.8790    0.0880   18.7710 C   0  0  0  0  0  0  0  0  0  0  0  0
    6.4020    0.1630   20.0600 C   0  0  0  0  0  0  0  0  0  0  0  0
    5.4760   -3.5960   22.6060 C   0  0  0  0  0  0  0  0  0  0  0  0
  3  4  2  0
  4  5  1  0
  1  8  2  0
  2  8  2  0
  6  9  1  0
  8 10  1  0
  9 10  2  0
  7 11  1  0
 10 11  1  0
 11 12  2  0
 12 13  1  0
  9 14  1  0
 13 14  2  0
 15  4  1  0
 15 16  1  0
 16 17  1  0
  8 18  1  0
 17 18  1  0
 18 19  1  0
 15 20  1  0
 19 20  1  0
 21 22  2  0
 22 23  1  0
 22 24  1  0
 24 26  1  0
 25 26  1  0
 27 28  2  0
 28 29  1  0
 29 30  2  0
 30 31  1  0
 23 32  1  0
 27 32  1  0
 31 32  2  0
 33 34  2  0
 34 35  1  0
 35 36  2  0
 36 37  1  0
 24 38  1  0
 33 38  1  0
 37 38  2  0
 15 39  1  0
 25 39  1  0
M  END
