x0755-x2776-x0978
     RDKit          3D

 60 64  0  0  0  0  0  0  0  0999 V2000
    7.1410   -1.1730   21.6980 N   0  0  0  0  0  0  0  0  0  0  0  0
    7.7970    2.1130   22.8650 N   0  0  0  0  0  0  0  0  0  0  0  0
    8.8850    1.4130   21.0100 O   0  0  0  0  0  0  0  0  0  0  0  0
   10.8150    6.7650   23.8870 O   0  0  0  0  0  0  0  0  0  0  0  0
    6.8010    0.2830   21.5060 C   0  0  1  0  0  0  0  0  0  0  0  0
   12.4370   -2.8620   24.9990 O   0  0  0  0  0  0  0  0  0  0  0  0
    7.9290    1.3090   21.7670 C   0  0  0  0  0  0  0  0  0  0  0  0
   10.6750    1.8250   23.8260 C   0  0  0  0  0  0  0  0  0  0  0  0
   11.8410    6.7020   24.8710 C   0  0  0  0  0  0  0  0  0  0  0  0
   12.2260   -1.5240   24.5860 C   0  0  1  0  0  0  0  0  0  0  0  0
   13.2270   -1.0620   23.4990 C   0  0  0  0  0  0  0  0  0  0  0  0
   13.7080   -3.0320   25.5480 C   0  0  0  0  0  0  0  0  0  0  0  0
    2.1120   -5.5690   22.9770 N   0  0  0  0  0  0  0  0  0  0  0  0
    2.0600   -8.0500   24.9280 C   0  0  0  0  0  0  0  0  0  0  0  0
    4.3730   -7.9540   24.5750 O   0  0  0  0  0  0  0  0  0  0  0  0
    3.1920   -7.4910   24.0490 C   0  0  2  0  0  0  0  0  0  0  0  0
    0.9840   -7.3170   22.1470 O   0  0  0  0  0  0  0  0  0  0  0  0
    3.1920   -5.9680   23.9030 C   0  0  1  0  0  0  0  0  0  0  0  0
    0.9460   -6.1860   22.6190 C   0  0  0  0  0  0  0  0  0  0  0  0
   -0.4090   -5.4230   22.7880 C   0  0  0  0  0  0  0  0  0  0  0  0
    6.0970   -2.2070   21.6380 C   0  0  0  0  0  0  0  0  0  0  0  0
    6.1570   -3.1550   22.6540 C   0  0  0  0  0  0  0  0  0  0  0  0
    4.3610   -6.3140   26.7050 O   0  0  0  0  0  0  0  0  0  0  0  0
    6.2210   -4.6550   26.9770 O   0  0  0  0  0  0  0  0  0  0  0  0
    5.8240   -4.9200   19.9680 O   0  0  0  0  0  0  0  0  0  0  0  0
    6.6940   -4.4820   20.7000 C   0  0  0  0  0  0  0  0  0  0  0  0
    8.0050   -3.7460   20.3560 C   0  0  0  0  0  0  0  0  0  0  0  0
    1.9400   -5.3730   26.0320 F   0  0  0  0  0  0  0  0  0  0  0  0
    5.6270   -1.9530   26.1290 F   0  0  0  0  0  0  0  0  0  0  0  0
    5.0850   -5.1590   26.2500 S   0  0  0  0  0  0  0  0  0  0  0  0
    6.3240    0.4320   17.8050 N   0  0  0  0  0  0  0  0  0  0  0  0
    5.2040    1.1990   17.7890 C   0  0  0  0  0  0  0  0  0  0  0  0
    4.5180    1.7000   18.8840 C   0  0  0  0  0  0  0  0  0  0  0  0
    5.0320    1.3970   20.1300 C   0  0  0  0  0  0  0  0  0  0  0  0
    6.1850    0.6190   20.1840 C   0  0  0  0  0  0  0  0  0  0  0  0
    6.7970    0.1520   19.0250 C   0  0  0  0  0  0  0  0  0  0  0  0
    9.9860    3.1460   23.5940 C   0  0  0  0  0  0  0  0  0  0  0  0
   10.6780    4.3400   23.8220 C   0  0  0  0  0  0  0  0  0  0  0  0
   10.1280    5.6110   23.6440 C   0  0  0  0  0  0  0  0  0  0  0  0
    8.8120    5.8140   23.1970 C   0  0  0  0  0  0  0  0  0  0  0  0
    7.9960    4.7230   22.9220 C   0  0  0  0  0  0  0  0  0  0  0  0
    8.5360    3.2810   23.1100 C   0  0  0  0  0  0  0  0  0  0  0  0
    9.4570   -1.8830   21.8470 C   0  0  0  0  0  0  0  0  0  0  0  0
   10.8210   -2.0230   22.5010 C   0  0  0  0  0  0  0  0  0  0  0  0
   10.9150   -1.4530   23.9090 C   0  0  0  0  0  0  0  0  0  0  0  0
    9.7590   -0.8210   24.6230 C   0  0  0  0  0  0  0  0  0  0  0  0
    8.4330   -0.7430   23.8480 C   0  0  0  0  0  0  0  0  0  0  0  0
    8.3370   -1.2930   22.4200 C   0  0  0  0  0  0  0  0  0  0  0  0
    2.4090   -4.1190   26.0020 C   0  0  0  0  0  0  0  0  0  0  0  0
    3.9220   -3.8510   26.0990 C   0  0  0  0  0  0  0  0  0  0  0  0
    4.3630   -2.3820   26.0570 C   0  0  0  0  0  0  0  0  0  0  0  0
    3.1930   -1.4020   25.9250 C   0  0  0  0  0  0  0  0  0  0  0  0
    1.8520   -1.7750   25.8490 C   0  0  0  0  0  0  0  0  0  0  0  0
    1.4690   -3.1010   25.8840 C   0  0  0  0  0  0  0  0  0  0  0  0
    6.3970   -4.5990   22.1620 C   0  0  1  0  0  0  0  0  0  0  0  0
    7.3870   -5.1110   22.9650 C   0  0  0  0  0  0  0  0  0  0  0  0
    7.0680   -5.0910   24.3500 C   0  0  0  0  0  0  0  0  0  0  0  0
    5.6190   -5.3860   24.6560 N   0  0  0  0  0  0  0  0  0  0  0  0
    4.5590   -5.2010   23.6040 C   0  0  1  0  0  0  0  0  0  0  0  0
    5.1640   -5.4690   22.3640 C   0  0  0  0  0  0  0  0  0  0  0  0
  1  5  1  0
  2  7  1  0
  3  7  2  0
  5  7  1  6
  4  9  1  0
  6 10  1  0
 10 11  1  6
  6 12  1  0
 16 14  1  1
 15 16  1  0
 18 13  1  6
 16 18  1  0
 13 19  1  0
 17 19  2  0
 19 20  1  0
  1 21  1  0
 21 22  1  0
 25 26  2  0
 26 27  1  0
 23 30  2  0
 24 30  2  0
 31 32  2  0
 32 33  1  0
 33 34  2  0
  5 35  1  0
 34 35  1  0
 31 36  1  0
 35 36  2  0
  8 37  1  0
 37 38  2  0
  4 39  1  0
 38 39  1  0
 39 40  2  0
 40 41  1  0
  2 42  1  0
 37 42  1  0
 41 42  2  0
 43 44  2  0
 10 45  1  0
 44 45  1  0
 45 46  2  0
 46 47  1  0
  1 48  1  0
 43 48  1  0
 47 48  2  0
 28 49  1  0
 30 50  1  0
 49 50  2  0
 29 51  1  0
 50 51  1  0
 51 52  2  0
 52 53  1  0
 49 54  1  0
 53 54  2  0
 55 22  1  1
 55 26  1  0
 55 56  1  0
 56 57  1  0
 30 58  1  0
 57 58  1  0
 18 59  1  0
 58 59  1  0
 55 60  1  0
 59 60  1  6
M  END
