x0755-x2646
     RDKit          3D

 41 44  0  0  0  0  0  0  0  0999 V2000
    4.3650   -6.3880   26.1670 O   0  0  0  0  0  0  0  0  0  0  0  0
    6.1080   -4.6520   26.7310 O   0  0  0  0  0  0  0  0  0  0  0  0
    5.3540   -5.1370   20.0120 O   0  0  0  0  0  0  0  0  0  0  0  0
    6.3060   -4.7280   20.6570 C   0  0  0  0  0  0  0  0  0  0  0  0
    7.1040   -3.5680   20.1190 C   0  0  0  0  0  0  0  0  0  0  0  0
    2.1450   -5.4940   25.7220 F   0  0  0  0  0  0  0  0  0  0  0  0
    5.4380   -2.1110   26.0270 O   0  0  0  0  0  0  0  0  0  0  0  0
    5.0560   -5.1550   25.8790 S   0  0  0  0  0  0  0  0  0  0  0  0
    4.8060    1.1920   21.5560 C   0  0  0  0  0  0  0  0  0  0  0  0
    8.8190    1.2490   21.2530 O   0  0  0  0  0  0  0  0  0  0  0  0
   13.2420   -2.3530   21.1420 Cl  0  0  0  0  0  0  0  0  0  0  0  0
    6.9930   -0.3500   21.0220 N   0  0  0  0  0  0  0  0  0  0  0  0
    8.1920    0.2270   21.5960 C   0  0  0  0  0  0  0  0  0  0  0  0
    8.5660   -0.7030   22.7670 C   0  0  2  0  0  0  0  0  0  0  0  0
    5.9980   -1.4220   24.9140 C   0  0  0  0  0  0  0  0  0  0  0  0
    7.5240   -1.4960   24.9820 C   0  0  0  0  0  0  0  0  0  0  0  0
    7.8280   -0.3220   24.0470 C   0  0  0  0  0  0  0  0  0  0  0  0
    2.5140   -4.2080   25.8000 C   0  0  0  0  0  0  0  0  0  0  0  0
    3.8600   -3.8310   25.8810 C   0  0  0  0  0  0  0  0  0  0  0  0
    4.1370   -2.4660   25.9560 C   0  0  0  0  0  0  0  0  0  0  0  0
    3.1140   -1.5240   25.9550 C   0  0  0  0  0  0  0  0  0  0  0  0
    1.7930   -1.9040   25.8780 C   0  0  0  0  0  0  0  0  0  0  0  0
    1.4840   -3.2570   25.7980 C   0  0  0  0  0  0  0  0  0  0  0  0
    6.6270   -5.3560   21.8350 N   0  0  0  0  0  0  0  0  0  0  0  0
    7.3180   -4.6720   22.9310 C   0  0  0  0  0  0  0  0  0  0  0  0
    6.3610   -4.1960   23.8280 C   0  0  0  0  0  0  0  0  0  0  0  0
    5.6460   -5.2370   24.2900 N   0  0  0  0  0  0  0  0  0  0  0  0
    4.7990   -5.7270   23.3550 C   0  0  0  0  0  0  0  0  0  0  0  0
    5.6270   -6.3220   22.2780 C   0  0  0  0  0  0  0  0  0  0  0  0
    6.2350    0.6130   17.6220 N   0  0  0  0  0  0  0  0  0  0  0  0
    6.9080   -0.0280   18.6430 C   0  0  0  0  0  0  0  0  0  0  0  0
    6.3910    0.2100   19.9090 C   0  0  0  0  0  0  0  0  0  0  0  0
    5.2710    1.0230   20.1130 C   0  0  0  0  0  0  0  0  0  0  0  0
    4.6390    1.6320   19.0730 C   0  0  0  0  0  0  0  0  0  0  0  0
    5.1700    1.3950   17.8410 C   0  0  0  0  0  0  0  0  0  0  0  0
   10.5930    0.3120   23.7760 C   0  0  0  0  0  0  0  0  0  0  0  0
   11.9570    0.5120   23.9530 C   0  0  0  0  0  0  0  0  0  0  0  0
   12.8970   -0.3460   23.1080 C   0  0  0  0  0  0  0  0  0  0  0  0
   12.2990   -1.3760   22.1220 C   0  0  0  0  0  0  0  0  0  0  0  0
   10.8180   -1.5430   21.9860 C   0  0  0  0  0  0  0  0  0  0  0  0
   10.0500   -0.6030   22.8950 C   0  0  0  0  0  0  0  0  0  0  0  0
  3  4  2  0
  4  5  1  0
  1  8  2  0
  2  8  2  0
 10 13  2  0
 12 13  1  0
 13 14  1  0
  7 15  1  0
 15 16  1  0
 14 17  1  1
 16 17  1  0
  6 18  1  0
  8 19  1  0
 18 19  2  0
  7 20  1  0
 19 20  1  0
 20 21  2  0
 21 22  1  0
 18 23  1  0
 22 23  2  0
  4 24  1  0
 24 25  1  0
 25 26  1  0
  8 27  1  0
 26 27  1  0
 27 28  1  0
 24 29  1  0
 28 29  1  0
 30 31  2  0
 12 32  1  0
 31 32  1  0
  9 33  1  0
 32 33  2  0
 33 34  1  0
 30 35  1  0
 34 35  2  0
 36 37  2  0
 37 38  1  0
 11 39  1  0
 38 39  2  0
 39 40  1  0
 14 41  1  0
 36 41  1  0
 40 41  2  0
M  END
