x0759-x1093
     RDKit          3D

 30 33  0  0  0  0  0  0  0  0999 V2000
    5.3610   -4.2340   19.7590 O   0  0  0  0  0  0  0  0  0  0  0  0
    6.3020   -3.4610   19.9500 C   0  0  0  0  0  0  0  0  0  0  0  0
    7.2930   -3.1100   18.8460 C   0  0  0  0  0  0  0  0  0  0  0  0
   12.8420    0.1760   24.2310 O   0  0  0  0  0  0  0  0  0  0  0  0
    9.0340    1.4340   21.2400 O   0  0  0  0  0  0  0  0  0  0  0  0
    8.8870    0.2320   21.5430 C   0  0  0  0  0  0  0  0  0  0  0  0
    7.5740   -0.5490   21.4690 C   0  0  2  0  0  0  0  0  0  0  0  0
    6.5420   -2.8870   21.1810 N   0  0  0  0  0  0  0  0  0  0  0  0
    7.7670   -2.0120   21.3840 C   0  0  2  0  0  0  0  0  0  0  0  0
    8.4760   -2.6500   22.5010 C   0  0  2  0  0  0  0  0  0  0  0  0
    7.9190   -3.0200   23.5180 O   0  0  0  0  0  0  0  0  0  0  0  0
    7.0750   -4.1190   23.2520 C   0  0  0  0  0  0  0  0  0  0  0  0
    6.0900   -3.6250   22.3750 C   0  0  0  0  0  0  0  0  0  0  0  0
    9.5480   -1.0940   24.0710 C   0  0  0  0  0  0  0  0  0  0  0  0
   10.6130   -0.3610   24.5290 C   0  0  0  0  0  0  0  0  0  0  0  0
   11.8030   -0.4140   23.7960 C   0  0  0  0  0  0  0  0  0  0  0  0
   11.9320   -1.1430   22.6280 C   0  0  0  0  0  0  0  0  0  0  0  0
   10.9190   -1.8840   22.1200 C   0  0  0  0  0  0  0  0  0  0  0  0
    9.6340   -1.8580   22.9290 C   0  0  0  0  0  0  0  0  0  0  0  0
    6.2060    0.3590   17.9170 N   0  0  0  0  0  0  0  0  0  0  0  0
    7.2030   -0.3680   18.7300 C   0  0  0  0  0  0  0  0  0  0  0  0
    6.8920   -0.1000   20.2140 C   0  0  0  0  0  0  0  0  0  0  0  0
    5.6870    0.7450   20.2040 C   0  0  0  0  0  0  0  0  0  0  0  0
    5.3680    0.9830   18.8660 C   0  0  0  0  0  0  0  0  0  0  0  0
    4.3310    1.7610   18.4570 N   0  0  0  0  0  0  0  0  0  0  0  0
    3.5170    2.2770   19.4330 C   0  0  0  0  0  0  0  0  0  0  0  0
    3.7990    2.0370   20.7730 C   0  0  0  0  0  0  0  0  0  0  0  0
    4.8720    1.2930   21.1810 C   0  0  0  0  0  0  0  0  0  0  0  0
   13.5290   -1.9760   24.4080 C   0  0  0  0  0  0  0  0  0  0  0  0
   12.9910   -0.9130   25.1300 C   0  0  0  0  0  0  0  0  0  0  0  0
  1  2  2  0
  2  3  1  0
  5  6  2  0
  7  6  1  6
  2  8  1  0
  7  9  1  0
  9  8  1  1
  9 10  1  0
 10 11  1  0
 11 12  1  0
  8 13  1  0
 12 13  1  0
 14 15  2  0
  4 16  1  0
 15 16  1  0
 16 17  2  0
 17 18  1  0
 10 19  1  1
 14 19  1  0
 18 19  2  0
 20 21  1  0
  7 22  1  0
 21 22  2  0
 22 23  1  0
 20 24  2  0
 23 24  1  0
 24 25  1  0
 25 26  1  0
 26 27  2  0
 23 28  2  0
 27 28  1  0
  4 30  1  0
 29 30  1  0
M  END
