x0759-x0691
     RDKit          3D

 31 34  0  0  0  0  0  0  0  0999 V2000
    3.8910   -6.8630   25.6990 O   0  0  0  0  0  0  0  0  0  0  0  0
    5.5960   -5.4040   26.8100 O   0  0  0  0  0  0  0  0  0  0  0  0
    5.3610   -4.8970   19.9910 O   0  0  0  0  0  0  0  0  0  0  0  0
    6.3980   -4.5650   20.5570 C   0  0  0  0  0  0  0  0  0  0  0  0
    7.2940   -3.5220   19.8770 C   0  0  0  0  0  0  0  0  0  0  0  0
    3.1330   -0.5520   25.9890 F   0  0  0  0  0  0  0  0  0  0  0  0
    4.6310   -5.6300   25.7570 S   0  0  0  0  0  0  0  0  0  0  0  0
   12.9880    0.2990   24.1500 F   0  0  0  0  0  0  0  0  0  0  0  0
    2.8330   -1.8530   25.8980 C   0  0  0  0  0  0  0  0  0  0  0  0
    3.9370   -2.8930   25.8840 C   0  0  0  0  0  0  0  0  0  0  0  0
    3.5330   -4.3160   25.7820 C   0  0  0  0  0  0  0  0  0  0  0  0
    2.0720   -4.6660   25.6940 C   0  0  0  0  0  0  0  0  0  0  0  0
    1.1140   -3.6340   25.7130 C   0  0  0  0  0  0  0  0  0  0  0  0
    1.4900   -2.2670   25.8160 C   0  0  0  0  0  0  0  0  0  0  0  0
    6.7460   -5.1380   21.7920 N   0  0  0  0  0  0  0  0  0  0  0  0
    5.9290   -6.2520   22.1170 C   0  0  0  0  0  0  0  0  0  0  0  0
    4.8820   -6.1020   23.0620 C   0  0  0  0  0  0  0  0  0  0  0  0
    5.4270   -5.4410   24.2930 N   0  0  0  0  0  0  0  0  0  0  0  0
    6.7460   -4.8390   24.1650 C   0  0  0  0  0  0  0  0  0  0  0  0
    6.9070   -4.2310   22.9280 C   0  0  1  0  0  0  0  0  0  0  0  0
    6.1710   -2.2620   21.6120 N   0  0  0  0  0  0  0  0  0  0  0  0
    7.3970   -1.5460   21.9360 C   0  0  0  0  0  0  0  0  0  0  0  0
    8.5500   -2.5300   22.1780 C   0  0  2  0  0  0  0  0  0  0  0  0
    8.2450   -3.6860   23.0030 O   0  0  0  0  0  0  0  0  0  0  0  0
    5.8910   -3.1500   22.7370 C   0  0  0  0  0  0  0  0  0  0  0  0
    9.5370   -1.0830   23.9850 C   0  0  0  0  0  0  0  0  0  0  0  0
   10.7650   -0.3290   24.4760 C   0  0  0  0  0  0  0  0  0  0  0  0
   11.9340   -0.3580   23.7330 C   0  0  0  0  0  0  0  0  0  0  0  0
   12.0290   -1.0740   22.5400 C   0  0  0  0  0  0  0  0  0  0  0  0
   10.8940   -1.7660   22.0980 C   0  0  0  0  0  0  0  0  0  0  0  0
    9.6850   -1.7680   22.7920 C   0  0  0  0  0  0  0  0  0  0  0  0
  3  4  2  0
  4  5  1  0
  1  7  2  0
  2  7  2  0
  6  9  1  0
  9 10  2  0
  7 11  1  0
 10 11  1  0
 11 12  2  0
 12 13  1  0
  9 14  1  0
 13 14  2  0
  4 15  1  0
 15 16  1  0
 16 17  1  0
  7 18  1  0
 17 18  1  0
 18 19  1  0
 15 20  1  0
 20 19  1  1
 21 22  1  0
 22 23  1  0
 20 24  1  0
 23 24  1  0
 20 25  1  0
 21 25  1  0
 26 27  2  0
  8 28  1  0
 27 28  1  0
 28 29  2  0
 29 30  1  0
 23 31  1  1
 26 31  1  0
 30 31  2  0
M  END
