x0755-x0978-x3110-x0426-x1077
     RDKit          3D

 77 83  0  0  0  0  0  0  0  0999 V2000
    8.1610    1.3450   23.2740 N   0  0  0  0  0  0  0  0  0  0  0  0
   13.3750    5.1120   22.8360 C   0  0  0  0  0  0  0  0  0  0  0  0
   12.0270    3.4020   22.3840 O   0  0  0  0  0  0  0  0  0  0  0  0
   12.3720    4.5160   21.9470 C   0  0  0  0  0  0  0  0  0  0  0  0
    7.2230   -1.3730   22.0370 N   0  0  0  0  0  0  0  0  0  0  0  0
   11.0710    4.4120   24.1780 O   0  0  0  0  0  0  0  0  0  0  0  0
   11.1720    3.4540   23.4320 C   0  0  0  0  0  0  0  0  0  0  0  0
    8.6960    1.6030   21.0600 O   0  0  0  0  0  0  0  0  0  0  0  0
   10.3610    2.2210   23.5700 C   0  0  0  0  0  0  0  0  0  0  0  0
    8.9060    2.4220   23.7030 C   0  0  0  0  0  0  0  0  0  0  0  0
    7.9970    1.0610   21.9260 C   0  0  0  0  0  0  0  0  0  0  0  0
    6.8790    0.0520   21.6690 C   0  0  1  0  0  0  0  0  0  0  0  0
   12.4770   -1.8210   24.2450 C   0  0  0  0  0  0  0  0  0  0  0  0
   12.6850   -0.5310   24.9910 C   0  0  0  0  0  0  0  0  0  0  0  0
   13.4460   -1.9260   23.0790 C   0  0  0  0  0  0  0  0  0  0  0  0
   12.7910   -3.0120   25.1780 C   0  0  0  0  0  0  0  0  0  0  0  0
    2.5210    2.2090   24.0910 C   0  0  0  0  0  0  0  0  0  0  0  0
    2.8980    1.1340   24.5140 O   0  0  0  0  0  0  0  0  0  0  0  0
    3.1930    2.8910   23.0880 N   0  0  0  0  0  0  0  0  0  0  0  0
    4.2300    2.2870   22.3710 C   0  0  0  0  0  0  0  0  0  0  0  0
    3.8890    1.2080   21.3560 C   0  0  0  0  0  0  0  0  0  0  0  0
    2.6570    4.6700   25.3530 F   0  0  0  0  0  0  0  0  0  0  0  0
    2.1970   -6.5110   22.6660 N   0  0  0  0  0  0  0  0  0  0  0  0
    1.9100   -8.4310   24.3100 C   0  0  0  0  0  0  0  0  0  0  0  0
    4.0890   -8.0340   24.5070 O   0  0  0  0  0  0  0  0  0  0  0  0
    2.7970   -7.4290   24.6030 C   0  0  1  0  0  0  0  0  0  0  0  0
    0.3370   -7.3060   21.8010 O   0  0  0  0  0  0  0  0  0  0  0  0
    2.8470   -6.3140   23.7840 C   0  0  1  0  0  0  0  0  0  0  0  0
    0.8510   -6.4700   22.5310 C   0  0  0  0  0  0  0  0  0  0  0  0
    0.0010   -5.4900   23.1940 C   0  0  0  0  0  0  0  0  0  0  0  0
    6.4040   -2.0750   22.8360 C   0  0  0  0  0  0  0  0  0  0  0  0
    5.6740   -2.9250   22.0840 C   0  0  0  0  0  0  0  0  0  0  0  0
    4.4570   -6.2620   26.9900 O   0  0  0  0  0  0  0  0  0  0  0  0
    6.2580   -4.4620   26.4610 N   0  0  0  0  0  0  0  0  0  0  0  0
    5.8700   -4.9790   19.9610 O   0  0  0  0  0  0  0  0  0  0  0  0
    6.6450   -4.5460   20.7880 C   0  0  0  0  0  0  0  0  0  0  0  0
    8.0680   -4.0430   20.5720 C   0  0  0  0  0  0  0  0  0  0  0  0
    1.7350   -5.5210   26.0950 F   0  0  0  0  0  0  0  0  0  0  0  0
    5.4520   -2.4280   26.4570 F   0  0  0  0  0  0  0  0  0  0  0  0
    4.8250   -5.0260   26.2030 S   0  0  2  0  0  0  0  0  0  0  0  0
    6.4200    0.3530   17.9350 N   0  0  0  0  0  0  0  0  0  0  0  0
    5.2110    0.8720   17.8900 C   0  0  0  0  0  0  0  0  0  0  0  0
    4.4520    1.1270   18.9670 C   0  0  0  0  0  0  0  0  0  0  0  0
    4.8670    0.8840   20.2500 C   0  0  0  0  0  0  0  0  0  0  0  0
    6.1540    0.3590   20.3510 C   0  0  0  0  0  0  0  0  0  0  0  0
    6.9550    0.0600   19.2720 C   0  0  0  0  0  0  0  0  0  0  0  0
    9.6210   -1.4760   21.8090 C   0  0  0  0  0  0  0  0  0  0  0  0
   10.8810   -1.5930   22.3370 C   0  0  0  0  0  0  0  0  0  0  0  0
   11.0900   -1.7300   23.6650 C   0  0  0  0  0  0  0  0  0  0  0  0
    9.9680   -1.7540   24.4710 C   0  0  0  0  0  0  0  0  0  0  0  0
    8.7040   -1.6420   23.9700 C   0  0  0  0  0  0  0  0  0  0  0  0
    8.4880   -1.4960   22.6040 C   0  0  0  0  0  0  0  0  0  0  0  0
    1.4590    4.0640   25.3130 C   0  0  0  0  0  0  0  0  0  0  0  0
    1.3220    2.8470   24.7040 C   0  0  0  0  0  0  0  0  0  0  0  0
    0.0700    2.1920   24.6540 C   0  0  0  0  0  0  0  0  0  0  0  0
   -0.9950    2.8360   25.2420 C   0  0  0  0  0  0  0  0  0  0  0  0
   -0.7920    4.0630   25.8400 C   0  0  0  0  0  0  0  0  0  0  0  0
    0.3670    4.6920   25.8990 C   0  0  0  0  0  0  0  0  0  0  0  0
    7.4220   -5.1200   25.7120 N   0  0  0  0  0  0  0  0  0  0  0  0
    7.9080   -4.5760   24.3710 C   0  0  1  0  0  0  0  0  0  0  0  0
    9.1260   -5.0570   23.9780 C   0  0  0  0  0  0  0  0  0  0  0  0
   10.1800   -4.7530   24.8250 C   0  0  0  0  0  0  0  0  0  0  0  0
    9.8910   -3.8650   25.9380 N   0  0  0  0  0  0  0  0  0  0  0  0
    9.3780   -4.5820   27.0980 C   0  0  0  0  0  0  0  0  0  0  0  0
    8.4030   -5.6560   26.6330 C   0  0  0  0  0  0  0  0  0  0  0  0
    2.1630   -4.2640   26.2270 C   0  0  0  0  0  0  0  0  0  0  0  0
    3.5080   -3.8960   26.2870 C   0  0  0  0  0  0  0  0  0  0  0  0
    4.1400   -2.6640   26.4180 C   0  0  0  0  0  0  0  0  0  0  0  0
    3.2720   -1.6010   26.5130 C   0  0  0  0  0  0  0  0  0  0  0  0
    1.7430   -1.7740   26.4760 C   0  0  0  0  0  0  0  0  0  0  0  0
    1.2480   -3.2150   26.3180 C   0  0  0  0  0  0  0  0  0  0  0  0
    6.0420   -4.4560   22.1570 C   0  0  1  0  0  0  0  0  0  0  0  0
    6.8540   -4.9820   23.3120 C   0  0  2  0  0  0  0  0  0  0  0  0
    5.8080   -4.4830   24.1360 C   0  0  0  0  0  0  0  0  0  0  0  0
    5.1770   -5.5730   24.6670 N   0  0  0  0  0  0  0  0  0  0  0  0
    4.3650   -5.9140   23.5060 C   0  0  2  0  0  0  0  0  0  0  0  0
    4.6760   -5.1910   22.3620 C   0  0  0  0  0  0  0  0  0  0  0  0
  2  4  1  0
  3  4  1  0
  3  7  1  0
  6  7  2  0
  7  9  1  0
  1 10  1  0
  9 10  1  0
  1 11  1  0
  8 11  2  0
  5 12  1  0
 12 11  1  6
 13 14  1  0
 13 15  1  0
 13 16  1  0
 17 18  2  0
 17 19  1  0
 19 20  1  0
 20 21  1  0
 26 24  1  6
 25 26  1  0
 28 23  1  6
 26 28  1  0
 23 29  1  0
 27 29  2  0
 29 30  1  0
  5 31  1  0
 31 32  1  0
 35 36  2  0
 36 37  1  0
 33 40  2  0
 34 40  2  0
 41 42  2  0
 42 43  1  0
 21 44  1  0
 43 44  2  0
 12 45  1  0
 44 45  1  0
 41 46  1  0
 45 46  2  0
 47 48  2  0
 13 49  1  0
 48 49  1  0
 49 50  2  0
 50 51  1  0
  5 52  1  0
 47 52  1  0
 51 52  2  0
 22 53  1  0
 17 54  1  0
 53 54  2  0
 54 55  1  0
 55 56  2  0
 56 57  1  0
 53 58  1  0
 57 58  2  0
 34 59  1  0
 59 60  1  0
 60 61  1  6
 61 62  1  0
 62 63  1  0
 63 64  1  0
 59 65  1  0
 64 65  1  0
 38 66  1  0
 40 67  1  6
 66 67  2  0
 39 68  1  0
 67 68  1  0
 68 69  2  0
 69 70  1  0
 66 71  1  0
 70 71  2  0
 72 32  1  1
 72 36  1  0
 60 73  1  0
 72 73  1  0
 73 74  1  1
 40 75  1  0
 74 75  1  0
 28 76  1  0
 75 76  1  0
 72 77  1  0
 76 77  1  6
M  END
