x0755-x0731-x3113
     RDKit          3D

 55 59  0  0  0  0  0  0  0  0999 V2000
    7.5550   -1.1340   21.9920 N   0  0  0  0  0  0  0  0  0  0  0  0
    8.2930    1.7170   23.4100 N   0  0  0  0  0  0  0  0  0  0  0  0
    8.8780    1.7640   21.0040 O   0  0  0  0  0  0  0  0  0  0  0  0
   11.8000    4.1400   23.3180 O   0  0  0  0  0  0  0  0  0  0  0  0
    7.0030    0.2070   21.8490 C   0  0  1  0  0  0  0  0  0  0  0  0
    8.0840    1.2290   22.0400 C   0  0  0  0  0  0  0  0  0  0  0  0
    9.3970    2.6180   23.6540 C   0  0  0  0  0  0  0  0  0  0  0  0
   10.7450    1.9700   23.5440 C   0  0  0  0  0  0  0  0  0  0  0  0
   11.8060    2.9410   23.0560 C   0  0  0  0  0  0  0  0  0  0  0  0
   12.8320    4.6810   22.9170 C   0  0  0  0  0  0  0  0  0  0  0  0
   12.6000   -1.9780   24.3330 C   0  0  0  0  0  0  0  0  0  0  0  0
   13.5630   -2.0760   23.1570 C   0  0  0  0  0  0  0  0  0  0  0  0
   12.9330   -3.1590   25.2430 C   0  0  0  0  0  0  0  0  0  0  0  0
   12.7910   -0.6710   25.0620 C   0  0  0  0  0  0  0  0  0  0  0  0
    6.7880   -2.2810   22.4120 C   0  0  0  0  0  0  0  0  0  0  0  0
    6.3930    0.1930   17.9770 N   0  0  0  0  0  0  0  0  0  0  0  0
    5.2220    1.0810   17.8110 C   0  0  0  0  0  0  0  0  0  0  0  0
    4.6300    1.6610   19.0070 C   0  0  0  0  0  0  0  0  0  0  0  0
    5.2310    1.3490   20.3440 C   0  0  0  0  0  0  0  0  0  0  0  0
    6.4060    0.4640   20.4400 C   0  0  0  0  0  0  0  0  0  0  0  0
    6.9320   -0.0870   19.2050 C   0  0  0  0  0  0  0  0  0  0  0  0
    9.7310   -1.9680   21.8760 C   0  0  0  0  0  0  0  0  0  0  0  0
   11.0850   -2.2350   22.4190 C   0  0  0  0  0  0  0  0  0  0  0  0
   11.2880   -1.8110   23.6990 C   0  0  0  0  0  0  0  0  0  0  0  0
   10.2850   -1.1860   24.4390 C   0  0  0  0  0  0  0  0  0  0  0  0
    9.0160   -0.9320   23.9370 C   0  0  0  0  0  0  0  0  0  0  0  0
    8.7750   -1.3750   22.5230 C   0  0  0  0  0  0  0  0  0  0  0  0
    3.9070   -5.9980   26.1110 O   0  0  0  0  0  0  0  0  0  0  0  0
    5.5880   -4.0280   26.8510 N   0  0  0  0  0  0  0  0  0  0  0  0
    6.0470   -5.2730   19.9590 O   0  0  0  0  0  0  0  0  0  0  0  0
    6.8910   -4.8820   20.7460 C   0  0  0  0  0  0  0  0  0  0  0  0
    8.1810   -4.0760   20.4940 C   0  0  0  0  0  0  0  0  0  0  0  0
    1.6400   -5.1490   25.7400 F   0  0  0  0  0  0  0  0  0  0  0  0
    5.0020   -1.8790   26.2180 F   0  0  0  0  0  0  0  0  0  0  0  0
    4.4950   -4.6870   25.9470 S   0  0  2  0  0  0  0  0  0  0  0  0
    0.4080   -0.4650   26.1300 C   0  0  0  0  0  0  0  0  0  0  0  0
    6.9430   -4.6260   26.9320 N   0  0  0  0  0  0  0  0  0  0  0  0
    5.8220   -6.6640   26.1230 O   0  0  0  0  0  0  0  0  0  0  0  0
    4.2840   -4.1450   21.9230 O   0  0  0  0  0  0  0  0  0  0  0  0
    5.4410   -4.0680   21.6110 C   0  0  0  0  0  0  0  0  0  0  0  0
    5.8670   -3.0670   20.6970 C   0  0  0  0  0  0  0  0  0  0  0  0
    6.8720   -5.6830   25.9160 S   0  0  0  0  0  0  0  0  0  0  0  0
    1.9980   -3.8600   25.8790 C   0  0  0  0  0  0  0  0  0  0  0  0
    3.2930   -3.5030   25.9820 C   0  0  0  0  0  0  0  0  0  0  0  0
    3.7090   -2.2090   26.1200 C   0  0  0  0  0  0  0  0  0  0  0  0
    2.7800   -1.2240   26.1640 C   0  0  0  0  0  0  0  0  0  0  0  0
    1.4330   -1.5410   26.0690 C   0  0  0  0  0  0  0  0  0  0  0  0
    1.0240   -2.8780   25.9200 C   0  0  0  0  0  0  0  0  0  0  0  0
    6.4180   -5.1440   22.1280 C   0  0  0  0  0  0  0  0  0  0  0  0
    7.1580   -4.7550   23.2130 C   0  0  2  0  0  0  0  0  0  0  0  0
    6.4860   -4.6950   24.4240 C   0  0  1  0  0  0  0  0  0  0  0  0
    5.0390   -4.7350   24.3220 N   0  0  0  0  0  0  0  0  0  0  0  0
    4.6560   -5.9990   23.6120 C   0  0  0  0  0  0  0  0  0  0  0  0
    5.5850   -6.3620   22.4600 C   0  0  0  0  0  0  0  0  0  0  0  0
    7.7280   -3.3670   22.9220 C   0  0  0  0  0  0  0  0  0  0  0  0
  1  5  1  0
  2  6  1  0
  3  6  2  0
  5  6  1  6
  2  7  1  0
  7  8  1  0
  4  9  1  0
  8  9  1  0
  4 10  1  0
 11 12  1  0
 11 13  1  0
 11 14  1  0
  1 15  1  0
 16 17  2  0
 17 18  1  0
 18 19  2  0
  5 20  1  0
 19 20  1  0
 16 21  1  0
 20 21  2  0
 22 23  2  0
 11 24  1  0
 23 24  1  0
 24 25  2  0
 25 26  1  0
  1 27  1  0
 22 27  1  0
 26 27  2  0
 30 31  2  0
 31 32  1  0
 28 35  2  0
 29 35  2  0
 29 37  1  0
 39 40  2  0
 40 41  1  0
 37 42  2  0
 38 42  2  0
 33 43  1  0
 35 44  1  6
 43 44  2  0
 34 45  1  0
 44 45  1  0
 45 46  2  0
 36 47  1  0
 46 47  1  0
 43 48  1  0
 47 48  2  0
 49 31  1  0
 40 49  1  0
 49 50  1  0
 51 42  1  1
 50 51  1  0
 35 52  1  0
 51 52  1  0
 52 53  1  0
 49 54  1  0
 53 54  1  0
 15 55  1  0
 50 55  1  6
M  END
