x0755-x0978-x0946-x3110-x0426
     RDKit          3D

 76 81  0  0  0  0  0  0  0  0999 V2000
    7.9840    1.2890   23.5250 N   0  0  0  0  0  0  0  0  0  0  0  0
   13.9970    4.9480   22.1770 C   0  0  0  0  0  0  0  0  0  0  0  0
   12.6680    5.1180   22.7470 C   0  0  0  0  0  0  0  0  0  0  0  0
    7.1690   -1.3480   21.9720 N   0  0  0  0  0  0  0  0  0  0  0  0
   10.0880    5.0100   23.6680 C   0  0  0  0  0  0  0  0  0  0  0  0
    8.6410    1.6760   21.2480 O   0  0  0  0  0  0  0  0  0  0  0  0
    8.7640    2.3420   24.1520 C   0  0  0  0  0  0  0  0  0  0  0  0
    7.8960    1.1030   22.0770 C   0  0  0  0  0  0  0  0  0  0  0  0
    6.7740    0.1140   21.7480 C   0  0  1  0  0  0  0  0  0  0  0  0
   12.4590   -1.8330   24.1080 C   0  0  0  0  0  0  0  0  0  0  0  0
   12.7650   -0.6090   24.8980 C   0  0  0  0  0  0  0  0  0  0  0  0
   13.4110   -1.9330   22.9250 C   0  0  0  0  0  0  0  0  0  0  0  0
   12.7450   -3.0190   25.0170 C   0  0  0  0  0  0  0  0  0  0  0  0
    2.5150    1.8580   24.2870 C   0  0  0  0  0  0  0  0  0  0  0  0
    2.5640    0.6750   24.5920 O   0  0  0  0  0  0  0  0  0  0  0  0
    3.4460    2.4530   23.4460 N   0  0  0  0  0  0  0  0  0  0  0  0
    4.3140    1.6850   22.6830 C   0  0  0  0  0  0  0  0  0  0  0  0
    4.1650    1.9710   21.1710 C   0  0  0  0  0  0  0  0  0  0  0  0
    2.7760    4.6220   25.0080 F   0  0  0  0  0  0  0  0  0  0  0  0
    8.9830    5.2540   22.8020 N   0  0  0  0  0  0  0  0  0  0  0  0
    9.6110    5.1900   24.9740 O   0  0  0  0  0  0  0  0  0  0  0  0
   10.8810    6.1450   23.4840 O   0  0  0  0  0  0  0  0  0  0  0  0
    2.4140   -5.6080   22.9200 N   0  0  0  0  0  0  0  0  0  0  0  0
    2.0180   -7.9440   25.1820 C   0  0  0  0  0  0  0  0  0  0  0  0
    4.2240   -8.1530   24.3450 O   0  0  0  0  0  0  0  0  0  0  0  0
    2.9760   -7.5920   24.0520 C   0  0  2  0  0  0  0  0  0  0  0  0
    0.9540   -7.3350   22.0320 O   0  0  0  0  0  0  0  0  0  0  0  0
    3.2410   -6.1300   23.8120 C   0  0  1  0  0  0  0  0  0  0  0  0
    1.1070   -6.2480   22.5750 C   0  0  0  0  0  0  0  0  0  0  0  0
   -0.1060   -5.3880   22.9540 C   0  0  0  0  0  0  0  0  0  0  0  0
    6.2860   -2.1470   22.8520 C   0  0  0  0  0  0  0  0  0  0  0  0
    5.5960   -3.1930   22.2810 C   0  0  0  0  0  0  0  0  0  0  0  0
    4.2220   -6.1520   26.6770 O   0  0  0  0  0  0  0  0  0  0  0  0
    5.8670   -4.3620   26.9590 O   0  0  0  0  0  0  0  0  0  0  0  0
    5.7790   -4.3780   19.7960 O   0  0  0  0  0  0  0  0  0  0  0  0
    6.6860   -4.2080   20.6000 C   0  0  0  0  0  0  0  0  0  0  0  0
    8.0540   -3.6250   20.2690 C   0  0  0  0  0  0  0  0  0  0  0  0
    1.8910   -5.3310   25.8260 F   0  0  0  0  0  0  0  0  0  0  0  0
    5.4440   -1.9560   26.2030 F   0  0  0  0  0  0  0  0  0  0  0  0
    4.8650   -4.9770   26.1400 S   0  0  0  0  0  0  0  0  0  0  0  0
    6.5280    0.2810   17.9840 N   0  0  0  0  0  0  0  0  0  0  0  0
    5.4570    1.0600   17.8060 C   0  0  0  0  0  0  0  0  0  0  0  0
    4.7020    1.5950   18.8280 C   0  0  0  0  0  0  0  0  0  0  0  0
    5.0740    1.3190   20.1300 C   0  0  0  0  0  0  0  0  0  0  0  0
    6.2100    0.5040   20.3790 C   0  0  0  0  0  0  0  0  0  0  0  0
    6.8820    0.0170   19.2520 C   0  0  0  0  0  0  0  0  0  0  0  0
    9.6540   -1.3890   21.7360 C   0  0  0  0  0  0  0  0  0  0  0  0
   10.9440   -1.5140   22.2360 C   0  0  0  0  0  0  0  0  0  0  0  0
   11.0710   -1.7360   23.6020 C   0  0  0  0  0  0  0  0  0  0  0  0
    9.9730   -1.8340   24.4090 C   0  0  0  0  0  0  0  0  0  0  0  0
    8.6970   -1.7130   23.8740 C   0  0  0  0  0  0  0  0  0  0  0  0
    8.5240   -1.4850   22.5130 C   0  0  0  0  0  0  0  0  0  0  0  0
    1.5760    4.0490   25.1880 C   0  0  0  0  0  0  0  0  0  0  0  0
    1.4080    2.6880   24.8460 C   0  0  0  0  0  0  0  0  0  0  0  0
    0.0340    2.0090   25.0560 C   0  0  0  0  0  0  0  0  0  0  0  0
   -1.0470    2.8910   25.6160 C   0  0  0  0  0  0  0  0  0  0  0  0
   -0.8270    4.3310   25.9610 C   0  0  0  0  0  0  0  0  0  0  0  0
    0.5670    4.8690   25.7140 C   0  0  0  0  0  0  0  0  0  0  0  0
   12.1910    1.2050   23.0690 C   0  0  0  0  0  0  0  0  0  0  0  0
   12.8840    2.5180   22.7880 C   0  0  0  0  0  0  0  0  0  0  0  0
   12.0690    3.7780   23.0150 C   0  0  0  0  0  0  0  0  0  0  0  0
   10.7890    3.6550   23.4600 C   0  0  0  0  0  0  0  0  0  0  0  0
   10.1950    2.4260   23.6920 C   0  0  0  0  0  0  0  0  0  0  0  0
   10.8870    1.2390   23.5020 C   0  0  0  0  0  0  0  0  0  0  0  0
    2.2850   -4.0530   25.8620 C   0  0  0  0  0  0  0  0  0  0  0  0
    3.6600   -3.7300   26.0090 C   0  0  0  0  0  0  0  0  0  0  0  0
    4.1510   -2.2790   26.0600 C   0  0  0  0  0  0  0  0  0  0  0  0
    3.1210   -1.1830   25.9480 C   0  0  0  0  0  0  0  0  0  0  0  0
    1.6240   -1.5850   25.7860 C   0  0  0  0  0  0  0  0  0  0  0  0
    1.2780   -3.0950   25.7510 C   0  0  0  0  0  0  0  0  0  0  0  0
    6.3280   -4.5360   22.0310 C   0  0  1  0  0  0  0  0  0  0  0  0
    7.5190   -4.8540   23.0670 C   0  0  0  0  0  0  0  0  0  0  0  0
    6.9980   -4.9530   24.4820 C   0  0  0  0  0  0  0  0  0  0  0  0
    5.5000   -5.0710   24.5610 N   0  0  0  0  0  0  0  0  0  0  0  0
    4.8030   -5.9370   23.5230 C   0  0  2  0  0  0  0  0  0  0  0  0
    5.3160   -5.7000   22.0900 C   0  0  0  0  0  0  0  0  0  0  0  0
  2  3  1  0
  1  7  1  0
  1  8  1  0
  6  8  2  0
  4  9  1  0
  9  8  1  6
 10 11  1  0
 10 12  1  0
 10 13  1  0
 14 15  2  0
 14 16  1  0
 16 17  1  0
 17 18  1  0
  5 20  1  0
  5 21  1  0
  5 22  1  0
 26 24  1  1
 25 26  1  0
 28 23  1  6
 26 28  1  0
 23 29  1  0
 27 29  2  0
 29 30  1  0
  4 31  1  0
 31 32  1  0
 35 36  2  0
 36 37  1  0
 33 40  2  0
 34 40  2  0
 41 42  2  0
 42 43  1  0
 18 44  1  0
 43 44  2  0
  9 45  1  0
 44 45  1  0
 41 46  1  0
 45 46  2  0
 47 48  2  0
 10 49  1  0
 48 49  1  0
 49 50  2  0
 50 51  1  0
  4 52  1  0
 47 52  1  0
 51 52  2  0
 19 53  1  0
 14 54  1  0
 53 54  2  0
 54 55  1  0
 55 56  2  0
 56 57  1  0
 53 58  1  0
 57 58  2  0
 59 60  2  0
  3 61  1  0
 60 61  1  0
  5 62  1  0
 61 62  2  0
  7 63  1  0
 62 63  1  0
 59 64  1  0
 63 64  2  0
 38 65  1  0
 40 66  1  0
 65 66  2  0
 39 67  1  0
 66 67  1  0
 67 68  2  0
 68 69  1  0
 65 70  1  0
 69 70  2  0
 71 32  1  1
 71 36  1  0
 71 72  1  0
 72 73  1  0
 40 74  1  0
 73 74  1  0
 28 75  1  0
 74 75  1  0
 71 76  1  0
 75 76  1  6
M  END
