x0755-x1382
     RDKit          3D

 32 34  0  0  0  0  0  0  0  0999 V2000
    4.3460   -6.3170   26.1920 O   0  0  0  0  0  0  0  0  0  0  0  0
    6.1280   -4.6680   26.8380 O   0  0  0  0  0  0  0  0  0  0  0  0
    5.3420   -4.6200   19.9430 O   0  0  0  0  0  0  0  0  0  0  0  0
    6.3960   -4.3990   20.5390 C   0  0  0  0  0  0  0  0  0  0  0  0
    7.3300   -3.3610   19.8920 C   0  0  0  0  0  0  0  0  0  0  0  0
    2.0770   -5.4550   25.6670 F   0  0  0  0  0  0  0  0  0  0  0  0
    5.5210   -2.1630   26.1310 F   0  0  0  0  0  0  0  0  0  0  0  0
    5.0750   -5.0920   25.9460 S   0  0  0  0  0  0  0  0  0  0  0  0
   13.4270   -1.8270   21.0490 Cl  0  0  0  0  0  0  0  0  0  0  0  0
    7.4190   -1.0720   23.2590 C   0  0  0  0  0  0  0  0  0  0  0  0
    8.5800   -2.0700   23.1010 C   0  0  1  0  0  0  0  0  0  0  0  0
    8.5180   -2.7740   21.8080 N   0  0  0  0  0  0  0  0  0  0  0  0
    7.9070   -2.3190   20.9180 C   0  0  0  0  0  0  0  0  0  0  0  0
    7.7420   -1.0870   20.7930 O   0  0  0  0  0  0  0  0  0  0  0  0
    2.4980   -4.1910   25.7680 C   0  0  0  0  0  0  0  0  0  0  0  0
    3.8560   -3.8650   25.9010 C   0  0  0  0  0  0  0  0  0  0  0  0
    4.2380   -2.5210   26.0030 C   0  0  0  0  0  0  0  0  0  0  0  0
    3.2680   -1.5270   25.9730 C   0  0  0  0  0  0  0  0  0  0  0  0
    1.9270   -1.8510   25.8450 C   0  0  0  0  0  0  0  0  0  0  0  0
    1.5430   -3.1730   25.7410 C   0  0  0  0  0  0  0  0  0  0  0  0
    6.6680   -5.1260   21.7090 N   0  0  0  0  0  0  0  0  0  0  0  0
    7.6310   -4.8710   22.7890 C   0  0  0  0  0  0  0  0  0  0  0  0
    6.9570   -4.3960   24.0870 C   0  0  0  0  0  0  0  0  0  0  0  0
    5.7100   -5.1540   24.3880 N   0  0  0  0  0  0  0  0  0  0  0  0
    4.8670   -5.6070   23.2460 C   0  0  0  0  0  0  0  0  0  0  0  0
    5.7280   -6.0720   22.0770 C   0  0  0  0  0  0  0  0  0  0  0  0
    9.9450   -1.3750   23.1180 C   0  0  0  0  0  0  0  0  0  0  0  0
   10.9740   -1.8700   22.1830 C   0  0  0  0  0  0  0  0  0  0  0  0
   12.3200   -1.2290   22.1440 C   0  0  0  0  0  0  0  0  0  0  0  0
   12.5690   -0.1680   23.0090 C   0  0  0  0  0  0  0  0  0  0  0  0
   11.5670    0.2900   23.9020 C   0  0  0  0  0  0  0  0  0  0  0  0
   10.2650   -0.3120   23.9540 C   0  0  0  0  0  0  0  0  0  0  0  0
  3  4  2  0
  4  5  1  0
  1  8  2  0
  2  8  2  0
 11 10  1  6
 11 12  1  0
  5 13  1  0
 12 13  1  0
 13 14  2  0
  6 15  1  0
  8 16  1  0
 15 16  2  0
  7 17  1  0
 16 17  1  0
 17 18  2  0
 18 19  1  0
 15 20  1  0
 19 20  2  0
  4 21  1  0
 21 22  1  0
 22 23  1  0
  8 24  1  0
 23 24  1  0
 24 25  1  0
 21 26  1  0
 25 26  1  0
 11 27  1  0
 27 28  2  0
  9 29  1  0
 28 29  1  0
 29 30  2  0
 30 31  1  0
 27 32  1  0
 31 32  2  0
M  END
