x0755-x2764
     RDKit          3D

 38 41  0  0  0  0  0  0  0  0999 V2000
    4.4010   -6.4170   26.0380 O   0  0  0  0  0  0  0  0  0  0  0  0
    6.0670   -4.6820   26.7530 O   0  0  0  0  0  0  0  0  0  0  0  0
    5.2500   -4.7160   19.9610 O   0  0  0  0  0  0  0  0  0  0  0  0
    6.2780   -4.4050   20.5470 C   0  0  0  0  0  0  0  0  0  0  0  0
    7.1460   -3.3230   19.8960 C   0  0  0  0  0  0  0  0  0  0  0  0
    1.8700   -5.4250   25.6310 F   0  0  0  0  0  0  0  0  0  0  0  0
    5.4480   -1.9260   26.1170 F   0  0  0  0  0  0  0  0  0  0  0  0
    5.0530   -5.1440   25.8470 S   0  0  0  0  0  0  0  0  0  0  0  0
    8.6110   -1.5350   21.1300 N   0  0  0  0  0  0  0  0  0  0  0  0
    7.3620   -1.9640   20.7390 C   0  0  0  0  0  0  0  0  0  0  0  0
    9.0430   -2.2550   22.3450 C   0  0  0  0  0  0  0  0  0  0  0  0
    6.8450    0.7150   22.0090 O   0  0  0  0  0  0  0  0  0  0  0  0
    7.6050    4.3960   22.5650 N   0  0  0  0  0  0  0  0  0  0  0  0
    8.0480    1.4470   22.3130 C   0  0  0  0  0  0  0  0  0  0  0  0
    7.7900    2.9530   22.4220 C   0  0  0  0  0  0  0  0  0  0  0  0
    2.3170   -4.1700   25.7570 C   0  0  0  0  0  0  0  0  0  0  0  0
    3.8220   -3.8830   25.8670 C   0  0  0  0  0  0  0  0  0  0  0  0
    4.1930   -2.3740   26.0050 C   0  0  0  0  0  0  0  0  0  0  0  0
    3.1170   -1.4660   26.0140 C   0  0  0  0  0  0  0  0  0  0  0  0
    1.7620   -1.7740   25.9130 C   0  0  0  0  0  0  0  0  0  0  0  0
    1.2860   -3.0600   25.7840 C   0  0  0  0  0  0  0  0  0  0  0  0
    6.5940   -5.1040   21.7050 N   0  0  0  0  0  0  0  0  0  0  0  0
    7.2560   -4.3950   22.6260 C   0  0  0  0  0  0  0  0  0  0  0  0
    7.0550   -4.6880   23.9700 C   0  0  0  0  0  0  0  0  0  0  0  0
    5.6350   -5.0840   24.2560 N   0  0  0  0  0  0  0  0  0  0  0  0
    4.8930   -5.8200   23.1800 C   0  0  0  0  0  0  0  0  0  0  0  0
    5.7940   -6.0880   22.1530 C   0  0  0  0  0  0  0  0  0  0  0  0
   12.8610   -1.5900   22.6560 N   0  0  0  0  0  0  0  0  0  0  0  0
   11.6190   -1.9030   21.9170 C   0  0  0  0  0  0  0  0  0  0  0  0
   10.4320   -1.9550   22.8190 C   0  0  0  0  0  0  0  0  0  0  0  0
   10.8210   -1.6990   24.0820 C   0  0  0  0  0  0  0  0  0  0  0  0
   12.5020   -1.4110   24.2520 S   0  0  0  0  0  0  0  0  0  0  0  0
    6.3510   -0.8960   18.7060 C   0  0  0  0  0  0  0  0  0  0  0  0
    5.7560    0.1970   18.0540 C   0  0  0  0  0  0  0  0  0  0  0  0
    5.5160    1.4060   18.6380 C   0  0  0  0  0  0  0  0  0  0  0  0
    5.8770    1.5800   19.9480 C   0  0  0  0  0  0  0  0  0  0  0  0
    6.4830    0.5450   20.6930 C   0  0  0  0  0  0  0  0  0  0  0  0
    6.7320   -0.7470   20.0600 C   0  0  0  0  0  0  0  0  0  0  0  0
  3  4  2  0
  4  5  1  0
  1  8  2  0
  2  8  2  0
  5 10  2  3
  9 10  1  0
  9 11  1  0
 12 14  1  0
 13 15  3  0
 14 15  1  0
  6 16  1  0
  8 17  1  0
 16 17  2  0
  7 18  1  0
 17 18  1  0
 18 19  2  0
 19 20  1  0
 16 21  1  0
 20 21  2  0
  4 22  1  0
 22 23  1  0
 23 24  1  0
  8 25  1  0
 24 25  1  0
 25 26  1  0
 22 27  1  0
 26 27  1  0
 28 29  2  0
 11 30  1  0
 29 30  1  0
 30 31  2  0
 28 32  1  0
 31 32  1  0
 33 34  2  0
 34 35  1  0
 35 36  2  0
 12 37  1  0
 36 37  1  0
 10 38  1  0
 33 38  1  0
 37 38  2  0
M  END
