x0759-x2608
     RDKit          3D

 26 29  0  0  0  0  0  0  0  0999 V2000
    5.6170   -4.2490   19.9050 O   0  0  0  0  0  0  0  0  0  0  0  0
    6.5620   -3.4630   20.2110 C   0  0  0  0  0  0  0  0  0  0  0  0
    7.4110   -3.0080   19.0380 C   0  0  0  0  0  0  0  0  0  0  0  0
   12.6660    0.9270   23.8180 F   0  0  0  0  0  0  0  0  0  0  0  0
    8.6190   -1.0810   21.9610 N   0  0  0  0  0  0  0  0  0  0  0  0
    8.6180    1.1680   20.8860 O   0  0  0  0  0  0  0  0  0  0  0  0
    6.7540   -0.4960   20.8200 N   0  0  0  0  0  0  0  0  0  0  0  0
    8.0720   -0.0510   21.1920 C   0  0  0  0  0  0  0  0  0  0  0  0
    6.8810   -3.0360   21.5620 N   0  0  0  0  0  0  0  0  0  0  0  0
    8.0070   -2.3550   22.0680 C   0  0  0  0  0  0  0  0  0  0  0  0
    8.8010   -3.1740   23.0010 C   0  0  0  0  0  0  0  0  0  0  0  0
    8.5470   -4.3090   23.3440 O   0  0  0  0  0  0  0  0  0  0  0  0
    7.5240   -4.7640   22.8250 C   0  0  0  0  0  0  0  0  0  0  0  0
    6.3940   -3.9370   22.5850 C   0  0  0  0  0  0  0  0  0  0  0  0
   11.0780   -2.3310   24.2280 C   0  0  0  0  0  0  0  0  0  0  0  0
   11.9890   -1.2740   24.3820 C   0  0  0  0  0  0  0  0  0  0  0  0
   11.8040   -0.0730   23.6880 C   0  0  0  0  0  0  0  0  0  0  0  0
   10.6960    0.0600   22.8570 C   0  0  0  0  0  0  0  0  0  0  0  0
    9.8310   -1.0410   22.7620 C   0  0  0  0  0  0  0  0  0  0  0  0
    9.9720   -2.2360   23.4010 C   0  0  0  0  0  0  0  0  0  0  0  0
    6.0350    1.0470   17.4360 N   0  0  0  0  0  0  0  0  0  0  0  0
    6.7580    0.1660   18.4730 C   0  0  0  0  0  0  0  0  0  0  0  0
    6.1270    0.2400   19.8230 C   0  0  0  0  0  0  0  0  0  0  0  0
    4.8870    1.0500   20.2430 C   0  0  0  0  0  0  0  0  0  0  0  0
    4.2620    1.8900   19.1180 C   0  0  0  0  0  0  0  0  0  0  0  0
    4.8380    1.8630   17.8340 C   0  0  0  0  0  0  0  0  0  0  0  0
  1  2  2  0
  2  3  1  0
  5  8  1  0
  6  8  2  0
  7  8  1  0
  2  9  1  0
  5 10  1  0
  9 10  1  0
 10 11  2  0
 11 12  1  0
 12 13  1  0
  9 14  1  0
 13 14  1  0
 15 16  1  0
  4 17  1  0
 16 17  2  0
 17 18  1  0
  5 19  1  0
 18 19  2  0
 11 20  1  0
 15 20  2  0
 19 20  1  0
 21 22  2  0
  7 23  1  0
 22 23  1  0
 23 24  2  0
 24 25  1  0
 21 26  1  0
 25 26  2  0
M  END
