x0755-x2908
     RDKit          3D

 41 44  0  0  0  0  0  0  0  0999 V2000
    4.6520   -6.3060   26.4270 O   0  0  0  0  0  0  0  0  0  0  0  0
    6.3270   -4.4730   26.8530 O   0  0  0  0  0  0  0  0  0  0  0  0
    5.5790   -5.2710   19.9830 O   0  0  0  0  0  0  0  0  0  0  0  0
    6.3760   -4.5410   20.5360 C   0  0  0  0  0  0  0  0  0  0  0  0
    7.1820   -3.5060   19.7400 C   0  0  0  0  0  0  0  0  0  0  0  0
    2.0720   -5.4550   25.7380 F   0  0  0  0  0  0  0  0  0  0  0  0
    5.5610   -2.0670   26.2370 F   0  0  0  0  0  0  0  0  0  0  0  0
    5.2300   -5.0220   26.0900 S   0  0  0  0  0  0  0  0  0  0  0  0
    2.4810   -4.1840   25.8340 C   0  0  0  0  0  0  0  0  0  0  0  0
    3.9670   -3.8170   26.0030 C   0  0  0  0  0  0  0  0  0  0  0  0
    4.2950   -2.4780   26.0900 C   0  0  0  0  0  0  0  0  0  0  0  0
    3.1810   -1.4280   26.0220 C   0  0  0  0  0  0  0  0  0  0  0  0
    1.8520   -1.8300   25.8720 C   0  0  0  0  0  0  0  0  0  0  0  0
    1.5090   -3.1820   25.7780 C   0  0  0  0  0  0  0  0  0  0  0  0
    6.3780   -4.7370   22.0500 C   0  0  0  0  0  0  0  0  0  0  0  0
    7.4990   -4.9600   22.8220 C   0  0  0  0  0  0  0  0  0  0  0  0
    7.2300   -4.9930   24.2030 C   0  0  0  0  0  0  0  0  0  0  0  0
    5.7430   -5.0960   24.4720 N   0  0  0  0  0  0  0  0  0  0  0  0
    4.9630   -6.0310   23.6550 C   0  0  0  0  0  0  0  0  0  0  0  0
    5.5510   -6.0210   22.2750 C   0  0  0  0  0  0  0  0  0  0  0  0
    4.5150    1.4270   21.4500 C   0  0  0  0  0  0  0  0  0  0  0  0
    8.6050    1.3700   21.0150 O   0  0  0  0  0  0  0  0  0  0  0  0
   13.3710   -2.4020   22.5700 Cl  0  0  0  0  0  0  0  0  0  0  0  0
    6.9370   -0.2340   21.1850 N   0  0  0  0  0  0  0  0  0  0  0  0
    8.9240   -0.3670   22.3560 N   0  0  0  0  0  0  0  0  0  0  0  0
    8.1560    0.3070   21.4900 C   0  0  0  0  0  0  0  0  0  0  0  0
    5.6470   -2.2600   21.6820 C   0  0  0  0  0  0  0  0  0  0  0  0
    6.9830   -1.6950   21.2290 C   0  0  0  0  0  0  0  0  0  0  0  0
    6.3060    0.6180   17.6380 N   0  0  0  0  0  0  0  0  0  0  0  0
    6.8370    0.1000   18.7580 C   0  0  0  0  0  0  0  0  0  0  0  0
    6.3290    0.3150   20.0200 C   0  0  0  0  0  0  0  0  0  0  0  0
    5.1810    1.1090   20.1480 C   0  0  0  0  0  0  0  0  0  0  0  0
    4.6070    1.6590   18.9800 C   0  0  0  0  0  0  0  0  0  0  0  0
    5.2130    1.3830   17.7660 C   0  0  0  0  0  0  0  0  0  0  0  0
   10.7650    1.0810   22.9480 C   0  0  0  0  0  0  0  0  0  0  0  0
   12.1170    1.2440   23.1730 C   0  0  0  0  0  0  0  0  0  0  0  0
   12.9350    0.1620   23.0530 C   0  0  0  0  0  0  0  0  0  0  0  0
   12.3980   -1.0630   22.7120 C   0  0  0  0  0  0  0  0  0  0  0  0
   11.0680   -1.2340   22.4820 C   0  0  0  0  0  0  0  0  0  0  0  0
   10.2470   -0.1520   22.6030 C   0  0  0  0  0  0  0  0  0  0  0  0
    5.6870   -3.4820   22.6010 C   0  0  0  0  0  0  0  0  0  0  0  0
  3  4  2  0
  4  5  1  0
  1  8  2  0
  2  8  2  0
  6  9  1  0
  8 10  1  0
  9 10  2  0
  7 11  1  0
 10 11  1  0
 11 12  2  0
 12 13  1  0
  9 14  1  0
 13 14  2  0
 15  4  1  0
 15 16  1  0
 16 17  1  0
  8 18  1  0
 17 18  1  0
 18 19  1  0
 15 20  1  0
 19 20  1  0
 22 26  2  0
 24 26  1  0
 25 26  1  0
 24 28  1  0
 27 28  1  0
 29 30  2  0
 24 31  1  0
 30 31  1  0
 21 32  1  0
 31 32  2  0
 32 33  1  0
 29 34  1  0
 33 34  2  0
 35 36  2  0
 36 37  1  0
 23 38  1  0
 37 38  2  0
 38 39  1  0
 25 40  1  0
 35 40  1  0
 39 40  2  0
 15 41  1  0
 27 41  1  0
M  END
