x0755-x1493
     RDKit          3D

 20 21  0  0  0  0  0  0  0  0999 V2000
    4.4920   -6.3870   26.1660 O   0  0  0  0  0  0  0  0  0  0  0  0
    6.1620   -4.6230   26.7690 O   0  0  0  0  0  0  0  0  0  0  0  0
    5.3010   -4.7850   19.9610 O   0  0  0  0  0  0  0  0  0  0  0  0
    6.3440   -4.5160   20.5410 C   0  0  0  0  0  0  0  0  0  0  0  0
    7.2360   -3.4540   19.8970 C   0  0  0  0  0  0  0  0  0  0  0  0
    1.9650   -5.4390   25.6710 F   0  0  0  0  0  0  0  0  0  0  0  0
    5.5660   -2.1590   26.0850 F   0  0  0  0  0  0  0  0  0  0  0  0
    5.1210   -5.1110   25.9000 S   0  0  0  0  0  0  0  0  0  0  0  0
    2.4090   -4.1820   25.7700 C   0  0  0  0  0  0  0  0  0  0  0  0
    3.9070   -3.8590   25.8830 C   0  0  0  0  0  0  0  0  0  0  0  0
    4.2810   -2.5320   25.9830 C   0  0  0  0  0  0  0  0  0  0  0  0
    3.1950   -1.4500   25.9820 C   0  0  0  0  0  0  0  0  0  0  0  0
    1.8520   -1.8100   25.8810 C   0  0  0  0  0  0  0  0  0  0  0  0
    1.4660   -3.1510   25.7740 C   0  0  0  0  0  0  0  0  0  0  0  0
    6.6400   -5.1840   21.7300 N   0  0  0  0  0  0  0  0  0  0  0  0
    7.4770   -4.5530   22.7690 C   0  0  0  0  0  0  0  0  0  0  0  0
    6.6950   -4.0780   23.8310 C   0  0  0  0  0  0  0  0  0  0  0  0
    5.7900   -5.1700   24.3160 N   0  0  0  0  0  0  0  0  0  0  0  0
    4.9370   -5.7920   23.2600 C   0  0  0  0  0  0  0  0  0  0  0  0
    5.7660   -6.2480   22.2350 C   0  0  0  0  0  0  0  0  0  0  0  0
  3  4  2  0
  4  5  1  0
  1  8  2  0
  2  8  2  0
  6  9  1  0
  8 10  1  0
  9 10  2  0
  7 11  1  0
 10 11  1  0
 11 12  2  0
 12 13  1  0
  9 14  1  0
 13 14  2  0
  4 15  1  0
 15 16  1  0
 16 17  1  0
  8 18  1  0
 17 18  1  0
 18 19  1  0
 15 20  1  0
 19 20  1  0
M  END
