x0755-x1308
     RDKit          3D

 21 22  0  0  0  0  0  0  0  0999 V2000
    4.5520   -6.4150   26.1210 O   0  0  0  0  0  0  0  0  0  0  0  0
    6.1800   -4.6210   26.7210 O   0  0  0  0  0  0  0  0  0  0  0  0
    5.2860   -4.7430   19.9460 O   0  0  0  0  0  0  0  0  0  0  0  0
    6.3310   -4.4980   20.5290 C   0  0  0  0  0  0  0  0  0  0  0  0
    7.2540   -3.4520   19.9030 C   0  0  0  0  0  0  0  0  0  0  0  0
    2.0030   -5.5570   25.7140 F   0  0  0  0  0  0  0  0  0  0  0  0
    5.4820   -2.1480   26.1440 F   0  0  0  0  0  0  0  0  0  0  0  0
    5.1370   -5.1180   25.8620 S   0  0  0  0  0  0  0  0  0  0  0  0
    0.4790   -0.8360   26.2720 Cl  0  0  0  0  0  0  0  0  0  0  0  0
    2.3990   -4.2880   25.8620 C   0  0  0  0  0  0  0  0  0  0  0  0
    3.8850   -3.9090   25.9350 C   0  0  0  0  0  0  0  0  0  0  0  0
    4.2130   -2.5710   26.0790 C   0  0  0  0  0  0  0  0  0  0  0  0
    3.0800   -1.5400   26.1800 C   0  0  0  0  0  0  0  0  0  0  0  0
    1.7500   -1.9670   26.1240 C   0  0  0  0  0  0  0  0  0  0  0  0
    1.4170   -3.3080   25.9590 C   0  0  0  0  0  0  0  0  0  0  0  0
    6.6080   -5.1800   21.7100 N   0  0  0  0  0  0  0  0  0  0  0  0
    7.4840   -4.5800   22.7320 C   0  0  0  0  0  0  0  0  0  0  0  0
    6.7290   -4.0830   23.8010 C   0  0  0  0  0  0  0  0  0  0  0  0
    5.7640   -5.1310   24.2650 N   0  0  0  0  0  0  0  0  0  0  0  0
    4.8950   -5.7190   23.2090 C   0  0  0  0  0  0  0  0  0  0  0  0
    5.7150   -6.2330   22.2060 C   0  0  0  0  0  0  0  0  0  0  0  0
  3  4  2  0
  4  5  1  0
  1  8  2  0
  2  8  2  0
  6 10  1  0
  8 11  1  0
 10 11  2  0
  7 12  1  0
 11 12  1  0
 12 13  2  0
  9 14  1  0
 13 14  1  0
 10 15  1  0
 14 15  2  0
  4 16  1  0
 16 17  1  0
 17 18  1  0
  8 19  1  0
 18 19  1  0
 19 20  1  0
 16 21  1  0
 20 21  1  0
M  END
