x0752-x1249
     RDKit          3D

 33 36  0  0  0  0  0  0  0  0999 V2000
    7.1930   -5.5470   21.1820 N   0  0  0  0  0  0  0  0  0  0  0  0
    7.1910   -3.5480   19.6660 C   0  0  0  0  0  0  0  0  0  0  0  0
    5.3230   -4.9300   19.9840 O   0  0  0  0  0  0  0  0  0  0  0  0
    6.4790   -4.7320   20.2940 C   0  0  0  0  0  0  0  0  0  0  0  0
    6.6390   -5.5070   22.4380 C   0  0  0  0  0  0  0  0  0  0  0  0
    8.2560    0.4050   24.9190 N   0  0  0  0  0  0  0  0  0  0  0  0
    7.5780    1.3150   24.1790 C   0  0  0  0  0  0  0  0  0  0  0  0
    8.2000    2.4520   23.5460 O   0  0  0  0  0  0  0  0  0  0  0  0
    9.4880    0.9440   25.1740 C   0  0  0  0  0  0  0  0  0  0  0  0
   13.5260   -2.9740   20.6860 N   0  0  0  0  0  0  0  0  0  0  0  0
   12.9230   -2.0170   21.5620 C   0  0  0  0  0  0  0  0  0  0  0  0
    3.1650   -0.9490   25.5700 C   0  0  0  0  0  0  0  0  0  0  0  0
    2.9870   -2.4470   25.2240 C   0  0  0  0  0  0  0  0  0  0  0  0
    4.1500   -3.0220   24.5220 C   0  0  0  0  0  0  0  0  0  0  0  0
    3.7130   -4.4710   24.2810 C   0  0  0  0  0  0  0  0  0  0  0  0
    2.3990   -4.6210   24.8540 O   0  0  0  0  0  0  0  0  0  0  0  0
    2.0090   -3.4110   25.3960 C   0  0  0  0  0  0  0  0  0  0  0  0
    5.7080   -4.8550   23.1860 C   0  0  0  0  0  0  0  0  0  0  0  0
    4.5460   -5.4380   23.5800 C   0  0  0  0  0  0  0  0  0  0  0  0
    5.3630   -2.4270   24.1440 C   0  0  0  0  0  0  0  0  0  0  0  0
    6.1000   -3.3770   23.4790 C   0  0  0  0  0  0  0  0  0  0  0  0
    3.3430    0.9670   24.0390 O   0  0  0  0  0  0  0  0  0  0  0  0
    4.0860    1.7440   23.0660 C   0  0  0  0  0  0  0  0  0  0  0  0
    5.5140    1.2360   22.8380 C   0  0  0  0  0  0  0  0  0  0  0  0
    6.2340    1.0400   24.1040 N   0  0  0  0  0  0  0  0  0  0  0  0
    5.4330    0.4220   25.1660 C   0  0  0  0  0  0  0  0  0  0  0  0
    4.0810   -0.1270   24.6320 C   0  0  1  0  0  0  0  0  0  0  0  0
   11.6750    0.9400   23.8160 C   0  0  0  0  0  0  0  0  0  0  0  0
   12.5360    0.2570   22.9450 C   0  0  0  0  0  0  0  0  0  0  0  0
   12.1570   -1.1450   22.4820 C   0  0  0  0  0  0  0  0  0  0  0  0
   10.9800   -1.7260   22.9260 C   0  0  0  0  0  0  0  0  0  0  0  0
   10.1610   -1.0410   23.7780 C   0  0  0  0  0  0  0  0  0  0  0  0
   10.4870    0.3070   24.2420 C   0  0  0  0  0  0  0  0  0  0  0  0
  1  4  1  0
  2  4  1  0
  3  4  2  0
  1  5  1  0
  6  7  1  0
  7  8  2  0
  6  9  1  0
 10 11  3  0
 12 13  1  0
 13 14  1  0
 14 15  2  0
 15 16  1  0
 13 17  2  0
 16 17  1  0
  5 18  1  0
 15 19  1  0
 18 19  2  0
 14 20  1  0
 18 21  1  0
 20 21  2  0
 22 23  1  0
 23 24  1  0
  7 25  1  0
 24 25  1  0
 25 26  1  0
 27 12  1  1
 22 27  1  0
 26 27  1  0
 28 29  2  0
 11 30  1  0
 29 30  1  0
 30 31  2  0
 31 32  1  0
  9 33  1  0
 28 33  1  0
 32 33  2  0
M  END
