x0755-x3113-x3110-x1077
     RDKit          3D

 56 61  0  0  0  0  0  0  0  0999 V2000
    8.0990    1.4290   23.3300 N   0  0  0  0  0  0  0  0  0  0  0  0
   13.4180    5.1980   22.9210 C   0  0  0  0  0  0  0  0  0  0  0  0
   12.0400    3.3030   22.4000 O   0  0  0  0  0  0  0  0  0  0  0  0
   12.5120    4.5520   21.8910 C   0  0  0  0  0  0  0  0  0  0  0  0
    7.6090   -1.3620   21.5510 N   0  0  0  0  0  0  0  0  0  0  0  0
   11.0510    4.3800   24.1510 O   0  0  0  0  0  0  0  0  0  0  0  0
   11.1840    3.3990   23.4430 C   0  0  0  0  0  0  0  0  0  0  0  0
    8.7750    1.6280   21.0810 O   0  0  0  0  0  0  0  0  0  0  0  0
   10.3780    2.0810   23.6190 C   0  0  0  0  0  0  0  0  0  0  0  0
    8.9220    2.4260   23.7830 C   0  0  0  0  0  0  0  0  0  0  0  0
    8.0470    1.0810   21.9100 C   0  0  0  0  0  0  0  0  0  0  0  0
    7.0070    0.0160   21.5870 C   0  0  1  0  0  0  0  0  0  0  0  0
   12.3630   -1.8710   24.2720 C   0  0  0  0  0  0  0  0  0  0  0  0
   12.6030   -0.6530   25.1140 C   0  0  0  0  0  0  0  0  0  0  0  0
   13.4650   -2.0810   23.2260 C   0  0  0  0  0  0  0  0  0  0  0  0
   12.2500   -3.1260   25.1280 C   0  0  0  0  0  0  0  0  0  0  0  0
    6.3030    0.2970   17.8250 N   0  0  0  0  0  0  0  0  0  0  0  0
    5.2450    1.1140   17.8700 C   0  0  0  0  0  0  0  0  0  0  0  0
    4.6970    1.5990   19.0270 C   0  0  0  0  0  0  0  0  0  0  0  0
    5.2610    1.2400   20.2470 C   0  0  0  0  0  0  0  0  0  0  0  0
    6.3730    0.3930   20.2760 C   0  0  0  0  0  0  0  0  0  0  0  0
    6.9160   -0.1020   19.0980 C   0  0  0  0  0  0  0  0  0  0  0  0
    9.8770   -1.1910   21.7610 C   0  0  0  0  0  0  0  0  0  0  0  0
   11.0930   -1.2710   22.3160 C   0  0  0  0  0  0  0  0  0  0  0  0
   11.0530   -1.7570   23.5520 C   0  0  0  0  0  0  0  0  0  0  0  0
    9.8830   -2.1530   24.1940 C   0  0  0  0  0  0  0  0  0  0  0  0
    8.5170   -2.1310   23.7060 C   0  0  0  0  0  0  0  0  0  0  0  0
    8.7180   -1.5820   22.4030 C   0  0  0  0  0  0  0  0  0  0  0  0
    3.9530   -6.4580   26.1540 O   0  0  0  0  0  0  0  0  0  0  0  0
    6.0560   -4.6280   25.9570 N   0  0  0  0  0  0  0  0  0  0  0  0
    5.6930   -4.6650   20.0080 O   0  0  0  0  0  0  0  0  0  0  0  0
    6.6830   -4.7040   20.7670 C   0  0  0  0  0  0  0  0  0  0  0  0
    7.9280   -3.8540   20.5240 C   0  0  0  0  0  0  0  0  0  0  0  0
    1.8070   -5.3080   25.6440 F   0  0  0  0  0  0  0  0  0  0  0  0
    5.4360   -2.0840   26.1420 F   0  0  0  0  0  0  0  0  0  0  0  0
    4.6670   -5.0850   25.6320 S   0  0  2  0  0  0  0  0  0  0  0  0
    7.1860   -5.2100   25.5100 N   0  0  0  0  0  0  0  0  0  0  0  0
    7.6900   -4.8440   24.2880 C   0  0  1  0  0  0  0  0  0  0  0  0
    8.8690   -5.3940   23.7830 C   0  0  0  0  0  0  0  0  0  0  0  0
    9.9250   -4.7480   24.4300 C   0  0  0  0  0  0  0  0  0  0  0  0
    9.5420   -3.8420   25.5120 N   0  0  0  0  0  0  0  0  0  0  0  0
    9.1830   -4.4960   26.6330 C   0  0  0  0  0  0  0  0  0  0  0  0
    8.0950   -5.3430   26.4870 C   0  0  0  0  0  0  0  0  0  0  0  0
    2.2420   -4.0570   25.8430 C   0  0  0  0  0  0  0  0  0  0  0  0
    3.5670   -3.7750   25.8790 C   0  0  0  0  0  0  0  0  0  0  0  0
    4.1290   -2.3780   26.1020 C   0  0  0  0  0  0  0  0  0  0  0  0
    3.0980   -1.2640   26.2840 C   0  0  0  0  0  0  0  0  0  0  0  0
    1.6620   -1.7440   26.2140 C   0  0  0  0  0  0  0  0  0  0  0  0
    1.2930   -3.0590   26.0070 C   0  0  0  0  0  0  0  0  0  0  0  0
    6.7070   -5.5690   21.8690 N   0  0  0  0  0  0  0  0  0  0  0  0
    6.6210   -5.0350   23.2110 C   0  0  2  0  0  0  0  0  0  0  0  0
    5.5910   -4.2060   23.3150 C   0  0  0  0  0  0  0  0  0  0  0  0
    4.6360   -5.1070   23.8920 N   0  0  0  0  0  0  0  0  0  0  0  0
    4.6390   -6.2730   23.1510 C   0  0  0  0  0  0  0  0  0  0  0  0
    5.6810   -6.5700   22.0000 C   0  0  0  0  0  0  0  0  0  0  0  0
    8.5810   -2.6980   25.1350 C   0  0  0  0  0  0  0  0  0  0  0  0
  2  4  1  0
  3  4  1  0
  3  7  1  0
  6  7  2  0
  7  9  1  0
  1 10  1  0
  9 10  1  0
  1 11  1  0
  8 11  2  0
 12  5  1  6
 11 12  1  0
 13 14  1  0
 13 15  1  0
 13 16  1  0
 17 18  2  0
 18 19  1  0
 19 20  2  0
 12 21  1  0
 20 21  1  0
 17 22  1  0
 21 22  2  0
 23 24  2  0
 13 25  1  0
 24 25  1  0
 25 26  2  0
 26 27  1  0
  5 28  1  0
 23 28  1  0
 27 28  2  0
 31 32  2  0
 32 33  1  0
 29 36  2  0
 30 36  2  0
 30 37  1  0
 37 38  1  0
 38 39  1  6
 39 40  1  0
 40 41  1  0
 41 42  1  0
 37 43  1  0
 42 43  1  0
 34 44  1  0
 36 45  1  1
 44 45  2  0
 35 46  1  0
 45 46  1  0
 46 47  2  0
 47 48  1  0
 44 49  1  0
 48 49  2  0
 32 50  1  0
 38 51  1  0
 51 50  1  6
 51 52  1  0
 36 53  1  0
 52 53  1  0
 53 54  1  0
 50 55  1  0
 54 55  1  0
 27 56  1  0
 41 56  1  0
M  END
