x0755-x3305
     RDKit          3D

 38 41  0  0  0  0  0  0  0  0999 V2000
    3.6580   -7.4380   24.2200 C   0  0  0  0  0  0  0  0  0  0  0  0
    5.9320   -3.3670   20.2830 C   0  0  0  0  0  0  0  0  0  0  0  0
    7.8090   -3.8840   21.8500 N   0  0  0  0  0  0  0  0  0  0  0  0
    7.3390   -1.8950   20.5510 N   0  0  0  0  0  0  0  0  0  0  0  0
    7.0150   -3.6110   22.9520 C   0  0  0  0  0  0  0  0  0  0  0  0
    7.4390   -3.3880   20.4730 C   0  0  2  0  0  0  0  0  0  0  0  0
    8.2430   -1.0910   21.4570 C   0  0  0  0  0  0  0  0  0  0  0  0
    9.4550   -1.9530   21.9000 C   0  0  0  0  0  0  0  0  0  0  0  0
    7.0550   -1.2920   19.2270 C   0  0  0  0  0  0  0  0  0  0  0  0
    5.2820   -4.3200   19.8320 O   0  0  0  0  0  0  0  0  0  0  0  0
    4.5490   -6.0470   26.5450 O   0  0  0  0  0  0  0  0  0  0  0  0
    6.2640   -4.2460   26.2850 O   0  0  0  0  0  0  0  0  0  0  0  0
    2.0880   -5.3300   25.7020 F   0  0  0  0  0  0  0  0  0  0  0  0
    5.4460   -2.0140   26.0880 F   0  0  0  0  0  0  0  0  0  0  0  0
    5.0260   -4.8650   25.8670 S   0  0  0  0  0  0  0  0  0  0  0  0
    4.5920   -6.5280   23.6250 N   0  0  0  0  0  0  0  0  0  0  0  0
    5.2500   -5.3820   24.1910 C   0  0  0  0  0  0  0  0  0  0  0  0
    6.1070   -4.7730   23.1030 C   0  0  0  0  0  0  0  0  0  0  0  0
    5.8720   -5.6390   22.0480 N   0  0  0  0  0  0  0  0  0  0  0  0
    5.0370   -6.6000   22.3460 N   0  0  0  0  0  0  0  0  0  0  0  0
    5.3970    1.8360   17.8880 N   0  0  0  0  0  0  0  0  0  0  0  0
    6.2520    0.8400   18.0940 C   0  0  0  0  0  0  0  0  0  0  0  0
    6.0840   -0.1250   19.0390 C   0  0  0  0  0  0  0  0  0  0  0  0
    4.9910   -0.0840   19.8710 C   0  0  0  0  0  0  0  0  0  0  0  0
    4.0900    0.9520   19.6920 C   0  0  0  0  0  0  0  0  0  0  0  0
    4.3360    1.8780   18.6890 C   0  0  0  0  0  0  0  0  0  0  0  0
   10.6110    0.1860   23.2080 C   0  0  0  0  0  0  0  0  0  0  0  0
   11.8180    0.7720   23.4950 C   0  0  0  0  0  0  0  0  0  0  0  0
   12.9690    0.1530   23.0050 C   0  0  0  0  0  0  0  0  0  0  0  0
   12.9580   -1.1160   22.1940 C   0  0  0  0  0  0  0  0  0  0  0  0
   11.7380   -1.6490   21.9420 C   0  0  0  0  0  0  0  0  0  0  0  0
   10.5830   -1.0320   22.4210 C   0  0  0  0  0  0  0  0  0  0  0  0
    2.4690   -4.0500   25.8080 C   0  0  0  0  0  0  0  0  0  0  0  0
    3.8010   -3.6890   25.8940 C   0  0  0  0  0  0  0  0  0  0  0  0
    4.1560   -2.3630   26.0030 C   0  0  0  0  0  0  0  0  0  0  0  0
    3.2000   -1.3380   26.0320 C   0  0  0  0  0  0  0  0  0  0  0  0
    1.7960   -1.5820   25.9520 C   0  0  0  0  0  0  0  0  0  0  0  0
    1.4680   -3.0900   25.8300 C   0  0  0  0  0  0  0  0  0  0  0  0
  3  5  1  0
  6  2  1  1
  3  6  1  0
  4  6  1  0
  4  7  1  0
  7  8  1  0
  4  9  1  0
  2 10  2  0
 11 15  2  0
 12 15  2  0
  1 16  1  0
 15 17  1  0
 16 17  1  0
  5 18  1  0
 17 18  2  0
 18 19  1  0
 16 20  1  0
 19 20  2  0
 21 22  2  0
  9 23  1  0
 22 23  1  0
 23 24  2  0
 24 25  1  0
 21 26  1  0
 25 26  2  0
 27 28  2  0
 28 29  1  0
 29 30  2  0
 30 31  1  0
  8 32  1  0
 27 32  1  0
 31 32  2  0
 13 33  1  0
 15 34  1  0
 33 34  2  0
 14 35  1  0
 34 35  1  0
 35 36  2  0
 36 37  1  0
 33 38  1  0
 37 38  2  0
M  END
