x0755-x1351
     RDKit          3D

 28 30  0  0  0  0  0  0  0  0999 V2000
    4.4770   -6.3780   26.2210 O   0  0  0  0  0  0  0  0  0  0  0  0
    6.2230   -4.6600   26.7300 O   0  0  0  0  0  0  0  0  0  0  0  0
    5.5790   -4.5420   19.9470 O   0  0  0  0  0  0  0  0  0  0  0  0
    6.5950   -4.5700   20.6590 C   0  0  0  0  0  0  0  0  0  0  0  0
    7.7740   -3.6600   20.3370 C   0  0  0  0  0  0  0  0  0  0  0  0
    2.1860   -5.5340   25.6220 F   0  0  0  0  0  0  0  0  0  0  0  0
    5.4870   -1.7650   26.1500 N   0  0  0  0  0  0  0  0  0  0  0  0
    5.1350   -5.1280   25.8960 S   0  0  0  0  0  0  0  0  0  0  0  0
    7.6410   -2.7860   26.2920 O   0  0  0  0  0  0  0  0  0  0  0  0
    6.6440   -2.3860   25.6750 C   0  0  0  0  0  0  0  0  0  0  0  0
    2.5560   -4.2520   25.7380 C   0  0  0  0  0  0  0  0  0  0  0  0
    3.8900   -3.8820   25.8720 C   0  0  0  0  0  0  0  0  0  0  0  0
    4.2030   -2.3820   26.0000 C   0  0  0  0  0  0  0  0  0  0  0  0
    3.1380   -1.4850   25.9740 C   0  0  0  0  0  0  0  0  0  0  0  0
    1.8290   -1.9380   25.8400 C   0  0  0  0  0  0  0  0  0  0  0  0
    1.5450   -3.2900   25.7230 C   0  0  0  0  0  0  0  0  0  0  0  0
    6.7100   -5.4220   21.7540 N   0  0  0  0  0  0  0  0  0  0  0  0
    7.6100   -5.1800   22.8870 C   0  0  0  0  0  0  0  0  0  0  0  0
    6.9370   -4.5000   23.9050 C   0  0  0  0  0  0  0  0  0  0  0  0
    5.7410   -5.2840   24.3290 N   0  0  0  0  0  0  0  0  0  0  0  0
    4.8170   -5.6920   23.2790 C   0  0  0  0  0  0  0  0  0  0  0  0
    5.5900   -6.2750   22.0960 C   0  0  0  0  0  0  0  0  0  0  0  0
    7.0000   -0.5480   28.5290 C   0  0  0  0  0  0  0  0  0  0  0  0
    7.0520    0.8550   28.9520 C   0  0  0  0  0  0  0  0  0  0  0  0
    6.2610    1.7200   28.0840 C   0  0  0  0  0  0  0  0  0  0  0  0
    5.5310    1.0950   26.9200 C   0  0  0  0  0  0  0  0  0  0  0  0
    5.4250   -0.3980   26.4030 C   0  0  0  0  0  0  0  0  0  0  0  0
    6.2730   -1.0080   27.4190 C   0  0  0  0  0  0  0  0  0  0  0  0
  3  4  2  0
  4  5  1  0
  1  8  2  0
  2  8  2  0
  7 10  1  0
  9 10  2  0
  6 11  1  0
  8 12  1  0
 11 12  2  0
  7 13  1  0
 12 13  1  0
 13 14  2  0
 14 15  1  0
 11 16  1  0
 15 16  2  0
  4 17  1  0
 17 18  1  0
 18 19  1  0
  8 20  1  0
 19 20  1  0
 20 21  1  0
 17 22  1  0
 21 22  1  0
 23 24  2  0
 24 25  1  0
 25 26  2  0
  7 27  1  0
 26 27  1  0
 23 28  1  0
 27 28  2  0
M  END
