x0755-x2964
     RDKit          3D

 41 44  0  0  0  0  0  0  0  0999 V2000
    4.6470   -6.3120   26.4290 O   0  0  0  0  0  0  0  0  0  0  0  0
    6.3250   -4.4810   26.8500 O   0  0  0  0  0  0  0  0  0  0  0  0
    5.5520   -5.2740   19.9770 O   0  0  0  0  0  0  0  0  0  0  0  0
    6.3450   -4.5380   20.5270 C   0  0  0  0  0  0  0  0  0  0  0  0
    7.1400   -3.5010   19.7230 C   0  0  0  0  0  0  0  0  0  0  0  0
    2.0690   -5.4540   25.7280 F   0  0  0  0  0  0  0  0  0  0  0  0
    5.5610   -2.0720   26.2500 F   0  0  0  0  0  0  0  0  0  0  0  0
    5.2250   -5.0290   26.0900 S   0  0  0  0  0  0  0  0  0  0  0  0
    2.4790   -4.1860   25.8290 C   0  0  0  0  0  0  0  0  0  0  0  0
    3.9660   -3.8190   26.0040 C   0  0  0  0  0  0  0  0  0  0  0  0
    4.2950   -2.4820   26.0980 C   0  0  0  0  0  0  0  0  0  0  0  0
    3.1840   -1.4290   26.0290 C   0  0  0  0  0  0  0  0  0  0  0  0
    1.8530   -1.8300   25.8730 C   0  0  0  0  0  0  0  0  0  0  0  0
    1.5120   -3.1790   25.7740 C   0  0  0  0  0  0  0  0  0  0  0  0
    6.3500   -4.7390   22.0430 C   0  0  0  0  0  0  0  0  0  0  0  0
    7.4790   -4.9400   22.8100 C   0  0  0  0  0  0  0  0  0  0  0  0
    7.2150   -4.9860   24.1920 C   0  0  0  0  0  0  0  0  0  0  0  0
    5.7340   -5.1030   24.4680 N   0  0  0  0  0  0  0  0  0  0  0  0
    4.9580   -6.0440   23.6510 C   0  0  0  0  0  0  0  0  0  0  0  0
    5.5550   -6.0410   22.2710 C   0  0  0  0  0  0  0  0  0  0  0  0
    3.2520    2.2300   19.1060 N   0  0  0  0  0  0  0  0  0  0  0  0
    8.7240    1.6730   21.1150 O   0  0  0  0  0  0  0  0  0  0  0  0
   13.3710   -2.2940   22.4140 Cl  0  0  0  0  0  0  0  0  0  0  0  0
    7.1790   -0.1780   21.2260 N   0  0  0  0  0  0  0  0  0  0  0  0
    9.0140    0.0100   22.6240 N   0  0  0  0  0  0  0  0  0  0  0  0
    8.3440    0.6080   21.6170 C   0  0  0  0  0  0  0  0  0  0  0  0
    5.7430   -2.2120   21.7440 C   0  0  0  0  0  0  0  0  0  0  0  0
    7.1380   -1.6160   21.5470 C   0  0  0  0  0  0  0  0  0  0  0  0
    4.5230    1.4910   19.0550 C   0  0  0  0  0  0  0  0  0  0  0  0
    5.2310    0.9910   20.2950 C   0  0  0  0  0  0  0  0  0  0  0  0
    6.4190    0.3100   20.1260 C   0  0  0  0  0  0  0  0  0  0  0  0
    6.8810    0.1160   18.8210 C   0  0  0  0  0  0  0  0  0  0  0  0
    6.2800    0.5500   17.7040 N   0  0  0  0  0  0  0  0  0  0  0  0
    5.1330    1.2220   17.8530 C   0  0  0  0  0  0  0  0  0  0  0  0
   10.9430    1.2920   22.8800 C   0  0  0  0  0  0  0  0  0  0  0  0
   12.3160    1.4540   22.9480 C   0  0  0  0  0  0  0  0  0  0  0  0
   13.0890    0.3280   22.8010 C   0  0  0  0  0  0  0  0  0  0  0  0
   12.4960   -0.8940   22.5960 C   0  0  0  0  0  0  0  0  0  0  0  0
   11.1520   -1.0480   22.5300 C   0  0  0  0  0  0  0  0  0  0  0  0
   10.3780    0.0480   22.6750 C   0  0  0  0  0  0  0  0  0  0  0  0
    5.6390   -3.4890   22.5800 C   0  0  0  0  0  0  0  0  0  0  0  0
  3  4  2  0
  4  5  1  0
  1  8  2  0
  2  8  2  0
  6  9  1  0
  8 10  1  0
  9 10  2  0
  7 11  1  0
 10 11  1  0
 11 12  2  0
 12 13  1  0
  9 14  1  0
 13 14  2  0
 15  4  1  0
 15 16  1  0
 16 17  1  0
  8 18  1  0
 17 18  1  0
 18 19  1  0
 15 20  1  0
 19 20  1  0
 22 26  2  0
 24 26  1  0
 25 26  1  0
 24 28  1  0
 27 28  1  0
 21 29  1  0
 29 30  2  0
 24 31  1  0
 30 31  1  0
 31 32  2  0
 32 33  1  0
 29 34  1  0
 33 34  2  0
 35 36  2  0
 36 37  1  0
 23 38  1  0
 37 38  2  0
 38 39  1  0
 25 40  1  0
 35 40  1  0
 39 40  2  0
 15 41  1  0
 27 41  1  0
M  END
