x0755-x0752
     RDKit          3D

 21 22  0  0  0  0  0  0  0  0999 V2000
    4.2980   -6.4040   26.2860 O   0  0  0  0  0  0  0  0  0  0  0  0
    5.9950   -4.7220   27.0430 O   0  0  0  0  0  0  0  0  0  0  0  0
    5.3330   -4.2650   19.8080 O   0  0  0  0  0  0  0  0  0  0  0  0
    6.5160   -4.0620   20.0850 C   0  0  0  0  0  0  0  0  0  0  0  0
    7.4000   -3.2400   19.1980 C   0  0  0  0  0  0  0  0  0  0  0  0
    1.8360   -5.3910   25.7940 F   0  0  0  0  0  0  0  0  0  0  0  0
    5.4880   -2.1740   26.2390 F   0  0  0  0  0  0  0  0  0  0  0  0
    4.9670   -5.1330   26.1160 S   0  0  0  0  0  0  0  0  0  0  0  0
    7.1620   -4.6210   21.1500 N   0  0  0  0  0  0  0  0  0  0  0  0
    2.3020   -4.1410   25.8770 C   0  0  0  0  0  0  0  0  0  0  0  0
    3.7960   -3.8470   26.0320 C   0  0  0  0  0  0  0  0  0  0  0  0
    4.2030   -2.5270   26.1070 C   0  0  0  0  0  0  0  0  0  0  0  0
    3.1430   -1.4200   26.0370 C   0  0  0  0  0  0  0  0  0  0  0  0
    1.7960   -1.7570   25.9020 C   0  0  0  0  0  0  0  0  0  0  0  0
    1.3840   -3.0890   25.8200 C   0  0  0  0  0  0  0  0  0  0  0  0
    6.5990   -4.8660   22.3570 N   0  0  0  0  0  0  0  0  0  0  0  0
    7.6380   -5.1990   23.3070 C   0  0  0  0  0  0  0  0  0  0  0  0
    7.1620   -4.9900   24.5790 C   0  0  0  0  0  0  0  0  0  0  0  0
    5.6770   -5.1400   24.6060 N   0  0  0  0  0  0  0  0  0  0  0  0
    5.0630   -5.8930   23.6430 C   0  0  0  0  0  0  0  0  0  0  0  0
    5.5780   -5.9000   22.3600 C   0  0  0  0  0  0  0  0  0  0  0  0
  3  4  2  0
  4  5  1  0
  1  8  2  0
  2  8  2  0
  4  9  1  0
  6 10  1  0
  8 11  1  0
 10 11  2  0
  7 12  1  0
 11 12  1  0
 12 13  2  0
 13 14  1  0
 10 15  1  0
 14 15  2  0
  9 16  1  0
 16 17  1  0
 17 18  1  0
  8 19  1  0
 18 19  1  0
 19 20  1  0
 16 21  1  0
 20 21  1  0
M  END
