x0752-x1458
     RDKit          3D

 21 22  0  0  0  0  0  0  0  0999 V2000
    7.3230   -3.5720   26.5420 N   0  0  0  0  0  0  0  0  0  0  0  0
    9.1210   -4.7020   27.5010 C   0  0  0  0  0  0  0  0  0  0  0  0
    5.0400   -3.3510   26.0870 N   0  0  0  0  0  0  0  0  0  0  0  0
    7.7380   -4.7550   26.9040 C   0  0  0  0  0  0  0  0  0  0  0  0
    5.2670   -4.5110   19.8730 O   0  0  0  0  0  0  0  0  0  0  0  0
    6.8290   -5.5680   27.8650 C   0  0  0  0  0  0  0  0  0  0  0  0
    7.0470   -2.6680   27.6560 C   0  0  0  0  0  0  0  0  0  0  0  0
    6.3200   -3.6840   25.6080 C   0  0  0  0  0  0  0  0  0  0  0  0
    6.3480   -4.0650   20.2370 C   0  0  0  0  0  0  0  0  0  0  0  0
    7.2310   -3.2850   19.2740 C   0  0  0  0  0  0  0  0  0  0  0  0
    6.8310   -4.2890   21.5150 N   0  0  0  0  0  0  0  0  0  0  0  0
    7.7230   -3.3630   22.0540 C   0  0  0  0  0  0  0  0  0  0  0  0
    7.1910   -2.8890   23.4000 C   0  0  0  0  0  0  0  0  0  0  0  0
    6.7830   -4.1640   24.1720 C   0  0  0  0  0  0  0  0  0  0  0  0
    5.9830   -5.0090   23.4520 C   0  0  0  0  0  0  0  0  0  0  0  0
    6.5610   -5.3880   22.2460 C   0  0  0  0  0  0  0  0  0  0  0  0
    3.7420   -3.3370   25.4940 C   0  0  0  0  0  0  0  0  0  0  0  0
    4.2610   -4.5780   25.0970 C   0  0  0  0  0  0  0  0  0  0  0  0
    3.5560   -5.4310   24.3320 C   0  0  0  0  0  0  0  0  0  0  0  0
    2.4080   -4.8850   24.0890 O   0  0  0  0  0  0  0  0  0  0  0  0
    2.5390   -3.6380   24.7870 C   0  0  0  0  0  0  0  0  0  0  0  0
  1  4  1  0
  2  4  1  0
  4  6  1  0
  1  7  1  0
  1  8  1  0
  3  8  2  3
  5  9  2  0
  9 10  1  0
  9 11  1  0
 11 12  1  0
 12 13  1  0
  8 14  1  0
 13 14  1  0
 14 15  1  0
 11 16  1  0
 15 16  1  0
  3 17  1  0
 17 18  1  0
 18 19  2  0
 19 20  1  0
 17 21  2  0
 20 21  1  0
M  END
