x0759-x0305
     RDKit          3D

 21 22  0  0  0  0  0  0  0  0999 V2000
    5.3570   -4.2880   19.8250 O   0  0  0  0  0  0  0  0  0  0  0  0
    6.2850   -3.5290   20.1310 C   0  0  0  0  0  0  0  0  0  0  0  0
    7.2050   -3.0270   19.0200 C   0  0  0  0  0  0  0  0  0  0  0  0
   12.9820    0.4770   23.8660 F   0  0  0  0  0  0  0  0  0  0  0  0
    9.0470   -0.0630   26.7580 C   0  0  0  0  0  0  0  0  0  0  0  0
    8.4930   -0.3720   25.3610 C   0  0  1  0  0  0  0  0  0  0  0  0
    7.9420    0.7850   24.9330 N   0  0  0  0  0  0  0  0  0  0  0  0
   12.9920   -1.3660   21.6320 C   0  0  0  0  0  0  0  0  0  0  0  0
   13.8950   -1.5210   20.5530 N   0  0  0  0  0  0  0  0  0  0  0  0
    6.5070   -3.1680   21.4720 N   0  0  0  0  0  0  0  0  0  0  0  0
    7.2720   -2.1060   21.9400 C   0  0  0  0  0  0  0  0  0  0  0  0
    8.2900   -2.6430   22.7430 C   0  0  2  0  0  0  0  0  0  0  0  0
    7.8380   -3.4920   23.7940 O   0  0  0  0  0  0  0  0  0  0  0  0
    6.9790   -4.5250   23.3240 C   0  0  0  0  0  0  0  0  0  0  0  0
    6.0390   -4.0040   22.4200 C   0  0  0  0  0  0  0  0  0  0  0  0
    9.5470   -0.7860   24.2940 C   0  0  0  0  0  0  0  0  0  0  0  0
   10.7400   -0.0750   24.4770 C   0  0  0  0  0  0  0  0  0  0  0  0
   11.8760   -0.2260   23.6550 C   0  0  0  0  0  0  0  0  0  0  0  0
   11.8740   -1.0990   22.6060 C   0  0  0  0  0  0  0  0  0  0  0  0
   10.6640   -1.8960   22.3250 C   0  0  0  0  0  0  0  0  0  0  0  0
    9.4370   -1.7540   23.1850 C   0  0  0  0  0  0  0  0  0  0  0  0
  1  2  2  0
  2  3  1  0
  6  5  1  1
  6  7  1  0
  8  9  3  0
  2 10  1  0
 10 11  1  0
 11 12  1  0
 12 13  1  0
 13 14  1  0
 10 15  1  0
 14 15  1  0
  6 16  1  0
 16 17  2  0
  4 18  1  0
 17 18  1  0
  8 19  1  0
 18 19  2  0
 19 20  1  0
 12 21  1  1
 16 21  1  0
 20 21  2  0
M  END
