x0759-x1412
     RDKit          3D

 23 25  0  0  0  0  0  0  0  0999 V2000
    7.3190   -3.0140   18.7770 C   0  0  0  0  0  0  0  0  0  0  0  0
    5.3800   -4.0610   19.6740 O   0  0  0  0  0  0  0  0  0  0  0  0
    6.3820   -3.3750   19.8940 C   0  0  0  0  0  0  0  0  0  0  0  0
    8.1960   -1.6270   25.4050 O   0  0  0  0  0  0  0  0  0  0  0  0
    8.3370   -2.7760   24.9890 C   0  0  0  0  0  0  0  0  0  0  0  0
   13.3580    0.5800   23.3010 F   0  0  0  0  0  0  0  0  0  0  0  0
    6.7200   -2.9590   21.1870 N   0  0  0  0  0  0  0  0  0  0  0  0
    7.7150   -2.0090   21.4450 C   0  0  0  0  0  0  0  0  0  0  0  0
    8.2170   -1.9190   22.9160 C   0  0  1  0  0  0  0  0  0  0  0  0
    8.3390   -3.0780   23.6420 N   0  0  0  0  0  0  0  0  0  0  0  0
    7.5430   -4.1970   23.2010 C   0  0  0  0  0  0  0  0  0  0  0  0
    6.5450   -3.9750   22.0810 C   0  0  0  0  0  0  0  0  0  0  0  0
    9.3410   -4.9920   25.4520 C   0  0  0  0  0  0  0  0  0  0  0  0
    8.5170   -3.8880   25.8300 C   0  0  0  0  0  0  0  0  0  0  0  0
    7.7640   -4.0120   27.3920 S   0  0  0  0  0  0  0  0  0  0  0  0
    8.5570   -5.5700   27.5590 C   0  0  0  0  0  0  0  0  0  0  0  0
    9.3580   -6.0540   26.5610 C   0  0  0  0  0  0  0  0  0  0  0  0
    9.7450   -0.1550   23.9510 C   0  0  0  0  0  0  0  0  0  0  0  0
   10.9810    0.4480   24.0420 C   0  0  0  0  0  0  0  0  0  0  0  0
   12.1750    0.0160   23.2210 C   0  0  0  0  0  0  0  0  0  0  0  0
   11.8770   -1.0590   22.3670 C   0  0  0  0  0  0  0  0  0  0  0  0
   10.6120   -1.6700   22.2730 C   0  0  0  0  0  0  0  0  0  0  0  0
    9.5510   -1.2210   23.0580 C   0  0  0  0  0  0  0  0  0  0  0  0
  1  3  1  0
  2  3  2  0
  4  5  2  0
  3  7  1  0
  7  8  1  0
  8  9  1  0
  5 10  1  0
  9 10  1  0
 10 11  1  0
  7 12  1  0
 11 12  1  0
  5 14  1  0
 13 14  2  0
 14 15  1  0
 15 16  1  0
 13 17  1  0
 16 17  2  0
 18 19  2  0
  6 20  1  0
 19 20  1  0
 20 21  2  0
 21 22  1  0
  9 23  1  6
 18 23  1  0
 22 23  2  0
M  END
