x0759-x1308
     RDKit          3D

 31 34  0  0  0  0  0  0  0  0999 V2000
    7.1750   -3.5440   19.9030 C   0  0  0  0  0  0  0  0  0  0  0  0
    5.4720   -5.2230   20.0230 O   0  0  0  0  0  0  0  0  0  0  0  0
    0.8440   -1.2720   26.3220 Cl  0  0  0  0  0  0  0  0  0  0  0  0
    6.4080   -4.6680   20.5850 C   0  0  0  0  0  0  0  0  0  0  0  0
    6.3110   -5.1820   26.9720 O   0  0  0  0  0  0  0  0  0  0  0  0
    4.5860   -6.8830   26.2690 O   0  0  0  0  0  0  0  0  0  0  0  0
    5.2570   -5.6190   26.0860 S   0  0  0  0  0  0  0  0  0  0  0  0
   13.4220    0.1640   23.4140 F   0  0  0  0  0  0  0  0  0  0  0  0
    6.7670   -5.0580   21.8810 N   0  0  0  0  0  0  0  0  0  0  0  0
    7.0030   -4.0390   22.8590 C   0  0  1  0  0  0  0  0  0  0  0  0
    6.8930   -4.6220   24.2400 C   0  0  0  0  0  0  0  0  0  0  0  0
    5.9290   -5.6420   24.5520 N   0  0  0  0  0  0  0  0  0  0  0  0
    5.0820   -5.8950   23.4900 C   0  0  0  0  0  0  0  0  0  0  0  0
    6.0360   -6.1760   22.3380 C   0  0  0  0  0  0  0  0  0  0  0  0
    4.3980   -3.1290   26.4810 C   0  0  0  0  0  0  0  0  0  0  0  0
    3.3900   -2.1360   26.5370 C   0  0  0  0  0  0  0  0  0  0  0  0
    2.0660   -2.4750   26.2310 C   0  0  0  0  0  0  0  0  0  0  0  0
    1.7230   -3.7870   25.8570 C   0  0  0  0  0  0  0  0  0  0  0  0
    2.7340   -4.7580   25.8080 C   0  0  0  0  0  0  0  0  0  0  0  0
    4.0640   -4.4390   26.1220 C   0  0  0  0  0  0  0  0  0  0  0  0
    6.2970   -2.0360   21.5000 N   0  0  0  0  0  0  0  0  0  0  0  0
    7.6320   -1.4580   21.6380 C   0  0  0  0  0  0  0  0  0  0  0  0
    8.2800   -2.0710   22.8810 C   0  0  1  0  0  0  0  0  0  0  0  0
    8.3470   -3.4970   22.7390 O   0  0  0  0  0  0  0  0  0  0  0  0
    6.0280   -2.8510   22.6900 C   0  0  0  0  0  0  0  0  0  0  0  0
    9.8420   -0.5510   24.0530 C   0  0  0  0  0  0  0  0  0  0  0  0
   11.2450    0.0340   24.1560 C   0  0  0  0  0  0  0  0  0  0  0  0
   12.2230   -0.3710   23.2940 C   0  0  0  0  0  0  0  0  0  0  0  0
   11.9840   -1.3270   22.3000 C   0  0  0  0  0  0  0  0  0  0  0  0
   10.6860   -1.8680   22.1970 C   0  0  0  0  0  0  0  0  0  0  0  0
    9.6470   -1.4860   23.0490 C   0  0  0  0  0  0  0  0  0  0  0  0
  1  4  1  0
  2  4  2  0
  5  7  2  0
  6  7  2  0
  4  9  1  0
  9 10  1  0
 10 11  1  1
  7 12  1  0
 11 12  1  0
 12 13  1  0
  9 14  1  0
 13 14  1  0
 15 16  2  0
  3 17  1  0
 16 17  1  0
 17 18  2  0
 18 19  1  0
  7 20  1  0
 15 20  1  0
 19 20  2  0
 21 22  1  0
 22 23  1  0
 10 24  1  0
 23 24  1  0
 10 25  1  0
 21 25  1  0
 26 27  2  0
  8 28  1  0
 27 28  1  0
 28 29  2  0
 29 30  1  0
 23 31  1  6
 26 31  1  0
 30 31  2  0
M  END
