x0755-x2703
     RDKit          3D

 51 55  0  0  0  0  0  0  0  0999 V2000
    7.4970   -1.2890   21.7590 N   0  0  0  0  0  0  0  0  0  0  0  0
    7.5080    2.1130   22.8330 N   0  0  0  0  0  0  0  0  0  0  0  0
    8.8800    1.4550   21.1610 O   0  0  0  0  0  0  0  0  0  0  0  0
    6.8960    0.0550   21.6510 C   0  0  1  0  0  0  0  0  0  0  0  0
    7.8720    1.2430   21.8380 C   0  0  0  0  0  0  0  0  0  0  0  0
   10.1420    2.0430   23.9480 C   0  0  0  0  0  0  0  0  0  0  0  0
    9.1910    1.2230   24.8520 C   0  0  0  0  0  0  0  0  0  0  0  0
    6.2250    4.5670   21.8980 C   0  0  0  0  0  0  0  0  0  0  0  0
   12.6240   -1.9130   24.2450 C   0  0  0  0  0  0  0  0  0  0  0  0
   12.8830   -2.9660   25.1120 C   0  0  0  0  0  0  0  0  0  0  0  0
   12.7810   -0.6140   24.9850 C   0  0  0  0  0  0  0  0  0  0  0  0
    6.7430   -2.4370   22.2240 C   0  0  0  0  0  0  0  0  0  0  0  0
    6.2320    0.3430   17.7500 N   0  0  0  0  0  0  0  0  0  0  0  0
    5.1000    1.0640   17.8360 C   0  0  0  0  0  0  0  0  0  0  0  0
    4.4860    1.4640   19.0160 C   0  0  0  0  0  0  0  0  0  0  0  0
    4.9590    1.1890   20.2840 C   0  0  0  0  0  0  0  0  0  0  0  0
    6.2480    0.3900   20.3480 C   0  0  0  0  0  0  0  0  0  0  0  0
    6.8620   -0.0330   19.0190 C   0  0  0  0  0  0  0  0  0  0  0  0
   11.1700   -1.4500   22.4170 N   0  0  0  0  0  0  0  0  0  0  0  0
   11.2440   -1.7920   23.7030 C   0  0  0  0  0  0  0  0  0  0  0  0
   10.0240   -2.0140   24.5620 C   0  0  0  0  0  0  0  0  0  0  0  0
    8.7080   -1.8280   23.8690 C   0  0  0  0  0  0  0  0  0  0  0  0
    8.7130   -1.4370   22.3930 C   0  0  0  0  0  0  0  0  0  0  0  0
    9.9690   -1.2870   21.8330 C   0  0  0  0  0  0  0  0  0  0  0  0
    9.4660    3.3190   23.4830 C   0  0  0  0  0  0  0  0  0  0  0  0
   10.1790    4.5430   23.6090 C   0  0  0  0  0  0  0  0  0  0  0  0
    9.5720    5.7290   23.1760 C   0  0  0  0  0  0  0  0  0  0  0  0
    8.2920    5.7350   22.6230 C   0  0  0  0  0  0  0  0  0  0  0  0
    7.6050    4.5280   22.5060 C   0  0  0  0  0  0  0  0  0  0  0  0
    8.1730    3.3340   22.9320 C   0  0  0  0  0  0  0  0  0  0  0  0
    4.3210   -6.3370   26.1970 O   0  0  0  0  0  0  0  0  0  0  0  0
    6.1350   -4.6760   26.7100 O   0  0  0  0  0  0  0  0  0  0  0  0
    5.2430   -4.8830   19.9560 O   0  0  0  0  0  0  0  0  0  0  0  0
    6.2850   -4.6080   20.5120 C   0  0  0  0  0  0  0  0  0  0  0  0
    7.1570   -3.5210   19.8480 C   0  0  0  0  0  0  0  0  0  0  0  0
    2.0240   -5.3960   25.6560 F   0  0  0  0  0  0  0  0  0  0  0  0
    5.4640   -2.1290   26.1840 F   0  0  0  0  0  0  0  0  0  0  0  0
    4.9950   -5.0870   25.9210 S   0  0  0  0  0  0  0  0  0  0  0  0
    2.4430   -4.1300   25.7870 C   0  0  0  0  0  0  0  0  0  0  0  0
    3.7940   -3.8240   25.9200 C   0  0  0  0  0  0  0  0  0  0  0  0
    4.1840   -2.4920   26.0530 C   0  0  0  0  0  0  0  0  0  0  0  0
    3.2050   -1.5000   26.0490 C   0  0  0  0  0  0  0  0  0  0  0  0
    1.8550   -1.7940   25.9200 C   0  0  0  0  0  0  0  0  0  0  0  0
    1.4710   -3.1220   25.7860 C   0  0  0  0  0  0  0  0  0  0  0  0
    6.5950   -5.2850   21.6960 N   0  0  0  0  0  0  0  0  0  0  0  0
    7.5170   -4.8730   22.7450 C   0  0  2  0  0  0  0  0  0  0  0  0
    6.9790   -5.0810   24.1560 C   0  0  0  0  0  0  0  0  0  0  0  0
    5.4900   -5.1110   24.2920 N   0  0  0  0  0  0  0  0  0  0  0  0
    4.7350   -5.8960   23.2710 C   0  0  0  0  0  0  0  0  0  0  0  0
    5.6540   -6.3140   22.1180 C   0  0  0  0  0  0  0  0  0  0  0  0
    7.8750   -3.4040   22.6350 C   0  0  0  0  0  0  0  0  0  0  0  0
  1  4  1  0
  2  5  1  0
  3  5  2  0
  4  5  1  6
  6  7  1  0
  9 10  1  0
  9 11  1  0
  1 12  1  0
 13 14  2  0
 14 15  1  0
 15 16  2  0
  4 17  1  0
 16 17  1  0
 13 18  1  0
 17 18  2  0
  9 20  1  0
 19 20  2  0
 20 21  1  0
 21 22  2  0
  1 23  1  0
 22 23  1  0
 19 24  1  0
 23 24  2  0
  6 25  1  0
 25 26  2  0
 26 27  1  0
 27 28  2  0
  8 29  1  0
 28 29  1  0
  2 30  1  0
 25 30  1  0
 29 30  2  0
 33 34  2  0
 34 35  1  0
 31 38  2  0
 32 38  2  0
 36 39  1  0
 38 40  1  0
 39 40  2  0
 37 41  1  0
 40 41  1  0
 41 42  2  0
 42 43  1  0
 39 44  1  0
 43 44  2  0
 34 45  1  0
 45 46  1  0
 46 47  1  0
 38 48  1  0
 47 48  1  0
 48 49  1  0
 45 50  1  0
 49 50  1  0
 12 51  1  0
 46 51  1  6
M  END
