x0759-x2581
     RDKit          3D

 34 37  0  0  0  0  0  0  0  0999 V2000
    9.1050   -2.0690   23.7650 C   0  0  0  0  0  0  0  0  0  0  0  0
    9.9910   -1.2210   23.5890 O   0  0  0  0  0  0  0  0  0  0  0  0
   10.0640    3.6210   22.4370 N   0  0  0  0  0  0  0  0  0  0  0  0
   12.1770    2.9180   23.2920 N   0  0  0  0  0  0  0  0  0  0  0  0
   11.3620    3.8650   22.7750 C   0  0  0  0  0  0  0  0  0  0  0  0
   11.8620    5.0580   22.5760 C   0  0  0  0  0  0  0  0  0  0  0  0
    5.3880   -4.2540   19.8160 O   0  0  0  0  0  0  0  0  0  0  0  0
    6.3210   -3.4930   20.1160 C   0  0  0  0  0  0  0  0  0  0  0  0
    7.2430   -3.0200   18.9980 C   0  0  0  0  0  0  0  0  0  0  0  0
    8.7520    2.0120   21.2280 N   0  0  0  0  0  0  0  0  0  0  0  0
    9.6360    2.2630   22.2620 C   0  0  0  0  0  0  0  0  0  0  0  0
   10.0460    1.1460   23.0630 C   0  0  0  0  0  0  0  0  0  0  0  0
    9.5800   -0.1750   22.8110 C   0  0  0  0  0  0  0  0  0  0  0  0
    8.7090   -0.3450   21.7700 C   0  0  0  0  0  0  0  0  0  0  0  0
    8.3310    0.7570   21.0350 C   0  0  0  0  0  0  0  0  0  0  0  0
    9.8380    6.6500   22.7490 C   0  0  0  0  0  0  0  0  0  0  0  0
    9.1220    7.7190   23.3190 C   0  0  0  0  0  0  0  0  0  0  0  0
    9.6010    8.4450   24.4110 C   0  0  0  0  0  0  0  0  0  0  0  0
   10.9420    8.0900   25.0410 C   0  0  0  0  0  0  0  0  0  0  0  0
   11.7380    6.9230   24.4420 C   0  0  0  0  0  0  0  0  0  0  0  0
   11.0890    6.2040   23.2110 C   0  0  0  0  0  0  0  0  0  0  0  0
    8.8300    9.6360   25.0320 C   0  0  0  0  0  0  0  0  0  0  0  0
    9.3880   10.3170   26.1220 C   0  0  0  0  0  0  0  0  0  0  0  0
   10.6400    9.9120   26.6440 C   0  0  0  0  0  0  0  0  0  0  0  0
   11.3820    8.8430   26.1250 C   0  0  0  0  0  0  0  0  0  0  0  0
    6.5280   -3.1210   21.4580 N   0  0  0  0  0  0  0  0  0  0  0  0
    7.5040   -2.1420   21.8080 C   0  0  0  0  0  0  0  0  0  0  0  0
    8.6200   -2.7240   22.4450 C   0  0  2  0  0  0  0  0  0  0  0  0
    8.3420   -4.0950   22.7560 O   0  0  0  0  0  0  0  0  0  0  0  0
    7.0780   -4.3380   23.3630 C   0  0  0  0  0  0  0  0  0  0  0  0
    6.0250   -3.8860   22.5990 C   0  0  0  0  0  0  0  0  0  0  0  0
   12.5980   -0.3940   22.9280 F   0  0  0  0  0  0  0  0  0  0  0  0
   11.6570    1.6480   23.5250 C   0  0  0  0  0  0  0  0  0  0  0  0
   12.7100    0.7570   23.5640 C   0  0  0  0  0  0  0  0  0  0  0  0
  1  2  1  0
  3  5  1  0
  4  5  2  3
  5  6  1  0
  7  8  2  0
  8  9  1  0
  3 11  1  0
 10 11  2  0
 11 12  1  0
  2 13  1  0
 12 13  2  0
 13 14  1  0
 10 15  1  0
 14 15  2  0
 16 17  2  0
 17 18  1  0
 18 19  2  0
 19 20  1  0
  6 21  1  0
 16 21  1  0
 20 21  2  0
 18 22  1  0
 22 23  2  0
 23 24  1  0
 19 25  1  0
 24 25  2  0
  8 26  1  0
 26 27  1  0
 28  1  1  1
 27 28  1  0
 28 29  1  0
 29 30  1  0
 26 31  1  0
 30 31  1  0
  4 33  1  0
 32 34  1  0
 33 34  1  0
M  END
