x0759-x0770
     RDKit          3D

 17 18  0  0  0  0  0  0  0  0999 V2000
    7.2040   -2.9980   18.7840 C   0  0  0  0  0  0  0  0  0  0  0  0
    5.3730   -4.1860   19.7720 O   0  0  0  0  0  0  0  0  0  0  0  0
   13.3570   -1.7770   21.1530 Cl  0  0  0  0  0  0  0  0  0  0  0  0
    6.2550   -3.3240   19.9030 C   0  0  0  0  0  0  0  0  0  0  0  0
    9.3550   -2.3160   24.1550 C   0  0  0  0  0  0  0  0  0  0  0  0
    6.4530   -2.6170   21.0890 N   0  0  0  0  0  0  0  0  0  0  0  0
    7.2840   -1.4730   21.1390 C   0  0  0  0  0  0  0  0  0  0  0  0
    8.5070   -1.5730   21.9880 C   0  0  0  0  0  0  0  0  0  0  0  0
    8.2650   -2.3120   23.2120 N   0  0  0  0  0  0  0  0  0  0  0  0
    7.4500   -3.4600   23.2100 C   0  0  0  0  0  0  0  0  0  0  0  0
    6.3350   -3.2540   22.3620 C   0  0  0  0  0  0  0  0  0  0  0  0
   10.7440   -0.3430   24.4640 C   0  0  0  0  0  0  0  0  0  0  0  0
   11.8470    0.4340   24.1020 C   0  0  0  0  0  0  0  0  0  0  0  0
   12.6930    0.0130   23.0730 C   0  0  0  0  0  0  0  0  0  0  0  0
   12.4060   -1.1900   22.4160 C   0  0  0  0  0  0  0  0  0  0  0  0
   11.3070   -1.9490   22.7840 C   0  0  0  0  0  0  0  0  0  0  0  0
   10.4780   -1.5290   23.8010 C   0  0  0  0  0  0  0  0  0  0  0  0
  1  4  1  0
  2  4  2  0
  4  6  1  0
  6  7  1  0
  7  8  1  0
  5  9  1  0
  8  9  1  0
  9 10  1  0
  6 11  1  0
 10 11  1  0
 12 13  2  0
 13 14  1  0
  3 15  1  0
 14 15  2  0
 15 16  1  0
  5 17  1  0
 12 17  1  0
 16 17  2  0
M  END
