x0755-x0978-x3113
     RDKit          3D

 56 59  0  0  0  0  0  0  0  0999 V2000
    7.3140   -1.1900   22.0250 N   0  0  0  0  0  0  0  0  0  0  0  0
    8.3260    1.6990   23.3520 N   0  0  0  0  0  0  0  0  0  0  0  0
    8.8900    1.7500   21.0210 O   0  0  0  0  0  0  0  0  0  0  0  0
   11.9010    3.9100   22.3210 O   0  0  0  0  0  0  0  0  0  0  0  0
    7.0550    0.1560   21.8070 C   0  0  1  0  0  0  0  0  0  0  0  0
    8.1070    1.2020   22.0880 C   0  0  0  0  0  0  0  0  0  0  0  0
    9.2700    2.6980   23.5180 C   0  0  0  0  0  0  0  0  0  0  0  0
   10.6380    2.1150   23.3020 C   0  0  0  0  0  0  0  0  0  0  0  0
   11.6980    3.1980   23.2870 C   0  0  0  0  0  0  0  0  0  0  0  0
   12.9360    4.5850   22.4010 C   0  0  0  0  0  0  0  0  0  0  0  0
   12.5490   -2.1580   24.2360 C   0  0  0  0  0  0  0  0  0  0  0  0
   13.4350   -2.1660   23.1800 C   0  0  0  0  0  0  0  0  0  0  0  0
   12.7190   -3.0500   25.2900 C   0  0  0  0  0  0  0  0  0  0  0  0
   12.7890   -0.7520   24.8420 C   0  0  0  0  0  0  0  0  0  0  0  0
    2.2160   -5.5040   23.3290 N   0  0  0  0  0  0  0  0  0  0  0  0
    2.0430   -7.6680   25.2980 C   0  0  0  0  0  0  0  0  0  0  0  0
    4.3940   -8.0920   24.4870 O   0  0  0  0  0  0  0  0  0  0  0  0
    3.1390   -7.5700   24.2210 C   0  0  2  0  0  0  0  0  0  0  0  0
    0.9030   -7.1760   21.9980 O   0  0  0  0  0  0  0  0  0  0  0  0
    3.3310   -6.4420   23.4780 C   0  0  2  0  0  0  0  0  0  0  0  0
    1.0290   -5.9840   22.7800 C   0  0  0  0  0  0  0  0  0  0  0  0
   -0.2400   -5.3750   22.9150 C   0  0  0  0  0  0  0  0  0  0  0  0
    6.4620   -2.2520   21.5600 C   0  0  0  0  0  0  0  0  0  0  0  0
    6.3910   -3.1030   22.6410 C   0  0  0  0  0  0  0  0  0  0  0  0
    4.2610   -6.3750   26.4670 O   0  0  0  0  0  0  0  0  0  0  0  0
    5.9860   -4.7520   26.9930 O   0  0  0  0  0  0  0  0  0  0  0  0
    5.8770   -4.5490   19.8640 O   0  0  0  0  0  0  0  0  0  0  0  0
    6.7730   -4.2990   20.6500 C   0  0  0  0  0  0  0  0  0  0  0  0
    8.1330   -3.7030   20.3270 C   0  0  0  0  0  0  0  0  0  0  0  0
    1.8770   -5.3080   25.7990 F   0  0  0  0  0  0  0  0  0  0  0  0
    5.4530   -2.1220   26.2000 F   0  0  0  0  0  0  0  0  0  0  0  0
    4.9090   -5.1370   26.1080 S   0  0  0  0  0  0  0  0  0  0  0  0
    6.4060    0.2020   18.0100 N   0  0  0  0  0  0  0  0  0  0  0  0
    5.3230    1.0070   17.9230 C   0  0  0  0  0  0  0  0  0  0  0  0
    4.7670    1.5480   19.0780 C   0  0  0  0  0  0  0  0  0  0  0  0
    5.3180    1.2720   20.3220 C   0  0  0  0  0  0  0  0  0  0  0  0
    6.4370    0.4480   20.4240 C   0  0  0  0  0  0  0  0  0  0  0  0
    6.9370   -0.0660   19.2220 C   0  0  0  0  0  0  0  0  0  0  0  0
    9.6790   -1.4100   21.8480 C   0  0  0  0  0  0  0  0  0  0  0  0
   10.9510   -1.6450   22.3490 C   0  0  0  0  0  0  0  0  0  0  0  0
   11.1090   -1.9490   23.6940 C   0  0  0  0  0  0  0  0  0  0  0  0
    9.9910   -2.0340   24.5200 C   0  0  0  0  0  0  0  0  0  0  0  0
    8.7110   -1.7960   23.9890 C   0  0  0  0  0  0  0  0  0  0  0  0
    8.5370   -1.4690   22.6310 C   0  0  0  0  0  0  0  0  0  0  0  0
    2.3640   -4.0640   25.8630 C   0  0  0  0  0  0  0  0  0  0  0  0
    3.7550   -3.8200   26.0050 C   0  0  0  0  0  0  0  0  0  0  0  0
    4.1650   -2.4710   26.0640 C   0  0  0  0  0  0  0  0  0  0  0  0
    3.2320   -1.4430   25.9850 C   0  0  0  0  0  0  0  0  0  0  0  0
    1.8870   -1.7040   25.8480 C   0  0  0  0  0  0  0  0  0  0  0  0
    1.4480   -3.0140   25.7850 C   0  0  0  0  0  0  0  0  0  0  0  0
    6.4500   -4.5280   22.1070 C   0  0  1  0  0  0  0  0  0  0  0  0
    7.4750   -5.2640   22.9500 C   0  0  0  0  0  0  0  0  0  0  0  0
    7.0330   -5.1280   24.4250 C   0  0  0  0  0  0  0  0  0  0  0  0
    5.5490   -5.2240   24.5260 N   0  0  0  0  0  0  0  0  0  0  0  0
    4.8300   -5.9630   23.4220 C   0  0  2  0  0  0  0  0  0  0  0  0
    5.0750   -5.2090   22.1500 C   0  0  0  0  0  0  0  0  0  0  0  0
  1  5  1  0
  2  6  1  0
  3  6  2  0
  5  6  1  6
  2  7  1  0
  7  8  1  0
  4  9  1  0
  8  9  1  0
  4 10  1  0
 11 12  1  0
 11 13  1  0
 11 14  1  0
 18 16  1  1
 17 18  1  0
 20 15  1  1
 18 20  1  0
 15 21  1  0
 19 21  2  0
 21 22  1  0
  1 23  1  0
 23 24  1  0
 27 28  2  0
 28 29  1  0
 25 32  2  0
 26 32  2  0
 33 34  2  0
 34 35  1  0
 35 36  2  0
  5 37  1  0
 36 37  1  0
 33 38  1  0
 37 38  2  0
 39 40  2  0
 11 41  1  0
 40 41  1  0
 41 42  2  0
 42 43  1  0
  1 44  1  0
 39 44  1  0
 43 44  2  0
 30 45  1  0
 32 46  1  0
 45 46  2  0
 31 47  1  0
 46 47  1  0
 47 48  2  0
 48 49  1  0
 45 50  1  0
 49 50  2  0
 51 24  1  1
 51 28  1  0
 51 52  1  0
 52 53  1  0
 32 54  1  0
 53 54  1  0
 20 55  1  0
 54 55  1  0
 51 56  1  0
 55 56  1  6
M  END
