x0755-x0731
     RDKit          3D

 21 22  0  0  0  0  0  0  0  0999 V2000
    4.4220   -6.3640   26.2260 O   0  0  0  0  0  0  0  0  0  0  0  0
    6.1080   -4.5920   26.7420 O   0  0  0  0  0  0  0  0  0  0  0  0
    5.3350   -4.8050   19.9700 O   0  0  0  0  0  0  0  0  0  0  0  0
    6.3780   -4.5340   20.5510 C   0  0  0  0  0  0  0  0  0  0  0  0
    7.2650   -3.4650   19.9120 C   0  0  0  0  0  0  0  0  0  0  0  0
    2.0610   -5.4760   25.6780 F   0  0  0  0  0  0  0  0  0  0  0  0
    5.4520   -1.9800   26.1170 F   0  0  0  0  0  0  0  0  0  0  0  0
    5.0550   -5.1040   25.9090 S   0  0  0  0  0  0  0  0  0  0  0  0
    0.8330   -0.8940   25.9250 C   0  0  0  0  0  0  0  0  0  0  0  0
    2.4710   -4.2070   25.7880 C   0  0  0  0  0  0  0  0  0  0  0  0
    3.8100   -3.8720   25.8950 C   0  0  0  0  0  0  0  0  0  0  0  0
    4.1840   -2.3970   26.0110 C   0  0  0  0  0  0  0  0  0  0  0  0
    3.1670   -1.4510   26.0150 C   0  0  0  0  0  0  0  0  0  0  0  0
    1.8370   -1.8570   25.9110 C   0  0  0  0  0  0  0  0  0  0  0  0
    1.4970   -3.2050   25.7960 C   0  0  0  0  0  0  0  0  0  0  0  0
    6.6880   -5.1980   21.7390 N   0  0  0  0  0  0  0  0  0  0  0  0
    7.4960   -4.6850   22.8670 C   0  0  0  0  0  0  0  0  0  0  0  0
    6.6370   -4.1520   23.8530 C   0  0  0  0  0  0  0  0  0  0  0  0
    5.6820   -5.2120   24.3100 N   0  0  0  0  0  0  0  0  0  0  0  0
    4.8830   -5.8780   23.2720 C   0  0  0  0  0  0  0  0  0  0  0  0
    5.7770   -6.2740   22.1020 C   0  0  0  0  0  0  0  0  0  0  0  0
  3  4  2  0
  4  5  1  0
  1  8  2  0
  2  8  2  0
  6 10  1  0
  8 11  1  0
 10 11  2  0
  7 12  1  0
 11 12  1  0
 12 13  2  0
  9 14  1  0
 13 14  1  0
 10 15  1  0
 14 15  2  0
  4 16  1  0
 16 17  1  0
 17 18  1  0
  8 19  1  0
 18 19  1  0
 19 20  1  0
 16 21  1  0
 20 21  1  0
M  END
