x0755-x2776
     RDKit          3D

 52 56  0  0  0  0  0  0  0  0999 V2000
    7.1420   -1.1620   21.6140 N   0  0  0  0  0  0  0  0  0  0  0  0
    7.8690    2.0670   22.8980 N   0  0  0  0  0  0  0  0  0  0  0  0
    8.9630    1.3370   21.0320 O   0  0  0  0  0  0  0  0  0  0  0  0
   10.9320    6.6970   23.8710 O   0  0  0  0  0  0  0  0  0  0  0  0
    6.8210    0.2780   21.5280 C   0  0  1  0  0  0  0  0  0  0  0  0
   12.3920   -2.8560   24.8680 O   0  0  0  0  0  0  0  0  0  0  0  0
    8.0110    1.2640   21.7860 C   0  0  0  0  0  0  0  0  0  0  0  0
   10.6700    1.8570   23.8270 C   0  0  0  0  0  0  0  0  0  0  0  0
   11.8300    6.5730   24.7070 C   0  0  0  0  0  0  0  0  0  0  0  0
   12.1770   -1.4890   24.5130 C   0  0  1  0  0  0  0  0  0  0  0  0
   13.2350   -1.0630   23.5240 C   0  0  0  0  0  0  0  0  0  0  0  0
   13.6520   -3.0140   25.4660 C   0  0  0  0  0  0  0  0  0  0  0  0
    4.4070   -6.3870   26.3790 O   0  0  0  0  0  0  0  0  0  0  0  0
    6.1400   -4.6960   27.0130 O   0  0  0  0  0  0  0  0  0  0  0  0
    5.7620   -4.7090   19.9420 O   0  0  0  0  0  0  0  0  0  0  0  0
    6.6780   -4.3130   20.6550 C   0  0  0  0  0  0  0  0  0  0  0  0
    7.9640   -3.6280   20.2300 C   0  0  0  0  0  0  0  0  0  0  0  0
    2.1320   -5.4950   25.7520 F   0  0  0  0  0  0  0  0  0  0  0  0
    5.5410   -2.1690   26.2610 F   0  0  0  0  0  0  0  0  0  0  0  0
    5.0880   -5.1340   26.1340 S   0  0  0  0  0  0  0  0  0  0  0  0
    6.0250   -2.0040   22.0210 C   0  0  0  0  0  0  0  0  0  0  0  0
    6.5050   -3.0600   22.7770 C   0  0  0  0  0  0  0  0  0  0  0  0
    6.3230    0.4960   17.7910 N   0  0  0  0  0  0  0  0  0  0  0  0
    5.2170    1.2740   17.7640 C   0  0  0  0  0  0  0  0  0  0  0  0
    4.5660    1.7510   18.8760 C   0  0  0  0  0  0  0  0  0  0  0  0
    5.0930    1.4150   20.0970 C   0  0  0  0  0  0  0  0  0  0  0  0
    6.2310    0.6280   20.2020 C   0  0  0  0  0  0  0  0  0  0  0  0
    6.7840    0.2020   19.0090 C   0  0  0  0  0  0  0  0  0  0  0  0
    9.9940    3.1930   23.5860 C   0  0  0  0  0  0  0  0  0  0  0  0
   10.7940    4.4300   23.8320 C   0  0  0  0  0  0  0  0  0  0  0  0
   10.1460    5.5960   23.6110 C   0  0  0  0  0  0  0  0  0  0  0  0
    8.8180    5.6620   23.1670 C   0  0  0  0  0  0  0  0  0  0  0  0
    8.0820    4.4910   22.9340 C   0  0  0  0  0  0  0  0  0  0  0  0
    8.6790    3.2690   23.1500 C   0  0  0  0  0  0  0  0  0  0  0  0
    9.4360   -1.7330   21.8710 C   0  0  0  0  0  0  0  0  0  0  0  0
   10.6470   -1.8270   22.5170 C   0  0  0  0  0  0  0  0  0  0  0  0
   10.8500   -1.4090   23.8530 C   0  0  0  0  0  0  0  0  0  0  0  0
    9.6300   -0.8400   24.6220 C   0  0  0  0  0  0  0  0  0  0  0  0
    8.2860   -0.7500   23.8650 C   0  0  0  0  0  0  0  0  0  0  0  0
    8.3030   -1.2290   22.4400 C   0  0  0  0  0  0  0  0  0  0  0  0
    2.5240   -4.2170   25.8360 C   0  0  0  0  0  0  0  0  0  0  0  0
    3.8700   -3.8660   26.0110 C   0  0  0  0  0  0  0  0  0  0  0  0
    4.2580   -2.5190   26.0950 C   0  0  0  0  0  0  0  0  0  0  0  0
    3.3240   -1.4820   26.0140 C   0  0  0  0  0  0  0  0  0  0  0  0
    1.9720   -1.7570   25.8460 C   0  0  0  0  0  0  0  0  0  0  0  0
    1.5380   -3.2400   25.7460 C   0  0  0  0  0  0  0  0  0  0  0  0
    6.4620   -4.4840   22.1510 C   0  0  0  0  0  0  0  0  0  0  0  0
    7.5390   -5.2520   22.9530 C   0  0  0  0  0  0  0  0  0  0  0  0
    7.2360   -5.1160   24.4410 C   0  0  0  0  0  0  0  0  0  0  0  0
    5.7730   -5.2190   24.6080 N   0  0  0  0  0  0  0  0  0  0  0  0
    5.0490   -6.0080   23.5880 C   0  0  0  0  0  0  0  0  0  0  0  0
    5.1260   -5.2520   22.2810 C   0  0  0  0  0  0  0  0  0  0  0  0
  1  5  1  0
  2  7  1  0
  3  7  2  0
  5  7  1  6
  4  9  1  0
  6 10  1  0
 10 11  1  6
  6 12  1  0
 15 16  2  0
 16 17  1  0
 13 20  2  0
 14 20  2  0
  1 21  1  0
 21 22  1  0
 23 24  2  0
 24 25  1  0
 25 26  2  0
  5 27  1  0
 26 27  1  0
 23 28  1  0
 27 28  2  0
  8 29  1  0
 29 30  2  0
  4 31  1  0
 30 31  1  0
 31 32  2  0
 32 33  1  0
  2 34  1  0
 29 34  1  0
 33 34  2  0
 35 36  2  0
 10 37  1  0
 36 37  1  0
 37 38  2  0
 38 39  1  0
  1 40  1  0
 35 40  1  0
 39 40  2  0
 18 41  1  0
 20 42  1  0
 41 42  2  0
 19 43  1  0
 42 43  1  0
 43 44  2  0
 44 45  1  0
 41 46  1  0
 45 46  2  0
 47 16  1  0
 22 47  1  0
 47 48  1  0
 48 49  1  0
 20 50  1  0
 49 50  1  0
 50 51  1  0
 47 52  1  0
 51 52  1  0
M  END
