x0752-x0691
     RDKit          3D

 20 21  0  0  0  0  0  0  0  0999 V2000
    3.8460   -6.8110   25.9480 O   0  0  0  0  0  0  0  0  0  0  0  0
    5.6260   -5.2780   26.8620 O   0  0  0  0  0  0  0  0  0  0  0  0
    5.5320   -4.0850   19.6940 O   0  0  0  0  0  0  0  0  0  0  0  0
    6.2740   -4.5070   20.5760 C   0  0  0  0  0  0  0  0  0  0  0  0
    7.2090   -3.4630   19.9260 C   0  0  0  0  0  0  0  0  0  0  0  0
    3.2640   -0.5310   26.0190 F   0  0  0  0  0  0  0  0  0  0  0  0
    4.6030   -5.5850   25.8880 S   0  0  0  0  0  0  0  0  0  0  0  0
    7.3520   -4.7220   21.4310 N   0  0  0  0  0  0  0  0  0  0  0  0
    2.8400   -1.7990   25.9500 C   0  0  0  0  0  0  0  0  0  0  0  0
    3.8780   -2.9910   25.9510 C   0  0  0  0  0  0  0  0  0  0  0  0
    3.5000   -4.2810   25.8830 C   0  0  0  0  0  0  0  0  0  0  0  0
    2.0150   -4.6990   25.7910 C   0  0  0  0  0  0  0  0  0  0  0  0
    0.9280   -3.6030   25.7830 C   0  0  0  0  0  0  0  0  0  0  0  0
    1.3440   -2.1180   25.8680 C   0  0  0  0  0  0  0  0  0  0  0  0
    7.0850   -5.6000   22.4720 N   0  0  0  0  0  0  0  0  0  0  0  0
    5.8910   -6.4390   22.2910 C   0  0  0  0  0  0  0  0  0  0  0  0
    4.7080   -5.9370   23.1630 C   0  0  0  0  0  0  0  0  0  0  0  0
    5.3440   -5.4610   24.3950 N   0  0  0  0  0  0  0  0  0  0  0  0
    6.2700   -4.5120   24.2530 C   0  0  0  0  0  0  0  0  0  0  0  0
    7.3830   -5.0540   23.6570 C   0  0  0  0  0  0  0  0  0  0  0  0
  3  4  2  0
  4  5  1  0
  1  7  2  0
  2  7  2  0
  4  8  1  0
  6  9  1  0
  9 10  2  0
  7 11  1  0
 10 11  1  0
 11 12  2  0
 12 13  1  0
  9 14  1  0
 13 14  2  0
  8 15  1  0
 15 16  1  0
 16 17  1  0
  7 18  1  0
 17 18  1  0
 18 19  1  0
 15 20  1  0
 19 20  1  0
M  END
