x0755-x0305
     RDKit          3D

 33 35  0  0  0  0  0  0  0  0999 V2000
    4.3330   -6.3810   26.2530 O   0  0  0  0  0  0  0  0  0  0  0  0
    6.1690   -4.7740   26.8470 O   0  0  0  0  0  0  0  0  0  0  0  0
    5.5540   -4.4770   19.9230 O   0  0  0  0  0  0  0  0  0  0  0  0
    6.5720   -4.5300   20.6340 C   0  0  0  0  0  0  0  0  0  0  0  0
    7.7780   -3.6490   20.3210 C   0  0  0  0  0  0  0  0  0  0  0  0
    2.1130   -5.3700   25.5860 F   0  0  0  0  0  0  0  0  0  0  0  0
    5.7630   -2.3280   26.2840 O   0  0  0  0  0  0  0  0  0  0  0  0
    5.0730   -5.1680   25.9870 S   0  0  0  0  0  0  0  0  0  0  0  0
    8.2720    0.3560   27.5500 C   0  0  0  0  0  0  0  0  0  0  0  0
    8.7130   -0.5460   26.3850 C   0  0  2  0  0  0  0  0  0  0  0  0
    9.7780    0.0950   25.6290 N   0  0  0  0  0  0  0  0  0  0  0  0
   13.0650   -1.4590   21.5030 C   0  0  0  0  0  0  0  0  0  0  0  0
   13.7500   -1.7000   20.6510 N   0  0  0  0  0  0  0  0  0  0  0  0
    6.2700   -1.0090   26.0270 C   0  0  0  0  0  0  0  0  0  0  0  0
    7.5650   -1.0760   25.4880 C   0  0  0  0  0  0  0  0  0  0  0  0
    2.5740   -4.1220   25.7350 C   0  0  0  0  0  0  0  0  0  0  0  0
    3.9260   -3.8400   25.9300 C   0  0  0  0  0  0  0  0  0  0  0  0
    4.4070   -2.5260   26.0880 C   0  0  0  0  0  0  0  0  0  0  0  0
    3.5320   -1.4210   26.0540 C   0  0  0  0  0  0  0  0  0  0  0  0
    2.1740   -1.6510   25.8620 C   0  0  0  0  0  0  0  0  0  0  0  0
    1.6690   -3.0720   25.6940 C   0  0  0  0  0  0  0  0  0  0  0  0
    6.6630   -5.3900   21.7200 N   0  0  0  0  0  0  0  0  0  0  0  0
    7.6140   -5.0470   22.8110 C   0  0  0  0  0  0  0  0  0  0  0  0
    6.8860   -4.4820   24.0280 C   0  0  0  0  0  0  0  0  0  0  0  0
    5.6780   -5.3060   24.4110 N   0  0  0  0  0  0  0  0  0  0  0  0
    4.7730   -5.6500   23.2670 C   0  0  0  0  0  0  0  0  0  0  0  0
    5.5930   -6.2850   22.1530 C   0  0  0  0  0  0  0  0  0  0  0  0
   10.5430   -0.3370   24.5530 C   0  0  0  0  0  0  0  0  0  0  0  0
   11.6920    0.3460   24.3570 N   0  0  0  0  0  0  0  0  0  0  0  0
   12.4980   -0.0290   23.3600 C   0  0  0  0  0  0  0  0  0  0  0  0
   12.1880   -1.1050   22.5180 C   0  0  0  0  0  0  0  0  0  0  0  0
   10.9820   -1.8170   22.7100 C   0  0  0  0  0  0  0  0  0  0  0  0
   10.1540   -1.4070   23.7540 C   0  0  0  0  0  0  0  0  0  0  0  0
  3  4  2  0
  4  5  1  0
  1  8  2  0
  2  8  2  0
 10  9  1  1
 10 11  1  0
 12 13  3  0
  7 14  1  0
 10 15  1  0
 14 15  1  0
  6 16  1  0
  8 17  1  0
 16 17  2  0
  7 18  1  0
 17 18  1  0
 18 19  2  0
 19 20  1  0
 16 21  1  0
 20 21  2  0
  4 22  1  0
 22 23  1  0
 23 24  1  0
  8 25  1  0
 24 25  1  0
 25 26  1  0
 22 27  1  0
 26 27  1  0
 11 28  1  0
 28 29  2  0
 29 30  1  0
 12 31  1  0
 30 31  2  0
 31 32  1  0
 28 33  1  0
 32 33  2  0
M  END
