x0752-x1425
     RDKit          3D

 18 19  0  0  0  0  0  0  0  0999 V2000
    7.4050   -4.3180   21.4150 N   0  0  0  0  0  0  0  0  0  0  0  0
    7.3980   -3.2900   19.2240 C   0  0  0  0  0  0  0  0  0  0  0  0
    5.5690   -4.6290   19.9770 O   0  0  0  0  0  0  0  0  0  0  0  0
    6.6720   -4.1290   20.2500 C   0  0  0  0  0  0  0  0  0  0  0  0
    7.1900   -5.3590   22.3640 C   0  0  0  0  0  0  0  0  0  0  0  0
    2.7170   -3.2450   25.3880 C   0  0  0  0  0  0  0  0  0  0  0  0
    3.7730   -3.6670   24.7220 C   0  0  0  0  0  0  0  0  0  0  0  0
    3.5520   -4.9640   24.0260 C   0  0  0  0  0  0  0  0  0  0  0  0
    2.2610   -5.3440   24.2910 O   0  0  0  0  0  0  0  0  0  0  0  0
    1.6930   -4.3650   25.1050 C   0  0  0  0  0  0  0  0  0  0  0  0
    5.9720   -4.9040   23.1280 C   0  0  0  0  0  0  0  0  0  0  0  0
    4.6310   -5.6370   23.2060 C   0  0  0  0  0  0  0  0  0  0  0  0
    5.1840   -3.0390   24.5530 C   0  0  0  0  0  0  0  0  0  0  0  0
    6.1290   -3.6820   23.8000 C   0  0  0  0  0  0  0  0  0  0  0  0
    1.3740   -2.5020   28.2070 C   0  0  0  0  0  0  0  0  0  0  0  0
    2.5090   -2.1460   28.5100 O   0  0  0  0  0  0  0  0  0  0  0  0
    2.6660   -1.9740   26.1870 C   0  0  0  0  0  0  0  0  0  0  0  0
    3.3270   -2.0020   27.4120 C   0  0  0  0  0  0  0  0  0  0  0  0
  1  4  1  0
  2  4  1  0
  3  4  2  0
  1  5  1  0
  6  7  1  0
  7  8  2  0
  8  9  1  0
  6 10  2  0
  9 10  1  0
  5 11  1  0
  8 12  1  0
 11 12  2  0
  7 13  1  0
 11 14  1  0
 13 14  2  0
 15 16  1  0
  6 17  1  0
 16 18  1  0
 17 18  1  0
M  END
