x0755-x2119
     RDKit          3D

 23 25  0  0  0  0  0  0  0  0999 V2000
    4.3460   -6.4500   26.0600 O   0  0  0  0  0  0  0  0  0  0  0  0
    6.0290   -4.7620   26.8360 O   0  0  0  0  0  0  0  0  0  0  0  0
    4.9350   -4.5860   19.7900 O   0  0  0  0  0  0  0  0  0  0  0  0
    6.0670   -4.6630   20.1480 C   0  0  0  0  0  0  0  0  0  0  0  0
    6.9390   -3.4980   19.8460 C   0  0  0  0  0  0  0  0  0  0  0  0
    1.8400   -5.4110   25.7270 F   0  0  0  0  0  0  0  0  0  0  0  0
    5.5190   -2.2310   26.1920 F   0  0  0  0  0  0  0  0  0  0  0  0
    4.9850   -5.1640   25.9290 S   0  0  0  0  0  0  0  0  0  0  0  0
    2.3110   -4.1690   25.8590 C   0  0  0  0  0  0  0  0  0  0  0  0
    3.8100   -3.8840   25.9650 C   0  0  0  0  0  0  0  0  0  0  0  0
    4.2280   -2.5710   26.0960 C   0  0  0  0  0  0  0  0  0  0  0  0
    3.1730   -1.4620   26.1370 C   0  0  0  0  0  0  0  0  0  0  0  0
    1.8220   -1.7900   26.0430 C   0  0  0  0  0  0  0  0  0  0  0  0
    1.3960   -3.1160   25.9030 C   0  0  0  0  0  0  0  0  0  0  0  0
    6.5270   -3.9160   22.2680 C   0  0  0  0  0  0  0  0  0  0  0  0
    7.4540   -4.6020   22.9670 C   0  0  0  0  0  0  0  0  0  0  0  0
    7.0560   -4.8740   24.2360 C   0  0  0  0  0  0  0  0  0  0  0  0
    5.5920   -5.0000   24.3470 N   0  0  0  0  0  0  0  0  0  0  0  0
    4.9300   -5.6810   23.2360 C   0  0  0  0  0  0  0  0  0  0  0  0
    5.5590   -5.1170   21.9610 C   0  0  0  0  0  0  0  0  0  0  0  0
    5.8440   -2.7610   22.8670 C   0  0  0  0  0  0  0  0  0  0  0  0
    6.4860   -2.0000   21.8400 C   0  0  0  0  0  0  0  0  0  0  0  0
    7.1590   -3.0510   21.1750 N   0  0  0  0  0  0  0  0  0  0  0  0
  3  4  2  0
  4  5  1  0
  1  8  2  0
  2  8  2  0
  6  9  1  0
  8 10  1  0
  9 10  2  0
  7 11  1  0
 10 11  1  0
 11 12  2  0
 12 13  1  0
  9 14  1  0
 13 14  2  0
 15 16  1  0
 16 17  1  0
  8 18  1  0
 17 18  1  0
 18 19  1  0
 15 20  1  0
 19 20  1  0
 15 21  1  0
 21 22  2  0
  5 23  1  0
 15 23  1  0
 22 23  1  0
M  END
