x0755-x2776-x2694
     RDKit          3D

 53 57  0  0  0  0  0  0  0  0999 V2000
    7.2460   -1.0050   21.5700 N   0  0  0  0  0  0  0  0  0  0  0  0
    7.8260    2.1890   22.8210 N   0  0  0  0  0  0  0  0  0  0  0  0
    9.0110    1.4580   21.0440 O   0  0  0  0  0  0  0  0  0  0  0  0
   10.8110    6.7970   23.9440 O   0  0  0  0  0  0  0  0  0  0  0  0
    6.9350    0.3360   21.5380 C   0  0  1  0  0  0  0  0  0  0  0  0
   13.7430   -2.6110   24.0820 O   0  0  0  0  0  0  0  0  0  0  0  0
    8.0250    1.3450   21.7500 C   0  0  0  0  0  0  0  0  0  0  0  0
   10.5380    1.8980   23.7770 C   0  0  0  0  0  0  0  0  0  0  0  0
   11.7820    6.7530   24.7060 C   0  0  0  0  0  0  0  0  0  0  0  0
   12.7710   -1.9140   23.9280 C   0  0  1  0  0  0  0  0  0  0  0  0
   12.8550   -0.4460   24.2010 C   0  0  0  0  0  0  0  0  0  0  0  0
   13.8500   -2.8580   25.4710 C   0  0  0  0  0  0  0  0  0  0  0  0
   12.1310   -1.9510   22.5400 C   0  0  0  0  0  0  0  0  0  0  0  0
    4.3680   -6.3250   26.3010 O   0  0  0  0  0  0  0  0  0  0  0  0
    5.9750   -4.5370   27.0100 O   0  0  0  0  0  0  0  0  0  0  0  0
    5.6360   -5.2290   20.0050 O   0  0  0  0  0  0  0  0  0  0  0  0
    6.3830   -4.4480   20.5700 C   0  0  0  0  0  0  0  0  0  0  0  0
    7.2360   -3.4540   19.7590 C   0  0  0  0  0  0  0  0  0  0  0  0
    2.1450   -5.4900   25.7320 F   0  0  0  0  0  0  0  0  0  0  0  0
    5.5210   -2.1560   26.2490 F   0  0  0  0  0  0  0  0  0  0  0  0
    5.0260   -5.0560   26.0680 S   0  0  0  0  0  0  0  0  0  0  0  0
    6.1920   -2.0310   21.6270 C   0  0  0  0  0  0  0  0  0  0  0  0
    6.3270   -3.0110   22.6160 C   0  0  0  0  0  0  0  0  0  0  0  0
    6.3520    0.5490   17.7050 N   0  0  0  0  0  0  0  0  0  0  0  0
    5.1840    1.4280   17.6660 C   0  0  0  0  0  0  0  0  0  0  0  0
    4.4980    1.9860   18.8950 C   0  0  0  0  0  0  0  0  0  0  0  0
    5.0050    1.6710   20.2970 C   0  0  0  0  0  0  0  0  0  0  0  0
    6.2560    0.7510   20.3300 C   0  0  0  0  0  0  0  0  0  0  0  0
    6.8650    0.2230   19.0170 C   0  0  0  0  0  0  0  0  0  0  0  0
    9.9050    3.1900   23.5640 C   0  0  0  0  0  0  0  0  0  0  0  0
   10.7230    4.2910   23.8610 C   0  0  0  0  0  0  0  0  0  0  0  0
   10.1700    5.5590   23.6880 C   0  0  0  0  0  0  0  0  0  0  0  0
    8.8710    5.6890   23.2260 C   0  0  0  0  0  0  0  0  0  0  0  0
    8.0460    4.6110   22.9180 C   0  0  0  0  0  0  0  0  0  0  0  0
    8.5880    3.3390   23.1000 C   0  0  0  0  0  0  0  0  0  0  0  0
    9.6520   -1.4950   22.0270 C   0  0  0  0  0  0  0  0  0  0  0  0
   10.7150   -1.7020   22.8960 C   0  0  0  0  0  0  0  0  0  0  0  0
   10.4620   -1.6680   24.2620 C   0  0  0  0  0  0  0  0  0  0  0  0
    9.2580   -1.4450   24.7320 C   0  0  0  0  0  0  0  0  0  0  0  0
    8.1410   -1.2260   23.8740 C   0  0  0  0  0  0  0  0  0  0  0  0
    8.3310   -1.2470   22.4880 C   0  0  0  0  0  0  0  0  0  0  0  0
    2.4600   -4.1880   25.8320 C   0  0  0  0  0  0  0  0  0  0  0  0
    3.7970   -3.8170   25.9890 C   0  0  0  0  0  0  0  0  0  0  0  0
    4.2330   -2.4890   26.1000 C   0  0  0  0  0  0  0  0  0  0  0  0
    3.1920   -1.3760   26.0550 C   0  0  0  0  0  0  0  0  0  0  0  0
    1.7260   -1.7740   25.8930 C   0  0  0  0  0  0  0  0  0  0  0  0
    1.4130   -3.2560   25.7780 C   0  0  0  0  0  0  0  0  0  0  0  0
    6.3490   -4.5000   22.0950 C   0  0  0  0  0  0  0  0  0  0  0  0
    7.5090   -5.2540   22.7910 C   0  0  0  0  0  0  0  0  0  0  0  0
    7.2020   -5.0710   24.3110 C   0  0  0  0  0  0  0  0  0  0  0  0
    5.7240   -5.0940   24.4980 N   0  0  0  0  0  0  0  0  0  0  0  0
    5.0060   -5.9400   23.5500 C   0  0  0  0  0  0  0  0  0  0  0  0
    5.0060   -5.2280   22.3660 C   0  0  0  0  0  0  0  0  0  0  0  0
  1  5  1  0
  2  7  1  0
  3  7  2  0
  5  7  1  6
  4  9  1  0
  6 10  1  0
 10 11  1  6
  6 12  1  0
 10 13  1  0
 16 17  2  0
 17 18  1  0
 14 21  2  0
 15 21  2  0
  1 22  1  0
 22 23  1  0
 24 25  2  0
 25 26  1  0
 26 27  2  0
  5 28  1  0
 27 28  1  0
 24 29  1  0
 28 29  2  0
  8 30  1  0
 30 31  2  0
  4 32  1  0
 31 32  1  0
 32 33  2  0
 33 34  1  0
  2 35  1  0
 30 35  1  0
 34 35  2  0
 13 37  1  0
 36 37  2  0
 37 38  1  0
 38 39  2  0
 39 40  1  0
  1 41  1  0
 36 41  1  0
 40 41  2  0
 19 42  1  0
 21 43  1  0
 42 43  2  0
 20 44  1  0
 43 44  1  0
 44 45  2  0
 45 46  1  0
 42 47  1  0
 46 47  2  0
 48 17  1  0
 23 48  1  0
 48 49  1  0
 49 50  1  0
 21 51  1  0
 50 51  1  0
 51 52  1  0
 48 53  1  0
 52 53  1  0
M  END
