x0759-x1380
     RDKit          3D

 26 28  0  0  0  0  0  0  0  0999 V2000
    7.1670   -3.3010   19.3460 C   0  0  0  0  0  0  0  0  0  0  0  0
    5.3690   -4.7760   19.9650 O   0  0  0  0  0  0  0  0  0  0  0  0
    6.3700   -4.1570   20.3210 C   0  0  0  0  0  0  0  0  0  0  0  0
    4.3030   -3.1220   25.6800 O   0  0  0  0  0  0  0  0  0  0  0  0
    5.5990   -3.4260   25.4780 C   0  0  0  0  0  0  0  0  0  0  0  0
    6.8230   -4.2720   21.6360 N   0  0  0  0  0  0  0  0  0  0  0  0
    6.5640   -5.4110   22.4150 C   0  0  0  0  0  0  0  0  0  0  0  0
    6.0810   -5.1230   23.8120 C   0  0  0  0  0  0  0  0  0  0  0  0
    5.9890   -3.6200   23.9950 C   0  0  2  0  0  0  0  0  0  0  0  0
    7.1170   -2.9080   23.6450 C   0  0  0  0  0  0  0  0  0  0  0  0
    7.3840   -3.0830   22.2880 C   0  0  1  0  0  0  0  0  0  0  0  0
    7.7900   -4.2060   26.4740 C   0  0  0  0  0  0  0  0  0  0  0  0
    7.9040   -5.3400   27.3180 C   0  0  0  0  0  0  0  0  0  0  0  0
    7.3500   -5.1970   28.5950 C   0  0  0  0  0  0  0  0  0  0  0  0
    6.0520   -4.6780   28.5870 C   0  0  0  0  0  0  0  0  0  0  0  0
    6.0120   -3.4170   28.0120 C   0  0  0  0  0  0  0  0  0  0  0  0
    6.4870   -3.5120   26.6270 N   0  0  0  0  0  0  0  0  0  0  0  0
   13.2890   -0.0770   24.1350 F   0  0  0  0  0  0  0  0  0  0  0  0
    9.6990   -0.9790   24.5650 C   0  0  0  0  0  0  0  0  0  0  0  0
   11.0360   -0.5500   25.0130 C   0  0  0  0  0  0  0  0  0  0  0  0
   12.0610   -0.4480   23.9210 C   0  0  0  0  0  0  0  0  0  0  0  0
   11.6210   -0.8030   22.5110 C   0  0  0  0  0  0  0  0  0  0  0  0
   10.3870   -1.2280   21.9480 C   0  0  0  0  0  0  0  0  0  0  0  0
    9.4730   -1.2830   23.0830 C   0  0  0  0  0  0  0  0  0  0  0  0
    8.8930   -2.9120   22.0750 C   0  0  0  0  0  0  0  0  0  0  0  0
    9.0990   -1.6210   21.6700 C   0  0  0  0  0  0  0  0  0  0  0  0
  1  3  1  0
  2  3  2  0
  4  5  2  0
  3  6  1  0
  6  7  1  0
  7  8  1  0
  9  5  1  1
  8  9  1  0
  9 10  1  0
  6 11  1  0
 10 11  1  0
 12 13  1  0
 13 14  1  0
 14 15  1  0
 15 16  1  0
  5 17  1  0
 12 17  1  0
 16 17  1  0
 19 20  2  0
 18 21  1  0
 20 21  1  0
 21 22  2  0
 22 23  1  0
 19 24  1  0
 23 24  2  0
 11 25  1  1
 23 26  1  0
 25 26  1  0
M  END
