x0755-x0397
     RDKit          3D

 29 31  0  0  0  0  0  0  0  0999 V2000
    4.3840   -6.3610   26.2810 O   0  0  0  0  0  0  0  0  0  0  0  0
    6.2150   -4.7200   26.7830 O   0  0  0  0  0  0  0  0  0  0  0  0
    5.4580   -4.6400   19.9470 O   0  0  0  0  0  0  0  0  0  0  0  0
    6.4910   -4.5050   20.6040 C   0  0  0  0  0  0  0  0  0  0  0  0
    7.6660   -3.5940   20.1960 C   0  0  0  0  0  0  0  0  0  0  0  0
    2.1260   -5.4630   25.7190 F   0  0  0  0  0  0  0  0  0  0  0  0
    5.5200   -2.0990   26.1040 F   0  0  0  0  0  0  0  0  0  0  0  0
    5.0880   -5.1340   25.9800 S   0  0  0  0  0  0  0  0  0  0  0  0
    8.0380   -1.2630   20.9640 C   0  0  0  0  0  0  0  0  0  0  0  0
    7.2950   -2.1410   20.0500 N   0  0  0  0  0  0  0  0  0  0  0  0
    6.9700   -1.7270   18.7590 C   0  0  0  0  0  0  0  0  0  0  0  0
    3.7150    2.1490   19.4090 C   0  0  0  0  0  0  0  0  0  0  0  0
    2.5290   -4.1880   25.7960 C   0  0  0  0  0  0  0  0  0  0  0  0
    3.8940   -3.8540   25.9170 C   0  0  0  0  0  0  0  0  0  0  0  0
    4.2460   -2.4910   25.9910 C   0  0  0  0  0  0  0  0  0  0  0  0
    3.2730   -1.4930   25.9510 C   0  0  0  0  0  0  0  0  0  0  0  0
    1.9340   -1.8450   25.8380 C   0  0  0  0  0  0  0  0  0  0  0  0
    1.5580   -3.1880   25.7570 C   0  0  0  0  0  0  0  0  0  0  0  0
    6.6420   -5.2110   21.7960 N   0  0  0  0  0  0  0  0  0  0  0  0
    7.5540   -4.8620   22.8860 C   0  0  0  0  0  0  0  0  0  0  0  0
    6.8890   -4.4090   24.0370 C   0  0  0  0  0  0  0  0  0  0  0  0
    5.7350   -5.2910   24.4060 N   0  0  0  0  0  0  0  0  0  0  0  0
    4.8210   -5.6850   23.3330 C   0  0  0  0  0  0  0  0  0  0  0  0
    5.6260   -6.1970   22.1480 C   0  0  0  0  0  0  0  0  0  0  0  0
    5.1100   -0.0590   19.5510 C   0  0  0  0  0  0  0  0  0  0  0  0
    6.1550   -0.4750   18.7140 C   0  0  0  0  0  0  0  0  0  0  0  0
    6.3900    0.4330   17.7660 N   0  0  0  0  0  0  0  0  0  0  0  0
    5.5040    1.4560   17.9700 O   0  0  0  0  0  0  0  0  0  0  0  0
    4.7330    1.1580   19.0410 C   0  0  0  0  0  0  0  0  0  0  0  0
  3  4  2  0
  4  5  1  0
  1  8  2  0
  2  8  2  0
  5 10  1  0
  9 10  1  0
 10 11  1  0
  6 13  1  0
  8 14  1  0
 13 14  2  0
  7 15  1  0
 14 15  1  0
 15 16  2  0
 16 17  1  0
 13 18  1  0
 17 18  2  0
  4 19  1  0
 19 20  1  0
 20 21  1  0
  8 22  1  0
 21 22  1  0
 22 23  1  0
 19 24  1  0
 23 24  1  0
 11 26  1  0
 25 26  1  0
 26 27  2  0
 27 28  1  0
 12 29  1  0
 25 29  2  0
 28 29  1  0
M  END
