x0759-x2912
     RDKit          3D

 29 32  0  0  0  0  0  0  0  0999 V2000
    7.1310   -0.7940   21.1570 N   0  0  0  0  0  0  0  0  0  0  0  0
    8.1210   -1.1270   23.7230 C   0  0  0  0  0  0  0  0  0  0  0  0
    8.6810    1.0060   21.2870 O   0  0  0  0  0  0  0  0  0  0  0  0
    8.8390   -0.8770   22.4580 C   0  0  1  0  0  0  0  0  0  0  0  0
    8.2840   -0.1030   21.6180 C   0  0  0  0  0  0  0  0  0  0  0  0
   13.7270   -3.5120   20.5500 N   0  0  0  0  0  0  0  0  0  0  0  0
    4.7090    0.8760   21.7510 C   0  0  0  0  0  0  0  0  0  0  0  0
   13.2380   -2.4700   21.2530 C   0  0  0  0  0  0  0  0  0  0  0  0
    5.2830   -4.1790   19.7440 O   0  0  0  0  0  0  0  0  0  0  0  0
    6.2710   -3.5260   20.0780 C   0  0  0  0  0  0  0  0  0  0  0  0
    7.2580   -3.0540   19.0260 C   0  0  0  0  0  0  0  0  0  0  0  0
    6.1500    0.5130   17.7250 N   0  0  0  0  0  0  0  0  0  0  0  0
    5.1980    1.1890   17.9220 C   0  0  0  0  0  0  0  0  0  0  0  0
    4.6820    1.3360   19.2260 C   0  0  0  0  0  0  0  0  0  0  0  0
    5.2710    0.7030   20.3300 C   0  0  0  0  0  0  0  0  0  0  0  0
    6.3890   -0.0870   20.1100 C   0  0  0  0  0  0  0  0  0  0  0  0
    6.8220   -0.1800   18.8040 C   0  0  0  0  0  0  0  0  0  0  0  0
   10.7900    0.5720   23.1960 C   0  0  0  0  0  0  0  0  0  0  0  0
   12.2890    0.8670   23.2740 C   0  0  0  0  0  0  0  0  0  0  0  0
   13.2150   -0.1490   22.6270 C   0  0  0  0  0  0  0  0  0  0  0  0
   12.5630   -1.3840   21.9540 C   0  0  0  0  0  0  0  0  0  0  0  0
   11.0630   -1.5300   21.9710 C   0  0  0  0  0  0  0  0  0  0  0  0
   10.3060   -0.5680   22.5700 C   0  0  0  0  0  0  0  0  0  0  0  0
    6.5160   -3.2850   21.4200 N   0  0  0  0  0  0  0  0  0  0  0  0
    6.6060   -1.9460   22.0150 C   0  0  1  0  0  0  0  0  0  0  0  0
    7.1340   -2.1980   23.3210 C   0  0  1  0  0  0  0  0  0  0  0  0
    7.9050   -3.4250   23.4430 O   0  0  0  0  0  0  0  0  0  0  0  0
    7.1060   -4.4990   23.2440 C   0  0  0  0  0  0  0  0  0  0  0  0
    6.1140   -4.2380   22.2980 C   0  0  0  0  0  0  0  0  0  0  0  0
  2  4  1  0
  1  5  1  0
  3  5  2  0
  4  5  1  0
  6  8  3  0
  9 10  2  0
 10 11  1  0
 12 13  2  0
 13 14  1  0
  7 15  1  0
 14 15  2  0
  1 16  1  0
 15 16  1  0
 12 17  1  0
 16 17  2  0
 18 19  2  0
 19 20  1  0
  8 21  1  0
 20 21  2  0
 21 22  1  0
  4 23  1  1
 18 23  1  0
 22 23  2  0
 10 24  1  0
 25  1  1  6
 24 25  1  0
 26  2  1  6
 25 26  1  0
 26 27  1  0
 27 28  1  0
 24 29  1  0
 28 29  1  0
M  END
