x0759-x0387
     RDKit          3D

 24 26  0  0  0  0  0  0  0  0999 V2000
    5.3340   -4.1380   19.7050 O   0  0  0  0  0  0  0  0  0  0  0  0
    6.2790   -3.3860   19.9380 C   0  0  0  0  0  0  0  0  0  0  0  0
    7.3080   -3.0170   18.8710 C   0  0  0  0  0  0  0  0  0  0  0  0
   13.1400    0.3320   23.5980 F   0  0  0  0  0  0  0  0  0  0  0  0
    6.4470   -2.8660   21.2030 N   0  0  0  0  0  0  0  0  0  0  0  0
    7.3520   -1.7820   21.4880 C   0  0  0  0  0  0  0  0  0  0  0  0
    8.1130   -2.2430   22.6940 C   0  0  1  0  0  0  0  0  0  0  0  0
    8.3700   -3.6610   22.6900 N   0  0  0  0  0  0  0  0  0  0  0  0
    7.2400   -4.3490   23.0610 C   0  0  0  0  0  0  0  0  0  0  0  0
    6.1170   -3.7960   22.2150 C   0  0  0  0  0  0  0  0  0  0  0  0
    9.6630   -0.6300   24.0020 C   0  0  0  0  0  0  0  0  0  0  0  0
   10.9070   -0.0130   24.2030 C   0  0  0  0  0  0  0  0  0  0  0  0
   11.9800   -0.2880   23.3680 C   0  0  0  0  0  0  0  0  0  0  0  0
   11.8350   -1.1940   22.3140 C   0  0  0  0  0  0  0  0  0  0  0  0
   10.5950   -1.8090   22.1110 C   0  0  0  0  0  0  0  0  0  0  0  0
    9.5070   -1.5310   22.9480 C   0  0  0  0  0  0  0  0  0  0  0  0
    9.2380   -5.5880   27.9020 O   0  0  0  0  0  0  0  0  0  0  0  0
    9.3100   -4.4880   27.0380 C   0  0  0  0  0  0  0  0  0  0  0  0
    8.0120   -4.2670   26.2990 C   0  0  0  0  0  0  0  0  0  0  0  0
    8.0730   -3.0240   25.3980 C   0  0  0  0  0  0  0  0  0  0  0  0
    9.3690   -2.9380   24.5650 N   0  0  0  0  0  0  0  0  0  0  0  0
   10.6060   -3.1800   25.3710 C   0  0  0  0  0  0  0  0  0  0  0  0
   10.5490   -4.5440   26.1080 C   0  0  0  0  0  0  0  0  0  0  0  0
    9.3850   -3.9060   23.5110 C   0  0  0  0  0  0  0  0  0  0  0  0
  1  2  2  0
  2  3  1  0
  2  5  1  0
  5  6  1  0
  6  7  1  0
  7  8  1  0
  8  9  1  0
  5 10  1  0
  9 10  1  0
 11 12  2  0
  4 13  1  0
 12 13  1  0
 13 14  2  0
 14 15  1  0
  7 16  1  6
 11 16  1  0
 15 16  2  0
 17 18  1  0
 18 19  1  0
 19 20  1  0
 20 21  1  0
 21 22  1  0
 18 23  1  0
 22 23  1  0
  8 24  1  0
 21 24  1  0
M  END
