x0769-x3110
     RDKit          3D

 49 52  0  0  0  0  0  0  0  0999 V2000
    8.2130    1.2910   23.3840 N   0  0  0  0  0  0  0  0  0  0  0  0
   13.4220    5.2820   22.8890 C   0  0  0  0  0  0  0  0  0  0  0  0
   12.0360    3.3560   22.2870 O   0  0  0  0  0  0  0  0  0  0  0  0
   12.5550    4.5490   21.9190 C   0  0  0  0  0  0  0  0  0  0  0  0
    7.0780   -1.4060   21.8900 N   0  0  0  0  0  0  0  0  0  0  0  0
   11.2240    4.5300   24.2110 O   0  0  0  0  0  0  0  0  0  0  0  0
   11.1980    3.4510   23.4060 C   0  0  0  0  0  0  0  0  0  0  0  0
    8.6800    1.5570   21.1380 O   0  0  0  0  0  0  0  0  0  0  0  0
   10.2370    2.1920   23.5970 C   0  0  0  0  0  0  0  0  0  0  0  0
    8.9070    2.4640   23.5020 C   0  0  0  0  0  0  0  0  0  0  0  0
    7.9750    1.0160   22.0090 C   0  0  0  0  0  0  0  0  0  0  0  0
    6.8110    0.0640   21.7090 C   0  0  1  0  0  0  0  0  0  0  0  0
   12.3200   -1.8940   24.2860 C   0  0  0  0  0  0  0  0  0  0  0  0
   12.7280   -0.5570   24.8400 C   0  0  0  0  0  0  0  0  0  0  0  0
   13.3130   -1.3110   23.6000 C   0  0  0  0  0  0  0  0  0  0  0  0
   12.7520   -3.0020   24.9180 C   0  0  0  0  0  0  0  0  0  0  0  0
    5.7810   -5.1920   27.1650 O   0  0  0  0  0  0  0  0  0  0  0  0
    3.9060   -6.5260   26.1680 O   0  0  0  0  0  0  0  0  0  0  0  0
    5.7060   -5.3400   19.9800 O   0  0  0  0  0  0  0  0  0  0  0  0
    6.3100   -4.4230   20.4810 C   0  0  0  0  0  0  0  0  0  0  0  0
    7.0660   -3.4060   19.6350 C   0  0  0  0  0  0  0  0  0  0  0  0
    5.6490   -2.3430   26.3830 F   0  0  0  0  0  0  0  0  0  0  0  0
    4.7860   -5.3760   26.1460 S   0  0  0  0  0  0  0  0  0  0  0  0
    6.0820   -2.0240   22.7510 C   0  0  0  0  0  0  0  0  0  0  0  0
    5.3270   -3.0390   22.1890 C   0  0  0  0  0  0  0  0  0  0  0  0
    6.3710    0.4100   17.8360 N   0  0  0  0  0  0  0  0  0  0  0  0
    5.2920    1.2250   17.7850 C   0  0  0  0  0  0  0  0  0  0  0  0
    4.5270    1.7780   18.9740 C   0  0  0  0  0  0  0  0  0  0  0  0
    5.0240    1.3870   20.3620 C   0  0  0  0  0  0  0  0  0  0  0  0
    6.2590    0.4670   20.3780 C   0  0  0  0  0  0  0  0  0  0  0  0
    6.8450    0.0360   19.0370 C   0  0  0  0  0  0  0  0  0  0  0  0
    9.3840   -1.8880   21.7240 C   0  0  0  0  0  0  0  0  0  0  0  0
   10.7790   -2.0310   22.3030 C   0  0  0  0  0  0  0  0  0  0  0  0
   10.9610   -1.8000   23.6720 C   0  0  0  0  0  0  0  0  0  0  0  0
    9.9120   -1.4580   24.5040 C   0  0  0  0  0  0  0  0  0  0  0  0
    8.5580   -1.3100   24.0020 C   0  0  0  0  0  0  0  0  0  0  0  0
    8.3160   -1.5350   22.5250 C   0  0  0  0  0  0  0  0  0  0  0  0
    4.3390   -2.5280   26.1840 C   0  0  0  0  0  0  0  0  0  0  0  0
    3.7530   -3.9590   26.0410 C   0  0  0  0  0  0  0  0  0  0  0  0
    2.2400   -4.1550   25.8120 C   0  0  0  0  0  0  0  0  0  0  0  0
    1.3990   -2.8880   25.7470 C   0  0  0  0  0  0  0  0  0  0  0  0
    2.0460   -1.5140   25.9010 C   0  0  0  0  0  0  0  0  0  0  0  0
    3.5450   -1.3790   26.1190 C   0  0  0  0  0  0  0  0  0  0  0  0
    6.1300   -4.3450   21.9850 C   0  0  0  0  0  0  0  0  0  0  0  0
    5.3140   -5.6260   22.2250 C   0  0  0  0  0  0  0  0  0  0  0  0
    4.5900   -5.6370   23.5430 C   0  0  0  0  0  0  0  0  0  0  0  0
    5.5820   -5.4590   24.6320 N   0  0  0  0  0  0  0  0  0  0  0  0
    6.5600   -4.3440   24.3770 C   0  0  0  0  0  0  0  0  0  0  0  0
    7.2370   -4.5000   23.0060 C   0  0  0  0  0  0  0  0  0  0  0  0
  2  4  1  0
  3  4  1  0
  3  7  1  0
  6  7  2  0
  7  9  1  0
  1 10  1  0
  9 10  1  0
  1 11  1  0
  8 11  2  0
  5 12  1  0
 12 11  1  6
 13 14  1  0
 13 15  1  0
 13 16  1  0
 19 20  2  0
 20 21  1  0
 17 23  2  0
 18 23  2  0
  5 24  1  0
 24 25  1  0
 26 27  2  0
 27 28  1  0
 28 29  2  0
 12 30  1  0
 29 30  1  0
 26 31  1  0
 30 31  2  0
 32 33  2  0
 13 34  1  0
 33 34  1  0
 34 35  2  0
 35 36  1  0
  5 37  1  0
 32 37  1  0
 36 37  2  0
 22 38  1  0
 23 39  1  0
 38 39  2  0
 39 40  1  0
 40 41  2  0
 41 42  1  0
 38 43  1  0
 42 43  2  0
 44 20  1  0
 25 44  1  0
 44 45  1  0
 45 46  1  0
 23 47  1  0
 46 47  1  0
 47 48  1  0
 44 49  1  0
 48 49  1  0
M  END
