x0769-x2193-x3110
     RDKit          3D

 55 59  0  0  0  0  0  0  0  0999 V2000
    8.0440    1.5240   23.2990 N   0  0  0  0  0  0  0  0  0  0  0  0
   13.4040    5.2360   22.9020 C   0  0  0  0  0  0  0  0  0  0  0  0
   12.0900    3.2360   22.4340 O   0  0  0  0  0  0  0  0  0  0  0  0
   12.4810    4.5100   21.9510 C   0  0  0  0  0  0  0  0  0  0  0  0
    7.5120   -1.3400   21.6490 N   0  0  0  0  0  0  0  0  0  0  0  0
   11.1450    4.2620   24.0670 O   0  0  0  0  0  0  0  0  0  0  0  0
   11.2410    3.2540   23.3770 C   0  0  0  0  0  0  0  0  0  0  0  0
    8.7130    1.6710   21.1280 O   0  0  0  0  0  0  0  0  0  0  0  0
   10.3420    2.0600   23.6610 C   0  0  0  0  0  0  0  0  0  0  0  0
    8.8980    2.5170   23.7340 C   0  0  0  0  0  0  0  0  0  0  0  0
    7.9810    1.1470   21.9800 C   0  0  0  0  0  0  0  0  0  0  0  0
    6.9190    0.0410   21.6710 C   0  0  1  0  0  0  0  0  0  0  0  0
   12.5150   -1.9460   24.3210 C   0  0  0  0  0  0  0  0  0  0  0  0
   12.6910   -0.6200   25.0380 C   0  0  0  0  0  0  0  0  0  0  0  0
   13.5110   -2.0480   23.1860 C   0  0  0  0  0  0  0  0  0  0  0  0
   12.8290   -3.0990   25.2850 C   0  0  0  0  0  0  0  0  0  0  0  0
    6.3480    0.4170   17.7570 N   0  0  0  0  0  0  0  0  0  0  0  0
    5.2690    1.2470   17.7640 C   0  0  0  0  0  0  0  0  0  0  0  0
    4.5700    1.7800   18.9500 C   0  0  0  0  0  0  0  0  0  0  0  0
    5.1100    1.3760   20.3100 C   0  0  0  0  0  0  0  0  0  0  0  0
    6.3110    0.4640   20.3750 C   0  0  0  0  0  0  0  0  0  0  0  0
    6.8680    0.0220   19.0500 C   0  0  0  0  0  0  0  0  0  0  0  0
    9.8090   -1.2760   21.6910 C   0  0  0  0  0  0  0  0  0  0  0  0
   11.1710   -1.3890   22.2020 C   0  0  0  0  0  0  0  0  0  0  0  0
   11.2000   -1.8130   23.6120 C   0  0  0  0  0  0  0  0  0  0  0  0
    9.8380   -2.0660   24.2570 C   0  0  0  0  0  0  0  0  0  0  0  0
    8.5060   -1.9740   23.7660 C   0  0  0  0  0  0  0  0  0  0  0  0
    8.6670   -1.5430   22.4070 C   0  0  0  0  0  0  0  0  0  0  0  0
    5.6790   -5.6790   26.9050 N   0  0  0  0  0  0  0  0  0  0  0  0
    3.6860   -6.4470   25.4810 O   0  0  0  0  0  0  0  0  0  0  0  0
    5.2610   -4.4930   19.8830 O   0  0  0  0  0  0  0  0  0  0  0  0
    6.3390   -4.3990   20.4560 C   0  0  0  0  0  0  0  0  0  0  0  0
    7.3830   -3.4100   19.9300 C   0  0  0  0  0  0  0  0  0  0  0  0
    5.4820   -2.6600   26.1570 F   0  0  0  0  0  0  0  0  0  0  0  0
    4.6910   -5.4360   25.7450 S   0  0  1  0  0  0  0  0  0  0  0  0
    6.8290   -4.8170   27.2370 C   0  0  0  0  0  0  0  0  0  0  0  0
    8.0890   -5.9620   25.4360 N   0  0  0  0  0  0  0  0  0  0  0  0
    7.8700   -4.8100   26.3030 C   0  0  2  0  0  0  0  0  0  0  0  0
    9.1000   -4.3030   26.5960 C   0  0  0  0  0  0  0  0  0  0  0  0
    9.5670   -3.5360   25.4640 N   0  0  0  0  0  0  0  0  0  0  0  0
    9.6850   -4.4890   24.3530 C   0  0  0  0  0  0  0  0  0  0  0  0
    9.3970   -5.8290   24.7410 C   0  0  0  0  0  0  0  0  0  0  0  0
    4.1510   -2.6900   26.0700 C   0  0  0  0  0  0  0  0  0  0  0  0
    3.7150   -3.9990   25.8760 C   0  0  0  0  0  0  0  0  0  0  0  0
    2.2130   -4.1210   25.7660 C   0  0  0  0  0  0  0  0  0  0  0  0
    1.4360   -2.8230   25.8820 C   0  0  0  0  0  0  0  0  0  0  0  0
    2.2410   -1.5180   26.0980 C   0  0  0  0  0  0  0  0  0  0  0  0
    3.8020   -1.4550   26.2050 C   0  0  0  0  0  0  0  0  0  0  0  0
    6.6110   -5.1990   21.5660 N   0  0  0  0  0  0  0  0  0  0  0  0
    5.7860   -6.3420   21.9300 C   0  0  0  0  0  0  0  0  0  0  0  0
    4.8430   -6.0030   23.1120 C   0  0  0  0  0  0  0  0  0  0  0  0
    5.5290   -5.4150   24.2650 N   0  0  0  0  0  0  0  0  0  0  0  0
    6.3870   -4.2930   23.8440 C   0  0  0  0  0  0  0  0  0  0  0  0
    7.3500   -4.6450   22.6910 C   0  0  0  0  0  0  0  0  0  0  0  0
    8.6060   -2.4160   25.1920 C   0  0  0  0  0  0  0  0  0  0  0  0
  2  4  1  0
  3  4  1  0
  3  7  1  0
  6  7  2  0
  7  9  1  0
  1 10  1  0
  9 10  1  0
  1 11  1  0
  8 11  2  0
 12  5  1  6
 11 12  1  0
 13 14  1  0
 13 15  1  0
 13 16  1  0
 17 18  2  0
 18 19  1  0
 19 20  2  0
 12 21  1  0
 20 21  1  0
 17 22  1  0
 21 22  2  0
 23 24  2  0
 13 25  1  0
 24 25  1  0
 25 26  2  0
 26 27  1  0
  5 28  1  0
 23 28  1  0
 27 28  2  0
 31 32  2  0
 32 33  1  0
 29 35  2  0
 30 35  2  0
 29 36  1  0
 38 36  1  1
 37 38  1  0
 38 39  1  0
 39 40  1  0
 40 41  1  0
 37 42  1  0
 41 42  1  0
 34 43  1  0
 35 44  1  1
 43 44  2  0
 44 45  1  0
 45 46  2  0
 46 47  1  0
 43 48  1  0
 47 48  2  0
 32 49  1  0
 49 50  1  0
 50 51  1  0
 35 52  1  0
 51 52  1  0
 52 53  1  0
 49 54  1  0
 53 54  1  0
 27 55  1  0
 40 55  1  0
M  END
