x0769-x0991
     RDKit          3D

 24 25  0  0  0  0  0  0  0  0999 V2000
    5.8900   -5.1970   26.9050 O   0  0  0  0  0  0  0  0  0  0  0  0
    4.1140   -6.5380   25.7660 O   0  0  0  0  0  0  0  0  0  0  0  0
    5.2130   -4.5230   19.8660 O   0  0  0  0  0  0  0  0  0  0  0  0
    6.2530   -4.2460   20.4270 C   0  0  0  0  0  0  0  0  0  0  0  0
    7.2720   -3.3240   19.7340 C   0  0  0  0  0  0  0  0  0  0  0  0
    5.6980   -2.2670   26.1860 F   0  0  0  0  0  0  0  0  0  0  0  0
    4.9580   -5.3640   25.8210 S   0  0  0  0  0  0  0  0  0  0  0  0
    9.8830   -5.8640   24.9790 N   0  0  0  0  0  0  0  0  0  0  0  0
    8.9500   -3.5740   23.2700 C   0  0  0  0  0  0  0  0  0  0  0  0
    8.1920   -4.8190   23.9420 C   0  0  1  0  0  0  0  0  0  0  0  0
    8.0880   -4.9890   26.3550 N   0  0  0  0  0  0  0  0  0  0  0  0
    8.7000   -5.2200   25.1430 C   0  0  0  0  0  0  0  0  0  0  0  0
    4.3980   -2.5420   26.0380 C   0  0  0  0  0  0  0  0  0  0  0  0
    3.8640   -3.9630   25.8450 C   0  0  0  0  0  0  0  0  0  0  0  0
    2.3470   -4.1740   25.6820 C   0  0  0  0  0  0  0  0  0  0  0  0
    1.4610   -2.9260   25.7300 C   0  0  0  0  0  0  0  0  0  0  0  0
    2.0570   -1.5150   25.9320 C   0  0  0  0  0  0  0  0  0  0  0  0
    3.3990   -1.4000   26.0650 C   0  0  0  0  0  0  0  0  0  0  0  0
    6.4690   -4.7640   21.6900 N   0  0  0  0  0  0  0  0  0  0  0  0
    6.0010   -5.9730   22.0380 C   0  0  0  0  0  0  0  0  0  0  0  0
    5.2020   -6.0650   23.1770 C   0  0  0  0  0  0  0  0  0  0  0  0
    5.8640   -5.3530   24.3410 N   0  0  0  0  0  0  0  0  0  0  0  0
    6.7450   -4.3460   24.0420 C   0  0  2  0  0  0  0  0  0  0  0  0
    6.3460   -3.8450   22.8290 C   0  0  0  0  0  0  0  0  0  0  0  0
  3  4  2  0
  4  5  1  0
  1  7  2  0
  2  7  2  0
 10  9  1  1
  8 12  2  3
 10 12  1  0
 11 12  1  0
  6 13  1  0
  7 14  1  0
 13 14  2  0
 14 15  1  0
 15 16  2  0
 16 17  1  0
 13 18  1  0
 17 18  2  0
  4 19  1  0
 19 20  1  0
 20 21  1  0
  7 22  1  0
 21 22  1  0
 10 23  1  0
 22 23  1  0
 19 24  1  0
 23 24  1  6
M  END
