x0769-x2764
     RDKit          3D

 37 40  0  0  0  0  0  0  0  0999 V2000
    5.7100   -5.2840   26.9500 O   0  0  0  0  0  0  0  0  0  0  0  0
    3.8310   -6.5500   25.8620 O   0  0  0  0  0  0  0  0  0  0  0  0
    5.2810   -4.7390   19.9600 O   0  0  0  0  0  0  0  0  0  0  0  0
    6.2690   -4.3740   20.5820 C   0  0  0  0  0  0  0  0  0  0  0  0
    7.1330   -3.2540   20.0060 C   0  0  0  0  0  0  0  0  0  0  0  0
    5.7700   -2.2500   26.2470 F   0  0  0  0  0  0  0  0  0  0  0  0
    4.7170   -5.4120   25.9100 S   0  0  0  0  0  0  0  0  0  0  0  0
    8.5920   -1.5700   21.1790 N   0  0  0  0  0  0  0  0  0  0  0  0
    7.2870   -2.0200   20.7110 C   0  0  0  0  0  0  0  0  0  0  0  0
    9.0660   -2.2190   22.4130 C   0  0  0  0  0  0  0  0  0  0  0  0
    7.0430    0.7080   21.9640 O   0  0  0  0  0  0  0  0  0  0  0  0
    7.7920    4.2010   22.6550 N   0  0  0  0  0  0  0  0  0  0  0  0
    6.8760    1.7970   22.5240 C   0  0  0  0  0  0  0  0  0  0  0  0
    7.9310    2.8440   22.0710 C   0  0  0  0  0  0  0  0  0  0  0  0
    4.4660   -2.5090   26.1060 C   0  0  0  0  0  0  0  0  0  0  0  0
    3.7810   -3.8930   25.9360 C   0  0  0  0  0  0  0  0  0  0  0  0
    2.2720   -4.0710   25.7810 C   0  0  0  0  0  0  0  0  0  0  0  0
    1.3620   -2.8510   25.7930 C   0  0  0  0  0  0  0  0  0  0  0  0
    1.9020   -1.6370   25.9400 C   0  0  0  0  0  0  0  0  0  0  0  0
    3.2680   -1.4220   26.0820 C   0  0  0  0  0  0  0  0  0  0  0  0
    6.6100   -4.9730   21.7850 N   0  0  0  0  0  0  0  0  0  0  0  0
    5.8640   -6.0490   22.1400 C   0  0  0  0  0  0  0  0  0  0  0  0
    4.9520   -5.9670   23.2030 C   0  0  0  0  0  0  0  0  0  0  0  0
    5.5460   -5.3670   24.4110 N   0  0  0  0  0  0  0  0  0  0  0  0
    6.3180   -4.1590   24.1110 C   0  0  0  0  0  0  0  0  0  0  0  0
    7.1110   -4.2780   22.8190 C   0  0  0  0  0  0  0  0  0  0  0  0
   12.8570   -1.5680   22.4820 N   0  0  0  0  0  0  0  0  0  0  0  0
   11.6900   -1.8500   21.9110 C   0  0  0  0  0  0  0  0  0  0  0  0
   10.4690   -1.9200   22.8210 C   0  0  0  0  0  0  0  0  0  0  0  0
   10.9810   -1.6280   24.2370 C   0  0  0  0  0  0  0  0  0  0  0  0
   12.6740   -1.3620   24.1330 S   0  0  0  0  0  0  0  0  0  0  0  0
    6.2330   -0.9540   18.7160 C   0  0  0  0  0  0  0  0  0  0  0  0
    5.6540    0.1220   18.0310 C   0  0  0  0  0  0  0  0  0  0  0  0
    5.5040    1.4890   18.6510 C   0  0  0  0  0  0  0  0  0  0  0  0
    5.9750    1.6530   19.9570 C   0  0  0  0  0  0  0  0  0  0  0  0
    6.5520    0.5680   20.6300 C   0  0  0  0  0  0  0  0  0  0  0  0
    6.6970   -0.8010   20.0220 C   0  0  0  0  0  0  0  0  0  0  0  0
  3  4  2  0
  4  5  1  0
  1  7  2  0
  2  7  2  0
  5  9  2  3
  8  9  1  0
  8 10  1  0
 11 13  1  0
 12 14  3  0
 13 14  1  0
  6 15  1  0
  7 16  1  0
 15 16  2  0
 16 17  1  0
 17 18  2  0
 18 19  1  0
 15 20  1  0
 19 20  2  0
  4 21  1  0
 21 22  1  0
 22 23  1  0
  7 24  1  0
 23 24  1  0
 24 25  1  0
 21 26  1  0
 25 26  1  0
 27 28  2  0
 10 29  1  0
 28 29  1  0
 29 30  2  0
 27 31  1  0
 30 31  1  0
 32 33  2  0
 33 34  1  0
 34 35  2  0
 11 36  1  0
 35 36  1  0
  9 37  1  0
 32 37  1  0
 36 37  2  0
M  END
