x0769-x0072
     RDKit          3D

 31 34  0  0  0  0  0  0  0  0999 V2000
    6.3390   -4.8050   26.8350 N   0  0  0  0  0  0  0  0  0  0  0  0
    4.4890   -6.4440   26.1110 O   0  0  0  0  0  0  0  0  0  0  0  0
    5.2480   -4.5320   19.8910 O   0  0  0  0  0  0  0  0  0  0  0  0
    6.3100   -4.3580   20.4650 C   0  0  0  0  0  0  0  0  0  0  0  0
    7.3480   -3.4140   19.8540 C   0  0  0  0  0  0  0  0  0  0  0  0
    5.7310   -2.1370   26.2150 F   0  0  0  0  0  0  0  0  0  0  0  0
    5.1000   -5.1840   25.7510 S   0  0  1  0  0  0  0  0  0  0  0  0
    7.8050   -4.7250   26.3550 S   0  0  0  0  0  0  0  0  0  0  0  0
    8.4980   -5.9620   26.0600 O   0  0  0  0  0  0  0  0  0  0  0  0
    8.5570   -3.7330   27.1060 O   0  0  0  0  0  0  0  0  0  0  0  0
    7.7780   -3.9290   24.8310 N   0  0  0  0  0  0  0  0  0  0  0  0
    9.1070   -3.3850   24.4190 C   0  0  0  0  0  0  0  0  0  0  0  0
    9.0590   -2.0480   23.5310 C   0  0  0  0  0  0  0  0  0  0  0  0
    4.4320   -2.4090   26.0860 C   0  0  0  0  0  0  0  0  0  0  0  0
    3.9260   -3.8480   25.8510 C   0  0  0  0  0  0  0  0  0  0  0  0
    2.4330   -4.1430   25.7040 C   0  0  0  0  0  0  0  0  0  0  0  0
    1.4030   -3.0070   25.7920 C   0  0  0  0  0  0  0  0  0  0  0  0
    1.8820   -1.5750   26.0260 C   0  0  0  0  0  0  0  0  0  0  0  0
    3.3900   -1.2490   26.1740 C   0  0  0  0  0  0  0  0  0  0  0  0
    6.5630   -5.0290   21.6530 N   0  0  0  0  0  0  0  0  0  0  0  0
    5.8840   -6.1410   21.9860 C   0  0  0  0  0  0  0  0  0  0  0  0
    5.1310   -5.8300   23.1110 C   0  0  0  0  0  0  0  0  0  0  0  0
    5.9100   -5.3110   24.2450 N   0  0  0  0  0  0  0  0  0  0  0  0
    6.7640   -4.3020   23.8850 C   0  0  2  0  0  0  0  0  0  0  0  0
    7.3370   -4.5720   22.6460 C   0  0  0  0  0  0  0  0  0  0  0  0
   10.4150   -1.3770   23.3470 C   0  0  0  0  0  0  0  0  0  0  0  0
   11.4440   -1.9770   22.3720 C   0  0  0  0  0  0  0  0  0  0  0  0
   12.7990   -1.3190   22.1680 C   0  0  0  0  0  0  0  0  0  0  0  0
   13.1480   -0.0410   22.9330 C   0  0  0  0  0  0  0  0  0  0  0  0
   12.0570    0.4840   23.8870 C   0  0  0  0  0  0  0  0  0  0  0  0
   10.7010   -0.2100   24.0730 C   0  0  0  0  0  0  0  0  0  0  0  0
  3  4  2  0
  4  5  1  0
  1  7  2  0
  2  7  2  0
  8  1  1  0
  8  9  2  0
  8 10  2  0
  8 11  1  0
 11 12  1  0
 12 13  1  0
  6 14  1  0
  7 15  1  6
 14 15  2  0
 15 16  1  0
 16 17  2  0
 17 18  1  0
 14 19  1  0
 18 19  2  0
  4 20  1  0
 20 21  1  0
 21 22  1  0
  7 23  1  0
 22 23  1  0
 11 24  1  0
 23 24  1  0
 20 25  1  0
 24 25  1  6
 13 26  1  0
 26 27  2  0
 27 28  1  0
 28 29  2  0
 29 30  1  0
 26 31  1  0
 30 31  2  0
M  END
