x0769-x3305
     RDKit          3D

 37 40  0  0  0  0  0  0  0  0999 V2000
    3.5180   -7.4450   24.1490 C   0  0  0  0  0  0  0  0  0  0  0  0
    5.8180   -3.7600   20.6460 C   0  0  0  0  0  0  0  0  0  0  0  0
    7.8590   -3.7780   21.9340 N   0  0  0  0  0  0  0  0  0  0  0  0
    7.2290   -1.8580   20.6600 N   0  0  0  0  0  0  0  0  0  0  0  0
    7.0540   -3.7190   23.1710 C   0  0  0  0  0  0  0  0  0  0  0  0
    7.2930   -3.3610   20.6300 C   0  0  2  0  0  0  0  0  0  0  0  0
    8.1190   -1.0960   21.4230 C   0  0  0  0  0  0  0  0  0  0  0  0
    9.2780   -1.8970   22.0660 C   0  0  0  0  0  0  0  0  0  0  0  0
    7.0370   -1.2210   19.3100 C   0  0  0  0  0  0  0  0  0  0  0  0
    5.2340   -4.5000   19.8720 O   0  0  0  0  0  0  0  0  0  0  0  0
    6.0890   -4.5670   26.4820 O   0  0  0  0  0  0  0  0  0  0  0  0
    4.0820   -6.2680   26.4490 O   0  0  0  0  0  0  0  0  0  0  0  0
    5.5870   -2.0760   26.2410 F   0  0  0  0  0  0  0  0  0  0  0  0
    4.8800   -5.0240   25.8530 S   0  0  0  0  0  0  0  0  0  0  0  0
    4.5100   -6.5710   23.5910 N   0  0  0  0  0  0  0  0  0  0  0  0
    5.1490   -5.5270   24.1680 C   0  0  0  0  0  0  0  0  0  0  0  0
    6.0720   -4.9510   23.1090 C   0  0  0  0  0  0  0  0  0  0  0  0
    5.8900   -5.7410   22.0180 N   0  0  0  0  0  0  0  0  0  0  0  0
    4.9570   -6.6990   22.3200 N   0  0  0  0  0  0  0  0  0  0  0  0
    5.4600    1.7150   17.7690 N   0  0  0  0  0  0  0  0  0  0  0  0
    6.2040    0.6940   18.1630 C   0  0  0  0  0  0  0  0  0  0  0  0
    5.9950   -0.1030   19.1970 C   0  0  0  0  0  0  0  0  0  0  0  0
    4.9130    0.1430   19.9970 C   0  0  0  0  0  0  0  0  0  0  0  0
    4.0850    1.2100   19.6760 C   0  0  0  0  0  0  0  0  0  0  0  0
    4.3960    1.9730   18.5430 C   0  0  0  0  0  0  0  0  0  0  0  0
   10.4990    0.2450   22.8420 C   0  0  0  0  0  0  0  0  0  0  0  0
   11.7960    1.0530   23.1060 C   0  0  0  0  0  0  0  0  0  0  0  0
   13.1270    0.4020   22.8350 C   0  0  0  0  0  0  0  0  0  0  0  0
   13.2260   -1.0230   22.3150 C   0  0  0  0  0  0  0  0  0  0  0  0
   11.8990   -1.7170   22.0880 C   0  0  0  0  0  0  0  0  0  0  0  0
   10.5460   -1.0810   22.3500 C   0  0  0  0  0  0  0  0  0  0  0  0
    4.2750   -2.3000   26.0880 C   0  0  0  0  0  0  0  0  0  0  0  0
    3.7380   -3.7110   25.8790 C   0  0  0  0  0  0  0  0  0  0  0  0
    2.3570   -3.9360   25.7190 C   0  0  0  0  0  0  0  0  0  0  0  0
    1.4540   -2.8780   25.7520 C   0  0  0  0  0  0  0  0  0  0  0  0
    1.8790   -1.4830   25.9520 C   0  0  0  0  0  0  0  0  0  0  0  0
    3.3730   -1.2160   26.1230 C   0  0  0  0  0  0  0  0  0  0  0  0
  3  5  1  0
  6  2  1  1
  3  6  1  0
  4  6  1  0
  4  7  1  0
  7  8  1  0
  4  9  1  0
  2 10  2  0
 11 14  2  0
 12 14  2  0
  1 15  1  0
 14 16  1  0
 15 16  1  0
  5 17  1  0
 16 17  2  0
 17 18  1  0
 15 19  1  0
 18 19  2  0
 20 21  2  0
  9 22  1  0
 21 22  1  0
 22 23  2  0
 23 24  1  0
 20 25  1  0
 24 25  2  0
 26 27  2  0
 27 28  1  0
 28 29  2  0
 29 30  1  0
  8 31  1  0
 26 31  1  0
 30 31  2  0
 13 32  1  0
 14 33  1  0
 32 33  2  0
 33 34  1  0
 34 35  2  0
 35 36  1  0
 32 37  1  0
 36 37  2  0
M  END
