x0769-x2540
     RDKit          3D

 45 48  0  0  0  0  0  0  0  0999 V2000
    7.3320   -0.9630   22.1690 N   0  0  0  0  0  0  0  0  0  0  0  0
    8.1070    1.9290   23.2930 N   0  0  0  0  0  0  0  0  0  0  0  0
    8.7760    1.5640   20.9800 O   0  0  0  0  0  0  0  0  0  0  0  0
    7.0630    0.1780   21.8960 C   0  0  1  0  0  0  0  0  0  0  0  0
    8.0620    1.2990   22.0990 C   0  0  0  0  0  0  0  0  0  0  0  0
    9.2530    2.8470   23.3990 C   0  0  0  0  0  0  0  0  0  0  0  0
    9.0750    3.3270   24.9220 C   0  0  0  0  0  0  0  0  0  0  0  0
    8.6580    3.9890   22.5530 C   0  0  0  0  0  0  0  0  0  0  0  0
   10.6930    3.3910   23.3170 C   0  0  0  0  0  0  0  0  0  0  0  0
   12.2840   -1.2480   23.1930 C   0  0  0  0  0  0  0  0  0  0  0  0
   12.8430   -1.8900   21.9300 C   0  0  0  0  0  0  0  0  0  0  0  0
   12.7470    0.0050   23.5790 C   0  0  0  0  0  0  0  0  0  0  0  0
   12.6920   -2.2400   24.2680 C   0  0  0  0  0  0  0  0  0  0  0  0
    5.7990   -5.0430   27.1630 O   0  0  0  0  0  0  0  0  0  0  0  0
    3.9030   -6.6200   26.1560 O   0  0  0  0  0  0  0  0  0  0  0  0
    5.7850   -4.4130   19.7870 O   0  0  0  0  0  0  0  0  0  0  0  0
    6.6420   -4.0520   20.5590 C   0  0  0  0  0  0  0  0  0  0  0  0
    7.9870   -3.4680   20.2050 C   0  0  0  0  0  0  0  0  0  0  0  0
    5.6260   -2.4440   26.3900 F   0  0  0  0  0  0  0  0  0  0  0  0
    4.8240   -5.3220   26.1400 S   0  0  0  0  0  0  0  0  0  0  0  0
    6.4080   -1.7580   22.9450 C   0  0  0  0  0  0  0  0  0  0  0  0
    5.6320   -2.6740   22.1960 C   0  0  0  0  0  0  0  0  0  0  0  0
    6.3800    0.1120   18.0000 N   0  0  0  0  0  0  0  0  0  0  0  0
    5.2040    0.9840   17.8750 C   0  0  0  0  0  0  0  0  0  0  0  0
    4.5500    1.6400   19.0840 C   0  0  0  0  0  0  0  0  0  0  0  0
    5.1610    1.3690   20.4480 C   0  0  0  0  0  0  0  0  0  0  0  0
    6.4020    0.4550   20.5560 C   0  0  0  0  0  0  0  0  0  0  0  0
    6.9220   -0.1280   19.2170 C   0  0  0  0  0  0  0  0  0  0  0  0
   10.0000   -1.5020   24.2660 O   0  0  0  0  0  0  0  0  0  0  0  0
    8.5720   -1.4480   24.0650 N   0  0  0  0  0  0  0  0  0  0  0  0
    8.6430   -1.1400   22.8210 C   0  0  0  0  0  0  0  0  0  0  0  0
    9.6950   -0.9600   22.0530 C   0  0  0  0  0  0  0  0  0  0  0  0
   10.7800   -1.2190   23.0900 C   0  0  0  0  0  0  0  0  0  0  0  0
    4.3110   -2.6200   26.1900 C   0  0  0  0  0  0  0  0  0  0  0  0
    3.7630   -3.9010   26.0470 C   0  0  0  0  0  0  0  0  0  0  0  0
    2.3110   -4.0850   25.8260 C   0  0  0  0  0  0  0  0  0  0  0  0
    1.3750   -2.8840   25.7550 C   0  0  0  0  0  0  0  0  0  0  0  0
    1.9880   -1.6350   25.9100 C   0  0  0  0  0  0  0  0  0  0  0  0
    3.4950   -1.4820   26.1320 C   0  0  0  0  0  0  0  0  0  0  0  0
    6.1860   -4.1320   21.9670 C   0  0  0  0  0  0  0  0  0  0  0  0
    5.3260   -5.3760   22.1740 C   0  0  0  0  0  0  0  0  0  0  0  0
    4.6150   -5.5270   23.5120 C   0  0  0  0  0  0  0  0  0  0  0  0
    5.5950   -5.3350   24.6280 N   0  0  0  0  0  0  0  0  0  0  0  0
    6.4670   -4.1830   24.3730 C   0  0  0  0  0  0  0  0  0  0  0  0
    7.2470   -4.3120   23.0550 C   0  0  0  0  0  0  0  0  0  0  0  0
  1  4  1  0
  2  5  1  0
  3  5  2  0
  4  5  1  6
  6  2  1  0
  6  7  1  0
  6  8  1  0
  6  9  1  0
 10 11  1  0
 10 12  1  0
 10 13  1  0
 16 17  2  0
 17 18  1  0
 14 20  2  0
 15 20  2  0
  1 21  1  0
 21 22  1  0
 23 24  2  0
 24 25  1  0
 25 26  2  0
  4 27  1  0
 26 27  1  0
 23 28  1  0
 27 28  2  0
 29 30  1  0
  1 31  1  0
 30 31  2  0
 31 32  1  0
 10 33  1  0
 29 33  1  0
 32 33  2  0
 19 34  1  0
 20 35  1  0
 34 35  2  0
 35 36  1  0
 36 37  2  0
 37 38  1  0
 34 39  1  0
 38 39  2  0
 40 17  1  0
 22 40  1  0
 40 41  1  0
 41 42  1  0
 20 43  1  0
 42 43  1  0
 43 44  1  0
 40 45  1  0
 44 45  1  0
M  END
