x0769-x1493
     RDKit          3D

 20 21  0  0  0  0  0  0  0  0999 V2000
    5.6990   -6.7260   26.7970 C   0  0  0  0  0  0  0  0  0  0  0  0
    3.4480   -7.3800   25.1050 O   0  0  0  0  0  0  0  0  0  0  0  0
    5.3920   -5.5940   20.0060 O   0  0  0  0  0  0  0  0  0  0  0  0
    6.0220   -5.1380   20.9610 C   0  0  0  0  0  0  0  0  0  0  0  0
    7.4080   -4.4320   20.9010 C   0  0  0  0  0  0  0  0  0  0  0  0
    6.4010   -4.3480   26.8610 F   0  0  0  0  0  0  0  0  0  0  0  0
    4.4120   -6.4350   25.6100 S   0  0  1  0  0  0  0  0  0  0  0  0
    6.5320   -6.9150   27.5660 O   0  0  0  0  0  0  0  0  0  0  0  0
    5.2200   -3.8790   26.4280 C   0  0  0  0  0  0  0  0  0  0  0  0
    4.3130   -4.7380   25.8680 C   0  0  0  0  0  0  0  0  0  0  0  0
    2.9230   -4.2270   25.3280 C   0  0  0  0  0  0  0  0  0  0  0  0
    2.6460   -2.7540   25.4500 C   0  0  0  0  0  0  0  0  0  0  0  0
    3.6520   -1.8190   26.0670 C   0  0  0  0  0  0  0  0  0  0  0  0
    4.9700   -2.4680   26.5460 C   0  0  0  0  0  0  0  0  0  0  0  0
    5.5110   -5.2140   22.2350 N   0  0  0  0  0  0  0  0  0  0  0  0
    4.1420   -5.8310   22.4850 C   0  0  0  0  0  0  0  0  0  0  0  0
    3.4730   -5.1500   23.4470 C   0  0  0  0  0  0  0  0  0  0  0  0
    4.1730   -5.0010   24.5880 N   0  0  0  0  0  0  0  0  0  0  0  0
    5.4220   -4.4000   24.4410 C   0  0  0  0  0  0  0  0  0  0  0  0
    5.9440   -4.2690   23.1800 C   0  0  0  0  0  0  0  0  0  0  0  0
  3  4  2  0
  4  5  1  0
  1  7  2  0
  2  7  2  0
  1  8  2  0
  6  9  1  0
  7 10  1  1
  9 10  2  0
 10 11  1  0
 11 12  2  0
 12 13  1  0
  9 14  1  0
 13 14  2  0
  4 15  1  0
 15 16  1  0
 16 17  1  0
  7 18  1  0
 17 18  1  0
 18 19  1  0
 15 20  1  0
 19 20  1  0
M  END
