x0769-x2581
     RDKit          3D

 43 47  0  0  0  0  0  0  0  0999 V2000
    5.7840   -5.2620   26.8960 O   0  0  0  0  0  0  0  0  0  0  0  0
    4.0080   -6.4540   25.6230 O   0  0  0  0  0  0  0  0  0  0  0  0
    5.1780   -4.4760   19.8330 O   0  0  0  0  0  0  0  0  0  0  0  0
    6.2070   -4.1220   20.3640 C   0  0  0  0  0  0  0  0  0  0  0  0
    7.2440   -3.2940   19.5990 C   0  0  0  0  0  0  0  0  0  0  0  0
    5.7260   -2.2280   26.1750 F   0  0  0  0  0  0  0  0  0  0  0  0
    4.9200   -5.3410   25.7520 S   0  0  0  0  0  0  0  0  0  0  0  0
    9.7850   -2.7970   23.0410 C   0  0  0  0  0  0  0  0  0  0  0  0
   10.2460   -1.7270   23.4570 O   0  0  0  0  0  0  0  0  0  0  0  0
   10.5050    3.3410   22.1040 N   0  0  0  0  0  0  0  0  0  0  0  0
   11.0660    3.6990   24.3760 O   0  0  0  0  0  0  0  0  0  0  0  0
   11.1310    4.0190   23.2130 C   0  0  0  0  0  0  0  0  0  0  0  0
   11.8050    5.1430   22.8640 C   0  0  0  0  0  0  0  0  0  0  0  0
    8.1220   -4.6860   23.7930 C   0  0  0  0  0  0  0  0  0  0  0  0
    9.0960   -3.5610   24.1680 C   0  0  0  0  0  0  0  0  0  0  0  0
    4.4140   -2.4930   26.0120 C   0  0  0  0  0  0  0  0  0  0  0  0
    3.9310   -3.9280   25.8000 C   0  0  0  0  0  0  0  0  0  0  0  0
    2.3990   -4.1420   25.6210 C   0  0  0  0  0  0  0  0  0  0  0  0
    1.6420   -3.0090   25.6770 C   0  0  0  0  0  0  0  0  0  0  0  0
    2.1170   -1.7140   25.8750 C   0  0  0  0  0  0  0  0  0  0  0  0
    3.4780   -1.4600   26.0370 C   0  0  0  0  0  0  0  0  0  0  0  0
    6.4020   -4.4770   21.6710 N   0  0  0  0  0  0  0  0  0  0  0  0
    5.9780   -5.8280   22.0510 C   0  0  0  0  0  0  0  0  0  0  0  0
    5.1000   -5.8330   23.1330 C   0  0  0  0  0  0  0  0  0  0  0  0
    5.8520   -5.3330   24.3230 N   0  0  0  0  0  0  0  0  0  0  0  0
    6.6750   -4.2860   23.9960 C   0  0  2  0  0  0  0  0  0  0  0  0
    6.3020   -3.5320   22.7660 C   0  0  0  0  0  0  0  0  0  0  0  0
    8.8560    1.8270   21.2890 N   0  0  0  0  0  0  0  0  0  0  0  0
   10.0270    2.0310   22.1530 C   0  0  0  0  0  0  0  0  0  0  0  0
   10.5500    0.8010   22.9260 C   0  0  0  0  0  0  0  0  0  0  0  0
    9.8950   -0.5710   22.8290 C   0  0  0  0  0  0  0  0  0  0  0  0
    8.7880   -0.6390   21.9810 C   0  0  0  0  0  0  0  0  0  0  0  0
    8.2960    0.5980   21.2220 C   0  0  0  0  0  0  0  0  0  0  0  0
    9.8540    6.7150   22.8480 C   0  0  0  0  0  0  0  0  0  0  0  0
    9.1460    7.7930   23.3390 C   0  0  0  0  0  0  0  0  0  0  0  0
    9.5910    8.6190   24.4660 C   0  0  0  0  0  0  0  0  0  0  0  0
   10.9370    8.2180   25.1070 C   0  0  0  0  0  0  0  0  0  0  0  0
   11.6370    7.1120   24.5910 C   0  0  0  0  0  0  0  0  0  0  0  0
   11.0730    6.3240   23.4080 C   0  0  0  0  0  0  0  0  0  0  0  0
    8.8470    9.7110   24.9230 C   0  0  0  0  0  0  0  0  0  0  0  0
    9.3680   10.5420   26.0890 C   0  0  0  0  0  0  0  0  0  0  0  0
   10.7060   10.1510   26.7400 C   0  0  0  0  0  0  0  0  0  0  0  0
   11.4610    8.9460   26.1860 C   0  0  0  0  0  0  0  0  0  0  0  0
  3  4  2  0
  4  5  1  0
  1  7  2  0
  2  7  2  0
  8  9  1  0
 10 12  1  0
 11 12  2  0
 12 13  1  0
  8 15  1  0
 14 15  1  0
  6 16  1  0
  7 17  1  0
 16 17  2  0
 17 18  1  0
 18 19  2  0
 19 20  1  0
 16 21  1  0
 20 21  2  0
  4 22  1  0
 22 23  1  0
 23 24  1  0
  7 25  1  0
 24 25  1  0
 26 14  1  6
 25 26  1  0
 22 27  1  0
 26 27  1  0
 10 29  1  0
 28 29  2  0
 29 30  1  0
  9 31  1  0
 30 31  2  0
 31 32  1  0
 28 33  1  0
 32 33  2  0
 34 35  2  0
 35 36  1  0
 36 37  2  0
 37 38  1  0
 13 39  1  0
 34 39  1  0
 38 39  2  0
 36 40  1  0
 40 41  2  0
 41 42  1  0
 37 43  1  0
 42 43  2  0
M  END
