x0769-x2694
     RDKit          3D

 50 54  0  0  0  0  0  0  0  0999 V2000
    7.2810   -0.7520   21.9380 N   0  0  0  0  0  0  0  0  0  0  0  0
    7.6240    2.5940   22.5770 N   0  0  0  0  0  0  0  0  0  0  0  0
    8.9610    1.3240   21.0270 O   0  0  0  0  0  0  0  0  0  0  0  0
   11.0270    6.8350   24.2660 O   0  0  0  0  0  0  0  0  0  0  0  0
    6.9420    0.3670   21.8220 C   0  0  1  0  0  0  0  0  0  0  0  0
    7.9090    1.5170   21.8340 C   0  0  0  0  0  0  0  0  0  0  0  0
   10.2630    1.9360   23.0610 C   0  0  0  0  0  0  0  0  0  0  0  0
   11.9390    6.5730   25.3320 C   0  0  0  0  0  0  0  0  0  0  0  0
   12.3960   -1.5880   23.2260 C   0  0  0  0  0  0  0  0  0  0  0  0
   12.9660   -0.1640   23.3490 C   0  0  0  0  0  0  0  0  0  0  0  0
   12.9290   -2.1060   22.0710 C   0  0  0  0  0  0  0  0  0  0  0  0
   12.7960   -2.3490   24.3790 C   0  0  0  0  0  0  0  0  0  0  0  0
    5.8460   -5.0830   27.1430 O   0  0  0  0  0  0  0  0  0  0  0  0
    3.8680   -6.5800   26.2310 O   0  0  0  0  0  0  0  0  0  0  0  0
    5.6520   -5.2460   19.9960 O   0  0  0  0  0  0  0  0  0  0  0  0
    6.3320   -4.3730   20.4930 C   0  0  0  0  0  0  0  0  0  0  0  0
    7.1090   -3.3890   19.6070 C   0  0  0  0  0  0  0  0  0  0  0  0
    5.6080   -2.3840   26.3590 F   0  0  0  0  0  0  0  0  0  0  0  0
    4.6930   -5.4010   26.1050 S   0  0  0  0  0  0  0  0  0  0  0  0
    6.5800   -1.9210   21.4040 C   0  0  0  0  0  0  0  0  0  0  0  0
    6.0190   -2.7990   22.3350 C   0  0  0  0  0  0  0  0  0  0  0  0
    6.3360    0.2380   17.9550 N   0  0  0  0  0  0  0  0  0  0  0  0
    5.2270    1.0050   17.9020 C   0  0  0  0  0  0  0  0  0  0  0  0
    4.5750    1.5990   18.9760 C   0  0  0  0  0  0  0  0  0  0  0  0
    5.0720    1.4230   20.2470 C   0  0  0  0  0  0  0  0  0  0  0  0
    6.3290    0.5800   20.4490 C   0  0  0  0  0  0  0  0  0  0  0  0
    6.8930    0.0080   19.1620 C   0  0  0  0  0  0  0  0  0  0  0  0
    8.6920   -1.4740   23.9200 N   0  0  0  0  0  0  0  0  0  0  0  0
   10.0720   -1.6830   24.2040 O   0  0  0  0  0  0  0  0  0  0  0  0
   10.8750   -1.4350   23.1190 C   0  0  0  0  0  0  0  0  0  0  0  0
    9.8930   -1.0390   22.0500 C   0  0  0  0  0  0  0  0  0  0  0  0
    8.5180   -1.0790   22.6350 C   0  0  0  0  0  0  0  0  0  0  0  0
    9.7710    3.3390   23.2420 C   0  0  0  0  0  0  0  0  0  0  0  0
   10.7090    4.4530   23.7030 C   0  0  0  0  0  0  0  0  0  0  0  0
   10.2740    5.7770   23.8600 C   0  0  0  0  0  0  0  0  0  0  0  0
    8.9510    6.0880   23.5840 C   0  0  0  0  0  0  0  0  0  0  0  0
    7.9520    5.1020   23.1390 C   0  0  0  0  0  0  0  0  0  0  0  0
    8.4330    3.6630   22.9810 C   0  0  0  0  0  0  0  0  0  0  0  0
    4.2940   -2.5500   26.1800 C   0  0  0  0  0  0  0  0  0  0  0  0
    3.6830   -3.9650   26.0340 C   0  0  0  0  0  0  0  0  0  0  0  0
    2.1670   -4.1320   25.8290 C   0  0  0  0  0  0  0  0  0  0  0  0
    1.3150   -2.8670   25.7820 C   0  0  0  0  0  0  0  0  0  0  0  0
    2.0090   -1.5070   25.9400 C   0  0  0  0  0  0  0  0  0  0  0  0
    3.5120   -1.3970   26.1350 C   0  0  0  0  0  0  0  0  0  0  0  0
    6.2350   -4.3140   22.0270 C   0  0  0  0  0  0  0  0  0  0  0  0
    5.1700   -5.4020   22.2100 C   0  0  0  0  0  0  0  0  0  0  0  0
    4.4310   -5.2090   23.4860 C   0  0  0  0  0  0  0  0  0  0  0  0
    5.3900   -5.4810   24.5580 N   0  0  0  0  0  0  0  0  0  0  0  0
    6.8000   -4.9560   24.4080 C   0  0  0  0  0  0  0  0  0  0  0  0
    7.3120   -4.8210   22.9610 C   0  0  0  0  0  0  0  0  0  0  0  0
  1  5  1  0
  2  6  1  0
  3  6  2  0
  5  6  1  6
  4  8  1  0
  9 10  1  0
  9 11  1  0
  9 12  1  0
 15 16  2  0
 16 17  1  0
 13 19  2  0
 14 19  2  0
  1 20  1  0
 20 21  1  0
 22 23  2  0
 23 24  1  0
 24 25  2  0
  5 26  1  0
 25 26  1  0
 22 27  1  0
 26 27  2  0
 28 29  1  0
  9 30  1  0
 29 30  1  0
 30 31  2  0
  1 32  1  0
 28 32  2  0
 31 32  1  0
  7 33  1  0
 33 34  2  0
  4 35  1  0
 34 35  1  0
 35 36  2  0
 36 37  1  0
  2 38  1  0
 33 38  1  0
 37 38  2  0
 18 39  1  0
 19 40  1  0
 39 40  2  0
 40 41  1  0
 41 42  2  0
 42 43  1  0
 39 44  1  0
 43 44  2  0
 45 16  1  0
 21 45  1  0
 45 46  1  0
 46 47  1  0
 19 48  1  0
 47 48  1  0
 48 49  1  0
 45 50  1  0
 49 50  1  0
M  END
