x0769-x2705-x1077
     RDKit          3D

 57 63  0  0  0  0  0  0  0  0999 V2000
    7.6510   -1.1580   21.5410 N   0  0  0  0  0  0  0  0  0  0  0  0
    7.6180    2.2530   22.8120 N   0  0  0  0  0  0  0  0  0  0  0  0
    9.0310    1.5240   21.1450 O   0  0  0  0  0  0  0  0  0  0  0  0
    7.0520    0.1950   21.6520 C   0  0  1  0  0  0  0  0  0  0  0  0
    8.0300    1.3780   21.8320 C   0  0  0  0  0  0  0  0  0  0  0  0
   10.2290    2.2000   23.9120 C   0  0  0  0  0  0  0  0  0  0  0  0
    9.3240    1.2650   24.7420 C   0  0  0  0  0  0  0  0  0  0  0  0
    6.2520    4.5850   21.9590 C   0  0  0  0  0  0  0  0  0  0  0  0
   12.3210   -1.3590   23.3160 C   0  0  0  0  0  0  0  0  0  0  0  0
   12.7060    0.0120   23.8270 C   0  0  0  0  0  0  0  0  0  0  0  0
   12.8600   -2.4310   24.3030 C   0  0  0  0  0  0  0  0  0  0  0  0
   13.0050   -1.6040   21.9640 C   0  0  0  0  0  0  0  0  0  0  0  0
    6.2850    0.2930   17.8560 N   0  0  0  0  0  0  0  0  0  0  0  0
    5.0660    1.0620   17.8550 C   0  0  0  0  0  0  0  0  0  0  0  0
    4.3930    1.5850   19.0890 C   0  0  0  0  0  0  0  0  0  0  0  0
    5.0060    1.3140   20.3670 C   0  0  0  0  0  0  0  0  0  0  0  0
    6.2890    0.5180   20.3790 C   0  0  0  0  0  0  0  0  0  0  0  0
    6.8710    0.0250   19.0280 C   0  0  0  0  0  0  0  0  0  0  0  0
    9.9430   -1.7360   24.0790 N   0  0  0  0  0  0  0  0  0  0  0  0
    8.5630   -1.7470   23.7740 N   0  0  0  0  0  0  0  0  0  0  0  0
    8.7550   -1.3640   22.4890 C   0  0  0  0  0  0  0  0  0  0  0  0
   10.0790   -1.1180   21.9140 C   0  0  0  0  0  0  0  0  0  0  0  0
   10.8310   -1.4060   23.1210 C   0  0  0  0  0  0  0  0  0  0  0  0
    9.5170    3.4750   23.4890 C   0  0  0  0  0  0  0  0  0  0  0  0
   10.1770    4.7030   23.6460 C   0  0  0  0  0  0  0  0  0  0  0  0
    9.5820    5.9510   23.2620 C   0  0  0  0  0  0  0  0  0  0  0  0
    8.3060    5.8450   22.7200 C   0  0  0  0  0  0  0  0  0  0  0  0
    7.6410    4.6410   22.5610 C   0  0  0  0  0  0  0  0  0  0  0  0
    8.2330    3.4410   22.9470 C   0  0  0  0  0  0  0  0  0  0  0  0
    5.8240   -4.8510   26.7610 N   0  0  0  0  0  0  0  0  0  0  0  0
    3.7450   -6.3940   26.0330 O   0  0  0  0  0  0  0  0  0  0  0  0
    5.6540   -4.3080   19.8740 O   0  0  0  0  0  0  0  0  0  0  0  0
    6.6270   -4.4200   20.6390 C   0  0  0  0  0  0  0  0  0  0  0  0
    8.0160   -3.7600   20.4070 C   0  0  0  0  0  0  0  0  0  0  0  0
    5.4560   -2.3460   26.2700 F   0  0  0  0  0  0  0  0  0  0  0  0
    4.5840   -5.2260   25.9290 S   0  0  1  0  0  0  0  0  0  0  0  0
    7.4550   -5.8330   25.3420 O   0  0  0  0  0  0  0  0  0  0  0  0
    8.0090   -5.6760   23.9960 C   0  0  2  0  0  0  0  0  0  0  0  0
    9.3540   -5.6660   24.1640 C   0  0  0  0  0  0  0  0  0  0  0  0
    9.6990   -5.5680   25.5300 C   0  0  0  0  0  0  0  0  0  0  0  0
    9.3870   -4.2510   26.1540 N   0  0  0  0  0  0  0  0  0  0  0  0
    8.1620   -4.2030   26.6970 C   0  0  0  0  0  0  0  0  0  0  0  0
    7.0560   -4.6320   25.9560 C   0  0  2  0  0  0  0  0  0  0  0  0
    4.1360   -2.5170   26.1240 C   0  0  0  0  0  0  0  0  0  0  0  0
    3.5670   -3.7780   25.9550 C   0  0  0  0  0  0  0  0  0  0  0  0
    2.1820   -3.8990   25.8060 C   0  0  0  0  0  0  0  0  0  0  0  0
    1.2880   -2.8150   25.8170 C   0  0  0  0  0  0  0  0  0  0  0  0
    1.8200   -1.5420   25.9870 C   0  0  0  0  0  0  0  0  0  0  0  0
    3.3230   -1.3860   26.1460 C   0  0  0  0  0  0  0  0  0  0  0  0
    6.5160   -5.1880   21.7910 N   0  0  0  0  0  0  0  0  0  0  0  0
    5.5950   -6.2990   22.0230 C   0  0  0  0  0  0  0  0  0  0  0  0
    4.5980   -6.0000   23.1650 C   0  0  0  0  0  0  0  0  0  0  0  0
    5.2470   -5.3530   24.3620 N   0  0  0  0  0  0  0  0  0  0  0  0
    5.9760   -4.1860   23.8480 C   0  0  0  0  0  0  0  0  0  0  0  0
    7.0850   -4.8750   23.0950 C   0  0  1  0  0  0  0  0  0  0  0  0
    8.6600   -2.1340   25.1360 C   0  0  0  0  0  0  0  0  0  0  0  0
    9.6610   -3.1130   25.2310 C   0  0  0  0  0  0  0  0  0  0  0  0
  4  1  1  6
  2  5  1  0
  3  5  2  0
  4  5  1  0
  6  7  1  0
  9 10  1  0
  9 11  1  0
  9 12  1  0
 13 14  2  0
 14 15  1  0
 15 16  2  0
  4 17  1  0
 16 17  1  0
 13 18  1  0
 17 18  2  0
 19 20  1  0
  1 21  1  0
 20 21  1  0
 21 22  2  0
  9 23  1  0
 19 23  2  0
 22 23  1  0
  6 24  1  0
 24 25  2  0
 25 26  1  0
 26 27  2  0
  8 28  1  0
 27 28  1  0
  2 29  1  0
 24 29  1  0
 28 29  2  0
 32 33  2  0
 33 34  1  0
 30 36  2  0
 31 36  2  0
 37 38  1  0
 38 39  1  1
 39 40  1  0
 40 41  1  0
 41 42  1  0
 30 43  1  0
 37 43  1  0
 43 42  1  1
 35 44  1  0
 36 45  1  6
 44 45  2  0
 45 46  1  0
 46 47  2  0
 47 48  1  0
 44 49  1  0
 48 49  2  0
 33 50  1  0
 50 51  1  0
 51 52  1  0
 36 53  1  0
 52 53  1  0
 53 54  1  0
 38 55  1  0
 55 50  1  6
 54 55  1  0
 20 56  1  0
 41 57  1  0
 56 57  1  0
M  END
