x0769-x2908
     RDKit          3D

 39 42  0  0  0  0  0  0  0  0999 V2000
    5.8280   -5.1860   27.0850 O   0  0  0  0  0  0  0  0  0  0  0  0
    3.9400   -6.5390   26.1000 O   0  0  0  0  0  0  0  0  0  0  0  0
    5.7360   -4.6890   19.9240 O   0  0  0  0  0  0  0  0  0  0  0  0
    6.6010   -4.2740   20.6780 C   0  0  0  0  0  0  0  0  0  0  0  0
    7.9410   -3.6610   20.3010 C   0  0  0  0  0  0  0  0  0  0  0  0
    5.7950   -2.1800   26.3560 F   0  0  0  0  0  0  0  0  0  0  0  0
    4.8040   -5.3800   26.0900 S   0  0  0  0  0  0  0  0  0  0  0  0
    4.3370    1.3540   21.5260 C   0  0  0  0  0  0  0  0  0  0  0  0
    8.4660    1.0340   21.2060 O   0  0  0  0  0  0  0  0  0  0  0  0
   13.2570   -2.1400   21.2950 Cl  0  0  0  0  0  0  0  0  0  0  0  0
    6.7250   -0.5590   21.2770 N   0  0  0  0  0  0  0  0  0  0  0  0
    8.5760   -0.5980   22.7410 N   0  0  0  0  0  0  0  0  0  0  0  0
    7.9750    0.0300   21.7230 C   0  0  0  0  0  0  0  0  0  0  0  0
    5.8700   -2.8080   22.3120 C   0  0  0  0  0  0  0  0  0  0  0  0
    6.5900   -1.9760   21.1970 C   0  0  0  0  0  0  0  0  0  0  0  0
    4.5020   -2.4730   26.1890 C   0  0  0  0  0  0  0  0  0  0  0  0
    3.8390   -3.8780   26.0430 C   0  0  0  0  0  0  0  0  0  0  0  0
    2.3250   -4.0830   25.8530 C   0  0  0  0  0  0  0  0  0  0  0  0
    1.3540   -2.9080   25.7980 C   0  0  0  0  0  0  0  0  0  0  0  0
    1.9300   -1.7140   25.9270 C   0  0  0  0  0  0  0  0  0  0  0  0
    3.2720   -1.4400   26.0970 C   0  0  0  0  0  0  0  0  0  0  0  0
    6.2190   -4.3250   22.1260 C   0  0  0  0  0  0  0  0  0  0  0  0
    5.2380   -5.2780   22.3310 C   0  0  0  0  0  0  0  0  0  0  0  0
    4.5640   -5.0520   23.5000 C   0  0  0  0  0  0  0  0  0  0  0  0
    5.5270   -5.3700   24.5830 N   0  0  0  0  0  0  0  0  0  0  0  0
    6.7610   -4.7970   24.4550 C   0  0  0  0  0  0  0  0  0  0  0  0
    7.3610   -4.6320   23.0630 C   0  0  0  0  0  0  0  0  0  0  0  0
    6.2870    0.6160   17.5890 N   0  0  0  0  0  0  0  0  0  0  0  0
    6.8350   -0.0970   18.7320 C   0  0  0  0  0  0  0  0  0  0  0  0
    6.2270    0.0930   20.1420 C   0  0  0  0  0  0  0  0  0  0  0  0
    5.0430    1.0480   20.2430 C   0  0  0  0  0  0  0  0  0  0  0  0
    4.5830    1.6820   19.0910 C   0  0  0  0  0  0  0  0  0  0  0  0
    5.2480    1.4380   17.7510 C   0  0  0  0  0  0  0  0  0  0  0  0
   10.4500    0.5340   23.7230 C   0  0  0  0  0  0  0  0  0  0  0  0
   11.8190    0.7150   23.8490 C   0  0  0  0  0  0  0  0  0  0  0  0
   12.8270   -0.0690   23.1380 C   0  0  0  0  0  0  0  0  0  0  0  0
   12.2750   -1.1400   22.2180 C   0  0  0  0  0  0  0  0  0  0  0  0
   10.9120   -1.3100   22.1050 C   0  0  0  0  0  0  0  0  0  0  0  0
    9.9430   -0.4490   22.8730 C   0  0  0  0  0  0  0  0  0  0  0  0
  3  4  2  0
  4  5  1  0
  1  7  2  0
  2  7  2  0
  9 13  2  0
 11 13  1  0
 12 13  1  0
 11 15  1  0
 14 15  1  0
  6 16  1  0
  7 17  1  0
 16 17  2  0
 17 18  1  0
 18 19  2  0
 19 20  1  0
 16 21  1  0
 20 21  2  0
 22  4  1  0
 14 22  1  0
 22 23  1  0
 23 24  1  0
  7 25  1  0
 24 25  1  0
 25 26  1  0
 22 27  1  0
 26 27  1  0
 28 29  2  0
 11 30  1  0
 29 30  1  0
  8 31  1  0
 30 31  2  0
 31 32  1  0
 28 33  1  0
 32 33  2  0
 34 35  2  0
 35 36  1  0
 10 37  1  0
 36 37  2  0
 37 38  1  0
 12 39  1  0
 34 39  1  0
 38 39  2  0
M  END
