x0769-x0691
     RDKit          3D

 19 20  0  0  0  0  0  0  0  0999 V2000
    5.8820   -5.1500   26.8000 O   0  0  0  0  0  0  0  0  0  0  0  0
    4.0080   -6.5280   25.8340 O   0  0  0  0  0  0  0  0  0  0  0  0
    5.3190   -4.7850   19.9610 O   0  0  0  0  0  0  0  0  0  0  0  0
    6.3560   -4.5280   20.5580 C   0  0  0  0  0  0  0  0  0  0  0  0
    7.2810   -3.4600   19.9950 C   0  0  0  0  0  0  0  0  0  0  0  0
    5.7060   -2.3710   26.1870 F   0  0  0  0  0  0  0  0  0  0  0  0
    4.8270   -5.3370   25.8330 S   0  0  0  0  0  0  0  0  0  0  0  0
    4.3780   -2.5080   26.1040 C   0  0  0  0  0  0  0  0  0  0  0  0
    3.7520   -3.9550   25.9170 C   0  0  0  0  0  0  0  0  0  0  0  0
    2.4130   -4.1580   25.8250 C   0  0  0  0  0  0  0  0  0  0  0  0
    1.4480   -2.9480   25.9100 C   0  0  0  0  0  0  0  0  0  0  0  0
    1.9660   -1.5130   26.0970 C   0  0  0  0  0  0  0  0  0  0  0  0
    3.4790   -1.2740   26.1940 C   0  0  0  0  0  0  0  0  0  0  0  0
    6.6290   -5.2240   21.7330 N   0  0  0  0  0  0  0  0  0  0  0  0
    5.8720   -6.3060   22.0950 C   0  0  0  0  0  0  0  0  0  0  0  0
    4.8230   -5.9470   23.1800 C   0  0  0  0  0  0  0  0  0  0  0  0
    5.5180   -5.2640   24.3020 N   0  0  0  0  0  0  0  0  0  0  0  0
    6.4050   -4.2810   23.9860 C   0  0  0  0  0  0  0  0  0  0  0  0
    7.1590   -4.5230   22.8410 C   0  0  0  0  0  0  0  0  0  0  0  0
  3  4  2  0
  4  5  1  0
  1  7  2  0
  2  7  2  0
  6  8  1  0
  7  9  1  0
  8  9  2  0
  9 10  1  0
 10 11  2  0
 11 12  1  0
  8 13  1  0
 12 13  2  0
  4 14  1  0
 14 15  1  0
 15 16  1  0
  7 17  1  0
 16 17  1  0
 17 18  1  0
 14 19  1  0
 18 19  1  0
M  END
