x0769-x1382
     RDKit          3D

 31 33  0  0  0  0  0  0  0  0999 V2000
    5.8500   -5.1210   26.7560 O   0  0  0  0  0  0  0  0  0  0  0  0
    3.9290   -6.4960   25.9260 O   0  0  0  0  0  0  0  0  0  0  0  0
    5.4240   -4.4910   19.9180 O   0  0  0  0  0  0  0  0  0  0  0  0
    6.4120   -4.5140   20.6620 C   0  0  0  0  0  0  0  0  0  0  0  0
    7.6540   -3.6880   20.3940 C   0  0  0  0  0  0  0  0  0  0  0  0
    5.6150   -2.2980   26.2080 F   0  0  0  0  0  0  0  0  0  0  0  0
    4.7680   -5.3240   25.8240 S   0  0  0  0  0  0  0  0  0  0  0  0
   13.4300   -2.0810   21.0050 Cl  0  0  0  0  0  0  0  0  0  0  0  0
    7.5050   -1.0920   23.6080 C   0  0  0  0  0  0  0  0  0  0  0  0
    8.7000   -1.7770   22.7900 C   0  0  1  0  0  0  0  0  0  0  0  0
    8.5750   -1.6570   21.3180 N   0  0  0  0  0  0  0  0  0  0  0  0
    7.5220   -2.1810   20.6780 C   0  0  0  0  0  0  0  0  0  0  0  0
    6.5840   -1.4750   20.3440 O   0  0  0  0  0  0  0  0  0  0  0  0
    4.3000   -2.5110   26.0840 C   0  0  0  0  0  0  0  0  0  0  0  0
    3.7070   -3.9120   25.8920 C   0  0  0  0  0  0  0  0  0  0  0  0
    2.1850   -4.1040   25.7540 C   0  0  0  0  0  0  0  0  0  0  0  0
    1.3410   -2.8340   25.8230 C   0  0  0  0  0  0  0  0  0  0  0  0
    2.0210   -1.4700   26.0200 C   0  0  0  0  0  0  0  0  0  0  0  0
    3.3600   -1.3160   26.1380 C   0  0  0  0  0  0  0  0  0  0  0  0
    6.4880   -5.3080   21.8050 N   0  0  0  0  0  0  0  0  0  0  0  0
    5.5950   -6.2670   22.0760 C   0  0  0  0  0  0  0  0  0  0  0  0
    4.7180   -5.9930   23.1340 C   0  0  0  0  0  0  0  0  0  0  0  0
    5.4170   -5.3860   24.2770 N   0  0  0  0  0  0  0  0  0  0  0  0
    6.3130   -4.4560   23.9090 C   0  0  0  0  0  0  0  0  0  0  0  0
    7.1370   -4.8340   22.8810 C   0  0  0  0  0  0  0  0  0  0  0  0
   10.0370   -1.1640   23.0030 C   0  0  0  0  0  0  0  0  0  0  0  0
   11.0370   -1.7750   22.1020 C   0  0  0  0  0  0  0  0  0  0  0  0
   12.4350   -1.3180   22.0840 C   0  0  0  0  0  0  0  0  0  0  0  0
   12.7870   -0.1880   23.0490 C   0  0  0  0  0  0  0  0  0  0  0  0
   11.6970    0.3900   23.9570 C   0  0  0  0  0  0  0  0  0  0  0  0
   10.3690   -0.1230   23.8990 C   0  0  0  0  0  0  0  0  0  0  0  0
  3  4  2  0
  4  5  1  0
  1  7  2  0
  2  7  2  0
 10  9  1  1
 10 11  1  0
  5 12  1  0
 11 12  1  0
 12 13  2  0
  6 14  1  0
  7 15  1  0
 14 15  2  0
 15 16  1  0
 16 17  2  0
 17 18  1  0
 14 19  1  0
 18 19  2  0
  4 20  1  0
 20 21  1  0
 21 22  1  0
  7 23  1  0
 22 23  1  0
 23 24  1  0
 20 25  1  0
 24 25  1  0
 10 26  1  0
 26 27  2  0
  8 28  1  0
 27 28  1  0
 28 29  2  0
 29 30  1  0
 26 31  1  0
 30 31  2  0
M  END
