x0769-x1425
     RDKit          3D

 22 23  0  0  0  0  0  0  0  0999 V2000
    5.9730   -5.3410   26.6870 O   0  0  0  0  0  0  0  0  0  0  0  0
    4.0080   -6.5660   25.7010 O   0  0  0  0  0  0  0  0  0  0  0  0
    5.2020   -4.6750   19.9100 O   0  0  0  0  0  0  0  0  0  0  0  0
    6.2600   -4.3920   20.4350 C   0  0  0  0  0  0  0  0  0  0  0  0
    7.1430   -3.3530   19.7510 C   0  0  0  0  0  0  0  0  0  0  0  0
    5.7790   -2.4380   25.4340 F   0  0  0  0  0  0  0  0  0  0  0  0
    4.8820   -5.4180   25.7490 S   0  0  0  0  0  0  0  0  0  0  0  0
    4.4950   -2.5720   25.7720 C   0  0  0  0  0  0  0  0  0  0  0  0
    3.8990   -3.9950   25.9640 C   0  0  0  0  0  0  0  0  0  0  0  0
    2.6310   -4.1110   26.2970 C   0  0  0  0  0  0  0  0  0  0  0  0
    1.7830   -2.8410   26.5050 C   0  0  0  0  0  0  0  0  0  0  0  0
    2.1440   -1.3190   26.3860 C   0  0  0  0  0  0  0  0  0  0  0  0
    3.6450   -1.3250   25.9640 C   0  0  0  0  0  0  0  0  0  0  0  0
    6.5910   -5.0310   21.6240 N   0  0  0  0  0  0  0  0  0  0  0  0
    5.9800   -6.2160   21.9680 C   0  0  0  0  0  0  0  0  0  0  0  0
    4.9290   -6.0450   23.1000 C   0  0  0  0  0  0  0  0  0  0  0  0
    5.4880   -5.2190   24.1930 N   0  0  0  0  0  0  0  0  0  0  0  0
    6.7390   -4.7360   24.0030 C   0  0  0  0  0  0  0  0  0  0  0  0
    6.9160   -4.2270   22.7290 C   0  0  0  0  0  0  0  0  0  0  0  0
    0.6780   -2.1490   28.0350 C   0  0  0  0  0  0  0  0  0  0  0  0
    1.9010   -2.2980   28.7650 O   0  0  0  0  0  0  0  0  0  0  0  0
    0.9220   -1.6680   26.7460 C   0  0  0  0  0  0  0  0  0  0  0  0
  3  4  2  0
  4  5  1  0
  1  7  2  0
  2  7  2  0
  6  8  1  0
  7  9  1  0
  8  9  2  0
  9 10  1  0
 10 11  2  0
 11 12  1  0
  8 13  1  0
 12 13  2  0
  4 14  1  0
 14 15  1  0
 15 16  1  0
  7 17  1  0
 16 17  1  0
 17 18  1  0
 14 19  1  0
 18 19  1  0
 20 21  1  0
 12 22  1  0
 20 22  1  0
M  END
