x0769-x3077
     RDKit          3D

 30 33  0  0  0  0  0  0  0  0999 V2000
    5.8240   -5.0280   26.8370 O   0  0  0  0  0  0  0  0  0  0  0  0
    3.9940   -6.3220   25.7090 O   0  0  0  0  0  0  0  0  0  0  0  0
    5.9050   -4.3550   19.8320 O   0  0  0  0  0  0  0  0  0  0  0  0
    6.7980   -4.1110   20.6480 C   0  0  0  0  0  0  0  0  0  0  0  0
    8.2020   -3.6260   20.3000 C   0  0  0  0  0  0  0  0  0  0  0  0
    5.6320   -2.3110   26.2360 F   0  0  0  0  0  0  0  0  0  0  0  0
    4.8560   -5.1630   25.7880 S   0  0  0  0  0  0  0  0  0  0  0  0
   13.3610   -1.7890   21.1100 Cl  0  0  0  0  0  0  0  0  0  0  0  0
    9.0280   -2.4830   24.0980 C   0  0  0  0  0  0  0  0  0  0  0  0
    4.3200   -2.5330   26.0840 C   0  0  0  0  0  0  0  0  0  0  0  0
    3.8400   -3.7860   25.8720 C   0  0  0  0  0  0  0  0  0  0  0  0
    2.3440   -4.1110   25.6900 C   0  0  0  0  0  0  0  0  0  0  0  0
    1.3630   -2.9440   25.7570 C   0  0  0  0  0  0  0  0  0  0  0  0
    1.9430   -1.5400   26.0000 C   0  0  0  0  0  0  0  0  0  0  0  0
    3.4640   -1.4270   26.1520 C   0  0  0  0  0  0  0  0  0  0  0  0
    6.3850   -4.2660   22.0970 C   0  0  1  0  0  0  0  0  0  0  0  0
    5.5560   -5.3520   22.0210 C   0  0  0  0  0  0  0  0  0  0  0  0
    5.0850   -5.8130   23.2320 C   0  0  0  0  0  0  0  0  0  0  0  0
    5.6470   -4.9710   24.3050 N   0  0  0  0  0  0  0  0  0  0  0  0
    7.0530   -4.6930   24.2460 C   0  0  0  0  0  0  0  0  0  0  0  0
    7.4420   -4.3370   22.9360 C   0  0  2  0  0  0  0  0  0  0  0  0
    8.0580   -2.9430   22.8780 N   0  0  0  0  0  0  0  0  0  0  0  0
    7.0500   -2.0770   22.6510 C   0  0  0  0  0  0  0  0  0  0  0  0
    5.7650   -2.9360   22.5680 C   0  0  0  0  0  0  0  0  0  0  0  0
   10.3650   -0.2920   24.3650 C   0  0  0  0  0  0  0  0  0  0  0  0
   11.5390    0.6630   24.0160 C   0  0  0  0  0  0  0  0  0  0  0  0
   12.5070    0.1470   22.9550 C   0  0  0  0  0  0  0  0  0  0  0  0
   12.3110   -1.2070   22.2930 C   0  0  0  0  0  0  0  0  0  0  0  0
   11.2160   -1.9860   22.6810 C   0  0  0  0  0  0  0  0  0  0  0  0
   10.1920   -1.5660   23.7360 C   0  0  0  0  0  0  0  0  0  0  0  0
  3  4  2  0
  4  5  1  0
  1  7  2  0
  2  7  2  0
  6 10  1  0
  7 11  1  0
 10 11  2  0
 11 12  1  0
 12 13  2  0
 13 14  1  0
 10 15  1  0
 14 15  2  0
 16  4  1  6
 16 17  1  0
 17 18  1  0
  7 19  1  0
 18 19  1  0
 19 20  1  0
 16 21  1  0
 21 20  1  1
  9 22  1  0
 21 22  1  0
 22 23  1  0
 16 24  1  0
 23 24  1  0
 25 26  2  0
 26 27  1  0
  8 28  1  0
 27 28  2  0
 28 29  1  0
  9 30  1  0
 25 30  1  0
 29 30  2  0
M  END
