x0769-x0689
     RDKit          3D

 19 20  0  0  0  0  0  0  0  0999 V2000
    5.8380   -5.1180   26.7820 O   0  0  0  0  0  0  0  0  0  0  0  0
    3.9800   -6.5120   25.8080 O   0  0  0  0  0  0  0  0  0  0  0  0
    5.2450   -4.7510   19.9350 O   0  0  0  0  0  0  0  0  0  0  0  0
    6.2810   -4.4350   20.4860 C   0  0  0  0  0  0  0  0  0  0  0  0
    7.1610   -3.3790   19.8220 C   0  0  0  0  0  0  0  0  0  0  0  0
    5.6410   -2.3420   26.2030 F   0  0  0  0  0  0  0  0  0  0  0  0
    4.7860   -5.3130   25.8150 S   0  0  0  0  0  0  0  0  0  0  0  0
    4.3150   -2.4840   26.0820 C   0  0  0  0  0  0  0  0  0  0  0  0
    3.7010   -3.9340   25.8760 C   0  0  0  0  0  0  0  0  0  0  0  0
    2.3630   -4.1390   25.7470 C   0  0  0  0  0  0  0  0  0  0  0  0
    1.3920   -2.9310   25.8030 C   0  0  0  0  0  0  0  0  0  0  0  0
    1.8960   -1.4930   26.0020 C   0  0  0  0  0  0  0  0  0  0  0  0
    3.4090   -1.2500   26.1470 C   0  0  0  0  0  0  0  0  0  0  0  0
    6.6010   -5.0430   21.6920 N   0  0  0  0  0  0  0  0  0  0  0  0
    5.9850   -6.2110   22.0690 C   0  0  0  0  0  0  0  0  0  0  0  0
    4.8970   -5.9940   23.1580 C   0  0  0  0  0  0  0  0  0  0  0  0
    5.4710   -5.2090   24.2810 N   0  0  0  0  0  0  0  0  0  0  0  0
    6.6380   -4.5380   24.0840 C   0  0  0  0  0  0  0  0  0  0  0  0
    6.9340   -4.2070   22.7720 C   0  0  0  0  0  0  0  0  0  0  0  0
  3  4  2  0
  4  5  1  0
  1  7  2  0
  2  7  2  0
  6  8  1  0
  7  9  1  0
  8  9  2  0
  9 10  1  0
 10 11  2  0
 11 12  1  0
  8 13  1  0
 12 13  2  0
  4 14  1  0
 14 15  1  0
 15 16  1  0
  7 17  1  0
 16 17  1  0
 17 18  1  0
 14 19  1  0
 18 19  1  0
M  END
