x0769-x3124
     RDKit          3D

 43 46  0  0  0  0  0  0  0  0999 V2000
    7.2720   -0.9510   21.7760 N   0  0  0  0  0  0  0  0  0  0  0  0
    7.8010    1.7220   23.3470 N   0  0  0  0  0  0  0  0  0  0  0  0
    8.6430    1.5790   21.0430 O   0  0  0  0  0  0  0  0  0  0  0  0
    6.8720    0.1360   21.7340 C   0  0  1  0  0  0  0  0  0  0  0  0
    7.8460    1.2320   22.0910 C   0  0  0  0  0  0  0  0  0  0  0  0
    8.8720    2.6820   23.6840 C   0  0  0  0  0  0  0  0  0  0  0  0
   12.4090   -1.9610   24.3410 C   0  0  0  0  0  0  0  0  0  0  0  0
   12.8300   -0.9030   25.0510 C   0  0  0  0  0  0  0  0  0  0  0  0
   13.4350   -2.3000   23.2470 C   0  0  0  0  0  0  0  0  0  0  0  0
   12.1580   -3.1560   25.2550 C   0  0  0  0  0  0  0  0  0  0  0  0
    6.5890   -2.0600   22.0340 C   0  0  0  0  0  0  0  0  0  0  0  0
    6.3340    0.2720   17.9560 N   0  0  0  0  0  0  0  0  0  0  0  0
    5.2250    1.0230   17.8600 C   0  0  0  0  0  0  0  0  0  0  0  0
    4.5600    1.5330   19.1570 C   0  0  0  0  0  0  0  0  0  0  0  0
    5.0990    1.2290   20.3530 C   0  0  0  0  0  0  0  0  0  0  0  0
    6.2430    0.4620   20.3840 C   0  0  0  0  0  0  0  0  0  0  0  0
    6.8040    0.0160   19.1940 C   0  0  0  0  0  0  0  0  0  0  0  0
    9.6040   -1.2910   21.7190 C   0  0  0  0  0  0  0  0  0  0  0  0
   10.8740   -1.5400   22.2100 C   0  0  0  0  0  0  0  0  0  0  0  0
   11.1040   -1.6880   23.7140 C   0  0  0  0  0  0  0  0  0  0  0  0
    9.9040   -1.5440   24.5970 C   0  0  0  0  0  0  0  0  0  0  0  0
    8.5490   -1.2760   24.0060 C   0  0  0  0  0  0  0  0  0  0  0  0
    8.4540   -1.1590   22.4760 C   0  0  0  0  0  0  0  0  0  0  0  0
    5.7270   -5.1730   26.9630 O   0  0  0  0  0  0  0  0  0  0  0  0
    3.7240   -6.6480   26.0180 O   0  0  0  0  0  0  0  0  0  0  0  0
    5.2600   -5.1610   19.9760 O   0  0  0  0  0  0  0  0  0  0  0  0
    6.1950   -4.6430   20.5280 C   0  0  0  0  0  0  0  0  0  0  0  0
    6.9220   -3.5000   19.8050 C   0  0  0  0  0  0  0  0  0  0  0  0
    5.5810   -2.4970   26.3090 F   0  0  0  0  0  0  0  0  0  0  0  0
    4.7030   -5.3940   25.9660 S   0  0  0  0  0  0  0  0  0  0  0  0
    4.2680   -2.6640   26.1180 C   0  0  0  0  0  0  0  0  0  0  0  0
    3.6940   -3.9480   25.9370 C   0  0  0  0  0  0  0  0  0  0  0  0
    2.3200   -4.0700   25.7410 C   0  0  0  0  0  0  0  0  0  0  0  0
    1.3960   -2.9350   25.7100 C   0  0  0  0  0  0  0  0  0  0  0  0
    2.0460   -1.5700   25.9110 C   0  0  0  0  0  0  0  0  0  0  0  0
    3.4440   -1.5160   26.1000 C   0  0  0  0  0  0  0  0  0  0  0  0
    6.5530   -5.1260   21.7860 N   0  0  0  0  0  0  0  0  0  0  0  0
    5.8110   -6.3400   22.1760 C   0  0  0  0  0  0  0  0  0  0  0  0
    4.8000   -6.1880   23.3230 C   0  0  0  0  0  0  0  0  0  0  0  0
    5.4800   -5.4800   24.4510 N   0  0  0  0  0  0  0  0  0  0  0  0
    5.9580   -4.1490   23.9910 C   0  0  0  0  0  0  0  0  0  0  0  0
    7.0600   -4.3690   22.9530 C   0  0  2  0  0  0  0  0  0  0  0  0
    7.6560   -3.0650   22.5500 C   0  0  0  0  0  0  0  0  0  0  0  0
  1  4  1  0
  2  5  1  0
  3  5  2  0
  4  5  1  6
  2  6  1  0
  7  8  1  0
  7  9  1  0
  7 10  1  0
  1 11  1  0
 12 13  2  0
 13 14  1  0
 14 15  2  0
  4 16  1  0
 15 16  1  0
 12 17  1  0
 16 17  2  0
 18 19  2  0
  7 20  1  0
 19 20  1  0
 20 21  2  0
 21 22  1  0
  1 23  1  0
 18 23  1  0
 22 23  2  0
 26 27  2  0
 27 28  1  0
 24 30  2  0
 25 30  2  0
 29 31  1  0
 30 32  1  0
 31 32  2  0
 32 33  1  0
 33 34  2  0
 34 35  1  0
 31 36  1  0
 35 36  2  0
 27 37  1  0
 37 38  1  0
 38 39  1  0
 30 40  1  0
 39 40  1  0
 40 41  1  0
 37 42  1  0
 41 42  1  0
 11 43  1  0
 42 43  1  6
M  END
