x0769-x0678
     RDKit          3D

 37 40  0  0  0  0  0  0  0  0999 V2000
    5.8540   -5.1530   26.7050 O   0  0  0  0  0  0  0  0  0  0  0  0
    3.9660   -6.4630   25.6830 O   0  0  0  0  0  0  0  0  0  0  0  0
    5.2410   -4.6470   19.9050 O   0  0  0  0  0  0  0  0  0  0  0  0
    6.3100   -4.3570   20.4040 C   0  0  0  0  0  0  0  0  0  0  0  0
    7.2460   -3.3770   19.6920 C   0  0  0  0  0  0  0  0  0  0  0  0
    5.7410   -2.1500   26.2580 F   0  0  0  0  0  0  0  0  0  0  0  0
    4.8020   -5.2850   25.7280 S   0  0  0  0  0  0  0  0  0  0  0  0
    9.0850    1.3860   21.2380 O   0  0  0  0  0  0  0  0  0  0  0  0
    8.6900    0.3470   21.7910 C   0  0  0  0  0  0  0  0  0  0  0  0
    9.2490   -0.1560   23.2000 C   0  0  0  0  0  0  0  0  0  0  0  0
    7.6530   -0.5640   21.2670 N   0  0  0  0  0  0  0  0  0  0  0  0
    6.2780   -2.5780   22.2860 C   0  0  0  0  0  0  0  0  0  0  0  0
    7.1490   -1.2950   22.4040 C   0  0  0  0  0  0  0  0  0  0  0  0
    4.4420   -2.4300   26.1070 C   0  0  0  0  0  0  0  0  0  0  0  0
    3.8050   -3.8160   25.8560 C   0  0  0  0  0  0  0  0  0  0  0  0
    2.3060   -4.0410   25.6970 C   0  0  0  0  0  0  0  0  0  0  0  0
    1.3770   -2.8410   25.7900 C   0  0  0  0  0  0  0  0  0  0  0  0
    1.8490   -1.6030   26.0060 C   0  0  0  0  0  0  0  0  0  0  0  0
    3.2210   -1.3720   26.1550 C   0  0  0  0  0  0  0  0  0  0  0  0
    6.6450   -4.9140   21.6180 N   0  0  0  0  0  0  0  0  0  0  0  0
    5.9890   -6.0640   22.1250 C   0  0  0  0  0  0  0  0  0  0  0  0
    4.9530   -5.8310   23.0280 C   0  0  0  0  0  0  0  0  0  0  0  0
    5.4300   -5.0700   24.1750 N   0  0  0  0  0  0  0  0  0  0  0  0
    6.7480   -4.4230   24.0370 C   0  0  0  0  0  0  0  0  0  0  0  0
    7.0360   -3.9110   22.6070 C   0  0  2  0  0  0  0  0  0  0  0  0
   11.0650   -1.4290   22.2730 C   0  0  0  0  0  0  0  0  0  0  0  0
   12.4220   -2.1090   22.5500 C   0  0  0  0  0  0  0  0  0  0  0  0
   13.2860   -1.2850   23.5520 C   0  0  0  0  0  0  0  0  0  0  0  0
   12.5750   -0.4390   24.6230 C   0  0  0  0  0  0  0  0  0  0  0  0
   11.2180   -0.6320   24.5210 C   0  0  0  0  0  0  0  0  0  0  0  0
   10.7490   -0.3660   23.1160 C   0  0  0  0  0  0  0  0  0  0  0  0
    5.6770    0.7800   20.5530 C   0  0  0  0  0  0  0  0  0  0  0  0
    4.9210    1.3010   19.5080 C   0  0  0  0  0  0  0  0  0  0  0  0
    5.3330    1.0150   18.1420 C   0  0  0  0  0  0  0  0  0  0  0  0
    6.3920    0.2730   17.8280 N   0  0  0  0  0  0  0  0  0  0  0  0
    7.0710   -0.1980   18.9010 C   0  0  0  0  0  0  0  0  0  0  0  0
    6.8130   -0.0070   20.2740 C   0  0  0  0  0  0  0  0  0  0  0  0
  3  4  2  0
  4  5  1  0
  1  7  2  0
  2  7  2  0
  8  9  2  0
  9 10  1  0
  9 11  1  0
 11 13  1  0
 12 13  1  0
  6 14  1  0
  7 15  1  0
 14 15  2  0
 15 16  1  0
 16 17  2  0
 17 18  1  0
 14 19  1  0
 18 19  2  0
  4 20  1  0
 20 21  1  0
 21 22  1  0
  7 23  1  0
 22 23  1  0
 23 24  1  0
 25 12  1  6
 20 25  1  0
 24 25  1  0
 26 27  1  0
 27 28  1  0
 28 29  1  0
 29 30  1  0
 10 31  1  0
 26 31  1  0
 30 31  1  0
 32 33  2  0
 33 34  1  0
 34 35  2  0
 35 36  1  0
 11 37  1  0
 32 37  1  0
 36 37  2  0
M  END
