x0769-x2705
     RDKit          3D

 50 54  0  0  0  0  0  0  0  0999 V2000
    7.4000   -1.1150   22.0770 N   0  0  0  0  0  0  0  0  0  0  0  0
    7.6080    2.1400   22.8980 N   0  0  0  0  0  0  0  0  0  0  0  0
    9.0060    1.2280   21.1340 O   0  0  0  0  0  0  0  0  0  0  0  0
    7.0550    0.0100   21.8360 C   0  0  1  0  0  0  0  0  0  0  0  0
    7.9640    1.2130   21.9940 C   0  0  0  0  0  0  0  0  0  0  0  0
   10.2550    2.1700   23.9380 C   0  0  0  0  0  0  0  0  0  0  0  0
    9.3080    1.2580   24.8550 C   0  0  0  0  0  0  0  0  0  0  0  0
    6.1840    4.5030   21.9780 C   0  0  0  0  0  0  0  0  0  0  0  0
   12.3370   -1.4250   23.2180 C   0  0  0  0  0  0  0  0  0  0  0  0
   12.8600   -0.0150   23.4070 C   0  0  0  0  0  0  0  0  0  0  0  0
   12.7700   -2.3760   24.1910 C   0  0  0  0  0  0  0  0  0  0  0  0
   12.8250   -1.9470   21.8490 C   0  0  0  0  0  0  0  0  0  0  0  0
    5.7960   -5.2250   26.9710 O   0  0  0  0  0  0  0  0  0  0  0  0
    3.7810   -6.6300   25.9540 O   0  0  0  0  0  0  0  0  0  0  0  0
    5.6400   -4.4530   19.8040 O   0  0  0  0  0  0  0  0  0  0  0  0
    6.4790   -4.1300   20.6020 C   0  0  0  0  0  0  0  0  0  0  0  0
    7.8430   -3.5140   20.3130 C   0  0  0  0  0  0  0  0  0  0  0  0
    5.5960   -2.3180   26.3230 F   0  0  0  0  0  0  0  0  0  0  0  0
    4.7530   -5.3720   25.9910 S   0  0  0  0  0  0  0  0  0  0  0  0
    6.6170   -1.9830   22.9130 C   0  0  0  0  0  0  0  0  0  0  0  0
    5.6360   -2.8190   22.3770 C   0  0  0  0  0  0  0  0  0  0  0  0
    6.3470    0.0610   17.9390 N   0  0  0  0  0  0  0  0  0  0  0  0
    5.1970    0.7710   17.9060 C   0  0  0  0  0  0  0  0  0  0  0  0
    4.5160    1.2760   18.9860 C   0  0  0  0  0  0  0  0  0  0  0  0
    5.0690    1.0540   20.3940 C   0  0  0  0  0  0  0  0  0  0  0  0
    6.3680    0.2690   20.4700 C   0  0  0  0  0  0  0  0  0  0  0  0
    6.9360   -0.2020   19.1280 C   0  0  0  0  0  0  0  0  0  0  0  0
   10.0970   -1.3950   24.3580 N   0  0  0  0  0  0  0  0  0  0  0  0
    8.7520   -1.3080   24.0840 N   0  0  0  0  0  0  0  0  0  0  0  0
    8.6780   -1.2150   22.7130 C   0  0  0  0  0  0  0  0  0  0  0  0
   10.0590   -1.2470   22.0880 C   0  0  0  0  0  0  0  0  0  0  0  0
   10.8300   -1.3590   23.2310 C   0  0  0  0  0  0  0  0  0  0  0  0
    9.5910    3.4510   23.5110 C   0  0  0  0  0  0  0  0  0  0  0  0
   10.2450    4.7090   23.6100 C   0  0  0  0  0  0  0  0  0  0  0  0
    9.6350    5.8950   23.2060 C   0  0  0  0  0  0  0  0  0  0  0  0
    8.2820    5.8790   22.6560 C   0  0  0  0  0  0  0  0  0  0  0  0
    7.5790    4.5360   22.5500 C   0  0  0  0  0  0  0  0  0  0  0  0
    8.2740    3.3820   22.9920 C   0  0  0  0  0  0  0  0  0  0  0  0
    4.2850   -2.5220   26.1720 C   0  0  0  0  0  0  0  0  0  0  0  0
    3.7240   -3.9450   26.0000 C   0  0  0  0  0  0  0  0  0  0  0  0
    2.2170   -4.0680   25.8340 C   0  0  0  0  0  0  0  0  0  0  0  0
    1.2760   -2.8640   25.8380 C   0  0  0  0  0  0  0  0  0  0  0  0
    1.9240   -1.4950   26.0190 C   0  0  0  0  0  0  0  0  0  0  0  0
    3.4560   -1.3880   26.1810 C   0  0  0  0  0  0  0  0  0  0  0  0
    6.0610   -4.2790   22.0370 C   0  0  0  0  0  0  0  0  0  0  0  0
    4.9860   -5.3660   22.1430 C   0  0  0  0  0  0  0  0  0  0  0  0
    5.0610   -6.1910   23.4240 C   0  0  0  0  0  0  0  0  0  0  0  0
    5.4510   -5.2170   24.4450 N   0  0  0  0  0  0  0  0  0  0  0  0
    6.8890   -4.8930   24.3730 C   0  0  0  0  0  0  0  0  0  0  0  0
    7.2610   -4.7080   22.9150 C   0  0  0  0  0  0  0  0  0  0  0  0
  1  4  1  0
  2  5  1  0
  3  5  2  0
  4  5  1  6
  6  7  1  0
  9 10  1  0
  9 11  1  0
  9 12  1  0
 15 16  2  0
 16 17  1  0
 13 19  2  0
 14 19  2  0
  1 20  1  0
 20 21  1  0
 22 23  2  0
 23 24  1  0
 24 25  2  0
  4 26  1  0
 25 26  1  0
 22 27  1  0
 26 27  2  0
 28 29  1  0
  1 30  1  0
 29 30  2  0
 30 31  1  0
  9 32  1  0
 28 32  1  0
 31 32  2  0
  6 33  1  0
 33 34  2  0
 34 35  1  0
 35 36  2  0
  8 37  1  0
 36 37  1  0
  2 38  1  0
 33 38  1  0
 37 38  2  0
 18 39  1  0
 19 40  1  0
 39 40  2  0
 40 41  1  0
 41 42  2  0
 42 43  1  0
 39 44  1  0
 43 44  2  0
 45 16  1  0
 21 45  1  0
 45 46  1  0
 46 47  1  0
 19 48  1  0
 47 48  1  0
 48 49  1  0
 45 50  1  0
 49 50  1  0
M  END
