x0769-x2646
     RDKit          3D

 40 43  0  0  0  0  0  0  0  0999 V2000
    5.6890   -5.2480   26.8930 O   0  0  0  0  0  0  0  0  0  0  0  0
    3.8050   -6.5300   25.8200 O   0  0  0  0  0  0  0  0  0  0  0  0
    5.3310   -5.0400   19.9950 O   0  0  0  0  0  0  0  0  0  0  0  0
    6.2990   -4.6170   20.6010 C   0  0  0  0  0  0  0  0  0  0  0  0
    7.0920   -3.4670   19.9930 C   0  0  0  0  0  0  0  0  0  0  0  0
    5.5950   -2.3720   26.2760 O   0  0  0  0  0  0  0  0  0  0  0  0
    4.6840   -5.3860   25.8650 S   0  0  0  0  0  0  0  0  0  0  0  0
    4.6750    1.1400   21.6260 C   0  0  0  0  0  0  0  0  0  0  0  0
    8.6530    0.9320   21.3550 O   0  0  0  0  0  0  0  0  0  0  0  0
   13.2190   -2.3950   21.1460 Cl  0  0  0  0  0  0  0  0  0  0  0  0
    6.8930   -0.6820   21.2110 N   0  0  0  0  0  0  0  0  0  0  0  0
    8.0790   -0.0700   21.7870 C   0  0  0  0  0  0  0  0  0  0  0  0
    8.5370   -0.7130   22.8950 C   0  0  2  0  0  0  0  0  0  0  0  0
    6.0350   -1.2990   25.4450 C   0  0  0  0  0  0  0  0  0  0  0  0
    7.1440   -1.7620   24.5210 C   0  0  0  0  0  0  0  0  0  0  0  0
    7.9850   -0.5480   24.1900 C   0  0  0  0  0  0  0  0  0  0  0  0
    4.2650   -2.5790   26.1140 C   0  0  0  0  0  0  0  0  0  0  0  0
    3.6980   -3.9900   25.9050 C   0  0  0  0  0  0  0  0  0  0  0  0
    2.3560   -4.1500   25.7450 C   0  0  0  0  0  0  0  0  0  0  0  0
    1.5440   -3.0140   25.7780 C   0  0  0  0  0  0  0  0  0  0  0  0
    2.0330   -1.7120   25.9680 C   0  0  0  0  0  0  0  0  0  0  0  0
    3.4000   -1.4840   26.1370 C   0  0  0  0  0  0  0  0  0  0  0  0
    6.6390   -5.2110   21.8170 N   0  0  0  0  0  0  0  0  0  0  0  0
    5.9380   -6.3180   22.1360 C   0  0  0  0  0  0  0  0  0  0  0  0
    4.8640   -6.0150   23.2060 C   0  0  0  0  0  0  0  0  0  0  0  0
    5.4510   -5.3090   24.3690 N   0  0  0  0  0  0  0  0  0  0  0  0
    6.2010   -4.2310   24.0710 C   0  0  0  0  0  0  0  0  0  0  0  0
    7.2340   -4.5300   22.9700 C   0  0  0  0  0  0  0  0  0  0  0  0
    6.3460    0.5910   17.6880 N   0  0  0  0  0  0  0  0  0  0  0  0
    6.9130   -0.1250   18.6810 C   0  0  0  0  0  0  0  0  0  0  0  0
    6.3550    0.0350   20.0900 C   0  0  0  0  0  0  0  0  0  0  0  0
    5.2860    0.9110   20.2790 C   0  0  0  0  0  0  0  0  0  0  0  0
    4.7090    1.6710   19.1000 C   0  0  0  0  0  0  0  0  0  0  0  0
    5.3120    1.4340   17.8690 C   0  0  0  0  0  0  0  0  0  0  0  0
   10.6090    0.3540   23.7560 C   0  0  0  0  0  0  0  0  0  0  0  0
   12.0640    0.5180   23.8230 C   0  0  0  0  0  0  0  0  0  0  0  0
   12.9430   -0.3850   22.9650 C   0  0  0  0  0  0  0  0  0  0  0  0
   12.3480   -1.3510   22.1360 C   0  0  0  0  0  0  0  0  0  0  0  0
   10.8660   -1.5070   22.0790 C   0  0  0  0  0  0  0  0  0  0  0  0
   10.0230   -0.6090   22.9240 C   0  0  0  0  0  0  0  0  0  0  0  0
  3  4  2  0
  4  5  1  0
  1  7  2  0
  2  7  2  0
  9 12  2  0
 11 12  1  0
 12 13  1  0
  6 14  1  0
 14 15  1  0
 13 16  1  1
 15 16  1  0
  6 17  1  0
  7 18  1  0
 17 18  1  0
 18 19  2  0
 19 20  1  0
 20 21  2  0
 17 22  2  0
 21 22  1  0
  4 23  1  0
 23 24  1  0
 24 25  1  0
  7 26  1  0
 25 26  1  0
 26 27  1  0
 23 28  1  0
 27 28  1  0
 29 30  2  0
 11 31  1  0
 30 31  1  0
  8 32  1  0
 31 32  2  0
 32 33  1  0
 29 34  1  0
 33 34  2  0
 35 36  2  0
 36 37  1  0
 10 38  1  0
 37 38  2  0
 38 39  1  0
 13 40  1  0
 35 40  1  0
 39 40  2  0
M  END
