x0769-x2776
     RDKit          3D

 51 55  0  0  0  0  0  0  0  0999 V2000
    7.1830   -0.9770   21.6450 N   0  0  0  0  0  0  0  0  0  0  0  0
    7.7880    2.0040   22.9850 N   0  0  0  0  0  0  0  0  0  0  0  0
    8.7890    1.3150   20.9140 O   0  0  0  0  0  0  0  0  0  0  0  0
   10.9390    6.8240   23.8350 O   0  0  0  0  0  0  0  0  0  0  0  0
    6.8490    0.1460   21.6540 C   0  0  1  0  0  0  0  0  0  0  0  0
   12.7010   -2.9210   24.3590 O   0  0  0  0  0  0  0  0  0  0  0  0
    7.8790    1.2350   21.8960 C   0  0  0  0  0  0  0  0  0  0  0  0
   10.5190    1.7490   23.8800 C   0  0  0  0  0  0  0  0  0  0  0  0
   11.8520    6.6540   24.9290 C   0  0  0  0  0  0  0  0  0  0  0  0
   12.3150   -1.7540   24.3600 C   0  0  1  0  0  0  0  0  0  0  0  0
   13.2070   -0.9640   23.3910 C   0  0  0  0  0  0  0  0  0  0  0  0
   13.1700   -3.3400   25.6420 C   0  0  0  0  0  0  0  0  0  0  0  0
    5.9020   -5.1020   27.0620 O   0  0  0  0  0  0  0  0  0  0  0  0
    4.0450   -6.5960   26.2310 O   0  0  0  0  0  0  0  0  0  0  0  0
    5.8870   -4.4030   19.8380 O   0  0  0  0  0  0  0  0  0  0  0  0
    6.8030   -4.1710   20.6270 C   0  0  0  0  0  0  0  0  0  0  0  0
    8.1830   -3.6380   20.2840 C   0  0  0  0  0  0  0  0  0  0  0  0
    5.7000   -2.3690   26.3000 F   0  0  0  0  0  0  0  0  0  0  0  0
    4.8570   -5.4000   26.1120 S   0  0  0  0  0  0  0  0  0  0  0  0
    6.0900   -2.0010   21.6520 C   0  0  0  0  0  0  0  0  0  0  0  0
    6.0930   -2.9790   22.6110 C   0  0  0  0  0  0  0  0  0  0  0  0
    6.3490    0.3990   17.8160 N   0  0  0  0  0  0  0  0  0  0  0  0
    5.2560    1.1860   17.8400 C   0  0  0  0  0  0  0  0  0  0  0  0
    4.6280    1.6540   18.9950 C   0  0  0  0  0  0  0  0  0  0  0  0
    5.1290    1.3220   20.2490 C   0  0  0  0  0  0  0  0  0  0  0  0
    6.2470    0.5270   20.3210 C   0  0  0  0  0  0  0  0  0  0  0  0
    6.8610    0.0540   19.0030 C   0  0  0  0  0  0  0  0  0  0  0  0
    9.8660    3.0800   23.6130 C   0  0  0  0  0  0  0  0  0  0  0  0
   10.7190    4.3530   23.8360 C   0  0  0  0  0  0  0  0  0  0  0  0
   10.0590    5.7290   23.5720 C   0  0  0  0  0  0  0  0  0  0  0  0
    8.6080    5.7930   23.0870 C   0  0  0  0  0  0  0  0  0  0  0  0
    7.9300    4.5770   22.9120 C   0  0  0  0  0  0  0  0  0  0  0  0
    8.5300    3.1890   23.1740 C   0  0  0  0  0  0  0  0  0  0  0  0
    9.5350   -1.2430   21.7410 C   0  0  0  0  0  0  0  0  0  0  0  0
   10.7590   -1.4290   22.3500 C   0  0  0  0  0  0  0  0  0  0  0  0
   10.9270   -1.6050   23.7910 C   0  0  0  0  0  0  0  0  0  0  0  0
    9.6460   -1.6010   24.6100 C   0  0  0  0  0  0  0  0  0  0  0  0
    8.4190   -1.4130   23.9450 C   0  0  0  0  0  0  0  0  0  0  0  0
    8.3420   -1.2130   22.4310 C   0  0  0  0  0  0  0  0  0  0  0  0
    4.3900   -2.5660   26.1410 C   0  0  0  0  0  0  0  0  0  0  0  0
    3.8080   -3.9820   26.0250 C   0  0  0  0  0  0  0  0  0  0  0  0
    2.2890   -4.1800   25.8390 C   0  0  0  0  0  0  0  0  0  0  0  0
    1.3930   -2.9470   25.7820 C   0  0  0  0  0  0  0  0  0  0  0  0
    2.0370   -1.5600   25.9100 C   0  0  0  0  0  0  0  0  0  0  0  0
    3.5750   -1.4330   26.0880 C   0  0  0  0  0  0  0  0  0  0  0  0
    6.4810   -4.3880   22.0880 C   0  0  0  0  0  0  0  0  0  0  0  0
    5.3930   -5.4620   22.1240 C   0  0  0  0  0  0  0  0  0  0  0  0
    4.6510   -5.4040   23.4370 C   0  0  0  0  0  0  0  0  0  0  0  0
    5.6150   -5.5250   24.5810 N   0  0  0  0  0  0  0  0  0  0  0  0
    6.9350   -4.8090   24.4780 C   0  0  0  0  0  0  0  0  0  0  0  0
    7.5310   -4.9230   23.0630 C   0  0  0  0  0  0  0  0  0  0  0  0
  1  5  1  0
  2  7  1  0
  3  7  2  0
  5  7  1  6
  4  9  1  0
  6 10  1  0
 10 11  1  6
  6 12  1  0
 15 16  2  0
 16 17  1  0
 13 19  2  0
 14 19  2  0
  1 20  1  0
 20 21  1  0
 22 23  2  0
 23 24  1  0
 24 25  2  0
  5 26  1  0
 25 26  1  0
 22 27  1  0
 26 27  2  0
  8 28  1  0
 28 29  2  0
  4 30  1  0
 29 30  1  0
 30 31  2  0
 31 32  1  0
  2 33  1  0
 28 33  1  0
 32 33  2  0
 34 35  2  0
 10 36  1  0
 35 36  1  0
 36 37  2  0
 37 38  1  0
  1 39  1  0
 34 39  1  0
 38 39  2  0
 18 40  1  0
 19 41  1  0
 40 41  2  0
 41 42  1  0
 42 43  2  0
 43 44  1  0
 40 45  1  0
 44 45  2  0
 46 16  1  0
 21 46  1  0
 46 47  1  0
 47 48  1  0
 19 49  1  0
 48 49  1  0
 49 50  1  0
 46 51  1  0
 50 51  1  0
M  END
