x0769-x2703
     RDKit          3D

 49 53  0  0  0  0  0  0  0  0999 V2000
    7.2530   -1.2770   21.8340 N   0  0  0  0  0  0  0  0  0  0  0  0
    7.4500    1.9810   22.8460 N   0  0  0  0  0  0  0  0  0  0  0  0
    8.7840    1.1330   21.0200 O   0  0  0  0  0  0  0  0  0  0  0  0
    6.8610   -0.1440   21.7340 C   0  0  1  0  0  0  0  0  0  0  0  0
    7.7650    1.0730   21.9040 C   0  0  0  0  0  0  0  0  0  0  0  0
   10.1070    1.9760   23.9790 C   0  0  0  0  0  0  0  0  0  0  0  0
    9.1630    1.1190   24.9530 C   0  0  0  0  0  0  0  0  0  0  0  0
    6.1160    4.3440   21.8610 C   0  0  0  0  0  0  0  0  0  0  0  0
   12.1310   -1.5690   24.4310 C   0  0  0  0  0  0  0  0  0  0  0  0
   12.5770   -2.9380   24.9070 C   0  0  0  0  0  0  0  0  0  0  0  0
   13.0830   -0.8570   23.7020 C   0  0  0  0  0  0  0  0  0  0  0  0
    5.9740   -5.0200   26.6690 O   0  0  0  0  0  0  0  0  0  0  0  0
    3.9580   -6.5070   25.7490 O   0  0  0  0  0  0  0  0  0  0  0  0
    5.2050   -4.7470   19.9280 O   0  0  0  0  0  0  0  0  0  0  0  0
    6.2520   -4.3510   20.3970 C   0  0  0  0  0  0  0  0  0  0  0  0
    7.1000   -3.3630   19.6130 C   0  0  0  0  0  0  0  0  0  0  0  0
    5.5640   -2.1620   26.2810 F   0  0  0  0  0  0  0  0  0  0  0  0
    4.8570   -5.1910   25.7680 S   0  0  0  0  0  0  0  0  0  0  0  0
    6.3510   -2.3830   22.2820 C   0  0  0  0  0  0  0  0  0  0  0  0
    6.3240    0.1830   17.8870 N   0  0  0  0  0  0  0  0  0  0  0  0
    5.1640    0.8630   17.9390 C   0  0  0  0  0  0  0  0  0  0  0  0
    4.4990    1.2260   19.1070 C   0  0  0  0  0  0  0  0  0  0  0  0
    5.0360    0.8930   20.3530 C   0  0  0  0  0  0  0  0  0  0  0  0
    6.2290    0.2030   20.3950 C   0  0  0  0  0  0  0  0  0  0  0  0
    6.8750   -0.1610   19.0640 C   0  0  0  0  0  0  0  0  0  0  0  0
   11.0190   -1.3470   22.5930 N   0  0  0  0  0  0  0  0  0  0  0  0
   10.8100   -1.5420   23.6890 C   0  0  0  0  0  0  0  0  0  0  0  0
    9.8230   -1.7720   24.7740 C   0  0  0  0  0  0  0  0  0  0  0  0
    8.4570   -1.6940   24.1060 C   0  0  0  0  0  0  0  0  0  0  0  0
    8.4870   -1.4060   22.5850 C   0  0  0  0  0  0  0  0  0  0  0  0
    9.7890   -1.2670   21.9770 C   0  0  0  0  0  0  0  0  0  0  0  0
    9.4620    3.2530   23.4990 C   0  0  0  0  0  0  0  0  0  0  0  0
   10.1330    4.5000   23.5850 C   0  0  0  0  0  0  0  0  0  0  0  0
    9.5420    5.6780   23.1370 C   0  0  0  0  0  0  0  0  0  0  0  0
    8.2060    5.7190   22.5500 C   0  0  0  0  0  0  0  0  0  0  0  0
    7.4980    4.3710   22.4640 C   0  0  0  0  0  0  0  0  0  0  0  0
    8.1540    3.2050   22.9450 C   0  0  0  0  0  0  0  0  0  0  0  0
    4.2570   -2.4060   26.1510 C   0  0  0  0  0  0  0  0  0  0  0  0
    3.7520   -3.8350   25.9000 C   0  0  0  0  0  0  0  0  0  0  0  0
    2.2470   -4.0400   25.7610 C   0  0  0  0  0  0  0  0  0  0  0  0
    1.2690   -2.8690   25.8680 C   0  0  0  0  0  0  0  0  0  0  0  0
    1.8590   -1.4840   26.1190 C   0  0  0  0  0  0  0  0  0  0  0  0
    3.3870   -1.3160   26.2520 C   0  0  0  0  0  0  0  0  0  0  0  0
    6.6610   -4.8180   21.6270 N   0  0  0  0  0  0  0  0  0  0  0  0
    6.1590   -6.1020   22.1580 C   0  0  0  0  0  0  0  0  0  0  0  0
    5.0280   -5.9160   23.1630 C   0  0  0  0  0  0  0  0  0  0  0  0
    5.4050   -4.8870   24.1760 N   0  0  0  0  0  0  0  0  0  0  0  0
    6.7900   -4.2990   24.0270 C   0  0  0  0  0  0  0  0  0  0  0  0
    7.0440   -3.7690   22.5960 C   0  0  2  0  0  0  0  0  0  0  0  0
  1  4  1  0
  2  5  1  0
  3  5  2  0
  4  5  1  6
  6  7  1  0
  9 10  1  0
  9 11  1  0
 14 15  2  0
 15 16  1  0
 12 18  2  0
 13 18  2  0
  1 19  1  0
 20 21  2  0
 21 22  1  0
 22 23  2  0
  4 24  1  0
 23 24  1  0
 20 25  1  0
 24 25  2  0
  9 27  1  0
 26 27  2  0
 27 28  1  0
 28 29  2  0
  1 30  1  0
 29 30  1  0
 26 31  1  0
 30 31  2  0
  6 32  1  0
 32 33  2  0
 33 34  1  0
 34 35  2  0
  8 36  1  0
 35 36  1  0
  2 37  1  0
 32 37  1  0
 36 37  2  0
 17 38  1  0
 18 39  1  0
 38 39  2  0
 39 40  1  0
 40 41  2  0
 41 42  1  0
 38 43  1  0
 42 43  2  0
 15 44  1  0
 44 45  1  0
 45 46  1  0
 18 47  1  0
 46 47  1  0
 47 48  1  0
 49 19  1  6
 44 49  1  0
 48 49  1  0
M  END
