x0769-x1308
     RDKit          3D

 20 21  0  0  0  0  0  0  0  0999 V2000
    5.8570   -5.1580   26.8020 O   0  0  0  0  0  0  0  0  0  0  0  0
    3.9230   -6.4520   25.8400 O   0  0  0  0  0  0  0  0  0  0  0  0
    5.2900   -4.8020   19.9590 O   0  0  0  0  0  0  0  0  0  0  0  0
    6.3100   -4.5030   20.5570 C   0  0  0  0  0  0  0  0  0  0  0  0
    7.2020   -3.4210   19.9520 C   0  0  0  0  0  0  0  0  0  0  0  0
    5.7970   -2.3590   26.0060 F   0  0  0  0  0  0  0  0  0  0  0  0
    4.7840   -5.2910   25.8460 S   0  0  0  0  0  0  0  0  0  0  0  0
    0.1860   -1.6040   26.2400 Cl  0  0  0  0  0  0  0  0  0  0  0  0
    4.4670   -2.4860   26.0340 C   0  0  0  0  0  0  0  0  0  0  0  0
    3.7710   -3.8600   25.9630 C   0  0  0  0  0  0  0  0  0  0  0  0
    2.4210   -4.0120   25.9920 C   0  0  0  0  0  0  0  0  0  0  0  0
    1.2340   -2.9580   26.1060 C   0  0  0  0  0  0  0  0  0  0  0  0
    2.0450   -1.6020   26.1690 C   0  0  0  0  0  0  0  0  0  0  0  0
    3.5580   -1.3180   26.1390 C   0  0  0  0  0  0  0  0  0  0  0  0
    6.5910   -5.1620   21.7610 N   0  0  0  0  0  0  0  0  0  0  0  0
    5.9000   -6.2990   22.1100 C   0  0  0  0  0  0  0  0  0  0  0  0
    4.8530   -6.0240   23.2220 C   0  0  0  0  0  0  0  0  0  0  0  0
    5.4690   -5.2290   24.3080 N   0  0  0  0  0  0  0  0  0  0  0  0
    6.1750   -4.1330   23.9320 C   0  0  0  0  0  0  0  0  0  0  0  0
    7.0360   -4.4040   22.8710 C   0  0  0  0  0  0  0  0  0  0  0  0
  3  4  2  0
  4  5  1  0
  1  7  2  0
  2  7  2  0
  6  9  1  0
  7 10  1  0
  9 10  2  0
 10 11  1  0
  8 12  1  0
 11 12  2  0
 12 13  1  0
  9 14  1  0
 13 14  2  0
  4 15  1  0
 15 16  1  0
 16 17  1  0
  7 18  1  0
 17 18  1  0
 18 19  1  0
 15 20  1  0
 19 20  1  0
M  END
