x0769-x3113
     RDKit          3D

 46 49  0  0  0  0  0  0  0  0999 V2000
    7.3260   -1.2520   22.0160 N   0  0  0  0  0  0  0  0  0  0  0  0
    8.3610    1.2570   23.4330 N   0  0  0  0  0  0  0  0  0  0  0  0
    8.6810    1.4300   21.0070 O   0  0  0  0  0  0  0  0  0  0  0  0
   12.4140    3.5970   22.6130 O   0  0  0  0  0  0  0  0  0  0  0  0
    7.0530   -0.1070   21.8680 C   0  0  1  0  0  0  0  0  0  0  0  0
    8.1190    0.9350   22.1460 C   0  0  0  0  0  0  0  0  0  0  0  0
    9.0520    2.5370   23.6580 C   0  0  0  0  0  0  0  0  0  0  0  0
   10.6420    2.5020   23.4560 C   0  0  0  0  0  0  0  0  0  0  0  0
   11.3340    3.6460   23.1860 C   0  0  0  0  0  0  0  0  0  0  0  0
   13.1400    4.7580   22.7270 C   0  0  0  0  0  0  0  0  0  0  0  0
   12.5850   -2.0770   24.2060 C   0  0  0  0  0  0  0  0  0  0  0  0
   13.5190   -2.0140   23.0330 C   0  0  0  0  0  0  0  0  0  0  0  0
   12.7580   -3.0900   25.1170 C   0  0  0  0  0  0  0  0  0  0  0  0
   12.8240   -0.7920   24.9170 C   0  0  0  0  0  0  0  0  0  0  0  0
    5.8990   -5.2660   27.0540 O   0  0  0  0  0  0  0  0  0  0  0  0
    3.9440   -6.5270   25.7940 O   0  0  0  0  0  0  0  0  0  0  0  0
    5.2660   -4.5550   19.8810 O   0  0  0  0  0  0  0  0  0  0  0  0
    6.3240   -4.2300   20.3860 C   0  0  0  0  0  0  0  0  0  0  0  0
    7.2930   -3.3180   19.6200 C   0  0  0  0  0  0  0  0  0  0  0  0
    5.6240   -2.3220   26.3170 F   0  0  0  0  0  0  0  0  0  0  0  0
    4.8180   -5.3800   25.8970 S   0  0  0  0  0  0  0  0  0  0  0  0
    6.4040   -2.3170   22.1890 C   0  0  0  0  0  0  0  0  0  0  0  0
    6.4140    0.1490   17.9640 N   0  0  0  0  0  0  0  0  0  0  0  0
    5.3070    0.9250   17.9310 C   0  0  0  0  0  0  0  0  0  0  0  0
    4.6410    1.4290   19.0270 C   0  0  0  0  0  0  0  0  0  0  0  0
    5.1540    1.1260   20.4380 C   0  0  0  0  0  0  0  0  0  0  0  0
    6.4020    0.2610   20.5070 C   0  0  0  0  0  0  0  0  0  0  0  0
    6.9680   -0.1950   19.1550 C   0  0  0  0  0  0  0  0  0  0  0  0
    9.5740   -1.9590   21.8200 C   0  0  0  0  0  0  0  0  0  0  0  0
   10.9730   -2.1980   22.3370 C   0  0  0  0  0  0  0  0  0  0  0  0
   11.1910   -1.8980   23.6730 C   0  0  0  0  0  0  0  0  0  0  0  0
   10.0550   -1.3780   24.5430 C   0  0  0  0  0  0  0  0  0  0  0  0
    8.7930   -1.1920   23.9700 C   0  0  0  0  0  0  0  0  0  0  0  0
    8.5720   -1.4700   22.6270 C   0  0  0  0  0  0  0  0  0  0  0  0
    4.3190   -2.5380   26.1310 C   0  0  0  0  0  0  0  0  0  0  0  0
    3.7740   -3.9590   25.9110 C   0  0  0  0  0  0  0  0  0  0  0  0
    2.3850   -4.1100   25.7240 C   0  0  0  0  0  0  0  0  0  0  0  0
    1.4260   -2.9240   25.7370 C   0  0  0  0  0  0  0  0  0  0  0  0
    1.9500   -1.5060   25.9570 C   0  0  0  0  0  0  0  0  0  0  0  0
    3.4700   -1.4040   26.1510 C   0  0  0  0  0  0  0  0  0  0  0  0
    6.6020   -4.6970   21.6630 N   0  0  0  0  0  0  0  0  0  0  0  0
    6.0620   -5.9970   22.1350 C   0  0  0  0  0  0  0  0  0  0  0  0
    5.0660   -5.9590   23.2740 C   0  0  0  0  0  0  0  0  0  0  0  0
    5.6850   -5.2540   24.4270 N   0  0  0  0  0  0  0  0  0  0  0  0
    6.3190   -3.9420   24.1500 C   0  0  0  0  0  0  0  0  0  0  0  0
    6.9180   -3.7140   22.7130 C   0  0  2  0  0  0  0  0  0  0  0  0
  1  5  1  0
  2  6  1  0
  3  6  2  0
  5  6  1  6
  2  7  1  0
  7  8  1  0
  4  9  1  0
  8  9  1  0
  4 10  1  0
 11 12  1  0
 11 13  1  0
 11 14  1  0
 17 18  2  0
 18 19  1  0
 15 21  2  0
 16 21  2  0
  1 22  1  0
 23 24  2  0
 24 25  1  0
 25 26  2  0
  5 27  1  0
 26 27  1  0
 23 28  1  0
 27 28  2  0
 29 30  2  0
 11 31  1  0
 30 31  1  0
 31 32  2  0
 32 33  1  0
  1 34  1  0
 29 34  1  0
 33 34  2  0
 20 35  1  0
 21 36  1  0
 35 36  2  0
 36 37  1  0
 37 38  2  0
 38 39  1  0
 35 40  1  0
 39 40  2  0
 18 41  1  0
 41 42  1  0
 42 43  1  0
 21 44  1  0
 43 44  1  0
 44 45  1  0
 46 22  1  6
 41 46  1  0
 45 46  1  0
M  END
