x0771-x3117
     RDKit          3D

 48 52  0  0  0  0  0  0  0  0999 V2000
    7.2820   -1.2690   21.9860 N   0  0  0  0  0  0  0  0  0  0  0  0
    7.8480    1.9570   23.0720 N   0  0  0  0  0  0  0  0  0  0  0  0
    8.9830    1.3150   21.0340 O   0  0  0  0  0  0  0  0  0  0  0  0
    6.8600    0.0590   21.8260 C   0  0  1  0  0  0  0  0  0  0  0  0
    7.9510    1.1420   21.9920 C   0  0  0  0  0  0  0  0  0  0  0  0
   12.4750   -1.6990   24.3010 C   0  0  0  0  0  0  0  0  0  0  0  0
   12.5800   -0.6320   25.1450 C   0  0  0  0  0  0  0  0  0  0  0  0
   13.4140   -1.5780   23.2660 C   0  0  0  0  0  0  0  0  0  0  0  0
   12.8130   -2.9960   25.0110 C   0  0  0  0  0  0  0  0  0  0  0  0
    0.6090   -1.4120   26.2690 C   0  0  0  0  0  0  0  0  0  0  0  0
    4.4330   -6.9100   25.6310 O   0  0  0  0  0  0  0  0  0  0  0  0
    5.9830   -5.2340   26.6890 O   0  0  0  0  0  0  0  0  0  0  0  0
    5.1720   -4.5260   19.8570 O   0  0  0  0  0  0  0  0  0  0  0  0
    1.9150   -6.0620   24.9460 C   0  0  0  0  0  0  0  0  0  0  0  0
    6.2500   -4.1930   20.3200 C   0  0  0  0  0  0  0  0  0  0  0  0
    7.1560   -3.2920   19.4810 C   0  0  0  0  0  0  0  0  0  0  0  0
    5.0000   -5.5780   25.6890 S   0  0  0  0  0  0  0  0  0  0  0  0
    6.3350   -2.3000   22.5240 C   0  0  0  0  0  0  0  0  0  0  0  0
    6.3070    0.1820   17.9460 N   0  0  0  0  0  0  0  0  0  0  0  0
    5.1730    0.8950   17.9410 C   0  0  0  0  0  0  0  0  0  0  0  0
    4.5200    1.3520   19.0790 C   0  0  0  0  0  0  0  0  0  0  0  0
    5.0440    1.0820   20.3410 C   0  0  0  0  0  0  0  0  0  0  0  0
    6.2280    0.3530   20.4670 C   0  0  0  0  0  0  0  0  0  0  0  0
    6.8310   -0.0840   19.2900 C   0  0  0  0  0  0  0  0  0  0  0  0
    9.8010    5.3030   24.2480 O   0  0  0  0  0  0  0  0  0  0  0  0
   10.6050    4.2230   23.8030 C   0  0  0  0  0  0  0  0  0  0  0  0
    9.8020    3.0910   23.8360 C   0  0  0  0  0  0  0  0  0  0  0  0
    8.6390    3.1590   23.0860 C   0  0  0  0  0  0  0  0  0  0  0  0
    7.9350    4.3720   23.2250 C   0  0  0  0  0  0  0  0  0  0  0  0
    8.7620    5.5310   23.2990 C   0  0  0  0  0  0  0  0  0  0  0  0
    9.6370   -1.9070   21.8930 C   0  0  0  0  0  0  0  0  0  0  0  0
   10.8940   -2.0280   22.4230 C   0  0  0  0  0  0  0  0  0  0  0  0
   11.1000   -1.6150   23.7000 C   0  0  0  0  0  0  0  0  0  0  0  0
   10.0570   -1.0930   24.4470 C   0  0  0  0  0  0  0  0  0  0  0  0
    8.7900   -0.9760   23.8970 C   0  0  0  0  0  0  0  0  0  0  0  0
    8.5660   -1.3810   22.5910 C   0  0  0  0  0  0  0  0  0  0  0  0
    1.6750   -2.4530   26.1060 C   0  0  0  0  0  0  0  0  0  0  0  0
    1.3550   -3.7230   25.6220 C   0  0  0  0  0  0  0  0  0  0  0  0
    2.3370   -4.7150   25.4710 C   0  0  0  0  0  0  0  0  0  0  0  0
    3.6530   -4.4100   25.8160 C   0  0  0  0  0  0  0  0  0  0  0  0
    3.9810   -3.1410   26.2940 C   0  0  0  0  0  0  0  0  0  0  0  0
    3.0020   -2.1720   26.4360 C   0  0  0  0  0  0  0  0  0  0  0  0
    6.6680   -4.6170   21.5790 N   0  0  0  0  0  0  0  0  0  0  0  0
    6.1410   -5.9380   21.9710 C   0  0  0  0  0  0  0  0  0  0  0  0
    5.1490   -5.8410   22.9330 C   0  0  0  0  0  0  0  0  0  0  0  0
    5.6570   -5.1910   24.1730 N   0  0  0  0  0  0  0  0  0  0  0  0
    6.8550   -4.3320   24.0770 C   0  0  0  0  0  0  0  0  0  0  0  0
    7.0220   -3.7060   22.6810 C   0  0  2  0  0  0  0  0  0  0  0  0
  1  4  1  0
  2  5  1  0
  3  5  2  0
  4  5  1  6
  6  7  1  0
  6  8  1  0
  6  9  1  0
 13 15  2  0
 15 16  1  0
 11 17  2  0
 12 17  2  0
  1 18  1  0
 19 20  2  0
 20 21  1  0
 21 22  2  0
  4 23  1  0
 22 23  1  0
 19 24  1  0
 23 24  2  0
 25 26  1  0
 26 27  1  0
  2 28  1  0
 27 28  1  0
 28 29  1  0
 25 30  1  0
 29 30  1  0
 31 32  2  0
  6 33  1  0
 32 33  1  0
 33 34  2  0
 34 35  1  0
  1 36  1  0
 31 36  1  0
 35 36  2  0
 10 37  1  0
 37 38  2  0
 14 39  1  0
 38 39  1  0
 17 40  1  0
 39 40  2  0
 40 41  1  0
 37 42  1  0
 41 42  2  0
 15 43  1  0
 43 44  1  0
 44 45  1  0
 17 46  1  0
 45 46  1  0
 46 47  1  0
 48 18  1  1
 43 48  1  0
 47 48  1  0
M  END
