x0771-x0752
     RDKit          3D

 21 22  0  0  0  0  0  0  0  0999 V2000
    0.6550   -1.2960   26.1630 C   0  0  0  0  0  0  0  0  0  0  0  0
    4.3760   -7.0450   25.9980 O   0  0  0  0  0  0  0  0  0  0  0  0
    5.8630   -5.3020   27.0240 O   0  0  0  0  0  0  0  0  0  0  0  0
    5.4710   -4.0420   19.7210 O   0  0  0  0  0  0  0  0  0  0  0  0
    2.0050   -6.1840   25.0620 C   0  0  0  0  0  0  0  0  0  0  0  0
    6.6710   -3.9930   20.0310 C   0  0  0  0  0  0  0  0  0  0  0  0
    7.6330   -3.2140   19.1830 C   0  0  0  0  0  0  0  0  0  0  0  0
    4.9110   -5.7060   26.0100 S   0  0  0  0  0  0  0  0  0  0  0  0
    7.1990   -4.6990   21.0880 N   0  0  0  0  0  0  0  0  0  0  0  0
    1.7040   -2.4480   26.0920 C   0  0  0  0  0  0  0  0  0  0  0  0
    1.3570   -3.7010   25.6240 C   0  0  0  0  0  0  0  0  0  0  0  0
    2.2910   -4.7450   25.5670 C   0  0  0  0  0  0  0  0  0  0  0  0
    3.6090   -4.4880   26.0050 C   0  0  0  0  0  0  0  0  0  0  0  0
    3.9800   -3.2260   26.4740 C   0  0  0  0  0  0  0  0  0  0  0  0
    3.0170   -2.2440   26.5040 C   0  0  0  0  0  0  0  0  0  0  0  0
    6.3870   -4.7300   22.1610 N   0  0  0  0  0  0  0  0  0  0  0  0
    5.9080   -6.1040   22.5290 C   0  0  0  0  0  0  0  0  0  0  0  0
    5.0250   -5.8160   23.5850 C   0  0  0  0  0  0  0  0  0  0  0  0
    5.6100   -5.4110   24.5330 N   0  0  0  0  0  0  0  0  0  0  0  0
    6.1610   -4.2050   24.4000 C   0  0  0  0  0  0  0  0  0  0  0  0
    6.8980   -4.0140   23.2930 C   0  0  0  0  0  0  0  0  0  0  0  0
  4  6  2  0
  6  7  1  0
  2  8  2  0
  3  8  2  0
  6  9  1  0
  1 10  1  0
 10 11  2  0
  5 12  1  0
 11 12  1  0
  8 13  1  0
 12 13  2  0
 13 14  1  0
 10 15  1  0
 14 15  2  0
  9 16  1  0
 16 17  1  0
 17 18  1  0
  8 19  1  0
 18 19  1  0
 19 20  1  0
 16 21  1  0
 20 21  1  0
M  END
