x0771-x1493-x3115-x3117-x3110
     RDKit          3D

 60 66  0  0  0  0  0  0  0  0999 V2000
    8.2200    1.5580   23.1850 N   0  0  0  0  0  0  0  0  0  0  0  0
   13.3070    5.4100   21.8390 C   0  0  0  0  0  0  0  0  0  0  0  0
   12.7720    3.5750   23.1940 O   0  0  0  0  0  0  0  0  0  0  0  0
   13.2760    4.6830   23.1320 C   0  0  0  0  0  0  0  0  0  0  0  0
    7.2910   -1.1500   21.9120 N   0  0  0  0  0  0  0  0  0  0  0  0
   11.4490    3.6340   23.2800 C   0  0  0  0  0  0  0  0  0  0  0  0
    8.6430    1.6290   20.9570 O   0  0  0  0  0  0  0  0  0  0  0  0
   10.5690    2.4310   23.4540 C   0  0  0  0  0  0  0  0  0  0  0  0
    8.0000    1.1510   21.8980 C   0  0  0  0  0  0  0  0  0  0  0  0
    6.9470    0.1310   21.6210 C   0  0  1  0  0  0  0  0  0  0  0  0
   12.4580   -1.7990   24.1530 C   0  0  0  0  0  0  0  0  0  0  0  0
   12.6870   -0.5690   25.0040 C   0  0  0  0  0  0  0  0  0  0  0  0
   13.4540   -1.8030   23.0040 C   0  0  0  0  0  0  0  0  0  0  0  0
   12.7800   -3.0280   24.9820 C   0  0  0  0  0  0  0  0  0  0  0  0
    7.8520    5.7400   22.3160 C   0  0  0  0  0  0  0  0  0  0  0  0
    0.0600   -1.2360   26.2060 C   0  0  0  0  0  0  0  0  0  0  0  0
    4.2810   -6.1710   26.0860 O   0  0  0  0  0  0  0  0  0  0  0  0
    5.8220   -4.4000   26.8420 O   0  0  0  0  0  0  0  0  0  0  0  0
    5.0180   -4.3590   19.7460 O   0  0  0  0  0  0  0  0  0  0  0  0
    1.9350   -5.8080   25.1060 C   0  0  0  0  0  0  0  0  0  0  0  0
    5.9970   -3.9160   20.2840 C   0  0  0  0  0  0  0  0  0  0  0  0
    6.9440   -3.1210   19.3670 C   0  0  0  0  0  0  0  0  0  0  0  0
    4.8360   -4.8440   25.8950 S   0  0  0  0  0  0  0  0  0  0  0  0
    6.4450   -2.0550   22.4950 C   0  0  0  0  0  0  0  0  0  0  0  0
    6.2690   -5.9760   24.7230 C   0  0  0  0  0  0  0  0  0  0  0  0
    7.2780   -5.7310   26.7130 O   0  0  0  0  0  0  0  0  0  0  0  0
    7.3880   -5.6780   25.4980 C   0  0  0  0  0  0  0  0  0  0  0  0
    5.9960   -6.1380   20.5390 O   0  0  0  0  0  0  0  0  0  0  0  0
    6.5680   -5.5760   21.4480 C   0  0  0  0  0  0  0  0  0  0  0  0
    7.5110   -6.1460   22.1770 C   0  0  0  0  0  0  0  0  0  0  0  0
    6.3550    0.2840   17.8970 N   0  0  0  0  0  0  0  0  0  0  0  0
    5.2500    1.0850   17.8800 C   0  0  0  0  0  0  0  0  0  0  0  0
    4.6330    1.6000   19.0210 C   0  0  0  0  0  0  0  0  0  0  0  0
    5.2300    1.2450   20.2040 C   0  0  0  0  0  0  0  0  0  0  0  0
    6.3510    0.4430   20.2730 C   0  0  0  0  0  0  0  0  0  0  0  0
    6.9230   -0.0530   19.0830 C   0  0  0  0  0  0  0  0  0  0  0  0
    9.6130   -1.8590   21.7920 C   0  0  0  0  0  0  0  0  0  0  0  0
   10.8950   -2.0380   22.3100 C   0  0  0  0  0  0  0  0  0  0  0  0
   11.1140   -1.6480   23.6280 C   0  0  0  0  0  0  0  0  0  0  0  0
   10.0950   -1.1160   24.3990 C   0  0  0  0  0  0  0  0  0  0  0  0
    8.8370   -0.9490   23.8640 C   0  0  0  0  0  0  0  0  0  0  0  0
    8.5980   -1.3170   22.5450 C   0  0  0  0  0  0  0  0  0  0  0  0
   10.1230    5.6600   23.2620 O   0  0  0  0  0  0  0  0  0  0  0  0
   10.4200    4.2510   23.3110 C   0  0  0  0  0  0  0  0  0  0  0  0
    9.0410    3.1860   23.3740 S   0  0  0  0  0  0  0  0  0  0  0  0
    7.4800    3.8140   24.1000 C   0  0  0  0  0  0  0  0  0  0  0  0
    8.3350    4.8850   23.5040 C   0  0  2  0  0  0  0  0  0  0  0  0
    9.0830    5.7180   24.3260 C   0  0  0  0  0  0  0  0  0  0  0  0
    1.2520   -2.1410   26.1220 C   0  0  0  0  0  0  0  0  0  0  0  0
    1.0150   -3.5720   25.6400 C   0  0  0  0  0  0  0  0  0  0  0  0
    2.1250   -4.3980   25.5730 C   0  0  0  0  0  0  0  0  0  0  0  0
    3.5030   -3.8470   25.9790 C   0  0  0  0  0  0  0  0  0  0  0  0
    3.5980   -2.5330   26.3960 C   0  0  0  0  0  0  0  0  0  0  0  0
    2.4890   -1.7020   26.4640 C   0  0  0  0  0  0  0  0  0  0  0  0
    6.1120   -4.2460   21.7240 C   0  0  0  0  0  0  0  0  0  0  0  0
    4.8750   -4.6930   22.0910 C   0  0  0  0  0  0  0  0  0  0  0  0
    4.7070   -5.2630   23.3260 C   0  0  0  0  0  0  0  0  0  0  0  0
    5.5360   -4.7960   24.3210 C   0  0  1  0  0  0  0  0  0  0  0  0
    6.5120   -3.8360   24.0390 C   0  0  0  0  0  0  0  0  0  0  0  0
    6.6990   -3.4580   22.6820 C   0  0  2  0  0  0  0  0  0  0  0  0
  2  4  1  0
  3  4  1  0
  3  6  1  0
  6  8  1  0
  1  9  1  0
  7  9  2  0
  5 10  1  0
 10  9  1  6
 11 12  1  0
 11 13  1  0
 11 14  1  0
 19 21  2  0
 21 22  1  0
 17 23  2  0
 18 23  2  0
  5 24  1  0
 25 27  1  0
 26 27  2  0
 28 29  2  0
 29 30  1  0
 31 32  2  0
 32 33  1  0
 33 34  2  0
 10 35  1  0
 34 35  1  0
 31 36  1  0
 35 36  2  0
 37 38  2  0
 11 39  1  0
 38 39  1  0
 39 40  2  0
 40 41  1  0
  5 42  1  0
 37 42  1  0
 41 42  2  0
  6 44  2  0
 43 44  1  0
  1 45  1  0
  8 45  1  0
 44 45  1  0
 45 46  1  0
 47 15  1  6
 45 47  1  0
 46 47  1  0
 43 48  1  0
 47 48  1  0
 16 49  1  0
 49 50  2  0
 20 51  1  0
 50 51  1  0
 23 52  1  0
 51 52  2  0
 52 53  1  0
 49 54  1  0
 53 54  2  0
 55 21  1  0
 29 55  1  0
 55 56  1  0
 56 57  1  0
 23 58  1  0
 58 25  1  1
 57 58  1  0
 58 59  1  0
 60 24  1  1
 55 60  1  0
 59 60  1  0
M  END
