x0771-x1093
     RDKit          3D

 41 45  0  0  0  0  0  0  0  0999 V2000
    0.7120   -1.3700   26.2100 C   0  0  0  0  0  0  0  0  0  0  0  0
    4.4380   -6.9520   25.9710 O   0  0  0  0  0  0  0  0  0  0  0  0
    5.9270   -5.1470   26.7210 O   0  0  0  0  0  0  0  0  0  0  0  0
    5.8090   -4.3200   19.7740 O   0  0  0  0  0  0  0  0  0  0  0  0
    1.9070   -6.0760   24.9470 C   0  0  0  0  0  0  0  0  0  0  0  0
    6.7080   -3.9890   20.5400 C   0  0  0  0  0  0  0  0  0  0  0  0
    8.0740   -3.4420   20.1230 C   0  0  0  0  0  0  0  0  0  0  0  0
    4.9990   -5.6440   25.7320 S   0  0  0  0  0  0  0  0  0  0  0  0
   13.1520   -1.7850   24.5770 C   0  0  0  0  0  0  0  0  0  0  0  0
    8.9060    1.4890   21.0630 O   0  0  0  0  0  0  0  0  0  0  0  0
    8.8480    0.2160   21.7330 C   0  0  0  0  0  0  0  0  0  0  0  0
    7.6050   -0.4730   21.6970 C   0  0  2  0  0  0  0  0  0  0  0  0
    6.5260   -2.5140   22.4510 C   0  0  0  0  0  0  0  0  0  0  0  0
    7.6310   -1.8370   21.8600 C   0  0  0  0  0  0  0  0  0  0  0  0
    1.7440   -2.4090   26.0740 C   0  0  0  0  0  0  0  0  0  0  0  0
    1.3890   -3.7910   25.5640 C   0  0  0  0  0  0  0  0  0  0  0  0
    2.3540   -4.8010   25.4390 C   0  0  0  0  0  0  0  0  0  0  0  0
    3.6640   -4.4660   25.8130 C   0  0  0  0  0  0  0  0  0  0  0  0
    4.0240   -3.1940   26.2800 C   0  0  0  0  0  0  0  0  0  0  0  0
    3.0660   -2.1870   26.4040 C   0  0  0  0  0  0  0  0  0  0  0  0
    6.4130   -4.0140   22.0220 C   0  0  0  0  0  0  0  0  0  0  0  0
    5.0580   -4.7290   22.1270 C   0  0  0  0  0  0  0  0  0  0  0  0
    5.0230   -5.7640   23.0410 C   0  0  0  0  0  0  0  0  0  0  0  0
    5.6800   -5.3010   24.2410 N   0  0  0  0  0  0  0  0  0  0  0  0
    7.0080   -4.9850   24.1200 C   0  0  0  0  0  0  0  0  0  0  0  0
    7.4550   -4.8010   22.8210 C   0  0  0  0  0  0  0  0  0  0  0  0
   12.4130   -1.1720   23.4810 N   0  0  0  0  0  0  0  0  0  0  0  0
   12.1400    0.1910   23.2780 C   0  0  0  0  0  0  0  0  0  0  0  0
   10.7630    0.5500   23.3130 C   0  0  0  0  0  0  0  0  0  0  0  0
    9.9420   -0.3760   22.5010 N   0  0  0  0  0  0  0  0  0  0  0  0
   10.3540   -1.7220   22.4730 C   0  0  0  0  0  0  0  0  0  0  0  0
   11.6920   -1.9380   22.5530 C   0  0  0  0  0  0  0  0  0  0  0  0
    6.2520    0.2110   18.1270 N   0  0  0  0  0  0  0  0  0  0  0  0
    7.0840   -0.2860   19.1580 C   0  0  0  0  0  0  0  0  0  0  0  0
    6.9610   -0.1220   20.4650 C   0  0  0  0  0  0  0  0  0  0  0  0
    5.8270    0.6210   20.2890 C   0  0  0  0  0  0  0  0  0  0  0  0
    5.4930    0.7650   18.8870 C   0  0  0  0  0  0  0  0  0  0  0  0
    4.4370    1.4480   18.4570 N   0  0  0  0  0  0  0  0  0  0  0  0
    3.6950    1.9900   19.4480 C   0  0  0  0  0  0  0  0  0  0  0  0
    3.9510    1.8920   20.8360 C   0  0  0  0  0  0  0  0  0  0  0  0
    5.0530    1.1880   21.2860 C   0  0  0  0  0  0  0  0  0  0  0  0
  4  6  2  0
  6  7  1  0
  2  8  2  0
  3  8  2  0
 10 11  2  0
 11 12  1  0
 12 14  1  6
 13 14  1  0
  1 15  1  0
 15 16  2  0
  5 17  1  0
 16 17  1  0
  8 18  1  0
 17 18  2  0
 18 19  1  0
 15 20  1  0
 19 20  2  0
 21  6  1  0
 13 21  1  0
 21 22  1  0
 22 23  1  0
  8 24  1  0
 23 24  1  0
 24 25  1  0
 21 26  1  0
 25 26  1  0
  9 27  1  0
 27 28  1  0
 28 29  1  0
 11 30  1  0
 29 30  1  0
 30 31  1  0
 27 32  1  0
 31 32  1  0
 33 34  1  0
 12 35  1  0
 34 35  2  0
 35 36  1  0
 33 37  1  0
 36 37  2  0
 37 38  1  0
 38 39  2  0
 39 40  1  0
 36 41  1  0
 40 41  2  0
M  END
