x0771-x2705-x2694
     RDKit          3D

 52 56  0  0  0  0  0  0  0  0999 V2000
    7.3810   -1.1920   21.9090 N   0  0  0  0  0  0  0  0  0  0  0  0
    7.6900    2.2580   22.7610 N   0  0  0  0  0  0  0  0  0  0  0  0
    9.0710    1.3130   21.1850 O   0  0  0  0  0  0  0  0  0  0  0  0
    7.0280    0.2250   21.6840 C   0  0  1  0  0  0  0  0  0  0  0  0
    8.0520    1.3000   21.8500 C   0  0  0  0  0  0  0  0  0  0  0  0
   10.2510    2.0950   23.9560 C   0  0  0  0  0  0  0  0  0  0  0  0
    9.4280    1.1460   24.8310 C   0  0  0  0  0  0  0  0  0  0  0  0
    6.4140    4.9590   21.9460 C   0  0  0  0  0  0  0  0  0  0  0  0
   12.2490   -1.7000   23.2170 C   0  0  0  0  0  0  0  0  0  0  0  0
   12.8980   -0.6050   24.0620 C   0  0  0  0  0  0  0  0  0  0  0  0
   12.9530   -2.2290   24.4190 C   0  0  0  0  0  0  0  0  0  0  0  0
   12.9220   -1.8940   21.9700 C   0  0  0  0  0  0  0  0  0  0  0  0
   10.6300    6.9770   23.7970 O   0  0  0  0  0  0  0  0  0  0  0  0
   11.7030    6.7930   24.6260 C   0  0  0  0  0  0  0  0  0  0  0  0
    0.6220   -1.4440   26.2410 C   0  0  0  0  0  0  0  0  0  0  0  0
    4.4310   -7.0520   25.6060 O   0  0  0  0  0  0  0  0  0  0  0  0
    6.0130   -5.3050   26.7640 O   0  0  0  0  0  0  0  0  0  0  0  0
    5.2660   -4.6420   19.9160 O   0  0  0  0  0  0  0  0  0  0  0  0
    2.0140   -6.0690   24.9590 C   0  0  0  0  0  0  0  0  0  0  0  0
    6.3220   -4.2520   20.3830 C   0  0  0  0  0  0  0  0  0  0  0  0
    7.1720   -3.2900   19.5550 C   0  0  0  0  0  0  0  0  0  0  0  0
    5.0660   -5.5870   25.7050 S   0  0  0  0  0  0  0  0  0  0  0  0
    6.4010   -2.2000   22.1390 C   0  0  0  0  0  0  0  0  0  0  0  0
    6.3090    0.0490   17.8960 N   0  0  0  0  0  0  0  0  0  0  0  0
    5.0520    0.7990   17.8450 C   0  0  0  0  0  0  0  0  0  0  0  0
    4.3930    1.3640   19.1140 C   0  0  0  0  0  0  0  0  0  0  0  0
    4.9920    1.1810   20.3400 C   0  0  0  0  0  0  0  0  0  0  0  0
    6.3060    0.4150   20.4010 C   0  0  0  0  0  0  0  0  0  0  0  0
    6.9320   -0.1420   19.1830 C   0  0  0  0  0  0  0  0  0  0  0  0
   10.0620   -1.5470   24.4250 N   0  0  0  0  0  0  0  0  0  0  0  0
    8.7360   -1.4140   24.0990 N   0  0  0  0  0  0  0  0  0  0  0  0
    8.6110   -1.3450   22.6290 C   0  0  0  0  0  0  0  0  0  0  0  0
    9.8850   -1.4480   22.1510 C   0  0  0  0  0  0  0  0  0  0  0  0
   10.7680   -1.5720   23.3130 C   0  0  0  0  0  0  0  0  0  0  0  0
    9.6390    3.4330   23.5760 C   0  0  0  0  0  0  0  0  0  0  0  0
   10.3680    4.5960   23.8280 C   0  0  0  0  0  0  0  0  0  0  0  0
    9.8790    5.8600   23.5150 C   0  0  0  0  0  0  0  0  0  0  0  0
    8.4820    5.9580   22.8510 C   0  0  0  0  0  0  0  0  0  0  0  0
    7.7620    4.7870   22.5990 C   0  0  0  0  0  0  0  0  0  0  0  0
    8.3770    3.4420   22.9930 C   0  0  0  0  0  0  0  0  0  0  0  0
    1.7170   -2.4550   26.0960 C   0  0  0  0  0  0  0  0  0  0  0  0
    1.4490   -3.7510   25.6170 C   0  0  0  0  0  0  0  0  0  0  0  0
    2.4410   -4.7240   25.4790 C   0  0  0  0  0  0  0  0  0  0  0  0
    3.7560   -4.3960   25.8320 C   0  0  0  0  0  0  0  0  0  0  0  0
    3.9950   -3.1180   26.2900 C   0  0  0  0  0  0  0  0  0  0  0  0
    3.0280   -2.1400   26.4330 C   0  0  0  0  0  0  0  0  0  0  0  0
    6.7470   -4.6710   21.6310 N   0  0  0  0  0  0  0  0  0  0  0  0
    6.2300   -5.9660   22.1110 C   0  0  0  0  0  0  0  0  0  0  0  0
    5.1640   -5.7340   22.9720 C   0  0  0  0  0  0  0  0  0  0  0  0
    5.8290   -5.2770   24.2030 N   0  0  0  0  0  0  0  0  0  0  0  0
    6.4270   -3.9040   24.0840 C   0  0  0  0  0  0  0  0  0  0  0  0
    6.9350   -3.5860   22.6510 C   0  0  2  0  0  0  0  0  0  0  0  0
  1  4  1  0
  2  5  1  0
  3  5  2  0
  4  5  1  6
  6  7  1  0
  9 10  1  0
  9 11  1  0
  9 12  1  0
 13 14  1  0
 18 20  2  0
 20 21  1  0
 16 22  2  0
 17 22  2  0
  1 23  1  0
 24 25  2  0
 25 26  1  0
 26 27  2  0
  4 28  1  0
 27 28  1  0
 24 29  1  0
 28 29  2  0
 30 31  1  0
  1 32  1  0
 31 32  2  0
 32 33  1  0
  9 34  1  0
 30 34  1  0
 33 34  2  0
  6 35  1  0
 35 36  2  0
 13 37  1  0
 36 37  1  0
 37 38  2  0
  8 39  1  0
 38 39  1  0
  2 40  1  0
 35 40  1  0
 39 40  2  0
 15 41  1  0
 41 42  2  0
 19 43  1  0
 42 43  1  0
 22 44  1  0
 43 44  2  0
 44 45  1  0
 41 46  1  0
 45 46  2  0
 20 47  1  0
 47 48  1  0
 48 49  1  0
 22 50  1  0
 49 50  1  0
 50 51  1  0
 52 23  1  6
 47 52  1  0
 51 52  1  0
M  END
