x0770-x2643
     RDKit          3D

 28 31  0  0  0  0  0  0  0  0999 V2000
    7.1210   -3.0470   18.9540 C   0  0  0  0  0  0  0  0  0  0  0  0
    5.2800   -4.2850   19.8110 O   0  0  0  0  0  0  0  0  0  0  0  0
   13.3830   -1.6920   21.1960 Cl  0  0  0  0  0  0  0  0  0  0  0  0
    6.1650   -3.4620   20.0550 C   0  0  0  0  0  0  0  0  0  0  0  0
    9.5110   -2.7220   24.0690 C   0  0  0  0  0  0  0  0  0  0  0  0
   12.7440    1.7020   23.1920 Cl  0  0  0  0  0  0  0  0  0  0  0  0
    7.6920    0.2370   22.9170 O   0  0  0  0  0  0  0  0  0  0  0  0
    7.9330   -0.8110   22.3600 C   0  0  0  0  0  0  0  0  0  0  0  0
    6.3710   -2.8960   21.3390 N   0  0  0  0  0  0  0  0  0  0  0  0
    7.2920   -1.8530   21.3060 C   0  0  2  0  0  0  0  0  0  0  0  0
    8.6280   -2.0300   21.9300 C   0  0  2  0  0  0  0  0  0  0  0  0
    8.6150   -2.9830   22.9530 N   0  0  0  0  0  0  0  0  0  0  0  0
    7.2670   -3.2080   23.5700 C   0  0  0  0  0  0  0  0  0  0  0  0
    6.4020   -3.8240   22.4560 C   0  0  0  0  0  0  0  0  0  0  0  0
   10.5670   -0.4390   24.2150 C   0  0  0  0  0  0  0  0  0  0  0  0
   11.5240    0.7580   23.8820 C   0  0  0  0  0  0  0  0  0  0  0  0
   12.3150    0.0780   22.9040 C   0  0  0  0  0  0  0  0  0  0  0  0
   12.2840   -1.2050   22.3790 C   0  0  0  0  0  0  0  0  0  0  0  0
   11.3900   -2.1000   22.7620 C   0  0  0  0  0  0  0  0  0  0  0  0
   10.5220   -1.7220   23.6790 C   0  0  0  0  0  0  0  0  0  0  0  0
    6.3900    1.0790   17.3740 N   0  0  0  0  0  0  0  0  0  0  0  0
    6.8570    0.3830   18.3580 C   0  0  0  0  0  0  0  0  0  0  0  0
    6.2230    0.1920   19.5380 C   0  0  0  0  0  0  0  0  0  0  0  0
    4.8830    0.6490   20.1170 C   0  0  0  0  0  0  0  0  0  0  0  0
    4.4930    1.4410   18.8280 C   0  0  0  0  0  0  0  0  0  0  0  0
    5.2210    1.5770   17.6670 C   0  0  0  0  0  0  0  0  0  0  0  0
    6.7810   -0.7610   20.4760 C   0  0  0  0  0  0  0  0  0  0  0  0
    5.6340   -0.1870   21.0770 C   0  0  0  0  0  0  0  0  0  0  0  0
  1  4  1  0
  2  4  2  0
  7  8  2  0
  4  9  1  0
  8 10  1  0
  9 10  1  0
 11  8  1  1
 10 11  1  0
  5 12  1  0
 11 12  1  0
 12 13  1  0
  9 14  1  0
 13 14  1  0
  6 16  1  0
 15 16  2  0
 16 17  1  0
  3 18  1  0
 17 18  2  0
 18 19  1  0
  5 20  1  0
 15 20  1  0
 19 20  2  0
 21 22  2  0
 22 23  1  0
 23 24  2  0
 24 25  1  0
 21 26  1  0
 25 26  2  0
 10 27  1  6
 24 28  1  0
 27 28  1  0
M  END
