x0770-x0104
     RDKit          3D

 26 28  0  0  0  0  0  0  0  0999 V2000
    9.0870    6.4680   22.6340 C   0  0  0  0  0  0  0  0  0  0  0  0
   10.3800    6.1170   23.3430 C   0  0  0  0  0  0  0  0  0  0  0  0
   10.3700    6.2890   24.5580 O   0  0  0  0  0  0  0  0  0  0  0  0
   11.4560    5.6420   22.6290 N   0  0  0  0  0  0  0  0  0  0  0  0
   12.4000    4.8570   23.2830 C   0  0  0  0  0  0  0  0  0  0  0  0
   12.6210    3.4830   22.6850 C   0  0  0  0  0  0  0  0  0  0  0  0
   13.6130   -1.9130   21.9230 F   0  0  0  0  0  0  0  0  0  0  0  0
    7.2300   -3.0040   18.8080 C   0  0  0  0  0  0  0  0  0  0  0  0
    5.4080   -4.1820   19.7810 O   0  0  0  0  0  0  0  0  0  0  0  0
    6.2920   -3.3250   19.9410 C   0  0  0  0  0  0  0  0  0  0  0  0
    9.4770   -1.8620   24.1310 C   0  0  0  0  0  0  0  0  0  0  0  0
   11.6910    2.3850   23.1890 C   0  0  0  0  0  0  0  0  0  0  0  0
   10.3870    2.6740   23.9170 C   0  0  0  0  0  0  0  0  0  0  0  0
    9.7240    1.5160   24.2300 N   0  0  0  0  0  0  0  0  0  0  0  0
   10.5390    0.5810   23.7380 C   0  0  0  0  0  0  0  0  0  0  0  0
   11.7790    0.9690   23.0960 C   0  0  0  0  0  0  0  0  0  0  0  0
   10.6080   -0.9630   23.6010 C   0  0  0  0  0  0  0  0  0  0  0  0
   11.6220   -1.6910   23.0110 C   0  0  0  0  0  0  0  0  0  0  0  0
   12.7040   -1.1450   22.4740 C   0  0  0  0  0  0  0  0  0  0  0  0
   12.7940    0.1920   22.5230 C   0  0  0  0  0  0  0  0  0  0  0  0
    6.5060   -2.6360   21.1430 N   0  0  0  0  0  0  0  0  0  0  0  0
    7.3210   -1.4110   21.1630 C   0  0  0  0  0  0  0  0  0  0  0  0
    8.6650   -1.5410   21.8290 C   0  0  0  0  0  0  0  0  0  0  0  0
    8.3380   -1.9570   23.1910 N   0  0  0  0  0  0  0  0  0  0  0  0
    7.6970   -3.1620   23.2050 C   0  0  0  0  0  0  0  0  0  0  0  0
    6.6160   -3.3460   22.3040 C   0  0  0  0  0  0  0  0  0  0  0  0
  1  2  1  0
  2  3  2  0
  2  4  1  0
  4  5  1  0
  5  6  1  0
  8 10  1  0
  9 10  2  0
  6 12  1  0
 12 13  2  0
 13 14  1  0
 14 15  1  0
 12 16  1  0
 15 16  2  0
 11 17  1  0
 15 17  1  0
 17 18  2  0
  7 19  1  0
 18 19  1  0
 16 20  1  0
 19 20  2  0
 10 21  1  0
 21 22  1  0
 22 23  1  0
 11 24  1  0
 23 24  1  0
 24 25  1  0
 21 26  1  0
 25 26  1  0
M  END
