x0770-x2600
     RDKit          3D

 28 31  0  0  0  0  0  0  0  0999 V2000
    7.4140   -2.9870   18.7290 C   0  0  0  0  0  0  0  0  0  0  0  0
    5.5860   -4.0790   19.7710 O   0  0  0  0  0  0  0  0  0  0  0  0
   13.6020   -1.1630   21.5760 N   0  0  0  0  0  0  0  0  0  0  0  0
    6.5010   -3.2340   19.9050 C   0  0  0  0  0  0  0  0  0  0  0  0
    9.7030   -2.5200   24.2160 C   0  0  0  0  0  0  0  0  0  0  0  0
   13.3650   -2.2780   20.8120 N   0  0  0  0  0  0  0  0  0  0  0  0
    7.8520   -0.3970   21.6500 C   0  0  1  0  0  0  0  0  0  0  0  0
    8.5670    0.6140   21.5050 O   0  0  0  0  0  0  0  0  0  0  0  0
    7.9700   -1.0540   23.0940 C   0  0  0  0  0  0  0  0  0  0  0  0
    6.5490   -0.1090   21.4460 N   0  0  0  0  0  0  0  0  0  0  0  0
    6.7550   -2.5070   21.0980 N   0  0  0  0  0  0  0  0  0  0  0  0
    7.9780   -1.8400   21.1130 C   0  0  2  0  0  0  0  0  0  0  0  0
    9.0860   -2.5730   21.8090 C   0  0  0  0  0  0  0  0  0  0  0  0
    8.5790   -2.4560   23.1850 C   0  0  1  0  0  0  0  0  0  0  0  0
    7.4180   -3.4290   23.3600 C   0  0  0  0  0  0  0  0  0  0  0  0
    6.3720   -3.0860   22.2640 C   0  0  0  0  0  0  0  0  0  0  0  0
   10.8030   -0.2620   24.4940 C   0  0  0  0  0  0  0  0  0  0  0  0
   11.7890    0.6390   24.1140 C   0  0  0  0  0  0  0  0  0  0  0  0
   12.7020    0.3180   23.1570 C   0  0  0  0  0  0  0  0  0  0  0  0
   12.6680   -0.9050   22.5390 C   0  0  0  0  0  0  0  0  0  0  0  0
   11.6940   -1.8250   22.8990 C   0  0  0  0  0  0  0  0  0  0  0  0
   10.7500   -1.5160   23.8770 C   0  0  0  0  0  0  0  0  0  0  0  0
    6.4040    0.6730   17.7180 N   0  0  0  0  0  0  0  0  0  0  0  0
    6.8090    0.1770   18.8970 C   0  0  0  0  0  0  0  0  0  0  0  0
    6.0580    0.4430   20.1880 C   0  0  0  0  0  0  0  0  0  0  0  0
    4.9170    1.2080   20.1600 C   0  0  0  0  0  0  0  0  0  0  0  0
    4.5010    1.7180   18.9300 C   0  0  0  0  0  0  0  0  0  0  0  0
    5.2740    1.4170   17.7940 C   0  0  0  0  0  0  0  0  0  0  0  0
  1  4  1  0
  2  4  2  0
  3  6  1  0
  7  8  1  6
  7  9  1  0
  7 10  1  0
  4 11  1  0
  7 12  1  0
 12 11  1  1
 12 13  1  0
 14  5  1  1
  9 14  1  0
 13 14  1  0
 14 15  1  0
 11 16  1  0
 15 16  1  0
 17 18  2  0
 18 19  1  0
  3 20  1  0
 19 20  2  0
 20 21  1  0
  5 22  1  0
 17 22  1  0
 21 22  2  0
 23 24  2  0
 10 25  1  0
 24 25  1  0
 25 26  2  0
 26 27  1  0
 23 28  1  0
 27 28  2  0
M  END
