x0771-x3110-x1308
     RDKit          3D

 56 59  0  0  0  0  0  0  0  0999 V2000
    8.2080    1.2990   23.2930 N   0  0  0  0  0  0  0  0  0  0  0  0
   13.3740    5.1730   22.9210 C   0  0  0  0  0  0  0  0  0  0  0  0
   12.0450    3.2550   22.4300 O   0  0  0  0  0  0  0  0  0  0  0  0
   12.4650    4.5200   21.9030 C   0  0  0  0  0  0  0  0  0  0  0  0
    7.2880   -1.2420   21.9200 N   0  0  0  0  0  0  0  0  0  0  0  0
   10.9800    4.3480   24.1050 O   0  0  0  0  0  0  0  0  0  0  0  0
   11.1240    3.3510   23.4140 C   0  0  0  0  0  0  0  0  0  0  0  0
    8.6650    1.4740   21.0720 O   0  0  0  0  0  0  0  0  0  0  0  0
   10.3410    2.1900   23.5620 C   0  0  0  0  0  0  0  0  0  0  0  0
    8.9780    2.4100   23.7040 C   0  0  0  0  0  0  0  0  0  0  0  0
    7.9800    0.9670   21.9780 C   0  0  0  0  0  0  0  0  0  0  0  0
    6.9090    0.0680   21.7360 C   0  0  1  0  0  0  0  0  0  0  0  0
   12.5190   -1.8000   24.2620 C   0  0  0  0  0  0  0  0  0  0  0  0
   12.7510   -0.6340   24.9390 C   0  0  0  0  0  0  0  0  0  0  0  0
   13.4210   -1.8440   23.0360 C   0  0  0  0  0  0  0  0  0  0  0  0
   12.8590   -2.9300   25.0310 C   0  0  0  0  0  0  0  0  0  0  0  0
    0.0420   -1.5470   26.1430 C   0  0  0  0  0  0  0  0  0  0  0  0
    3.9370   -6.6920   25.7340 O   0  0  0  0  0  0  0  0  0  0  0  0
    5.2390   -5.1280   27.2120 O   0  0  0  0  0  0  0  0  0  0  0  0
    5.9420   -4.7450   19.8800 O   0  0  0  0  0  0  0  0  0  0  0  0
    1.7620   -5.9800   25.1310 C   0  0  0  0  0  0  0  0  0  0  0  0
    6.8310   -4.3190   20.5780 C   0  0  0  0  0  0  0  0  0  0  0  0
    8.0740   -3.5550   20.0860 C   0  0  0  0  0  0  0  0  0  0  0  0
    4.5580   -5.4120   25.9680 S   0  0  0  0  0  0  0  0  0  0  0  0
    6.3800   -2.0020   22.5910 C   0  0  0  0  0  0  0  0  0  0  0  0
    5.4070   -2.4620   19.3220 C   0  0  0  0  0  0  0  0  0  0  0  0
    5.1650   -4.1350   21.4050 N   0  0  0  0  0  0  0  0  0  0  0  0
    0.6140    0.0890   26.4610 Cl  0  0  0  0  0  0  0  0  0  0  0  0
    5.8950   -3.2970   20.4620 C   0  0  0  0  0  0  0  0  0  0  0  0
    8.2520   -5.7910   25.6280 O   0  0  0  0  0  0  0  0  0  0  0  0
    6.2050   -6.7070   26.8200 O   0  0  0  0  0  0  0  0  0  0  0  0
    6.9030   -5.6950   26.0520 S   0  0  0  0  0  0  0  0  0  0  0  0
    6.3430    0.3490   17.8330 N   0  0  0  0  0  0  0  0  0  0  0  0
    5.2710    1.1590   17.8410 C   0  0  0  0  0  0  0  0  0  0  0  0
    4.7590    1.5720   19.0620 C   0  0  0  0  0  0  0  0  0  0  0  0
    5.2860    1.2120   20.2880 C   0  0  0  0  0  0  0  0  0  0  0  0
    6.3890    0.3900   20.3230 C   0  0  0  0  0  0  0  0  0  0  0  0
    6.9250   -0.0540   19.1570 C   0  0  0  0  0  0  0  0  0  0  0  0
    9.5840   -1.8310   21.8460 C   0  0  0  0  0  0  0  0  0  0  0  0
   10.8400   -1.9670   22.4090 C   0  0  0  0  0  0  0  0  0  0  0  0
   11.1360   -1.6480   23.7490 C   0  0  0  0  0  0  0  0  0  0  0  0
   10.0840   -1.1870   24.4910 C   0  0  0  0  0  0  0  0  0  0  0  0
    8.8040   -1.0280   23.9970 C   0  0  0  0  0  0  0  0  0  0  0  0
    8.5220   -1.3670   22.5610 C   0  0  0  0  0  0  0  0  0  0  0  0
    1.2090   -2.4660   26.0820 C   0  0  0  0  0  0  0  0  0  0  0  0
    1.0350   -3.7440   25.6500 C   0  0  0  0  0  0  0  0  0  0  0  0
    2.0770   -4.5900   25.6190 C   0  0  0  0  0  0  0  0  0  0  0  0
    3.3260   -4.2090   26.0130 C   0  0  0  0  0  0  0  0  0  0  0  0
    3.5430   -2.8620   26.4530 C   0  0  0  0  0  0  0  0  0  0  0  0
    2.4640   -2.0260   26.4730 C   0  0  0  0  0  0  0  0  0  0  0  0
    6.4140   -4.5180   22.0210 C   0  0  1  0  0  0  0  0  0  0  0  0
    6.3660   -5.8130   22.4320 C   0  0  0  0  0  0  0  0  0  0  0  0
    5.5530   -6.0560   23.5150 C   0  0  0  0  0  0  0  0  0  0  0  0
    5.8010   -5.1500   24.7610 C   0  0  1  0  0  0  0  0  0  0  0  0
    6.2500   -3.7170   24.4570 C   0  0  0  0  0  0  0  0  0  0  0  0
    6.8330   -3.4340   23.0500 C   0  0  2  0  0  0  0  0  0  0  0  0
  2  4  1  0
  3  4  1  0
  3  7  1  0
  6  7  2  0
  7  9  1  0
  1 10  1  0
  9 10  1  0
  1 11  1  0
  8 11  2  0
  5 12  1  0
 12 11  1  6
 13 14  1  0
 13 15  1  0
 13 16  1  0
 20 22  2  0
 22 23  1  0
 18 24  2  0
 19 24  2  0
  5 25  1  0
 17 28  1  0
 26 29  1  0
 27 29  2  3
 30 32  2  0
 31 32  2  0
 33 34  2  0
 34 35  1  0
 35 36  2  0
 12 37  1  0
 36 37  1  0
 33 38  1  0
 37 38  2  0
 39 40  2  0
 13 41  1  0
 40 41  1  0
 41 42  2  0
 42 43  1  0
  5 44  1  0
 39 44  1  0
 43 44  2  0
 17 45  1  0
 45 46  2  0
 21 47  1  0
 46 47  1  0
 24 48  1  0
 47 48  2  0
 48 49  1  0
 45 50  1  0
 49 50  2  0
 22 51  1  0
 51 27  1  6
 51 52  1  0
 52 53  1  0
 24 54  1  0
 54 32  1  1
 54 53  1  0
 54 55  1  0
 56 25  1  6
 51 56  1  0
 55 56  1  0
M  END
