x0770-x0705
     RDKit          3D

 26 28  0  0  0  0  0  0  0  0999 V2000
    1.2080   -2.4820   28.0550 C   0  0  0  0  0  0  0  0  0  0  0  0
    7.5220   -1.4670   26.0070 O   0  0  0  0  0  0  0  0  0  0  0  0
    5.5830   -3.2960   19.3490 O   0  0  0  0  0  0  0  0  0  0  0  0
    6.5550   -1.9530   25.4560 C   0  0  0  0  0  0  0  0  0  0  0  0
    6.5100   -3.2290   20.1840 C   0  0  0  0  0  0  0  0  0  0  0  0
    7.7300   -3.8910   19.7930 C   0  0  0  0  0  0  0  0  0  0  0  0
   13.3170   -1.8240   21.2150 Cl  0  0  0  0  0  0  0  0  0  0  0  0
    9.1050   -2.3940   24.1150 C   0  0  0  0  0  0  0  0  0  0  0  0
    2.5500   -2.3300   27.4000 C   0  0  0  0  0  0  0  0  0  0  0  0
    2.6550   -1.3360   26.2590 C   0  0  0  0  0  0  0  0  0  0  0  0
    4.0270   -1.1930   25.5890 C   0  0  0  0  0  0  0  0  0  0  0  0
    5.2230   -2.0290   26.0740 C   0  0  0  0  0  0  0  0  0  0  0  0
    5.0000   -3.0130   27.2570 C   0  0  0  0  0  0  0  0  0  0  0  0
    3.7340   -3.1350   27.8620 C   0  0  0  0  0  0  0  0  0  0  0  0
    6.4830   -2.7370   21.4810 N   0  0  0  0  0  0  0  0  0  0  0  0
    5.6330   -3.3930   22.3550 C   0  0  0  0  0  0  0  0  0  0  0  0
    5.3550   -2.7410   23.5090 C   0  0  0  0  0  0  0  0  0  0  0  0
    6.6050   -2.4700   24.2080 N   0  0  0  0  0  0  0  0  0  0  0  0
    7.7710   -2.0500   23.3750 C   0  0  2  0  0  0  0  0  0  0  0  0
    7.7920   -2.6090   22.0670 C   0  0  0  0  0  0  0  0  0  0  0  0
   10.5180   -0.2940   24.4400 C   0  0  0  0  0  0  0  0  0  0  0  0
   11.7120    0.5810   24.0990 C   0  0  0  0  0  0  0  0  0  0  0  0
   12.6100    0.0050   23.0180 C   0  0  0  0  0  0  0  0  0  0  0  0
   12.3120   -1.2090   22.4270 C   0  0  0  0  0  0  0  0  0  0  0  0
   11.1960   -1.9590   22.7880 C   0  0  0  0  0  0  0  0  0  0  0  0
   10.2990   -1.5310   23.7740 C   0  0  0  0  0  0  0  0  0  0  0  0
  2  4  2  0
  3  5  2  0
  5  6  1  0
  1  9  1  0
  9 10  2  0
 10 11  1  0
  4 12  1  0
 11 12  2  0
 12 13  1  0
  9 14  1  0
 13 14  2  0
  5 15  1  0
 15 16  1  0
 16 17  1  0
  4 18  1  0
 17 18  1  0
 19  8  1  1
 18 19  1  0
 15 20  1  0
 19 20  1  0
 21 22  2  0
 22 23  1  0
  7 24  1  0
 23 24  2  0
 24 25  1  0
  8 26  1  0
 21 26  1  0
 25 26  2  0
M  END
