x0770-x0387
     RDKit          3D

 24 26  0  0  0  0  0  0  0  0999 V2000
    7.2310   -2.9790   18.8120 C   0  0  0  0  0  0  0  0  0  0  0  0
    5.3460   -4.1050   19.7230 O   0  0  0  0  0  0  0  0  0  0  0  0
    6.2800   -3.3190   19.9250 C   0  0  0  0  0  0  0  0  0  0  0  0
    9.2910   -5.7330   27.5820 O   0  0  0  0  0  0  0  0  0  0  0  0
    6.5240   -2.7580   21.1900 N   0  0  0  0  0  0  0  0  0  0  0  0
    7.4220   -1.7140   21.3690 C   0  0  0  0  0  0  0  0  0  0  0  0
    8.6200   -2.1500   22.2050 C   0  0  0  0  0  0  0  0  0  0  0  0
    8.2800   -2.9990   23.2780 N   0  0  0  0  0  0  0  0  0  0  0  0
    7.4090   -4.0780   23.0510 C   0  0  0  0  0  0  0  0  0  0  0  0
    6.2420   -3.5960   22.2210 C   0  0  0  0  0  0  0  0  0  0  0  0
    9.2510   -4.6170   26.8480 C   0  0  2  0  0  0  0  0  0  0  0  0
    7.8370   -4.3520   26.3660 C   0  0  0  0  0  0  0  0  0  0  0  0
    7.7430   -3.0360   25.6060 C   0  0  0  0  0  0  0  0  0  0  0  0
    8.8340   -2.8930   24.5160 C   0  0  1  0  0  0  0  0  0  0  0  0
   10.0880   -3.5410   24.8120 C   0  0  0  0  0  0  0  0  0  0  0  0
   10.1020   -4.6940   25.6120 C   0  0  0  0  0  0  0  0  0  0  0  0
   13.5520   -1.5790   20.8910 Cl  0  0  0  0  0  0  0  0  0  0  0  0
   10.8280   -1.3930   24.7720 C   0  0  0  0  0  0  0  0  0  0  0  0
   12.2430   -1.3480   24.5510 C   0  0  0  0  0  0  0  0  0  0  0  0
   13.0780   -1.3880   23.4750 C   0  0  0  0  0  0  0  0  0  0  0  0
   12.6020   -1.5020   22.2530 C   0  0  0  0  0  0  0  0  0  0  0  0
   11.1850   -1.5670   22.1670 C   0  0  0  0  0  0  0  0  0  0  0  0
   10.4020   -1.5050   23.4390 C   0  0  0  0  0  0  0  0  0  0  0  0
    9.3470   -1.4650   24.6490 C   0  0  0  0  0  0  0  0  0  0  0  0
  1  3  1  0
  2  3  2  0
  3  5  1  0
  5  6  1  0
  6  7  1  0
  7  8  1  0
  8  9  1  0
  5 10  1  0
  9 10  1  0
 11  4  1  6
 11 12  1  0
 12 13  1  0
  8 14  1  0
 13 14  1  0
 14 15  1  0
 11 16  1  0
 15 16  1  0
 18 19  2  0
 19 20  1  0
 17 21  1  0
 20 21  2  0
 21 22  1  0
 18 23  1  0
 22 23  2  0
 14 24  1  6
 18 24  1  0
M  END
