x0770-x2912
     RDKit          3D

 30 33  0  0  0  0  0  0  0  0999 V2000
    7.9340   -1.4060   23.9970 C   0  0  0  0  0  0  0  0  0  0  0  0
    7.0200    1.1050   21.9760 O   0  0  0  0  0  0  0  0  0  0  0  0
    8.5720   -0.6510   22.9600 C   0  0  1  0  0  0  0  0  0  0  0  0
    7.5150   -0.1500   22.0650 C   0  0  0  0  0  0  0  0  0  0  0  0
   13.5340   -3.0190   20.7180 N   0  0  0  0  0  0  0  0  0  0  0  0
   12.9570   -1.9730   21.5170 C   0  0  0  0  0  0  0  0  0  0  0  0
    7.1460   -2.9650   18.8350 C   0  0  0  0  0  0  0  0  0  0  0  0
    5.3780   -4.1920   19.8130 O   0  0  0  0  0  0  0  0  0  0  0  0
    6.1380   -3.2120   19.9690 C   0  0  0  0  0  0  0  0  0  0  0  0
    9.3510   -3.1920   23.8540 C   0  0  0  0  0  0  0  0  0  0  0  0
   10.4990    0.8550   23.6980 C   0  0  0  0  0  0  0  0  0  0  0  0
   12.0070    1.0970   23.6560 C   0  0  0  0  0  0  0  0  0  0  0  0
   12.8970    0.1090   22.8980 C   0  0  0  0  0  0  0  0  0  0  0  0
   12.2380   -0.9470   22.2930 C   0  0  0  0  0  0  0  0  0  0  0  0
   10.8670   -1.1190   22.3570 C   0  0  0  0  0  0  0  0  0  0  0  0
   10.0120   -0.2470   23.0370 C   0  0  0  0  0  0  0  0  0  0  0  0
    6.1120   -2.3370   21.1510 N   0  0  0  0  0  0  0  0  0  0  0  0
    7.2690   -1.4140   21.2690 C   0  0  2  0  0  0  0  0  0  0  0  0
    8.2370   -2.2890   21.8020 C   0  0  0  0  0  0  0  0  0  0  0  0
    8.0680   -2.6690   23.1670 C   0  0  2  0  0  0  0  0  0  0  0  0
    6.8760   -3.5740   23.3330 C   0  0  0  0  0  0  0  0  0  0  0  0
    5.7730   -2.8890   22.4360 C   0  0  0  0  0  0  0  0  0  0  0  0
    4.8240    1.2970   21.7410 C   0  0  0  0  0  0  0  0  0  0  0  0
    6.1210    0.2290   17.9830 N   0  0  0  0  0  0  0  0  0  0  0  0
    5.0370    1.0030   18.1200 C   0  0  0  0  0  0  0  0  0  0  0  0
    4.5120    1.4220   19.2830 C   0  0  0  0  0  0  0  0  0  0  0  0
    5.2350    0.9550   20.3390 C   0  0  0  0  0  0  0  0  0  0  0  0
    6.3680    0.1530   20.0820 C   0  0  0  0  0  0  0  0  0  0  0  0
    6.9840   -0.3280   18.9020 C   0  0  0  0  0  0  0  0  0  0  0  0
    7.7530   -0.8070   19.9830 C   0  0  0  0  0  0  0  0  0  0  0  0
  1  3  1  0
  2  4  2  0
  3  4  1  0
  5  6  3  0
  7  9  1  0
  8  9  2  0
 11 12  2  0
 12 13  1  0
  6 14  1  0
 13 14  2  0
 14 15  1  0
  3 16  1  1
 11 16  1  0
 15 16  2  0
  9 17  1  0
  4 18  1  0
 17 18  1  0
 18 19  1  0
  1 20  1  0
 20 10  1  1
 19 20  1  0
 20 21  1  0
 17 22  1  0
 21 22  1  0
 24 25  2  0
 25 26  1  0
 23 27  1  0
 26 27  2  0
 27 28  1  0
 24 29  1  0
 28 29  2  0
 18 30  1  6
 29 30  1  0
M  END
