x0770-x3117
     RDKit          3D

 37 41  0  0  0  0  0  0  0  0999 V2000
    7.5860    1.9040   22.2490 N   0  0  0  0  0  0  0  0  0  0  0  0
    8.9250   -0.0170   21.2090 O   0  0  0  0  0  0  0  0  0  0  0  0
    7.1560    0.1110   21.4910 C   0  0  1  0  0  0  0  0  0  0  0  0
    8.4310    0.9650   21.7170 C   0  0  0  0  0  0  0  0  0  0  0  0
   12.2980   -1.9430   24.7180 C   0  0  0  0  0  0  0  0  0  0  0  0
   12.5470   -0.6090   25.2880 C   0  0  0  0  0  0  0  0  0  0  0  0
   13.2500   -1.9240   23.5980 C   0  0  0  0  0  0  0  0  0  0  0  0
   12.9660   -3.0540   25.5400 C   0  0  0  0  0  0  0  0  0  0  0  0
    7.4150   -2.9690   18.6800 C   0  0  0  0  0  0  0  0  0  0  0  0
    5.4240   -3.8130   19.6720 O   0  0  0  0  0  0  0  0  0  0  0  0
    6.4920   -3.1770   19.8410 C   0  0  0  0  0  0  0  0  0  0  0  0
    9.6450   -2.6650   23.6880 C   0  0  0  0  0  0  0  0  0  0  0  0
    6.2580    0.3650   17.7350 N   0  0  0  0  0  0  0  0  0  0  0  0
    5.2150    1.1740   17.8690 C   0  0  0  0  0  0  0  0  0  0  0  0
    4.7450    1.6520   19.0670 C   0  0  0  0  0  0  0  0  0  0  0  0
    5.3580    1.3160   20.2660 C   0  0  0  0  0  0  0  0  0  0  0  0
    6.4780    0.4710   20.2510 C   0  0  0  0  0  0  0  0  0  0  0  0
    6.9010    0.0120   19.0070 C   0  0  0  0  0  0  0  0  0  0  0  0
    9.8980    5.2050   23.6340 O   0  0  0  0  0  0  0  0  0  0  0  0
   10.6160    4.1020   23.0450 C   0  0  0  0  0  0  0  0  0  0  0  0
    9.8230    2.9570   22.7600 C   0  0  0  0  0  0  0  0  0  0  0  0
    8.3930    3.1680   22.2720 C   0  0  0  0  0  0  0  0  0  0  0  0
    7.7510    4.3910   22.9480 C   0  0  0  0  0  0  0  0  0  0  0  0
    8.6670    5.4240   23.1130 C   0  0  0  0  0  0  0  0  0  0  0  0
    9.5410   -2.2990   22.2970 C   0  0  0  0  0  0  0  0  0  0  0  0
   10.7780   -2.6080   23.0070 C   0  0  0  0  0  0  0  0  0  0  0  0
   10.8920   -2.3030   24.3950 C   0  0  2  0  0  0  0  0  0  0  0  0
   10.0020   -1.2890   24.3520 C   0  0  0  0  0  0  0  0  0  0  0  0
    8.8360   -0.8080   23.7710 C   0  0  0  0  0  0  0  0  0  0  0  0
    8.3530   -1.7070   22.8850 C   0  0  1  0  0  0  0  0  0  0  0  0
    7.1550   -2.6990   21.1210 C   0  0  0  0  0  0  0  0  0  0  0  0
    7.4280   -1.4160   21.7220 C   0  0  0  0  0  0  0  0  0  0  0  0
    8.1670   -2.7410   23.7860 N   0  0  0  0  0  0  0  0  0  0  0  0
    7.4840   -3.8700   23.1950 C   0  0  0  0  0  0  0  0  0  0  0  0
    7.6600   -3.8600   21.8250 C   0  0  0  0  0  0  0  0  0  0  0  0
   13.2740   -1.8130   20.9970 Cl  0  0  0  0  0  0  0  0  0  0  0  0
   13.0790   -0.9500   22.5010 C   0  0  0  0  0  0  0  0  0  0  0  0
  1  4  1  0
  2  4  2  0
  3  4  1  6
  5  6  1  0
  5  7  1  0
  5  8  1  0
  9 11  1  0
 10 11  2  0
 13 14  2  0
 14 15  1  0
 15 16  2  0
  3 17  1  0
 16 17  1  0
 13 18  1  0
 17 18  2  0
 19 20  1  0
 20 21  1  0
  1 22  1  0
 21 22  1  0
 22 23  1  0
 19 24  1  0
 23 24  1  0
 25 26  2  0
 27  5  1  6
 26 27  1  0
 12 28  1  0
 27 28  1  0
 28 29  2  0
 30 25  1  6
 29 30  1  0
 11 31  1  0
  3 32  1  0
 30 32  1  0
 31 32  2  0
 12 33  1  0
 30 33  1  0
 33 34  1  0
 31 35  1  0
 34 35  1  0
  7 37  1  0
 36 37  1  0
M  END
