x0770-x2569
     RDKit          3D

 28 31  0  0  0  0  0  0  0  0999 V2000
    7.3750   -2.9500   18.8280 C   0  0  0  0  0  0  0  0  0  0  0  0
    5.5750   -4.1420   19.7920 O   0  0  0  0  0  0  0  0  0  0  0  0
   13.5930   -1.2250   21.6400 N   0  0  0  0  0  0  0  0  0  0  0  0
    6.4360   -3.2560   19.9740 C   0  0  0  0  0  0  0  0  0  0  0  0
    9.6650   -2.5440   24.2460 C   0  0  0  0  0  0  0  0  0  0  0  0
    7.8260   -0.4500   21.5970 C   0  0  1  0  0  0  0  0  0  0  0  0
    8.6960    0.3340   21.2000 O   0  0  0  0  0  0  0  0  0  0  0  0
    8.0100   -0.9540   23.1070 C   0  0  0  0  0  0  0  0  0  0  0  0
    6.5600   -0.0330   21.3780 N   0  0  0  0  0  0  0  0  0  0  0  0
   13.3190   -2.2960   20.8160 N   0  0  0  0  0  0  0  0  0  0  0  0
    6.5230   -2.5730   21.2190 N   0  0  0  0  0  0  0  0  0  0  0  0
    7.6320   -1.9320   21.6530 C   0  0  1  0  0  0  0  0  0  0  0  0
    8.8970   -2.6440   21.8650 C   0  0  0  0  0  0  0  0  0  0  0  0
    8.5020   -2.4360   23.2680 C   0  0  1  0  0  0  0  0  0  0  0  0
    7.2500   -3.3360   23.5300 C   0  0  0  0  0  0  0  0  0  0  0  0
    6.2250   -3.3020   22.3150 C   0  0  0  0  0  0  0  0  0  0  0  0
   10.7620   -0.2780   24.5040 C   0  0  0  0  0  0  0  0  0  0  0  0
   11.7520    0.6200   24.1200 C   0  0  0  0  0  0  0  0  0  0  0  0
   12.6740    0.2850   23.1780 C   0  0  0  0  0  0  0  0  0  0  0  0
   12.6480   -0.9480   22.5790 C   0  0  0  0  0  0  0  0  0  0  0  0
   11.6680   -1.8630   22.9400 C   0  0  0  0  0  0  0  0  0  0  0  0
   10.7170   -1.5410   23.9010 C   0  0  0  0  0  0  0  0  0  0  0  0
    6.3890    0.7340   17.6720 N   0  0  0  0  0  0  0  0  0  0  0  0
    6.8130    0.2530   18.8440 C   0  0  0  0  0  0  0  0  0  0  0  0
    6.0970    0.4570   20.1680 C   0  0  0  0  0  0  0  0  0  0  0  0
    4.9190    1.1840   20.1190 C   0  0  0  0  0  0  0  0  0  0  0  0
    4.4700    1.6850   18.8950 C   0  0  0  0  0  0  0  0  0  0  0  0
    5.2400    1.4290   17.7540 C   0  0  0  0  0  0  0  0  0  0  0  0
  1  4  1  0
  2  4  2  0
  6  7  1  6
  6  8  1  0
  6  9  1  0
  3 10  1  0
  4 11  1  0
  6 12  1  0
 12 11  1  6
 12 13  1  0
 14  5  1  1
  8 14  1  0
 13 14  1  0
 14 15  1  0
 11 16  1  0
 15 16  1  0
 17 18  2  0
 18 19  1  0
  3 20  1  0
 19 20  2  0
 20 21  1  0
  5 22  1  0
 17 22  1  0
 21 22  2  0
 23 24  2  0
  9 25  1  0
 24 25  1  0
 25 26  2  0
 26 27  1  0
 23 28  1  0
 27 28  2  0
M  END
