x0771-x0755-x3113
     RDKit          3D

 56 61  0  0  0  0  0  0  0  0999 V2000
    7.5030   -1.1830   22.0120 N   0  0  0  0  0  0  0  0  0  0  0  0
    8.3950    1.1370   23.1530 N   0  0  0  0  0  0  0  0  0  0  0  0
    9.0280    1.8480   21.0220 O   0  0  0  0  0  0  0  0  0  0  0  0
   12.1500    3.5610   22.5730 O   0  0  0  0  0  0  0  0  0  0  0  0
    7.2640    0.1480   21.6910 C   0  0  1  0  0  0  0  0  0  0  0  0
    8.3740    1.1750   21.7900 C   0  0  0  0  0  0  0  0  0  0  0  0
    9.2890    1.9750   23.8310 C   0  0  0  0  0  0  0  0  0  0  0  0
   10.6570    2.0970   23.4930 C   0  0  0  0  0  0  0  0  0  0  0  0
   11.1550    3.4010   23.2730 C   0  0  0  0  0  0  0  0  0  0  0  0
   12.9100    4.6740   22.8650 C   0  0  0  0  0  0  0  0  0  0  0  0
   12.5450   -2.1220   24.2970 C   0  0  0  0  0  0  0  0  0  0  0  0
   13.4380   -2.4710   23.3060 C   0  0  0  0  0  0  0  0  0  0  0  0
   12.2470   -3.0570   25.2770 C   0  0  0  0  0  0  0  0  0  0  0  0
   12.7300   -0.8600   25.0580 C   0  0  0  0  0  0  0  0  0  0  0  0
    4.5390   -6.9610   25.2970 O   0  0  0  0  0  0  0  0  0  0  0  0
    6.6220   -5.2760   26.2870 N   0  0  0  0  0  0  0  0  0  0  0  0
    6.2510   -5.6110   19.9690 O   0  0  0  0  0  0  0  0  0  0  0  0
    6.7250   -4.6720   20.5630 C   0  0  0  0  0  0  0  0  0  0  0  0
    7.8550   -3.7350   20.1960 C   0  0  0  0  0  0  0  0  0  0  0  0
    5.2950   -5.5560   25.3640 S   0  0  2  0  0  0  0  0  0  0  0  0
    6.5590   -1.9460   22.6900 C   0  0  0  0  0  0  0  0  0  0  0  0
    4.8690   -4.2670   19.6700 O   0  0  0  0  0  0  0  0  0  0  0  0
    5.3490   -3.5670   20.5490 C   0  0  0  0  0  0  0  0  0  0  0  0
    5.5210   -2.1520   20.4340 C   0  0  0  0  0  0  0  0  0  0  0  0
    5.4160   -2.2790   26.2850 F   0  0  0  0  0  0  0  0  0  0  0  0
    6.4210    0.0880   18.0130 N   0  0  0  0  0  0  0  0  0  0  0  0
    5.2640    0.9910   18.0020 C   0  0  0  0  0  0  0  0  0  0  0  0
    4.7760    1.5800   19.1410 C   0  0  0  0  0  0  0  0  0  0  0  0
    5.4560    1.2710   20.3090 C   0  0  0  0  0  0  0  0  0  0  0  0
    6.5570    0.4250   20.3600 C   0  0  0  0  0  0  0  0  0  0  0  0
    7.0640   -0.1970   19.2000 C   0  0  0  0  0  0  0  0  0  0  0  0
   10.0390   -1.1940   21.7820 C   0  0  0  0  0  0  0  0  0  0  0  0
   11.2620   -1.4440   22.3870 C   0  0  0  0  0  0  0  0  0  0  0  0
   11.3030   -1.8900   23.7000 C   0  0  0  0  0  0  0  0  0  0  0  0
   10.1280   -2.0960   24.4160 C   0  0  0  0  0  0  0  0  0  0  0  0
    8.9100   -1.8540   23.8210 C   0  0  0  0  0  0  0  0  0  0  0  0
    8.8710   -1.4020   22.5070 C   0  0  0  0  0  0  0  0  0  0  0  0
    1.8070   -3.2350   25.6630 C   0  0  0  0  0  0  0  0  0  0  0  0
    1.1040   -4.2020   25.3210 C   0  0  0  0  0  0  0  0  0  0  0  0
    2.6070   -4.6790   25.3380 C   0  0  0  0  0  0  0  0  0  0  0  0
    4.0720   -4.3140   25.5850 C   0  0  0  0  0  0  0  0  0  0  0  0
    4.2770   -2.9250   25.9930 C   0  0  0  0  0  0  0  0  0  0  0  0
    2.9000   -2.4270   25.9990 C   0  0  0  0  0  0  0  0  0  0  0  0
    5.9160   -4.3090   21.6950 C   0  0  0  0  0  0  0  0  0  0  0  0
    5.3400   -5.4550   22.2390 C   0  0  2  0  0  0  0  0  0  0  0  0
    4.6780   -5.3110   23.2710 C   0  0  0  0  0  0  0  0  0  0  0  0
    5.8750   -5.3410   23.8330 C   0  0  2  0  0  0  0  0  0  0  0  0
    6.7680   -4.2550   23.7640 C   0  0  0  0  0  0  0  0  0  0  0  0
    6.4170   -3.4760   22.6750 C   0  0  0  0  0  0  0  0  0  0  0  0
    4.0590   -6.3500   27.1550 O   0  0  0  0  0  0  0  0  0  0  0  0
    6.3260   -5.0320   27.5400 N   0  0  0  0  0  0  0  0  0  0  0  0
    4.6680   -5.2760   27.9110 S   0  0  0  0  0  0  0  0  0  0  0  0
    1.4810   -6.5730   24.7270 C   0  0  0  0  0  0  0  0  0  0  0  0
    0.4570   -5.4250   24.9110 C   0  0  0  0  0  0  0  0  0  0  0  0
    0.9710   -0.9440   26.5100 C   0  0  0  0  0  0  0  0  0  0  0  0
    2.4850   -1.0510   26.3460 C   0  0  0  0  0  0  0  0  0  0  0  0
  1  5  1  0
  2  6  1  0
  3  6  2  0
  5  6  1  6
  2  7  1  0
  7  8  1  0
  4  9  1  0
  8  9  1  0
  4 10  1  0
 11 12  1  0
 11 13  1  0
 11 14  1  0
 17 18  2  0
 18 19  1  0
 15 20  2  0
 16 20  2  0
  1 21  1  0
 22 23  2  0
 23 24  1  0
 26 27  2  0
 27 28  1  0
 28 29  2  0
  5 30  1  0
 29 30  1  0
 26 31  1  0
 30 31  2  0
 32 33  2  0
 11 34  1  0
 33 34  1  0
 34 35  2  0
 35 36  1  0
  1 37  1  0
 32 37  1  0
 36 37  2  0
 38 39  2  0
 38 40  1  0
 39 40  1  0
 20 41  1  1
 40 41  2  0
 25 42  1  0
 41 42  1  0
 38 43  1  0
 42 43  2  0
 44 18  1  0
 23 44  1  0
 44 45  1  0
 45 46  1  1
 20 47  1  0
 45 47  1  0
 47 46  1  1
 47 48  1  0
 21 49  1  0
 44 49  1  0
 48 49  1  0
 16 51  1  0
 50 52  2  0
 51 52  2  0
 39 54  1  0
 53 54  1  0
 43 56  1  0
 55 56  1  0
M  END
