x0770-x0161
     RDKit          3D

 28 30  0  0  0  0  0  0  0  0999 V2000
   11.0160   -1.5640   22.6720 C   0  0  0  0  0  0  0  0  0  0  0  0
   11.6040   -0.4600   23.3160 N   0  0  0  0  0  0  0  0  0  0  0  0
   12.0240   -0.6690   24.6140 C   0  0  0  0  0  0  0  0  0  0  0  0
   13.1190   -1.1150   24.9450 O   0  0  0  0  0  0  0  0  0  0  0  0
   10.1110    5.3020   23.7650 S   0  0  0  0  0  0  0  0  0  0  0  0
   10.9610    6.4090   23.3800 O   0  0  0  0  0  0  0  0  0  0  0  0
    9.5380    5.4070   25.0870 O   0  0  0  0  0  0  0  0  0  0  0  0
    8.8380    5.2470   22.6790 N   0  0  0  0  0  0  0  0  0  0  0  0
    7.2000   -3.0240   18.9080 C   0  0  0  0  0  0  0  0  0  0  0  0
    5.3730   -4.2300   19.8100 O   0  0  0  0  0  0  0  0  0  0  0  0
    6.3020   -3.4420   20.0410 C   0  0  0  0  0  0  0  0  0  0  0  0
    9.9290   -2.6220   23.8310 C   0  0  0  0  0  0  0  0  0  0  0  0
   12.4470    1.1450   22.9570 C   0  0  0  0  0  0  0  0  0  0  0  0
   13.1330    2.4690   22.6980 C   0  0  0  0  0  0  0  0  0  0  0  0
   12.3790    3.7620   22.9590 C   0  0  0  0  0  0  0  0  0  0  0  0
   10.9560    3.7630   23.4830 C   0  0  0  0  0  0  0  0  0  0  0  0
   10.3390    2.3440   23.7300 C   0  0  0  0  0  0  0  0  0  0  0  0
   11.0320    1.1170   23.4790 C   0  0  0  0  0  0  0  0  0  0  0  0
    6.5950   -2.9330   21.3240 N   0  0  0  0  0  0  0  0  0  0  0  0
    7.1870   -1.7400   21.5300 C   0  0  0  0  0  0  0  0  0  0  0  0
    8.5460   -1.7690   21.9050 C   0  0  0  0  0  0  0  0  0  0  0  0
    8.8500   -2.8930   22.8170 N   0  0  0  0  0  0  0  0  0  0  0  0
    7.7420   -3.4770   23.3330 C   0  0  0  0  0  0  0  0  0  0  0  0
    6.8440   -3.8310   22.3120 C   0  0  0  0  0  0  0  0  0  0  0  0
   10.3690   -0.1490   23.7170 C   0  0  0  0  0  0  0  0  0  0  0  0
   12.8970   -0.2460   22.7840 C   0  0  0  0  0  0  0  0  0  0  0  0
   12.2590   -1.6000   23.0110 C   0  0  0  0  0  0  0  0  0  0  0  0
   10.8780   -1.4610   23.5140 C   0  0  0  0  0  0  0  0  0  0  0  0
  1  2  1  0
  2  3  1  0
  3  4  2  0
  5  6  2  0
  5  7  2  0
  5  8  1  0
  9 11  1  0
 10 11  2  0
 13 14  2  0
 14 15  1  0
  5 16  1  0
 15 16  2  0
 16 17  1  0
 13 18  1  0
 17 18  2  0
 11 19  1  0
 19 20  1  0
 20 21  1  0
 12 22  1  0
 21 22  1  0
 22 23  1  0
 19 24  1  0
 23 24  1  0
 18 25  1  0
  2 26  1  0
 13 26  1  0
 26 27  2  0
 12 28  1  0
 25 28  2  0
 27 28  1  0
M  END
