x0771-x0426
     RDKit          3D

 40 43  0  0  0  0  0  0  0  0999 V2000
    0.9610   -1.3110   26.6030 C   0  0  0  0  0  0  0  0  0  0  0  0
    4.5350   -7.0160   25.8600 O   0  0  0  0  0  0  0  0  0  0  0  0
    6.0950   -5.2860   26.7770 O   0  0  0  0  0  0  0  0  0  0  0  0
    5.2850   -4.5570   19.9080 O   0  0  0  0  0  0  0  0  0  0  0  0
    1.9150   -6.1700   25.6930 C   0  0  0  0  0  0  0  0  0  0  0  0
    6.3470   -4.2880   20.4710 C   0  0  0  0  0  0  0  0  0  0  0  0
    7.2750   -3.2930   19.7680 C   0  0  0  0  0  0  0  0  0  0  0  0
    5.0800   -5.6790   25.8310 S   0  0  0  0  0  0  0  0  0  0  0  0
    2.1020    1.7300   24.1320 C   0  0  0  0  0  0  0  0  0  0  0  0
    2.6000    0.5990   23.9250 N   0  0  0  0  0  0  0  0  0  0  0  0
    3.1300    2.4520   23.3380 N   0  0  0  0  0  0  0  0  0  0  0  0
    3.9530    1.8210   22.4070 C   0  0  0  0  0  0  0  0  0  0  0  0
    3.5130    1.3190   21.1610 C   0  0  0  0  0  0  0  0  0  0  0  0
    2.7970    4.2970   25.2300 F   0  0  0  0  0  0  0  0  0  0  0  0
    1.4840   -0.1240   25.9080 C   0  0  0  0  0  0  0  0  0  0  0  0
    1.7750   -0.4540   24.6050 C   0  0  0  0  0  0  0  0  0  0  0  0
    1.9260   -2.3980   26.4160 C   0  0  0  0  0  0  0  0  0  0  0  0
    1.4890   -3.8240   26.1470 C   0  0  0  0  0  0  0  0  0  0  0  0
    2.4250   -4.8510   25.9560 C   0  0  0  0  0  0  0  0  0  0  0  0
    3.7770   -4.4910   26.0370 C   0  0  0  0  0  0  0  0  0  0  0  0
    4.2070   -3.1850   26.2880 C   0  0  0  0  0  0  0  0  0  0  0  0
    3.2820   -2.1640   26.4710 C   0  0  0  0  0  0  0  0  0  0  0  0
    6.6900   -4.8840   21.7040 N   0  0  0  0  0  0  0  0  0  0  0  0
    6.0300   -6.1750   21.9830 C   0  0  0  0  0  0  0  0  0  0  0  0
    5.0820   -6.0940   23.1760 C   0  0  0  0  0  0  0  0  0  0  0  0
    5.7260   -5.4060   24.2950 N   0  0  0  0  0  0  0  0  0  0  0  0
    6.1950   -4.0610   23.9250 C   0  0  0  0  0  0  0  0  0  0  0  0
    7.1590   -4.1740   22.9200 C   0  0  0  0  0  0  0  0  0  0  0  0
    1.5170    3.9040   25.2030 C   0  0  0  0  0  0  0  0  0  0  0  0
    1.1690    2.6560   24.6620 C   0  0  0  0  0  0  0  0  0  0  0  0
   -0.2020    2.3160   24.6710 C   0  0  0  0  0  0  0  0  0  0  0  0
   -1.1780    3.1550   25.1860 C   0  0  0  0  0  0  0  0  0  0  0  0
   -0.8020    4.3660   25.7090 C   0  0  0  0  0  0  0  0  0  0  0  0
    0.5380    4.7570   25.7260 C   0  0  0  0  0  0  0  0  0  0  0  0
    5.6940    0.0140   20.2720 C   0  0  0  0  0  0  0  0  0  0  0  0
    6.5580   -0.1740   19.1980 C   0  0  0  0  0  0  0  0  0  0  0  0
    6.4850    0.4390   17.9980 N   0  0  0  0  0  0  0  0  0  0  0  0
    5.4790    1.3190   17.8350 C   0  0  0  0  0  0  0  0  0  0  0  0
    4.5270    1.6270   18.8040 C   0  0  0  0  0  0  0  0  0  0  0  0
    4.5490    1.0150   20.0710 C   0  0  0  0  0  0  0  0  0  0  0  0
  4  6  2  0
  6  7  1  0
  2  8  2  0
  3  8  2  0
  9 10  2  3
  9 11  1  0
 11 12  1  0
 12 13  1  0
  1 15  1  0
 10 16  1  0
 15 16  1  0
  1 17  1  0
 17 18  2  0
  5 19  1  0
 18 19  1  0
  8 20  1  0
 19 20  2  0
 20 21  1  0
 17 22  1  0
 21 22  2  0
  6 23  1  0
 23 24  1  0
 24 25  1  0
  8 26  1  0
 25 26  1  0
 26 27  1  0
 23 28  1  0
 27 28  1  0
 14 29  1  0
  9 30  1  0
 29 30  2  0
 30 31  1  0
 31 32  2  0
 32 33  1  0
 29 34  1  0
 33 34  2  0
 35 36  2  0
 36 37  1  0
 37 38  2  0
 38 39  1  0
 13 40  1  0
 35 40  1  0
 39 40  2  0
M  END
