x0771-x3110-x3117
     RDKit          3D

 53 58  0  0  0  0  0  0  0  0999 V2000
    8.1710    1.7420   23.3650 N   0  0  0  0  0  0  0  0  0  0  0  0
   13.3740    5.4740   22.3560 C   0  0  0  0  0  0  0  0  0  0  0  0
   12.1890    3.7760   23.4760 O   0  0  0  0  0  0  0  0  0  0  0  0
   12.7420    4.1310   22.4530 C   0  0  0  0  0  0  0  0  0  0  0  0
    7.2380   -1.3300   22.1590 N   0  0  0  0  0  0  0  0  0  0  0  0
   11.0310    3.4800   23.3630 C   0  0  0  0  0  0  0  0  0  0  0  0
    8.7550    0.8510   21.2270 O   0  0  0  0  0  0  0  0  0  0  0  0
   10.2860    2.5680   22.4590 C   0  0  0  0  0  0  0  0  0  0  0  0
    7.9520    0.8650   22.1570 C   0  0  0  0  0  0  0  0  0  0  0  0
    6.7880    0.0880   22.0730 C   0  0  1  0  0  0  0  0  0  0  0  0
   12.6270   -1.8430   24.2150 C   0  0  0  0  0  0  0  0  0  0  0  0
   12.7410   -0.7040   24.9820 C   0  0  0  0  0  0  0  0  0  0  0  0
   13.4030   -2.0780   23.0860 C   0  0  0  0  0  0  0  0  0  0  0  0
   12.8980   -2.9310   25.0700 C   0  0  0  0  0  0  0  0  0  0  0  0
    0.5490   -1.4430   26.3130 C   0  0  0  0  0  0  0  0  0  0  0  0
    4.4250   -6.9950   25.6030 O   0  0  0  0  0  0  0  0  0  0  0  0
    5.9030   -5.1430   26.7550 O   0  0  0  0  0  0  0  0  0  0  0  0
    5.2530   -4.4880   19.8750 O   0  0  0  0  0  0  0  0  0  0  0  0
    1.9310   -6.0640   24.9670 C   0  0  0  0  0  0  0  0  0  0  0  0
    6.3360   -4.1810   20.3520 C   0  0  0  0  0  0  0  0  0  0  0  0
    7.2380   -3.2540   19.5470 C   0  0  0  0  0  0  0  0  0  0  0  0
    4.9540   -5.4900   25.7210 S   0  0  0  0  0  0  0  0  0  0  0  0
    6.3800   -2.3130   22.5050 C   0  0  0  0  0  0  0  0  0  0  0  0
    6.5040    0.2050   18.0940 N   0  0  0  0  0  0  0  0  0  0  0  0
    5.3010    1.0290   17.8930 C   0  0  0  0  0  0  0  0  0  0  0  0
    4.5640    1.5410   19.1330 C   0  0  0  0  0  0  0  0  0  0  0  0
    4.9940    1.2610   20.4190 C   0  0  0  0  0  0  0  0  0  0  0  0
    6.2450    0.4160   20.6970 C   0  0  0  0  0  0  0  0  0  0  0  0
    6.9600   -0.0920   19.4690 C   0  0  0  0  0  0  0  0  0  0  0  0
    9.6310   -1.9050   21.8110 C   0  0  0  0  0  0  0  0  0  0  0  0
   10.9100   -2.0200   22.3120 C   0  0  0  0  0  0  0  0  0  0  0  0
   11.2900   -1.7380   23.7420 C   0  0  0  0  0  0  0  0  0  0  0  0
   10.0910   -1.3220   24.5850 C   0  0  0  0  0  0  0  0  0  0  0  0
    8.8060   -1.2080   24.0610 C   0  0  0  0  0  0  0  0  0  0  0  0
    8.5150   -1.4650   22.7220 C   0  0  0  0  0  0  0  0  0  0  0  0
    9.1750    4.6220   24.7590 O   0  0  0  0  0  0  0  0  0  0  0  0
    9.6650    3.8320   23.9300 C   0  0  0  0  0  0  0  0  0  0  0  0
    8.9560    2.9460   23.1090 C   0  0  2  0  0  0  0  0  0  0  0  0
    7.9840    3.7700   22.3150 C   0  0  0  0  0  0  0  0  0  0  0  0
    7.7840    5.0950   22.7550 C   0  0  0  0  0  0  0  0  0  0  0  0
    8.4860    5.5790   23.9040 C   0  0  0  0  0  0  0  0  0  0  0  0
    1.6350   -2.4630   26.1470 C   0  0  0  0  0  0  0  0  0  0  0  0
    1.3800   -3.7450   25.6610 C   0  0  0  0  0  0  0  0  0  0  0  0
    2.3600   -4.7230   25.5020 C   0  0  0  0  0  0  0  0  0  0  0  0
    3.6860   -4.4190   25.8480 C   0  0  0  0  0  0  0  0  0  0  0  0
    3.9880   -3.1550   26.3290 C   0  0  0  0  0  0  0  0  0  0  0  0
    3.0500   -2.1430   26.5040 C   0  0  0  0  0  0  0  0  0  0  0  0
    6.7370   -4.6900   21.5760 N   0  0  0  0  0  0  0  0  0  0  0  0
    6.1420   -5.9920   21.9660 C   0  0  0  0  0  0  0  0  0  0  0  0
    5.0530   -5.7970   23.0270 C   0  0  0  0  0  0  0  0  0  0  0  0
    5.5720   -5.0660   24.1970 N   0  0  0  0  0  0  0  0  0  0  0  0
    6.8680   -4.3440   24.0630 C   0  0  0  0  0  0  0  0  0  0  0  0
    7.0470   -3.7360   22.6640 C   0  0  2  0  0  0  0  0  0  0  0  0
  2  4  1  0
  3  4  1  0
  3  6  1  0
  6  8  1  0
  1  9  1  0
  7  9  2  0
  5 10  1  0
 10  9  1  6
 11 12  1  0
 11 13  1  0
 11 14  1  0
 18 20  2  0
 20 21  1  0
 16 22  2  0
 17 22  2  0
  5 23  1  0
 24 25  2  0
 25 26  1  0
 26 27  2  0
 10 28  1  0
 27 28  1  0
 24 29  1  0
 28 29  2  0
 30 31  2  0
 11 32  1  0
 31 32  1  0
 32 33  2  0
 33 34  1  0
  5 35  1  0
 30 35  1  0
 34 35  2  0
  6 37  2  0
 36 37  1  0
 38  1  1  1
  8 38  1  0
 37 38  1  0
 38 39  1  0
 39 40  1  0
 36 41  1  0
 40 41  1  0
 15 42  1  0
 42 43  2  0
 19 44  1  0
 43 44  1  0
 22 45  1  0
 44 45  2  0
 45 46  1  0
 42 47  1  0
 46 47  2  0
 20 48  1  0
 48 49  1  0
 49 50  1  0
 22 51  1  0
 50 51  1  0
 51 52  1  0
 53 23  1  1
 48 53  1  0
 52 53  1  0
M  END
