x0771-x3110-x0946
     RDKit          3D

 55 59  0  0  0  0  0  0  0  0999 V2000
    8.0650    1.1740   23.5940 N   0  0  0  0  0  0  0  0  0  0  0  0
   13.4690    5.3290   23.1890 C   0  0  0  0  0  0  0  0  0  0  0  0
   13.0110    4.3950   22.1560 C   0  0  0  0  0  0  0  0  0  0  0  0
    7.2540   -1.3490   22.0700 N   0  0  0  0  0  0  0  0  0  0  0  0
   10.3020    4.8040   23.3530 C   0  0  0  0  0  0  0  0  0  0  0  0
    8.7390    1.5060   21.2130 O   0  0  0  0  0  0  0  0  0  0  0  0
    8.8410    2.2660   24.2490 C   0  0  0  0  0  0  0  0  0  0  0  0
    7.9290    0.9440   22.1880 C   0  0  0  0  0  0  0  0  0  0  0  0
    6.8160    0.0920   21.9070 C   0  0  1  0  0  0  0  0  0  0  0  0
   12.4980   -1.8380   24.2430 C   0  0  0  0  0  0  0  0  0  0  0  0
   12.6860   -0.7000   24.9890 C   0  0  0  0  0  0  0  0  0  0  0  0
   13.4990   -1.8910   23.0910 C   0  0  0  0  0  0  0  0  0  0  0  0
   12.8220   -3.0360   25.1050 C   0  0  0  0  0  0  0  0  0  0  0  0
    9.0030    4.9380   22.6860 N   0  0  0  0  0  0  0  0  0  0  0  0
   11.0240    5.6740   22.9250 O   0  0  0  0  0  0  0  0  0  0  0  0
   10.1590    5.3530   24.6340 O   0  0  0  0  0  0  0  0  0  0  0  0
    0.5840   -1.3610   26.3210 C   0  0  0  0  0  0  0  0  0  0  0  0
    4.3660   -6.9080   25.5800 O   0  0  0  0  0  0  0  0  0  0  0  0
    5.8930   -5.2550   26.7190 O   0  0  0  0  0  0  0  0  0  0  0  0
    5.2470   -4.5330   19.8980 O   0  0  0  0  0  0  0  0  0  0  0  0
    1.7690   -6.0210   24.9540 C   0  0  0  0  0  0  0  0  0  0  0  0
    6.3450   -4.1460   20.2610 C   0  0  0  0  0  0  0  0  0  0  0  0
    7.2000   -3.2500   19.3800 C   0  0  0  0  0  0  0  0  0  0  0  0
    4.9080   -5.5800   25.7260 S   0  0  0  0  0  0  0  0  0  0  0  0
    6.4100   -2.3200   22.5420 C   0  0  0  0  0  0  0  0  0  0  0  0
    6.4220    0.2140   17.9900 N   0  0  0  0  0  0  0  0  0  0  0  0
    5.3280    0.9870   17.9170 C   0  0  0  0  0  0  0  0  0  0  0  0
    4.5770    1.5500   19.1030 C   0  0  0  0  0  0  0  0  0  0  0  0
    5.1490    1.1910   20.4740 C   0  0  0  0  0  0  0  0  0  0  0  0
    6.2880    0.3910   20.4880 C   0  0  0  0  0  0  0  0  0  0  0  0
    6.9160   -0.0940   19.3420 C   0  0  0  0  0  0  0  0  0  0  0  0
    9.5750   -1.6360   21.7890 C   0  0  0  0  0  0  0  0  0  0  0  0
   10.8640   -1.7680   22.1890 C   0  0  0  0  0  0  0  0  0  0  0  0
   11.1800   -1.7420   23.5290 C   0  0  0  0  0  0  0  0  0  0  0  0
   10.0980   -1.5830   24.4450 C   0  0  0  0  0  0  0  0  0  0  0  0
    8.7760   -1.4520   24.0170 C   0  0  0  0  0  0  0  0  0  0  0  0
    8.5600   -1.4800   22.6530 C   0  0  0  0  0  0  0  0  0  0  0  0
   12.0910    0.8240   23.2460 C   0  0  0  0  0  0  0  0  0  0  0  0
   12.7820    1.8980   22.7740 C   0  0  0  0  0  0  0  0  0  0  0  0
   12.1920    3.3010   22.7470 C   0  0  0  0  0  0  0  0  0  0  0  0
   10.9360    3.4040   23.2740 C   0  0  0  0  0  0  0  0  0  0  0  0
   10.2580    2.2660   23.7210 C   0  0  0  0  0  0  0  0  0  0  0  0
   10.8170    1.0260   23.7100 C   0  0  0  0  0  0  0  0  0  0  0  0
    1.6260   -2.4390   26.1470 C   0  0  0  0  0  0  0  0  0  0  0  0
    1.2200   -3.7150   25.6330 C   0  0  0  0  0  0  0  0  0  0  0  0
    2.2060   -4.6920   25.4930 C   0  0  0  0  0  0  0  0  0  0  0  0
    3.5640   -4.4200   25.8540 C   0  0  0  0  0  0  0  0  0  0  0  0
    3.8510   -3.1820   26.3270 C   0  0  0  0  0  0  0  0  0  0  0  0
    2.9380   -2.1760   26.4890 C   0  0  0  0  0  0  0  0  0  0  0  0
    6.9010   -4.5460   21.4620 N   0  0  0  0  0  0  0  0  0  0  0  0
    6.4760   -5.6630   22.1590 C   0  0  0  0  0  0  0  0  0  0  0  0
    5.2070   -5.7420   23.0070 C   0  0  0  0  0  0  0  0  0  0  0  0
    5.5310   -5.0670   24.2370 N   0  0  0  0  0  0  0  0  0  0  0  0
    6.7890   -4.3090   24.1430 C   0  0  0  0  0  0  0  0  0  0  0  0
    7.1110   -3.7460   22.7120 C   0  0  2  0  0  0  0  0  0  0  0  0
  2  3  1  0
  1  7  1  0
  1  8  1  0
  6  8  2  0
  4  9  1  0
  9  8  1  6
 10 11  1  0
 10 12  1  0
 10 13  1  0
  5 14  1  0
  5 15  1  0
  5 16  1  0
 20 22  2  0
 22 23  1  0
 18 24  2  0
 19 24  2  0
  4 25  1  0
 26 27  2  0
 27 28  1  0
 28 29  2  0
  9 30  1  0
 29 30  1  0
 26 31  1  0
 30 31  2  0
 32 33  2  0
 10 34  1  0
 33 34  1  0
 34 35  2  0
 35 36  1  0
  4 37  1  0
 32 37  1  0
 36 37  2  0
 38 39  2  0
  3 40  1  0
 39 40  1  0
  5 41  1  0
 40 41  2  0
  7 42  1  0
 41 42  1  0
 38 43  1  0
 42 43  2  0
 17 44  1  0
 44 45  2  0
 21 46  1  0
 45 46  1  0
 24 47  1  0
 46 47  2  0
 47 48  1  0
 44 49  1  0
 48 49  2  0
 22 50  1  0
 50 51  1  0
 51 52  1  0
 24 53  1  0
 52 53  1  0
 53 54  1  0
 55 25  1  6
 50 55  1  0
 54 55  1  0
M  END
