x0771-x0978-x2776-x2694-x3124
     RDKit          3D

 61 65  0  0  0  0  0  0  0  0999 V2000
    7.1220   -1.4100   21.7520 N   0  0  0  0  0  0  0  0  0  0  0  0
    7.7390    1.9960   22.9280 N   0  0  0  0  0  0  0  0  0  0  0  0
    8.7930    1.2690   20.9720 O   0  0  0  0  0  0  0  0  0  0  0  0
   10.7620    6.7740   23.8360 O   0  0  0  0  0  0  0  0  0  0  0  0
    6.7520    0.0520   21.5930 C   0  0  1  0  0  0  0  0  0  0  0  0
   13.7200   -2.7940   24.2660 O   0  0  0  0  0  0  0  0  0  0  0  0
    7.8620    1.1130   21.7590 C   0  0  0  0  0  0  0  0  0  0  0  0
   10.4990    1.7140   23.8600 C   0  0  0  0  0  0  0  0  0  0  0  0
   11.8330    6.7370   24.7780 C   0  0  0  0  0  0  0  0  0  0  0  0
   12.6340   -1.9510   23.9450 C   0  0  1  0  0  0  0  0  0  0  0  0
   12.9440   -0.4920   24.1610 C   0  0  0  0  0  0  0  0  0  0  0  0
   13.5710   -3.1690   25.6230 C   0  0  0  0  0  0  0  0  0  0  0  0
   12.1140   -2.1020   22.5230 C   0  0  0  0  0  0  0  0  0  0  0  0
    2.1590   -5.5120   23.0660 N   0  0  0  0  0  0  0  0  0  0  0  0
    2.2030   -8.2760   24.0820 C   0  0  0  0  0  0  0  0  0  0  0  0
    4.3840   -7.8330   24.5430 O   0  0  0  0  0  0  0  0  0  0  0  0
    3.3370   -7.2330   24.3550 C   0  0  1  0  0  0  0  0  0  0  0  0
    0.9500   -7.4390   21.8960 O   0  0  0  0  0  0  0  0  0  0  0  0
    3.4810   -6.1510   23.2630 C   0  0  2  0  0  0  0  0  0  0  0  0
    4.2050   -3.8190   23.8660 O   0  0  0  0  0  0  0  0  0  0  0  0
    0.9630   -6.1880   22.5730 C   0  0  0  0  0  0  0  0  0  0  0  0
   -0.2740   -5.4170   22.8400 C   0  0  0  0  0  0  0  0  0  0  0  0
    6.0650   -2.4160   22.2370 C   0  0  0  0  0  0  0  0  0  0  0  0
    0.5510   -1.3320   26.1980 C   0  0  0  0  0  0  0  0  0  0  0  0
    4.5800   -6.8660   26.2080 O   0  0  0  0  0  0  0  0  0  0  0  0
    6.1630   -5.0060   26.9970 O   0  0  0  0  0  0  0  0  0  0  0  0
    5.8230   -4.3180   19.7780 O   0  0  0  0  0  0  0  0  0  0  0  0
    1.9310   -6.1230   25.7960 C   0  0  0  0  0  0  0  0  0  0  0  0
    6.7130   -3.9700   20.5440 C   0  0  0  0  0  0  0  0  0  0  0  0
    8.0730   -3.4540   20.1730 C   0  0  0  0  0  0  0  0  0  0  0  0
    5.0840   -5.5170   26.0390 S   0  0  0  0  0  0  0  0  0  0  0  0
    6.3840    0.4230   17.8220 N   0  0  0  0  0  0  0  0  0  0  0  0
    5.2500    1.2030   17.8050 C   0  0  0  0  0  0  0  0  0  0  0  0
    4.5950    1.5960   18.9480 C   0  0  0  0  0  0  0  0  0  0  0  0
    5.0660    1.2220   20.1860 C   0  0  0  0  0  0  0  0  0  0  0  0
    6.2140    0.4420   20.2290 C   0  0  0  0  0  0  0  0  0  0  0  0
    6.8730    0.0340   19.0500 C   0  0  0  0  0  0  0  0  0  0  0  0
    9.8360    3.0400   23.6000 C   0  0  0  0  0  0  0  0  0  0  0  0
   10.6510    4.3180   23.8380 C   0  0  0  0  0  0  0  0  0  0  0  0
   10.1180    5.5820   23.6340 C   0  0  0  0  0  0  0  0  0  0  0  0
    8.6750    5.6390   23.1410 C   0  0  0  0  0  0  0  0  0  0  0  0
    7.9730    4.4510   22.9320 C   0  0  0  0  0  0  0  0  0  0  0  0
    8.4990    3.1750   23.1480 C   0  0  0  0  0  0  0  0  0  0  0  0
    9.5840   -1.8030   22.0050 C   0  0  0  0  0  0  0  0  0  0  0  0
   10.6960   -1.7780   22.8580 C   0  0  0  0  0  0  0  0  0  0  0  0
   10.5300   -1.4100   24.1960 C   0  0  0  0  0  0  0  0  0  0  0  0
    9.2990   -1.0670   24.6990 C   0  0  0  0  0  0  0  0  0  0  0  0
    8.2250   -1.0990   23.8320 C   0  0  0  0  0  0  0  0  0  0  0  0
    8.3210   -1.4500   22.5100 C   0  0  0  0  0  0  0  0  0  0  0  0
    1.6540   -2.3380   26.1530 C   0  0  0  0  0  0  0  0  0  0  0  0
    1.4260   -3.7170   25.9990 C   0  0  0  0  0  0  0  0  0  0  0  0
    2.4290   -4.7160   25.9600 C   0  0  0  0  0  0  0  0  0  0  0  0
    3.7100   -4.3040   26.0780 C   0  0  0  0  0  0  0  0  0  0  0  0
    4.1190   -2.9790   26.2320 C   0  0  0  0  0  0  0  0  0  0  0  0
    3.1760   -1.9710   26.2780 C   0  0  0  0  0  0  0  0  0  0  0  0
    6.3760   -3.9820   22.0160 C   0  0  2  0  0  0  0  0  0  0  0  0
    5.1850   -4.7230   22.1680 C   0  0  0  0  0  0  0  0  0  0  0  0
    4.6820   -5.0700   23.4400 C   0  0  2  0  0  0  0  0  0  0  0  0
    5.7280   -5.3930   24.4610 N   0  0  0  0  0  0  0  0  0  0  0  0
    6.9830   -4.6150   24.3710 C   0  0  0  0  0  0  0  0  0  0  0  0
    7.4430   -4.6070   22.9290 C   0  0  0  0  0  0  0  0  0  0  0  0
  1  5  1  0
  2  7  1  0
  3  7  2  0
  5  7  1  6
  4  9  1  0
  6 10  1  0
 10 11  1  6
  6 12  1  0
 10 13  1  0
 17 15  1  6
 16 17  1  0
 19 14  1  1
 17 19  1  0
 14 21  1  0
 18 21  2  0
 21 22  1  0
  1 23  1  0
 27 29  2  0
 29 30  1  0
 25 31  2  0
 26 31  2  0
 32 33  2  0
 33 34  1  0
 34 35  2  0
  5 36  1  0
 35 36  1  0
 32 37  1  0
 36 37  2  0
  8 38  1  0
 38 39  2  0
  4 40  1  0
 39 40  1  0
 40 41  2  0
 41 42  1  0
  2 43  1  0
 38 43  1  0
 42 43  2  0
 13 45  1  0
 44 45  2  0
 45 46  1  0
 46 47  2  0
 47 48  1  0
  1 49  1  0
 44 49  1  0
 48 49  2  0
 24 50  1  0
 50 51  2  0
 28 52  1  0
 51 52  1  0
 31 53  1  0
 52 53  2  0
 53 54  1  0
 50 55  1  0
 54 55  2  0
 56 23  1  1
 56 29  1  0
 56 57  1  0
 19 58  1  0
 58 20  1  1
 57 58  1  0
 31 59  1  0
 58 59  1  0
 59 60  1  0
 56 61  1  0
 60 61  1  0
M  END
