x0771-x1308-x3113
     RDKit          3D

 54 57  0  0  0  0  0  0  0  0999 V2000
    7.2950   -1.2220   22.0010 N   0  0  0  0  0  0  0  0  0  0  0  0
    8.3060    1.2260   23.1940 N   0  0  0  0  0  0  0  0  0  0  0  0
    9.0140    1.6790   21.0220 O   0  0  0  0  0  0  0  0  0  0  0  0
   11.6330    3.7170   22.4610 O   0  0  0  0  0  0  0  0  0  0  0  0
    7.1440    0.1500   21.7760 C   0  0  1  0  0  0  0  0  0  0  0  0
    8.3080    1.1200   21.8370 C   0  0  0  0  0  0  0  0  0  0  0  0
    9.3430    1.9850   23.7410 C   0  0  0  0  0  0  0  0  0  0  0  0
   10.6840    1.7950   23.3380 C   0  0  0  0  0  0  0  0  0  0  0  0
   11.5780    2.8830   23.3540 C   0  0  0  0  0  0  0  0  0  0  0  0
   12.7890    4.4710   22.5220 C   0  0  0  0  0  0  0  0  0  0  0  0
   12.5200   -2.0880   24.2600 C   0  0  0  0  0  0  0  0  0  0  0  0
   13.3590   -2.3680   23.1960 C   0  0  0  0  0  0  0  0  0  0  0  0
   12.2560   -3.0900   25.1830 C   0  0  0  0  0  0  0  0  0  0  0  0
   12.7530   -0.8790   25.0870 C   0  0  0  0  0  0  0  0  0  0  0  0
    0.4170   -1.0400   25.8380 C   0  0  0  0  0  0  0  0  0  0  0  0
    4.1280   -6.9220   25.5730 O   0  0  0  0  0  0  0  0  0  0  0  0
    5.3170   -5.1200   27.1220 O   0  0  0  0  0  0  0  0  0  0  0  0
    5.8960   -5.3390   19.9890 O   0  0  0  0  0  0  0  0  0  0  0  0
    1.5970   -6.0020   24.8490 C   0  0  0  0  0  0  0  0  0  0  0  0
    6.5720   -4.6250   20.6930 C   0  0  0  0  0  0  0  0  0  0  0  0
    7.8430   -3.7970   20.3700 C   0  0  0  0  0  0  0  0  0  0  0  0
    4.7130   -5.4650   25.8530 S   0  0  0  0  0  0  0  0  0  0  0  0
    6.2830   -2.0410   22.6060 C   0  0  0  0  0  0  0  0  0  0  0  0
    5.2950   -2.2970   19.3970 C   0  0  0  0  0  0  0  0  0  0  0  0
    4.9280   -3.7630   21.3050 N   0  0  0  0  0  0  0  0  0  0  0  0
   -0.0370   -0.7940   27.5180 Cl  0  0  0  0  0  0  0  0  0  0  0  0
    5.6940   -3.1030   20.4330 C   0  0  0  0  0  0  0  0  0  0  0  0
    7.3900   -4.8150   26.9080 O   0  0  0  0  0  0  0  0  0  0  0  0
    5.9810   -6.8300   26.6990 O   0  0  0  0  0  0  0  0  0  0  0  0
    6.8930   -5.8620   26.1020 S   0  0  0  0  0  0  0  0  0  0  0  0
    6.3360    0.1500   17.9860 N   0  0  0  0  0  0  0  0  0  0  0  0
    5.2280    0.9230   17.9240 C   0  0  0  0  0  0  0  0  0  0  0  0
    4.7090    1.4450   19.0880 C   0  0  0  0  0  0  0  0  0  0  0  0
    5.3000    1.2020   20.3190 C   0  0  0  0  0  0  0  0  0  0  0  0
    6.4590    0.4100   20.4400 C   0  0  0  0  0  0  0  0  0  0  0  0
    6.9900   -0.1350   19.2660 C   0  0  0  0  0  0  0  0  0  0  0  0
    9.7090   -1.3620   21.8090 C   0  0  0  0  0  0  0  0  0  0  0  0
   10.9970   -1.5680   22.3020 C   0  0  0  0  0  0  0  0  0  0  0  0
   11.1810   -1.8690   23.6330 C   0  0  0  0  0  0  0  0  0  0  0  0
   10.0910   -1.9790   24.4840 C   0  0  0  0  0  0  0  0  0  0  0  0
    8.7010   -1.7590   23.9310 C   0  0  0  0  0  0  0  0  0  0  0  0
    8.5580   -1.4500   22.5880 C   0  0  0  0  0  0  0  0  0  0  0  0
    1.4190   -2.1390   25.8060 C   0  0  0  0  0  0  0  0  0  0  0  0
    0.9990   -3.5330   25.3310 C   0  0  0  0  0  0  0  0  0  0  0  0
    2.0360   -4.6410   25.3160 C   0  0  0  0  0  0  0  0  0  0  0  0
    3.4240   -4.2960   25.7770 C   0  0  0  0  0  0  0  0  0  0  0  0
    3.7750   -2.8900   26.2290 C   0  0  0  0  0  0  0  0  0  0  0  0
    2.8560   -1.8540   26.2530 C   0  0  0  0  0  0  0  0  0  0  0  0
    5.9410   -4.4640   22.0630 C   0  0  1  0  0  0  0  0  0  0  0  0
    5.3120   -5.6290   22.4640 C   0  0  0  0  0  0  0  0  0  0  0  0
    5.9180   -6.1160   23.6150 C   0  0  0  0  0  0  0  0  0  0  0  0
    6.0570   -5.2070   24.6920 C   0  0  1  0  0  0  0  0  0  0  0  0
    6.4590   -3.7660   24.4000 C   0  0  0  0  0  0  0  0  0  0  0  0
    6.6510   -3.5600   22.8750 C   0  0  2  0  0  0  0  0  0  0  0  0
  1  5  1  0
  2  6  1  0
  3  6  2  0
  5  6  1  6
  2  7  1  0
  7  8  1  0
  4  9  1  0
  8  9  1  0
  4 10  1  0
 11 12  1  0
 11 13  1  0
 11 14  1  0
 18 20  2  0
 20 21  1  0
 16 22  2  0
 17 22  2  0
  1 23  1  0
 15 26  1  0
 24 27  1  0
 25 27  2  3
 28 30  2  0
 29 30  2  0
 31 32  2  0
 32 33  1  0
 33 34  2  0
  5 35  1  0
 34 35  1  0
 31 36  1  0
 35 36  2  0
 37 38  2  0
 11 39  1  0
 38 39  1  0
 39 40  2  0
 40 41  1  0
  1 42  1  0
 37 42  1  0
 41 42  2  0
 15 43  1  0
 43 44  2  0
 19 45  1  0
 44 45  1  0
 22 46  1  0
 45 46  2  0
 46 47  1  0
 43 48  1  0
 47 48  2  0
 20 49  1  0
 49 25  1  6
 49 50  1  0
 50 51  1  0
 22 52  1  0
 52 30  1  1
 52 51  1  0
 52 53  1  0
 54 23  1  6
 49 54  1  0
 53 54  1  0
M  END
