x0771-x3117-x2694
     RDKit          3D

 52 56  0  0  0  0  0  0  0  0999 V2000
    7.4120   -0.8950   21.8340 N   0  0  0  0  0  0  0  0  0  0  0  0
    7.8800    2.4420   22.8750 N   0  0  0  0  0  0  0  0  0  0  0  0
    9.1030    1.5820   21.1180 O   0  0  0  0  0  0  0  0  0  0  0  0
   11.2200    6.8890   23.9730 O   0  0  0  0  0  0  0  0  0  0  0  0
    7.0050    0.5100   21.7010 C   0  0  1  0  0  0  0  0  0  0  0  0
    8.1320    1.5570   21.8510 C   0  0  0  0  0  0  0  0  0  0  0  0
   10.3270    2.0680   23.9800 C   0  0  0  0  0  0  0  0  0  0  0  0
   11.8730    6.6700   24.9910 C   0  0  0  0  0  0  0  0  0  0  0  0
   12.2740   -1.5300   23.0080 C   0  0  0  0  0  0  0  0  0  0  0  0
   12.8590   -0.1860   23.4170 C   0  0  0  0  0  0  0  0  0  0  0  0
   12.7680   -1.8490   21.5910 C   0  0  0  0  0  0  0  0  0  0  0  0
   12.8300   -2.6670   23.8770 C   0  0  0  0  0  0  0  0  0  0  0  0
   12.8220   -1.9530   25.2100 C   0  0  0  0  0  0  0  0  0  0  0  0
    0.6140   -1.3780   26.1600 C   0  0  0  0  0  0  0  0  0  0  0  0
    4.3660   -7.0600   25.8150 O   0  0  0  0  0  0  0  0  0  0  0  0
    5.8990   -5.3790   26.8890 O   0  0  0  0  0  0  0  0  0  0  0  0
    5.7050   -4.3910   19.8400 O   0  0  0  0  0  0  0  0  0  0  0  0
    2.0140   -6.1680   25.0530 C   0  0  0  0  0  0  0  0  0  0  0  0
    6.6030   -4.1330   20.6340 C   0  0  0  0  0  0  0  0  0  0  0  0
    7.9630   -3.5530   20.3010 C   0  0  0  0  0  0  0  0  0  0  0  0
    4.9630   -5.7480   25.8560 S   0  0  0  0  0  0  0  0  0  0  0  0
    6.3910   -1.9480   21.5910 C   0  0  0  0  0  0  0  0  0  0  0  0
    6.1870   -2.8780   22.6090 C   0  0  0  0  0  0  0  0  0  0  0  0
    6.3310    0.3570   17.9260 N   0  0  0  0  0  0  0  0  0  0  0  0
    5.2590    1.1520   17.8660 C   0  0  0  0  0  0  0  0  0  0  0  0
    4.6890    1.7610   18.9630 C   0  0  0  0  0  0  0  0  0  0  0  0
    5.2720    1.5520   20.3070 C   0  0  0  0  0  0  0  0  0  0  0  0
    6.3500    0.7550   20.3550 C   0  0  0  0  0  0  0  0  0  0  0  0
    6.8670    0.1690   19.2010 C   0  0  0  0  0  0  0  0  0  0  0  0
    8.6580   -1.4450   23.9870 N   0  0  0  0  0  0  0  0  0  0  0  0
   10.0340   -1.6140   24.2570 O   0  0  0  0  0  0  0  0  0  0  0  0
   10.7600   -1.4400   23.0960 C   0  0  0  0  0  0  0  0  0  0  0  0
    9.8470   -1.1710   22.1100 C   0  0  0  0  0  0  0  0  0  0  0  0
    8.6110   -1.1770   22.6710 C   0  0  0  0  0  0  0  0  0  0  0  0
    9.8320    3.4570   23.6340 C   0  0  0  0  0  0  0  0  0  0  0  0
   10.7300    4.4930   23.9360 C   0  0  0  0  0  0  0  0  0  0  0  0
   10.2940    5.9410   23.6300 C   0  0  0  0  0  0  0  0  0  0  0  0
    8.8960    6.1910   22.9840 C   0  0  0  0  0  0  0  0  0  0  0  0
    8.0010    4.9920   22.6880 C   0  0  0  0  0  0  0  0  0  0  0  0
    8.5930    3.6340   23.0750 C   0  0  0  0  0  0  0  0  0  0  0  0
    1.6990   -2.4110   26.0830 C   0  0  0  0  0  0  0  0  0  0  0  0
    1.3850   -3.7070   25.6320 C   0  0  0  0  0  0  0  0  0  0  0  0
    2.3170   -4.7700   25.5280 C   0  0  0  0  0  0  0  0  0  0  0  0
    3.6520   -4.5220   25.9000 C   0  0  0  0  0  0  0  0  0  0  0  0
    4.0510   -3.1170   26.3900 C   0  0  0  0  0  0  0  0  0  0  0  0
    2.9870   -2.0550   26.4640 C   0  0  0  0  0  0  0  0  0  0  0  0
    6.3400   -4.3230   22.1020 C   0  0  0  0  0  0  0  0  0  0  0  0
    5.1100   -5.2140   22.0680 C   0  0  0  0  0  0  0  0  0  0  0  0
    5.1210   -6.1960   23.2160 C   0  0  0  0  0  0  0  0  0  0  0  0
    5.6930   -5.4650   24.3450 N   0  0  0  0  0  0  0  0  0  0  0  0
    7.1240   -5.0990   24.2010 C   0  0  0  0  0  0  0  0  0  0  0  0
    7.4750   -4.9760   22.8690 C   0  0  0  0  0  0  0  0  0  0  0  0
  1  5  1  0
  2  6  1  0
  3  6  2  0
  5  6  1  6
  4  8  1  0
  9 10  1  0
  9 11  1  0
  9 12  1  0
 12 13  1  0
 17 19  2  0
 19 20  1  0
 15 21  2  0
 16 21  2  0
  1 22  1  0
 22 23  1  0
 24 25  2  0
 25 26  1  0
 26 27  2  0
  5 28  1  0
 27 28  1  0
 24 29  1  0
 28 29  2  0
 30 31  1  0
  9 32  1  0
 31 32  1  0
 32 33  2  0
  1 34  1  0
 30 34  2  0
 33 34  1  0
  7 35  1  0
 35 36  2  0
  4 37  1  0
 36 37  1  0
 37 38  2  0
 38 39  1  0
  2 40  1  0
 35 40  1  0
 39 40  2  0
 14 41  1  0
 41 42  2  0
 18 43  1  0
 42 43  1  0
 21 44  1  0
 43 44  2  0
 44 45  1  0
 41 46  1  0
 45 46  2  0
 47 19  1  0
 23 47  1  0
 47 48  1  0
 48 49  1  0
 21 50  1  0
 49 50  1  0
 50 51  1  0
 47 52  1  0
 51 52  1  0
M  END
