x0771-x0072
     RDKit          3D

 32 35  0  0  0  0  0  0  0  0999 V2000
    0.4940   -1.6310   26.1230 C   0  0  0  0  0  0  0  0  0  0  0  0
    4.7610   -6.7810   25.9050 O   0  0  0  0  0  0  0  0  0  0  0  0
    6.5200   -4.7590   26.7130 N   0  0  0  0  0  0  0  0  0  0  0  0
    5.2130   -4.3910   19.8470 O   0  0  0  0  0  0  0  0  0  0  0  0
    2.3420   -6.1230   25.0480 C   0  0  0  0  0  0  0  0  0  0  0  0
    6.3230   -4.2630   20.3610 C   0  0  0  0  0  0  0  0  0  0  0  0
    7.2960   -3.2870   19.6960 C   0  0  0  0  0  0  0  0  0  0  0  0
    5.3080   -5.4500   25.7380 S   0  0  2  0  0  0  0  0  0  0  0  0
    7.9780   -4.6900   26.2300 S   0  0  0  0  0  0  0  0  0  0  0  0
    8.6410   -5.8760   25.7320 O   0  0  0  0  0  0  0  0  0  0  0  0
    8.7680   -3.8120   27.0770 O   0  0  0  0  0  0  0  0  0  0  0  0
    7.8460   -3.7250   24.8010 N   0  0  0  0  0  0  0  0  0  0  0  0
    9.2180   -3.4470   24.2030 C   0  0  0  0  0  0  0  0  0  0  0  0
    9.1240   -2.1630   23.6610 C   0  0  0  0  0  0  0  0  0  0  0  0
    1.7000   -2.5170   26.0340 C   0  0  0  0  0  0  0  0  0  0  0  0
    1.5880   -3.8410   25.6150 C   0  0  0  0  0  0  0  0  0  0  0  0
    2.6540   -4.7250   25.5150 C   0  0  0  0  0  0  0  0  0  0  0  0
    3.9380   -4.3010   25.8470 C   0  0  0  0  0  0  0  0  0  0  0  0
    4.0890   -2.8360   26.3080 C   0  0  0  0  0  0  0  0  0  0  0  0
    2.9450   -2.0230   26.3750 C   0  0  0  0  0  0  0  0  0  0  0  0
    6.7020   -5.0190   21.4880 N   0  0  0  0  0  0  0  0  0  0  0  0
    5.9750   -6.0350   21.9410 C   0  0  0  0  0  0  0  0  0  0  0  0
    5.1690   -5.8480   23.0530 C   0  0  0  0  0  0  0  0  0  0  0  0
    5.9660   -5.2990   24.1970 N   0  0  0  0  0  0  0  0  0  0  0  0
    6.7650   -4.1100   23.8390 C   0  0  2  0  0  0  0  0  0  0  0  0
    7.4050   -4.3770   22.6140 C   0  0  0  0  0  0  0  0  0  0  0  0
   10.4690   -1.4740   23.4300 C   0  0  0  0  0  0  0  0  0  0  0  0
   11.4300   -1.9620   22.5590 C   0  0  0  0  0  0  0  0  0  0  0  0
   12.6420   -1.3680   22.3300 C   0  0  0  0  0  0  0  0  0  0  0  0
   13.0140   -0.1940   22.9670 C   0  0  0  0  0  0  0  0  0  0  0  0
   12.1220    0.4140   23.8840 C   0  0  0  0  0  0  0  0  0  0  0  0
   10.8460   -0.1690   24.1620 C   0  0  0  0  0  0  0  0  0  0  0  0
  4  6  2  0
  6  7  1  0
  2  8  2  0
  3  8  2  0
  9  3  1  0
  9 10  2  0
  9 11  2  0
  9 12  1  0
 12 13  1  0
 13 14  1  0
  1 15  1  0
 15 16  2  0
  5 17  1  0
 16 17  1  0
  8 18  1  6
 17 18  2  0
 18 19  1  0
 15 20  1  0
 19 20  2  0
  6 21  1  0
 21 22  1  0
 22 23  1  0
  8 24  1  0
 23 24  1  0
 12 25  1  0
 24 25  1  0
 21 26  1  0
 25 26  1  6
 14 27  1  0
 27 28  2  0
 28 29  1  0
 29 30  2  0
 30 31  1  0
 27 32  1  0
 31 32  2  0
M  END
