x0770-x0678
     RDKit          3D

 27 29  0  0  0  0  0  0  0  0999 V2000
    7.3320   -3.0100   18.7190 C   0  0  0  0  0  0  0  0  0  0  0  0
    5.4800   -4.1000   19.7500 O   0  0  0  0  0  0  0  0  0  0  0  0
   13.3590   -1.7850   21.1320 Cl  0  0  0  0  0  0  0  0  0  0  0  0
    6.4030   -3.2690   19.8870 C   0  0  0  0  0  0  0  0  0  0  0  0
    9.4760   -2.3420   24.1920 C   0  0  0  0  0  0  0  0  0  0  0  0
    8.9470    1.5230   21.1200 O   0  0  0  0  0  0  0  0  0  0  0  0
    8.4280    0.6120   21.7780 C   0  0  0  0  0  0  0  0  0  0  0  0
    8.8260    0.4300   23.2340 C   0  0  0  0  0  0  0  0  0  0  0  0
    7.4630   -0.2770   21.2590 N   0  0  0  0  0  0  0  0  0  0  0  0
    6.6350   -2.5910   21.1110 N   0  0  0  0  0  0  0  0  0  0  0  0
    7.7680   -1.6550   21.0490 C   0  0  2  0  0  0  0  0  0  0  0  0
    8.9170   -2.0340   21.9310 C   0  0  0  0  0  0  0  0  0  0  0  0
    8.4350   -2.3130   23.2810 N   0  0  0  0  0  0  0  0  0  0  0  0
    7.5520   -3.3120   23.3360 C   0  0  0  0  0  0  0  0  0  0  0  0
    6.3510   -3.2500   22.3990 C   0  0  0  0  0  0  0  0  0  0  0  0
   10.8440   -0.4000   24.5460 C   0  0  0  0  0  0  0  0  0  0  0  0
   11.9520    0.3240   24.1240 C   0  0  0  0  0  0  0  0  0  0  0  0
   12.7640   -0.0490   23.0880 C   0  0  0  0  0  0  0  0  0  0  0  0
   12.4420   -1.2240   22.4300 C   0  0  0  0  0  0  0  0  0  0  0  0
   11.3460   -1.9890   22.8060 C   0  0  0  0  0  0  0  0  0  0  0  0
   10.5250   -1.5920   23.8680 C   0  0  0  0  0  0  0  0  0  0  0  0
    5.6150    1.0910   20.3840 C   0  0  0  0  0  0  0  0  0  0  0  0
    4.8980    1.6060   19.3060 C   0  0  0  0  0  0  0  0  0  0  0  0
    5.3000    1.2750   18.0150 C   0  0  0  0  0  0  0  0  0  0  0  0
    6.3220    0.4920   17.7170 N   0  0  0  0  0  0  0  0  0  0  0  0
    7.0780   -0.0570   18.8540 C   0  0  0  0  0  0  0  0  0  0  0  0
    6.7140    0.2550   20.1520 C   0  0  0  0  0  0  0  0  0  0  0  0
  1  4  1  0
  2  4  2  0
  6  7  2  0
  7  8  1  0
  7  9  1  0
  4 10  1  0
 11  9  1  1
 10 11  1  0
 11 12  1  0
  5 13  1  0
 12 13  1  0
 13 14  1  0
 10 15  1  0
 14 15  1  0
 16 17  2  0
 17 18  1  0
  3 19  1  0
 18 19  2  0
 19 20  1  0
  5 21  1  0
 16 21  1  0
 20 21  2  0
 22 23  2  0
 23 24  1  0
 24 25  2  0
 25 26  1  0
  9 27  1  0
 22 27  1  0
 26 27  2  0
M  END
