x0770-x2694
     RDKit          3D

 37 40  0  0  0  0  0  0  0  0999 V2000
    7.7980    2.2630   22.6980 N   0  0  0  0  0  0  0  0  0  0  0  0
    9.0860    1.2840   21.1230 O   0  0  0  0  0  0  0  0  0  0  0  0
   11.0440    6.7350   23.9510 O   0  0  0  0  0  0  0  0  0  0  0  0
    6.9510    0.2210   21.5590 C   0  0  1  0  0  0  0  0  0  0  0  0
    8.0510    1.2720   21.7740 C   0  0  0  0  0  0  0  0  0  0  0  0
   10.4270    1.9130   23.9690 C   0  0  0  0  0  0  0  0  0  0  0  0
   11.8320    6.5380   24.8710 C   0  0  0  0  0  0  0  0  0  0  0  0
   12.3240   -1.3500   23.4670 C   0  0  0  0  0  0  0  0  0  0  0  0
   12.9090    0.0030   23.0790 C   0  0  0  0  0  0  0  0  0  0  0  0
   12.9940   -1.4490   22.0850 C   0  0  0  0  0  0  0  0  0  0  0  0
   13.1040   -2.1190   24.5580 C   0  0  0  0  0  0  0  0  0  0  0  0
    7.3120   -2.8690   18.8160 C   0  0  0  0  0  0  0  0  0  0  0  0
    5.4710   -3.9950   19.7210 O   0  0  0  0  0  0  0  0  0  0  0  0
    6.3470   -3.1220   19.9380 C   0  0  0  0  0  0  0  0  0  0  0  0
    7.7180   -2.1150   24.8040 C   0  0  0  0  0  0  0  0  0  0  0  0
    6.3750    0.4400   17.7930 N   0  0  0  0  0  0  0  0  0  0  0  0
    5.2400    1.2560   17.8130 C   0  0  0  0  0  0  0  0  0  0  0  0
    4.6370    1.7300   18.9720 C   0  0  0  0  0  0  0  0  0  0  0  0
    5.1840    1.3910   20.1970 C   0  0  0  0  0  0  0  0  0  0  0  0
    6.3160    0.5890   20.2480 C   0  0  0  0  0  0  0  0  0  0  0  0
    6.9080    0.1110   19.1010 C   0  0  0  0  0  0  0  0  0  0  0  0
    8.5730   -1.4060   23.9020 N   0  0  0  0  0  0  0  0  0  0  0  0
    9.9290   -1.6320   24.4780 O   0  0  0  0  0  0  0  0  0  0  0  0
   10.7430   -1.5200   23.4110 C   0  0  0  0  0  0  0  0  0  0  0  0
    9.8950   -1.5980   22.1570 C   0  0  0  0  0  0  0  0  0  0  0  0
    8.6230   -1.8450   22.6120 C   0  0  2  0  0  0  0  0  0  0  0  0
    9.8680    3.3170   23.6040 C   0  0  0  0  0  0  0  0  0  0  0  0
   10.6630    4.4280   23.9030 C   0  0  0  0  0  0  0  0  0  0  0  0
   10.1930    5.7140   23.6050 C   0  0  0  0  0  0  0  0  0  0  0  0
    8.9350    5.8470   22.9970 C   0  0  0  0  0  0  0  0  0  0  0  0
    8.1680    4.7270   22.7040 C   0  0  0  0  0  0  0  0  0  0  0  0
    8.6180    3.4360   23.0050 C   0  0  0  0  0  0  0  0  0  0  0  0
    6.4160   -2.4730   21.2170 N   0  0  0  0  0  0  0  0  0  0  0  0
    7.2610   -1.3240   21.8500 C   0  0  2  0  0  0  0  0  0  0  0  0
    8.4070   -3.2040   22.7580 N   0  0  0  0  0  0  0  0  0  0  0  0
    7.0810   -3.7410   23.1470 C   0  0  0  0  0  0  0  0  0  0  0  0
    6.0890   -3.3340   22.2630 C   0  0  0  0  0  0  0  0  0  0  0  0
  1  5  1  0
  2  5  2  0
  4  5  1  6
  3  7  1  0
  8  9  1  0
  8 10  1  0
  8 11  1  0
 12 14  1  0
 13 14  2  0
 16 17  2  0
 17 18  1  0
 18 19  2  0
  4 20  1  0
 19 20  1  0
 16 21  1  0
 20 21  2  0
 15 22  1  0
 22 23  1  0
  8 24  1  0
 23 24  1  0
 24 25  2  0
 22 26  1  0
 26 25  1  6
  6 27  1  0
 27 28  2  0
  3 29  1  0
 28 29  1  0
 29 30  2  0
 30 31  1  0
  1 32  1  0
 27 32  1  0
 31 32  2  0
 14 33  1  0
  4 34  1  0
 26 34  1  0
 34 33  1  6
 26 35  1  0
 35 36  1  0
 33 37  1  0
 36 37  1  0
M  END
