x0771-x2776-x2694
     RDKit          3D

 53 57  0  0  0  0  0  0  0  0999 V2000
    7.2150   -0.9890   21.6220 N   0  0  0  0  0  0  0  0  0  0  0  0
    7.9550    2.0940   22.9160 N   0  0  0  0  0  0  0  0  0  0  0  0
    8.9240    1.4710   21.0290 O   0  0  0  0  0  0  0  0  0  0  0  0
   10.9720    6.6990   23.8550 O   0  0  0  0  0  0  0  0  0  0  0  0
    6.8680    0.3350   21.5300 C   0  0  1  0  0  0  0  0  0  0  0  0
   12.6060   -2.6870   24.3940 O   0  0  0  0  0  0  0  0  0  0  0  0
    7.9810    1.3160   21.8010 C   0  0  0  0  0  0  0  0  0  0  0  0
   10.6920    1.8440   23.8380 C   0  0  0  0  0  0  0  0  0  0  0  0
   11.8390    6.5530   24.7110 C   0  0  0  0  0  0  0  0  0  0  0  0
   13.0240   -1.9140   23.5360 C   0  0  2  0  0  0  0  0  0  0  0  0
   12.9330   -0.4190   23.8250 C   0  0  0  0  0  0  0  0  0  0  0  0
   13.5790   -2.8840   25.3960 C   0  0  0  0  0  0  0  0  0  0  0  0
   12.0680   -2.0360   22.3390 C   0  0  0  0  0  0  0  0  0  0  0  0
    0.6960   -1.4410   26.1720 C   0  0  0  0  0  0  0  0  0  0  0  0
    4.5550   -6.9690   26.1820 O   0  0  0  0  0  0  0  0  0  0  0  0
    6.2340   -5.1310   27.0900 O   0  0  0  0  0  0  0  0  0  0  0  0
    5.7450   -4.2820   19.7830 O   0  0  0  0  0  0  0  0  0  0  0  0
    1.9440   -6.1460   25.0250 C   0  0  0  0  0  0  0  0  0  0  0  0
    6.6840   -4.0710   20.5410 C   0  0  0  0  0  0  0  0  0  0  0  0
    8.0120   -3.4340   20.1210 C   0  0  0  0  0  0  0  0  0  0  0  0
    5.1460   -5.6530   26.0560 S   0  0  0  0  0  0  0  0  0  0  0  0
    6.2000   -1.9900   21.5650 C   0  0  0  0  0  0  0  0  0  0  0  0
    5.9720   -3.0210   22.4710 C   0  0  0  0  0  0  0  0  0  0  0  0
    6.3180    0.4980   17.8020 N   0  0  0  0  0  0  0  0  0  0  0  0
    5.2200    1.2870   17.7480 C   0  0  0  0  0  0  0  0  0  0  0  0
    4.5440    1.8220   18.8230 C   0  0  0  0  0  0  0  0  0  0  0  0
    5.0360    1.5420   20.2050 C   0  0  0  0  0  0  0  0  0  0  0  0
    6.2810    0.6570   20.2070 C   0  0  0  0  0  0  0  0  0  0  0  0
    6.8180    0.2000   19.0120 C   0  0  0  0  0  0  0  0  0  0  0  0
   10.0090    3.2170   23.5780 C   0  0  0  0  0  0  0  0  0  0  0  0
   10.7500    4.3760   23.8040 C   0  0  0  0  0  0  0  0  0  0  0  0
   10.1550    5.6290   23.5870 C   0  0  0  0  0  0  0  0  0  0  0  0
    8.8260    5.7100   23.1310 C   0  0  0  0  0  0  0  0  0  0  0  0
    8.1240    4.5320   22.9140 C   0  0  0  0  0  0  0  0  0  0  0  0
    8.6950    3.2800   23.1350 C   0  0  0  0  0  0  0  0  0  0  0  0
    9.5820   -1.5330   21.9950 C   0  0  0  0  0  0  0  0  0  0  0  0
   10.6890   -1.6460   22.8460 C   0  0  0  0  0  0  0  0  0  0  0  0
   10.5270   -1.3820   24.1920 C   0  0  0  0  0  0  0  0  0  0  0  0
    9.2960   -1.0120   24.6960 C   0  0  0  0  0  0  0  0  0  0  0  0
    8.1990   -0.8990   23.8550 C   0  0  0  0  0  0  0  0  0  0  0  0
    8.3220   -1.1500   22.4940 C   0  0  0  0  0  0  0  0  0  0  0  0
    1.7590   -2.4630   26.1140 C   0  0  0  0  0  0  0  0  0  0  0  0
    1.4550   -3.7540   25.6340 C   0  0  0  0  0  0  0  0  0  0  0  0
    2.3860   -4.8110   25.5520 C   0  0  0  0  0  0  0  0  0  0  0  0
    3.8140   -4.4670   26.0390 C   0  0  0  0  0  0  0  0  0  0  0  0
    4.1940   -3.0980   26.5490 C   0  0  0  0  0  0  0  0  0  0  0  0
    3.0290   -2.0960   26.5510 C   0  0  0  0  0  0  0  0  0  0  0  0
    6.4200   -4.3880   21.9740 C   0  0  0  0  0  0  0  0  0  0  0  0
    5.4120   -5.5700   22.0310 C   0  0  0  0  0  0  0  0  0  0  0  0
    4.7500   -5.5010   23.4430 C   0  0  0  0  0  0  0  0  0  0  0  0
    5.7770   -5.5230   24.4980 N   0  0  0  0  0  0  0  0  0  0  0  0
    7.0510   -4.7530   24.3580 C   0  0  0  0  0  0  0  0  0  0  0  0
    7.5540   -4.8040   22.8940 C   0  0  0  0  0  0  0  0  0  0  0  0
  1  5  1  0
  2  7  1  0
  3  7  2  0
  5  7  1  6
  4  9  1  0
  6 10  1  0
 10 11  1  1
  6 12  1  0
 10 13  1  0
 17 19  2  0
 19 20  1  0
 15 21  2  0
 16 21  2  0
  1 22  1  0
 22 23  1  0
 24 25  2  0
 25 26  1  0
 26 27  2  0
  5 28  1  0
 27 28  1  0
 24 29  1  0
 28 29  2  0
  8 30  1  0
 30 31  2  0
  4 32  1  0
 31 32  1  0
 32 33  2  0
 33 34  1  0
  2 35  1  0
 30 35  1  0
 34 35  2  0
 13 37  1  0
 36 37  2  0
 37 38  1  0
 38 39  2  0
 39 40  1  0
  1 41  1  0
 36 41  1  0
 40 41  2  0
 14 42  1  0
 42 43  2  0
 18 44  1  0
 43 44  1  0
 21 45  1  0
 44 45  2  0
 45 46  1  0
 42 47  1  0
 46 47  2  0
 48 19  1  0
 23 48  1  0
 48 49  1  0
 49 50  1  0
 21 51  1  0
 50 51  1  0
 51 52  1  0
 48 53  1  0
 52 53  1  0
M  END
