x0771-x2694
     RDKit          3D

 51 55  0  0  0  0  0  0  0  0999 V2000
    7.4270   -0.8490   21.8490 N   0  0  0  0  0  0  0  0  0  0  0  0
    7.7250    2.4370   22.8870 N   0  0  0  0  0  0  0  0  0  0  0  0
    9.2470    1.6000   21.1840 O   0  0  0  0  0  0  0  0  0  0  0  0
   11.1280    6.7580   23.9670 O   0  0  0  0  0  0  0  0  0  0  0  0
    7.0100    0.4590   21.6620 C   0  0  1  0  0  0  0  0  0  0  0  0
    8.0520    1.5350   21.9330 C   0  0  0  0  0  0  0  0  0  0  0  0
   10.3910    1.9910   24.0220 C   0  0  0  0  0  0  0  0  0  0  0  0
   11.8500    6.5740   24.9480 C   0  0  0  0  0  0  0  0  0  0  0  0
   12.2760   -1.4680   23.2480 C   0  0  0  0  0  0  0  0  0  0  0  0
   12.8030   -0.2010   23.4520 C   0  0  0  0  0  0  0  0  0  0  0  0
   12.7880   -1.9930   21.8820 C   0  0  0  0  0  0  0  0  0  0  0  0
   12.7960   -2.3940   24.3830 C   0  0  0  0  0  0  0  0  0  0  0  0
    0.6880   -1.4060   26.1530 C   0  0  0  0  0  0  0  0  0  0  0  0
    4.4070   -6.9860   25.9960 O   0  0  0  0  0  0  0  0  0  0  0  0
    5.9380   -5.2260   26.9250 O   0  0  0  0  0  0  0  0  0  0  0  0
    5.4890   -4.4950   19.8500 O   0  0  0  0  0  0  0  0  0  0  0  0
    1.9320   -6.0940   25.0310 C   0  0  0  0  0  0  0  0  0  0  0  0
    6.4560   -4.0210   20.4280 C   0  0  0  0  0  0  0  0  0  0  0  0
    7.4940   -3.2160   19.6220 C   0  0  0  0  0  0  0  0  0  0  0  0
    4.9780   -5.6590   25.9530 S   0  0  0  0  0  0  0  0  0  0  0  0
    6.2930   -1.8020   21.6200 C   0  0  0  0  0  0  0  0  0  0  0  0
    6.0830   -2.8280   22.5410 C   0  0  0  0  0  0  0  0  0  0  0  0
    6.2950    0.2980   17.9250 N   0  0  0  0  0  0  0  0  0  0  0  0
    5.1980    1.0620   17.8500 C   0  0  0  0  0  0  0  0  0  0  0  0
    4.5950    1.6660   18.9400 C   0  0  0  0  0  0  0  0  0  0  0  0
    5.2140    1.4590   20.3110 C   0  0  0  0  0  0  0  0  0  0  0  0
    6.3570    0.6740   20.3980 C   0  0  0  0  0  0  0  0  0  0  0  0
    6.8850    0.1020   19.2480 C   0  0  0  0  0  0  0  0  0  0  0  0
    8.6470   -1.4720   24.0730 N   0  0  0  0  0  0  0  0  0  0  0  0
   10.0070   -1.6280   24.3940 O   0  0  0  0  0  0  0  0  0  0  0  0
   10.7750   -1.4100   23.2860 C   0  0  0  0  0  0  0  0  0  0  0  0
    9.9330   -1.1110   22.2060 C   0  0  0  0  0  0  0  0  0  0  0  0
    8.5910   -1.1280   22.6420 C   0  0  0  0  0  0  0  0  0  0  0  0
    9.8510    3.3700   23.6880 C   0  0  0  0  0  0  0  0  0  0  0  0
   10.6150    4.4830   23.9140 C   0  0  0  0  0  0  0  0  0  0  0  0
   10.2180    5.7840   23.6550 C   0  0  0  0  0  0  0  0  0  0  0  0
    8.9440    5.9630   23.1090 C   0  0  0  0  0  0  0  0  0  0  0  0
    8.1660    4.8320   22.8740 C   0  0  0  0  0  0  0  0  0  0  0  0
    8.5730    3.5310   23.1500 C   0  0  0  0  0  0  0  0  0  0  0  0
    1.7240   -2.4620   26.0760 C   0  0  0  0  0  0  0  0  0  0  0  0
    1.3830   -3.7410   25.6020 C   0  0  0  0  0  0  0  0  0  0  0  0
    2.3520   -4.7430   25.5420 C   0  0  0  0  0  0  0  0  0  0  0  0
    3.6540   -4.4630   25.9560 C   0  0  0  0  0  0  0  0  0  0  0  0
    3.9890   -3.1970   26.4130 C   0  0  0  0  0  0  0  0  0  0  0  0
    3.0270   -2.1870   26.4760 C   0  0  0  0  0  0  0  0  0  0  0  0
    6.3700   -4.2340   21.9440 C   0  0  0  0  0  0  0  0  0  0  0  0
    5.3870   -5.2050   22.0150 C   0  0  0  0  0  0  0  0  0  0  0  0
    4.6700   -5.1940   23.3440 C   0  0  0  0  0  0  0  0  0  0  0  0
    5.6300   -5.4980   24.4050 N   0  0  0  0  0  0  0  0  0  0  0  0
    7.0240   -5.0030   24.2450 C   0  0  0  0  0  0  0  0  0  0  0  0
    7.4680   -4.8120   22.8020 C   0  0  0  0  0  0  0  0  0  0  0  0
  1  5  1  0
  2  6  1  0
  3  6  2  0
  5  6  1  6
  4  8  1  0
  9 10  1  0
  9 11  1  0
  9 12  1  0
 16 18  2  0
 18 19  1  0
 14 20  2  0
 15 20  2  0
  1 21  1  0
 21 22  1  0
 23 24  2  0
 24 25  1  0
 25 26  2  0
  5 27  1  0
 26 27  1  0
 23 28  1  0
 27 28  2  0
 29 30  1  0
  9 31  1  0
 30 31  1  0
 31 32  2  0
  1 33  1  0
 29 33  2  0
 32 33  1  0
  7 34  1  0
 34 35  2  0
  4 36  1  0
 35 36  1  0
 36 37  2  0
 37 38  1  0
  2 39  1  0
 34 39  1  0
 38 39  2  0
 13 40  1  0
 40 41  2  0
 17 42  1  0
 41 42  1  0
 20 43  1  0
 42 43  2  0
 43 44  1  0
 40 45  1  0
 44 45  2  0
 46 18  1  0
 22 46  1  0
 46 47  1  0
 47 48  1  0
 20 49  1  0
 48 49  1  0
 49 50  1  0
 46 51  1  0
 50 51  1  0
M  END
