x0771-x1493-x3117-x3110-x3124-x1077
     RDKit          3D

 65 73  0  0  0  0  0  0  0  0999 V2000
    8.0220    2.4680   22.6220 N   0  0  0  0  0  0  0  0  0  0  0  0
   13.5150    5.2370   22.7050 C   0  0  0  0  0  0  0  0  0  0  0  0
   12.2160    3.1780   23.0340 O   0  0  0  0  0  0  0  0  0  0  0  0
   12.4030    4.3380   22.2260 C   0  0  0  0  0  0  0  0  0  0  0  0
    7.5450   -1.1300   21.8770 N   0  0  0  0  0  0  0  0  0  0  0  0
   10.9990    3.0080   23.3190 C   0  0  0  0  0  0  0  0  0  0  0  0
    9.1650    1.3650   21.0820 O   0  0  0  0  0  0  0  0  0  0  0  0
   10.1760    1.8230   23.7830 C   0  0  0  0  0  0  0  0  0  0  0  0
    8.1850    1.3870   21.7740 C   0  0  0  0  0  0  0  0  0  0  0  0
    7.0390    0.3030   21.7530 C   0  0  1  0  0  0  0  0  0  0  0  0
   12.5850   -1.8910   24.2180 C   0  0  0  0  0  0  0  0  0  0  0  0
   12.7940   -0.5910   24.9510 C   0  0  0  0  0  0  0  0  0  0  0  0
   13.5540   -2.0040   23.0690 C   0  0  0  0  0  0  0  0  0  0  0  0
   12.7990   -3.0490   25.1940 C   0  0  0  0  0  0  0  0  0  0  0  0
    6.3110    0.2560   17.8930 N   0  0  0  0  0  0  0  0  0  0  0  0
    5.2220    1.0400   17.8390 C   0  0  0  0  0  0  0  0  0  0  0  0
    4.5560    1.6770   18.9930 C   0  0  0  0  0  0  0  0  0  0  0  0
    5.1060    1.4670   20.3450 C   0  0  0  0  0  0  0  0  0  0  0  0
    6.3520    0.5860   20.4500 C   0  0  0  0  0  0  0  0  0  0  0  0
    6.8630    0.0260   19.1340 C   0  0  0  0  0  0  0  0  0  0  0  0
    9.8540   -1.2550   21.7710 C   0  0  0  0  0  0  0  0  0  0  0  0
   11.1150   -1.4130   22.1610 C   0  0  0  0  0  0  0  0  0  0  0  0
   11.2640   -1.7360   23.5710 C   0  0  0  0  0  0  0  0  0  0  0  0
   10.0440   -1.8800   24.3820 C   0  0  0  0  0  0  0  0  0  0  0  0
    8.5750   -1.7170   23.9350 C   0  0  0  0  0  0  0  0  0  0  0  0
    8.7250   -1.3870   22.5670 C   0  0  0  0  0  0  0  0  0  0  0  0
    9.7240    5.0610   23.1990 O   0  0  0  0  0  0  0  0  0  0  0  0
    9.9420    3.8180   23.3700 C   0  0  0  0  0  0  0  0  0  0  0  0
    8.9960    2.8270   23.6950 C   0  0  1  0  0  0  0  0  0  0  0  0
    8.2260    3.4330   24.6210 C   0  0  0  0  0  0  0  0  0  0  0  0
    7.5540    4.5340   24.0600 C   0  0  0  0  0  0  0  0  0  0  0  0
    8.3120    5.2890   23.1190 C   0  0  0  0  0  0  0  0  0  0  0  0
   -0.1270   -1.1520   26.3730 C   0  0  0  0  0  0  0  0  0  0  0  0
    3.9070   -6.2720   26.2590 O   0  0  0  0  0  0  0  0  0  0  0  0
    5.4800   -4.1550   26.3210 N   0  0  0  0  0  0  0  0  0  0  0  0
    5.5900   -3.9850   19.7360 O   0  0  0  0  0  0  0  0  0  0  0  0
    1.4790   -5.7160   25.0050 C   0  0  0  0  0  0  0  0  0  0  0  0
    6.6140   -3.9070   20.4320 C   0  0  0  0  0  0  0  0  0  0  0  0
    7.9000   -3.2040   19.8110 C   0  0  0  0  0  0  0  0  0  0  0  0
    4.3080   -4.9460   25.8240 S   0  0  2  0  0  0  0  0  0  0  0  0
    5.7180   -6.2960   24.5600 C   0  0  0  0  0  0  0  0  0  0  0  0
    6.4770   -6.1530   25.9080 C   0  0  0  0  0  0  0  0  0  0  0  0
    7.8700   -6.2110   21.1250 O   0  0  0  0  0  0  0  0  0  0  0  0
    7.8390   -5.1640   21.6590 C   0  0  0  0  0  0  0  0  0  0  0  0
    9.0380   -4.3130   22.0620 C   0  0  0  0  0  0  0  0  0  0  0  0
    6.8130   -4.7580   26.0490 C   0  0  2  0  0  0  0  0  0  0  0  0
    7.2900   -4.8530   24.6670 C   0  0  2  0  0  0  0  0  0  0  0  0
    8.7880   -5.2510   24.3590 C   0  0  0  0  0  0  0  0  0  0  0  0
    9.9070   -4.1890   24.5840 C   0  0  0  0  0  0  0  0  0  0  0  0
    9.6580   -3.3180   25.7330 N   0  0  0  0  0  0  0  0  0  0  0  0
    8.6490   -4.0630   26.3150 C   0  0  0  0  0  0  0  0  0  0  0  0
    7.6210   -3.9900   25.2190 C   0  0  0  0  0  0  0  0  0  0  0  0
    0.9720   -2.1440   26.2030 C   0  0  0  0  0  0  0  0  0  0  0  0
    0.6860   -3.4070   25.6930 C   0  0  0  0  0  0  0  0  0  0  0  0
    1.7450   -4.3430   25.5500 C   0  0  0  0  0  0  0  0  0  0  0  0
    2.9680   -3.9090   25.9340 C   0  0  0  0  0  0  0  0  0  0  0  0
    3.2590   -2.6710   26.4290 C   0  0  0  0  0  0  0  0  0  0  0  0
    2.2510   -1.7670   26.5680 C   0  0  0  0  0  0  0  0  0  0  0  0
    6.5290   -4.5950   21.8880 C   0  0  0  0  0  0  0  0  0  0  0  0
    5.3750   -5.7160   21.8580 C   0  0  0  0  0  0  0  0  0  0  0  0
    4.2150   -5.5790   22.8930 C   0  0  0  0  0  0  0  0  0  0  0  0
    4.8530   -5.1180   24.1810 C   0  0  1  0  0  0  0  0  0  0  0  0
    5.3880   -3.6900   23.8090 C   0  0  0  0  0  0  0  0  0  0  0  0
    6.7410   -3.9560   23.3670 C   0  0  1  0  0  0  0  0  0  0  0  0
    8.8810   -2.0830   25.3480 C   0  0  0  0  0  0  0  0  0  0  0  0
  2  4  1  0
  3  4  1  0
  3  6  1  0
  6  8  1  0
  1  9  1  0
  7  9  2  0
 10  5  1  6
  9 10  1  0
 11 12  1  0
 11 13  1  0
 11 14  1  0
 15 16  2  0
 16 17  1  0
 17 18  2  0
 10 19  1  0
 18 19  1  0
 15 20  1  0
 19 20  2  0
 21 22  2  0
 11 23  1  0
 22 23  1  0
 23 24  2  0
 24 25  1  0
  5 26  1  0
 21 26  1  0
 25 26  2  0
  6 28  2  0
 27 28  1  0
 29  1  1  6
  8 29  1  0
 28 29  1  0
 29 30  1  0
 30 31  1  0
 27 32  1  0
 31 32  1  0
 36 38  2  0
 38 39  1  0
 34 40  2  0
 35 40  2  0
 41 42  1  0
 43 44  2  0
 44 45  1  0
 35 46  1  0
 42 46  1  0
 46 47  1  0
 47 48  1  1
 48 49  1  0
 49 50  1  0
 50 51  1  0
 46 52  1  1
 51 52  1  0
 33 53  1  0
 53 54  2  0
 37 55  1  0
 54 55  1  0
 40 56  1  6
 55 56  2  0
 56 57  1  0
 53 58  1  0
 57 58  2  0
 59 38  1  0
 44 59  1  0
 59 60  1  0
 60 61  1  0
 40 62  1  0
 41 62  1  0
 62 61  1  6
 62 63  1  0
 47 64  1  0
 64 59  1  6
 63 64  1  0
 25 65  1  0
 50 65  1  0
M  END
