x0771-x0395-x3117-x3113-x3124
     RDKit          3D

 60 66  0  0  0  0  0  0  0  0999 V2000
    7.2270   -1.0270   22.4490 N   0  0  0  0  0  0  0  0  0  0  0  0
    8.5550    1.8970   23.3030 N   0  0  0  0  0  0  0  0  0  0  0  0
    8.8810    1.4340   21.0580 O   0  0  0  0  0  0  0  0  0  0  0  0
   11.3890    3.9840   23.2700 N   0  0  0  0  0  0  0  0  0  0  0  0
    6.9790    0.3790   22.0300 C   0  0  1  0  0  0  0  0  0  0  0  0
    8.2280    1.2790   22.0830 C   0  0  0  0  0  0  0  0  0  0  0  0
   10.7100    1.7590   22.9760 C   0  0  0  0  0  0  0  0  0  0  0  0
   11.9440    2.6740   22.9100 C   0  0  0  0  0  0  0  0  0  0  0  0
   12.3660    5.0090   23.6290 C   0  0  0  0  0  0  0  0  0  0  0  0
   12.4680   -1.7680   24.3000 C   0  0  0  0  0  0  0  0  0  0  0  0
   13.4700   -1.7130   23.2020 C   0  0  0  0  0  0  0  0  0  0  0  0
   12.9430   -2.9040   25.2370 C   0  0  0  0  0  0  0  0  0  0  0  0
   12.5180   -0.4860   25.1070 C   0  0  0  0  0  0  0  0  0  0  0  0
    8.9980   -5.1930   26.0270 C   0  0  0  0  0  0  0  0  0  0  0  0
    0.4280   -1.3460   26.3400 C   0  0  0  0  0  0  0  0  0  0  0  0
    4.5820   -6.9180   25.8520 O   0  0  0  0  0  0  0  0  0  0  0  0
    6.1430   -4.8860   26.6070 N   0  0  0  0  0  0  0  0  0  0  0  0
    5.1360   -4.4730   19.8490 O   0  0  0  0  0  0  0  0  0  0  0  0
    1.9240   -6.0770   24.9570 C   0  0  0  0  0  0  0  0  0  0  0  0
    6.2130   -4.3350   20.3930 C   0  0  0  0  0  0  0  0  0  0  0  0
    7.2390   -3.3430   19.8220 C   0  0  0  0  0  0  0  0  0  0  0  0
    5.0580   -5.5590   25.7630 S   0  0  2  0  0  0  0  0  0  0  0  0
    8.4720   -5.2630   27.4440 C   0  0  0  0  0  0  0  0  0  0  0  0
    7.0060   -5.6700   27.4810 C   0  0  0  0  0  0  0  0  0  0  0  0
    6.4440    0.1160   18.1720 N   0  0  0  0  0  0  0  0  0  0  0  0
    5.3330    0.8330   18.0040 C   0  0  0  0  0  0  0  0  0  0  0  0
    4.6660    1.4300   19.0350 C   0  0  0  0  0  0  0  0  0  0  0  0
    5.1720    1.2890   20.3280 C   0  0  0  0  0  0  0  0  0  0  0  0
    6.3540    0.5450   20.5960 C   0  0  0  0  0  0  0  0  0  0  0  0
    6.9140   -0.0080   19.4420 C   0  0  0  0  0  0  0  0  0  0  0  0
    9.5750   -1.4510   21.9570 C   0  0  0  0  0  0  0  0  0  0  0  0
   10.8280   -1.9470   22.3720 C   0  0  0  0  0  0  0  0  0  0  0  0
   11.0870   -1.8600   23.7610 C   0  0  0  0  0  0  0  0  0  0  0  0
   10.0310   -1.8640   24.6480 C   0  0  0  0  0  0  0  0  0  0  0  0
    8.7890   -2.0310   24.1040 C   0  0  2  0  0  0  0  0  0  0  0  0
    8.4960   -1.4960   22.8660 C   0  0  0  0  0  0  0  0  0  0  0  0
    9.4640    4.7970   24.5810 O   0  0  0  0  0  0  0  0  0  0  0  0
   10.2250    3.6700   24.1500 C   0  0  1  0  0  0  0  0  0  0  0  0
    9.6310    2.8000   23.2250 C   0  0  2  0  0  0  0  0  0  0  0  0
    9.2240    3.6570   22.2430 C   0  0  0  0  0  0  0  0  0  0  0  0
    8.2730    4.6050   22.5800 C   0  0  0  0  0  0  0  0  0  0  0  0
    8.7740    5.4770   23.5260 C   0  0  0  0  0  0  0  0  0  0  0  0
    8.7760   -3.8620   25.3870 C   0  0  0  0  0  0  0  0  0  0  0  0
    8.2140   -2.8340   26.0530 N   0  0  0  0  0  0  0  0  0  0  0  0
    7.7990   -1.9670   25.1630 N   0  0  0  0  0  0  0  0  0  0  0  0
    9.2600   -3.7000   23.6850 S   0  0  0  0  0  0  0  0  0  0  0  0
    1.5100   -2.3670   26.1750 C   0  0  0  0  0  0  0  0  0  0  0  0
    1.1920   -3.6380   25.6680 C   0  0  0  0  0  0  0  0  0  0  0  0
    2.2490   -4.7270   25.4920 C   0  0  0  0  0  0  0  0  0  0  0  0
    3.6870   -4.4420   25.8730 C   0  0  0  0  0  0  0  0  0  0  0  0
    3.9520   -3.0410   26.4050 C   0  0  0  0  0  0  0  0  0  0  0  0
    2.8200   -2.0410   26.5350 C   0  0  0  0  0  0  0  0  0  0  0  0
    6.5300   -5.1020   21.5120 N   0  0  0  0  0  0  0  0  0  0  0  0
    5.8260   -6.3100   21.9370 C   0  0  0  0  0  0  0  0  0  0  0  0
    4.9980   -6.0910   23.0370 C   0  0  0  0  0  0  0  0  0  0  0  0
    5.6590   -5.4300   24.1730 N   0  0  0  0  0  0  0  0  0  0  0  0
    6.3270   -4.2030   23.7790 C   0  0  0  0  0  0  0  0  0  0  0  0
    7.2410   -4.4470   22.5820 C   0  0  0  0  0  0  0  0  0  0  0  0
   13.6440   -1.2500   20.9490 F   0  0  0  0  0  0  0  0  0  0  0  0
   13.0920   -2.1310   21.8060 C   0  0  0  0  0  0  0  0  0  0  0  0
  5  1  1  6
  2  6  1  0
  3  6  2  0
  5  6  1  0
  4  8  1  0
  7  8  1  0
  4  9  1  0
 10 11  1  0
 10 12  1  0
 10 13  1  0
 18 20  2  0
 20 21  1  0
 16 22  2  0
 17 22  2  0
 14 23  1  0
 17 24  1  0
 23 24  1  0
 25 26  2  0
 26 27  1  0
 27 28  2  0
  5 29  1  0
 28 29  1  0
 25 30  1  0
 29 30  2  0
 31 32  1  0
 10 33  1  0
 32 33  1  0
 33 34  2  0
 35 34  1  1
  1 36  1  0
 31 36  2  0
 35 36  1  0
  4 38  1  0
 38 37  1  6
 39  2  1  1
  7 39  1  0
 38 39  1  0
 39 40  1  0
 40 41  1  0
 37 42  1  0
 41 42  1  0
 14 43  1  0
 43 44  1  0
 35 45  1  0
 44 45  2  0
 35 46  1  0
 43 46  2  0
 15 47  1  0
 47 48  2  0
 19 49  1  0
 48 49  1  0
 22 50  1  6
 49 50  2  0
 50 51  1  0
 47 52  1  0
 51 52  2  0
 20 53  1  0
 53 54  1  0
 54 55  1  0
 22 56  1  0
 55 56  1  0
 56 57  1  0
 53 58  1  0
 57 58  1  0
 11 60  1  0
 59 60  1  0
M  END
