x0770-x0692
     RDKit          3D

 18 19  0  0  0  0  0  0  0  0999 V2000
    7.1690   -3.0190   18.8850 C   0  0  0  0  0  0  0  0  0  0  0  0
    5.2950   -4.2070   19.7540 O   0  0  0  0  0  0  0  0  0  0  0  0
   13.4020   -1.7210   21.4440 Cl  0  0  0  0  0  0  0  0  0  0  0  0
    6.1580   -3.3520   19.9540 C   0  0  0  0  0  0  0  0  0  0  0  0
    9.2000   -2.2830   24.2150 C   0  0  0  0  0  0  0  0  0  0  0  0
   11.2780    2.3950   23.7400 C   0  0  0  0  0  0  0  0  0  0  0  0
    6.2640   -2.6790   21.1780 N   0  0  0  0  0  0  0  0  0  0  0  0
    7.1490   -1.5980   21.2310 C   0  0  0  0  0  0  0  0  0  0  0  0
    8.4500   -1.8990   21.9590 C   0  0  0  0  0  0  0  0  0  0  0  0
    8.1370   -2.3110   23.2360 N   0  0  0  0  0  0  0  0  0  0  0  0
    7.3980   -3.6140   23.2510 C   0  0  0  0  0  0  0  0  0  0  0  0
    6.1170   -3.5090   22.3830 C   0  0  0  0  0  0  0  0  0  0  0  0
   10.2190   -0.0150   24.0490 C   0  0  0  0  0  0  0  0  0  0  0  0
   11.2870    0.9320   23.4990 C   0  0  0  0  0  0  0  0  0  0  0  0
   12.2480    0.3230   22.7270 C   0  0  0  0  0  0  0  0  0  0  0  0
   12.2420   -1.0380   22.4400 C   0  0  0  0  0  0  0  0  0  0  0  0
   11.2670   -1.8740   22.9380 C   0  0  0  0  0  0  0  0  0  0  0  0
   10.2660   -1.3720   23.7300 C   0  0  0  0  0  0  0  0  0  0  0  0
  1  4  1  0
  2  4  2  0
  4  7  1  0
  7  8  1  0
  8  9  1  0
  5 10  1  0
  9 10  1  0
 10 11  1  0
  7 12  1  0
 11 12  1  0
  6 14  1  0
 13 14  2  0
 14 15  1  0
  3 16  1  0
 15 16  2  0
 16 17  1  0
  5 18  1  0
 13 18  1  0
 17 18  2  0
M  END
