x0771-x2776-x3117
     RDKit          3D

 53 57  0  0  0  0  0  0  0  0999 V2000
    7.0510   -0.9740   21.9930 N   0  0  0  0  0  0  0  0  0  0  0  0
    7.8010    2.1760   22.9550 N   0  0  0  0  0  0  0  0  0  0  0  0
    8.8560    1.4490   21.0420 O   0  0  0  0  0  0  0  0  0  0  0  0
   10.9760    6.7100   23.9040 O   0  0  0  0  0  0  0  0  0  0  0  0
    6.7240    0.4050   21.6330 C   0  0  1  0  0  0  0  0  0  0  0  0
   12.4130   -2.9750   24.8490 O   0  0  0  0  0  0  0  0  0  0  0  0
    7.9210    1.3850   21.8360 C   0  0  0  0  0  0  0  0  0  0  0  0
   10.6860    1.8780   23.8290 C   0  0  0  0  0  0  0  0  0  0  0  0
   11.7980    6.5760   24.8120 C   0  0  0  0  0  0  0  0  0  0  0  0
   12.2870   -1.7080   24.2070 C   0  0  0  0  0  0  0  0  0  0  0  0
   13.2960   -1.5360   23.0970 C   0  0  0  0  0  0  0  0  0  0  0  0
   13.6550   -3.0630   25.4950 C   0  0  0  0  0  0  0  0  0  0  0  0
   12.4570   -0.5750   25.1830 C   0  0  0  0  0  0  0  0  0  0  0  0
    0.5470   -1.2970   26.1210 C   0  0  0  0  0  0  0  0  0  0  0  0
    4.6240   -6.9590   25.9150 O   0  0  0  0  0  0  0  0  0  0  0  0
    6.1610   -5.1930   26.8520 O   0  0  0  0  0  0  0  0  0  0  0  0
    5.8130   -4.2760   19.7920 O   0  0  0  0  0  0  0  0  0  0  0  0
    1.9080   -6.1240   24.9430 C   0  0  0  0  0  0  0  0  0  0  0  0
    6.7570   -4.1130   20.5650 C   0  0  0  0  0  0  0  0  0  0  0  0
    8.1240   -3.5660   20.2020 C   0  0  0  0  0  0  0  0  0  0  0  0
    5.1930   -5.6290   25.8720 S   0  0  0  0  0  0  0  0  0  0  0  0
    6.0680   -2.0420   21.6020 C   0  0  0  0  0  0  0  0  0  0  0  0
    6.0630   -3.0430   22.5610 C   0  0  0  0  0  0  0  0  0  0  0  0
    6.2770    0.4910   17.7900 N   0  0  0  0  0  0  0  0  0  0  0  0
    5.1860    1.3380   17.7340 C   0  0  0  0  0  0  0  0  0  0  0  0
    4.5970    1.8500   18.8740 C   0  0  0  0  0  0  0  0  0  0  0  0
    5.1390    1.5010   20.0920 C   0  0  0  0  0  0  0  0  0  0  0  0
    6.3050    0.6110   20.1880 C   0  0  0  0  0  0  0  0  0  0  0  0
    6.8240    0.1360   19.0740 C   0  0  0  0  0  0  0  0  0  0  0  0
    9.9660    3.1950   23.6000 C   0  0  0  0  0  0  0  0  0  0  0  0
   10.7110    4.3850   23.8200 C   0  0  0  0  0  0  0  0  0  0  0  0
   10.1420    5.6540   23.6420 C   0  0  0  0  0  0  0  0  0  0  0  0
    8.8220    5.7340   23.2310 C   0  0  0  0  0  0  0  0  0  0  0  0
    8.0820    4.5800   23.0100 C   0  0  0  0  0  0  0  0  0  0  0  0
    8.6220    3.2900   23.1910 C   0  0  0  0  0  0  0  0  0  0  0  0
    9.3120   -1.7650   21.7280 C   0  0  0  0  0  0  0  0  0  0  0  0
   10.7520   -2.0210   22.1770 C   0  0  0  0  0  0  0  0  0  0  0  0
   11.0360   -1.5950   23.6120 C   0  0  0  0  0  0  0  0  0  0  0  0
    9.8030   -1.0060   24.3450 C   0  0  0  0  0  0  0  0  0  0  0  0
    8.5660   -0.8490   23.7860 C   0  0  0  0  0  0  0  0  0  0  0  0
    8.3290   -1.2130   22.4960 C   0  0  0  0  0  0  0  0  0  0  0  0
    1.6340   -2.3240   26.0470 C   0  0  0  0  0  0  0  0  0  0  0  0
    1.3680   -3.6170   25.5880 C   0  0  0  0  0  0  0  0  0  0  0  0
    2.3810   -4.7960   25.4590 C   0  0  0  0  0  0  0  0  0  0  0  0
    3.8190   -4.4850   25.8900 C   0  0  0  0  0  0  0  0  0  0  0  0
    4.0570   -3.0250   26.3860 C   0  0  0  0  0  0  0  0  0  0  0  0
    2.9300   -2.0110   26.4360 C   0  0  0  0  0  0  0  0  0  0  0  0
    6.5040   -4.4190   22.0240 C   0  0  0  0  0  0  0  0  0  0  0  0
    5.4300   -5.5040   22.0600 C   0  0  0  0  0  0  0  0  0  0  0  0
    5.3300   -6.1990   23.2530 C   0  0  0  0  0  0  0  0  0  0  0  0
    5.8910   -5.3760   24.3680 N   0  0  0  0  0  0  0  0  0  0  0  0
    7.3300   -5.0250   24.3230 C   0  0  0  0  0  0  0  0  0  0  0  0
    7.7290   -4.9210   22.8410 C   0  0  0  0  0  0  0  0  0  0  0  0
  1  5  1  0
  2  7  1  0
  3  7  2  0
  5  7  1  6
  4  9  1  0
 10  6  1  0
 10 11  1  0
  6 12  1  0
 10 13  1  0
 17 19  2  0
 19 20  1  0
 15 21  2  0
 16 21  2  0
  1 22  1  0
 22 23  1  0
 24 25  2  0
 25 26  1  0
 26 27  2  0
  5 28  1  0
 27 28  1  0
 24 29  1  0
 28 29  2  0
  8 30  1  0
 30 31  2  0
  4 32  1  0
 31 32  1  0
 32 33  2  0
 33 34  1  0
  2 35  1  0
 30 35  1  0
 34 35  2  0
 36 37  2  0
 10 38  1  0
 37 38  1  0
 38 39  2  0
 39 40  1  0
  1 41  1  0
 36 41  1  0
 40 41  2  0
 14 42  1  0
 42 43  2  0
 18 44  1  0
 43 44  1  0
 21 45  1  0
 44 45  2  0
 45 46  1  0
 42 47  1  0
 46 47  2  0
 48 19  1  0
 23 48  1  0
 48 49  1  0
 49 50  1  0
 21 51  1  0
 50 51  1  0
 51 52  1  0
 48 53  1  0
 52 53  1  0
M  END
