x0771-x0354
     RDKit          3D

 40 43  0  0  0  0  0  0  0  0999 V2000
    0.2790   -1.6920   26.1780 C   0  0  0  0  0  0  0  0  0  0  0  0
    4.4680   -6.8930   25.8180 O   0  0  0  0  0  0  0  0  0  0  0  0
    5.9990   -4.6480   26.4150 N   0  0  0  0  0  0  0  0  0  0  0  0
    5.2030   -4.4130   19.8410 O   0  0  0  0  0  0  0  0  0  0  0  0
    1.9970   -6.1190   24.7920 C   0  0  0  0  0  0  0  0  0  0  0  0
    6.2970   -4.2090   20.3580 C   0  0  0  0  0  0  0  0  0  0  0  0
    7.2500   -3.2540   19.6290 C   0  0  0  0  0  0  0  0  0  0  0  0
    4.8550   -5.5190   25.5930 S   0  0  2  0  0  0  0  0  0  0  0  0
   13.0170   -1.2770   22.2850 C   0  0  0  0  0  0  0  0  0  0  0  0
    7.8960   -2.2850   25.3780 N   0  0  0  0  0  0  0  0  0  0  0  0
    7.5780   -0.5660   27.4220 O   0  0  0  0  0  0  0  0  0  0  0  0
    8.7610   -1.2420   25.5440 C   0  0  0  0  0  0  0  0  0  0  0  0
    8.5850   -0.1840   26.4770 C   0  0  0  0  0  0  0  0  0  0  0  0
    5.7590    3.7390   30.8000 C   0  0  0  0  0  0  0  0  0  0  0  0
    5.7580   -3.2230   26.0680 C   0  0  0  0  0  0  0  0  0  0  0  0
    6.7610   -2.3350   26.1950 C   0  0  0  0  0  0  0  0  0  0  0  0
    1.4080   -2.6190   26.0300 C   0  0  0  0  0  0  0  0  0  0  0  0
    1.1620   -3.8940   25.4870 C   0  0  0  0  0  0  0  0  0  0  0  0
    2.2120   -4.8100   25.3390 C   0  0  0  0  0  0  0  0  0  0  0  0
    3.4920   -4.4570   25.7280 C   0  0  0  0  0  0  0  0  0  0  0  0
    3.7120   -3.1820   26.2620 C   0  0  0  0  0  0  0  0  0  0  0  0
    2.6880   -2.2560   26.4180 C   0  0  0  0  0  0  0  0  0  0  0  0
    6.6580   -4.8490   21.5560 N   0  0  0  0  0  0  0  0  0  0  0  0
    6.0140   -6.1570   21.9370 C   0  0  0  0  0  0  0  0  0  0  0  0
    5.0660   -6.1570   22.9600 C   0  0  0  0  0  0  0  0  0  0  0  0
    5.5150   -5.2930   24.0610 N   0  0  0  0  0  0  0  0  0  0  0  0
    6.7820   -4.8300   23.9100 C   0  0  0  0  0  0  0  0  0  0  0  0
    7.0860   -4.1160   22.7570 C   0  0  0  0  0  0  0  0  0  0  0  0
   12.5380   -1.3680   23.6600 N   0  0  0  0  0  0  0  0  0  0  0  0
   11.7780   -2.4710   23.7800 C   0  0  0  0  0  0  0  0  0  0  0  0
   10.4430   -2.4170   24.2700 C   0  0  0  0  0  0  0  0  0  0  0  0
    9.9240   -1.2080   24.7610 N   0  0  0  0  0  0  0  0  0  0  0  0
   10.8510   -0.2640   24.8670 C   0  0  0  0  0  0  0  0  0  0  0  0
   11.9010   -0.2550   24.0170 C   0  0  0  0  0  0  0  0  0  0  0  0
    7.7270    1.6280   28.3490 C   0  0  0  0  0  0  0  0  0  0  0  0
    7.3040    2.6870   29.1630 C   0  0  0  0  0  0  0  0  0  0  0  0
    6.1560    2.5320   29.9350 C   0  0  0  0  0  0  0  0  0  0  0  0
    5.4360    1.3490   29.9040 C   0  0  0  0  0  0  0  0  0  0  0  0
    5.8690    0.2970   29.0880 C   0  0  0  0  0  0  0  0  0  0  0  0
    7.0290    0.4160   28.2900 C   0  0  0  0  0  0  0  0  0  0  0  0
  4  6  2  0
  6  7  1  0
  2  8  2  0
  3  8  2  0
 10 12  2  3
 11 13  1  0
 12 13  1  0
  3 15  1  0
 10 16  1  0
 15 16  1  0
  1 17  1  0
 17 18  2  0
  5 19  1  0
 18 19  1  0
  8 20  1  6
 19 20  2  0
 20 21  1  0
 17 22  1  0
 21 22  2  0
  6 23  1  0
 23 24  1  0
 24 25  1  0
  8 26  1  0
 25 26  1  0
 26 27  1  0
 23 28  1  0
 27 28  1  0
  9 29  1  0
 29 30  1  0
 30 31  1  0
 12 32  1  0
 31 32  1  0
 32 33  1  0
 29 34  1  0
 33 34  1  0
 35 36  2  0
 14 37  1  0
 36 37  1  0
 37 38  2  0
 38 39  1  0
 11 40  1  0
 35 40  1  0
 39 40  2  0
M  END
