x0771-x1077-x2705
     RDKit          3D

 58 64  0  0  0  0  0  0  0  0999 V2000
    7.6740   -1.1370   21.5540 N   0  0  0  0  0  0  0  0  0  0  0  0
    7.4890    2.2570   22.5460 N   0  0  0  0  0  0  0  0  0  0  0  0
    8.9320    1.4080   21.0140 O   0  0  0  0  0  0  0  0  0  0  0  0
    7.0010    0.1410   21.4680 C   0  0  1  0  0  0  0  0  0  0  0  0
    7.9020    1.3170   21.6480 C   0  0  0  0  0  0  0  0  0  0  0  0
   10.3540    2.2930   23.8580 C   0  0  0  0  0  0  0  0  0  0  0  0
    9.5110    1.1770   24.4750 C   0  0  0  0  0  0  0  0  0  0  0  0
    6.2090    4.7070   21.8760 C   0  0  0  0  0  0  0  0  0  0  0  0
   12.2530   -1.4900   23.1800 C   0  0  0  0  0  0  0  0  0  0  0  0
   12.8770   -0.4640   24.1040 C   0  0  0  0  0  0  0  0  0  0  0  0
   12.8690   -2.1150   24.3860 C   0  0  0  0  0  0  0  0  0  0  0  0
   13.0000   -1.6430   21.9860 C   0  0  0  0  0  0  0  0  0  0  0  0
    6.2630    0.3400   17.7600 N   0  0  0  0  0  0  0  0  0  0  0  0
    5.1880    1.2170   17.7840 C   0  0  0  0  0  0  0  0  0  0  0  0
    4.7450    1.6820   19.0170 C   0  0  0  0  0  0  0  0  0  0  0  0
    5.3630    1.2940   20.1710 C   0  0  0  0  0  0  0  0  0  0  0  0
    6.4370    0.4270   20.0870 C   0  0  0  0  0  0  0  0  0  0  0  0
    6.9130   -0.0780   18.9040 C   0  0  0  0  0  0  0  0  0  0  0  0
    9.9250   -1.5810   24.1350 N   0  0  0  0  0  0  0  0  0  0  0  0
    8.5600   -1.4930   23.7540 N   0  0  0  0  0  0  0  0  0  0  0  0
    8.7800   -1.2940   22.3990 C   0  0  0  0  0  0  0  0  0  0  0  0
   10.0170   -1.2470   21.9050 C   0  0  0  0  0  0  0  0  0  0  0  0
   10.7580   -1.4490   23.1110 C   0  0  0  0  0  0  0  0  0  0  0  0
    9.5540    3.5160   23.4610 C   0  0  0  0  0  0  0  0  0  0  0  0
   10.2520    4.8530   23.7370 C   0  0  0  0  0  0  0  0  0  0  0  0
    9.5520    6.1260   23.3720 C   0  0  0  0  0  0  0  0  0  0  0  0
    8.1820    6.0550   22.7440 C   0  0  0  0  0  0  0  0  0  0  0  0
    7.5710    4.8140   22.5060 C   0  0  0  0  0  0  0  0  0  0  0  0
    8.1970    3.4660   22.8430 C   0  0  0  0  0  0  0  0  0  0  0  0
    0.3880   -1.3590   26.4960 C   0  0  0  0  0  0  0  0  0  0  0  0
    4.0480   -6.8490   25.5280 O   0  0  0  0  0  0  0  0  0  0  0  0
    6.0250   -4.9400   26.0500 N   0  0  0  0  0  0  0  0  0  0  0  0
    5.5740   -4.4050   19.9390 O   0  0  0  0  0  0  0  0  0  0  0  0
    1.6840   -5.9030   24.9770 C   0  0  0  0  0  0  0  0  0  0  0  0
    6.6410   -4.4490   20.5850 C   0  0  0  0  0  0  0  0  0  0  0  0
    7.7760   -3.5450   20.1280 C   0  0  0  0  0  0  0  0  0  0  0  0
    4.6670   -5.3720   25.5000 S   0  0  2  0  0  0  0  0  0  0  0  0
    7.3950   -5.3400   25.5990 N   0  0  0  0  0  0  0  0  0  0  0  0
    7.8790   -5.4960   24.1900 C   0  0  2  0  0  0  0  0  0  0  0  0
    9.3480   -5.2540   23.9850 C   0  0  0  0  0  0  0  0  0  0  0  0
   10.1290   -4.6930   24.9950 C   0  0  0  0  0  0  0  0  0  0  0  0
    9.5150   -3.8490   26.0140 N   0  0  0  0  0  0  0  0  0  0  0  0
    9.1110   -4.6750   27.1470 C   0  0  0  0  0  0  0  0  0  0  0  0
    8.3070   -5.6890   26.6960 C   0  0  0  0  0  0  0  0  0  0  0  0
    1.4760   -2.3580   26.2680 C   0  0  0  0  0  0  0  0  0  0  0  0
    1.1500   -3.6180   25.7650 C   0  0  0  0  0  0  0  0  0  0  0  0
    2.1410   -4.5790   25.5320 C   0  0  0  0  0  0  0  0  0  0  0  0
    3.4650   -4.2870   25.8020 C   0  0  0  0  0  0  0  0  0  0  0  0
    3.8720   -3.0600   26.3090 C   0  0  0  0  0  0  0  0  0  0  0  0
    2.8030   -2.0230   26.5590 C   0  0  0  0  0  0  0  0  0  0  0  0
    6.8240   -5.3570   21.6420 N   0  0  0  0  0  0  0  0  0  0  0  0
    5.8180   -6.4060   21.7870 C   0  0  0  0  0  0  0  0  0  0  0  0
    4.7280   -6.1400   22.8670 C   0  0  0  0  0  0  0  0  0  0  0  0
    4.8740   -5.0170   23.8540 N   0  0  0  0  0  0  0  0  0  0  0  0
    5.8630   -4.0410   23.4610 C   0  0  0  0  0  0  0  0  0  0  0  0
    6.9660   -4.9510   23.0360 C   0  0  1  0  0  0  0  0  0  0  0  0
    8.5860   -1.7020   25.1390 C   0  0  0  0  0  0  0  0  0  0  0  0
    8.3520   -3.1410   25.4790 C   0  0  0  0  0  0  0  0  0  0  0  0
  4  1  1  6
  2  5  1  0
  3  5  2  0
  4  5  1  0
  6  7  1  0
  9 10  1  0
  9 11  1  0
  9 12  1  0
 13 14  2  0
 14 15  1  0
 15 16  2  0
  4 17  1  0
 16 17  1  0
 13 18  1  0
 17 18  2  0
 19 20  1  0
  1 21  1  0
 20 21  1  0
 21 22  2  0
  9 23  1  0
 19 23  2  0
 22 23  1  0
  6 24  1  0
 24 25  2  0
 25 26  1  0
 26 27  2  0
  8 28  1  0
 27 28  1  0
  2 29  1  0
 24 29  1  0
 28 29  2  0
 33 35  2  0
 35 36  1  0
 31 37  2  0
 32 37  2  0
 32 38  1  0
 38 39  1  0
 39 40  1  1
 40 41  1  0
 41 42  1  0
 42 43  1  0
 38 44  1  0
 43 44  1  0
 30 45  1  0
 45 46  2  0
 34 47  1  0
 46 47  1  0
 37 48  1  1
 47 48  2  0
 48 49  1  0
 45 50  1  0
 49 50  2  0
 35 51  1  0
 51 52  1  0
 52 53  1  0
 37 54  1  0
 53 54  1  0
 54 55  1  0
 39 56  1  0
 56 51  1  1
 55 56  1  0
 20 57  1  0
 42 58  1  0
 57 58  1  0
M  END
