x0771-x0991
     RDKit          3D

 25 26  0  0  0  0  0  0  0  0999 V2000
    0.6360   -1.4860   26.1380 C   0  0  0  0  0  0  0  0  0  0  0  0
    4.4390   -6.9380   25.6890 O   0  0  0  0  0  0  0  0  0  0  0  0
    6.0700   -5.3460   26.7300 O   0  0  0  0  0  0  0  0  0  0  0  0
    5.2810   -4.3020   19.7960 O   0  0  0  0  0  0  0  0  0  0  0  0
    1.9180   -6.1050   24.9510 C   0  0  0  0  0  0  0  0  0  0  0  0
    6.3540   -4.0540   20.3390 C   0  0  0  0  0  0  0  0  0  0  0  0
    7.4120   -3.2230   19.5680 C   0  0  0  0  0  0  0  0  0  0  0  0
    5.0960   -5.6500   25.7070 S   0  0  0  0  0  0  0  0  0  0  0  0
   10.0450   -5.7290   25.0550 N   0  0  0  0  0  0  0  0  0  0  0  0
    8.9550   -3.7870   23.2520 C   0  0  0  0  0  0  0  0  0  0  0  0
    8.3060   -4.8430   23.8780 C   0  0  1  0  0  0  0  0  0  0  0  0
    8.1340   -4.7680   26.3780 N   0  0  0  0  0  0  0  0  0  0  0  0
    8.8410   -5.1240   25.1420 C   0  0  0  0  0  0  0  0  0  0  0  0
    1.7270   -2.4670   26.0300 C   0  0  0  0  0  0  0  0  0  0  0  0
    1.4310   -3.7510   25.5800 C   0  0  0  0  0  0  0  0  0  0  0  0
    2.3910   -4.7370   25.4570 C   0  0  0  0  0  0  0  0  0  0  0  0
    3.8370   -4.3940   25.8340 C   0  0  0  0  0  0  0  0  0  0  0  0
    4.0410   -3.0810   26.2690 C   0  0  0  0  0  0  0  0  0  0  0  0
    3.0330   -2.1400   26.3690 C   0  0  0  0  0  0  0  0  0  0  0  0
    6.5750   -4.5140   21.6410 N   0  0  0  0  0  0  0  0  0  0  0  0
    6.0920   -5.8770   21.9340 C   0  0  0  0  0  0  0  0  0  0  0  0
    5.1780   -5.8370   22.9950 C   0  0  0  0  0  0  0  0  0  0  0  0
    5.8870   -5.4220   24.2270 N   0  0  0  0  0  0  0  0  0  0  0  0
    6.8940   -4.3590   24.0560 C   0  0  2  0  0  0  0  0  0  0  0  0
    6.4550   -3.5980   22.8150 C   0  0  0  0  0  0  0  0  0  0  0  0
  4  6  2  0
  6  7  1  0
  2  8  2  0
  3  8  2  0
 11 10  1  1
  9 13  2  3
 11 13  1  0
 12 13  1  0
  1 14  1  0
 14 15  2  0
  5 16  1  0
 15 16  1  0
  8 17  1  0
 16 17  2  0
 17 18  1  0
 14 19  1  0
 18 19  2  0
  6 20  1  0
 20 21  1  0
 21 22  1  0
  8 23  1  0
 22 23  1  0
 11 24  1  0
 23 24  1  0
 20 25  1  0
 24 25  1  6
M  END
