x0771-x3115-x3113
     RDKit          3D

 50 53  0  0  0  0  0  0  0  0999 V2000
    7.1530   -1.3680   21.9870 N   0  0  0  0  0  0  0  0  0  0  0  0
    8.0610    1.8030   22.9780 N   0  0  0  0  0  0  0  0  0  0  0  0
    9.0000    1.2050   21.0570 O   0  0  0  0  0  0  0  0  0  0  0  0
   11.7280    3.8930   22.2160 O   0  0  0  0  0  0  0  0  0  0  0  0
    6.9010    0.0570   21.6180 C   0  0  1  0  0  0  0  0  0  0  0  0
    8.0870    1.0410   21.8450 C   0  0  0  0  0  0  0  0  0  0  0  0
    9.0240    2.8700   22.9430 C   0  0  2  0  0  0  0  0  0  0  0  0
   10.3360    2.2580   23.4840 C   0  0  0  0  0  0  0  0  0  0  0  0
   11.5520    3.1960   23.4240 C   0  0  0  0  0  0  0  0  0  0  0  0
   12.9390    4.6470   22.2670 C   0  0  0  0  0  0  0  0  0  0  0  0
   12.3720   -2.1140   24.3120 C   0  0  0  0  0  0  0  0  0  0  0  0
   13.5550   -2.4910   23.4300 C   0  0  0  0  0  0  0  0  0  0  0  0
   12.1790   -3.1980   25.3610 C   0  0  0  0  0  0  0  0  0  0  0  0
   12.7130   -0.7870   24.9910 C   0  0  0  0  0  0  0  0  0  0  0  0
    8.9700    5.3200   23.0580 O   0  0  0  0  0  0  0  0  0  0  0  0
    8.3940    4.0740   23.4730 C   0  0  0  0  0  0  0  0  0  0  0  0
    8.2170    6.1500   22.2630 C   0  0  0  0  0  0  0  0  0  0  0  0
    0.7700   -1.3350   26.2300 C   0  0  0  0  0  0  0  0  0  0  0  0
    4.5970   -6.9120   25.7850 O   0  0  0  0  0  0  0  0  0  0  0  0
    6.1430   -5.1770   26.7530 O   0  0  0  0  0  0  0  0  0  0  0  0
    5.2360   -4.4910   19.8650 O   0  0  0  0  0  0  0  0  0  0  0  0
    2.1660   -6.1580   24.9130 C   0  0  0  0  0  0  0  0  0  0  0  0
    6.2760   -4.1100   20.3730 C   0  0  0  0  0  0  0  0  0  0  0  0
    7.1960   -3.2020   19.5610 C   0  0  0  0  0  0  0  0  0  0  0  0
    5.1780   -5.5890   25.7540 S   0  0  0  0  0  0  0  0  0  0  0  0
    6.2110   -2.1190   22.7490 C   0  0  0  0  0  0  0  0  0  0  0  0
    6.3370    0.2560   17.8280 N   0  0  0  0  0  0  0  0  0  0  0  0
    5.1920    1.1300   17.8620 C   0  0  0  0  0  0  0  0  0  0  0  0
    4.5550    1.6650   19.1130 C   0  0  0  0  0  0  0  0  0  0  0  0
    5.2610    1.1920   20.3530 C   0  0  0  0  0  0  0  0  0  0  0  0
    6.3610    0.3570   20.2410 C   0  0  0  0  0  0  0  0  0  0  0  0
    6.9420   -0.1480   19.0780 C   0  0  0  0  0  0  0  0  0  0  0  0
    9.5830   -1.4370   21.7430 C   0  0  0  0  0  0  0  0  0  0  0  0
   10.8530   -1.6100   22.2590 C   0  0  0  0  0  0  0  0  0  0  0  0
   11.0670   -1.9080   23.5990 C   0  0  0  0  0  0  0  0  0  0  0  0
   10.0440   -2.0680   24.5360 C   0  0  0  0  0  0  0  0  0  0  0  0
    8.6480   -1.8930   24.0090 C   0  0  0  0  0  0  0  0  0  0  0  0
    8.4750   -1.5620   22.5420 C   0  0  0  0  0  0  0  0  0  0  0  0
    1.7940   -2.4140   26.0680 C   0  0  0  0  0  0  0  0  0  0  0  0
    1.3890   -3.7830   25.5300 C   0  0  0  0  0  0  0  0  0  0  0  0
    2.5130   -4.7930   25.4300 C   0  0  0  0  0  0  0  0  0  0  0  0
    3.8110   -4.4340   25.8200 C   0  0  0  0  0  0  0  0  0  0  0  0
    4.1030   -3.1480   26.2970 C   0  0  0  0  0  0  0  0  0  0  0  0
    3.1200   -2.1710   26.4140 C   0  0  0  0  0  0  0  0  0  0  0  0
    6.5980   -4.5190   21.6760 N   0  0  0  0  0  0  0  0  0  0  0  0
    6.3030   -5.9340   22.0180 C   0  0  0  0  0  0  0  0  0  0  0  0
    5.3090   -5.9740   23.0230 C   0  0  0  0  0  0  0  0  0  0  0  0
    5.9160   -5.3970   24.2210 N   0  0  0  0  0  0  0  0  0  0  0  0
    6.7610   -4.2280   23.9760 C   0  0  0  0  0  0  0  0  0  0  0  0
    6.2040   -3.6860   22.8130 C   0  0  1  0  0  0  0  0  0  0  0  0
  1  5  1  0
  2  6  1  0
  3  6  2  0
  5  6  1  6
  2  7  1  0
  7  8  1  1
  4  9  1  0
  8  9  1  0
  4 10  1  0
 11 12  1  0
 11 13  1  0
 11 14  1  0
  7 16  1  0
 15 16  1  0
 15 17  1  0
 21 23  2  0
 23 24  1  0
 19 25  2  0
 20 25  2  0
  1 26  1  0
 27 28  2  0
 28 29  1  0
 29 30  2  0
  5 31  1  0
 30 31  1  0
 27 32  1  0
 31 32  2  0
 33 34  2  0
 11 35  1  0
 34 35  1  0
 35 36  2  0
 36 37  1  0
  1 38  1  0
 33 38  1  0
 37 38  2  0
 18 39  1  0
 39 40  2  0
 22 41  1  0
 40 41  1  0
 25 42  1  0
 41 42  2  0
 42 43  1  0
 39 44  1  0
 43 44  2  0
 23 45  1  0
 45 46  1  0
 46 47  1  0
 25 48  1  0
 47 48  1  0
 48 49  1  0
 50 26  1  6
 45 50  1  0
 49 50  1  0
M  END
