x0771-x3110-x3113
     RDKit          3D

 49 52  0  0  0  0  0  0  0  0999 V2000
    8.0950    1.3190   23.4540 N   0  0  0  0  0  0  0  0  0  0  0  0
   13.4020    5.2760   22.6740 C   0  0  0  0  0  0  0  0  0  0  0  0
   12.0950    3.3180   22.4450 O   0  0  0  0  0  0  0  0  0  0  0  0
   12.3340    4.4450   22.0370 C   0  0  0  0  0  0  0  0  0  0  0  0
    7.2160   -1.3500   21.9810 N   0  0  0  0  0  0  0  0  0  0  0  0
   11.2230    4.2620   24.0340 O   0  0  0  0  0  0  0  0  0  0  0  0
   11.2610    3.2630   23.3340 C   0  0  0  0  0  0  0  0  0  0  0  0
    8.6770    1.5270   21.2000 O   0  0  0  0  0  0  0  0  0  0  0  0
   10.3040    2.1160   23.6360 C   0  0  0  0  0  0  0  0  0  0  0  0
    8.8790    2.5610   23.6440 C   0  0  0  0  0  0  0  0  0  0  0  0
    7.9570    1.0010   22.0750 C   0  0  0  0  0  0  0  0  0  0  0  0
    6.8170   -0.0200   21.8650 C   0  0  1  0  0  0  0  0  0  0  0  0
   12.5830   -1.8140   24.1580 C   0  0  0  0  0  0  0  0  0  0  0  0
   12.7380   -0.7390   24.9710 C   0  0  0  0  0  0  0  0  0  0  0  0
   13.4110   -2.0240   23.0570 C   0  0  0  0  0  0  0  0  0  0  0  0
   12.8300   -2.9160   25.0140 C   0  0  0  0  0  0  0  0  0  0  0  0
    0.6260   -1.3580   26.3000 C   0  0  0  0  0  0  0  0  0  0  0  0
    4.3550   -6.9600   25.5810 O   0  0  0  0  0  0  0  0  0  0  0  0
    5.9480   -5.4130   26.8310 O   0  0  0  0  0  0  0  0  0  0  0  0
    5.2920   -4.5640   19.9090 O   0  0  0  0  0  0  0  0  0  0  0  0
    1.9530   -6.1040   24.9200 C   0  0  0  0  0  0  0  0  0  0  0  0
    6.3620   -4.2470   20.4120 C   0  0  0  0  0  0  0  0  0  0  0  0
    7.2490   -3.2860   19.6290 C   0  0  0  0  0  0  0  0  0  0  0  0
    4.9450   -5.6330   25.6190 S   0  0  0  0  0  0  0  0  0  0  0  0
    6.2530   -2.3680   22.2330 C   0  0  0  0  0  0  0  0  0  0  0  0
    6.3840    0.2560   17.9040 N   0  0  0  0  0  0  0  0  0  0  0  0
    5.2620    1.0900   17.8200 C   0  0  0  0  0  0  0  0  0  0  0  0
    4.5780    1.5880   18.8900 C   0  0  0  0  0  0  0  0  0  0  0  0
    5.0680    1.2250   20.2630 C   0  0  0  0  0  0  0  0  0  0  0  0
    6.2610    0.3520   20.4310 C   0  0  0  0  0  0  0  0  0  0  0  0
    6.8640   -0.1010   19.1170 C   0  0  0  0  0  0  0  0  0  0  0  0
    9.4940   -1.5640   21.6500 C   0  0  0  0  0  0  0  0  0  0  0  0
   10.9080   -1.6950   22.1260 C   0  0  0  0  0  0  0  0  0  0  0  0
   11.2020   -1.7180   23.6080 C   0  0  0  0  0  0  0  0  0  0  0  0
   10.1450   -1.6260   24.5020 C   0  0  0  0  0  0  0  0  0  0  0  0
    8.8230   -1.5130   24.0520 C   0  0  0  0  0  0  0  0  0  0  0  0
    8.4840   -1.4750   22.5540 C   0  0  0  0  0  0  0  0  0  0  0  0
    1.6840   -2.3980   26.1180 C   0  0  0  0  0  0  0  0  0  0  0  0
    1.3500   -3.7890   25.5900 C   0  0  0  0  0  0  0  0  0  0  0  0
    2.3400   -4.7490   25.4410 C   0  0  0  0  0  0  0  0  0  0  0  0
    3.6620   -4.4250   25.7820 C   0  0  0  0  0  0  0  0  0  0  0  0
    3.9640   -3.1480   26.2570 C   0  0  0  0  0  0  0  0  0  0  0  0
    3.0180   -2.1330   26.4320 C   0  0  0  0  0  0  0  0  0  0  0  0
    6.7460   -4.7690   21.6410 N   0  0  0  0  0  0  0  0  0  0  0  0
    6.0480   -5.9900   21.9950 C   0  0  0  0  0  0  0  0  0  0  0  0
    5.0350   -5.8050   22.9190 C   0  0  0  0  0  0  0  0  0  0  0  0
    5.7070   -5.3000   24.1330 N   0  0  0  0  0  0  0  0  0  0  0  0
    6.5210   -4.0610   23.9970 C   0  0  0  0  0  0  0  0  0  0  0  0
    6.9260   -3.7300   22.6770 C   0  0  2  0  0  0  0  0  0  0  0  0
  2  4  1  0
  3  4  1  0
  3  7  1  0
  6  7  2  0
  7  9  1  0
  1 10  1  0
  9 10  1  0
  1 11  1  0
  8 11  2  0
  5 12  1  0
 12 11  1  6
 13 14  1  0
 13 15  1  0
 13 16  1  0
 20 22  2  0
 22 23  1  0
 18 24  2  0
 19 24  2  0
  5 25  1  0
 26 27  2  0
 27 28  1  0
 28 29  2  0
 12 30  1  0
 29 30  1  0
 26 31  1  0
 30 31  2  0
 32 33  2  0
 13 34  1  0
 33 34  1  0
 34 35  2  0
 35 36  1  0
  5 37  1  0
 32 37  1  0
 36 37  2  0
 17 38  1  0
 38 39  2  0
 21 40  1  0
 39 40  1  0
 24 41  1  0
 40 41  2  0
 41 42  1  0
 38 43  1  0
 42 43  2  0
 22 44  1  0
 44 45  1  0
 45 46  1  0
 24 47  1  0
 46 47  1  0
 47 48  1  0
 49 25  1  6
 44 49  1  0
 48 49  1  0
M  END
