x0770-x2562
     RDKit          3D

 34 37  0  0  0  0  0  0  0  0999 V2000
    8.2740   -0.5670   21.2920 C   0  0  0  0  0  0  0  0  0  0  0  0
    8.1690    0.5530   20.7680 O   0  0  0  0  0  0  0  0  0  0  0  0
   11.6860    2.9060   23.2790 O   0  0  0  0  0  0  0  0  0  0  0  0
    9.4680   -1.1170   21.7010 N   0  0  0  0  0  0  0  0  0  0  0  0
   12.9420    6.7040   22.2520 O   0  0  0  0  0  0  0  0  0  0  0  0
   13.1950   -2.2990   22.1250 Cl  0  0  0  0  0  0  0  0  0  0  0  0
    7.4600   -2.9570   18.7440 C   0  0  0  0  0  0  0  0  0  0  0  0
    5.5480   -3.9270   19.7030 O   0  0  0  0  0  0  0  0  0  0  0  0
    6.5840   -3.2440   19.9030 C   0  0  0  0  0  0  0  0  0  0  0  0
    9.3300   -2.3900   23.6570 C   0  0  0  0  0  0  0  0  0  0  0  0
   12.4900    4.5060   21.6380 N   0  0  0  0  0  0  0  0  0  0  0  0
   13.3010    5.5540   22.1390 C   0  0  2  0  0  0  0  0  0  0  0  0
   13.4340    4.7770   23.4290 C   0  0  0  0  0  0  0  0  0  0  0  0
   12.7520    3.5870   22.7740 C   0  0  1  0  0  0  0  0  0  0  0  0
   11.7250   -1.4580   22.0720 C   0  0  0  0  0  0  0  0  0  0  0  0
   12.8850   -0.5650   22.5470 C   0  0  0  0  0  0  0  0  0  0  0  0
   12.8730    0.8840   22.9450 C   0  0  0  0  0  0  0  0  0  0  0  0
   11.7230    1.5720   22.9220 C   0  0  0  0  0  0  0  0  0  0  0  0
   10.5940    0.8710   22.5120 C   0  0  0  0  0  0  0  0  0  0  0  0
   10.6680   -0.5160   22.1290 C   0  0  0  0  0  0  0  0  0  0  0  0
    7.0200   -2.8170   21.1880 N   0  0  0  0  0  0  0  0  0  0  0  0
    7.0870   -1.4720   21.6580 C   0  0  1  0  0  0  0  0  0  0  0  0
    7.0240   -1.5040   23.0550 C   0  0  0  0  0  0  0  0  0  0  0  0
    7.8740   -2.4950   23.7700 N   0  0  0  0  0  0  0  0  0  0  0  0
    7.4680   -3.7460   23.5290 C   0  0  0  0  0  0  0  0  0  0  0  0
    6.8800   -3.9310   22.1650 C   0  0  0  0  0  0  0  0  0  0  0  0
    4.6490    1.6660   19.1150 N   0  0  0  0  0  0  0  0  0  0  0  0
    5.1780    1.4450   17.8900 C   0  0  0  0  0  0  0  0  0  0  0  0
    6.1810    0.6560   17.5880 N   0  0  0  0  0  0  0  0  0  0  0  0
    6.6350    0.0840   18.6570 C   0  0  0  0  0  0  0  0  0  0  0  0
    6.0710    0.3390   19.8980 C   0  0  0  0  0  0  0  0  0  0  0  0
    4.9940    1.1640   20.3460 C   0  0  0  0  0  0  0  0  0  0  0  0
    5.7030   -0.8910   21.2470 C   0  0  0  0  0  0  0  0  0  0  0  0
    5.5860    0.4750   21.4800 C   0  0  0  0  0  0  0  0  0  0  0  0
  1  2  2  0
  1  4  1  0
  7  9  1  0
  8  9  2  0
 12  5  1  1
 11 12  1  0
 12 13  1  0
 14  3  1  1
 11 14  1  0
 13 14  1  0
  6 15  1  0
 15 16  2  0
 16 17  1  0
  3 18  1  0
 17 18  2  0
 18 19  1  0
  4 20  1  0
 15 20  1  0
 19 20  2  0
  9 21  1  0
 22  1  1  0
 21 22  1  0
 22 23  1  0
 10 24  1  0
 23 24  1  0
 24 25  1  0
 21 26  1  0
 25 26  1  0
 27 28  2  0
 28 29  1  0
 29 30  2  0
 30 31  1  0
 27 32  1  0
 31 32  2  0
 22 33  1  6
 32 34  1  0
 33 34  1  0
M  END
