x0771-x0755-x0978-x3117-x2705
     RDKit          3D

 69 75  0  0  0  0  0  0  0  0999 V2000
    7.4750   -0.9560   21.7940 N   0  0  0  0  0  0  0  0  0  0  0  0
    7.5250    2.3200   22.8550 N   0  0  0  0  0  0  0  0  0  0  0  0
    9.0660    1.5750   21.1140 O   0  0  0  0  0  0  0  0  0  0  0  0
    6.8650    0.3610   21.6390 C   0  0  1  0  0  0  0  0  0  0  0  0
    7.8690    1.4440   21.8760 C   0  0  0  0  0  0  0  0  0  0  0  0
   10.2480    2.2590   23.9540 C   0  0  0  0  0  0  0  0  0  0  0  0
    9.3160    1.4340   24.8190 C   0  0  0  0  0  0  0  0  0  0  0  0
    6.2650    4.7730   21.9990 C   0  0  0  0  0  0  0  0  0  0  0  0
   12.2060   -1.4820   23.2740 C   0  0  0  0  0  0  0  0  0  0  0  0
   12.8200   -0.1960   23.8700 C   0  0  0  0  0  0  0  0  0  0  0  0
   12.5420   -2.7010   24.1470 C   0  0  0  0  0  0  0  0  0  0  0  0
   12.8120   -1.7670   21.8840 C   0  0  0  0  0  0  0  0  0  0  0  0
   13.4420   -2.5070   25.2920 C   0  0  0  0  0  0  0  0  0  0  0  0
    2.0680   -5.5380   22.9730 N   0  0  0  0  0  0  0  0  0  0  0  0
    2.0970   -8.3780   23.9870 C   0  0  0  0  0  0  0  0  0  0  0  0
    4.2960   -7.8720   24.6250 O   0  0  0  0  0  0  0  0  0  0  0  0
    3.0670   -7.2330   24.2500 C   0  0  0  0  0  0  0  0  0  0  0  0
    0.7520   -7.2210   21.9820 O   0  0  0  0  0  0  0  0  0  0  0  0
    3.3160   -6.2770   23.0620 C   0  0  2  0  0  0  0  0  0  0  0  0
    3.9020   -4.0280   22.4020 O   0  0  0  0  0  0  0  0  0  0  0  0
    0.8660   -6.1230   22.5340 C   0  0  0  0  0  0  0  0  0  0  0  0
   -0.3530   -5.4590   22.6890 C   0  0  0  0  0  0  0  0  0  0  0  0
    6.7400   -2.0530   21.4140 C   0  0  0  0  0  0  0  0  0  0  0  0
    6.3820   -3.0520   22.5110 C   0  0  0  0  0  0  0  0  0  0  0  0
    4.6820   -6.7280   25.6470 O   0  0  0  0  0  0  0  0  0  0  0  0
    6.1670   -4.9590   26.3750 N   0  0  0  0  0  0  0  0  0  0  0  0
    6.0400   -4.8230   19.9410 O   0  0  0  0  0  0  0  0  0  0  0  0
    6.9360   -4.3540   20.6260 C   0  0  0  0  0  0  0  0  0  0  0  0
    8.0970   -3.5340   20.0580 C   0  0  0  0  0  0  0  0  0  0  0  0
    4.9530   -5.3270   25.5680 S   0  0  2  0  0  0  0  0  0  0  0  0
    5.3150   -5.9040   19.9590 O   0  0  0  0  0  0  0  0  0  0  0  0
    5.4380   -5.0220   20.7930 C   0  0  0  0  0  0  0  0  0  0  0  0
    5.5230   -3.6650   20.3630 C   0  0  0  0  0  0  0  0  0  0  0  0
    4.9930   -2.3410   26.3050 F   0  0  0  0  0  0  0  0  0  0  0  0
    6.3130    0.2550   17.8760 N   0  0  0  0  0  0  0  0  0  0  0  0
    5.2070    1.0320   17.8230 C   0  0  0  0  0  0  0  0  0  0  0  0
    4.5950    1.5860   18.8520 C   0  0  0  0  0  0  0  0  0  0  0  0
    5.1450    1.3500   20.0830 C   0  0  0  0  0  0  0  0  0  0  0  0
    6.2820    0.5760   20.2710 C   0  0  0  0  0  0  0  0  0  0  0  0
    6.8300    0.0380   19.1030 C   0  0  0  0  0  0  0  0  0  0  0  0
    9.9640   -1.3540   24.3000 N   0  0  0  0  0  0  0  0  0  0  0  0
    8.6220   -1.2130   23.9640 N   0  0  0  0  0  0  0  0  0  0  0  0
    8.6100   -1.1240   22.6150 C   0  0  0  0  0  0  0  0  0  0  0  0
    9.8930   -1.2130   22.1220 C   0  0  0  0  0  0  0  0  0  0  0  0
   10.7240   -1.3530   23.2000 C   0  0  0  0  0  0  0  0  0  0  0  0
    9.5640    3.5450   23.5230 C   0  0  0  0  0  0  0  0  0  0  0  0
   10.2710    4.7570   23.6580 C   0  0  0  0  0  0  0  0  0  0  0  0
    9.6390    5.9300   23.2490 C   0  0  0  0  0  0  0  0  0  0  0  0
    8.3640    5.9260   22.7220 C   0  0  0  0  0  0  0  0  0  0  0  0
    7.6540    4.7470   22.5840 C   0  0  0  0  0  0  0  0  0  0  0  0
    8.2710    3.5610   22.9950 C   0  0  0  0  0  0  0  0  0  0  0  0
    1.4070   -3.0160   25.8990 C   0  0  0  0  0  0  0  0  0  0  0  0
    1.0110   -4.1900   25.5960 C   0  0  0  0  0  0  0  0  0  0  0  0
    2.2210   -4.7060   25.5550 C   0  0  0  0  0  0  0  0  0  0  0  0
    3.5580   -4.2430   25.7620 C   0  0  0  0  0  0  0  0  0  0  0  0
    3.7950   -2.9180   26.0890 C   0  0  0  0  0  0  0  0  0  0  0  0
    2.5720   -2.2990   26.1460 C   0  0  0  0  0  0  0  0  0  0  0  0
    6.6980   -4.5160   22.1390 C   0  0  2  0  0  0  0  0  0  0  0  0
    5.5850   -5.4640   22.3000 C   0  0  2  0  0  0  0  0  0  0  0  0
    4.5080   -5.2010   22.9520 C   0  0  2  0  0  0  0  0  0  0  0  0
    5.4730   -4.8540   23.9240 C   0  0  1  0  0  0  0  0  0  0  0  0
    6.8660   -4.8060   24.1130 C   0  0  0  0  0  0  0  0  0  0  0  0
    7.6040   -4.8200   23.0000 C   0  0  0  0  0  0  0  0  0  0  0  0
    3.9680   -6.4880   27.4890 O   0  0  0  0  0  0  0  0  0  0  0  0
    5.9820   -4.6280   27.7600 N   0  0  0  0  0  0  0  0  0  0  0  0
    4.4720   -5.1630   28.3400 S   0  0  0  0  0  0  0  0  0  0  0  0
    2.4510   -6.5770   25.4740 C   0  0  0  0  0  0  0  0  0  0  0  0
    0.8250   -0.6510   26.6610 C   0  0  0  0  0  0  0  0  0  0  0  0
    2.3230   -0.8820   26.4520 C   0  0  0  0  0  0  0  0  0  0  0  0
  1  4  1  0
  2  5  1  0
  3  5  2  0
  4  5  1  6
  6  7  1  0
  9 10  1  0
  9 11  1  0
  9 12  1  0
 11 13  1  0
 15 17  1  0
 17 16  1  0
 19 14  1  1
 17 19  1  0
 14 21  1  0
 18 21  2  0
 21 22  1  0
  1 23  1  0
 23 24  1  0
 27 28  2  0
 28 29  1  0
 25 30  2  0
 26 30  2  0
 31 32  2  0
 32 33  1  0
 35 36  2  0
 36 37  1  0
 37 38  2  0
  4 39  1  0
 38 39  1  0
 35 40  1  0
 39 40  2  0
 41 42  1  0
  1 43  1  0
 42 43  2  0
 43 44  1  0
  9 45  1  0
 41 45  1  0
 44 45  2  0
  6 46  1  0
 46 47  2  0
 47 48  1  0
 48 49  2  0
  8 50  1  0
 49 50  1  0
  2 51  1  0
 46 51  1  0
 50 51  2  0
 52 53  2  0
 52 54  1  0
 53 54  1  0
 30 55  1  1
 54 55  2  0
 34 56  1  0
 55 56  1  0
 52 57  1  0
 56 57  2  0
 58 24  1  1
 58 28  1  0
 59 32  1  1
 58 59  1  0
 19 60  1  0
 60 20  1  6
 59 60  1  0
 30 61  1  0
 59 61  1  0
 60 61  1  0
 61 62  1  1
 58 63  1  0
 62 63  1  0
 26 65  1  0
 64 66  2  0
 65 66  2  0
 17 67  1  0
 57 69  1  0
 68 69  1  0
M  END
