x0770-x3077
     RDKit          3D

 18 20  0  0  0  0  0  0  0  0999 V2000
    6.8540   -3.2340   19.2640 C   0  0  0  0  0  0  0  0  0  0  0  0
    5.3710   -4.9580   19.9770 O   0  0  0  0  0  0  0  0  0  0  0  0
   13.3660   -1.7970   21.1140 Cl  0  0  0  0  0  0  0  0  0  0  0  0
    6.1310   -4.0640   20.2970 C   0  0  0  0  0  0  0  0  0  0  0  0
    9.3940   -2.1580   24.2070 C   0  0  0  0  0  0  0  0  0  0  0  0
    6.3500   -3.8260   21.6420 N   0  0  0  0  0  0  0  0  0  0  0  0
    7.1270   -4.6730   22.5580 C   0  0  0  0  0  0  0  0  0  0  0  0
    7.5920   -3.7370   23.6970 C   0  0  2  0  0  0  0  0  0  0  0  0
    6.4520   -2.7600   23.7470 C   0  0  0  0  0  0  0  0  0  0  0  0
    6.5590   -2.4990   22.2770 C   0  0  1  0  0  0  0  0  0  0  0  0
    8.5620   -2.7590   23.1860 N   0  0  0  0  0  0  0  0  0  0  0  0
    8.0080   -1.9320   22.2270 C   0  0  0  0  0  0  0  0  0  0  0  0
   10.7990   -0.0600   24.3190 C   0  0  0  0  0  0  0  0  0  0  0  0
   11.9870    0.7560   23.8300 C   0  0  0  0  0  0  0  0  0  0  0  0
   12.7820    0.2040   22.8410 C   0  0  0  0  0  0  0  0  0  0  0  0
   12.4540   -1.0690   22.3310 C   0  0  0  0  0  0  0  0  0  0  0  0
   11.3630   -1.7950   22.7900 C   0  0  0  0  0  0  0  0  0  0  0  0
   10.5330   -1.3120   23.7760 C   0  0  0  0  0  0  0  0  0  0  0  0
  1  4  1  0
  2  4  2  0
  4  6  1  0
  6  7  1  0
  8  7  1  6
  8  9  1  0
  6 10  1  0
  9 10  1  0
  5 11  1  0
  8 11  1  0
 10 12  1  1
 11 12  1  0
 13 14  2  0
 14 15  1  0
  3 16  1  0
 15 16  2  0
 16 17  1  0
  5 18  1  0
 13 18  1  0
 17 18  2  0
M  END
