x0771-x1311
     RDKit          3D

 24 26  0  0  0  0  0  0  0  0999 V2000
    0.7260   -1.2720   26.1560 C   0  0  0  0  0  0  0  0  0  0  0  0
    4.2310   -7.1200   25.8930 O   0  0  0  0  0  0  0  0  0  0  0  0
    5.8470   -5.4130   26.7520 O   0  0  0  0  0  0  0  0  0  0  0  0
    5.5330   -4.0760   19.7340 O   0  0  0  0  0  0  0  0  0  0  0  0
    1.9250   -6.1840   24.9730 C   0  0  0  0  0  0  0  0  0  0  0  0
    6.3830   -4.1540   20.6380 C   0  0  0  0  0  0  0  0  0  0  0  0
    7.8020   -3.5950   20.4240 C   0  0  0  0  0  0  0  0  0  0  0  0
    4.8330   -5.8130   25.7990 S   0  0  0  0  0  0  0  0  0  0  0  0
    1.7390   -2.4520   26.0300 C   0  0  0  0  0  0  0  0  0  0  0  0
    1.3400   -3.6890   25.5670 C   0  0  0  0  0  0  0  0  0  0  0  0
    2.2520   -4.7510   25.4700 C   0  0  0  0  0  0  0  0  0  0  0  0
    3.5920   -4.5340   25.8550 C   0  0  0  0  0  0  0  0  0  0  0  0
    4.0250   -3.2860   26.3180 C   0  0  0  0  0  0  0  0  0  0  0  0
    3.0730   -2.2980   26.3850 C   0  0  0  0  0  0  0  0  0  0  0  0
    6.0660   -4.7410   21.8720 N   0  0  0  0  0  0  0  0  0  0  0  0
    5.6540   -6.1720   21.9620 C   0  0  0  0  0  0  0  0  0  0  0  0
    4.7980   -6.2280   23.0600 C   0  0  0  0  0  0  0  0  0  0  0  0
    5.5120   -5.6750   24.2440 N   0  0  0  0  0  0  0  0  0  0  0  0
    6.8120   -5.0350   24.1450 C   0  0  0  0  0  0  0  0  0  0  0  0
    7.1140   -4.5050   22.8860 C   0  0  0  0  0  0  0  0  0  0  0  0
    8.3160   -3.8540   22.7320 C   0  0  0  0  0  0  0  0  0  0  0  0
    9.2120   -3.7440   23.7760 C   0  0  0  0  0  0  0  0  0  0  0  0
    8.8930   -4.3400   25.1110 C   0  0  0  0  0  0  0  0  0  0  0  0
    7.6990   -4.9640   25.2690 C   0  0  0  0  0  0  0  0  0  0  0  0
  4  6  2  0
  6  7  1  0
  2  8  2  0
  3  8  2  0
  1  9  1  0
  9 10  2  0
  5 11  1  0
 10 11  1  0
  8 12  1  0
 11 12  2  0
 12 13  1  0
  9 14  1  0
 13 14  2  0
  6 15  1  0
 15 16  1  0
 16 17  1  0
  8 18  1  0
 17 18  1  0
 18 19  1  0
 15 20  1  0
 19 20  2  0
 20 21  1  0
 21 22  2  0
 22 23  1  0
 19 24  1  0
 23 24  2  0
M  END
