x0771-x1334-x2694
     RDKit          3D

 63 70  0  0  0  0  0  0  0  0999 V2000
    7.8730    2.1890   22.3830 N   0  0  0  0  0  0  0  0  0  0  0  0
    9.7470    0.8590   21.9840 O   0  0  0  0  0  0  0  0  0  0  0  0
   10.9680    6.7900   24.0010 O   0  0  0  0  0  0  0  0  0  0  0  0
    7.7580   -0.0690   21.1760 C   0  0  2  0  0  0  0  0  0  0  0  0
    8.5520    0.9970   21.8840 C   0  0  0  0  0  0  0  0  0  0  0  0
   10.4840    2.1860   23.8550 C   0  0  0  0  0  0  0  0  0  0  0  0
   11.8930    6.4750   25.0570 C   0  0  0  0  0  0  0  0  0  0  0  0
   12.3450   -1.0490   23.1360 C   0  0  0  0  0  0  0  0  0  0  0  0
   12.6520    0.2850   23.2920 C   0  0  0  0  0  0  0  0  0  0  0  0
   12.9820   -1.5880   21.8530 C   0  0  0  0  0  0  0  0  0  0  0  0
   12.9140   -1.7550   24.2580 C   0  0  0  0  0  0  0  0  0  0  0  0
    0.4160   -1.4990   26.3350 C   0  0  0  0  0  0  0  0  0  0  0  0
    4.2960   -6.8100   25.3570 O   0  0  0  0  0  0  0  0  0  0  0  0
    5.9900   -5.1660   26.5230 O   0  0  0  0  0  0  0  0  0  0  0  0
    5.7420   -4.8450   20.0020 O   0  0  0  0  0  0  0  0  0  0  0  0
    2.0840   -5.9720   24.9330 C   0  0  0  0  0  0  0  0  0  0  0  0
    6.8140   -4.5360   20.5210 C   0  0  0  0  0  0  0  0  0  0  0  0
    7.7830   -3.5340   19.8330 C   0  0  0  0  0  0  0  0  0  0  0  0
    4.9940   -5.3730   25.4890 S   0  0  0  0  0  0  0  0  0  0  0  0
    6.2900   -1.5450   22.9570 C   0  0  0  0  0  0  0  0  0  0  0  0
    6.5790   -1.9260   18.8230 C   0  0  0  0  0  0  0  0  0  0  0  0
    5.1680   -3.7040   19.5470 O   0  0  0  0  0  0  0  0  0  0  0  0
    7.3280   -5.8340   28.4740 Cl  0  0  0  0  0  0  0  0  0  0  0  0
    6.0380   -2.6810   19.8580 C   0  0  0  0  0  0  0  0  0  0  0  0
    9.8300   -3.0170   24.3810 C   0  0  0  0  0  0  0  0  0  0  0  0
    6.2530    0.6760   17.7350 N   0  0  0  0  0  0  0  0  0  0  0  0
    5.1320    1.3920   17.9310 C   0  0  0  0  0  0  0  0  0  0  0  0
    4.6660    1.7380   19.1880 C   0  0  0  0  0  0  0  0  0  0  0  0
    5.4710    1.2940   20.4010 C   0  0  0  0  0  0  0  0  0  0  0  0
    6.7200    0.5120   20.2220 C   0  0  0  0  0  0  0  0  0  0  0  0
    6.9880    0.2670   18.7710 C   0  0  0  0  0  0  0  0  0  0  0  0
    8.9440   -2.0230   23.9800 N   0  0  0  0  0  0  0  0  0  0  0  0
    9.9640   -0.9610   24.1080 O   0  0  0  0  0  0  0  0  0  0  0  0
   10.8650   -1.3090   23.1220 C   0  0  0  0  0  0  0  0  0  0  0  0
   10.0940   -2.0300   22.0670 C   0  0  0  0  0  0  0  0  0  0  0  0
    8.6700   -2.2240   22.5410 C   0  0  2  0  0  0  0  0  0  0  0  0
    9.7840    3.2810   23.4280 C   0  0  0  0  0  0  0  0  0  0  0  0
   10.5980    4.3490   23.8500 C   0  0  0  0  0  0  0  0  0  0  0  0
   10.1440    5.7870   23.5650 C   0  0  0  0  0  0  0  0  0  0  0  0
    8.9420    5.9180   22.8890 C   0  0  0  0  0  0  0  0  0  0  0  0
    8.1290    4.6820   22.4660 C   0  0  0  0  0  0  0  0  0  0  0  0
    8.5620    3.3760   22.7420 C   0  0  0  0  0  0  0  0  0  0  0  0
    1.5730   -2.4300   26.1240 C   0  0  0  0  0  0  0  0  0  0  0  0
    1.3630   -3.7010   25.6510 C   0  0  0  0  0  0  0  0  0  0  0  0
    2.4070   -4.5880   25.4560 C   0  0  0  0  0  0  0  0  0  0  0  0
    3.7080   -4.1900   25.7450 C   0  0  0  0  0  0  0  0  0  0  0  0
    3.9280   -2.8890   26.2220 C   0  0  0  0  0  0  0  0  0  0  0  0
    2.8650   -2.0070   26.4120 C   0  0  0  0  0  0  0  0  0  0  0  0
    7.1090   -5.1030   21.7240 N   0  0  0  0  0  0  0  0  0  0  0  0
    6.2560   -6.2510   21.9600 C   0  0  0  0  0  0  0  0  0  0  0  0
    5.1930   -5.9550   22.9800 C   0  0  0  0  0  0  0  0  0  0  0  0
    5.6630   -4.9530   23.9730 N   0  0  0  0  0  0  0  0  0  0  0  0
    7.1320   -4.8550   24.1770 C   0  0  0  0  0  0  0  0  0  0  0  0
    6.4320   -2.3450   21.1850 N   0  0  0  0  0  0  0  0  0  0  0  0
    7.4080   -1.4400   21.8550 C   0  0  2  0  0  0  0  0  0  0  0  0
    8.4330   -3.6230   22.5040 N   0  0  0  0  0  0  0  0  0  0  0  0
    7.1260   -4.1550   22.8150 C   0  0  1  0  0  0  0  0  0  0  0  0
    6.0680   -3.0190   22.4790 C   0  0  1  0  0  0  0  0  0  0  0  0
    9.8420   -5.4530   25.4810 C   0  0  0  0  0  0  0  0  0  0  0  0
    9.3690   -4.0490   25.3460 C   0  0  0  0  0  0  0  0  0  0  0  0
    8.1670   -3.8020   26.5410 S   0  0  0  0  0  0  0  0  0  0  0  0
    8.3120   -5.3770   27.1530 C   0  0  0  0  0  0  0  0  0  0  0  0
    9.2270   -6.1650   26.5140 C   0  0  0  0  0  0  0  0  0  0  0  0
  1  5  1  0
  2  5  2  0
  4  5  1  1
  3  7  1  0
  8  9  1  0
  8 10  1  0
  8 11  1  0
 15 17  2  0
 17 18  1  0
 13 19  2  0
 14 19  2  0
 21 24  1  0
 22 24  2  0
 26 27  2  0
 27 28  1  0
 28 29  2  0
  4 30  1  0
 29 30  1  0
 26 31  1  0
 30 31  2  0
 25 32  1  0
 32 33  1  0
  8 34  1  0
 33 34  1  0
 34 35  2  0
 32 36  1  0
 36 35  1  6
  6 37  1  0
 37 38  2  0
  3 39  1  0
 38 39  1  0
 39 40  2  0
 40 41  1  0
  1 42  1  0
 37 42  1  0
 41 42  2  0
 12 43  1  0
 43 44  2  0
 16 45  1  0
 44 45  1  0
 19 46  1  0
 45 46  2  0
 46 47  1  0
 43 48  1  0
 47 48  2  0
 17 49  1  0
 49 50  1  0
 50 51  1  0
 19 52  1  0
 51 52  1  0
 52 53  1  0
 24 54  1  0
  4 55  1  0
 55 20  1  1
 36 55  1  0
 55 54  1  0
 36 56  1  0
 57 49  1  0
 57 53  1  1
 56 57  1  0
 58 20  1  1
 54 58  1  0
 57 58  1  0
 25 60  1  0
 59 60  2  0
 60 61  1  0
 23 62  1  0
 61 62  1  0
 59 63  1  0
 62 63  2  0
M  END
