x0771-x1493-x3113
     RDKit          3D

 53 56  0  0  0  0  0  0  0  0999 V2000
    7.3540   -1.1490   21.9790 N   0  0  0  0  0  0  0  0  0  0  0  0
    8.2940    1.6610   23.2690 N   0  0  0  0  0  0  0  0  0  0  0  0
    8.8880    1.7740   20.9340 O   0  0  0  0  0  0  0  0  0  0  0  0
   11.7160    4.0250   23.4530 O   0  0  0  0  0  0  0  0  0  0  0  0
    7.0230    0.1850   21.7970 C   0  0  1  0  0  0  0  0  0  0  0  0
    8.1110    1.2310   21.9900 C   0  0  0  0  0  0  0  0  0  0  0  0
    9.4130    2.5470   23.5360 C   0  0  0  0  0  0  0  0  0  0  0  0
   10.7320    2.0530   23.5900 C   0  0  0  0  0  0  0  0  0  0  0  0
   11.6800    2.8920   23.0180 C   0  0  0  0  0  0  0  0  0  0  0  0
   12.8530    4.7320   22.9590 C   0  0  0  0  0  0  0  0  0  0  0  0
   12.5640   -1.9370   24.1340 C   0  0  0  0  0  0  0  0  0  0  0  0
   13.4840   -2.0990   23.1330 C   0  0  0  0  0  0  0  0  0  0  0  0
   12.8550   -3.0630   25.1290 C   0  0  0  0  0  0  0  0  0  0  0  0
   12.8020   -0.6160   24.8370 C   0  0  0  0  0  0  0  0  0  0  0  0
    0.4840   -1.4090   26.1250 C   0  0  0  0  0  0  0  0  0  0  0  0
    4.5320   -6.6590   26.0900 O   0  0  0  0  0  0  0  0  0  0  0  0
    5.8240   -4.7140   27.0480 O   0  0  0  0  0  0  0  0  0  0  0  0
    4.9430   -4.2710   19.6970 O   0  0  0  0  0  0  0  0  0  0  0  0
    1.9570   -5.9810   24.9870 C   0  0  0  0  0  0  0  0  0  0  0  0
    5.9330   -3.8980   20.2600 C   0  0  0  0  0  0  0  0  0  0  0  0
    6.9800   -3.1250   19.4210 C   0  0  0  0  0  0  0  0  0  0  0  0
    5.0240   -5.2930   26.0060 S   0  0  0  0  0  0  0  0  0  0  0  0
    6.3600   -2.0640   22.3750 C   0  0  0  0  0  0  0  0  0  0  0  0
    7.3600   -5.6790   24.6790 C   0  0  0  0  0  0  0  0  0  0  0  0
    6.9980   -5.8080   27.0430 O   0  0  0  0  0  0  0  0  0  0  0  0
    7.7660   -5.9210   26.1190 C   0  0  0  0  0  0  0  0  0  0  0  0
    5.9530   -6.0930   20.3960 O   0  0  0  0  0  0  0  0  0  0  0  0
    6.5340   -5.6260   21.3580 C   0  0  0  0  0  0  0  0  0  0  0  0
    7.5000   -6.1890   22.0660 C   0  0  0  0  0  0  0  0  0  0  0  0
    6.3840    0.2440   17.9440 N   0  0  0  0  0  0  0  0  0  0  0  0
    5.3170    1.0300   17.8940 C   0  0  0  0  0  0  0  0  0  0  0  0
    4.7630    1.5450   19.0160 C   0  0  0  0  0  0  0  0  0  0  0  0
    5.2680    1.2980   20.2590 C   0  0  0  0  0  0  0  0  0  0  0  0
    6.3800    0.4980   20.4220 C   0  0  0  0  0  0  0  0  0  0  0  0
    6.9800   -0.0680   19.2550 C   0  0  0  0  0  0  0  0  0  0  0  0
    9.6370   -1.9340   21.8330 C   0  0  0  0  0  0  0  0  0  0  0  0
   10.9440   -2.1650   22.2830 C   0  0  0  0  0  0  0  0  0  0  0  0
   11.1690   -1.7860   23.5700 C   0  0  0  0  0  0  0  0  0  0  0  0
   10.1860   -1.2390   24.3800 C   0  0  0  0  0  0  0  0  0  0  0  0
    8.7940   -1.0200   23.8400 C   0  0  0  0  0  0  0  0  0  0  0  0
    8.6080   -1.3810   22.5530 C   0  0  0  0  0  0  0  0  0  0  0  0
    1.5940   -2.4150   26.0590 C   0  0  0  0  0  0  0  0  0  0  0  0
    1.3700   -3.6800   25.5880 C   0  0  0  0  0  0  0  0  0  0  0  0
    2.3600   -4.6390   25.5230 C   0  0  0  0  0  0  0  0  0  0  0  0
    3.6830   -4.2890   25.9720 C   0  0  0  0  0  0  0  0  0  0  0  0
    3.9200   -3.0190   26.4360 C   0  0  0  0  0  0  0  0  0  0  0  0
    2.8610   -2.0950   26.4720 C   0  0  0  0  0  0  0  0  0  0  0  0
    6.0040   -4.3340   21.7580 C   0  0  0  0  0  0  0  0  0  0  0  0
    4.8630   -4.8660   22.2700 C   0  0  0  0  0  0  0  0  0  0  0  0
    5.1230   -5.8950   23.3810 C   0  0  0  0  0  0  0  0  0  0  0  0
    5.9570   -5.1450   24.4290 C   0  0  1  0  0  0  0  0  0  0  0  0
    6.3310   -3.6770   24.1390 C   0  0  0  0  0  0  0  0  0  0  0  0
    6.7470   -3.5450   22.6240 C   0  0  2  0  0  0  0  0  0  0  0  0
  1  5  1  0
  2  6  1  0
  3  6  2  0
  5  6  1  6
  2  7  1  0
  7  8  1  0
  4  9  1  0
  8  9  1  0
  4 10  1  0
 11 12  1  0
 11 13  1  0
 11 14  1  0
 18 20  2  0
 20 21  1  0
 16 22  2  0
 17 22  2  0
  1 23  1  0
 24 26  1  0
 25 26  2  0
 27 28  2  0
 28 29  1  0
 30 31  2  0
 31 32  1  0
 32 33  2  0
  5 34  1  0
 33 34  1  0
 30 35  1  0
 34 35  2  0
 36 37  2  0
 11 38  1  0
 37 38  1  0
 38 39  2  0
 39 40  1  0
  1 41  1  0
 36 41  1  0
 40 41  2  0
 15 42  1  0
 42 43  2  0
 19 44  1  0
 43 44  1  0
 22 45  1  0
 44 45  2  0
 45 46  1  0
 42 47  1  0
 46 47  2  0
 48 20  1  0
 28 48  1  0
 48 49  1  0
 49 50  1  0
 22 51  1  0
 51 24  1  1
 50 51  1  0
 51 52  1  0
 53 23  1  6
 48 53  1  0
 52 53  1  0
M  END
