x0770-x2052
     RDKit          3D

 29 31  0  0  0  0  0  0  0  0999 V2000
    5.6990   -1.5320   25.3360 C   0  0  0  0  0  0  0  0  0  0  0  0
    4.4890   -1.3150   25.3610 O   0  0  0  0  0  0  0  0  0  0  0  0
    6.5590   -1.1280   26.3480 N   0  0  0  0  0  0  0  0  0  0  0  0
    5.3840   -4.3900   19.8690 O   0  0  0  0  0  0  0  0  0  0  0  0
    5.2910    2.2530   30.6190 O   0  0  0  0  0  0  0  0  0  0  0  0
    6.3350   -3.6820   20.2060 C   0  0  0  0  0  0  0  0  0  0  0  0
    7.2730   -3.1070   19.1370 C   0  0  0  0  0  0  0  0  0  0  0  0
    6.1270    3.4000   30.7490 C   0  0  0  0  0  0  0  0  0  0  0  0
    6.5890   -3.4440   21.5630 N   0  0  0  0  0  0  0  0  0  0  0  0
    7.3450   -2.3110   21.9380 C   0  0  1  0  0  0  0  0  0  0  0  0
    6.5530   -1.4770   22.9000 C   0  0  0  0  0  0  0  0  0  0  0  0
    6.2930   -2.2550   24.1910 C   0  0  2  0  0  0  0  0  0  0  0  0
    5.7250   -3.6680   23.9040 C   0  0  0  0  0  0  0  0  0  0  0  0
    6.2990   -4.3690   22.6690 C   0  0  0  0  0  0  0  0  0  0  0  0
    6.2820    2.0370   28.4490 N   0  0  0  0  0  0  0  0  0  0  0  0
    6.6050    1.1070   27.3210 C   0  0  0  0  0  0  0  0  0  0  0  0
    6.2610   -0.2380   27.3820 C   0  0  0  0  0  0  0  0  0  0  0  0
    5.5960   -0.7270   28.5140 C   0  0  0  0  0  0  0  0  0  0  0  0
    5.2810    0.1240   29.5810 C   0  0  0  0  0  0  0  0  0  0  0  0
    5.6260    1.4760   29.5330 C   0  0  0  0  0  0  0  0  0  0  0  0
   13.3860   -1.7800   21.1530 Cl  0  0  0  0  0  0  0  0  0  0  0  0
    9.1620   -2.2090   23.7960 C   0  0  0  0  0  0  0  0  0  0  0  0
   10.5870   -0.1270   24.3090 C   0  0  0  0  0  0  0  0  0  0  0  0
   11.8190    0.7020   24.0270 C   0  0  0  0  0  0  0  0  0  0  0  0
   12.7600    0.1270   22.9690 C   0  0  0  0  0  0  0  0  0  0  0  0
   12.4390   -1.0690   22.3460 C   0  0  0  0  0  0  0  0  0  0  0  0
   11.2880   -1.7370   22.6780 C   0  0  0  0  0  0  0  0  0  0  0  0
   10.3640   -1.3280   23.6110 C   0  0  0  0  0  0  0  0  0  0  0  0
    8.6630   -2.7490   22.4530 C   0  0  0  0  0  0  0  0  0  0  0  0
  1  2  2  0
  1  3  1  0
  4  6  2  0
  6  7  1  0
  5  8  1  0
  6  9  1  0
  9 10  1  0
 10 11  1  0
 12  1  1  1
 11 12  1  0
 12 13  1  0
  9 14  1  0
 13 14  1  0
 15 16  2  0
  3 17  1  0
 16 17  1  0
 17 18  2  0
 18 19  1  0
  5 20  1  0
 15 20  1  0
 19 20  2  0
 23 24  2  0
 24 25  1  0
 21 26  1  0
 25 26  2  0
 26 27  1  0
 22 28  1  0
 23 28  1  0
 27 28  2  0
 10 29  1  1
 22 29  1  0
M  END
