x0771-x3117-x3124
     RDKit          3D

 48 52  0  0  0  0  0  0  0  0999 V2000
    7.3260   -1.3180   21.9920 N   0  0  0  0  0  0  0  0  0  0  0  0
    7.8750    1.8840   23.1860 N   0  0  0  0  0  0  0  0  0  0  0  0
    8.8450    1.4140   21.1140 O   0  0  0  0  0  0  0  0  0  0  0  0
    6.8760    0.0980   21.7670 C   0  0  1  0  0  0  0  0  0  0  0  0
    7.9920    1.1960   21.9770 C   0  0  0  0  0  0  0  0  0  0  0  0
   12.4500   -1.7630   24.2740 C   0  0  0  0  0  0  0  0  0  0  0  0
   12.6300   -0.5680   25.1330 C   0  0  0  0  0  0  0  0  0  0  0  0
   13.3990   -1.6680   23.0640 C   0  0  0  0  0  0  0  0  0  0  0  0
   12.8560   -2.9930   25.0500 C   0  0  0  0  0  0  0  0  0  0  0  0
    0.5970   -1.3450   26.2900 C   0  0  0  0  0  0  0  0  0  0  0  0
    4.4410   -6.8770   25.6410 O   0  0  0  0  0  0  0  0  0  0  0  0
    5.9370   -5.1740   26.7150 O   0  0  0  0  0  0  0  0  0  0  0  0
    5.2260   -4.6310   19.8990 O   0  0  0  0  0  0  0  0  0  0  0  0
    1.9710   -6.0900   24.9460 C   0  0  0  0  0  0  0  0  0  0  0  0
    6.2850   -4.2300   20.3340 C   0  0  0  0  0  0  0  0  0  0  0  0
    7.1340   -3.2940   19.5030 C   0  0  0  0  0  0  0  0  0  0  0  0
    4.9860   -5.5390   25.7000 S   0  0  0  0  0  0  0  0  0  0  0  0
    6.3700   -2.2680   22.5050 C   0  0  0  0  0  0  0  0  0  0  0  0
    6.3090    0.1580   17.9840 N   0  0  0  0  0  0  0  0  0  0  0  0
    5.1780    0.8940   17.9370 C   0  0  0  0  0  0  0  0  0  0  0  0
    4.5330    1.3900   19.0450 C   0  0  0  0  0  0  0  0  0  0  0  0
    5.0970    1.1130   20.2770 C   0  0  0  0  0  0  0  0  0  0  0  0
    6.2670    0.3650   20.4050 C   0  0  0  0  0  0  0  0  0  0  0  0
    6.8110   -0.0810   19.2120 C   0  0  0  0  0  0  0  0  0  0  0  0
    9.8550    5.0780   24.0970 O   0  0  0  0  0  0  0  0  0  0  0  0
   10.5720    4.2060   23.6090 C   0  0  0  0  0  0  0  0  0  0  0  0
    9.9490    2.8490   23.5840 C   0  0  0  0  0  0  0  0  0  0  0  0
    8.6210    3.0550   23.5430 C   0  0  0  0  0  0  0  0  0  0  0  0
    8.3110    4.1480   22.7210 C   0  0  0  0  0  0  0  0  0  0  0  0
    8.7980    5.3900   23.2050 C   0  0  0  0  0  0  0  0  0  0  0  0
    9.5920   -1.9140   21.8870 C   0  0  0  0  0  0  0  0  0  0  0  0
   10.8290   -2.0360   22.4120 C   0  0  0  0  0  0  0  0  0  0  0  0
   11.0810   -1.6560   23.7190 C   0  0  0  0  0  0  0  0  0  0  0  0
   10.1290   -1.1260   24.6350 C   0  0  0  0  0  0  0  0  0  0  0  0
    8.6950   -0.9640   24.0850 C   0  0  0  0  0  0  0  0  0  0  0  0
    8.5490   -1.4100   22.6200 C   0  0  0  0  0  0  0  0  0  0  0  0
    1.6600   -2.3830   26.1280 C   0  0  0  0  0  0  0  0  0  0  0  0
    1.3230   -3.7960   25.5920 C   0  0  0  0  0  0  0  0  0  0  0  0
    2.3580   -4.7340   25.4700 C   0  0  0  0  0  0  0  0  0  0  0  0
    3.6620   -4.3810   25.8310 C   0  0  0  0  0  0  0  0  0  0  0  0
    3.9340   -3.0980   26.3040 C   0  0  0  0  0  0  0  0  0  0  0  0
    2.9730   -2.1120   26.4550 C   0  0  0  0  0  0  0  0  0  0  0  0
    6.7170   -4.6190   21.5630 N   0  0  0  0  0  0  0  0  0  0  0  0
    6.2450   -5.9580   21.9530 C   0  0  0  0  0  0  0  0  0  0  0  0
    5.1260   -5.8620   22.9780 C   0  0  0  0  0  0  0  0  0  0  0  0
    5.6130   -5.1430   24.1570 N   0  0  0  0  0  0  0  0  0  0  0  0
    6.8650   -4.3670   24.0410 C   0  0  0  0  0  0  0  0  0  0  0  0
    7.0080   -3.6910   22.6670 C   0  0  2  0  0  0  0  0  0  0  0  0
  1  4  1  0
  2  5  1  0
  3  5  2  0
  4  5  1  6
  6  7  1  0
  6  8  1  0
  6  9  1  0
 13 15  2  0
 15 16  1  0
 11 17  2  0
 12 17  2  0
  1 18  1  0
 19 20  2  0
 20 21  1  0
 21 22  2  0
  4 23  1  0
 22 23  1  0
 19 24  1  0
 23 24  2  0
 25 26  1  0
 26 27  1  0
  2 28  1  0
 27 28  1  0
 28 29  1  0
 25 30  1  0
 29 30  1  0
 31 32  2  0
  6 33  1  0
 32 33  1  0
 33 34  2  0
 34 35  1  0
  1 36  1  0
 31 36  1  0
 35 36  2  0
 10 37  1  0
 37 38  2  0
 14 39  1  0
 38 39  1  0
 17 40  1  0
 39 40  2  0
 40 41  1  0
 37 42  1  0
 41 42  2  0
 15 43  1  0
 43 44  1  0
 44 45  1  0
 17 46  1  0
 45 46  1  0
 46 47  1  0
 48 18  1  1
 43 48  1  0
 47 48  1  0
M  END
