x0770-x0831
     RDKit          3D

 17 18  0  0  0  0  0  0  0  0999 V2000
    7.1740   -2.9920   18.8170 C   0  0  0  0  0  0  0  0  0  0  0  0
    5.3590   -4.2070   19.7690 O   0  0  0  0  0  0  0  0  0  0  0  0
   13.3530   -1.7980   21.1450 Cl  0  0  0  0  0  0  0  0  0  0  0  0
    6.2090   -3.3220   19.9240 C   0  0  0  0  0  0  0  0  0  0  0  0
    9.3240   -2.3560   24.3760 C   0  0  0  0  0  0  0  0  0  0  0  0
    6.3410   -2.6060   21.1200 N   0  0  0  0  0  0  0  0  0  0  0  0
    7.3240   -1.5270   21.2540 C   0  0  0  0  0  0  0  0  0  0  0  0
    8.6070   -1.8120   22.0580 C   0  0  0  0  0  0  0  0  0  0  0  0
    8.3180   -2.5050   23.3310 N   0  0  0  0  0  0  0  0  0  0  0  0
    7.4360   -3.5710   23.3570 C   0  0  0  0  0  0  0  0  0  0  0  0
    6.2460   -3.3610   22.4040 C   0  0  0  0  0  0  0  0  0  0  0  0
   10.7400   -0.3330   24.4880 C   0  0  0  0  0  0  0  0  0  0  0  0
   11.8790    0.5870   24.0820 C   0  0  0  0  0  0  0  0  0  0  0  0
   12.7570    0.0790   22.9650 C   0  0  0  0  0  0  0  0  0  0  0  0
   12.4440   -1.1580   22.4130 C   0  0  0  0  0  0  0  0  0  0  0  0
   11.3700   -1.9370   22.8500 C   0  0  0  0  0  0  0  0  0  0  0  0
   10.5060   -1.5550   23.8780 C   0  0  0  0  0  0  0  0  0  0  0  0
  1  4  1  0
  2  4  2  0
  4  6  1  0
  6  7  1  0
  7  8  1  0
  5  9  1  0
  8  9  1  0
  9 10  1  0
  6 11  1  0
 10 11  1  0
 12 13  2  0
 13 14  1  0
  3 15  1  0
 14 15  2  0
 15 16  1  0
  5 17  1  0
 12 17  1  0
 16 17  2  0
M  END
