x0771-x2581
     RDKit          3D

 44 48  0  0  0  0  0  0  0  0999 V2000
    0.6890   -1.4050   26.2460 C   0  0  0  0  0  0  0  0  0  0  0  0
    4.6270   -6.8540   25.7730 O   0  0  0  0  0  0  0  0  0  0  0  0
    5.9540   -5.0120   26.7550 O   0  0  0  0  0  0  0  0  0  0  0  0
    5.1330   -4.2070   19.7260 O   0  0  0  0  0  0  0  0  0  0  0  0
    2.0270   -6.0400   24.8820 C   0  0  0  0  0  0  0  0  0  0  0  0
    6.2110   -4.0080   20.2620 C   0  0  0  0  0  0  0  0  0  0  0  0
    7.2590   -3.2080   19.4820 C   0  0  0  0  0  0  0  0  0  0  0  0
    5.1190   -5.4970   25.6920 S   0  0  0  0  0  0  0  0  0  0  0  0
    9.8530   -2.6430   22.9610 C   0  0  0  0  0  0  0  0  0  0  0  0
   10.1690   -1.5480   23.4490 O   0  0  0  0  0  0  0  0  0  0  0  0
   10.5030    3.2130   22.1670 N   0  0  0  0  0  0  0  0  0  0  0  0
   11.0930    3.6070   24.2530 O   0  0  0  0  0  0  0  0  0  0  0  0
   11.1750    3.9960   23.1040 C   0  0  0  0  0  0  0  0  0  0  0  0
   11.8530    5.1800   22.8150 C   0  0  0  0  0  0  0  0  0  0  0  0
    8.1440   -4.3880   23.6690 C   0  0  0  0  0  0  0  0  0  0  0  0
    9.1450   -3.4810   24.0480 C   0  0  0  0  0  0  0  0  0  0  0  0
    1.7430   -2.4200   26.0750 C   0  0  0  0  0  0  0  0  0  0  0  0
    1.3860   -3.7990   25.5290 C   0  0  0  0  0  0  0  0  0  0  0  0
    2.4220   -4.7580   25.3950 C   0  0  0  0  0  0  0  0  0  0  0  0
    3.7230   -4.3880   25.7740 C   0  0  0  0  0  0  0  0  0  0  0  0
    4.0250   -3.1240   26.2590 C   0  0  0  0  0  0  0  0  0  0  0  0
    3.0520   -2.1500   26.4080 C   0  0  0  0  0  0  0  0  0  0  0  0
    6.4230   -4.5270   21.5240 N   0  0  0  0  0  0  0  0  0  0  0  0
    6.1740   -5.9450   21.8350 C   0  0  0  0  0  0  0  0  0  0  0  0
    5.2840   -6.0660   23.0720 C   0  0  0  0  0  0  0  0  0  0  0  0
    5.9200   -5.3420   24.2040 N   0  0  0  0  0  0  0  0  0  0  0  0
    6.7240   -4.1230   23.7880 C   0  0  2  0  0  0  0  0  0  0  0  0
    6.2240   -3.6430   22.6170 C   0  0  0  0  0  0  0  0  0  0  0  0
    8.9170    1.8050   21.3350 N   0  0  0  0  0  0  0  0  0  0  0  0
    9.9730    1.9250   22.1640 C   0  0  0  0  0  0  0  0  0  0  0  0
   10.4470    0.8240   22.8990 C   0  0  0  0  0  0  0  0  0  0  0  0
    9.8020   -0.4200   22.7780 C   0  0  0  0  0  0  0  0  0  0  0  0
    8.7190   -0.5360   21.9250 C   0  0  0  0  0  0  0  0  0  0  0  0
    8.3330    0.5910   21.2460 C   0  0  0  0  0  0  0  0  0  0  0  0
    9.8850    6.7360   22.8810 C   0  0  0  0  0  0  0  0  0  0  0  0
    9.1600    7.8060   23.4020 C   0  0  0  0  0  0  0  0  0  0  0  0
    9.6560    8.5350   24.4760 C   0  0  0  0  0  0  0  0  0  0  0  0
   10.8900    8.1810   25.0320 C   0  0  0  0  0  0  0  0  0  0  0  0
   11.6050    7.1070   24.5070 C   0  0  0  0  0  0  0  0  0  0  0  0
   11.1260    6.3590   23.4200 C   0  0  0  0  0  0  0  0  0  0  0  0
    8.9420    9.6210   24.9970 C   0  0  0  0  0  0  0  0  0  0  0  0
    9.4520   10.3520   26.0640 C   0  0  0  0  0  0  0  0  0  0  0  0
   10.6740   10.0030   26.6230 C   0  0  0  0  0  0  0  0  0  0  0  0
   11.3920    8.9210   26.1120 C   0  0  0  0  0  0  0  0  0  0  0  0
  4  6  2  0
  6  7  1  0
  2  8  2  0
  3  8  2  0
  9 10  1  0
 11 13  1  0
 12 13  2  0
 13 14  1  0
  9 16  1  0
 15 16  1  0
  1 17  1  0
 17 18  2  0
  5 19  1  0
 18 19  1  0
  8 20  1  0
 19 20  2  0
 20 21  1  0
 17 22  1  0
 21 22  2  0
  6 23  1  0
 23 24  1  0
 24 25  1  0
  8 26  1  0
 25 26  1  0
 27 15  1  6
 26 27  1  0
 23 28  1  0
 27 28  1  0
 11 30  1  0
 29 30  2  0
 30 31  1  0
 10 32  1  0
 31 32  2  0
 32 33  1  0
 29 34  1  0
 33 34  2  0
 35 36  2  0
 36 37  1  0
 37 38  2  0
 38 39  1  0
 14 40  1  0
 35 40  1  0
 39 40  2  0
 37 41  1  0
 41 42  2  0
 42 43  1  0
 38 44  1  0
 43 44  2  0
M  END
