x0771-x2776-x2703
     RDKit          3D

 54 58  0  0  0  0  0  0  0  0999 V2000
    7.1160   -1.0900   21.8560 N   0  0  0  0  0  0  0  0  0  0  0  0
    7.6650    2.2530   22.8330 N   0  0  0  0  0  0  0  0  0  0  0  0
    8.9170    1.4850   20.9610 O   0  0  0  0  0  0  0  0  0  0  0  0
   10.9110    6.7170   23.8220 O   0  0  0  0  0  0  0  0  0  0  0  0
    6.7730    0.2240   21.6090 C   0  0  1  0  0  0  0  0  0  0  0  0
   12.3110   -2.8120   24.9090 O   0  0  0  0  0  0  0  0  0  0  0  0
    7.7900    1.3380   21.8190 C   0  0  0  0  0  0  0  0  0  0  0  0
   10.2070    1.9010   24.0190 C   0  0  0  0  0  0  0  0  0  0  0  0
   11.7540    6.5360   24.7070 C   0  0  0  0  0  0  0  0  0  0  0  0
   12.1690   -1.6510   24.5700 C   0  0  1  0  0  0  0  0  0  0  0  0
   13.0790   -1.1610   23.6370 C   0  0  0  0  0  0  0  0  0  0  0  0
   13.6090   -2.9940   25.4230 C   0  0  0  0  0  0  0  0  0  0  0  0
    9.2610    1.3310   25.0100 C   0  0  0  0  0  0  0  0  0  0  0  0
    6.6120    4.8320   22.0280 C   0  0  0  0  0  0  0  0  0  0  0  0
    0.6100   -1.3530   26.1080 C   0  0  0  0  0  0  0  0  0  0  0  0
    4.2240   -7.1800   26.0400 O   0  0  0  0  0  0  0  0  0  0  0  0
    5.9400   -5.3900   26.9200 O   0  0  0  0  0  0  0  0  0  0  0  0
    5.6600   -4.1570   19.7000 O   0  0  0  0  0  0  0  0  0  0  0  0
    1.8700   -6.0870   25.0450 C   0  0  0  0  0  0  0  0  0  0  0  0
    6.5900   -4.0150   20.4760 C   0  0  0  0  0  0  0  0  0  0  0  0
    7.9110   -3.3910   20.1150 C   0  0  0  0  0  0  0  0  0  0  0  0
    4.9420   -5.7650   25.9550 S   0  0  0  0  0  0  0  0  0  0  0  0
    5.9990   -1.9390   21.8630 C   0  0  0  0  0  0  0  0  0  0  0  0
    5.8720   -3.1010   22.6300 C   0  0  0  0  0  0  0  0  0  0  0  0
    6.3810    0.4390   17.8370 N   0  0  0  0  0  0  0  0  0  0  0  0
    5.2960    1.2380   17.7960 C   0  0  0  0  0  0  0  0  0  0  0  0
    4.6340    1.7330   18.8950 C   0  0  0  0  0  0  0  0  0  0  0  0
    5.1150    1.3970   20.1540 C   0  0  0  0  0  0  0  0  0  0  0  0
    6.2430    0.5750   20.2150 C   0  0  0  0  0  0  0  0  0  0  0  0
    6.8470    0.1110   19.0600 C   0  0  0  0  0  0  0  0  0  0  0  0
    9.7150    3.2610   23.6370 C   0  0  0  0  0  0  0  0  0  0  0  0
   10.5400    4.3690   23.8890 C   0  0  0  0  0  0  0  0  0  0  0  0
   10.0690    5.6460   23.5400 C   0  0  0  0  0  0  0  0  0  0  0  0
    8.8000    5.7760   22.9380 C   0  0  0  0  0  0  0  0  0  0  0  0
    7.9950    4.6570   22.6900 C   0  0  0  0  0  0  0  0  0  0  0  0
    8.4660    3.4040   23.0540 C   0  0  0  0  0  0  0  0  0  0  0  0
    9.5540   -1.8350   21.8370 C   0  0  0  0  0  0  0  0  0  0  0  0
   10.7340   -1.9310   22.5570 C   0  0  0  0  0  0  0  0  0  0  0  0
   10.8310   -1.5620   23.8840 C   0  0  0  0  0  0  0  0  0  0  0  0
    9.6970   -1.1030   24.5400 C   0  0  0  0  0  0  0  0  0  0  0  0
    8.4570   -0.9650   23.8940 C   0  0  0  0  0  0  0  0  0  0  0  0
    8.3180   -1.2920   22.5330 C   0  0  0  0  0  0  0  0  0  0  0  0
    1.6800   -2.3960   26.0630 C   0  0  0  0  0  0  0  0  0  0  0  0
    1.4220   -3.7000   25.6180 C   0  0  0  0  0  0  0  0  0  0  0  0
    2.3480   -4.7500   25.5510 C   0  0  0  0  0  0  0  0  0  0  0  0
    3.6720   -4.5180   25.9610 C   0  0  0  0  0  0  0  0  0  0  0  0
    4.0080   -3.2400   26.4060 C   0  0  0  0  0  0  0  0  0  0  0  0
    2.9820   -2.1190   26.4650 C   0  0  0  0  0  0  0  0  0  0  0  0
    6.2950   -4.4180   21.9240 C   0  0  0  0  0  0  0  0  0  0  0  0
    5.3890   -5.6440   21.9810 C   0  0  0  0  0  0  0  0  0  0  0  0
    4.6140   -5.6320   23.2620 C   0  0  0  0  0  0  0  0  0  0  0  0
    5.5980   -5.6760   24.3730 N   0  0  0  0  0  0  0  0  0  0  0  0
    6.9430   -5.0250   24.2540 C   0  0  0  0  0  0  0  0  0  0  0  0
    7.4230   -4.8610   22.8250 C   0  0  0  0  0  0  0  0  0  0  0  0
  1  5  1  0
  2  7  1  0
  3  7  2  0
  5  7  1  6
  4  9  1  0
  6 10  1  0
 10 11  1  6
  6 12  1  0
  8 13  1  0
 18 20  2  0
 20 21  1  0
 16 22  2  0
 17 22  2  0
  1 23  1  0
 23 24  1  0
 25 26  2  0
 26 27  1  0
 27 28  2  0
  5 29  1  0
 28 29  1  0
 25 30  1  0
 29 30  2  0
  8 31  1  0
 31 32  2  0
  4 33  1  0
 32 33  1  0
 33 34  2  0
 14 35  1  0
 34 35  1  0
  2 36  1  0
 31 36  1  0
 35 36  2  0
 37 38  2  0
 10 39  1  0
 38 39  1  0
 39 40  2  0
 40 41  1  0
  1 42  1  0
 37 42  1  0
 41 42  2  0
 15 43  1  0
 43 44  2  0
 19 45  1  0
 44 45  1  0
 22 46  1  0
 45 46  2  0
 46 47  1  0
 43 48  1  0
 47 48  2  0
 49 20  1  0
 24 49  1  0
 49 50  1  0
 50 51  1  0
 22 52  1  0
 51 52  1  0
 52 53  1  0
 49 54  1  0
 53 54  1  0
M  END
