x0771-x3303
     RDKit          3D

 46 52  0  0  0  0  0  0  0  0999 V2000
    0.5410   -1.4660   26.0030 C   0  0  0  0  0  0  0  0  0  0  0  0
    4.3670   -7.0030   26.0470 O   0  0  0  0  0  0  0  0  0  0  0  0
    6.0280   -5.3040   26.8870 O   0  0  0  0  0  0  0  0  0  0  0  0
    5.5720   -4.3660   19.7900 O   0  0  0  0  0  0  0  0  0  0  0  0
    2.0830   -6.1200   25.0720 C   0  0  0  0  0  0  0  0  0  0  0  0
    6.4690   -4.1030   20.5690 C   0  0  0  0  0  0  0  0  0  0  0  0
    7.7110   -3.3370   20.1850 C   0  0  0  0  0  0  0  0  0  0  0  0
    5.0170   -5.7180   25.9370 S   0  0  0  0  0  0  0  0  0  0  0  0
    6.1640   -1.3250   21.1480 C   0  0  0  0  0  0  0  0  0  0  0  0
    5.2290   -2.1620   21.5110 N   0  0  0  0  0  0  0  0  0  0  0  0
    6.3230    1.1130   16.8620 O   0  0  0  0  0  0  0  0  0  0  0  0
    5.3610   -3.2260   22.4790 C   0  0  0  0  0  0  0  0  0  0  0  0
    1.6700   -2.4520   25.9990 C   0  0  0  0  0  0  0  0  0  0  0  0
    1.4820   -3.7730   25.5800 C   0  0  0  0  0  0  0  0  0  0  0  0
    2.4790   -4.7510   25.5560 C   0  0  0  0  0  0  0  0  0  0  0  0
    3.7710   -4.4410   25.9690 C   0  0  0  0  0  0  0  0  0  0  0  0
    3.9970   -2.9920   26.4240 C   0  0  0  0  0  0  0  0  0  0  0  0
    2.9370   -2.0900   26.4110 C   0  0  0  0  0  0  0  0  0  0  0  0
    6.1800   -4.4380   21.9850 C   0  0  0  0  0  0  0  0  0  0  0  0
    5.4710   -5.6110   22.0100 C   0  0  0  0  0  0  0  0  0  0  0  0
    4.8260   -5.8280   23.2220 C   0  0  0  0  0  0  0  0  0  0  0  0
    5.7220   -5.6120   24.4020 N   0  0  0  0  0  0  0  0  0  0  0  0
    6.9540   -4.7730   24.2950 C   0  0  0  0  0  0  0  0  0  0  0  0
    7.4210   -4.6810   22.8430 C   0  0  0  0  0  0  0  0  0  0  0  0
    8.1980   -0.0680   21.8310 C   0  0  0  0  0  0  0  0  0  0  0  0
    9.4890   -0.3870   22.2130 C   0  0  0  0  0  0  0  0  0  0  0  0
    9.6010   -1.6370   23.0210 N   0  0  0  0  0  0  0  0  0  0  0  0
    8.8550   -2.8050   22.4870 C   0  0  0  0  0  0  0  0  0  0  0  0
    8.3790   -2.3770   21.2380 C   0  0  2  0  0  0  0  0  0  0  0  0
    7.4620   -1.2970   21.5670 N   0  0  0  0  0  0  0  0  0  0  0  0
    4.9820    1.7890   18.4360 N   0  0  0  0  0  0  0  0  0  0  0  0
    4.4740    1.6910   19.6430 C   0  0  0  0  0  0  0  0  0  0  0  0
    4.8360    0.6990   20.5500 C   0  0  0  0  0  0  0  0  0  0  0  0
    5.7590   -0.2430   20.1750 C   0  0  0  0  0  0  0  0  0  0  0  0
    6.3180   -0.1710   18.9050 C   0  0  0  0  0  0  0  0  0  0  0  0
    5.8780    0.8850   18.0940 C   0  0  0  0  0  0  0  0  0  0  0  0
   11.9750   -1.4450   22.6920 C   0  0  0  0  0  0  0  0  0  0  0  0
   13.2590   -1.6790   23.0910 C   0  0  0  0  0  0  0  0  0  0  0  0
   13.4810   -2.3700   24.2790 C   0  0  0  0  0  0  0  0  0  0  0  0
   12.4200   -2.8150   25.0520 C   0  0  0  0  0  0  0  0  0  0  0  0
   11.1230   -2.5650   24.6320 C   0  0  0  0  0  0  0  0  0  0  0  0
   10.8830   -1.8780   23.4460 C   0  0  0  0  0  0  0  0  0  0  0  0
    4.2380    0.7190   21.8130 C   0  0  0  0  0  0  0  0  0  0  0  0
    3.2960    1.6890   22.1640 C   0  0  0  0  0  0  0  0  0  0  0  0
    2.9410    2.6560   21.2460 C   0  0  0  0  0  0  0  0  0  0  0  0
    3.5370    2.6450   19.9940 C   0  0  0  0  0  0  0  0  0  0  0  0
  4  6  2  0
  6  7  1  0
  2  8  2  0
  3  8  2  0
  9 10  2  0
 10 12  1  0
  1 13  1  0
 13 14  2  0
  5 15  1  0
 14 15  1  0
  8 16  1  0
 15 16  2  0
 16 17  1  0
 13 18  1  0
 17 18  2  0
 19  6  1  0
 12 19  1  0
 19 20  1  0
 20 21  1  0
  8 22  1  0
 21 22  1  0
 22 23  1  0
 19 24  1  0
 23 24  1  0
 25 26  1  0
 26 27  1  0
 27 28  1  0
 29  7  1  1
 28 29  1  0
  9 30  1  0
 25 30  1  0
 29 30  1  0
 31 32  2  0
 32 33  1  0
  9 34  1  0
 33 34  2  0
 34 35  1  0
 11 36  1  0
 31 36  1  0
 35 36  2  0
 37 38  2  0
 38 39  1  0
 39 40  2  0
 40 41  1  0
 27 42  1  0
 37 42  1  0
 41 42  2  0
 33 43  1  0
 43 44  2  0
 44 45  1  0
 32 46  1  0
 45 46  2  0
M  END
