x0774-x1458
     RDKit          3D

 22 24  0  0  0  0  0  0  0  0999 V2000
    5.0780   -2.9910   26.1390 O   0  0  0  0  0  0  0  0  0  0  0  0
    5.2890   -4.6330   19.9150 O   0  0  0  0  0  0  0  0  0  0  0  0
    6.4350   -5.6170   25.0180 C   0  0  0  0  0  0  0  0  0  0  0  0
    8.2430   -2.5000   25.3760 C   0  0  0  0  0  0  0  0  0  0  0  0
    5.9400   -3.4800   25.4290 C   0  0  0  0  0  0  0  0  0  0  0  0
    6.3160   -4.1150   20.3430 C   0  0  0  0  0  0  0  0  0  0  0  0
    7.1520   -3.2640   19.3840 C   0  0  0  0  0  0  0  0  0  0  0  0
   10.4640   -3.2160   24.0990 N   0  0  0  0  0  0  0  0  0  0  0  0
   10.5990   -3.3980   25.5130 C   0  0  0  0  0  0  0  0  0  0  0  0
    7.3130   -1.5830   25.5490 O   0  0  0  0  0  0  0  0  0  0  0  0
    6.6910   -4.3680   21.6900 N   0  0  0  0  0  0  0  0  0  0  0  0
    7.4440   -3.4430   22.3580 C   0  0  0  0  0  0  0  0  0  0  0  0
    6.5550   -2.7500   23.2050 C   0  0  0  0  0  0  0  0  0  0  0  0
    5.5620   -3.3720   23.9880 C   0  0  0  0  0  0  0  0  0  0  0  0
    5.2670   -4.6950   23.5310 C   0  0  0  0  0  0  0  0  0  0  0  0
    6.0290   -5.3400   22.5220 C   0  0  0  0  0  0  0  0  0  0  0  0
    7.5720   -4.3190   25.8780 S   0  0  0  0  0  0  0  0  0  0  0  0
    7.3080   -4.3850   27.9220 C   0  0  0  0  0  0  0  0  0  0  0  0
    8.3570   -5.1290   27.4020 C   0  0  2  0  0  0  0  0  0  0  0  0
    9.6520   -4.6700   27.3290 C   0  0  0  0  0  0  0  0  0  0  0  0
   10.1340   -4.7760   26.0600 C   0  0  1  0  0  0  0  0  0  0  0  0
    9.0760   -5.1840   25.3540 C   0  0  0  0  0  0  0  0  0  0  0  0
  1  5  2  0
  2  6  2  0
  6  7  1  0
  8  9  1  0
  4 10  1  0
  6 11  1  0
 11 12  1  0
 12 13  1  0
  5 14  1  0
 13 14  1  0
 14 15  1  0
 11 16  1  0
 15 16  1  0
  3 17  1  0
  4 17  1  0
  5 17  1  0
 17 18  1  0
 17 19  1  0
 19 18  1  1
 19 20  1  0
 21  9  1  6
 20 21  1  0
 17 22  1  0
 21 22  1  0
M  END
