x0770-x2779
     RDKit          3D

 17 18  0  0  0  0  0  0  0  0999 V2000
    7.1590   -2.9940   18.7890 C   0  0  0  0  0  0  0  0  0  0  0  0
    5.3430   -4.2040   19.7570 O   0  0  0  0  0  0  0  0  0  0  0  0
   13.3830   -1.7440   21.1840 Cl  0  0  0  0  0  0  0  0  0  0  0  0
    6.1750   -3.3050   19.8910 C   0  0  0  0  0  0  0  0  0  0  0  0
    9.2660   -2.3170   24.2560 C   0  0  0  0  0  0  0  0  0  0  0  0
    6.2710   -2.5470   21.0610 N   0  0  0  0  0  0  0  0  0  0  0  0
    7.2560   -1.4720   21.1780 C   0  0  0  0  0  0  0  0  0  0  0  0
    8.5510   -1.7730   21.9560 C   0  0  0  0  0  0  0  0  0  0  0  0
    8.2650   -2.4540   23.2260 N   0  0  0  0  0  0  0  0  0  0  0  0
    7.3740   -3.5080   23.2860 C   0  0  0  0  0  0  0  0  0  0  0  0
    6.1700   -3.2810   22.3560 C   0  0  0  0  0  0  0  0  0  0  0  0
   10.6550   -0.2940   24.4410 C   0  0  0  0  0  0  0  0  0  0  0  0
   11.7960    0.6340   24.0890 C   0  0  0  0  0  0  0  0  0  0  0  0
   12.7210    0.1360   22.9960 C   0  0  0  0  0  0  0  0  0  0  0  0
   12.4310   -1.1030   22.4230 C   0  0  0  0  0  0  0  0  0  0  0  0
   11.3520   -1.8860   22.8140 C   0  0  0  0  0  0  0  0  0  0  0  0
   10.4520   -1.5150   23.8090 C   0  0  0  0  0  0  0  0  0  0  0  0
  1  4  1  0
  2  4  2  0
  4  6  1  0
  6  7  1  0
  7  8  1  0
  5  9  1  0
  8  9  1  0
  9 10  1  0
  6 11  1  0
 10 11  1  0
 12 13  2  0
 13 14  1  0
  3 15  1  0
 14 15  2  0
 15 16  1  0
  5 17  1  0
 12 17  1  0
 16 17  2  0
M  END
