x0771-x3117-x3113
     RDKit          3D

 52 57  0  0  0  0  0  0  0  0999 V2000
    7.2160   -1.3950   22.1450 N   0  0  0  0  0  0  0  0  0  0  0  0
    8.2470    1.7000   23.2450 N   0  0  0  0  0  0  0  0  0  0  0  0
    8.7200    1.2570   21.0350 O   0  0  0  0  0  0  0  0  0  0  0  0
   11.5640    3.6210   23.7300 N   0  0  0  0  0  0  0  0  0  0  0  0
    6.8370    0.0240   21.8700 C   0  0  1  0  0  0  0  0  0  0  0  0
    8.0200    1.0400   22.0260 C   0  0  0  0  0  0  0  0  0  0  0  0
   10.5310    1.4990   23.0490 C   0  0  0  0  0  0  0  0  0  0  0  0
   11.4790    2.5740   23.3130 C   0  0  0  0  0  0  0  0  0  0  0  0
   12.1590    4.6730   23.0460 C   0  0  0  0  0  0  0  0  0  0  0  0
   12.5170   -1.9250   24.1760 C   0  0  0  0  0  0  0  0  0  0  0  0
   13.4910   -2.1080   23.0310 C   0  0  0  0  0  0  0  0  0  0  0  0
   12.8530   -3.0510   25.1290 C   0  0  0  0  0  0  0  0  0  0  0  0
   12.8020   -0.6300   24.8940 C   0  0  0  0  0  0  0  0  0  0  0  0
    0.2920   -1.4700   26.2600 C   0  0  0  0  0  0  0  0  0  0  0  0
    4.3870   -6.9330   25.5640 O   0  0  0  0  0  0  0  0  0  0  0  0
    5.9880   -5.3120   26.6600 O   0  0  0  0  0  0  0  0  0  0  0  0
    5.2550   -4.4800   19.8820 O   0  0  0  0  0  0  0  0  0  0  0  0
    1.8520   -6.0030   24.9950 C   0  0  0  0  0  0  0  0  0  0  0  0
    6.3320   -4.2270   20.4010 C   0  0  0  0  0  0  0  0  0  0  0  0
    7.3090   -3.3150   19.7030 C   0  0  0  0  0  0  0  0  0  0  0  0
    5.0070   -5.6340   25.6650 S   0  0  0  0  0  0  0  0  0  0  0  0
    6.3670   -2.5220   22.6390 C   0  0  0  0  0  0  0  0  0  0  0  0
    6.4110    0.1900   18.0380 N   0  0  0  0  0  0  0  0  0  0  0  0
    5.2300    1.0920   17.9380 C   0  0  0  0  0  0  0  0  0  0  0  0
    4.6510    1.5670   19.1010 C   0  0  0  0  0  0  0  0  0  0  0  0
    5.2060    1.1840   20.3250 C   0  0  0  0  0  0  0  0  0  0  0  0
    6.3860    0.2900   20.4070 C   0  0  0  0  0  0  0  0  0  0  0  0
    6.9150   -0.1570   19.2660 C   0  0  0  0  0  0  0  0  0  0  0  0
    9.5490   -1.9420   21.8670 C   0  0  0  0  0  0  0  0  0  0  0  0
   10.8550   -2.0820   22.3450 C   0  0  0  0  0  0  0  0  0  0  0  0
   11.1130   -1.8180   23.6820 C   0  0  0  0  0  0  0  0  0  0  0  0
   10.0840   -1.4380   24.5180 C   0  0  0  0  0  0  0  0  0  0  0  0
    8.7960   -1.3040   24.0310 C   0  0  0  0  0  0  0  0  0  0  0  0
    8.5010   -1.5450   22.6850 C   0  0  0  0  0  0  0  0  0  0  0  0
    9.6190    5.0440   23.9410 O   0  0  0  0  0  0  0  0  0  0  0  0
   10.0770    3.6850   24.0790 C   0  0  1  0  0  0  0  0  0  0  0  0
    9.4490    2.5120   23.2090 C   0  0  2  0  0  0  0  0  0  0  0  0
    9.3530    3.3690   22.0220 C   0  0  0  0  0  0  0  0  0  0  0  0
    8.0970    4.1440   22.4840 C   0  0  0  0  0  0  0  0  0  0  0  0
    8.3660    5.2130   23.2980 C   0  0  0  0  0  0  0  0  0  0  0  0
    1.4700   -2.3800   26.1440 C   0  0  0  0  0  0  0  0  0  0  0  0
    1.3220   -3.6880   25.6800 C   0  0  0  0  0  0  0  0  0  0  0  0
    2.3050   -4.6690   25.5180 C   0  0  0  0  0  0  0  0  0  0  0  0
    3.7910   -4.3710   25.8710 C   0  0  0  0  0  0  0  0  0  0  0  0
    4.0290   -2.9560   26.3770 C   0  0  0  0  0  0  0  0  0  0  0  0
    2.8780   -1.9240   26.5260 C   0  0  0  0  0  0  0  0  0  0  0  0
    6.6830   -4.7950   21.6160 N   0  0  0  0  0  0  0  0  0  0  0  0
    6.1720   -6.1270   21.9250 C   0  0  0  0  0  0  0  0  0  0  0  0
    5.1180   -6.1120   23.0150 C   0  0  0  0  0  0  0  0  0  0  0  0
    5.5620   -5.2330   24.1020 N   0  0  0  0  0  0  0  0  0  0  0  0
    6.9470   -4.6450   23.9580 C   0  0  0  0  0  0  0  0  0  0  0  0
    7.0690   -3.9130   22.7520 C   0  0  2  0  0  0  0  0  0  0  0  0
  1  5  1  0
  2  6  1  0
  3  6  2  0
  5  6  1  6
  4  8  1  0
  7  8  1  0
  4  9  1  0
 10 11  1  0
 10 12  1  0
 10 13  1  0
 17 19  2  0
 19 20  1  0
 15 21  2  0
 16 21  2  0
  1 22  1  0
 23 24  2  0
 24 25  1  0
 25 26  2  0
  5 27  1  0
 26 27  1  0
 23 28  1  0
 27 28  2  0
 29 30  2  0
 10 31  1  0
 30 31  1  0
 31 32  2  0
 32 33  1  0
  1 34  1  0
 29 34  1  0
 33 34  2  0
  4 36  1  0
 36 35  1  6
 37  2  1  1
  7 37  1  0
 36 37  1  0
 37 38  1  0
 38 39  1  0
 35 40  1  0
 39 40  1  0
 14 41  1  0
 41 42  2  0
 18 43  1  0
 42 43  1  0
 21 44  1  0
 43 44  2  0
 44 45  1  0
 41 46  1  0
 45 46  2  0
 19 47  1  0
 47 48  1  0
 48 49  1  0
 21 50  1  0
 49 50  1  0
 50 51  1  0
 52 22  1  1
 47 52  1  0
 51 52  1  0
M  END
