x0770-x1380
     RDKit          3D

 26 28  0  0  0  0  0  0  0  0999 V2000
    7.2070   -2.9880   18.7850 C   0  0  0  0  0  0  0  0  0  0  0  0
    5.2940   -4.0910   19.6910 O   0  0  0  0  0  0  0  0  0  0  0  0
   13.4100   -1.7360   21.0950 Cl  0  0  0  0  0  0  0  0  0  0  0  0
    6.2220   -3.2980   19.8760 C   0  0  0  0  0  0  0  0  0  0  0  0
    9.4650   -2.4470   24.3320 C   0  0  0  0  0  0  0  0  0  0  0  0
    6.4290   -2.6900   21.1120 N   0  0  0  0  0  0  0  0  0  0  0  0
    7.3870   -1.5910   21.2880 C   0  0  0  0  0  0  0  0  0  0  0  0
    8.7150   -1.8890   22.0200 C   0  0  0  0  0  0  0  0  0  0  0  0
    8.5270   -2.6890   23.2470 N   0  0  0  0  0  0  0  0  0  0  0  0
    7.3080   -3.2490   23.5380 C   0  0  2  0  0  0  0  0  0  0  0  0
    6.5550   -3.6120   22.2650 C   0  0  0  0  0  0  0  0  0  0  0  0
   10.7920   -0.3820   24.5150 C   0  0  0  0  0  0  0  0  0  0  0  0
   11.9120    0.5460   24.0880 C   0  0  0  0  0  0  0  0  0  0  0  0
   12.7990    0.1020   22.9540 C   0  0  0  0  0  0  0  0  0  0  0  0
   12.5070   -1.1300   22.3840 C   0  0  0  0  0  0  0  0  0  0  0  0
   11.4650   -1.9480   22.8080 C   0  0  0  0  0  0  0  0  0  0  0  0
   10.6100   -1.5940   23.8560 C   0  0  0  0  0  0  0  0  0  0  0  0
    4.4910   -3.1810   25.2890 O   0  0  0  0  0  0  0  0  0  0  0  0
    5.6860   -3.0740   25.5140 C   0  0  0  0  0  0  0  0  0  0  0  0
    7.6300   -4.2340   26.5420 C   0  0  0  0  0  0  0  0  0  0  0  0
    7.5960   -5.3990   27.2820 C   0  0  0  0  0  0  0  0  0  0  0  0
    7.5260   -5.0650   28.7370 C   0  0  0  0  0  0  0  0  0  0  0  0
    6.2070   -4.2780   28.9710 C   0  0  0  0  0  0  0  0  0  0  0  0
    5.5410   -3.8280   27.8360 C   0  0  0  0  0  0  0  0  0  0  0  0
    6.3190   -3.5410   26.6430 N   0  0  0  0  0  0  0  0  0  0  0  0
    6.5810   -2.3780   24.5180 C   0  0  0  0  0  0  0  0  0  0  0  0
  1  4  1  0
  2  4  2  0
  4  6  1  0
  6  7  1  0
  7  8  1  0
  5  9  1  0
  8  9  1  0
  9 10  1  0
  6 11  1  0
 10 11  1  0
 12 13  2  0
 13 14  1  0
  3 15  1  0
 14 15  2  0
 15 16  1  0
  5 17  1  0
 12 17  1  0
 16 17  2  0
 18 19  2  0
 20 21  1  0
 21 22  1  0
 22 23  1  0
 23 24  1  0
 19 25  1  0
 20 25  1  0
 24 25  1  0
 10 26  1  6
 19 26  1  0
M  END
