x0771-x2600
     RDKit          3D

 40 43  0  0  0  0  0  0  0  0999 V2000
    0.7410   -1.4000   26.2310 C   0  0  0  0  0  0  0  0  0  0  0  0
    4.6790   -6.9060   26.1210 O   0  0  0  0  0  0  0  0  0  0  0  0
    6.1410   -5.0000   26.8090 O   0  0  0  0  0  0  0  0  0  0  0  0
    5.6380   -5.0210   20.0090 O   0  0  0  0  0  0  0  0  0  0  0  0
    2.0710   -6.0740   24.9640 C   0  0  0  0  0  0  0  0  0  0  0  0
    6.3480   -4.1460   20.5010 C   0  0  0  0  0  0  0  0  0  0  0  0
    7.1160   -3.2390   19.5310 C   0  0  0  0  0  0  0  0  0  0  0  0
    5.1710   -5.5660   25.8990 S   0  0  0  0  0  0  0  0  0  0  0  0
   13.7140   -3.1450   20.6000 N   0  0  0  0  0  0  0  0  0  0  0  0
    8.1350   -0.0520   21.6900 C   0  0  0  0  0  0  0  0  0  0  0  0
    8.6550    1.0210   21.3740 O   0  0  0  0  0  0  0  0  0  0  0  0
    8.7040   -0.8300   22.6740 C   0  0  0  0  0  0  0  0  0  0  0  0
    6.9130   -0.5870   21.0720 N   0  0  0  0  0  0  0  0  0  0  0  0
   13.1320   -2.2110   21.3720 C   0  0  0  0  0  0  0  0  0  0  0  0
    6.4470   -2.5210   22.5180 C   0  0  0  0  0  0  0  0  0  0  0  0
    5.9300   -1.5350   21.6990 C   0  0  0  0  0  0  0  0  0  0  0  0
    1.7960   -2.4190   26.1210 C   0  0  0  0  0  0  0  0  0  0  0  0
    1.4720   -3.8080   25.5770 C   0  0  0  0  0  0  0  0  0  0  0  0
    2.4840   -4.7990   25.4840 C   0  0  0  0  0  0  0  0  0  0  0  0
    3.7770   -4.4440   25.9110 C   0  0  0  0  0  0  0  0  0  0  0  0
    4.0390   -3.1700   26.3900 C   0  0  0  0  0  0  0  0  0  0  0  0
    3.0950   -2.1640   26.5030 C   0  0  0  0  0  0  0  0  0  0  0  0
    6.3320   -4.0060   22.0410 C   0  0  0  0  0  0  0  0  0  0  0  0
    5.0230   -4.7280   22.3750 C   0  0  0  0  0  0  0  0  0  0  0  0
    5.0770   -5.8500   23.1710 C   0  0  0  0  0  0  0  0  0  0  0  0
    5.8530   -5.5510   24.3660 N   0  0  0  0  0  0  0  0  0  0  0  0
    7.1200   -4.8360   24.1770 C   0  0  0  0  0  0  0  0  0  0  0  0
    7.4280   -4.7650   22.8100 C   0  0  0  0  0  0  0  0  0  0  0  0
    6.3250    0.6640   17.5950 N   0  0  0  0  0  0  0  0  0  0  0  0
    6.9280   -0.0680   18.6930 C   0  0  0  0  0  0  0  0  0  0  0  0
    6.3910    0.0790   19.9710 C   0  0  0  0  0  0  0  0  0  0  0  0
    5.2890    0.9040   20.2240 C   0  0  0  0  0  0  0  0  0  0  0  0
    4.6960    1.6080   19.2040 C   0  0  0  0  0  0  0  0  0  0  0  0
    5.1890    1.5050   17.9210 C   0  0  0  0  0  0  0  0  0  0  0  0
   10.7450    0.5310   23.2400 C   0  0  0  0  0  0  0  0  0  0  0  0
   12.1240    0.7460   23.2330 C   0  0  0  0  0  0  0  0  0  0  0  0
   12.9750   -0.1380   22.6420 C   0  0  0  0  0  0  0  0  0  0  0  0
   12.3980   -1.2480   22.0490 C   0  0  0  0  0  0  0  0  0  0  0  0
   11.0290   -1.4870   22.0570 C   0  0  0  0  0  0  0  0  0  0  0  0
   10.1840   -0.5910   22.6610 C   0  0  0  0  0  0  0  0  0  0  0  0
  4  6  2  0
  6  7  1  0
  2  8  2  0
  3  8  2  0
 10 11  2  0
 10 12  1  0
 10 13  1  0
  9 14  3  0
 13 16  1  0
 15 16  1  0
  1 17  1  0
 17 18  2  0
  5 19  1  0
 18 19  1  0
  8 20  1  0
 19 20  2  0
 20 21  1  0
 17 22  1  0
 21 22  2  0
 23  6  1  0
 15 23  1  0
 23 24  1  0
 24 25  1  0
  8 26  1  0
 25 26  1  0
 26 27  1  0
 23 28  1  0
 27 28  1  0
 29 30  2  0
 13 31  1  0
 30 31  1  0
 31 32  2  0
 32 33  1  0
 29 34  1  0
 33 34  2  0
 35 36  2  0
 36 37  1  0
 14 38  1  0
 37 38  2  0
 38 39  1  0
 12 40  1  0
 35 40  1  0
 39 40  2  0
M  END
