x0770-x2646
     RDKit          3D

 28 31  0  0  0  0  0  0  0  0999 V2000
    7.2740   -2.9730   18.8260 C   0  0  0  0  0  0  0  0  0  0  0  0
    5.4680   -4.1650   19.7990 O   0  0  0  0  0  0  0  0  0  0  0  0
   13.3910   -1.7090   21.1690 Cl  0  0  0  0  0  0  0  0  0  0  0  0
    6.2990   -3.2460   19.9620 C   0  0  0  0  0  0  0  0  0  0  0  0
    9.3670   -2.4580   24.1420 C   0  0  0  0  0  0  0  0  0  0  0  0
    7.0480    0.8850   22.2900 O   0  0  0  0  0  0  0  0  0  0  0  0
    7.1950   -0.3240   22.2260 C   0  0  0  0  0  0  0  0  0  0  0  0
    7.2810   -1.3120   23.4260 C   0  0  0  0  0  0  0  0  0  0  0  0
    6.3720   -2.4540   21.1680 N   0  0  0  0  0  0  0  0  0  0  0  0
    7.4170   -1.5050   21.2780 C   0  0  2  0  0  0  0  0  0  0  0  0
    8.7160   -2.1660   21.7390 C   0  0  0  0  0  0  0  0  0  0  0  0
    8.2370   -2.4560   23.1260 C   0  0  1  0  0  0  0  0  0  0  0  0
    7.3580   -3.6990   23.0950 C   0  0  0  0  0  0  0  0  0  0  0  0
    6.0680   -3.2380   22.3540 C   0  0  0  0  0  0  0  0  0  0  0  0
   10.7440   -0.3510   24.4810 C   0  0  0  0  0  0  0  0  0  0  0  0
   11.8310    0.4620   24.1120 C   0  0  0  0  0  0  0  0  0  0  0  0
   12.6590    0.0360   23.0850 C   0  0  0  0  0  0  0  0  0  0  0  0
   12.4210   -1.1590   22.4340 C   0  0  0  0  0  0  0  0  0  0  0  0
   11.3630   -1.9510   22.7910 C   0  0  0  0  0  0  0  0  0  0  0  0
   10.5170   -1.5630   23.8050 C   0  0  0  0  0  0  0  0  0  0  0  0
    4.8960    1.3940   21.7080 C   0  0  0  0  0  0  0  0  0  0  0  0
    6.1040    0.3760   17.8460 N   0  0  0  0  0  0  0  0  0  0  0  0
    6.9960   -0.2280   18.8000 C   0  0  0  0  0  0  0  0  0  0  0  0
    6.4190    0.2400   20.0300 C   0  0  0  0  0  0  0  0  0  0  0  0
    5.3020    1.0620   20.3070 C   0  0  0  0  0  0  0  0  0  0  0  0
    4.6010    1.5470   19.2610 C   0  0  0  0  0  0  0  0  0  0  0  0
    5.0080    1.2060   18.0310 C   0  0  0  0  0  0  0  0  0  0  0  0
    7.7520   -0.7010   20.0620 C   0  0  0  0  0  0  0  0  0  0  0  0
  1  4  1  0
  2  4  2  0
  6  7  2  0
  7  8  1  0
  4  9  1  0
  7 10  1  0
  9 10  1  0
 10 11  1  0
 12  5  1  1
  8 12  1  0
 11 12  1  0
 12 13  1  0
  9 14  1  0
 13 14  1  0
 15 16  2  0
 16 17  1  0
  3 18  1  0
 17 18  2  0
 18 19  1  0
  5 20  1  0
 15 20  1  0
 19 20  2  0
 22 23  2  0
 23 24  1  0
 21 25  1  0
 24 25  2  0
 25 26  1  0
 22 27  1  0
 26 27  2  0
 10 28  1  6
 23 28  1  0
M  END
