x0771-x2562
     RDKit          3D

 44 48  0  0  0  0  0  0  0  0999 V2000
    0.6660   -1.4810   26.0390 C   0  0  0  0  0  0  0  0  0  0  0  0
    4.4920   -6.9570   25.9890 O   0  0  0  0  0  0  0  0  0  0  0  0
    6.1480   -5.2530   26.8040 O   0  0  0  0  0  0  0  0  0  0  0  0
    5.5890   -4.8180   19.9850 O   0  0  0  0  0  0  0  0  0  0  0  0
    2.2280   -6.2370   25.1090 C   0  0  0  0  0  0  0  0  0  0  0  0
    6.4730   -4.1080   20.4740 C   0  0  0  0  0  0  0  0  0  0  0  0
    7.3640   -3.2920   19.5340 C   0  0  0  0  0  0  0  0  0  0  0  0
    5.1380   -5.6730   25.8570 S   0  0  0  0  0  0  0  0  0  0  0  0
    8.3400   -0.1160   21.3950 C   0  0  0  0  0  0  0  0  0  0  0  0
    8.3370    1.1060   21.2130 O   0  0  0  0  0  0  0  0  0  0  0  0
    7.3040   -0.9020   20.9190 C   0  0  1  0  0  0  0  0  0  0  0  0
   12.0060    2.9560   23.3000 O   0  0  0  0  0  0  0  0  0  0  0  0
    9.2570   -0.7800   22.0070 N   0  0  0  0  0  0  0  0  0  0  0  0
   12.3730    6.5940   22.4850 O   0  0  0  0  0  0  0  0  0  0  0  0
    6.9930   -2.6300   22.4640 C   0  0  0  0  0  0  0  0  0  0  0  0
    6.3860   -1.6210   21.7060 C   0  0  0  0  0  0  0  0  0  0  0  0
    1.7740   -2.4560   25.9900 C   0  0  0  0  0  0  0  0  0  0  0  0
    1.4580   -3.7320   25.5990 C   0  0  0  0  0  0  0  0  0  0  0  0
    2.5480   -4.8130   25.5350 C   0  0  0  0  0  0  0  0  0  0  0  0
    3.8580   -4.4170   25.8980 C   0  0  0  0  0  0  0  0  0  0  0  0
    4.0470   -3.0930   26.2660 C   0  0  0  0  0  0  0  0  0  0  0  0
    3.0730   -2.1150   26.3250 C   0  0  0  0  0  0  0  0  0  0  0  0
    6.5790   -4.0410   22.0150 C   0  0  0  0  0  0  0  0  0  0  0  0
    5.2820   -4.3590   22.4020 C   0  0  0  0  0  0  0  0  0  0  0  0
    5.0140   -5.6580   23.1360 C   0  0  0  0  0  0  0  0  0  0  0  0
    5.8620   -5.6050   24.3130 N   0  0  0  0  0  0  0  0  0  0  0  0
    7.1950   -5.0100   24.1060 C   0  0  0  0  0  0  0  0  0  0  0  0
    7.5220   -5.0050   22.7460 C   0  0  0  0  0  0  0  0  0  0  0  0
    4.6160    1.5210   19.5410 N   0  0  0  0  0  0  0  0  0  0  0  0
    5.0740    1.4610   18.1630 C   0  0  0  0  0  0  0  0  0  0  0  0
    6.1910    0.6900   17.6040 N   0  0  0  0  0  0  0  0  0  0  0  0
    6.8880   -0.0830   18.6290 C   0  0  0  0  0  0  0  0  0  0  0  0
    6.4770   -0.0470   19.9740 C   0  0  0  0  0  0  0  0  0  0  0  0
    5.3840    0.7200   20.4140 C   0  0  0  0  0  0  0  0  0  0  0  0
   12.6040    4.4800   21.6320 N   0  0  0  0  0  0  0  0  0  0  0  0
   13.2420    5.4930   22.3370 C   0  0  2  0  0  0  0  0  0  0  0  0
   13.4480    4.8130   23.4540 C   0  0  0  0  0  0  0  0  0  0  0  0
   13.0400    3.7640   22.7290 C   0  0  1  0  0  0  0  0  0  0  0  0
   11.6470   -1.0970   22.3060 C   0  0  0  0  0  0  0  0  0  0  0  0
   12.8980   -0.5850   22.6050 C   0  0  0  0  0  0  0  0  0  0  0  0
   13.0150    0.7740   22.9300 C   0  0  0  0  0  0  0  0  0  0  0  0
   11.8930    1.6190   22.9680 C   0  0  0  0  0  0  0  0  0  0  0  0
   10.6750    1.0680   22.6640 C   0  0  0  0  0  0  0  0  0  0  0  0
   10.5130   -0.2650   22.3270 C   0  0  0  0  0  0  0  0  0  0  0  0
  4  6  2  0
  6  7  1  0
  2  8  2  0
  3  8  2  0
  9 10  2  0
  9 11  1  0
  9 13  1  0
 11 16  1  1
 15 16  1  0
  1 17  1  0
 17 18  2  0
  5 19  1  0
 18 19  1  0
  8 20  1  0
 19 20  2  0
 20 21  1  0
 17 22  1  0
 21 22  2  0
 23  6  1  0
 15 23  1  0
 23 24  1  0
 24 25  1  0
  8 26  1  0
 25 26  1  0
 26 27  1  0
 23 28  1  0
 27 28  1  0
 29 30  2  0
 30 31  1  0
 31 32  2  0
 11 33  1  0
 32 33  1  0
 29 34  1  0
 33 34  2  0
 36 14  1  1
 35 36  1  0
 36 37  1  0
 38 12  1  1
 35 38  1  0
 37 38  1  0
 39 40  2  0
 40 41  1  0
 12 42  1  0
 41 42  2  0
 42 43  1  0
 13 44  1  0
 39 44  1  0
 43 44  2  0
M  END
