x0770-x1358
     RDKit          3D

 28 30  0  0  0  0  0  0  0  0999 V2000
    6.8230   -2.5030   25.9640 N   0  0  0  0  0  0  0  0  0  0  0  0
    5.6460   -0.0090   25.1230 O   0  0  0  0  0  0  0  0  0  0  0  0
    4.7250   -3.3710   25.4340 O   0  0  0  0  0  0  0  0  0  0  0  0
    5.0860   -4.0330   19.5540 O   0  0  0  0  0  0  0  0  0  0  0  0
    5.9180   -3.2160   25.2090 C   0  0  0  0  0  0  0  0  0  0  0  0
    6.2000   -3.7170   19.9230 C   0  0  0  0  0  0  0  0  0  0  0  0
    7.2710   -3.1390   18.9880 C   0  0  0  0  0  0  0  0  0  0  0  0
    5.9860   -0.1330   26.4480 C   0  0  0  0  0  0  0  0  0  0  0  0
    6.6080   -1.4790   26.8950 C   0  0  0  0  0  0  0  0  0  0  0  0
    6.9700   -1.5930   28.3850 C   0  0  0  0  0  0  0  0  0  0  0  0
    6.7470   -0.4550   29.3740 C   0  0  0  0  0  0  0  0  0  0  0  0
    6.1290    0.8240   28.8040 C   0  0  0  0  0  0  0  0  0  0  0  0
    5.7610    0.9360   27.3290 C   0  0  0  0  0  0  0  0  0  0  0  0
    6.5710   -3.8950   21.2240 N   0  0  0  0  0  0  0  0  0  0  0  0
    6.8080   -2.7790   21.8780 C   0  0  0  0  0  0  0  0  0  0  0  0
    7.2030   -2.8420   23.1970 C   0  0  1  0  0  0  0  0  0  0  0  0
    6.5870   -3.8310   24.0110 C   0  0  2  0  0  0  0  0  0  0  0  0
    5.6980   -4.6810   23.3100 C   0  0  0  0  0  0  0  0  0  0  0  0
    6.1490   -5.0140   22.0430 C   0  0  0  0  0  0  0  0  0  0  0  0
   13.4160   -1.6560   21.1540 Cl  0  0  0  0  0  0  0  0  0  0  0  0
    9.5440   -2.6410   24.2100 C   0  0  0  0  0  0  0  0  0  0  0  0
   10.6610   -0.3680   24.5070 C   0  0  0  0  0  0  0  0  0  0  0  0
   11.7210    0.6410   24.1040 C   0  0  0  0  0  0  0  0  0  0  0  0
   12.6270    0.1490   22.9810 C   0  0  0  0  0  0  0  0  0  0  0  0
   12.4430   -1.1030   22.4080 C   0  0  0  0  0  0  0  0  0  0  0  0
   11.4500   -1.9660   22.8240 C   0  0  0  0  0  0  0  0  0  0  0  0
   10.5840   -1.6170   23.8410 C   0  0  0  0  0  0  0  0  0  0  0  0
    8.6890   -3.1730   23.0780 C   0  0  0  0  0  0  0  0  0  0  0  0
  1  5  1  0
  3  5  2  0
  4  6  2  0
  6  7  1  0
  2  8  1  0
  1  9  1  0
  8  9  2  0
  9 10  1  0
 10 11  2  0
 11 12  1  0
  8 13  1  0
 12 13  2  0
  6 14  1  0
 14 15  1  0
 15 16  1  0
 17  5  1  1
 16 17  1  0
 17 18  1  0
 14 19  1  0
 18 19  1  0
 22 23  2  0
 23 24  1  0
 20 25  1  0
 24 25  2  0
 25 26  1  0
 21 27  1  0
 22 27  1  0
 26 27  2  0
 16 28  1  6
 21 28  1  0
M  END
