x0771-x0755
     RDKit          3D

 21 22  0  0  0  0  0  0  0  0999 V2000
    0.5970   -1.3230   26.1460 C   0  0  0  0  0  0  0  0  0  0  0  0
    4.5470   -6.8620   25.7570 O   0  0  0  0  0  0  0  0  0  0  0  0
    6.0290   -5.0800   26.6850 O   0  0  0  0  0  0  0  0  0  0  0  0
    5.2870   -4.4730   19.8850 O   0  0  0  0  0  0  0  0  0  0  0  0
    2.1190   -6.1740   25.1290 C   0  0  0  0  0  0  0  0  0  0  0  0
    6.3490   -4.2710   20.4790 C   0  0  0  0  0  0  0  0  0  0  0  0
    7.3060   -3.2860   19.7880 C   0  0  0  0  0  0  0  0  0  0  0  0
    5.0600   -5.5120   25.7030 S   0  0  0  0  0  0  0  0  0  0  0  0
    5.3340   -2.6610   26.3980 F   0  0  0  0  0  0  0  0  0  0  0  0
    1.6960   -2.4200   26.0030 C   0  0  0  0  0  0  0  0  0  0  0  0
    1.3750   -3.7100   25.6390 C   0  0  0  0  0  0  0  0  0  0  0  0
    2.3690   -4.6970   25.5240 C   0  0  0  0  0  0  0  0  0  0  0  0
    3.7140   -4.3420   25.7890 C   0  0  0  0  0  0  0  0  0  0  0  0
    4.0680   -3.0320   26.1500 C   0  0  0  0  0  0  0  0  0  0  0  0
    3.0320   -2.1350   26.2380 C   0  0  0  0  0  0  0  0  0  0  0  0
    6.6170   -4.9430   21.6930 N   0  0  0  0  0  0  0  0  0  0  0  0
    6.0230   -6.2780   22.0410 C   0  0  0  0  0  0  0  0  0  0  0  0
    5.0920   -6.0110   23.0470 C   0  0  0  0  0  0  0  0  0  0  0  0
    5.7470   -5.2790   24.1510 N   0  0  0  0  0  0  0  0  0  0  0  0
    6.2220   -3.9460   23.7840 C   0  0  0  0  0  0  0  0  0  0  0  0
    7.2010   -4.1470   22.8180 C   0  0  0  0  0  0  0  0  0  0  0  0
  4  6  2  0
  6  7  1  0
  2  8  2  0
  3  8  2  0
  1 10  1  0
 10 11  2  0
  5 12  1  0
 11 12  1  0
  8 13  1  0
 12 13  2  0
  9 14  1  0
 13 14  1  0
 10 15  1  0
 14 15  2  0
  6 16  1  0
 16 17  1  0
 17 18  1  0
  8 19  1  0
 18 19  1  0
 19 20  1  0
 16 21  1  0
 20 21  1  0
M  END
