x0771-x2563
     RDKit          3D

 42 46  0  0  0  0  0  0  0  0999 V2000
    0.6010   -1.4650   25.9860 C   0  0  0  0  0  0  0  0  0  0  0  0
    4.4230   -6.9500   26.0030 O   0  0  0  0  0  0  0  0  0  0  0  0
    6.0480   -5.2710   26.9370 O   0  0  0  0  0  0  0  0  0  0  0  0
    5.7170   -5.1210   20.0050 O   0  0  0  0  0  0  0  0  0  0  0  0
    2.1840   -6.2200   25.1250 C   0  0  0  0  0  0  0  0  0  0  0  0
    6.4170   -4.2420   20.4880 C   0  0  0  0  0  0  0  0  0  0  0  0
    7.2180   -3.3290   19.5380 C   0  0  0  0  0  0  0  0  0  0  0  0
    5.0650   -5.6590   25.9480 S   0  0  0  0  0  0  0  0  0  0  0  0
    8.1410   -0.3680   21.2570 C   0  0  0  0  0  0  0  0  0  0  0  0
    8.2600    0.8480   21.0630 O   0  0  0  0  0  0  0  0  0  0  0  0
    7.1350   -1.0910   20.6650 C   0  0  1  0  0  0  0  0  0  0  0  0
    8.9180   -1.0620   21.9820 N   0  0  0  0  0  0  0  0  0  0  0  0
    6.3880   -2.5750   22.3650 C   0  0  0  0  0  0  0  0  0  0  0  0
    6.0520   -1.7750   21.2700 C   0  0  0  0  0  0  0  0  0  0  0  0
    1.7120   -2.4400   25.9840 C   0  0  0  0  0  0  0  0  0  0  0  0
    1.4280   -3.7110   25.5930 C   0  0  0  0  0  0  0  0  0  0  0  0
    2.4990   -4.7970   25.5590 C   0  0  0  0  0  0  0  0  0  0  0  0
    3.7960   -4.3950   25.9600 C   0  0  0  0  0  0  0  0  0  0  0  0
    4.0140   -3.0670   26.3440 C   0  0  0  0  0  0  0  0  0  0  0  0
    3.0050   -2.1100   26.3580 C   0  0  0  0  0  0  0  0  0  0  0  0
    6.3400   -4.0680   22.0210 C   0  0  0  0  0  0  0  0  0  0  0  0
    5.1150   -4.6890   22.3100 C   0  0  0  0  0  0  0  0  0  0  0  0
    5.1170   -5.8940   23.2310 C   0  0  0  0  0  0  0  0  0  0  0  0
    5.8320   -5.5150   24.4390 N   0  0  0  0  0  0  0  0  0  0  0  0
    7.0240   -4.6860   24.2570 C   0  0  0  0  0  0  0  0  0  0  0  0
    7.3940   -4.7050   22.9200 C   0  0  0  0  0  0  0  0  0  0  0  0
    6.2450    0.7530   17.5170 N   0  0  0  0  0  0  0  0  0  0  0  0
    5.1140    1.5620   17.9490 C   0  0  0  0  0  0  0  0  0  0  0  0
    4.6670    1.4880   19.2750 C   0  0  0  0  0  0  0  0  0  0  0  0
    5.3520    0.6130   20.1600 C   0  0  0  0  0  0  0  0  0  0  0  0
    6.4260   -0.1580   19.7390 C   0  0  0  0  0  0  0  0  0  0  0  0
    6.8300   -0.0700   18.4800 C   0  0  0  0  0  0  0  0  0  0  0  0
    3.5720    2.2810   19.6640 C   0  0  0  0  0  0  0  0  0  0  0  0
    3.1320    2.2120   20.9820 C   0  0  0  0  0  0  0  0  0  0  0  0
    3.7870    1.3700   21.8620 C   0  0  0  0  0  0  0  0  0  0  0  0
    4.8630    0.5840   21.4910 C   0  0  0  0  0  0  0  0  0  0  0  0
   11.2900   -0.7010   22.4260 C   0  0  0  0  0  0  0  0  0  0  0  0
   12.2360   -0.0150   23.1730 C   0  0  0  0  0  0  0  0  0  0  0  0
   11.7930    0.8640   24.1270 C   0  0  0  0  0  0  0  0  0  0  0  0
   10.4450    1.0870   24.3750 C   0  0  0  0  0  0  0  0  0  0  0  0
    9.5230    0.4180   23.6430 C   0  0  0  0  0  0  0  0  0  0  0  0
    9.9450   -0.4710   22.6670 C   0  0  0  0  0  0  0  0  0  0  0  0
  4  6  2  0
  6  7  1  0
  2  8  2  0
  3  8  2  0
  9 10  2  0
  9 11  1  0
  9 12  1  0
 11 14  1  1
 13 14  1  0
  1 15  1  0
 15 16  2  0
  5 17  1  0
 16 17  1  0
  8 18  1  0
 17 18  2  0
 18 19  1  0
 15 20  1  0
 19 20  2  0
 21  6  1  0
 13 21  1  0
 21 22  1  0
 22 23  1  0
  8 24  1  0
 23 24  1  0
 24 25  1  0
 21 26  1  0
 25 26  1  0
 27 28  2  0
 28 29  1  0
 29 30  2  0
 11 31  1  0
 30 31  1  0
 27 32  1  0
 31 32  2  0
 29 33  1  0
 33 34  2  0
 34 35  1  0
 30 36  1  0
 35 36  2  0
 37 38  2  0
 38 39  1  0
 39 40  2  0
 40 41  1  0
 12 42  1  0
 37 42  1  0
 41 42  2  0
M  END
