x0771-x2776-x3115-x2694-x3124
     RDKit          3D

 54 58  0  0  0  0  0  0  0  0999 V2000
    7.1980   -1.1580   21.5390 N   0  0  0  0  0  0  0  0  0  0  0  0
    7.7830    2.1310   22.9580 N   0  0  0  0  0  0  0  0  0  0  0  0
    9.0650    1.4770   21.0000 O   0  0  0  0  0  0  0  0  0  0  0  0
   10.9330    6.6850   23.6720 O   0  0  0  0  0  0  0  0  0  0  0  0
    6.8390    0.2970   21.4750 C   0  0  1  0  0  0  0  0  0  0  0  0
   13.7790   -2.6410   24.3680 O   0  0  0  0  0  0  0  0  0  0  0  0
    7.9300    1.2960   21.7930 C   0  0  0  0  0  0  0  0  0  0  0  0
   10.3970    1.8180   24.0260 C   0  0  0  0  0  0  0  0  0  0  0  0
   11.8100    6.6540   24.5410 C   0  0  0  0  0  0  0  0  0  0  0  0
   12.6540   -1.8370   24.0600 C   0  0  1  0  0  0  0  0  0  0  0  0
   12.8890   -0.3090   24.1270 C   0  0  0  0  0  0  0  0  0  0  0  0
   13.6580   -3.0630   25.5060 C   0  0  0  0  0  0  0  0  0  0  0  0
    8.3160    7.0450   22.5290 C   0  0  0  0  0  0  0  0  0  0  0  0
   12.1060   -2.1330   22.6870 C   0  0  0  0  0  0  0  0  0  0  0  0
    0.7070   -1.2680   26.1640 C   0  0  0  0  0  0  0  0  0  0  0  0
    4.6440   -6.8770   25.9940 O   0  0  0  0  0  0  0  0  0  0  0  0
    6.1930   -5.0890   26.8020 O   0  0  0  0  0  0  0  0  0  0  0  0
    5.6660   -4.1210   19.7220 O   0  0  0  0  0  0  0  0  0  0  0  0
    2.2250   -6.1880   25.0400 C   0  0  0  0  0  0  0  0  0  0  0  0
    6.6180   -4.0650   20.4940 C   0  0  0  0  0  0  0  0  0  0  0  0
    8.0120   -3.5330   20.1650 C   0  0  0  0  0  0  0  0  0  0  0  0
    5.1830   -5.5340   25.8610 S   0  0  0  0  0  0  0  0  0  0  0  0
    6.0100   -2.0010   21.7340 C   0  0  0  0  0  0  0  0  0  0  0  0
    6.0490   -3.1830   22.6640 C   0  0  0  0  0  0  0  0  0  0  0  0
    6.3740    0.5320   17.7360 N   0  0  0  0  0  0  0  0  0  0  0  0
    5.1940    1.4120   17.6740 C   0  0  0  0  0  0  0  0  0  0  0  0
    4.4370    1.9770   18.8320 C   0  0  0  0  0  0  0  0  0  0  0  0
    5.0350    1.5580   20.1090 C   0  0  0  0  0  0  0  0  0  0  0  0
    6.2590    0.6640   20.1500 C   0  0  0  0  0  0  0  0  0  0  0  0
    6.8110    0.2270   18.9660 C   0  0  0  0  0  0  0  0  0  0  0  0
    9.8370    3.1590   23.6460 C   0  0  0  0  0  0  0  0  0  0  0  0
   10.6370    4.2690   23.8290 C   0  0  0  0  0  0  0  0  0  0  0  0
   10.1870    5.5450   23.4980 C   0  0  0  0  0  0  0  0  0  0  0  0
    8.9080    5.6980   22.9550 C   0  0  0  0  0  0  0  0  0  0  0  0
    8.1250    4.5640   22.7850 C   0  0  0  0  0  0  0  0  0  0  0  0
    8.5720    3.2820   23.1300 C   0  0  0  0  0  0  0  0  0  0  0  0
    9.6370   -1.7170   21.9800 C   0  0  0  0  0  0  0  0  0  0  0  0
   10.6850   -1.7400   22.8890 C   0  0  0  0  0  0  0  0  0  0  0  0
   10.4700   -1.3480   24.2210 C   0  0  0  0  0  0  0  0  0  0  0  0
    9.2470   -0.9230   24.7060 C   0  0  0  0  0  0  0  0  0  0  0  0
    8.1740   -0.8720   23.8440 C   0  0  0  0  0  0  0  0  0  0  0  0
    8.3780   -1.2830   22.4100 C   0  0  0  0  0  0  0  0  0  0  0  0
    1.7350   -2.3490   26.0530 C   0  0  0  0  0  0  0  0  0  0  0  0
    1.3580   -3.7510   25.5650 C   0  0  0  0  0  0  0  0  0  0  0  0
    2.4740   -4.7900   25.4960 C   0  0  0  0  0  0  0  0  0  0  0  0
    3.7820   -4.4300   25.8750 C   0  0  0  0  0  0  0  0  0  0  0  0
    4.0610   -3.1310   26.3050 C   0  0  0  0  0  0  0  0  0  0  0  0
    3.0810   -2.1240   26.3930 C   0  0  0  0  0  0  0  0  0  0  0  0
    6.4260   -4.5060   21.9370 C   0  0  0  0  0  0  0  0  0  0  0  0
    5.4240   -5.4680   22.0450 C   0  0  0  0  0  0  0  0  0  0  0  0
    5.3160   -6.2190   23.1920 C   0  0  0  0  0  0  0  0  0  0  0  0
    5.7930   -5.3850   24.3060 N   0  0  0  0  0  0  0  0  0  0  0  0
    7.2420   -5.0530   24.2230 C   0  0  0  0  0  0  0  0  0  0  0  0
    7.6530   -5.0230   22.7100 C   0  0  0  0  0  0  0  0  0  0  0  0
  1  5  1  0
  2  7  1  0
  3  7  2  0
  5  7  1  6
  4  9  1  0
  6 10  1  0
 10 11  1  6
  6 12  1  0
 10 14  1  0
 18 20  2  0
 20 21  1  0
 16 22  2  0
 17 22  2  0
  1 23  1  0
 23 24  1  0
 25 26  2  0
 26 27  1  0
 27 28  2  0
  5 29  1  0
 28 29  1  0
 25 30  1  0
 29 30  2  0
  8 31  1  0
 31 32  2  0
  4 33  1  0
 32 33  1  0
 13 34  1  0
 33 34  2  0
 34 35  1  0
  2 36  1  0
 31 36  1  0
 35 36  2  0
 14 38  1  0
 37 38  2  0
 38 39  1  0
 39 40  2  0
 40 41  1  0
  1 42  1  0
 37 42  1  0
 41 42  2  0
 15 43  1  0
 43 44  2  0
 19 45  1  0
 44 45  1  0
 22 46  1  0
 45 46  2  0
 46 47  1  0
 43 48  1  0
 47 48  2  0
 49 20  1  0
 24 49  1  0
 49 50  1  0
 50 51  1  0
 22 52  1  0
 51 52  1  0
 52 53  1  0
 49 54  1  0
 53 54  1  0
M  END
