x0770-x0759
     RDKit          3D

 17 18  0  0  0  0  0  0  0  0999 V2000
    7.1670   -2.9920   18.7980 C   0  0  0  0  0  0  0  0  0  0  0  0
    5.3600   -4.2110   19.7690 O   0  0  0  0  0  0  0  0  0  0  0  0
   13.3510   -1.8000   21.1500 Cl  0  0  0  0  0  0  0  0  0  0  0  0
    6.2100   -3.3270   19.9160 C   0  0  0  0  0  0  0  0  0  0  0  0
    9.3210   -2.3610   24.3780 C   0  0  0  0  0  0  0  0  0  0  0  0
    6.3480   -2.6090   21.1130 N   0  0  0  0  0  0  0  0  0  0  0  0
    7.3310   -1.5320   21.2470 C   0  0  0  0  0  0  0  0  0  0  0  0
    8.6110   -1.8160   22.0600 C   0  0  0  0  0  0  0  0  0  0  0  0
    8.3170   -2.5070   23.3300 N   0  0  0  0  0  0  0  0  0  0  0  0
    7.4400   -3.5800   23.3510 C   0  0  0  0  0  0  0  0  0  0  0  0
    6.2490   -3.3650   22.3960 C   0  0  0  0  0  0  0  0  0  0  0  0
   10.7370   -0.3360   24.4920 C   0  0  0  0  0  0  0  0  0  0  0  0
   11.8750    0.5830   24.0870 C   0  0  0  0  0  0  0  0  0  0  0  0
   12.7540    0.0770   22.9710 C   0  0  0  0  0  0  0  0  0  0  0  0
   12.4410   -1.1600   22.4170 C   0  0  0  0  0  0  0  0  0  0  0  0
   11.3680   -1.9390   22.8530 C   0  0  0  0  0  0  0  0  0  0  0  0
   10.5030   -1.5590   23.8810 C   0  0  0  0  0  0  0  0  0  0  0  0
  1  4  1  0
  2  4  2  0
  4  6  1  0
  6  7  1  0
  7  8  1  0
  5  9  1  0
  8  9  1  0
  9 10  1  0
  6 11  1  0
 10 11  1  0
 12 13  2  0
 13 14  1  0
  3 15  1  0
 14 15  2  0
 15 16  1  0
  5 17  1  0
 12 17  1  0
 16 17  2  0
M  END
