x0770-x1385
     RDKit          3D

 23 25  0  0  0  0  0  0  0  0999 V2000
    7.2560   -2.9930   18.8110 C   0  0  0  0  0  0  0  0  0  0  0  0
    5.3870   -4.1660   19.7430 O   0  0  0  0  0  0  0  0  0  0  0  0
   13.3490   -1.8230   21.1370 Cl  0  0  0  0  0  0  0  0  0  0  0  0
    6.2450   -3.2940   19.8930 C   0  0  0  0  0  0  0  0  0  0  0  0
    9.2000   -2.3450   24.3480 C   0  0  2  0  0  0  0  0  0  0  0  0
    7.3340   -5.9790   28.4040 Br  0  0  0  0  0  0  0  0  0  0  0  0
    6.3390   -2.5640   21.0750 N   0  0  0  0  0  0  0  0  0  0  0  0
    7.2780   -1.4390   21.2110 C   0  0  0  0  0  0  0  0  0  0  0  0
    8.5700   -1.7870   21.9900 C   0  0  0  0  0  0  0  0  0  0  0  0
    8.3040   -2.5390   23.2280 N   0  0  0  0  0  0  0  0  0  0  0  0
    7.4800   -3.6400   23.1890 C   0  0  0  0  0  0  0  0  0  0  0  0
    6.2500   -3.3440   22.3410 C   0  0  0  0  0  0  0  0  0  0  0  0
   10.7300   -0.4460   24.5480 C   0  0  0  0  0  0  0  0  0  0  0  0
   11.9210    0.4080   24.1610 C   0  0  0  0  0  0  0  0  0  0  0  0
   12.7880   -0.0620   23.0340 C   0  0  0  0  0  0  0  0  0  0  0  0
   12.4260   -1.2520   22.4260 C   0  0  0  0  0  0  0  0  0  0  0  0
   11.3090   -2.0220   22.8120 C   0  0  0  0  0  0  0  0  0  0  0  0
   10.4560   -1.6310   23.8640 C   0  0  0  0  0  0  0  0  0  0  0  0
    9.9270   -4.7490   25.2160 C   0  0  0  0  0  0  0  0  0  0  0  0
    9.1620   -3.5590   25.1810 C   0  0  0  0  0  0  0  0  0  0  0  0
    7.9470   -3.6910   26.4060 S   0  0  0  0  0  0  0  0  0  0  0  0
    8.3360   -5.2040   26.9930 C   0  0  0  0  0  0  0  0  0  0  0  0
    9.5020   -5.7540   26.2480 C   0  0  0  0  0  0  0  0  0  0  0  0
  1  4  1  0
  2  4  2  0
  4  7  1  0
  7  8  1  0
  8  9  1  0
  5 10  1  0
  9 10  1  0
 10 11  1  0
  7 12  1  0
 11 12  1  0
 13 14  2  0
 14 15  1  0
  3 16  1  0
 15 16  2  0
 16 17  1  0
  5 18  1  6
 13 18  1  0
 17 18  2  0
  5 20  1  0
 19 20  2  0
 20 21  1  0
  6 22  1  0
 21 22  1  0
 19 23  1  0
 22 23  2  0
M  END
