x0771-x0759
     RDKit          3D

 32 35  0  0  0  0  0  0  0  0999 V2000
    0.6370   -1.3100   26.2280 C   0  0  0  0  0  0  0  0  0  0  0  0
    4.4180   -6.9780   25.6920 O   0  0  0  0  0  0  0  0  0  0  0  0
    5.9460   -5.2350   26.6550 O   0  0  0  0  0  0  0  0  0  0  0  0
    5.3310   -4.5680   19.9100 O   0  0  0  0  0  0  0  0  0  0  0  0
    1.9990   -6.1470   24.9520 C   0  0  0  0  0  0  0  0  0  0  0  0
    6.4160   -4.4140   20.4760 C   0  0  0  0  0  0  0  0  0  0  0  0
    7.3850   -3.4050   19.8290 C   0  0  0  0  0  0  0  0  0  0  0  0
    4.9400   -5.6330   25.6920 S   0  0  0  0  0  0  0  0  0  0  0  0
   13.2310    0.2300   23.6670 F   0  0  0  0  0  0  0  0  0  0  0  0
    1.6920   -2.4440   26.0650 C   0  0  0  0  0  0  0  0  0  0  0  0
    1.3350   -3.6900   25.6000 C   0  0  0  0  0  0  0  0  0  0  0  0
    2.2860   -4.7110   25.4620 C   0  0  0  0  0  0  0  0  0  0  0  0
    3.6290   -4.4350   25.8110 C   0  0  0  0  0  0  0  0  0  0  0  0
    4.0200   -3.1790   26.2800 C   0  0  0  0  0  0  0  0  0  0  0  0
    3.0300   -2.2340   26.3870 C   0  0  0  0  0  0  0  0  0  0  0  0
    6.7220   -5.1310   21.6460 N   0  0  0  0  0  0  0  0  0  0  0  0
    5.9430   -6.3500   22.0590 C   0  0  0  0  0  0  0  0  0  0  0  0
    4.9310   -5.9750   22.9630 C   0  0  0  0  0  0  0  0  0  0  0  0
    5.5330   -5.2790   24.1300 N   0  0  0  0  0  0  0  0  0  0  0  0
    6.8800   -4.7750   23.9810 C   0  0  0  0  0  0  0  0  0  0  0  0
    6.9520   -4.1860   22.7430 C   0  0  1  0  0  0  0  0  0  0  0  0
    6.2750   -2.0320   21.5490 N   0  0  0  0  0  0  0  0  0  0  0  0
    7.5280   -1.6040   21.7750 C   0  0  0  0  0  0  0  0  0  0  0  0
    8.2160   -2.2390   22.8170 C   0  0  1  0  0  0  0  0  0  0  0  0
    8.2650   -3.6540   22.6320 O   0  0  0  0  0  0  0  0  0  0  0  0
    5.8930   -3.0470   22.5850 C   0  0  0  0  0  0  0  0  0  0  0  0
    9.8150   -0.7490   24.1110 C   0  0  0  0  0  0  0  0  0  0  0  0
   11.0130   -0.1600   24.3060 C   0  0  0  0  0  0  0  0  0  0  0  0
   12.0790   -0.3700   23.4510 C   0  0  0  0  0  0  0  0  0  0  0  0
   11.9210   -1.2340   22.3410 C   0  0  0  0  0  0  0  0  0  0  0  0
   10.6520   -1.8520   22.1390 C   0  0  0  0  0  0  0  0  0  0  0  0
    9.5720   -1.6370   22.9920 C   0  0  0  0  0  0  0  0  0  0  0  0
  4  6  2  0
  6  7  1  0
  2  8  2  0
  3  8  2  0
  1 10  1  0
 10 11  2  0
  5 12  1  0
 11 12  1  0
  8 13  1  0
 12 13  2  0
 13 14  1  0
 10 15  1  0
 14 15  2  0
  6 16  1  0
 16 17  1  0
 17 18  1  0
  8 19  1  0
 18 19  1  0
 19 20  1  0
 16 21  1  0
 21 20  1  1
 22 23  1  0
 23 24  1  0
 21 25  1  0
 24 25  1  0
 21 26  1  0
 22 26  1  0
 27 28  2  0
  9 29  1  0
 28 29  1  0
 29 30  2  0
 30 31  1  0
 24 32  1  6
 27 32  1  0
 31 32  2  0
M  END
