x0771-x0540
     RDKit          3D

 40 43  0  0  0  0  0  0  0  0999 V2000
    1.0250   -1.2120   26.2310 C   0  0  0  0  0  0  0  0  0  0  0  0
    4.5760   -6.9620   25.8440 O   0  0  0  0  0  0  0  0  0  0  0  0
    6.0800   -5.2330   26.8810 O   0  0  0  0  0  0  0  0  0  0  0  0
    5.2760   -4.5470   19.9030 O   0  0  0  0  0  0  0  0  0  0  0  0
    1.9490   -6.1290   25.8140 C   0  0  0  0  0  0  0  0  0  0  0  0
    6.3340   -4.2730   20.4670 C   0  0  0  0  0  0  0  0  0  0  0  0
    7.2630   -3.2840   19.7530 C   0  0  0  0  0  0  0  0  0  0  0  0
    5.1140   -5.6220   25.8820 S   0  0  0  0  0  0  0  0  0  0  0  0
    2.9630    1.1810   24.4490 N   0  0  0  0  0  0  0  0  0  0  0  0
    2.9000    2.2460   23.5400 C   0  0  0  0  0  0  0  0  0  0  0  0
    4.1450    2.3770   22.7740 N   0  0  0  0  0  0  0  0  0  0  0  0
    4.9410    1.2880   22.5360 C   0  0  0  0  0  0  0  0  0  0  0  0
    4.5560    0.2010   21.7310 C   0  0  0  0  0  0  0  0  0  0  0  0
    1.8800    3.2340   23.1970 N   0  0  0  0  0  0  0  0  0  0  0  0
    1.2900   -0.3530   25.0600 C   0  0  0  0  0  0  0  0  0  0  0  0
    1.7590    0.9320   25.3180 C   0  0  0  0  0  0  0  0  0  0  0  0
    1.9730   -2.3250   26.1680 C   0  0  0  0  0  0  0  0  0  0  0  0
    1.4780   -3.7620   26.0460 C   0  0  0  0  0  0  0  0  0  0  0  0
    2.4510   -4.7900   25.9530 C   0  0  0  0  0  0  0  0  0  0  0  0
    3.8040   -4.4300   25.9920 C   0  0  0  0  0  0  0  0  0  0  0  0
    4.2230   -3.1180   26.1180 C   0  0  0  0  0  0  0  0  0  0  0  0
    3.3260   -2.0780   26.2020 C   0  0  0  0  0  0  0  0  0  0  0  0
    6.6490   -4.8730   21.7080 N   0  0  0  0  0  0  0  0  0  0  0  0
    6.1660   -6.2120   22.0680 C   0  0  0  0  0  0  0  0  0  0  0  0
    5.1150   -6.1020   23.1760 C   0  0  0  0  0  0  0  0  0  0  0  0
    5.7890   -5.4470   24.3230 N   0  0  0  0  0  0  0  0  0  0  0  0
    6.3150   -4.2570   23.9970 C   0  0  0  0  0  0  0  0  0  0  0  0
    6.9830   -4.0970   22.7810 C   0  0  0  0  0  0  0  0  0  0  0  0
    6.3760   -0.5070   20.0130 C   0  0  0  0  0  0  0  0  0  0  0  0
    6.9210   -0.3930   18.7290 C   0  0  0  0  0  0  0  0  0  0  0  0
    6.2630    0.5280   17.7800 N   0  0  0  0  0  0  0  0  0  0  0  0
    5.1650    1.2250   18.1700 C   0  0  0  0  0  0  0  0  0  0  0  0
    4.5820    1.1510   19.4250 C   0  0  0  0  0  0  0  0  0  0  0  0
    5.1420    0.3190   20.3540 C   0  0  0  0  0  0  0  0  0  0  0  0
    0.4690    4.6810   24.4850 C   0  0  0  0  0  0  0  0  0  0  0  0
   -0.7630    4.9770   25.0820 C   0  0  0  0  0  0  0  0  0  0  0  0
   -1.8680    4.5080   24.3800 C   0  0  0  0  0  0  0  0  0  0  0  0
   -1.7400    3.2910   23.7240 C   0  0  0  0  0  0  0  0  0  0  0  0
   -0.4640    2.9130   23.2870 C   0  0  0  0  0  0  0  0  0  0  0  0
    0.6920    3.4060   23.9330 C   0  0  0  0  0  0  0  0  0  0  0  0
  4  6  2  0
  6  7  1  0
  2  8  2  0
  3  8  2  0
  9 10  2  3
 10 11  1  0
 11 12  1  0
 12 13  1  0
 10 14  1  0
  1 15  1  0
  9 16  1  0
 15 16  1  0
  1 17  1  0
 17 18  2  0
  5 19  1  0
 18 19  1  0
  8 20  1  0
 19 20  2  0
 20 21  1  0
 17 22  1  0
 21 22  2  0
  6 23  1  0
 23 24  1  0
 24 25  1  0
  8 26  1  0
 25 26  1  0
 26 27  1  0
 23 28  1  0
 27 28  1  0
 29 30  2  0
 30 31  1  0
 31 32  2  0
 32 33  1  0
 13 34  1  0
 29 34  1  0
 33 34  2  0
 35 36  1  0
 36 37  1  0
 37 38  1  0
 38 39  1  0
 14 40  1  0
 35 40  1  0
 39 40  1  0
M  END
