x0771-x0978-x0755-x3110-x3113
     RDKit          3D

 66 71  0  0  0  0  0  0  0  0999 V2000
    8.0340    1.4200   23.3130 N   0  0  0  0  0  0  0  0  0  0  0  0
   13.3890    5.2310   22.9470 C   0  0  0  0  0  0  0  0  0  0  0  0
   12.0480    3.3570   22.3460 O   0  0  0  0  0  0  0  0  0  0  0  0
   12.5460    4.6110   21.8780 C   0  0  0  0  0  0  0  0  0  0  0  0
    7.1260   -1.3670   21.8700 N   0  0  0  0  0  0  0  0  0  0  0  0
   11.0600    4.3780   24.1310 O   0  0  0  0  0  0  0  0  0  0  0  0
   11.2140    3.4210   23.4010 C   0  0  0  0  0  0  0  0  0  0  0  0
    8.6200    1.5580   21.1340 O   0  0  0  0  0  0  0  0  0  0  0  0
   10.4580    2.1090   23.5680 C   0  0  0  0  0  0  0  0  0  0  0  0
    8.9850    2.3830   23.8730 C   0  0  0  0  0  0  0  0  0  0  0  0
    7.8640    1.0520   22.0010 C   0  0  0  0  0  0  0  0  0  0  0  0
    6.7220    0.0360   21.6710 C   0  0  1  0  0  0  0  0  0  0  0  0
   12.4100   -1.7460   24.1640 C   0  0  0  0  0  0  0  0  0  0  0  0
   12.6270   -0.5480   25.0620 C   0  0  0  0  0  0  0  0  0  0  0  0
   13.3720   -1.6590   22.9930 C   0  0  0  0  0  0  0  0  0  0  0  0
   12.7870   -2.9900   24.9460 C   0  0  0  0  0  0  0  0  0  0  0  0
    2.0180   -5.5150   22.9220 N   0  0  0  0  0  0  0  0  0  0  0  0
    2.2390   -8.1830   23.8480 C   0  0  0  0  0  0  0  0  0  0  0  0
    4.3540   -7.7950   24.3340 O   0  0  0  0  0  0  0  0  0  0  0  0
    3.1100   -7.1440   24.0770 C   0  0  0  0  0  0  0  0  0  0  0  0
    0.7950   -7.4020   21.9000 O   0  0  0  0  0  0  0  0  0  0  0  0
    3.2950   -6.2240   23.0070 C   0  0  2  0  0  0  0  0  0  0  0  0
    4.0110   -4.0770   23.8410 O   0  0  0  0  0  0  0  0  0  0  0  0
    0.8480   -6.1300   22.5310 C   0  0  0  0  0  0  0  0  0  0  0  0
   -0.3310   -5.4110   22.7850 C   0  0  0  0  0  0  0  0  0  0  0  0
    6.0310   -2.2860   22.3510 C   0  0  0  0  0  0  0  0  0  0  0  0
    4.7250   -6.8410   25.8300 O   0  0  0  0  0  0  0  0  0  0  0  0
    6.6040   -4.9940   26.2290 N   0  0  0  0  0  0  0  0  0  0  0  0
    5.9620   -4.5440   19.9470 O   0  0  0  0  0  0  0  0  0  0  0  0
    6.8010   -3.9820   20.7000 C   0  0  0  0  0  0  0  0  0  0  0  0
    8.0970   -3.4220   20.1180 C   0  0  0  0  0  0  0  0  0  0  0  0
    5.3300   -5.4650   25.5250 S   0  0  2  0  0  0  0  0  0  0  0  0
    5.4340   -6.2200   20.4760 O   0  0  0  0  0  0  0  0  0  0  0  0
    5.5090   -5.0800   20.8680 C   0  0  0  0  0  0  0  0  0  0  0  0
    5.7140   -3.9090   20.0630 C   0  0  0  0  0  0  0  0  0  0  0  0
    5.4500   -2.5620   26.3010 F   0  0  0  0  0  0  0  0  0  0  0  0
    6.3390    0.5010   17.7650 N   0  0  0  0  0  0  0  0  0  0  0  0
    5.2560    1.3020   17.7560 C   0  0  0  0  0  0  0  0  0  0  0  0
    4.5920    1.7190   18.8820 C   0  0  0  0  0  0  0  0  0  0  0  0
    5.0860    1.2820   20.2090 C   0  0  0  0  0  0  0  0  0  0  0  0
    6.1870    0.4760   20.2820 C   0  0  0  0  0  0  0  0  0  0  0  0
    6.8050    0.0890   18.9570 C   0  0  0  0  0  0  0  0  0  0  0  0
    9.4580   -1.9640   21.7920 C   0  0  0  0  0  0  0  0  0  0  0  0
   10.7460   -2.0620   22.3380 C   0  0  0  0  0  0  0  0  0  0  0  0
   11.0210   -1.6640   23.6350 C   0  0  0  0  0  0  0  0  0  0  0  0
   10.0080   -1.1640   24.4380 C   0  0  0  0  0  0  0  0  0  0  0  0
    8.5830   -1.0340   23.9170 C   0  0  0  0  0  0  0  0  0  0  0  0
    8.3650   -1.4690   22.4920 C   0  0  0  0  0  0  0  0  0  0  0  0
    2.0350   -2.8080   25.8200 C   0  0  0  0  0  0  0  0  0  0  0  0
    1.6610   -4.0220   25.4460 C   0  0  0  0  0  0  0  0  0  0  0  0
    2.7110   -4.6270   25.4170 C   0  0  0  0  0  0  0  0  0  0  0  0
    3.9920   -4.2800   25.6650 C   0  0  0  0  0  0  0  0  0  0  0  0
    4.2000   -2.9700   26.0420 C   0  0  0  0  0  0  0  0  0  0  0  0
    3.1840   -2.0110   26.1810 C   0  0  0  0  0  0  0  0  0  0  0  0
    6.4230   -3.7930   22.2420 C   0  0  2  0  0  0  0  0  0  0  0  0
    5.4060   -4.7660   22.2870 C   0  0  1  0  0  0  0  0  0  0  0  0
    4.5290   -5.2210   23.1370 C   0  0  2  0  0  0  0  0  0  0  0  0
    5.7330   -5.7000   23.7510 C   0  0  2  0  0  0  0  0  0  0  0  0
    7.1150   -5.4380   23.6750 C   0  0  0  0  0  0  0  0  0  0  0  0
    7.3870   -4.0170   23.1440 C   0  0  0  0  0  0  0  0  0  0  0  0
    4.0300   -6.2070   27.4800 O   0  0  0  0  0  0  0  0  0  0  0  0
    6.3980   -4.7090   27.6320 N   0  0  0  0  0  0  0  0  0  0  0  0
    4.7800   -4.8850   28.1580 S   0  0  0  0  0  0  0  0  0  0  0  0
    2.5580   -6.5480   25.3790 C   0  0  0  0  0  0  0  0  0  0  0  0
    0.6900   -1.7400   26.2650 C   0  0  0  0  0  0  0  0  0  0  0  0
    2.0290   -1.0650   26.2990 C   0  0  0  0  0  0  0  0  0  0  0  0
  2  4  1  0
  3  4  1  0
  3  7  1  0
  6  7  2  0
  7  9  1  0
  1 10  1  0
  9 10  1  0
  1 11  1  0
  8 11  2  0
  5 12  1  0
 12 11  1  6
 13 14  1  0
 13 15  1  0
 13 16  1  0
 18 20  1  0
 20 19  1  0
 22 17  1  1
 20 22  1  0
 17 24  1  0
 21 24  2  0
 24 25  1  0
  5 26  1  0
 29 30  2  0
 30 31  1  0
 27 32  2  0
 28 32  2  0
 33 34  2  0
 34 35  1  0
 37 38  2  0
 38 39  1  0
 39 40  2  0
 12 41  1  0
 40 41  1  0
 37 42  1  0
 41 42  2  0
 43 44  2  0
 13 45  1  0
 44 45  1  0
 45 46  2  0
 46 47  1  0
  5 48  1  0
 43 48  1  0
 47 48  2  0
 49 50  2  0
 49 51  1  0
 50 51  1  0
 32 52  1  6
 51 52  2  0
 36 53  1  0
 52 53  1  0
 49 54  1  0
 53 54  2  0
 55 26  1  6
 55 30  1  0
 56 34  1  6
 55 56  1  0
 22 57  1  0
 57 23  1  1
 56 57  1  0
 32 58  1  0
 56 58  1  0
 57 58  1  0
 58 59  1  1
 55 60  1  0
 59 60  1  0
 28 62  1  0
 61 63  2  0
 62 63  2  0
 20 64  1  0
 54 66  1  0
 65 66  1  0
M  END
