x0770-x1425
     RDKit          3D

 27 29  0  0  0  0  0  0  0  0999 V2000
    7.1910   -3.0250   18.7970 C   0  0  0  0  0  0  0  0  0  0  0  0
    5.3480   -4.2080   19.7540 O   0  0  0  0  0  0  0  0  0  0  0  0
   13.2870   -1.8650   20.9770 Cl  0  0  0  0  0  0  0  0  0  0  0  0
    6.1550   -3.2820   19.8620 C   0  0  0  0  0  0  0  0  0  0  0  0
    8.9430   -1.4810   23.9360 C   0  0  0  0  0  0  0  0  0  0  0  0
    6.1840   -2.4280   20.9580 N   0  0  0  0  0  0  0  0  0  0  0  0
    7.0810   -1.2890   20.9150 C   0  0  0  0  0  0  0  0  0  0  0  0
    8.4380   -1.5380   21.5510 C   0  0  0  0  0  0  0  0  0  0  0  0
    8.2310   -2.0800   22.8730 N   0  0  0  0  0  0  0  0  0  0  0  0
    7.5000   -3.1670   23.2140 C   0  0  2  0  0  0  0  0  0  0  0  0
    6.2400   -3.0420   22.3190 C   0  0  0  0  0  0  0  0  0  0  0  0
   11.0860   -1.4900   24.8590 C   0  0  0  0  0  0  0  0  0  0  0  0
   12.5760   -1.5380   24.8690 C   0  0  0  0  0  0  0  0  0  0  0  0
   13.2260   -1.6580   23.5540 C   0  0  0  0  0  0  0  0  0  0  0  0
   12.4660   -1.7200   22.4340 C   0  0  0  0  0  0  0  0  0  0  0  0
   11.0750   -1.6750   22.4660 C   0  0  0  0  0  0  0  0  0  0  0  0
   10.3980   -1.5560   23.6910 C   0  0  0  0  0  0  0  0  0  0  0  0
    1.3640   -2.2430   28.5310 C   0  0  0  0  0  0  0  0  0  0  0  0
    2.7590   -2.0930   28.3110 O   0  0  0  0  0  0  0  0  0  0  0  0
    3.2460   -2.6460   27.0990 C   0  0  0  0  0  0  0  0  0  0  0  0
    4.6200   -2.5320   26.8690 C   0  0  0  0  0  0  0  0  0  0  0  0
    5.2320   -3.0920   25.6100 C   0  0  0  0  0  0  0  0  0  0  0  0
    4.1880   -3.7380   24.7120 C   0  0  0  0  0  0  0  0  0  0  0  0
    2.8520   -3.7960   25.0360 C   0  0  0  0  0  0  0  0  0  0  0  0
    2.3340   -3.2660   26.2180 C   0  0  0  0  0  0  0  0  0  0  0  0
    6.8730   -4.0230   24.2710 C   0  0  0  0  0  0  0  0  0  0  0  0
    6.5630   -3.0640   25.2540 C   0  0  0  0  0  0  0  0  0  0  0  0
  1  4  1  0
  2  4  2  0
  4  6  1  0
  6  7  1  0
  7  8  1  0
  5  9  1  0
  8  9  1  0
  9 10  1  0
  6 11  1  0
 10 11  1  0
 12 13  2  0
 13 14  1  0
  3 15  1  0
 14 15  2  0
 15 16  1  0
  5 17  1  0
 12 17  1  0
 16 17  2  0
 18 19  1  0
 19 20  1  0
 20 21  2  0
 21 22  1  0
 22 23  2  0
 23 24  1  0
 20 25  1  0
 24 25  2  0
 10 26  1  1
 22 27  1  0
 26 27  1  0
M  END
