x0770-x0072
     RDKit          3D

 22 23  0  0  0  0  0  0  0  0999 V2000
    7.2600   -2.9970   18.7860 C   0  0  0  0  0  0  0  0  0  0  0  0
    5.3950   -4.1410   19.7410 O   0  0  0  0  0  0  0  0  0  0  0  0
   13.2800   -1.8320   21.2340 Cl  0  0  0  0  0  0  0  0  0  0  0  0
    6.2810   -3.2950   19.8910 C   0  0  0  0  0  0  0  0  0  0  0  0
    9.1410   -2.4220   24.4090 C   0  0  2  0  0  0  0  0  0  0  0  0
    6.8840   -4.9080   25.8390 C   0  0  0  0  0  0  0  0  0  0  0  0
    8.6250   -4.6030   26.0720 S   0  0  0  0  0  0  0  0  0  0  0  0
    9.3310   -5.8460   26.2280 O   0  0  0  0  0  0  0  0  0  0  0  0
    8.7920   -3.7010   27.1740 O   0  0  0  0  0  0  0  0  0  0  0  0
    9.2770   -3.8380   24.6960 N   0  0  0  0  0  0  0  0  0  0  0  0
    6.4300   -2.6030   21.0930 N   0  0  0  0  0  0  0  0  0  0  0  0
    7.3080   -1.4760   21.1120 C   0  0  0  0  0  0  0  0  0  0  0  0
    8.4660   -1.6770   22.0980 C   0  0  0  0  0  0  0  0  0  0  0  0
    8.0930   -2.2750   23.3800 N   0  0  0  0  0  0  0  0  0  0  0  0
    7.2660   -3.3210   23.3450 C   0  0  0  0  0  0  0  0  0  0  0  0
    6.2220   -3.3160   22.2180 C   0  0  0  0  0  0  0  0  0  0  0  0
   10.6380   -0.3820   24.5890 C   0  0  0  0  0  0  0  0  0  0  0  0
   11.8460    0.4270   24.1130 C   0  0  0  0  0  0  0  0  0  0  0  0
   12.6410   -0.0330   23.0980 C   0  0  0  0  0  0  0  0  0  0  0  0
   12.3190   -1.2560   22.5060 C   0  0  0  0  0  0  0  0  0  0  0  0
   11.2060   -2.0230   22.9280 C   0  0  0  0  0  0  0  0  0  0  0  0
   10.3560   -1.6050   23.9630 C   0  0  0  0  0  0  0  0  0  0  0  0
  1  4  1  0
  2  4  2  0
  6  7  1  0
  7  8  2  0
  7  9  2  0
  5 10  1  6
  7 10  1  0
  4 11  1  0
 11 12  1  0
 12 13  1  0
  5 14  1  0
 13 14  1  0
 14 15  1  0
 11 16  1  0
 15 16  1  0
 17 18  2  0
 18 19  1  0
  3 20  1  0
 19 20  2  0
 20 21  1  0
  5 22  1  0
 17 22  1  0
 21 22  2  0
M  END
