x0770-x1351
     RDKit          3D

 27 29  0  0  0  0  0  0  0  0999 V2000
    7.0640   -3.2290   19.2840 C   0  0  0  0  0  0  0  0  0  0  0  0
    5.1820   -4.5570   19.8640 O   0  0  0  0  0  0  0  0  0  0  0  0
    6.2240   -4.0520   20.2410 C   0  0  0  0  0  0  0  0  0  0  0  0
    5.7620   -2.9890   25.3780 N   0  0  0  0  0  0  0  0  0  0  0  0
    7.8070   -2.9950   26.4120 O   0  0  0  0  0  0  0  0  0  0  0  0
    6.7350   -2.4470   26.2080 C   0  0  0  0  0  0  0  0  0  0  0  0
    6.6610   -4.3020   21.5470 N   0  0  0  0  0  0  0  0  0  0  0  0
    7.5740   -3.4820   22.1990 C   0  0  0  0  0  0  0  0  0  0  0  0
    6.8750   -2.5160   23.1650 C   0  0  1  0  0  0  0  0  0  0  0  0
    5.8850   -3.3100   24.0320 C   0  0  1  0  0  0  0  0  0  0  0  0
    5.8850   -4.8440   23.8240 C   0  0  0  0  0  0  0  0  0  0  0  0
    5.9810   -5.1510   22.3150 C   0  0  0  0  0  0  0  0  0  0  0  0
    7.0410   -0.7810   28.0800 C   0  0  0  0  0  0  0  0  0  0  0  0
    6.7130    0.5450   28.7610 C   0  0  0  0  0  0  0  0  0  0  0  0
    5.7810    1.3840   28.1540 C   0  0  0  0  0  0  0  0  0  0  0  0
    5.1670    1.0000   26.9410 C   0  0  0  0  0  0  0  0  0  0  0  0
    5.4860   -0.2380   26.3250 C   0  0  0  0  0  0  0  0  0  0  0  0
    6.4140   -1.1310   26.8800 C   0  0  0  0  0  0  0  0  0  0  0  0
   13.3460   -1.7600   21.2020 Cl  0  0  0  0  0  0  0  0  0  0  0  0
    9.2370   -2.3270   24.1420 C   0  0  0  0  0  0  0  0  0  0  0  0
   10.5610   -0.1830   24.4270 C   0  0  0  0  0  0  0  0  0  0  0  0
   11.7220    0.7150   24.0590 C   0  0  0  0  0  0  0  0  0  0  0  0
   12.6280    0.1290   22.9760 C   0  0  0  0  0  0  0  0  0  0  0  0
   12.3610   -1.1100   22.4080 C   0  0  0  0  0  0  0  0  0  0  0  0
   11.2740   -1.8760   22.7920 C   0  0  0  0  0  0  0  0  0  0  0  0
   10.3950   -1.4300   23.7770 C   0  0  0  0  0  0  0  0  0  0  0  0
    7.8910   -1.6600   23.8540 C   0  0  0  0  0  0  0  0  0  0  0  0
  1  3  1  0
  2  3  2  0
  4  6  1  0
  5  6  2  0
  3  7  1  0
  7  8  1  0
  8  9  1  0
 10  4  1  1
  9 10  1  0
 10 11  1  0
  7 12  1  0
 11 12  1  0
 13 14  2  0
 14 15  1  0
 15 16  2  0
 16 17  1  0
  6 18  1  0
 13 18  1  0
 17 18  2  0
 21 22  2  0
 22 23  1  0
 19 24  1  0
 23 24  2  0
 24 25  1  0
 20 26  1  0
 21 26  1  0
 25 26  2  0
  9 27  1  1
 20 27  1  0
M  END
