x0786-x0678
     RDKit          3D

 36 39  0  0  0  0  0  0  0  0999 V2000
    6.1710   -3.5680   21.8590 N   0  0  0  0  0  0  0  0  0  0  0  0
    7.2460   -5.0490   20.2800 C   0  0  0  0  0  0  0  0  0  0  0  0
    5.1570   -4.2230   19.8090 O   0  0  0  0  0  0  0  0  0  0  0  0
    6.0730   -4.2430   20.6330 C   0  0  0  0  0  0  0  0  0  0  0  0
    3.9740   -7.9230   24.7340 O   0  0  0  0  0  0  0  0  0  0  0  0
    3.4380   -6.9290   24.2540 C   0  0  0  0  0  0  0  0  0  0  0  0
    9.3160    0.8970   21.5100 O   0  0  0  0  0  0  0  0  0  0  0  0
    8.6710   -0.0220   22.0020 C   0  0  0  0  0  0  0  0  0  0  0  0
    9.0780   -0.5650   23.2210 C   0  0  0  0  0  0  0  0  0  0  0  0
    7.4400   -0.5750   21.3910 N   0  0  0  0  0  0  0  0  0  0  0  0
    7.2210   -2.5590   22.1090 C   0  0  0  0  0  0  0  0  0  0  0  0
    6.7430   -1.2370   22.0690 C   0  0  0  0  0  0  0  0  0  0  0  0
    5.5880   -4.0630   22.9660 C   0  0  0  0  0  0  0  0  0  0  0  0
    4.8540   -5.2350   22.9490 C   0  0  0  0  0  0  0  0  0  0  0  0
    4.2930   -5.6390   24.1430 C   0  0  0  0  0  0  0  0  0  0  0  0
    4.4320   -4.9370   25.3440 C   0  0  0  0  0  0  0  0  0  0  0  0
    5.1660   -3.7370   25.4530 C   0  0  0  0  0  0  0  0  0  0  0  0
    5.7520   -3.3320   24.1460 C   0  0  0  0  0  0  0  0  0  0  0  0
    1.4930   -5.6040   23.3900 C   0  0  0  0  0  0  0  0  0  0  0  0
    0.5920   -5.1480   24.3550 C   0  0  0  0  0  0  0  0  0  0  0  0
   -0.8120   -6.0940   24.4190 S   0  0  0  0  0  0  0  0  0  0  0  0
   -0.0400   -7.5760   24.7260 C   0  0  0  0  0  0  0  0  0  0  0  0
    1.0960   -7.9950   24.0250 C   0  0  0  0  0  0  0  0  0  0  0  0
    2.0370   -6.8910   23.7930 N   0  0  0  0  0  0  0  0  0  0  0  0
   11.0550   -1.4580   22.2940 C   0  0  0  0  0  0  0  0  0  0  0  0
   12.5320   -1.8250   22.3300 C   0  0  0  0  0  0  0  0  0  0  0  0
   13.2760   -1.0840   23.4230 C   0  0  0  0  0  0  0  0  0  0  0  0
   12.5250   -0.3550   24.5230 C   0  0  0  0  0  0  0  0  0  0  0  0
   11.1220   -0.8750   24.5760 C   0  0  0  0  0  0  0  0  0  0  0  0
   10.6270   -0.5660   23.2790 C   0  0  0  0  0  0  0  0  0  0  0  0
    5.5940    0.8730   20.5350 C   0  0  0  0  0  0  0  0  0  0  0  0
    4.8930    1.4770   19.3400 C   0  0  0  0  0  0  0  0  0  0  0  0
    5.3650    1.2000   17.9320 C   0  0  0  0  0  0  0  0  0  0  0  0
    6.5190    0.3220   17.8130 N   0  0  0  0  0  0  0  0  0  0  0  0
    7.0910   -0.1920   19.0120 C   0  0  0  0  0  0  0  0  0  0  0  0
    6.7000    0.0380   20.3220 C   0  0  0  0  0  0  0  0  0  0  0  0
  1  4  1  0
  2  4  1  0
  3  4  2  0
  5  6  2  0
  7  8  2  0
  8  9  1  0
  8 10  1  0
  1 11  1  0
 10 12  1  0
 11 12  1  0
  1 13  1  0
 13 14  2  0
  6 15  1  0
 14 15  1  0
 15 16  2  0
 16 17  1  0
 13 18  1  0
 17 18  2  0
 19 20  1  0
 20 21  1  0
 21 22  1  0
 22 23  1  0
  6 24  1  0
 19 24  1  0
 23 24  1  0
 25 26  1  0
 26 27  1  0
 27 28  1  0
 28 29  1  0
  9 30  1  0
 25 30  1  0
 29 30  1  0
 31 32  2  0
 32 33  1  0
 33 34  2  0
 34 35  1  0
 10 36  1  0
 31 36  1  0
 35 36  2  0
M  END
