x0786-x2540
     RDKit          3D

 44 47  0  0  0  0  0  0  0  0999 V2000
    7.7340   -0.6580   21.7130 N   0  0  0  0  0  0  0  0  0  0  0  0
    7.8400    2.5240   22.8970 N   0  0  0  0  0  0  0  0  0  0  0  0
    9.0710    1.7880   20.9400 O   0  0  0  0  0  0  0  0  0  0  0  0
    7.0700    0.5170   21.7710 C   0  0  1  0  0  0  0  0  0  0  0  0
    8.0380    1.6550   21.8700 C   0  0  0  0  0  0  0  0  0  0  0  0
    8.9180    3.3160   23.4740 C   0  0  0  0  0  0  0  0  0  0  0  0
    8.9080    3.2200   24.9850 C   0  0  0  0  0  0  0  0  0  0  0  0
    8.7730    4.7430   22.9710 C   0  0  0  0  0  0  0  0  0  0  0  0
   10.3140    2.8000   23.0570 C   0  0  0  0  0  0  0  0  0  0  0  0
   12.2840   -1.3120   23.7830 C   0  0  0  0  0  0  0  0  0  0  0  0
   12.9800   -1.1320   22.5820 C   0  0  0  0  0  0  0  0  0  0  0  0
   12.4730   -0.4390   24.8400 C   0  0  0  0  0  0  0  0  0  0  0  0
   12.5570   -2.5520   24.3240 C   0  0  0  0  0  0  0  0  0  0  0  0
    6.0730   -3.7080   21.9660 N   0  0  0  0  0  0  0  0  0  0  0  0
    7.8290   -4.6980   20.7270 C   0  0  0  0  0  0  0  0  0  0  0  0
    5.4900   -4.6810   19.9770 O   0  0  0  0  0  0  0  0  0  0  0  0
    6.3520   -4.3860   20.8200 C   0  0  0  0  0  0  0  0  0  0  0  0
    3.6130   -8.2920   24.9580 O   0  0  0  0  0  0  0  0  0  0  0  0
    3.1290   -7.1230   24.3330 C   0  0  0  0  0  0  0  0  0  0  0  0
    7.1870   -1.7990   21.2350 C   0  0  0  0  0  0  0  0  0  0  0  0
    6.8970   -2.6000   22.2940 C   0  0  0  0  0  0  0  0  0  0  0  0
    6.3560    0.2920   17.9280 N   0  0  0  0  0  0  0  0  0  0  0  0
    5.2190    1.1980   17.8180 C   0  0  0  0  0  0  0  0  0  0  0  0
    4.6550    1.8650   18.8850 C   0  0  0  0  0  0  0  0  0  0  0  0
    5.1010    1.7670   20.2020 C   0  0  0  0  0  0  0  0  0  0  0  0
    6.2900    0.8560   20.4320 C   0  0  0  0  0  0  0  0  0  0  0  0
    6.8980    0.1190   19.2580 C   0  0  0  0  0  0  0  0  0  0  0  0
    9.8460   -1.3970   24.4680 O   0  0  0  0  0  0  0  0  0  0  0  0
    8.5380   -1.2220   23.9700 N   0  0  0  0  0  0  0  0  0  0  0  0
    8.7190   -0.9200   22.6710 C   0  0  0  0  0  0  0  0  0  0  0  0
   10.1440   -0.8940   22.2830 C   0  0  0  0  0  0  0  0  0  0  0  0
   10.7980   -1.2030   23.4910 C   0  0  0  0  0  0  0  0  0  0  0  0
    5.5350   -4.1930   23.0530 C   0  0  0  0  0  0  0  0  0  0  0  0
    4.6540   -5.4100   23.0170 C   0  0  0  0  0  0  0  0  0  0  0  0
    4.0430   -5.9090   24.3100 C   0  0  0  0  0  0  0  0  0  0  0  0
    4.3940   -5.1180   25.5670 C   0  0  0  0  0  0  0  0  0  0  0  0
    5.2180   -4.0070   25.5440 C   0  0  0  0  0  0  0  0  0  0  0  0
    5.8110   -3.5210   24.2540 C   0  0  0  0  0  0  0  0  0  0  0  0
    1.3700   -5.6660   23.3380 C   0  0  0  0  0  0  0  0  0  0  0  0
    0.4440   -5.1600   24.2650 C   0  0  0  0  0  0  0  0  0  0  0  0
   -1.0710   -6.1440   24.3150 S   0  0  0  0  0  0  0  0  0  0  0  0
   -0.0320   -7.6160   24.9600 C   0  0  0  0  0  0  0  0  0  0  0  0
    0.9000   -8.0190   23.9930 C   0  0  0  0  0  0  0  0  0  0  0  0
    1.8880   -6.9690   23.7410 N   0  0  0  0  0  0  0  0  0  0  0  0
  1  4  1  0
  2  5  1  0
  3  5  2  0
  4  5  1  6
  6  2  1  0
  6  7  1  0
  6  8  1  0
  6  9  1  0
 10 11  1  0
 10 12  1  0
 10 13  1  0
 14 17  1  0
 15 17  1  0
 16 17  2  0
 18 19  2  0
  1 20  1  0
 14 21  1  0
 20 21  1  0
 22 23  2  0
 23 24  1  0
 24 25  2  0
  4 26  1  0
 25 26  1  0
 22 27  1  0
 26 27  2  0
 28 29  1  0
  1 30  1  0
 29 30  2  0
 30 31  1  0
 10 32  1  0
 28 32  1  0
 31 32  2  0
 14 33  1  0
 33 34  2  0
 19 35  1  0
 34 35  1  0
 35 36  2  0
 36 37  1  0
 33 38  1  0
 37 38  2  0
 39 40  1  0
 40 41  1  0
 41 42  1  0
 42 43  1  0
 19 44  1  0
 39 44  1  0
 43 44  1  0
M  END
