x0786-x2563
     RDKit          3D

 40 44  0  0  0  0  0  0  0  0999 V2000
    6.3310   -4.0530   21.9000 N   0  0  0  0  0  0  0  0  0  0  0  0
    7.1330   -5.3950   20.0710 C   0  0  0  0  0  0  0  0  0  0  0  0
    5.1370   -4.3820   19.8600 O   0  0  0  0  0  0  0  0  0  0  0  0
    6.0790   -4.5670   20.6250 C   0  0  0  0  0  0  0  0  0  0  0  0
    3.8130   -8.0160   24.8280 O   0  0  0  0  0  0  0  0  0  0  0  0
    3.3250   -7.0180   24.3130 C   0  0  0  0  0  0  0  0  0  0  0  0
    8.3050   -0.4300   21.2050 C   0  0  0  0  0  0  0  0  0  0  0  0
    8.4010    0.7980   21.0620 O   0  0  0  0  0  0  0  0  0  0  0  0
    7.2930   -1.1170   20.6080 C   0  0  1  0  0  0  0  0  0  0  0  0
    9.2110   -1.2330   21.9950 N   0  0  0  0  0  0  0  0  0  0  0  0
    7.2210   -2.9250   22.0660 C   0  0  0  0  0  0  0  0  0  0  0  0
    6.6150   -1.7860   21.5660 C   0  0  0  0  0  0  0  0  0  0  0  0
    5.6350   -4.3760   22.9760 C   0  0  0  0  0  0  0  0  0  0  0  0
    4.8910   -5.5190   23.0220 C   0  0  0  0  0  0  0  0  0  0  0  0
    4.2020   -5.7600   24.1750 C   0  0  0  0  0  0  0  0  0  0  0  0
    4.2190   -4.9160   25.2960 C   0  0  0  0  0  0  0  0  0  0  0  0
    4.9620   -3.7170   25.3390 C   0  0  0  0  0  0  0  0  0  0  0  0
    5.6920   -3.4940   24.0650 C   0  0  0  0  0  0  0  0  0  0  0  0
    1.4670   -5.6240   23.4080 C   0  0  0  0  0  0  0  0  0  0  0  0
    0.5600   -5.1490   24.3600 C   0  0  0  0  0  0  0  0  0  0  0  0
   -0.8730   -6.0530   24.3950 S   0  0  0  0  0  0  0  0  0  0  0  0
   -0.1500   -7.5560   24.7130 C   0  0  0  0  0  0  0  0  0  0  0  0
    0.9700   -8.0090   24.0120 C   0  0  0  0  0  0  0  0  0  0  0  0
    1.9490   -6.9380   23.8070 N   0  0  0  0  0  0  0  0  0  0  0  0
    6.2080    0.8000   17.4620 N   0  0  0  0  0  0  0  0  0  0  0  0
    5.0740    1.6100   17.8730 C   0  0  0  0  0  0  0  0  0  0  0  0
    4.5640    1.5690   19.3020 C   0  0  0  0  0  0  0  0  0  0  0  0
    5.3220    0.6380   20.2480 C   0  0  0  0  0  0  0  0  0  0  0  0
    6.4880   -0.1890   19.8110 C   0  0  0  0  0  0  0  0  0  0  0  0
    6.8760   -0.0560   18.4070 C   0  0  0  0  0  0  0  0  0  0  0  0
    3.4630    2.3600   19.6650 C   0  0  0  0  0  0  0  0  0  0  0  0
    3.0110    2.3190   20.9770 C   0  0  0  0  0  0  0  0  0  0  0  0
    3.6490    1.4600   22.0350 C   0  0  0  0  0  0  0  0  0  0  0  0
    4.8150    0.6080   21.6650 C   0  0  0  0  0  0  0  0  0  0  0  0
   11.5270   -0.7920   22.4220 C   0  0  0  0  0  0  0  0  0  0  0  0
   12.4160   -0.0550   23.1440 C   0  0  0  0  0  0  0  0  0  0  0  0
   11.8640    0.9020   24.1390 C   0  0  0  0  0  0  0  0  0  0  0  0
   10.5020    1.0590   24.3590 C   0  0  0  0  0  0  0  0  0  0  0  0
    9.6490    0.3030   23.6140 C   0  0  0  0  0  0  0  0  0  0  0  0
   10.1700   -0.5770   22.6830 C   0  0  0  0  0  0  0  0  0  0  0  0
  1  4  1  0
  2  4  1  0
  3  4  2  0
  5  6  2  0
  7  8  2  0
  7  9  1  0
  7 10  1  0
  1 11  1  0
  9 12  1  1
 11 12  1  0
  1 13  1  0
 13 14  2  0
  6 15  1  0
 14 15  1  0
 15 16  2  0
 16 17  1  0
 13 18  1  0
 17 18  2  0
 19 20  1  0
 20 21  1  0
 21 22  1  0
 22 23  1  0
  6 24  1  0
 19 24  1  0
 23 24  1  0
 25 26  2  0
 26 27  1  0
 27 28  2  0
  9 29  1  0
 28 29  1  0
 25 30  1  0
 29 30  2  0
 27 31  1  0
 31 32  2  0
 32 33  1  0
 28 34  1  0
 33 34  2  0
 35 36  2  0
 36 37  1  0
 37 38  2  0
 38 39  1  0
 10 40  1  0
 35 40  1  0
 39 40  2  0
M  END
