x0786-x2581
     RDKit          3D

 42 46  0  0  0  0  0  0  0  0999 V2000
    6.3390   -3.6950   21.9900 N   0  0  0  0  0  0  0  0  0  0  0  0
    7.3230   -5.0700   20.2820 C   0  0  0  0  0  0  0  0  0  0  0  0
    5.2500   -4.2260   19.8740 O   0  0  0  0  0  0  0  0  0  0  0  0
    6.1780   -4.2880   20.7080 C   0  0  0  0  0  0  0  0  0  0  0  0
    3.9590   -7.9690   24.7190 O   0  0  0  0  0  0  0  0  0  0  0  0
    3.4150   -6.9580   24.2940 C   0  0  0  0  0  0  0  0  0  0  0  0
    9.1510   -2.5090   23.7740 C   0  0  0  0  0  0  0  0  0  0  0  0
   10.0830   -1.7460   23.4370 O   0  0  0  0  0  0  0  0  0  0  0  0
   10.4940    3.3110   22.1340 N   0  0  0  0  0  0  0  0  0  0  0  0
   11.0280    3.6820   24.4220 O   0  0  0  0  0  0  0  0  0  0  0  0
   11.1280    3.9720   23.2560 C   0  0  0  0  0  0  0  0  0  0  0  0
   11.9600    5.1980   22.8930 C   0  0  0  0  0  0  0  0  0  0  0  0
    7.4630   -2.7770   22.3250 C   0  0  0  0  0  0  0  0  0  0  0  0
    8.6980   -3.3370   22.7220 C   0  0  0  0  0  0  0  0  0  0  0  0
    5.6160   -4.1670   23.1490 C   0  0  0  0  0  0  0  0  0  0  0  0
    4.8620   -5.3300   23.1970 C   0  0  0  0  0  0  0  0  0  0  0  0
    4.1720   -5.7380   24.3530 C   0  0  0  0  0  0  0  0  0  0  0  0
    4.1940   -5.0040   25.5560 C   0  0  0  0  0  0  0  0  0  0  0  0
    5.0170   -3.7730   25.4530 C   0  0  0  0  0  0  0  0  0  0  0  0
    5.6830   -3.4000   24.2940 C   0  0  0  0  0  0  0  0  0  0  0  0
    1.5470   -5.6070   23.3250 C   0  0  0  0  0  0  0  0  0  0  0  0
    0.7090   -5.1010   24.3170 C   0  0  0  0  0  0  0  0  0  0  0  0
   -0.8060   -6.0970   24.3860 S   0  0  0  0  0  0  0  0  0  0  0  0
    0.0270   -7.6140   24.8080 C   0  0  0  0  0  0  0  0  0  0  0  0
    0.9950   -7.9720   23.8520 C   0  0  0  0  0  0  0  0  0  0  0  0
    2.0450   -6.9260   23.7490 N   0  0  0  0  0  0  0  0  0  0  0  0
    8.7780    1.7860   21.2190 N   0  0  0  0  0  0  0  0  0  0  0  0
    9.9100    2.0350   22.0840 C   0  0  0  0  0  0  0  0  0  0  0  0
   10.4250    0.8610   22.8760 C   0  0  0  0  0  0  0  0  0  0  0  0
    9.7910   -0.5140   22.7930 C   0  0  0  0  0  0  0  0  0  0  0  0
    8.6160   -0.6270   21.8470 C   0  0  0  0  0  0  0  0  0  0  0  0
    8.2200    0.5570   21.1460 C   0  0  0  0  0  0  0  0  0  0  0  0
    9.9360    6.6880   22.8590 C   0  0  0  0  0  0  0  0  0  0  0  0
    9.0900    7.8340   23.3600 C   0  0  0  0  0  0  0  0  0  0  0  0
    9.5770    8.6800   24.5250 C   0  0  0  0  0  0  0  0  0  0  0  0
   10.9260    8.2830   25.1120 C   0  0  0  0  0  0  0  0  0  0  0  0
   11.6550    7.2140   24.6050 C   0  0  0  0  0  0  0  0  0  0  0  0
   11.1730    6.3750   23.4450 C   0  0  0  0  0  0  0  0  0  0  0  0
    8.8820    9.7610   25.0540 C   0  0  0  0  0  0  0  0  0  0  0  0
    9.4360   10.4750   26.1270 C   0  0  0  0  0  0  0  0  0  0  0  0
   10.6740   10.1190   26.6780 C   0  0  0  0  0  0  0  0  0  0  0  0
   11.4100    9.0380   26.1810 C   0  0  0  0  0  0  0  0  0  0  0  0
  1  4  1  0
  2  4  1  0
  3  4  2  0
  5  6  2  0
  7  8  1  0
  9 11  1  0
 10 11  2  0
 11 12  1  0
  1 13  1  0
  7 14  1  0
 13 14  1  0
  1 15  1  0
 15 16  2  0
  6 17  1  0
 16 17  1  0
 17 18  2  0
 18 19  1  0
 15 20  1  0
 19 20  2  0
 21 22  1  0
 22 23  1  0
 23 24  1  0
 24 25  1  0
  6 26  1  0
 21 26  1  0
 25 26  1  0
  9 28  1  0
 27 28  2  0
 28 29  1  0
  8 30  1  0
 29 30  2  0
 30 31  1  0
 27 32  1  0
 31 32  2  0
 33 34  2  0
 34 35  1  0
 35 36  2  0
 36 37  1  0
 12 38  1  0
 33 38  1  0
 37 38  2  0
 35 39  1  0
 39 40  2  0
 40 41  1  0
 36 42  1  0
 41 42  2  0
M  END
