x0786-x2776
     RDKit          3D

 50 54  0  0  0  0  0  0  0  0999 V2000
    7.1900   -0.9120   21.9100 N   0  0  0  0  0  0  0  0  0  0  0  0
    7.8470    2.1190   23.0200 N   0  0  0  0  0  0  0  0  0  0  0  0
    8.9650    1.4600   20.9640 O   0  0  0  0  0  0  0  0  0  0  0  0
   10.8360    6.9060   23.8210 O   0  0  0  0  0  0  0  0  0  0  0  0
    6.7780    0.3650   21.6720 C   0  0  1  0  0  0  0  0  0  0  0  0
   12.3640   -2.8170   25.0350 O   0  0  0  0  0  0  0  0  0  0  0  0
    7.9150    1.3440   21.8930 C   0  0  0  0  0  0  0  0  0  0  0  0
   10.4980    1.8340   23.8170 C   0  0  0  0  0  0  0  0  0  0  0  0
   11.8720    6.8630   24.8010 C   0  0  0  0  0  0  0  0  0  0  0  0
   12.2360   -1.4830   24.5700 C   0  0  1  0  0  0  0  0  0  0  0  0
   13.2680   -1.0990   23.5200 C   0  0  0  0  0  0  0  0  0  0  0  0
   13.6660   -3.0260   25.5100 C   0  0  0  0  0  0  0  0  0  0  0  0
    6.2090   -3.9780   21.8480 N   0  0  0  0  0  0  0  0  0  0  0  0
    7.1080   -5.3310   20.0850 C   0  0  0  0  0  0  0  0  0  0  0  0
    5.0610   -4.4270   19.8450 O   0  0  0  0  0  0  0  0  0  0  0  0
    6.0040   -4.5550   20.6080 C   0  0  0  0  0  0  0  0  0  0  0  0
    3.7280   -8.0620   24.8300 O   0  0  0  0  0  0  0  0  0  0  0  0
    3.2720   -7.0380   24.3310 C   0  0  0  0  0  0  0  0  0  0  0  0
    7.0150   -1.9420   21.1400 C   0  0  0  0  0  0  0  0  0  0  0  0
    7.0980   -3.0190   21.9960 C   0  0  0  0  0  0  0  0  0  0  0  0
    6.3710    0.4550   17.8440 N   0  0  0  0  0  0  0  0  0  0  0  0
    5.1940    1.3230   17.7840 C   0  0  0  0  0  0  0  0  0  0  0  0
    4.6050    1.8050   18.9610 C   0  0  0  0  0  0  0  0  0  0  0  0
    5.1360    1.4730   20.1940 C   0  0  0  0  0  0  0  0  0  0  0  0
    6.2440    0.6660   20.2830 C   0  0  0  0  0  0  0  0  0  0  0  0
    6.8490    0.1620   19.1550 C   0  0  0  0  0  0  0  0  0  0  0  0
    9.8920    3.1770   23.6020 C   0  0  0  0  0  0  0  0  0  0  0  0
   10.7670    4.3820   23.8300 C   0  0  0  0  0  0  0  0  0  0  0  0
   10.1680    5.7370   23.6310 C   0  0  0  0  0  0  0  0  0  0  0  0
    8.7230    5.8720   23.1910 C   0  0  0  0  0  0  0  0  0  0  0  0
    7.9170    4.5900   22.9760 C   0  0  0  0  0  0  0  0  0  0  0  0
    8.5610    3.3140   23.2030 C   0  0  0  0  0  0  0  0  0  0  0  0
    9.4570   -1.5630   21.8770 C   0  0  0  0  0  0  0  0  0  0  0  0
   10.7970   -1.7370   22.5170 C   0  0  0  0  0  0  0  0  0  0  0  0
   10.9850   -1.3570   23.9720 C   0  0  0  0  0  0  0  0  0  0  0  0
    9.7720   -0.8300   24.7130 C   0  0  0  0  0  0  0  0  0  0  0  0
    8.5640   -0.6980   24.0550 C   0  0  0  0  0  0  0  0  0  0  0  0
    8.3800   -1.0570   22.5980 C   0  0  0  0  0  0  0  0  0  0  0  0
    5.5730   -4.3750   23.0110 C   0  0  0  0  0  0  0  0  0  0  0  0
    4.7630   -5.4820   23.1180 C   0  0  0  0  0  0  0  0  0  0  0  0
    4.1370   -5.8520   24.2780 C   0  0  0  0  0  0  0  0  0  0  0  0
    4.3270   -5.0720   25.4210 C   0  0  0  0  0  0  0  0  0  0  0  0
    5.1370   -3.9440   25.3700 C   0  0  0  0  0  0  0  0  0  0  0  0
    5.7530   -3.6050   24.1690 C   0  0  0  0  0  0  0  0  0  0  0  0
    1.4220   -5.6240   23.4350 C   0  0  0  0  0  0  0  0  0  0  0  0
    0.4970   -5.1070   24.3290 C   0  0  0  0  0  0  0  0  0  0  0  0
   -0.9870   -6.1490   24.4150 S   0  0  0  0  0  0  0  0  0  0  0  0
   -0.1320   -7.7010   24.8730 C   0  0  0  0  0  0  0  0  0  0  0  0
    1.0610   -8.0450   23.9740 C   0  0  0  0  0  0  0  0  0  0  0  0
    1.9850   -6.9230   23.8090 N   0  0  0  0  0  0  0  0  0  0  0  0
  1  5  1  0
  2  7  1  0
  3  7  2  0
  5  7  1  6
  4  9  1  0
  6 10  1  0
 10 11  1  6
  6 12  1  0
 13 16  1  0
 14 16  1  0
 15 16  2  0
 17 18  2  0
  1 19  1  0
 13 20  1  0
 19 20  1  0
 21 22  2  0
 22 23  1  0
 23 24  2  0
  5 25  1  0
 24 25  1  0
 21 26  1  0
 25 26  2  0
  8 27  1  0
 27 28  2  0
  4 29  1  0
 28 29  1  0
 29 30  2  0
 30 31  1  0
  2 32  1  0
 27 32  1  0
 31 32  2  0
 33 34  2  0
 10 35  1  0
 34 35  1  0
 35 36  2  0
 36 37  1  0
  1 38  1  0
 33 38  1  0
 37 38  2  0
 13 39  1  0
 39 40  2  0
 18 41  1  0
 40 41  1  0
 41 42  2  0
 42 43  1  0
 39 44  1  0
 43 44  2  0
 45 46  1  0
 46 47  1  0
 47 48  1  0
 48 49  1  0
 18 50  1  0
 45 50  1  0
 49 50  1  0
M  END
