x0786-x0820-x2694
     RDKit          3D

 54 59  0  0  0  0  0  0  0  0999 V2000
    7.6350   -1.5830   22.1830 N   0  0  0  0  0  0  0  0  0  0  0  0
    7.6790    2.0970   22.9590 N   0  0  0  0  0  0  0  0  0  0  0  0
    8.9930    1.2970   21.1430 O   0  0  0  0  0  0  0  0  0  0  0  0
   10.9720    6.6390   23.8910 O   0  0  0  0  0  0  0  0  0  0  0  0
    7.0480   -0.2470   21.8980 C   0  0  1  0  0  0  0  0  0  0  0  0
    7.9060    1.0570   22.0510 C   0  0  0  0  0  0  0  0  0  0  0  0
   10.2800    1.7770   24.0690 C   0  0  0  0  0  0  0  0  0  0  0  0
   11.8310    6.5230   24.7730 C   0  0  0  0  0  0  0  0  0  0  0  0
   12.4610   -1.4060   23.1460 C   0  0  0  0  0  0  0  0  0  0  0  0
   12.9520   -0.1220   23.3750 C   0  0  0  0  0  0  0  0  0  0  0  0
   12.9490   -1.9920   21.7970 C   0  0  0  0  0  0  0  0  0  0  0  0
   12.9990   -2.2250   24.2010 C   0  0  0  0  0  0  0  0  0  0  0  0
    5.9950   -3.2610   21.5370 N   0  0  0  0  0  0  0  0  0  0  0  0
    5.5470   -4.9270   20.0160 O   0  0  0  0  0  0  0  0  0  0  0  0
    6.9990   -2.9920   22.3900 C   0  0  2  0  0  0  0  0  0  0  0  0
    6.1170   -3.8650   20.2830 C   0  0  0  0  0  0  0  0  0  0  0  0
    6.9480   -3.1900   19.2220 C   0  0  0  0  0  0  0  0  0  0  0  0
    6.4280    0.0600   18.0510 N   0  0  0  0  0  0  0  0  0  0  0  0
    5.2670    0.7630   18.0710 C   0  0  0  0  0  0  0  0  0  0  0  0
    4.6310    1.1460   19.2350 C   0  0  0  0  0  0  0  0  0  0  0  0
    5.2350    0.7860   20.4520 C   0  0  0  0  0  0  0  0  0  0  0  0
    6.4410    0.0620   20.4850 C   0  0  0  0  0  0  0  0  0  0  0  0
    6.9990   -0.2820   19.2460 C   0  0  0  0  0  0  0  0  0  0  0  0
    8.9600   -1.1200   24.1380 N   0  0  0  0  0  0  0  0  0  0  0  0
   10.3440   -1.0890   24.3570 O   0  0  0  0  0  0  0  0  0  0  0  0
   10.9600   -1.3500   23.3120 C   0  0  0  0  0  0  0  0  0  0  0  0
   10.0840   -1.5870   22.2840 C   0  0  0  0  0  0  0  0  0  0  0  0
    8.8480   -1.4290   22.8550 C   0  0  0  0  0  0  0  0  0  0  0  0
    9.7410    3.1300   23.7040 C   0  0  0  0  0  0  0  0  0  0  0  0
   10.5660    4.2410   23.9350 C   0  0  0  0  0  0  0  0  0  0  0  0
   10.1640    5.5410   23.6440 C   0  0  0  0  0  0  0  0  0  0  0  0
    8.8870    5.7140   23.0830 C   0  0  0  0  0  0  0  0  0  0  0  0
    8.0500    4.5930   22.8420 C   0  0  0  0  0  0  0  0  0  0  0  0
    8.4680    3.2830   23.1570 C   0  0  0  0  0  0  0  0  0  0  0  0
    6.4280   -3.7370   23.7000 C   0  0  0  0  0  0  0  0  0  0  0  0
    7.1290   -3.9910   24.9470 C   0  0  0  0  0  0  0  0  0  0  0  0
    6.5110   -4.6420   26.0180 C   0  0  0  0  0  0  0  0  0  0  0  0
    5.2490   -5.0310   25.8500 C   0  0  0  0  0  0  0  0  0  0  0  0
    4.6550   -4.7990   24.6480 C   0  0  0  0  0  0  0  0  0  0  0  0
    5.0830   -4.1760   23.4400 C   0  0  0  0  0  0  0  0  0  0  0  0
    7.1110   -4.9260   27.2490 C   0  0  0  0  0  0  0  0  0  0  0  0
    8.4220   -4.5720   27.4570 C   0  0  0  0  0  0  0  0  0  0  0  0
    9.0970   -3.9290   26.4250 C   0  0  0  0  0  0  0  0  0  0  0  0
    8.4670   -3.6390   25.2100 C   0  0  0  0  0  0  0  0  0  0  0  0
    3.6840   -7.9250   24.7840 O   0  0  0  0  0  0  0  0  0  0  0  0
    3.1390   -7.0650   24.0750 C   0  0  0  0  0  0  0  0  0  0  0  0
    1.1770   -5.7590   23.2970 C   0  0  0  0  0  0  0  0  0  0  0  0
    0.0820   -5.0570   24.1170 C   0  0  0  0  0  0  0  0  0  0  0  0
   -1.2700   -6.2060   24.5120 S   0  0  0  0  0  0  0  0  0  0  0  0
   -0.3080   -7.6320   25.1310 C   0  0  0  0  0  0  0  0  0  0  0  0
    0.8980   -8.0430   24.2160 C   0  0  0  0  0  0  0  0  0  0  0  0
    1.7760   -6.9110   23.9590 N   0  0  0  0  0  0  0  0  0  0  0  0
    3.7200   -4.7460   23.4660 C   0  0  0  0  0  0  0  0  0  0  0  0
    3.9780   -6.1160   23.2560 C   0  0  0  0  0  0  0  0  0  0  0  0
  1  5  1  0
  2  6  1  0
  3  6  2  0
  5  6  1  6
  4  8  1  0
  9 10  1  0
  9 11  1  0
  9 12  1  0
  1 15  1  0
 15 13  1  6
 13 16  1  0
 14 16  2  0
 16 17  1  0
 18 19  2  0
 19 20  1  0
 20 21  2  0
  5 22  1  0
 21 22  1  0
 18 23  1  0
 22 23  2  0
 24 25  1  0
  9 26  1  0
 25 26  1  0
 26 27  2  0
  1 28  1  0
 24 28  2  0
 27 28  1  0
  7 29  1  0
 29 30  2  0
  4 31  1  0
 30 31  1  0
 31 32  2  0
 32 33  1  0
  2 34  1  0
 29 34  1  0
 33 34  2  0
 15 35  1  0
 35 36  2  0
 36 37  1  0
 37 38  2  0
 38 39  1  0
 35 40  1  0
 39 40  2  0
 37 41  1  0
 41 42  2  0
 42 43  1  0
 36 44  1  0
 43 44  2  0
 45 46  2  0
 47 48  1  0
 48 49  1  0
 49 50  1  0
 50 51  1  0
 46 52  1  0
 47 52  1  0
 51 52  1  0
 40 53  1  0
 46 54  1  0
 53 54  1  0
M  END
