x0786-x3080
     RDKit          3D

 46 51  0  0  0  0  0  0  0  0999 V2000
    9.8410   -0.4500   23.4600 N   0  0  0  0  0  0  0  0  0  0  0  0
   10.8620    0.5810   23.6660 C   0  0  0  0  0  0  0  0  0  0  0  0
    9.3610    0.9980   20.8880 O   0  0  0  0  0  0  0  0  0  0  0  0
    9.7530   -1.0320   22.1080 C   0  0  0  0  0  0  0  0  0  0  0  0
    7.8400   -0.6830   20.6820 N   0  0  0  0  0  0  0  0  0  0  0  0
    7.6430   -1.2850   24.1900 N   0  0  0  0  0  0  0  0  0  0  0  0
    8.9760   -0.1350   21.1620 C   0  0  0  0  0  0  0  0  0  0  0  0
    8.9750    0.1760   25.6760 O   0  0  0  0  0  0  0  0  0  0  0  0
    5.4180    0.6100   21.6430 C   0  0  0  0  0  0  0  0  0  0  0  0
    8.9080   -0.8850   24.7220 S   0  0  2  0  0  0  0  0  0  0  0  0
    6.8570   -4.3210   21.9140 N   0  0  0  0  0  0  0  0  0  0  0  0
    7.7790   -4.7720   19.8340 C   0  0  0  0  0  0  0  0  0  0  0  0
    5.4640   -4.2480   20.1170 O   0  0  0  0  0  0  0  0  0  0  0  0
    6.5600   -4.4160   20.6200 C   0  0  0  0  0  0  0  0  0  0  0  0
    3.7650   -7.8680   24.7790 O   0  0  0  0  0  0  0  0  0  0  0  0
    3.3330   -6.8120   24.3220 C   0  0  0  0  0  0  0  0  0  0  0  0
    7.3810   -2.2970   23.4310 C   0  0  0  0  0  0  0  0  0  0  0  0
    7.1190   -3.3090   22.6730 C   0  0  0  0  0  0  0  0  0  0  0  0
    6.5610    0.6280   17.4800 N   0  0  0  0  0  0  0  0  0  0  0  0
    5.4750    1.2720   17.9180 C   0  0  0  0  0  0  0  0  0  0  0  0
    5.0770    1.2870   19.2400 C   0  0  0  0  0  0  0  0  0  0  0  0
    5.8310    0.6110   20.1940 C   0  0  0  0  0  0  0  0  0  0  0  0
    6.9840   -0.0590   19.7480 C   0  0  0  0  0  0  0  0  0  0  0  0
    7.2950   -0.0260   18.3880 C   0  0  0  0  0  0  0  0  0  0  0  0
   11.9040   -1.5190   25.0720 N   0  0  0  0  0  0  0  0  0  0  0  0
   11.0710   -2.4970   25.5360 C   0  0  0  0  0  0  0  0  0  0  0  0
   11.5520   -3.6920   26.1240 C   0  0  0  0  0  0  0  0  0  0  0  0
   12.9550   -3.8350   26.2150 C   0  0  0  0  0  0  0  0  0  0  0  0
   13.7740   -2.8530   25.7500 C   0  0  0  0  0  0  0  0  0  0  0  0
   13.2060   -1.7220   25.1890 C   0  0  0  0  0  0  0  0  0  0  0  0
    8.7980   -3.2780   25.9140 C   0  0  0  0  0  0  0  0  0  0  0  0
    9.2860   -4.4450   26.4790 C   0  0  0  0  0  0  0  0  0  0  0  0
   10.6270   -4.6590   26.5870 C   0  0  0  0  0  0  0  0  0  0  0  0
    9.6590   -2.3220   25.4450 C   0  0  0  0  0  0  0  0  0  0  0  0
    5.9790   -4.4620   23.0000 C   0  0  0  0  0  0  0  0  0  0  0  0
    5.1220   -5.5520   23.1050 C   0  0  0  0  0  0  0  0  0  0  0  0
    4.2610   -5.6390   24.1990 C   0  0  0  0  0  0  0  0  0  0  0  0
    4.2560   -4.6240   25.1480 C   0  0  0  0  0  0  0  0  0  0  0  0
    5.1060   -3.5380   25.0230 C   0  0  0  0  0  0  0  0  0  0  0  0
    5.9690   -3.4500   23.9540 C   0  0  0  0  0  0  0  0  0  0  0  0
    1.5580   -5.4650   23.2350 C   0  0  0  0  0  0  0  0  0  0  0  0
    0.4650   -4.8160   24.0540 C   0  0  0  0  0  0  0  0  0  0  0  0
   -0.9740   -5.8780   24.2380 S   0  0  0  0  0  0  0  0  0  0  0  0
   -0.0870   -7.2920   24.9110 C   0  0  0  0  0  0  0  0  0  0  0  0
    1.0610   -7.7310   24.0310 C   0  0  0  0  0  0  0  0  0  0  0  0
    2.0650   -6.6690   23.9060 N   0  0  0  0  0  0  0  0  0  0  0  0
  1  2  1  0
  1  4  1  0
  3  7  2  0
  4  7  1  0
  5  7  1  0
 10  1  1  6
  6 10  2  0
  8 10  2  0
 11 14  1  0
 12 14  1  0
 13 14  2  0
 15 16  2  0
  6 17  1  0
 11 18  1  0
 17 18  2  0
 19 20  2  0
 20 21  1  0
  9 22  1  0
 21 22  2  0
  5 23  1  0
 22 23  1  0
 19 24  1  0
 23 24  2  0
 25 26  2  0
 26 27  1  0
 27 28  2  0
 28 29  1  0
 25 30  1  0
 29 30  2  0
 31 32  1  0
 27 33  1  0
 32 33  2  0
 10 34  1  0
 26 34  1  0
 31 34  2  0
 11 35  1  0
 35 36  2  0
 16 37  1  0
 36 37  1  0
 37 38  2  0
 38 39  1  0
 17 40  1  0
 35 40  1  0
 39 40  2  0
 41 42  1  0
 42 43  1  0
 43 44  1  0
 44 45  1  0
 16 46  1  0
 41 46  1  0
 45 46  1  0
M  END
