x0786-x0967
     RDKit          3D

 40 42  0  0  0  0  0  0  0  0999 V2000
    7.7530    4.8630   22.3600 C   0  0  0  0  0  0  0  0  0  0  0  0
    7.0360    2.4770   22.0940 N   0  0  0  0  0  0  0  0  0  0  0  0
    6.1560    3.8290   24.0640 O   0  0  0  0  0  0  0  0  0  0  0  0
    6.9360    3.6910   22.8850 C   0  0  0  0  0  0  0  0  0  0  0  0
    9.3340   -0.5300   22.9640 N   0  0  0  0  0  0  0  0  0  0  0  0
    5.9120    1.0710   17.0910 O   0  0  0  0  0  0  0  0  0  0  0  0
    7.4320    1.2080   22.6750 C   0  0  1  0  0  0  0  0  0  0  0  0
    9.4540    1.3270   21.2380 O   0  0  0  0  0  0  0  0  0  0  0  0
    6.2840    0.1720   22.7810 C   0  0  0  0  0  0  0  0  0  0  0  0
    8.7740    0.6540   22.2660 C   0  0  0  0  0  0  0  0  0  0  0  0
    9.5340   -1.6390   22.0150 C   0  0  1  0  0  0  0  0  0  0  0  0
   10.8790   -2.0520   21.9120 C   0  0  0  0  0  0  0  0  0  0  0  0
   11.8190   -2.0270   22.9440 C   0  0  0  0  0  0  0  0  0  0  0  0
   13.1400   -2.0720   24.3120 Br  0  0  0  0  0  0  0  0  0  0  0  0
    6.4640   -3.4380   21.9580 N   0  0  0  0  0  0  0  0  0  0  0  0
    8.0160   -4.4840   20.6030 C   0  0  0  0  0  0  0  0  0  0  0  0
    5.6590   -4.4340   19.9620 O   0  0  0  0  0  0  0  0  0  0  0  0
    6.5800   -4.1350   20.7800 C   0  0  0  0  0  0  0  0  0  0  0  0
    3.8960   -8.1240   24.8100 O   0  0  0  0  0  0  0  0  0  0  0  0
    3.3320   -6.9730   24.2170 C   0  0  0  0  0  0  0  0  0  0  0  0
    8.5970   -2.8090   22.3820 C   0  0  0  0  0  0  0  0  0  0  0  0
    7.1490   -2.5090   22.1290 C   0  0  0  0  0  0  0  0  0  0  0  0
    6.1960    0.4390   21.3040 C   0  0  0  0  0  0  0  0  0  0  0  0
    7.0270   -0.2620   20.4220 C   0  0  0  0  0  0  0  0  0  0  0  0
    6.9570   -0.0780   19.0470 C   0  0  0  0  0  0  0  0  0  0  0  0
    6.0600    0.8170   18.4740 C   0  0  0  0  0  0  0  0  0  0  0  0
    5.1920    1.5720   19.2590 C   0  0  0  0  0  0  0  0  0  0  0  0
    5.2680    1.3670   20.7670 C   0  0  0  0  0  0  0  0  0  0  0  0
    5.7530   -3.9370   23.1220 C   0  0  0  0  0  0  0  0  0  0  0  0
    4.9430   -5.1970   23.0050 C   0  0  0  0  0  0  0  0  0  0  0  0
    4.1910   -5.7080   24.2220 C   0  0  0  0  0  0  0  0  0  0  0  0
    4.2920   -4.9500   25.4560 C   0  0  0  0  0  0  0  0  0  0  0  0
    5.0690   -3.7870   25.4940 C   0  0  0  0  0  0  0  0  0  0  0  0
    5.8330   -3.2420   24.3050 C   0  0  0  0  0  0  0  0  0  0  0  0
    1.5570   -5.6030   23.2770 C   0  0  0  0  0  0  0  0  0  0  0  0
    0.6210   -5.0940   24.3690 C   0  0  0  0  0  0  0  0  0  0  0  0
   -0.9490   -5.9910   24.2420 S   0  0  0  0  0  0  0  0  0  0  0  0
   -0.0440   -7.5280   24.8930 C   0  0  0  0  0  0  0  0  0  0  0  0
    1.0500   -7.9530   23.9100 C   0  0  0  0  0  0  0  0  0  0  0  0
    2.0550   -6.9120   23.6590 N   0  0  0  0  0  0  0  0  0  0  0  0
  1  4  1  0
  2  4  1  0
  3  4  2  0
  2  7  1  0
  7  9  1  6
  5 10  1  0
  7 10  1  0
  8 10  2  0
  5 11  1  0
 11 12  1  1
 12 13  3  0
 13 14  1  0
 15 18  1  0
 16 18  1  0
 17 18  2  0
 19 20  2  0
 11 21  1  0
 15 22  1  0
 21 22  1  0
  9 23  1  0
 23 24  2  0
 24 25  1  0
  6 26  1  0
 25 26  2  0
 26 27  1  0
 23 28  1  0
 27 28  2  0
 15 29  1  0
 29 30  2  0
 20 31  1  0
 30 31  1  0
 31 32  2  0
 32 33  1  0
 29 34  1  0
 33 34  2  0
 35 36  1  0
 36 37  1  0
 37 38  1  0
 38 39  1  0
 20 40  1  0
 35 40  1  0
 39 40  1  0
M  END
