x0786-x3115-x2776
     RDKit          3D

 50 54  0  0  0  0  0  0  0  0999 V2000
    6.9540   -1.2150   21.9340 N   0  0  0  0  0  0  0  0  0  0  0  0
    8.0140    1.8400   23.0470 N   0  0  0  0  0  0  0  0  0  0  0  0
    8.6060    1.3330   20.9660 O   0  0  0  0  0  0  0  0  0  0  0  0
    6.6690    0.1330   21.8170 C   0  0  1  0  0  0  0  0  0  0  0  0
    7.8300    1.1170   21.9060 C   0  0  0  0  0  0  0  0  0  0  0  0
    8.1770    6.7870   22.4410 C   0  0  0  0  0  0  0  0  0  0  0  0
   12.3010   -1.7830   24.0010 C   0  0  0  0  0  0  0  0  0  0  0  0
   13.4330   -2.3540   23.1530 C   0  0  0  0  0  0  0  0  0  0  0  0
   12.8030   -2.8490   24.9420 C   0  0  0  0  0  0  0  0  0  0  0  0
   12.6520   -0.8530   25.1010 C   0  0  0  0  0  0  0  0  0  0  0  0
   10.9300    6.5850   23.6130 O   0  0  0  0  0  0  0  0  0  0  0  0
   10.5890    1.7540   24.0370 C   0  0  0  0  0  0  0  0  0  0  0  0
   11.8110    6.5480   24.7590 C   0  0  0  0  0  0  0  0  0  0  0  0
    6.1670   -3.5620   21.9630 N   0  0  0  0  0  0  0  0  0  0  0  0
    7.5870   -4.6870   20.5090 C   0  0  0  0  0  0  0  0  0  0  0  0
    5.2990   -4.5230   19.9610 O   0  0  0  0  0  0  0  0  0  0  0  0
    6.2230   -4.2720   20.7560 C   0  0  0  0  0  0  0  0  0  0  0  0
    3.8580   -8.0260   24.7690 O   0  0  0  0  0  0  0  0  0  0  0  0
    3.4070   -6.9920   24.3020 C   0  0  0  0  0  0  0  0  0  0  0  0
    5.8900   -2.1620   21.7940 C   0  0  0  0  0  0  0  0  0  0  0  0
    6.3430    0.4140   17.9890 N   0  0  0  0  0  0  0  0  0  0  0  0
    5.2580    1.2120   17.8070 C   0  0  0  0  0  0  0  0  0  0  0  0
    4.5180    1.7240   18.8680 C   0  0  0  0  0  0  0  0  0  0  0  0
    4.8800    1.4340   20.1620 C   0  0  0  0  0  0  0  0  0  0  0  0
    6.0650    0.5720   20.4430 C   0  0  0  0  0  0  0  0  0  0  0  0
    6.8010    0.0540   19.2040 C   0  0  0  0  0  0  0  0  0  0  0  0
    9.3110   -1.8040   21.6990 C   0  0  0  0  0  0  0  0  0  0  0  0
   10.6260   -1.9610   22.1120 C   0  0  0  0  0  0  0  0  0  0  0  0
   10.9330   -1.7120   23.4390 C   0  0  0  0  0  0  0  0  0  0  0  0
    9.8740   -1.3420   24.3020 C   0  0  0  0  0  0  0  0  0  0  0  0
    8.5520   -1.2030   23.8240 C   0  0  0  0  0  0  0  0  0  0  0  0
    8.2670   -1.4220   22.4880 C   0  0  0  0  0  0  0  0  0  0  0  0
    9.9600    3.0770   23.6370 C   0  0  0  0  0  0  0  0  0  0  0  0
   10.6790    4.2720   23.7750 C   0  0  0  0  0  0  0  0  0  0  0  0
   10.1200    5.4930   23.4100 C   0  0  0  0  0  0  0  0  0  0  0  0
    8.8320    5.5130   22.8840 C   0  0  0  0  0  0  0  0  0  0  0  0
    8.1030    4.3270   22.7460 C   0  0  0  0  0  0  0  0  0  0  0  0
    8.6670    3.0990   23.1310 C   0  0  0  0  0  0  0  0  0  0  0  0
    5.6370   -4.0820   23.1450 C   0  0  0  0  0  0  0  0  0  0  0  0
    4.8320   -5.2400   23.1390 C   0  0  0  0  0  0  0  0  0  0  0  0
    4.2640   -5.7740   24.3200 C   0  0  0  0  0  0  0  0  0  0  0  0
    4.4560   -5.2040   25.5940 C   0  0  0  0  0  0  0  0  0  0  0  0
    5.3400   -3.9510   25.5730 C   0  0  0  0  0  0  0  0  0  0  0  0
    5.9260   -3.4070   24.3130 C   0  0  0  0  0  0  0  0  0  0  0  0
    1.6340   -5.5740   23.4440 C   0  0  0  0  0  0  0  0  0  0  0  0
    0.5890   -5.0240   24.4430 C   0  0  0  0  0  0  0  0  0  0  0  0
   -0.9320   -6.0140   24.3850 S   0  0  0  0  0  0  0  0  0  0  0  0
   -0.1680   -7.5810   24.7120 C   0  0  0  0  0  0  0  0  0  0  0  0
    1.1180   -7.9810   23.8460 C   0  0  0  0  0  0  0  0  0  0  0  0
    2.1260   -6.9120   23.7720 N   0  0  0  0  0  0  0  0  0  0  0  0
  1  4  1  0
  2  5  1  0
  3  5  2  0
  4  5  1  6
  7  8  1  0
  7  9  1  0
  7 10  1  0
 11 13  1  0
 14 17  1  0
 15 17  1  0
 16 17  2  0
 18 19  2  0
  1 20  1  0
 14 20  1  0
 21 22  2  0
 22 23  1  0
 23 24  2  0
  4 25  1  0
 24 25  1  0
 21 26  1  0
 25 26  2  0
 27 28  2  0
  7 29  1  0
 28 29  1  0
 29 30  2  0
 30 31  1  0
  1 32  1  0
 27 32  1  0
 31 32  2  0
 12 33  1  0
 33 34  2  0
 11 35  1  0
 34 35  1  0
  6 36  1  0
 35 36  2  0
 36 37  1  0
  2 38  1  0
 33 38  1  0
 37 38  2  0
 14 39  1  0
 39 40  2  0
 19 41  1  0
 40 41  1  0
 41 42  2  0
 42 43  1  0
 39 44  1  0
 43 44  2  0
 45 46  1  0
 46 47  1  0
 47 48  1  0
 48 49  1  0
 19 50  1  0
 45 50  1  0
 49 50  1  0
M  END
