x0786-x0354
     RDKit          3D

 39 43  0  0  0  0  0  0  0  0999 V2000
    6.2290   -4.3120   21.8930 N   0  0  0  0  0  0  0  0  0  0  0  0
    7.0730   -5.4390   20.0110 C   0  0  0  0  0  0  0  0  0  0  0  0
    5.0670   -4.4130   19.8380 O   0  0  0  0  0  0  0  0  0  0  0  0
    5.9860   -4.6800   20.5940 C   0  0  0  0  0  0  0  0  0  0  0  0
    3.4230   -8.2050   24.9670 O   0  0  0  0  0  0  0  0  0  0  0  0
    3.1140   -7.1710   24.3930 C   0  0  0  0  0  0  0  0  0  0  0  0
   13.1630   -1.2270   22.3350 C   0  0  0  0  0  0  0  0  0  0  0  0
    7.6170   -1.6610   25.1720 N   0  0  0  0  0  0  0  0  0  0  0  0
    7.6040   -0.3480   27.5370 O   0  0  0  0  0  0  0  0  0  0  0  0
    8.8150   -1.0400   25.6690 C   0  0  0  0  0  0  0  0  0  0  0  0
    8.6240   -0.1230   26.8730 C   0  0  0  0  0  0  0  0  0  0  0  0
    5.3780    3.6560   31.0420 C   0  0  0  0  0  0  0  0  0  0  0  0
    7.1220   -3.4520   22.2740 C   0  0  0  0  0  0  0  0  0  0  0  0
    7.2220   -3.2450   23.5550 C   0  0  0  0  0  0  0  0  0  0  0  0
    8.1330   -2.4100   24.0470 C   0  0  0  0  0  0  0  0  0  0  0  0
    5.6650   -4.7360   23.0460 C   0  0  0  0  0  0  0  0  0  0  0  0
    4.6810   -5.7030   22.9880 C   0  0  0  0  0  0  0  0  0  0  0  0
    4.1860   -6.0540   24.3440 C   0  0  0  0  0  0  0  0  0  0  0  0
    4.7130   -5.3860   25.4660 C   0  0  0  0  0  0  0  0  0  0  0  0
    5.6990   -4.4250   25.4140 C   0  0  0  0  0  0  0  0  0  0  0  0
    6.2020   -4.1010   24.1880 C   0  0  0  0  0  0  0  0  0  0  0  0
    1.4130   -5.5570   23.4110 C   0  0  0  0  0  0  0  0  0  0  0  0
    0.4900   -5.1000   24.3520 C   0  0  0  0  0  0  0  0  0  0  0  0
   -0.9520   -6.0040   24.2500 S   0  0  0  0  0  0  0  0  0  0  0  0
   -0.1940   -7.3700   24.9450 C   0  0  0  0  0  0  0  0  0  0  0  0
    0.7970   -7.9030   23.9190 C   0  0  0  0  0  0  0  0  0  0  0  0
    1.8380   -6.9040   23.7350 N   0  0  0  0  0  0  0  0  0  0  0  0
   12.4100   -1.1300   23.4220 N   0  0  0  0  0  0  0  0  0  0  0  0
   11.8560   -2.4260   23.7550 C   0  0  0  0  0  0  0  0  0  0  0  0
   10.5240   -2.5050   24.4600 C   0  0  0  0  0  0  0  0  0  0  0  0
   10.1360   -1.2780   25.0520 N   0  0  0  0  0  0  0  0  0  0  0  0
   10.9700   -0.2470   24.9720 C   0  0  0  0  0  0  0  0  0  0  0  0
   11.5930   -0.1210   23.7520 C   0  0  0  0  0  0  0  0  0  0  0  0
    7.6370    1.9630   28.2940 C   0  0  0  0  0  0  0  0  0  0  0  0
    7.0520    3.0100   29.2180 C   0  0  0  0  0  0  0  0  0  0  0  0
    5.9270    2.6600   30.1700 C   0  0  0  0  0  0  0  0  0  0  0  0
    5.4490    1.3460   30.1660 C   0  0  0  0  0  0  0  0  0  0  0  0
    6.1010    0.3580   29.2040 C   0  0  0  0  0  0  0  0  0  0  0  0
    7.1450    0.6620   28.3170 C   0  0  0  0  0  0  0  0  0  0  0  0
  1  4  1  0
  2  4  1  0
  3  4  2  0
  5  6  2  0
  8 10  2  3
  9 11  1  0
 10 11  1  0
  1 13  1  0
 13 14  2  0
  8 15  1  0
 14 15  1  0
  1 16  1  0
 16 17  2  0
  6 18  1  0
 17 18  1  0
 18 19  2  0
 19 20  1  0
 14 21  1  0
 16 21  1  0
 20 21  2  0
 22 23  1  0
 23 24  1  0
 24 25  1  0
 25 26  1  0
  6 27  1  0
 22 27  1  0
 26 27  1  0
  7 28  1  0
 28 29  1  0
 29 30  1  0
 10 31  1  0
 30 31  1  0
 31 32  1  0
 28 33  1  0
 32 33  1  0
 34 35  2  0
 12 36  1  0
 35 36  1  0
 36 37  2  0
 37 38  1  0
  9 39  1  0
 34 39  1  0
 38 39  2  0
M  END
