x0786-x2193
     RDKit          3D

 36 39  0  0  0  0  0  0  0  0999 V2000
    6.6530   -4.1670   21.8570 N   0  0  0  0  0  0  0  0  0  0  0  0
    7.2970   -3.3500   19.5270 C   0  0  0  0  0  0  0  0  0  0  0  0
    5.4200   -4.7360   19.9810 O   0  0  0  0  0  0  0  0  0  0  0  0
    6.3850   -4.1490   20.4710 C   0  0  0  0  0  0  0  0  0  0  0  0
    3.7290   -7.9940   24.7470 O   0  0  0  0  0  0  0  0  0  0  0  0
    3.2620   -6.9830   24.2280 C   0  0  0  0  0  0  0  0  0  0  0  0
    7.9530   -4.3790   22.4450 C   0  0  0  0  0  0  0  0  0  0  0  0
    5.6790   -4.3280   22.9060 C   0  0  0  0  0  0  0  0  0  0  0  0
    4.9550   -5.6400   22.9960 C   0  0  0  0  0  0  0  0  0  0  0  0
    4.0680   -5.6670   24.0590 C   0  0  0  0  0  0  0  0  0  0  0  0
    3.8990   -4.5640   24.9340 C   0  0  0  0  0  0  0  0  0  0  0  0
    4.6250   -3.3570   24.7730 C   0  0  0  0  0  0  0  0  0  0  0  0
    5.5410   -3.2240   23.7330 C   0  0  0  0  0  0  0  0  0  0  0  0
    1.3840   -5.7540   23.2730 C   0  0  0  0  0  0  0  0  0  0  0  0
    0.5720   -5.1900   24.2610 C   0  0  0  0  0  0  0  0  0  0  0  0
   -0.8930   -6.0570   24.1980 S   0  0  0  0  0  0  0  0  0  0  0  0
   -0.1380   -7.4480   24.8470 C   0  0  0  0  0  0  0  0  0  0  0  0
    0.9690   -7.9550   24.1350 C   0  0  0  0  0  0  0  0  0  0  0  0
    1.9130   -6.9080   23.7210 N   0  0  0  0  0  0  0  0  0  0  0  0
   11.2630    2.4240   23.2400 C   0  0  0  0  0  0  0  0  0  0  0  0
    9.3890    1.9920   21.2870 O   0  0  0  0  0  0  0  0  0  0  0  0
    8.6180    2.7730   23.5260 O   0  0  0  0  0  0  0  0  0  0  0  0
    9.5590    2.0310   22.7210 S   0  0  0  0  0  0  0  0  0  0  0  0
    9.4440    0.3040   23.2490 C   0  0  0  0  0  0  0  0  0  0  0  0
    9.0670    0.0740   24.5620 C   0  0  0  0  0  0  0  0  0  0  0  0
    8.8690   -1.1640   25.1900 C   0  0  0  0  0  0  0  0  0  0  0  0
    9.0810   -2.4350   24.3640 C   0  0  0  0  0  0  0  0  0  0  0  0
    9.5260   -2.2420   22.9240 C   0  0  0  0  0  0  0  0  0  0  0  0
    9.7110   -0.8640   22.3520 C   0  0  0  0  0  0  0  0  0  0  0  0
    8.9970   -6.1010   26.1200 N   0  0  0  0  0  0  0  0  0  0  0  0
    8.0920   -5.1860   26.5250 C   0  0  0  0  0  0  0  0  0  0  0  0
    8.2410   -3.7940   26.1100 C   0  0  0  0  0  0  0  0  0  0  0  0
    8.8760   -3.7140   24.8570 C   0  0  0  0  0  0  0  0  0  0  0  0
    9.8650   -4.7170   24.4580 C   0  0  0  0  0  0  0  0  0  0  0  0
    9.2160   -6.0060   24.7510 C   0  0  0  0  0  0  0  0  0  0  0  0
    7.7290   -4.0480   23.9000 C   0  0  0  0  0  0  0  0  0  0  0  0
  1  4  1  0
  2  4  1  0
  3  4  2  0
  5  6  2  0
  1  7  1  0
  1  8  1  0
  8  9  2  0
  6 10  1  0
  9 10  1  0
 10 11  2  0
 11 12  1  0
  8 13  1  0
 12 13  2  0
 14 15  1  0
 15 16  1  0
 16 17  1  0
 17 18  1  0
  6 19  1  0
 14 19  1  0
 18 19  1  0
 23 20  1  0
 21 23  2  0
 22 23  2  0
 23 24  1  0
 24 25  2  0
 25 26  1  0
 26 27  2  0
 27 28  1  0
 24 29  1  0
 28 29  2  0
 30 31  1  0
 31 32  1  0
 27 33  1  0
 32 33  1  0
 33 34  1  0
 30 35  1  0
 34 35  1  0
  7 36  1  0
 33 36  1  0
M  END
