x0786-x0387
     RDKit          3D

 33 36  0  0  0  0  0  0  0  0999 V2000
    6.7580   -4.2710   21.9070 N   0  0  0  0  0  0  0  0  0  0  0  0
    7.3400   -3.3660   19.5970 C   0  0  0  0  0  0  0  0  0  0  0  0
    5.4620   -4.7450   20.0030 O   0  0  0  0  0  0  0  0  0  0  0  0
    6.4410   -4.1920   20.5230 C   0  0  0  0  0  0  0  0  0  0  0  0
    3.7610   -8.0290   24.8150 O   0  0  0  0  0  0  0  0  0  0  0  0
    3.2760   -7.0380   24.2840 C   0  0  0  0  0  0  0  0  0  0  0  0
    8.5560   -4.0840   27.3420 O   0  0  0  0  0  0  0  0  0  0  0  0
    9.2450   -1.6890   23.6010 C   0  0  0  0  0  0  0  0  0  0  0  0
    8.0010   -3.7400   22.4400 C   0  0  0  0  0  0  0  0  0  0  0  0
    8.4620   -4.5200   23.6890 C   0  0  0  0  0  0  0  0  0  0  0  0
    5.8030   -4.4620   22.9690 C   0  0  0  0  0  0  0  0  0  0  0  0
    5.0620   -5.6240   23.0610 C   0  0  0  0  0  0  0  0  0  0  0  0
    4.1460   -5.8140   24.0880 C   0  0  0  0  0  0  0  0  0  0  0  0
    3.9920   -4.7930   25.0340 C   0  0  0  0  0  0  0  0  0  0  0  0
    4.7350   -3.6170   24.9480 C   0  0  0  0  0  0  0  0  0  0  0  0
    5.6440   -3.4460   23.9140 C   0  0  0  0  0  0  0  0  0  0  0  0
    1.3640   -5.6350   23.3990 C   0  0  0  0  0  0  0  0  0  0  0  0
    0.3890   -5.0980   24.2620 C   0  0  0  0  0  0  0  0  0  0  0  0
   -1.0040   -6.2410   24.4690 S   0  0  0  0  0  0  0  0  0  0  0  0
   -0.0300   -7.7230   24.9340 C   0  0  0  0  0  0  0  0  0  0  0  0
    0.9940   -8.0400   24.0410 C   0  0  0  0  0  0  0  0  0  0  0  0
    1.9170   -6.9250   23.8180 N   0  0  0  0  0  0  0  0  0  0  0  0
    8.8280   -4.6150   26.0480 C   0  0  1  0  0  0  0  0  0  0  0  0
    8.3500   -3.7490   25.0270 C   0  0  1  0  0  0  0  0  0  0  0  0
    9.0680   -2.3890   24.9810 C   0  0  1  0  0  0  0  0  0  0  0  0
   10.3830   -2.4800   25.5550 N   0  0  0  0  0  0  0  0  0  0  0  0
   11.0230   -3.7310   25.2660 C   0  0  0  0  0  0  0  0  0  0  0  0
   10.3110   -4.8900   25.9320 C   0  0  0  0  0  0  0  0  0  0  0  0
   11.4810   -0.2940   23.8900 C   0  0  0  0  0  0  0  0  0  0  0  0
   10.6950   -1.3370   23.2720 C   0  0  0  0  0  0  0  0  0  0  0  0
   11.4490   -1.9900   22.3130 C   0  0  0  0  0  0  0  0  0  0  0  0
   13.0370   -1.3760   22.1590 S   0  0  0  0  0  0  0  0  0  0  0  0
   12.7580   -0.2130   23.3710 C   0  0  0  0  0  0  0  0  0  0  0  0
  1  4  1  0
  2  4  1  0
  3  4  2  0
  5  6  2  0
  1  9  1  0
  9 10  1  0
  1 11  1  0
 11 12  2  0
  6 13  1  0
 12 13  1  0
 13 14  2  0
 14 15  1  0
 11 16  1  0
 15 16  2  0
 17 18  1  0
 18 19  1  0
 19 20  1  0
 20 21  1  0
  6 22  1  0
 17 22  1  0
 21 22  1  0
 23  7  1  1
 24 10  1  6
 23 24  1  0
 25  8  1  6
 24 25  1  0
 25 26  1  0
 26 27  1  0
 23 28  1  0
 27 28  1  0
  8 30  1  0
 29 30  1  0
 30 31  2  0
 31 32  1  0
 29 33  2  0
 32 33  1  0
M  END
