x0786-x1375
     RDKit          3D

 24 26  0  0  0  0  0  0  0  0999 V2000
    5.6370   -5.1590   20.1140 O   0  0  0  0  0  0  0  0  0  0  0  0
    6.4540   -4.4670   20.7710 C   0  0  0  0  0  0  0  0  0  0  0  0
    7.3110   -3.4630   19.9780 C   0  0  0  0  0  0  0  0  0  0  0  0
    6.5680   -4.5350   22.2100 N   0  0  0  0  0  0  0  0  0  0  0  0
    4.5340   -7.5490   24.7890 O   0  0  0  0  0  0  0  0  0  0  0  0
   10.8990   -4.2640   25.8020 F   0  0  0  0  0  0  0  0  0  0  0  0
    8.1760   -3.1990   23.4180 C   0  0  0  0  0  0  0  0  0  0  0  0
    9.3410   -3.1230   24.4000 C   0  0  0  0  0  0  0  0  0  0  0  0
    9.8840   -4.2820   24.9310 C   0  0  0  0  0  0  0  0  0  0  0  0
    9.2540   -5.6010   24.4630 C   0  0  0  0  0  0  0  0  0  0  0  0
    8.1780   -5.6040   23.5480 C   0  0  0  0  0  0  0  0  0  0  0  0
    7.6320   -4.4090   23.0300 C   0  0  0  0  0  0  0  0  0  0  0  0
    4.8610   -4.3270   23.7750 C   0  0  0  0  0  0  0  0  0  0  0  0
    5.6860   -5.2330   23.1290 C   0  0  1  0  0  0  0  0  0  0  0  0
    5.0430   -6.3040   22.5640 C   0  0  0  0  0  0  0  0  0  0  0  0
    3.9130   -6.7260   23.7820 S   0  0  2  0  0  0  0  0  0  0  0  0
    3.7860   -5.0910   24.2450 C   0  0  0  0  0  0  0  0  0  0  0  0
    1.0040   -5.6790   23.3560 C   0  0  0  0  0  0  0  0  0  0  0  0
    0.1260   -4.9900   24.2080 C   0  0  0  0  0  0  0  0  0  0  0  0
   -1.3550   -5.9830   24.5550 S   0  0  0  0  0  0  0  0  0  0  0  0
   -0.5280   -7.5190   25.0940 C   0  0  0  0  0  0  0  0  0  0  0  0
    0.3270   -7.9760   24.1060 C   0  0  0  0  0  0  0  0  0  0  0  0
    1.3740   -7.0060   23.8400 N   0  0  0  0  0  0  0  0  0  0  0  0
    2.4960   -7.5930   23.2400 C   0  0  0  0  0  0  0  0  0  0  0  0
  1  2  2  0
  2  3  1  0
  2  4  1  0
  7  8  2  0
  6  9  1  0
  8  9  1  0
  9 10  2  0
 10 11  1  0
  4 12  1  0
  7 12  1  0
 11 12  2  0
 14  4  1  6
 13 14  1  0
 14 15  1  0
 16  5  1  1
 15 16  1  0
 13 17  2  0
 16 17  1  0
 18 19  1  0
 19 20  1  0
 20 21  1  0
 21 22  1  0
 18 23  1  0
 22 23  1  0
 16 24  1  0
 23 24  1  0
M  END
