x0786-x3115
     RDKit          3D

 44 47  0  0  0  0  0  0  0  0999 V2000
    6.9730   -1.2790   21.8670 N   0  0  0  0  0  0  0  0  0  0  0  0
    7.8600    1.4760   23.3140 N   0  0  0  0  0  0  0  0  0  0  0  0
    8.7550    1.4680   21.0250 O   0  0  0  0  0  0  0  0  0  0  0  0
    8.6290    5.1640   23.0850 O   0  0  0  0  0  0  0  0  0  0  0  0
    6.6800    0.0500   21.6320 C   0  0  1  0  0  0  0  0  0  0  0  0
    7.8200    1.0160   22.0070 C   0  0  0  0  0  0  0  0  0  0  0  0
    8.4030    2.8070   23.6870 C   0  0  0  0  0  0  0  0  0  0  0  0
    8.1740    3.8950   22.6090 C   0  0  0  0  0  0  0  0  0  0  0  0
    8.2760    6.2760   22.2460 C   0  0  0  0  0  0  0  0  0  0  0  0
   12.2820   -1.7850   24.3320 C   0  0  0  0  0  0  0  0  0  0  0  0
   13.3600   -2.2270   23.5720 C   0  0  0  0  0  0  0  0  0  0  0  0
   12.8950   -3.0500   24.9030 C   0  0  0  0  0  0  0  0  0  0  0  0
   12.5590   -0.5430   25.1080 C   0  0  0  0  0  0  0  0  0  0  0  0
    6.1830   -3.3770   21.8900 N   0  0  0  0  0  0  0  0  0  0  0  0
    7.5270   -4.7340   20.4760 C   0  0  0  0  0  0  0  0  0  0  0  0
    5.3000   -4.2930   19.8880 O   0  0  0  0  0  0  0  0  0  0  0  0
    6.2220   -4.1230   20.7110 C   0  0  0  0  0  0  0  0  0  0  0  0
    3.8160   -8.1350   24.8970 O   0  0  0  0  0  0  0  0  0  0  0  0
    3.2970   -6.9570   24.3180 C   0  0  0  0  0  0  0  0  0  0  0  0
    5.9230   -2.2550   21.8380 C   0  0  0  0  0  0  0  0  0  0  0  0
    6.3370    0.3960   17.7660 N   0  0  0  0  0  0  0  0  0  0  0  0
    5.1760    1.3240   17.7700 C   0  0  0  0  0  0  0  0  0  0  0  0
    4.6320    1.7070   18.9940 C   0  0  0  0  0  0  0  0  0  0  0  0
    5.1230    1.2760   20.2070 C   0  0  0  0  0  0  0  0  0  0  0  0
    6.2040    0.4260   20.1710 C   0  0  0  0  0  0  0  0  0  0  0  0
    6.8370   -0.0480   19.0500 C   0  0  0  0  0  0  0  0  0  0  0  0
    9.3030   -1.9810   21.7270 C   0  0  0  0  0  0  0  0  0  0  0  0
   10.6830   -2.1370   22.2700 C   0  0  0  0  0  0  0  0  0  0  0  0
   10.9040   -1.7240   23.6850 C   0  0  0  0  0  0  0  0  0  0  0  0
    9.7230   -1.2020   24.4900 C   0  0  0  0  0  0  0  0  0  0  0  0
    8.4440   -1.1090   23.8180 C   0  0  0  0  0  0  0  0  0  0  0  0
    8.2660   -1.4720   22.4890 C   0  0  0  0  0  0  0  0  0  0  0  0
    5.6150   -4.0010   23.0850 C   0  0  0  0  0  0  0  0  0  0  0  0
    4.7310   -5.2480   22.9560 C   0  0  0  0  0  0  0  0  0  0  0  0
    4.1740   -5.7780   24.2770 C   0  0  0  0  0  0  0  0  0  0  0  0
    4.4890   -5.1400   25.4720 C   0  0  0  0  0  0  0  0  0  0  0  0
    5.3800   -3.9180   25.4980 C   0  0  0  0  0  0  0  0  0  0  0  0
    5.9000   -3.4040   24.3180 C   0  0  0  0  0  0  0  0  0  0  0  0
    1.5450   -5.5450   23.4520 C   0  0  0  0  0  0  0  0  0  0  0  0
    0.6850   -5.0670   24.4410 C   0  0  0  0  0  0  0  0  0  0  0  0
   -0.8280   -6.0810   24.4070 S   0  0  0  0  0  0  0  0  0  0  0  0
    0.0270   -7.6610   24.7600 C   0  0  0  0  0  0  0  0  0  0  0  0
    1.0460   -7.9470   23.8540 C   0  0  0  0  0  0  0  0  0  0  0  0
    2.0430   -6.8640   23.8180 N   0  0  0  0  0  0  0  0  0  0  0  0
  1  5  1  0
  2  6  1  0
  3  6  2  0
  5  6  1  6
  2  7  1  0
  4  8  1  0
  7  8  1  0
  4  9  1  0
 10 11  1  0
 10 12  1  0
 10 13  1  0
 14 17  1  0
 15 17  1  0
 16 17  2  0
 18 19  2  0
  1 20  1  0
 14 20  1  0
 21 22  2  0
 22 23  1  0
 23 24  2  0
  5 25  1  0
 24 25  1  0
 21 26  1  0
 25 26  2  0
 27 28  2  0
 10 29  1  0
 28 29  1  0
 29 30  2  0
 30 31  1  0
  1 32  1  0
 27 32  1  0
 31 32  2  0
 14 33  1  0
 33 34  2  0
 19 35  1  0
 34 35  1  0
 35 36  2  0
 36 37  1  0
 33 38  1  0
 37 38  2  0
 39 40  1  0
 40 41  1  0
 41 42  1  0
 42 43  1  0
 19 44  1  0
 39 44  1  0
 43 44  1  0
M  END
