x0786-x2572
     RDKit          3D

 39 42  0  0  0  0  0  0  0  0999 V2000
    6.0920   -3.6000   21.8260 N   0  0  0  0  0  0  0  0  0  0  0  0
    7.0580   -5.1400   20.1750 C   0  0  0  0  0  0  0  0  0  0  0  0
    5.0510   -4.2120   19.7680 O   0  0  0  0  0  0  0  0  0  0  0  0
    5.9550   -4.2780   20.5950 C   0  0  0  0  0  0  0  0  0  0  0  0
    3.8720   -8.0050   24.6890 O   0  0  0  0  0  0  0  0  0  0  0  0
    3.3730   -6.9870   24.2240 C   0  0  0  0  0  0  0  0  0  0  0  0
    4.6180    1.4520   21.6220 C   0  0  0  0  0  0  0  0  0  0  0  0
    8.8990    1.4660   21.3420 O   0  0  0  0  0  0  0  0  0  0  0  0
    7.1210   -0.4010   21.1130 N   0  0  0  0  0  0  0  0  0  0  0  0
   13.5690   -3.2790   20.6540 N   0  0  0  0  0  0  0  0  0  0  0  0
    8.2090    0.2700   21.7930 C   0  0  0  0  0  0  0  0  0  0  0  0
    8.6780   -0.3700   23.0920 C   0  0  0  0  0  0  0  0  0  0  0  0
   13.0090   -2.1990   21.4380 C   0  0  0  0  0  0  0  0  0  0  0  0
    6.9760   -2.5880   21.9840 C   0  0  0  0  0  0  0  0  0  0  0  0
    7.2700   -1.7770   20.9020 C   0  0  0  0  0  0  0  0  0  0  0  0
    5.5560   -4.0680   23.0800 C   0  0  0  0  0  0  0  0  0  0  0  0
    4.7800   -5.2360   23.0590 C   0  0  0  0  0  0  0  0  0  0  0  0
    4.1770   -5.8050   24.2150 C   0  0  0  0  0  0  0  0  0  0  0  0
    4.4710   -5.0130   25.4600 C   0  0  0  0  0  0  0  0  0  0  0  0
    5.2530   -3.8530   25.4610 C   0  0  0  0  0  0  0  0  0  0  0  0
    5.8320   -3.3010   24.3670 C   0  0  0  0  0  0  0  0  0  0  0  0
    1.4520   -5.6360   23.2790 C   0  0  0  0  0  0  0  0  0  0  0  0
    0.5580   -5.1610   24.2360 C   0  0  0  0  0  0  0  0  0  0  0  0
   -0.8720   -6.1110   24.2060 S   0  0  0  0  0  0  0  0  0  0  0  0
   -0.0140   -7.4730   24.8590 C   0  0  0  0  0  0  0  0  0  0  0  0
    1.1410   -8.0020   24.0070 C   0  0  0  0  0  0  0  0  0  0  0  0
    2.0750   -6.9040   23.7260 N   0  0  0  0  0  0  0  0  0  0  0  0
    6.3040    0.6380   17.5840 N   0  0  0  0  0  0  0  0  0  0  0  0
    6.8810    0.0640   18.6340 C   0  0  0  0  0  0  0  0  0  0  0  0
    6.4290    0.2460   20.0540 C   0  0  0  0  0  0  0  0  0  0  0  0
    5.2200    1.1460   20.2820 C   0  0  0  0  0  0  0  0  0  0  0  0
    4.6290    1.7430   19.1150 C   0  0  0  0  0  0  0  0  0  0  0  0
    5.1630    1.4860   17.8830 C   0  0  0  0  0  0  0  0  0  0  0  0
   10.8070    0.7630   23.6830 C   0  0  0  0  0  0  0  0  0  0  0  0
   12.3010    0.8660   23.5980 C   0  0  0  0  0  0  0  0  0  0  0  0
   13.0470   -0.1750   22.8140 C   0  0  0  0  0  0  0  0  0  0  0  0
   12.3670   -1.1950   22.1910 C   0  0  0  0  0  0  0  0  0  0  0  0
   10.8670   -1.2480   22.3030 C   0  0  0  0  0  0  0  0  0  0  0  0
   10.1600   -0.2810   23.0300 C   0  0  0  0  0  0  0  0  0  0  0  0
  1  4  1  0
  2  4  1  0
  3  4  2  0
  5  6  2  0
  8 11  2  0
  9 11  1  0
 11 12  1  0
 10 13  3  0
  1 14  1  0
  9 15  1  0
 14 15  1  0
  1 16  1  0
 16 17  2  0
  6 18  1  0
 17 18  1  0
 18 19  2  0
 19 20  1  0
 16 21  1  0
 20 21  2  0
 22 23  1  0
 23 24  1  0
 24 25  1  0
 25 26  1  0
  6 27  1  0
 22 27  1  0
 26 27  1  0
 28 29  2  0
  9 30  1  0
 29 30  1  0
  7 31  1  0
 30 31  2  0
 31 32  1  0
 28 33  1  0
 32 33  2  0
 34 35  2  0
 35 36  1  0
 13 37  1  0
 36 37  2  0
 37 38  1  0
 12 39  1  0
 34 39  1  0
 38 39  2  0
M  END
