x0786-x2608
     RDKit          3D

 36 39  0  0  0  0  0  0  0  0999 V2000
    6.1620   -3.8510   21.8690 N   0  0  0  0  0  0  0  0  0  0  0  0
    7.0830   -5.2940   20.1290 C   0  0  0  0  0  0  0  0  0  0  0  0
    5.0860   -4.2920   19.8030 O   0  0  0  0  0  0  0  0  0  0  0  0
    5.9980   -4.4390   20.6080 C   0  0  0  0  0  0  0  0  0  0  0  0
    3.7890   -8.0310   24.8160 O   0  0  0  0  0  0  0  0  0  0  0  0
    3.3120   -7.0280   24.3000 C   0  0  0  0  0  0  0  0  0  0  0  0
    8.8830   -0.6460   22.6410 N   0  0  0  0  0  0  0  0  0  0  0  0
   12.9340    2.8550   22.6900 C   0  0  0  0  0  0  0  0  0  0  0  0
    8.5930    1.4040   21.1140 O   0  0  0  0  0  0  0  0  0  0  0  0
    6.9480   -0.5410   21.1650 N   0  0  0  0  0  0  0  0  0  0  0  0
    8.1390    0.1250   21.6260 C   0  0  0  0  0  0  0  0  0  0  0  0
    7.1310   -2.7920   22.0780 C   0  0  0  0  0  0  0  0  0  0  0  0
    7.1530   -1.9430   20.9830 C   0  0  0  0  0  0  0  0  0  0  0  0
    5.5610   -4.2800   22.9760 C   0  0  0  0  0  0  0  0  0  0  0  0
    4.7920   -5.4180   23.0010 C   0  0  0  0  0  0  0  0  0  0  0  0
    4.2010   -5.7730   24.1900 C   0  0  0  0  0  0  0  0  0  0  0  0
    4.3510   -5.0340   25.3700 C   0  0  0  0  0  0  0  0  0  0  0  0
    5.1200   -3.8620   25.4460 C   0  0  0  0  0  0  0  0  0  0  0  0
    5.7300   -3.5230   24.1410 C   0  0  0  0  0  0  0  0  0  0  0  0
    1.5070   -5.6340   23.4330 C   0  0  0  0  0  0  0  0  0  0  0  0
    0.5780   -5.0990   24.3310 C   0  0  0  0  0  0  0  0  0  0  0  0
   -0.8500   -6.0170   24.3220 S   0  0  0  0  0  0  0  0  0  0  0  0
   -0.1570   -7.5220   24.7010 C   0  0  0  0  0  0  0  0  0  0  0  0
    0.9920   -7.9990   24.0680 C   0  0  0  0  0  0  0  0  0  0  0  0
    2.0090   -6.9590   23.8080 N   0  0  0  0  0  0  0  0  0  0  0  0
   12.1820    1.3330   22.9000 C   0  0  0  0  0  0  0  0  0  0  0  0
   12.6700   -0.0730   23.2840 C   0  0  0  0  0  0  0  0  0  0  0  0
   11.4950   -0.9980   23.2500 C   0  0  0  0  0  0  0  0  0  0  0  0
   10.2390   -0.2800   22.8590 C   0  0  0  0  0  0  0  0  0  0  0  0
   10.4920    1.3600   22.6020 S   0  0  0  0  0  0  0  0  0  0  0  0
    6.1240    0.7490   17.6720 N   0  0  0  0  0  0  0  0  0  0  0  0
    6.6940    0.1250   18.7050 C   0  0  0  0  0  0  0  0  0  0  0  0
    6.2800    0.1340   20.0730 C   0  0  0  0  0  0  0  0  0  0  0  0
    5.1440    0.8650   20.3750 C   0  0  0  0  0  0  0  0  0  0  0  0
    4.4270    1.6090   19.2790 C   0  0  0  0  0  0  0  0  0  0  0  0
    5.0270    1.4890   17.9010 C   0  0  0  0  0  0  0  0  0  0  0  0
  1  4  1  0
  2  4  1  0
  3  4  2  0
  5  6  2  0
  7 11  1  0
  9 11  2  0
 10 11  1  0
  1 12  1  0
 10 13  1  0
 12 13  1  0
  1 14  1  0
 14 15  2  0
  6 16  1  0
 15 16  1  0
 16 17  2  0
 17 18  1  0
 14 19  1  0
 18 19  2  0
 20 21  1  0
 21 22  1  0
 22 23  1  0
 23 24  1  0
  6 25  1  0
 20 25  1  0
 24 25  1  0
  8 26  1  0
 26 27  2  0
 27 28  1  0
  7 29  1  0
 28 29  2  0
 26 30  1  0
 29 30  1  0
 31 32  2  0
 10 33  1  0
 32 33  1  0
 33 34  2  0
 34 35  1  0
 31 36  1  0
 35 36  2  0
M  END
