x0786-x0830
     RDKit          3D

 35 39  0  0  0  0  0  0  0  0999 V2000
    5.7740   -3.5430   21.9480 N   0  0  0  0  0  0  0  0  0  0  0  0
    7.4870   -4.6170   20.6260 C   0  0  0  0  0  0  0  0  0  0  0  0
    5.2110   -4.5810   19.9250 O   0  0  0  0  0  0  0  0  0  0  0  0
    6.0370   -4.2630   20.7860 C   0  0  0  0  0  0  0  0  0  0  0  0
    3.6330   -8.1560   24.8040 O   0  0  0  0  0  0  0  0  0  0  0  0
    3.2340   -7.1070   24.3230 C   0  0  0  0  0  0  0  0  0  0  0  0
    9.9210   -2.3350   23.7980 C   0  0  0  0  0  0  0  0  0  0  0  0
    5.2950   -4.1450   23.1540 C   0  0  0  0  0  0  0  0  0  0  0  0
    4.4910   -5.3970   23.0710 C   0  0  0  0  0  0  0  0  0  0  0  0
    4.0930   -5.8270   24.3190 C   0  0  0  0  0  0  0  0  0  0  0  0
    4.4360   -5.1430   25.5120 C   0  0  0  0  0  0  0  0  0  0  0  0
    5.2120   -3.9640   25.4970 C   0  0  0  0  0  0  0  0  0  0  0  0
    5.6570   -3.4400   24.2960 C   0  0  0  0  0  0  0  0  0  0  0  0
    1.4580   -5.7580   23.3070 C   0  0  0  0  0  0  0  0  0  0  0  0
    0.6450   -5.1950   24.2960 C   0  0  0  0  0  0  0  0  0  0  0  0
   -0.8540   -5.9970   24.1720 S   0  0  0  0  0  0  0  0  0  0  0  0
   -0.1700   -7.4400   24.7830 C   0  0  0  0  0  0  0  0  0  0  0  0
    0.9220   -7.9680   24.0650 C   0  0  0  0  0  0  0  0  0  0  0  0
    1.9280   -6.9540   23.7220 N   0  0  0  0  0  0  0  0  0  0  0  0
    6.8240   -1.7770   21.0660 N   0  0  0  0  0  0  0  0  0  0  0  0
    6.7370   -2.5560   22.3040 C   0  0  2  0  0  0  0  0  0  0  0  0
    7.9190   -3.0470   22.8550 C   0  0  0  0  0  0  0  0  0  0  0  0
    8.8810   -1.9650   23.0540 N   0  0  0  0  0  0  0  0  0  0  0  0
    9.1410   -1.3930   21.7680 C   0  0  0  0  0  0  0  0  0  0  0  0
    8.0600   -0.9920   20.9930 C   0  0  0  0  0  0  0  0  0  0  0  0
   12.1530   -1.9840   22.8580 C   0  0  0  0  0  0  0  0  0  0  0  0
   13.2300   -1.0470   22.5080 C   0  0  0  0  0  0  0  0  0  0  0  0
   13.1590    0.4180   22.7630 C   0  0  0  0  0  0  0  0  0  0  0  0
   11.8810    0.8900   23.4090 C   0  0  0  0  0  0  0  0  0  0  0  0
   10.8560   -0.0810   23.7500 C   0  0  0  0  0  0  0  0  0  0  0  0
   11.0410   -1.4180   23.4570 C   0  0  0  0  0  0  0  0  0  0  0  0
   11.6700    2.2080   23.6690 C   0  0  0  0  0  0  0  0  0  0  0  0
   10.4030    2.7160   24.3160 C   0  0  0  0  0  0  0  0  0  0  0  0
    9.4140    1.6290   24.6570 C   0  0  0  0  0  0  0  0  0  0  0  0
    9.6540    0.3020   24.3720 C   0  0  0  0  0  0  0  0  0  0  0  0
  1  4  1  0
  2  4  1  0
  3  4  2  0
  5  6  2  0
  1  8  1  0
  8  9  2  0
  6 10  1  0
  9 10  1  0
 10 11  2  0
 11 12  1  0
  8 13  1  0
 12 13  2  0
 14 15  1  0
 15 16  1  0
 16 17  1  0
 17 18  1  0
  6 19  1  0
 14 19  1  0
 18 19  1  0
 21  1  1  6
 20 21  1  0
 21 22  1  0
  7 23  1  0
 22 23  1  0
 23 24  1  0
 20 25  1  0
 24 25  1  0
 26 27  2  0
 27 28  1  0
 28 29  2  0
 29 30  1  0
  7 31  1  0
 26 31  1  0
 30 31  2  0
 29 32  1  0
 32 33  2  0
 33 34  1  0
 30 35  1  0
 34 35  2  0
M  END
