x0786-x3110
     RDKit          3D

 47 50  0  0  0  0  0  0  0  0999 V2000
    8.1830    1.1420   23.3480 N   0  0  0  0  0  0  0  0  0  0  0  0
   13.4130    5.2530   22.8590 C   0  0  0  0  0  0  0  0  0  0  0  0
   11.9600    3.2340   22.4490 O   0  0  0  0  0  0  0  0  0  0  0  0
   12.4430    4.4880   21.9860 C   0  0  0  0  0  0  0  0  0  0  0  0
    7.1540   -1.1740   21.7530 N   0  0  0  0  0  0  0  0  0  0  0  0
   11.1590    4.3300   24.1070 O   0  0  0  0  0  0  0  0  0  0  0  0
   11.1970    3.3400   23.3870 C   0  0  0  0  0  0  0  0  0  0  0  0
    8.6500    1.4030   21.0660 O   0  0  0  0  0  0  0  0  0  0  0  0
   10.2760    2.1280   23.5830 C   0  0  0  0  0  0  0  0  0  0  0  0
    8.9020    2.3960   23.5670 C   0  0  0  0  0  0  0  0  0  0  0  0
    7.9490    0.8510   21.9360 C   0  0  0  0  0  0  0  0  0  0  0  0
    6.8640   -0.0300   21.6700 C   0  0  1  0  0  0  0  0  0  0  0  0
   12.4460   -1.8440   24.2010 C   0  0  0  0  0  0  0  0  0  0  0  0
   12.6840   -0.6710   24.8850 C   0  0  0  0  0  0  0  0  0  0  0  0
   13.3170   -1.8310   23.1520 C   0  0  0  0  0  0  0  0  0  0  0  0
   12.7580   -2.9650   24.9870 C   0  0  0  0  0  0  0  0  0  0  0  0
    6.0170   -3.2980   21.9570 N   0  0  0  0  0  0  0  0  0  0  0  0
    7.6800   -4.3700   20.6160 C   0  0  0  0  0  0  0  0  0  0  0  0
    5.4080   -4.2500   19.8740 O   0  0  0  0  0  0  0  0  0  0  0  0
    6.2590   -3.9710   20.7590 C   0  0  0  0  0  0  0  0  0  0  0  0
    3.8360   -8.1420   24.8960 O   0  0  0  0  0  0  0  0  0  0  0  0
    3.3340   -6.9720   24.2880 C   0  0  0  0  0  0  0  0  0  0  0  0
    6.0610   -1.8440   22.2000 C   0  0  0  0  0  0  0  0  0  0  0  0
    6.3660    0.4260   17.7710 N   0  0  0  0  0  0  0  0  0  0  0  0
    5.2230    1.3480   17.7720 C   0  0  0  0  0  0  0  0  0  0  0  0
    4.6550    1.7700   18.9480 C   0  0  0  0  0  0  0  0  0  0  0  0
    5.1180    1.3710   20.1900 C   0  0  0  0  0  0  0  0  0  0  0  0
    6.2980    0.4270   20.3190 C   0  0  0  0  0  0  0  0  0  0  0  0
    6.9150   -0.0490   19.0290 C   0  0  0  0  0  0  0  0  0  0  0  0
    9.4600   -1.5610   21.7110 C   0  0  0  0  0  0  0  0  0  0  0  0
   10.8800   -1.7500   22.2440 C   0  0  0  0  0  0  0  0  0  0  0  0
   11.0540   -1.6990   23.6830 C   0  0  0  0  0  0  0  0  0  0  0  0
    9.9440   -1.5030   24.4880 C   0  0  0  0  0  0  0  0  0  0  0  0
    8.5400   -1.3260   23.9670 C   0  0  0  0  0  0  0  0  0  0  0  0
    8.3590   -1.3570   22.4790 C   0  0  0  0  0  0  0  0  0  0  0  0
    5.5160   -3.9800   23.0620 C   0  0  0  0  0  0  0  0  0  0  0  0
    4.7150   -5.1220   23.0080 C   0  0  0  0  0  0  0  0  0  0  0  0
    4.1980   -5.7740   24.2740 C   0  0  0  0  0  0  0  0  0  0  0  0
    4.5760   -5.1730   25.4750 C   0  0  0  0  0  0  0  0  0  0  0  0
    5.3840   -4.0360   25.5390 C   0  0  0  0  0  0  0  0  0  0  0  0
    5.8230   -3.4840   24.3460 C   0  0  0  0  0  0  0  0  0  0  0  0
    1.4670   -5.5590   23.4090 C   0  0  0  0  0  0  0  0  0  0  0  0
    0.5880   -5.0990   24.3760 C   0  0  0  0  0  0  0  0  0  0  0  0
   -0.8860   -6.1570   24.4050 S   0  0  0  0  0  0  0  0  0  0  0  0
    0.0420   -7.6660   24.8370 C   0  0  0  0  0  0  0  0  0  0  0  0
    0.9850   -7.9680   23.8420 C   0  0  0  0  0  0  0  0  0  0  0  0
    1.9860   -6.8990   23.6840 N   0  0  0  0  0  0  0  0  0  0  0  0
  2  4  1  0
  3  4  1  0
  3  7  1  0
  6  7  2  0
  7  9  1  0
  1 10  1  0
  9 10  1  0
  1 11  1  0
  8 11  2  0
  5 12  1  0
 12 11  1  6
 13 14  1  0
 13 15  1  0
 13 16  1  0
 17 20  1  0
 18 20  1  0
 19 20  2  0
 21 22  2  0
  5 23  1  0
 17 23  1  0
 24 25  2  0
 25 26  1  0
 26 27  2  0
 12 28  1  0
 27 28  1  0
 24 29  1  0
 28 29  2  0
 30 31  2  0
 13 32  1  0
 31 32  1  0
 32 33  2  0
 33 34  1  0
  5 35  1  0
 30 35  1  0
 34 35  2  0
 17 36  1  0
 36 37  2  0
 22 38  1  0
 37 38  1  0
 38 39  2  0
 39 40  1  0
 36 41  1  0
 40 41  2  0
 42 43  1  0
 43 44  1  0
 44 45  1  0
 45 46  1  0
 22 47  1  0
 42 47  1  0
 46 47  1  0
M  END
