x0786-x3124
     RDKit          3D

 41 44  0  0  0  0  0  0  0  0999 V2000
    6.8280   -1.1230   22.0250 N   0  0  0  0  0  0  0  0  0  0  0  0
    7.8410    1.7050   23.3060 N   0  0  0  0  0  0  0  0  0  0  0  0
    8.7150    1.3720   21.0280 O   0  0  0  0  0  0  0  0  0  0  0  0
    6.5550    0.2110   21.8170 C   0  0  1  0  0  0  0  0  0  0  0  0
    7.7650    1.1180   22.0610 C   0  0  0  0  0  0  0  0  0  0  0  0
    8.6580    2.8950   23.6230 C   0  0  0  0  0  0  0  0  0  0  0  0
   12.4890   -1.9050   23.8990 C   0  0  0  0  0  0  0  0  0  0  0  0
   12.9460   -0.6910   24.2790 C   0  0  0  0  0  0  0  0  0  0  0  0
   13.2650   -2.2500   22.6830 C   0  0  0  0  0  0  0  0  0  0  0  0
   12.8270   -2.9480   24.9640 C   0  0  0  0  0  0  0  0  0  0  0  0
    6.1950   -3.3430   21.9120 N   0  0  0  0  0  0  0  0  0  0  0  0
    7.9390   -4.4610   20.7350 C   0  0  0  0  0  0  0  0  0  0  0  0
    5.6200   -4.4420   19.9510 O   0  0  0  0  0  0  0  0  0  0  0  0
    6.4840   -4.1030   20.8030 C   0  0  0  0  0  0  0  0  0  0  0  0
    3.9550   -8.0470   24.6980 O   0  0  0  0  0  0  0  0  0  0  0  0
    3.4060   -6.9100   24.2110 C   0  0  0  0  0  0  0  0  0  0  0  0
    5.8700   -2.0520   21.7790 C   0  0  0  0  0  0  0  0  0  0  0  0
    6.3780    0.3380   17.9640 N   0  0  0  0  0  0  0  0  0  0  0  0
    5.1860    1.1730   17.7900 C   0  0  0  0  0  0  0  0  0  0  0  0
    4.4610    1.6460   18.9760 C   0  0  0  0  0  0  0  0  0  0  0  0
    4.9460    1.2910   20.2310 C   0  0  0  0  0  0  0  0  0  0  0  0
    6.0830    0.5120   20.4190 C   0  0  0  0  0  0  0  0  0  0  0  0
    6.7940    0.0300   19.3290 C   0  0  0  0  0  0  0  0  0  0  0  0
    9.3320   -1.6060   21.5910 C   0  0  0  0  0  0  0  0  0  0  0  0
   10.6550   -1.7860   22.0220 C   0  0  0  0  0  0  0  0  0  0  0  0
   11.0150   -1.7460   23.4900 C   0  0  0  0  0  0  0  0  0  0  0  0
    9.8960   -1.5280   24.4550 C   0  0  0  0  0  0  0  0  0  0  0  0
    8.4570   -1.3380   24.0350 C   0  0  0  0  0  0  0  0  0  0  0  0
    8.1810   -1.3650   22.5430 C   0  0  0  0  0  0  0  0  0  0  0  0
    5.6420   -3.9360   23.1340 C   0  0  0  0  0  0  0  0  0  0  0  0
    4.8590   -5.0870   23.0100 C   0  0  0  0  0  0  0  0  0  0  0  0
    4.2340   -5.7340   24.2420 C   0  0  0  0  0  0  0  0  0  0  0  0
    4.5300   -5.0560   25.5590 C   0  0  0  0  0  0  0  0  0  0  0  0
    5.4030   -3.8180   25.5380 C   0  0  0  0  0  0  0  0  0  0  0  0
    5.9260   -3.3000   24.3560 C   0  0  0  0  0  0  0  0  0  0  0  0
    1.4980   -5.5390   23.3790 C   0  0  0  0  0  0  0  0  0  0  0  0
    0.5280   -5.0890   24.2950 C   0  0  0  0  0  0  0  0  0  0  0  0
   -0.8300   -6.2920   24.3460 S   0  0  0  0  0  0  0  0  0  0  0  0
    0.1910   -7.7170   24.8780 C   0  0  0  0  0  0  0  0  0  0  0  0
    1.1850   -7.9630   23.9210 C   0  0  0  0  0  0  0  0  0  0  0  0
    2.0970   -6.8230   23.7250 N   0  0  0  0  0  0  0  0  0  0  0  0
  1  4  1  0
  2  5  1  0
  3  5  2  0
  4  5  1  6
  2  6  1  0
  7  8  1  0
  7  9  1  0
  7 10  1  0
 11 14  1  0
 12 14  1  0
 13 14  2  0
 15 16  2  0
  1 17  1  0
 11 17  1  0
 18 19  2  0
 19 20  1  0
 20 21  2  0
  4 22  1  0
 21 22  1  0
 18 23  1  0
 22 23  2  0
 24 25  2  0
  7 26  1  0
 25 26  1  0
 26 27  2  0
 27 28  1  0
  1 29  1  0
 24 29  1  0
 28 29  2  0
 11 30  1  0
 30 31  2  0
 16 32  1  0
 31 32  1  0
 32 33  2  0
 33 34  1  0
 30 35  1  0
 34 35  2  0
 36 37  1  0
 37 38  1  0
 38 39  1  0
 39 40  1  0
 16 41  1  0
 36 41  1  0
 40 41  1  0
M  END
