x0786-x2703
     RDKit          3D

 48 52  0  0  0  0  0  0  0  0999 V2000
    6.9510   -1.3020   21.7490 N   0  0  0  0  0  0  0  0  0  0  0  0
    7.4890    1.9910   22.8580 N   0  0  0  0  0  0  0  0  0  0  0  0
    8.9250    1.1800   21.0570 O   0  0  0  0  0  0  0  0  0  0  0  0
    6.6700    0.0450   21.6060 C   0  0  1  0  0  0  0  0  0  0  0  0
    7.7580    1.0880   21.8510 C   0  0  0  0  0  0  0  0  0  0  0  0
   10.1730    2.0470   24.0400 C   0  0  0  0  0  0  0  0  0  0  0  0
    9.2370    1.2470   24.9700 C   0  0  0  0  0  0  0  0  0  0  0  0
    6.1590    4.3340   21.8800 C   0  0  0  0  0  0  0  0  0  0  0  0
   12.3970   -2.2470   23.7020 C   0  0  0  0  0  0  0  0  0  0  0  0
   12.6080   -2.6060   25.0240 C   0  0  0  0  0  0  0  0  0  0  0  0
   13.0870   -1.2330   24.6220 C   0  0  0  0  0  0  0  0  0  0  0  0
    6.0200   -3.4980   21.9310 N   0  0  0  0  0  0  0  0  0  0  0  0
    7.5620   -4.6970   20.5700 C   0  0  0  0  0  0  0  0  0  0  0  0
    5.2970   -4.4380   19.9220 O   0  0  0  0  0  0  0  0  0  0  0  0
    6.1860   -4.2140   20.7610 C   0  0  0  0  0  0  0  0  0  0  0  0
    3.9370   -8.0670   24.7750 O   0  0  0  0  0  0  0  0  0  0  0  0
    3.3650   -6.9490   24.2890 C   0  0  0  0  0  0  0  0  0  0  0  0
    5.8380   -2.1730   21.9000 C   0  0  0  0  0  0  0  0  0  0  0  0
    6.3350    0.4760   17.8180 N   0  0  0  0  0  0  0  0  0  0  0  0
    5.1090    1.2760   17.8070 C   0  0  0  0  0  0  0  0  0  0  0  0
    4.4590    1.6050   19.0050 C   0  0  0  0  0  0  0  0  0  0  0  0
    4.9790    1.1860   20.2170 C   0  0  0  0  0  0  0  0  0  0  0  0
    6.1320    0.4460   20.2530 C   0  0  0  0  0  0  0  0  0  0  0  0
    6.7940    0.0880   19.1090 C   0  0  0  0  0  0  0  0  0  0  0  0
   10.7660   -1.4170   22.0790 N   0  0  0  0  0  0  0  0  0  0  0  0
   10.9500   -2.0520   23.2350 C   0  0  0  0  0  0  0  0  0  0  0  0
    9.8780   -2.5840   24.1340 C   0  0  0  0  0  0  0  0  0  0  0  0
    8.4670   -2.3450   23.6560 C   0  0  0  0  0  0  0  0  0  0  0  0
    8.2060   -1.6170   22.3440 C   0  0  0  0  0  0  0  0  0  0  0  0
    9.5000   -1.2070   21.6490 C   0  0  0  0  0  0  0  0  0  0  0  0
    9.4730    3.2950   23.5410 C   0  0  0  0  0  0  0  0  0  0  0  0
   10.1750    4.4800   23.6710 C   0  0  0  0  0  0  0  0  0  0  0  0
    9.5690    5.7830   23.1960 C   0  0  0  0  0  0  0  0  0  0  0  0
    8.1830    5.7770   22.5700 C   0  0  0  0  0  0  0  0  0  0  0  0
    7.5350    4.3940   22.4960 C   0  0  0  0  0  0  0  0  0  0  0  0
    8.1890    3.2430   22.9740 C   0  0  0  0  0  0  0  0  0  0  0  0
    5.5170   -4.0390   23.1110 C   0  0  0  0  0  0  0  0  0  0  0  0
    4.7340   -5.1910   23.1260 C   0  0  0  0  0  0  0  0  0  0  0  0
    4.2000   -5.7370   24.2890 C   0  0  0  0  0  0  0  0  0  0  0  0
    4.4760   -5.0960   25.4920 C   0  0  0  0  0  0  0  0  0  0  0  0
    5.2650   -3.9380   25.5150 C   0  0  0  0  0  0  0  0  0  0  0  0
    5.7760   -3.4190   24.3360 C   0  0  0  0  0  0  0  0  0  0  0  0
    1.5370   -5.5590   23.4580 C   0  0  0  0  0  0  0  0  0  0  0  0
    0.6080   -5.0830   24.3870 C   0  0  0  0  0  0  0  0  0  0  0  0
   -0.8720   -6.1310   24.4120 S   0  0  0  0  0  0  0  0  0  0  0  0
    0.0120   -7.6950   24.7570 C   0  0  0  0  0  0  0  0  0  0  0  0
    1.0540   -7.9560   23.8690 C   0  0  0  0  0  0  0  0  0  0  0  0
    2.0590   -6.8730   23.8220 N   0  0  0  0  0  0  0  0  0  0  0  0
  1  4  1  0
  2  5  1  0
  3  5  2  0
  4  5  1  6
  6  7  1  0
  9 10  1  0
  9 11  1  0
 12 15  1  0
 13 15  1  0
 14 15  2  0
 16 17  2  0
  1 18  1  0
 12 18  1  0
 19 20  2  0
 20 21  1  0
 21 22  2  0
  4 23  1  0
 22 23  1  0
 19 24  1  0
 23 24  2  0
  9 26  1  0
 25 26  2  0
 26 27  1  0
 27 28  2  0
  1 29  1  0
 28 29  1  0
 25 30  1  0
 29 30  2  0
  6 31  1  0
 31 32  2  0
 32 33  1  0
 33 34  2  0
  8 35  1  0
 34 35  1  0
  2 36  1  0
 31 36  1  0
 35 36  2  0
 12 37  1  0
 37 38  2  0
 17 39  1  0
 38 39  1  0
 39 40  2  0
 40 41  1  0
 37 42  1  0
 41 42  2  0
 43 44  1  0
 44 45  1  0
 45 46  1  0
 46 47  1  0
 17 48  1  0
 43 48  1  0
 47 48  1  0
M  END
