x0786-x0540
     RDKit          3D

 39 42  0  0  0  0  0  0  0  0999 V2000
    6.0700   -3.6940   21.8500 N   0  0  0  0  0  0  0  0  0  0  0  0
    7.0940   -5.1350   20.1880 C   0  0  0  0  0  0  0  0  0  0  0  0
    5.0420   -4.2840   19.7930 O   0  0  0  0  0  0  0  0  0  0  0  0
    5.9490   -4.3420   20.6130 C   0  0  0  0  0  0  0  0  0  0  0  0
    3.7640   -8.0750   24.7590 O   0  0  0  0  0  0  0  0  0  0  0  0
    3.3250   -7.0510   24.2560 C   0  0  0  0  0  0  0  0  0  0  0  0
    2.8150    1.5880   24.3110 O   0  0  0  0  0  0  0  0  0  0  0  0
    2.9550    2.4150   23.4080 C   0  0  0  0  0  0  0  0  0  0  0  0
    4.1690    2.5400   22.5650 N   0  0  0  0  0  0  0  0  0  0  0  0
    5.0790    1.3840   22.6680 C   0  0  0  0  0  0  0  0  0  0  0  0
    4.6100    0.2120   21.7870 C   0  0  2  0  0  0  0  0  0  0  0  0
    1.9460    3.4120   23.0280 N   0  0  0  0  0  0  0  0  0  0  0  0
    6.9590   -2.5630   22.0320 C   0  0  0  0  0  0  0  0  0  0  0  0
    6.3460   -1.4100   22.4990 C   0  0  0  0  0  0  0  0  0  0  0  0
    5.0430   -1.2260   22.0800 C   0  0  0  0  0  0  0  0  0  0  0  0
    5.5690   -4.1860   23.1030 C   0  0  0  0  0  0  0  0  0  0  0  0
    4.7480   -5.3220   23.0760 C   0  0  0  0  0  0  0  0  0  0  0  0
    4.1720   -5.9030   24.2400 C   0  0  0  0  0  0  0  0  0  0  0  0
    4.5610   -5.1470   25.4750 C   0  0  0  0  0  0  0  0  0  0  0  0
    5.3800   -4.0230   25.4990 C   0  0  0  0  0  0  0  0  0  0  0  0
    5.9340   -3.4610   24.4000 C   0  0  0  0  0  0  0  0  0  0  0  0
    1.4470   -5.6220   23.3670 C   0  0  0  0  0  0  0  0  0  0  0  0
    0.5090   -5.1820   24.2990 C   0  0  0  0  0  0  0  0  0  0  0  0
   -0.9230   -6.1280   24.2390 S   0  0  0  0  0  0  0  0  0  0  0  0
   -0.0780   -7.5090   24.8650 C   0  0  0  0  0  0  0  0  0  0  0  0
    1.0750   -7.9980   23.9900 C   0  0  0  0  0  0  0  0  0  0  0  0
    2.0460   -6.9310   23.7200 N   0  0  0  0  0  0  0  0  0  0  0  0
    6.3770   -0.3410   19.9950 C   0  0  0  0  0  0  0  0  0  0  0  0
    6.8610   -0.1110   18.6060 C   0  0  0  0  0  0  0  0  0  0  0  0
    6.3330    0.6780   17.6840 N   0  0  0  0  0  0  0  0  0  0  0  0
    5.2350    1.3130   18.1100 C   0  0  0  0  0  0  0  0  0  0  0  0
    4.5970    1.2400   19.3980 C   0  0  0  0  0  0  0  0  0  0  0  0
    5.1260    0.4200   20.4010 C   0  0  0  0  0  0  0  0  0  0  0  0
    0.6650    4.3850   24.7240 C   0  0  0  0  0  0  0  0  0  0  0  0
   -0.6650    4.9980   25.1860 C   0  0  0  0  0  0  0  0  0  0  0  0
   -1.8250    4.4390   24.3480 C   0  0  0  0  0  0  0  0  0  0  0  0
   -1.7320    3.1480   23.8200 C   0  0  0  0  0  0  0  0  0  0  0  0
   -0.3530    2.7430   23.3460 C   0  0  0  0  0  0  0  0  0  0  0  0
    0.6440    3.7100   23.4960 C   0  0  0  0  0  0  0  0  0  0  0  0
  1  4  1  0
  2  4  1  0
  3  4  2  0
  5  6  2  0
  7  8  2  0
  8  9  1  0
  9 10  1  0
 11 10  1  1
  8 12  1  0
  1 13  1  0
 13 14  1  0
 11 15  1  0
 14 15  1  0
  1 16  1  0
 16 17  2  0
  6 18  1  0
 17 18  1  0
 18 19  2  0
 19 20  1  0
 16 21  1  0
 20 21  2  0
 22 23  1  0
 23 24  1  0
 24 25  1  0
 25 26  1  0
  6 27  1  0
 22 27  1  0
 26 27  1  0
 28 29  2  0
 29 30  1  0
 30 31  2  0
 31 32  1  0
 11 33  1  0
 28 33  1  0
 32 33  2  0
 34 35  1  0
 35 36  1  0
 36 37  1  0
 37 38  1  0
 12 39  1  0
 34 39  1  0
 38 39  1  0
M  END
