x0786-x0769
     RDKit          3D

 27 29  0  0  0  0  0  0  0  0999 V2000
    5.1970   -3.7390   25.6580 O   0  0  0  0  0  0  0  0  0  0  0  0
    3.9210   -6.5110   25.1500 C   0  0  0  0  0  0  0  0  0  0  0  0
    5.3370   -4.5260   19.9040 O   0  0  0  0  0  0  0  0  0  0  0  0
    6.4030   -4.1930   20.4120 C   0  0  0  0  0  0  0  0  0  0  0  0
    7.3910   -3.2870   19.6620 C   0  0  0  0  0  0  0  0  0  0  0  0
    5.5580   -2.2330   25.9560 F   0  0  0  0  0  0  0  0  0  0  0  0
    5.0430   -5.0770   25.1970 S   0  0  2  0  0  0  0  0  0  0  0  0
    3.3550   -7.8130   24.9410 N   0  0  0  0  0  0  0  0  0  0  0  0
    4.2670   -2.6000   26.0180 C   0  0  0  0  0  0  0  0  0  0  0  0
    3.8550   -3.9110   25.7100 C   0  0  0  0  0  0  0  0  0  0  0  0
    2.3550   -4.1960   25.8240 C   0  0  0  0  0  0  0  0  0  0  0  0
    1.4910   -3.1650   26.2070 C   0  0  0  0  0  0  0  0  0  0  0  0
    1.9930   -1.8860   26.4860 C   0  0  0  0  0  0  0  0  0  0  0  0
    3.3580   -1.6010   26.3980 C   0  0  0  0  0  0  0  0  0  0  0  0
    6.7110   -4.6700   21.6830 N   0  0  0  0  0  0  0  0  0  0  0  0
    6.6480   -6.0790   22.1280 C   0  0  0  0  0  0  0  0  0  0  0  0
    5.9330   -6.0600   23.2950 C   0  0  0  0  0  0  0  0  0  0  0  0
    6.4120   -5.2950   24.3120 N   0  0  0  0  0  0  0  0  0  0  0  0
    7.0560   -4.1820   23.8930 C   0  0  0  0  0  0  0  0  0  0  0  0
    7.5660   -4.1110   22.4970 C   0  0  0  0  0  0  0  0  0  0  0  0
    1.4860   -5.9200   23.6980 C   0  0  0  0  0  0  0  0  0  0  0  0
    0.3040   -5.1800   23.8680 C   0  0  0  0  0  0  0  0  0  0  0  0
   -0.9270   -5.9640   24.9660 S   0  0  0  0  0  0  0  0  0  0  0  0
   -0.8720   -7.7060   24.4460 C   0  0  0  0  0  0  0  0  0  0  0  0
    0.1520   -8.0070   23.5700 C   0  0  0  0  0  0  0  0  0  0  0  0
    1.3850   -7.3590   23.9640 N   0  0  0  0  0  0  0  0  0  0  0  0
    1.9630   -7.9050   25.1910 C   0  0  0  0  0  0  0  0  0  0  0  0
  3  4  2  0
  4  5  1  0
  1  7  2  0
  2  7  2  0
  2  8  2  0
  6  9  1  0
  7 10  1  6
  9 10  2  0
 10 11  1  0
 11 12  2  0
 12 13  1  0
  9 14  1  0
 13 14  2  0
  4 15  1  0
 15 16  1  0
 16 17  1  0
  7 18  1  0
 17 18  1  0
 18 19  1  0
 15 20  1  0
 19 20  1  0
 21 22  1  0
 22 23  1  0
 23 24  1  0
 24 25  1  0
 21 26  1  0
 25 26  1  0
  8 27  1  0
 26 27  1  0
M  END
