x0786-x2119
     RDKit          3D

 23 25  0  0  0  0  0  0  0  0999 V2000
    6.3210   -4.1970   21.9330 N   0  0  0  0  0  0  0  0  0  0  0  0
    7.1620   -5.4230   20.0720 C   0  0  0  0  0  0  0  0  0  0  0  0
    5.0960   -4.6160   19.9310 O   0  0  0  0  0  0  0  0  0  0  0  0
    6.0640   -4.7290   20.6750 C   0  0  0  0  0  0  0  0  0  0  0  0
    3.7910   -8.1520   24.7550 O   0  0  0  0  0  0  0  0  0  0  0  0
    3.3050   -7.1370   24.2900 C   0  0  0  0  0  0  0  0  0  0  0  0
    5.6840   -4.5270   23.1700 C   0  0  0  0  0  0  0  0  0  0  0  0
    4.8510   -5.6310   23.1530 C   0  0  0  0  0  0  0  0  0  0  0  0
    4.1780   -5.9090   24.4900 C   0  0  0  0  0  0  0  0  0  0  0  0
    4.3880   -5.1270   25.6130 C   0  0  0  0  0  0  0  0  0  0  0  0
    5.2540   -4.0400   25.5220 C   0  0  0  0  0  0  0  0  0  0  0  0
    5.8880   -3.7470   24.3250 C   0  0  0  0  0  0  0  0  0  0  0  0
    1.4280   -5.6970   23.2810 C   0  0  0  0  0  0  0  0  0  0  0  0
    0.6810   -5.1960   24.3550 C   0  0  0  0  0  0  0  0  0  0  0  0
   -0.8490   -5.9360   24.2500 S   0  0  0  0  0  0  0  0  0  0  0  0
   -0.1800   -7.4230   24.7500 C   0  0  0  0  0  0  0  0  0  0  0  0
    0.9170   -7.9310   23.8890 C   0  0  0  0  0  0  0  0  0  0  0  0
    2.0340   -7.0120   23.6260 N   0  0  0  0  0  0  0  0  0  0  0  0
    6.3370   -2.8520   21.9350 C   0  0  0  0  0  0  0  0  0  0  0  0
    5.1030   -2.1010   22.0100 N   0  0  0  0  0  0  0  0  0  0  0  0
    5.5570   -0.7380   22.0160 C   0  0  0  0  0  0  0  0  0  0  0  0
    6.9180   -0.6490   21.9450 C   0  0  0  0  0  0  0  0  0  0  0  0
    7.5260   -1.9890   21.8840 N   0  0  0  0  0  0  0  0  0  0  0  0
  1  4  1  0
  2  4  1  0
  3  4  2  0
  5  6  2  0
  1  7  1  0
  7  8  2  0
  6  9  1  0
  8  9  1  0
  9 10  2  0
 10 11  1  0
  7 12  1  0
 11 12  2  0
 13 14  1  0
 14 15  1  0
 15 16  1  0
 16 17  1  0
  6 18  1  0
 13 18  1  0
 17 18  1  0
  1 19  1  0
 19 20  2  0
 20 21  1  0
 21 22  2  0
 19 23  1  0
 22 23  1  0
M  END
