x0786-x3113
     RDKit          3D

 45 48  0  0  0  0  0  0  0  0999 V2000
    7.2000   -1.0930   21.9030 N   0  0  0  0  0  0  0  0  0  0  0  0
    8.3900    1.5080   23.3270 N   0  0  0  0  0  0  0  0  0  0  0  0
    8.9620    1.6130   20.9650 O   0  0  0  0  0  0  0  0  0  0  0  0
   11.7980    4.1880   23.3530 O   0  0  0  0  0  0  0  0  0  0  0  0
    6.9530    0.2450   21.7700 C   0  0  1  0  0  0  0  0  0  0  0  0
    8.1590    1.1370   22.0240 C   0  0  0  0  0  0  0  0  0  0  0  0
    9.4210    2.5010   23.6760 C   0  0  0  0  0  0  0  0  0  0  0  0
   10.8450    1.9260   23.5790 C   0  0  0  0  0  0  0  0  0  0  0  0
   11.8040    2.7980   23.0430 C   0  0  0  0  0  0  0  0  0  0  0  0
   12.9590    4.7720   22.9020 C   0  0  0  0  0  0  0  0  0  0  0  0
   12.4530   -2.1660   24.3270 C   0  0  0  0  0  0  0  0  0  0  0  0
   13.3690   -2.3500   23.2960 C   0  0  0  0  0  0  0  0  0  0  0  0
   12.2160   -3.1640   25.2590 C   0  0  0  0  0  0  0  0  0  0  0  0
   12.8040   -1.0520   25.0420 C   0  0  0  0  0  0  0  0  0  0  0  0
    6.0350   -3.4040   21.9650 N   0  0  0  0  0  0  0  0  0  0  0  0
    7.6960   -4.4410   20.6490 C   0  0  0  0  0  0  0  0  0  0  0  0
    5.4090   -4.3950   19.9200 O   0  0  0  0  0  0  0  0  0  0  0  0
    6.2650   -4.0930   20.7880 C   0  0  0  0  0  0  0  0  0  0  0  0
    3.8330   -8.1620   24.8780 O   0  0  0  0  0  0  0  0  0  0  0  0
    3.2920   -6.9990   24.2920 C   0  0  0  0  0  0  0  0  0  0  0  0
    6.0980   -1.9490   22.1310 C   0  0  0  0  0  0  0  0  0  0  0  0
    6.3630    0.3230   17.9130 N   0  0  0  0  0  0  0  0  0  0  0  0
    5.3030    1.1010   17.8510 C   0  0  0  0  0  0  0  0  0  0  0  0
    4.7010    1.6380   18.9820 C   0  0  0  0  0  0  0  0  0  0  0  0
    5.1260    1.4380   20.2760 C   0  0  0  0  0  0  0  0  0  0  0  0
    6.2310    0.6480   20.4840 C   0  0  0  0  0  0  0  0  0  0  0  0
    6.8640    0.0680   19.2490 C   0  0  0  0  0  0  0  0  0  0  0  0
    9.5760   -1.3250   21.6700 C   0  0  0  0  0  0  0  0  0  0  0  0
   10.9710   -1.5880   22.1930 C   0  0  0  0  0  0  0  0  0  0  0  0
   11.1000   -1.9010   23.6640 C   0  0  0  0  0  0  0  0  0  0  0  0
    9.9420   -1.9590   24.5210 C   0  0  0  0  0  0  0  0  0  0  0  0
    8.7110   -1.7080   23.9430 C   0  0  0  0  0  0  0  0  0  0  0  0
    8.4800   -1.3760   22.4880 C   0  0  0  0  0  0  0  0  0  0  0  0
    5.5110   -4.0220   23.0640 C   0  0  0  0  0  0  0  0  0  0  0  0
    4.6440   -5.2770   23.0560 C   0  0  0  0  0  0  0  0  0  0  0  0
    4.1410   -5.8060   24.2430 C   0  0  0  0  0  0  0  0  0  0  0  0
    4.5010   -5.0870   25.5300 C   0  0  0  0  0  0  0  0  0  0  0  0
    5.3000   -3.9550   25.4720 C   0  0  0  0  0  0  0  0  0  0  0  0
    5.8040   -3.4160   24.3000 C   0  0  0  0  0  0  0  0  0  0  0  0
    1.4370   -5.5730   23.3910 C   0  0  0  0  0  0  0  0  0  0  0  0
    0.5370   -5.0870   24.3450 C   0  0  0  0  0  0  0  0  0  0  0  0
   -0.9460   -6.1330   24.4290 S   0  0  0  0  0  0  0  0  0  0  0  0
   -0.0360   -7.6600   24.8200 C   0  0  0  0  0  0  0  0  0  0  0  0
    0.9010   -7.9460   23.8220 C   0  0  0  0  0  0  0  0  0  0  0  0
    1.9310   -6.8990   23.7510 N   0  0  0  0  0  0  0  0  0  0  0  0
  1  5  1  0
  2  6  1  0
  3  6  2  0
  5  6  1  6
  2  7  1  0
  7  8  1  0
  4  9  1  0
  8  9  1  0
  4 10  1  0
 11 12  1  0
 11 13  1  0
 11 14  1  0
 15 18  1  0
 16 18  1  0
 17 18  2  0
 19 20  2  0
  1 21  1  0
 15 21  1  0
 22 23  2  0
 23 24  1  0
 24 25  2  0
  5 26  1  0
 25 26  1  0
 22 27  1  0
 26 27  2  0
 28 29  2  0
 11 30  1  0
 29 30  1  0
 30 31  2  0
 31 32  1  0
  1 33  1  0
 28 33  1  0
 32 33  2  0
 15 34  1  0
 34 35  2  0
 20 36  1  0
 35 36  1  0
 36 37  2  0
 37 38  1  0
 34 39  1  0
 38 39  2  0
 40 41  1  0
 41 42  1  0
 42 43  1  0
 43 44  1  0
 20 45  1  0
 40 45  1  0
 44 45  1  0
M  END
