x0820-x2705
     RDKit          3D

 44 48  0  0  0  0  0  0  0  0999 V2000
    7.4640   -1.6120   22.2190 N   0  0  0  0  0  0  0  0  0  0  0  0
    7.5160    1.9580   22.9110 N   0  0  0  0  0  0  0  0  0  0  0  0
    8.8820    1.2660   21.1240 O   0  0  0  0  0  0  0  0  0  0  0  0
    6.8540   -0.3130   21.8410 C   0  0  1  0  0  0  0  0  0  0  0  0
    7.7670    0.9680   21.9810 C   0  0  0  0  0  0  0  0  0  0  0  0
   10.2010    2.0310   23.9460 C   0  0  0  0  0  0  0  0  0  0  0  0
    9.3840    1.2860   24.8050 C   0  0  0  0  0  0  0  0  0  0  0  0
    6.1620    4.5010   21.9620 C   0  0  0  0  0  0  0  0  0  0  0  0
   12.4230   -1.4290   23.2980 C   0  0  0  0  0  0  0  0  0  0  0  0
   12.9110   -0.1500   23.5430 C   0  0  0  0  0  0  0  0  0  0  0  0
   12.9620   -2.3970   24.3820 C   0  0  0  0  0  0  0  0  0  0  0  0
   12.9580   -1.8710   21.9170 C   0  0  0  0  0  0  0  0  0  0  0  0
    5.8630   -3.3010   21.4640 N   0  0  0  0  0  0  0  0  0  0  0  0
    5.5710   -4.9800   20.0190 O   0  0  0  0  0  0  0  0  0  0  0  0
    6.8840   -3.0380   22.4570 C   0  0  2  0  0  0  0  0  0  0  0  0
    6.0920   -3.8860   20.2670 C   0  0  0  0  0  0  0  0  0  0  0  0
    6.9490   -3.2080   19.2080 C   0  0  0  0  0  0  0  0  0  0  0  0
    6.4810    0.0120   18.0870 N   0  0  0  0  0  0  0  0  0  0  0  0
    5.2800    0.6170   17.9930 C   0  0  0  0  0  0  0  0  0  0  0  0
    4.5120    0.9330   19.0850 C   0  0  0  0  0  0  0  0  0  0  0  0
    5.0160    0.6140   20.3490 C   0  0  0  0  0  0  0  0  0  0  0  0
    6.2750   -0.0120   20.4710 C   0  0  0  0  0  0  0  0  0  0  0  0
    6.9380   -0.2840   19.3360 C   0  0  0  0  0  0  0  0  0  0  0  0
   10.2250   -1.3270   24.4770 N   0  0  0  0  0  0  0  0  0  0  0  0
    8.9120   -1.3790   24.1350 N   0  0  0  0  0  0  0  0  0  0  0  0
    8.6830   -1.5310   22.7970 C   0  0  0  0  0  0  0  0  0  0  0  0
   10.1010   -1.5800   22.2360 C   0  0  0  0  0  0  0  0  0  0  0  0
   10.9250   -1.4470   23.3290 C   0  0  0  0  0  0  0  0  0  0  0  0
    9.4720    3.2750   23.4810 C   0  0  0  0  0  0  0  0  0  0  0  0
   10.1480    4.4830   23.5730 C   0  0  0  0  0  0  0  0  0  0  0  0
    9.5380    5.6840   23.1520 C   0  0  0  0  0  0  0  0  0  0  0  0
    8.2280    5.6610   22.6270 C   0  0  0  0  0  0  0  0  0  0  0  0
    7.5500    4.4220   22.5400 C   0  0  0  0  0  0  0  0  0  0  0  0
    8.1530    3.2370   22.9640 C   0  0  0  0  0  0  0  0  0  0  0  0
    6.2280   -3.5210   23.8140 C   0  0  0  0  0  0  0  0  0  0  0  0
    6.8620   -3.8280   25.0690 C   0  0  0  0  0  0  0  0  0  0  0  0
    6.0580   -4.2550   26.1600 C   0  0  0  0  0  0  0  0  0  0  0  0
    4.6770   -4.3810   26.0080 C   0  0  0  0  0  0  0  0  0  0  0  0
    4.0690   -4.0900   24.7880 C   0  0  0  0  0  0  0  0  0  0  0  0
    4.8320   -3.6670   23.7130 C   0  0  0  0  0  0  0  0  0  0  0  0
    6.6050   -4.5660   27.4220 C   0  0  0  0  0  0  0  0  0  0  0  0
    7.9590   -4.4750   27.6550 C   0  0  0  0  0  0  0  0  0  0  0  0
    8.7930   -4.0670   26.6100 C   0  0  0  0  0  0  0  0  0  0  0  0
    8.2530   -3.7540   25.3620 C   0  0  0  0  0  0  0  0  0  0  0  0
  1  4  1  0
  2  5  1  0
  3  5  2  0
  4  5  1  6
  6  7  1  0
  9 10  1  0
  9 11  1  0
  9 12  1  0
  1 15  1  0
 15 13  1  6
 13 16  1  0
 14 16  2  0
 16 17  1  0
 18 19  2  0
 19 20  1  0
 20 21  2  0
  4 22  1  0
 21 22  1  0
 18 23  1  0
 22 23  2  0
 24 25  1  0
  1 26  1  0
 25 26  1  0
 26 27  2  0
  9 28  1  0
 24 28  2  0
 27 28  1  0
  6 29  1  0
 29 30  2  0
 30 31  1  0
 31 32  2  0
  8 33  1  0
 32 33  1  0
  2 34  1  0
 29 34  1  0
 33 34  2  0
 15 35  1  0
 35 36  2  0
 36 37  1  0
 37 38  2  0
 38 39  1  0
 35 40  1  0
 39 40  2  0
 37 41  1  0
 41 42  2  0
 42 43  1  0
 36 44  1  0
 43 44  2  0
M  END
