x0820-x2581
     RDKit          3D

 39 43  0  0  0  0  0  0  0  0999 V2000
    6.8000   -4.9660   21.7400 N   0  0  0  0  0  0  0  0  0  0  0  0
    7.6160   -2.6580   22.4440 C   0  0  0  0  0  0  0  0  0  0  0  0
    5.3070   -5.1210   20.0160 O   0  0  0  0  0  0  0  0  0  0  0  0
    7.3230   -4.1230   22.7980 C   0  0  1  0  0  0  0  0  0  0  0  0
    6.2720   -4.5750   20.5240 C   0  0  0  0  0  0  0  0  0  0  0  0
    6.9200   -3.4700   19.7080 C   0  0  0  0  0  0  0  0  0  0  0  0
    9.8690   -2.3160   23.6790 C   0  0  0  0  0  0  0  0  0  0  0  0
   10.3130   -1.1690   23.7980 O   0  0  0  0  0  0  0  0  0  0  0  0
   10.3250    3.3470   22.1500 N   0  0  0  0  0  0  0  0  0  0  0  0
   11.3770    3.2080   24.0770 O   0  0  0  0  0  0  0  0  0  0  0  0
   11.1870    3.8290   23.0720 C   0  0  0  0  0  0  0  0  0  0  0  0
   11.7980    5.0510   22.7760 C   0  0  0  0  0  0  0  0  0  0  0  0
    9.1330   -2.3920   22.3410 C   0  0  0  0  0  0  0  0  0  0  0  0
    6.3950   -4.2470   23.9810 C   0  0  0  0  0  0  0  0  0  0  0  0
    6.9870   -4.3680   25.3730 C   0  0  0  0  0  0  0  0  0  0  0  0
    5.9380   -4.4910   26.4700 C   0  0  0  0  0  0  0  0  0  0  0  0
    4.5690   -4.4850   26.1660 C   0  0  0  0  0  0  0  0  0  0  0  0
    4.1240   -4.3690   24.8510 C   0  0  0  0  0  0  0  0  0  0  0  0
    5.0040   -4.2520   23.7800 C   0  0  0  0  0  0  0  0  0  0  0  0
    6.3860   -4.6120   27.7970 C   0  0  0  0  0  0  0  0  0  0  0  0
    7.7540   -4.6280   28.1570 C   0  0  0  0  0  0  0  0  0  0  0  0
    8.7220   -4.5240   27.2380 C   0  0  0  0  0  0  0  0  0  0  0  0
    8.3400   -4.3840   25.7590 C   0  0  0  0  0  0  0  0  0  0  0  0
    8.8420    1.8210   21.2390 N   0  0  0  0  0  0  0  0  0  0  0  0
    9.8240    2.0310   22.1450 C   0  0  0  0  0  0  0  0  0  0  0  0
   10.3390    1.0560   23.0160 C   0  0  0  0  0  0  0  0  0  0  0  0
    9.7960   -0.2330   22.9410 C   0  0  0  0  0  0  0  0  0  0  0  0
    8.7940   -0.4610   22.0200 C   0  0  0  0  0  0  0  0  0  0  0  0
    8.3460    0.5820   21.1960 C   0  0  0  0  0  0  0  0  0  0  0  0
    9.8580    6.6570   22.8590 C   0  0  0  0  0  0  0  0  0  0  0  0
    9.1500    7.7470   23.3700 C   0  0  0  0  0  0  0  0  0  0  0  0
    9.6680    8.4620   24.4370 C   0  0  0  0  0  0  0  0  0  0  0  0
   10.9000    8.0800   24.9960 C   0  0  0  0  0  0  0  0  0  0  0  0
   11.6010    6.9840   24.4800 C   0  0  0  0  0  0  0  0  0  0  0  0
   11.0930    6.2580   23.4010 C   0  0  0  0  0  0  0  0  0  0  0  0
    8.9790    9.5690   24.9550 C   0  0  0  0  0  0  0  0  0  0  0  0
    9.5220   10.2880   26.0250 C   0  0  0  0  0  0  0  0  0  0  0  0
   10.7360    9.9130   26.5810 C   0  0  0  0  0  0  0  0  0  0  0  0
   11.4230    8.8130   26.0730 C   0  0  0  0  0  0  0  0  0  0  0  0
  1  4  1  0
  4  2  1  6
  1  5  1  0
  3  5  2  0
  5  6  1  0
  7  8  1  0
  9 11  1  0
 10 11  2  0
 11 12  1  0
  2 13  1  0
  7 13  1  0
  4 14  1  0
 14 15  2  0
 15 16  1  0
 16 17  2  0
 17 18  1  0
 14 19  1  0
 18 19  2  0
 16 20  1  0
 20 21  2  0
 21 22  1  0
 15 23  1  0
 22 23  2  0
  9 25  1  0
 24 25  2  0
 25 26  1  0
  8 27  1  0
 26 27  2  0
 27 28  1  0
 24 29  1  0
 28 29  2  0
 30 31  2  0
 31 32  1  0
 32 33  2  0
 33 34  1  0
 12 35  1  0
 30 35  1  0
 34 35  2  0
 32 36  1  0
 36 37  2  0
 37 38  1  0
 33 39  1  0
 38 39  2  0
M  END
