x0820-x0678
     RDKit          3D

 33 36  0  0  0  0  0  0  0  0999 V2000
    6.8220   -4.8930   21.7680 N   0  0  0  0  0  0  0  0  0  0  0  0
    8.0160   -2.6810   22.4290 C   0  0  0  0  0  0  0  0  0  0  0  0
    5.3340   -5.0680   20.0230 O   0  0  0  0  0  0  0  0  0  0  0  0
    7.4190   -4.0710   22.8140 C   0  0  1  0  0  0  0  0  0  0  0  0
    6.3100   -4.5250   20.5330 C   0  0  0  0  0  0  0  0  0  0  0  0
    7.0010   -3.4680   19.6970 C   0  0  0  0  0  0  0  0  0  0  0  0
    9.2010    1.3230   21.3250 O   0  0  0  0  0  0  0  0  0  0  0  0
    8.6980    0.3390   21.8810 C   0  0  0  0  0  0  0  0  0  0  0  0
    9.1650   -0.0880   23.3060 C   0  0  0  0  0  0  0  0  0  0  0  0
    7.6880   -0.4150   21.3150 N   0  0  0  0  0  0  0  0  0  0  0  0
    7.0280   -1.5430   22.1320 C   0  0  0  0  0  0  0  0  0  0  0  0
    6.4610   -4.1540   23.9970 C   0  0  0  0  0  0  0  0  0  0  0  0
    6.9410   -4.2420   25.3040 C   0  0  0  0  0  0  0  0  0  0  0  0
    5.9820   -4.3490   26.4870 C   0  0  0  0  0  0  0  0  0  0  0  0
    4.5060   -4.3420   26.0610 C   0  0  0  0  0  0  0  0  0  0  0  0
    4.1090   -4.2490   24.7270 C   0  0  0  0  0  0  0  0  0  0  0  0
    5.0640   -4.1570   23.7200 C   0  0  0  0  0  0  0  0  0  0  0  0
    6.4470   -4.4420   27.7980 C   0  0  0  0  0  0  0  0  0  0  0  0
    7.8280   -4.4380   28.0180 C   0  0  0  0  0  0  0  0  0  0  0  0
    8.7360   -4.3390   26.9410 C   0  0  0  0  0  0  0  0  0  0  0  0
    8.3190   -4.2470   25.6630 C   0  0  0  0  0  0  0  0  0  0  0  0
   11.2260   -0.8860   22.2690 C   0  0  0  0  0  0  0  0  0  0  0  0
   12.5610   -1.6750   22.4250 C   0  0  0  0  0  0  0  0  0  0  0  0
   13.1900   -1.0820   23.5180 C   0  0  0  0  0  0  0  0  0  0  0  0
   12.4620   -0.9370   24.7100 C   0  0  0  0  0  0  0  0  0  0  0  0
   11.2260   -0.3420   24.5450 C   0  0  0  0  0  0  0  0  0  0  0  0
   10.5090   -0.8550   23.4520 C   0  0  0  0  0  0  0  0  0  0  0  0
    5.8120    1.0010   20.4920 C   0  0  0  0  0  0  0  0  0  0  0  0
    5.0690    1.4830   19.3940 C   0  0  0  0  0  0  0  0  0  0  0  0
    5.4040    1.0820   18.1150 C   0  0  0  0  0  0  0  0  0  0  0  0
    6.4140    0.2430   17.8650 N   0  0  0  0  0  0  0  0  0  0  0  0
    7.1020   -0.2020   18.9340 C   0  0  0  0  0  0  0  0  0  0  0  0
    6.8800    0.1180   20.2590 C   0  0  0  0  0  0  0  0  0  0  0  0
  1  4  1  0
  4  2  1  6
  1  5  1  0
  3  5  2  0
  5  6  1  0
  7  8  2  0
  8  9  1  0
  8 10  1  0
  2 11  1  0
 10 11  1  0
  4 12  1  0
 12 13  2  0
 13 14  1  0
 14 15  2  0
 15 16  1  0
 12 17  1  0
 16 17  2  0
 14 18  1  0
 18 19  2  0
 19 20  1  0
 13 21  1  0
 20 21  2  0
 22 23  1  0
 23 24  1  0
 24 25  1  0
 25 26  1  0
  9 27  1  0
 22 27  1  0
 26 27  1  0
 28 29  2  0
 29 30  1  0
 30 31  2  0
 31 32  1  0
 10 33  1  0
 28 33  1  0
 32 33  2  0
M  END
