x0820-x0786
     RDKit          3D

 26 28  0  0  0  0  0  0  0  0999 V2000
    7.0190   -4.9940   21.8280 N   0  0  0  0  0  0  0  0  0  0  0  0
    7.6030   -2.6470   22.5430 C   0  0  0  0  0  0  0  0  0  0  0  0
    5.4620   -5.1880   20.0700 O   0  0  0  0  0  0  0  0  0  0  0  0
    7.4450   -4.1330   22.9510 C   0  0  1  0  0  0  0  0  0  0  0  0
    6.4300   -4.6210   20.6030 C   0  0  0  0  0  0  0  0  0  0  0  0
    7.0250   -3.4940   19.7810 C   0  0  0  0  0  0  0  0  0  0  0  0
    6.4520   -4.4250   24.0700 C   0  0  0  0  0  0  0  0  0  0  0  0
    6.8460   -4.5520   25.5650 C   0  0  0  0  0  0  0  0  0  0  0  0
    5.8580   -4.8020   26.4940 C   0  0  0  0  0  0  0  0  0  0  0  0
    4.5850   -4.9360   26.0860 C   0  0  0  0  0  0  0  0  0  0  0  0
    4.2670   -4.8490   24.7680 C   0  0  0  0  0  0  0  0  0  0  0  0
    5.1720   -4.5840   23.5250 C   0  0  0  0  0  0  0  0  0  0  0  0
    6.0900   -4.9350   27.8480 C   0  0  0  0  0  0  0  0  0  0  0  0
    7.3560   -4.8390   28.3280 C   0  0  0  0  0  0  0  0  0  0  0  0
    8.3680   -4.6070   27.4590 C   0  0  0  0  0  0  0  0  0  0  0  0
    8.1570   -4.4470   26.0940 C   0  0  0  0  0  0  0  0  0  0  0  0
    3.8490   -7.8020   24.6670 O   0  0  0  0  0  0  0  0  0  0  0  0
    3.0940   -7.0230   24.0630 C   0  0  0  0  0  0  0  0  0  0  0  0
    1.0750   -5.6780   23.6460 C   0  0  0  0  0  0  0  0  0  0  0  0
    0.1920   -5.0310   24.4070 C   0  0  0  0  0  0  0  0  0  0  0  0
   -1.1740   -6.1320   24.2940 S   0  0  0  0  0  0  0  0  0  0  0  0
   -0.6110   -7.4870   25.1050 C   0  0  0  0  0  0  0  0  0  0  0  0
    0.7200   -7.9780   24.4570 C   0  0  0  0  0  0  0  0  0  0  0  0
    1.6430   -6.8600   24.3420 N   0  0  0  0  0  0  0  0  0  0  0  0
    3.7450   -4.8040   23.2480 C   0  0  0  0  0  0  0  0  0  0  0  0
    3.5680   -6.1580   22.9350 C   0  0  0  0  0  0  0  0  0  0  0  0
  1  4  1  0
  4  2  1  6
  1  5  1  0
  3  5  2  0
  5  6  1  0
  4  7  1  0
  7  8  2  0
  8  9  1  0
  9 10  2  0
 10 11  1  0
  7 12  1  0
 11 12  2  0
  9 13  1  0
 13 14  2  0
 14 15  1  0
  8 16  1  0
 15 16  2  0
 17 18  2  0
 19 20  1  0
 20 21  1  0
 21 22  1  0
 22 23  1  0
 18 24  1  0
 19 24  1  0
 23 24  1  0
 12 25  1  0
 18 26  1  0
 25 26  1  0
M  END
