x0820-x3117
     RDKit          3D

 42 46  0  0  0  0  0  0  0  0999 V2000
    7.3860   -1.7630   22.1330 N   0  0  0  0  0  0  0  0  0  0  0  0
    7.8390    1.7620   23.0430 N   0  0  0  0  0  0  0  0  0  0  0  0
    8.7240    1.1640   20.9810 O   0  0  0  0  0  0  0  0  0  0  0  0
    6.8020   -0.4200   21.9420 C   0  0  1  0  0  0  0  0  0  0  0  0
    7.7960    0.8260   22.0170 C   0  0  0  0  0  0  0  0  0  0  0  0
   12.5280   -1.7290   24.3950 C   0  0  0  0  0  0  0  0  0  0  0  0
   12.6140   -0.5610   25.1040 C   0  0  0  0  0  0  0  0  0  0  0  0
   13.4660   -1.7820   23.2030 C   0  0  0  0  0  0  0  0  0  0  0  0
   12.8930   -2.9670   25.2250 C   0  0  0  0  0  0  0  0  0  0  0  0
    6.5750   -4.2230   21.6670 N   0  0  0  0  0  0  0  0  0  0  0  0
    5.3380   -4.9370   19.9870 O   0  0  0  0  0  0  0  0  0  0  0  0
    6.8590   -3.1450   22.6250 C   0  0  2  0  0  0  0  0  0  0  0  0
    6.2320   -4.1920   20.3740 C   0  0  0  0  0  0  0  0  0  0  0  0
    6.9600   -3.3190   19.3810 C   0  0  0  0  0  0  0  0  0  0  0  0
    6.4400    0.0680   18.1200 N   0  0  0  0  0  0  0  0  0  0  0  0
    5.2830    0.7380   18.0310 C   0  0  0  0  0  0  0  0  0  0  0  0
    4.4730    1.0880   19.2720 C   0  0  0  0  0  0  0  0  0  0  0  0
    4.9820    0.6920   20.5080 C   0  0  0  0  0  0  0  0  0  0  0  0
    6.1950    0.0000   20.5720 C   0  0  0  0  0  0  0  0  0  0  0  0
    6.8680   -0.2830   19.3710 C   0  0  0  0  0  0  0  0  0  0  0  0
    9.8000    5.1860   24.1920 O   0  0  0  0  0  0  0  0  0  0  0  0
   10.5330    4.0620   23.7200 C   0  0  0  0  0  0  0  0  0  0  0  0
    9.6950    2.9360   23.6990 C   0  0  0  0  0  0  0  0  0  0  0  0
    8.6570    3.0100   22.8620 C   0  0  0  0  0  0  0  0  0  0  0  0
    7.7650    4.2650   23.0750 C   0  0  0  0  0  0  0  0  0  0  0  0
    8.7250    5.4940   23.2960 C   0  0  0  0  0  0  0  0  0  0  0  0
    9.7540   -2.0680   21.9720 C   0  0  0  0  0  0  0  0  0  0  0  0
   10.9990   -2.0620   22.5320 C   0  0  0  0  0  0  0  0  0  0  0  0
   11.1390   -1.7220   23.8480 C   0  0  0  0  0  0  0  0  0  0  0  0
   10.0260   -1.3750   24.6230 C   0  0  0  0  0  0  0  0  0  0  0  0
    8.7550   -1.3800   24.0430 C   0  0  0  0  0  0  0  0  0  0  0  0
    8.6380   -1.7360   22.6920 C   0  0  0  0  0  0  0  0  0  0  0  0
    6.1160   -3.5250   23.9270 C   0  0  0  0  0  0  0  0  0  0  0  0
    6.7450   -3.8360   25.1700 C   0  0  0  0  0  0  0  0  0  0  0  0
    5.9470   -4.1840   26.2780 C   0  0  0  0  0  0  0  0  0  0  0  0
    4.5560   -4.2280   26.1510 C   0  0  0  0  0  0  0  0  0  0  0  0
    3.9500   -3.9290   24.9320 C   0  0  0  0  0  0  0  0  0  0  0  0
    4.7200   -3.5760   23.8180 C   0  0  0  0  0  0  0  0  0  0  0  0
    6.5060   -4.4980   27.5350 C   0  0  0  0  0  0  0  0  0  0  0  0
    7.8810   -4.4840   27.7350 C   0  0  0  0  0  0  0  0  0  0  0  0
    8.7050   -4.1560   26.6760 C   0  0  0  0  0  0  0  0  0  0  0  0
    8.1560   -3.8370   25.4220 C   0  0  0  0  0  0  0  0  0  0  0  0
  1  4  1  0
  2  5  1  0
  3  5  2  0
  4  5  1  6
  6  7  1  0
  6  8  1  0
  6  9  1  0
  1 12  1  0
 12 10  1  6
 10 13  1  0
 11 13  2  0
 13 14  1  0
 15 16  2  0
 16 17  1  0
 17 18  2  0
  4 19  1  0
 18 19  1  0
 15 20  1  0
 19 20  2  0
 21 22  1  0
 22 23  1  0
  2 24  1  0
 23 24  1  0
 24 25  1  0
 21 26  1  0
 25 26  1  0
 27 28  2  0
  6 29  1  0
 28 29  1  0
 29 30  2  0
 30 31  1  0
  1 32  1  0
 27 32  1  0
 31 32  2  0
 12 33  1  0
 33 34  2  0
 34 35  1  0
 35 36  2  0
 36 37  1  0
 33 38  1  0
 37 38  2  0
 35 39  1  0
 39 40  2  0
 40 41  1  0
 34 42  1  0
 41 42  2  0
M  END
