x0820-x2764
     RDKit          3D

 33 37  0  0  0  0  0  0  0  0999 V2000
    7.2710   -1.8580   22.0090 N   0  0  0  0  0  0  0  0  0  0  0  0
    7.0240   -2.1760   20.6660 C   0  0  0  0  0  0  0  0  0  0  0  0
    6.9010   -3.4230   19.9700 C   0  0  0  0  0  0  0  0  0  0  0  0
    8.1630   -2.6080   22.9070 C   0  0  1  0  0  0  0  0  0  0  0  0
    6.9490    0.6340   21.9270 O   0  0  0  0  0  0  0  0  0  0  0  0
    7.5320    4.1070   22.5120 N   0  0  0  0  0  0  0  0  0  0  0  0
    8.1160    1.4930   22.1200 C   0  0  0  0  0  0  0  0  0  0  0  0
    7.7430    2.9730   22.3320 C   0  0  0  0  0  0  0  0  0  0  0  0
    7.2500   -4.9590   21.9130 N   0  0  0  0  0  0  0  0  0  0  0  0
    5.8000   -5.3770   20.1530 O   0  0  0  0  0  0  0  0  0  0  0  0
    7.7410   -4.1060   23.0060 C   0  0  2  0  0  0  0  0  0  0  0  0
    6.6360   -4.6200   20.7480 C   0  0  0  0  0  0  0  0  0  0  0  0
   11.9680   -1.7400   22.5510 N   0  0  0  0  0  0  0  0  0  0  0  0
   10.7550   -2.1350   22.1030 C   0  0  0  0  0  0  0  0  0  0  0  0
    9.7450   -2.1890   23.0530 C   0  0  0  0  0  0  0  0  0  0  0  0
   10.2950   -1.7700   24.4230 C   0  0  0  0  0  0  0  0  0  0  0  0
   11.9520   -1.4080   24.1920 S   0  0  0  0  0  0  0  0  0  0  0  0
    6.2710   -0.9040   18.6400 C   0  0  0  0  0  0  0  0  0  0  0  0
    5.8340    0.2280   17.9640 C   0  0  0  0  0  0  0  0  0  0  0  0
    5.7730    1.4380   18.5780 C   0  0  0  0  0  0  0  0  0  0  0  0
    6.1590    1.5670   19.8870 C   0  0  0  0  0  0  0  0  0  0  0  0
    6.6020    0.4490   20.6080 C   0  0  0  0  0  0  0  0  0  0  0  0
    6.6650   -0.8580   19.9890 C   0  0  0  0  0  0  0  0  0  0  0  0
    6.6650   -4.2410   24.0780 C   0  0  0  0  0  0  0  0  0  0  0  0
    7.1000   -4.3620   25.5240 C   0  0  0  0  0  0  0  0  0  0  0  0
    5.9260   -4.5010   26.5130 C   0  0  0  0  0  0  0  0  0  0  0  0
    4.6100   -4.5020   26.0260 C   0  0  0  0  0  0  0  0  0  0  0  0
    4.3040   -4.3810   24.6600 C   0  0  0  0  0  0  0  0  0  0  0  0
    5.3030   -4.2540   23.7100 C   0  0  0  0  0  0  0  0  0  0  0  0
    6.2440   -4.6240   27.8640 C   0  0  0  0  0  0  0  0  0  0  0  0
    7.5890   -4.6210   28.2950 C   0  0  0  0  0  0  0  0  0  0  0  0
    8.6530   -4.4890   27.3720 C   0  0  0  0  0  0  0  0  0  0  0  0
    8.4100   -4.3620   26.0220 C   0  0  0  0  0  0  0  0  0  0  0  0
  1  2  1  0
  2  3  2  0
  1  4  1  0
  5  7  1  0
  6  8  3  0
  7  8  1  0
  4 11  1  0
  9 11  1  0
  3 12  1  0
  9 12  1  0
 10 12  2  0
 13 14  2  0
  4 15  1  6
 14 15  1  0
 15 16  2  0
 13 17  1  0
 16 17  1  0
 18 19  2  0
 19 20  1  0
 20 21  2  0
  5 22  1  0
 21 22  1  0
  2 23  1  0
 18 23  1  0
 22 23  2  0
 11 24  1  1
 24 25  2  0
 25 26  1  0
 26 27  2  0
 27 28  1  0
 24 29  1  0
 28 29  2  0
 26 30  1  0
 30 31  2  0
 31 32  1  0
 25 33  1  0
 32 33  2  0
M  END
