x0820-x2776
     RDKit          3D

 45 49  0  0  0  0  0  0  0  0999 V2000
    7.4140   -1.7250   22.1040 N   0  0  0  0  0  0  0  0  0  0  0  0
    7.7860    1.7080   23.1150 N   0  0  0  0  0  0  0  0  0  0  0  0
    8.6840    1.3210   20.9650 O   0  0  0  0  0  0  0  0  0  0  0  0
   10.8310    6.5500   23.7380 O   0  0  0  0  0  0  0  0  0  0  0  0
    6.8170   -0.3920   21.8370 C   0  0  1  0  0  0  0  0  0  0  0  0
   13.1770   -2.7090   24.3720 O   0  0  0  0  0  0  0  0  0  0  0  0
    7.7820    0.8820   21.9910 C   0  0  0  0  0  0  0  0  0  0  0  0
   10.5670    1.5660   23.9160 C   0  0  0  0  0  0  0  0  0  0  0  0
   11.7940    6.4590   24.7880 C   0  0  0  0  0  0  0  0  0  0  0  0
   12.5840   -1.4050   24.3250 C   0  0  1  0  0  0  0  0  0  0  0  0
   13.2260   -0.5490   23.2300 C   0  0  0  0  0  0  0  0  0  0  0  0
   13.3400   -3.1930   25.6880 C   0  0  0  0  0  0  0  0  0  0  0  0
    6.6510   -4.1600   21.6460 N   0  0  0  0  0  0  0  0  0  0  0  0
    5.3390   -4.7960   19.9740 O   0  0  0  0  0  0  0  0  0  0  0  0
    6.9120   -3.0900   22.5910 C   0  0  2  0  0  0  0  0  0  0  0  0
    6.2780   -4.0950   20.3530 C   0  0  0  0  0  0  0  0  0  0  0  0
    7.0310   -3.2660   19.3460 C   0  0  0  0  0  0  0  0  0  0  0  0
    6.4320    0.1580   17.9990 N   0  0  0  0  0  0  0  0  0  0  0  0
    5.2820    0.8540   17.9940 C   0  0  0  0  0  0  0  0  0  0  0  0
    4.5790    1.1650   19.1480 C   0  0  0  0  0  0  0  0  0  0  0  0
    5.0900    0.7420   20.3670 C   0  0  0  0  0  0  0  0  0  0  0  0
    6.2810    0.0220   20.4280 C   0  0  0  0  0  0  0  0  0  0  0  0
    6.9130   -0.2470   19.2020 C   0  0  0  0  0  0  0  0  0  0  0  0
    9.8580    2.9140   23.6310 C   0  0  0  0  0  0  0  0  0  0  0  0
   10.5600    4.0490   23.7750 C   0  0  0  0  0  0  0  0  0  0  0  0
    9.9990    5.4690   23.5400 C   0  0  0  0  0  0  0  0  0  0  0  0
    8.5030    5.4310   23.0890 C   0  0  0  0  0  0  0  0  0  0  0  0
    7.8680    4.1770   22.9700 C   0  0  0  0  0  0  0  0  0  0  0  0
    8.5130    2.9470   23.2360 C   0  0  0  0  0  0  0  0  0  0  0  0
    9.7660   -1.9990   21.9520 C   0  0  0  0  0  0  0  0  0  0  0  0
   11.0380   -1.9320   22.4790 C   0  0  0  0  0  0  0  0  0  0  0  0
   11.2040   -1.4920   23.7950 C   0  0  0  0  0  0  0  0  0  0  0  0
   10.0760   -1.1400   24.5460 C   0  0  0  0  0  0  0  0  0  0  0  0
    8.8180   -1.2180   23.9850 C   0  0  0  0  0  0  0  0  0  0  0  0
    8.6490   -1.6460   22.6700 C   0  0  0  0  0  0  0  0  0  0  0  0
    6.1470   -3.4860   23.8790 C   0  0  0  0  0  0  0  0  0  0  0  0
    6.7600   -3.8090   25.1300 C   0  0  0  0  0  0  0  0  0  0  0  0
    5.9400   -4.1730   26.2260 C   0  0  0  0  0  0  0  0  0  0  0  0
    4.5460   -4.2220   26.0840 C   0  0  0  0  0  0  0  0  0  0  0  0
    3.9550   -3.9160   24.8720 C   0  0  0  0  0  0  0  0  0  0  0  0
    4.7480   -3.5540   23.7910 C   0  0  0  0  0  0  0  0  0  0  0  0
    6.4840   -4.4980   27.4860 C   0  0  0  0  0  0  0  0  0  0  0  0
    7.8590   -4.4820   27.7070 C   0  0  0  0  0  0  0  0  0  0  0  0
    8.6980   -4.1390   26.6620 C   0  0  0  0  0  0  0  0  0  0  0  0
    8.1620   -3.8090   25.4040 C   0  0  0  0  0  0  0  0  0  0  0  0
  1  5  1  0
  2  7  1  0
  3  7  2  0
  5  7  1  6
  4  9  1  0
  6 10  1  0
 10 11  1  6
  6 12  1  0
  1 15  1  0
 15 13  1  6
 13 16  1  0
 14 16  2  0
 16 17  1  0
 18 19  2  0
 19 20  1  0
 20 21  2  0
  5 22  1  0
 21 22  1  0
 18 23  1  0
 22 23  2  0
  8 24  1  0
 24 25  2  0
  4 26  1  0
 25 26  1  0
 26 27  2  0
 27 28  1  0
  2 29  1  0
 24 29  1  0
 28 29  2  0
 30 31  2  0
 10 32  1  0
 31 32  1  0
 32 33  2  0
 33 34  1  0
  1 35  1  0
 30 35  1  0
 34 35  2  0
 15 36  1  0
 36 37  2  0
 37 38  1  0
 38 39  2  0
 39 40  1  0
 36 41  1  0
 40 41  2  0
 38 42  1  0
 42 43  2  0
 43 44  1  0
 37 45  1  0
 44 45  2  0
M  END
