x0820-x2563
     RDKit          3D

 37 41  0  0  0  0  0  0  0  0999 V2000
    6.7920   -5.1100   21.8180 N   0  0  0  0  0  0  0  0  0  0  0  0
    7.3830   -2.7630   22.3970 C   0  0  0  0  0  0  0  0  0  0  0  0
    5.3700   -5.3280   20.0270 O   0  0  0  0  0  0  0  0  0  0  0  0
    7.2410   -4.2070   22.8640 C   0  0  1  0  0  0  0  0  0  0  0  0
    6.2980   -4.7460   20.5690 C   0  0  0  0  0  0  0  0  0  0  0  0
    6.9280   -3.6050   19.7710 C   0  0  0  0  0  0  0  0  0  0  0  0
    8.2130   -0.1990   21.2370 C   0  0  0  0  0  0  0  0  0  0  0  0
    8.3490    1.0090   21.0460 O   0  0  0  0  0  0  0  0  0  0  0  0
    7.1080   -0.9760   20.5600 C   0  0  0  0  0  0  0  0  0  0  0  0
    9.0140   -0.9150   22.0430 N   0  0  0  0  0  0  0  0  0  0  0  0
    8.8480   -2.3980   22.2090 C   0  0  0  0  0  0  0  0  0  0  0  0
    6.2940   -4.2940   24.0390 C   0  0  0  0  0  0  0  0  0  0  0  0
    6.7590   -4.5180   25.3350 C   0  0  0  0  0  0  0  0  0  0  0  0
    5.7860   -4.5850   26.5060 C   0  0  0  0  0  0  0  0  0  0  0  0
    4.3280   -4.3940   26.0870 C   0  0  0  0  0  0  0  0  0  0  0  0
    3.9470   -4.1820   24.7600 C   0  0  0  0  0  0  0  0  0  0  0  0
    4.9120   -4.1320   23.7650 C   0  0  0  0  0  0  0  0  0  0  0  0
    6.2220   -4.8010   27.8120 C   0  0  0  0  0  0  0  0  0  0  0  0
    7.5850   -4.9700   28.0370 C   0  0  0  0  0  0  0  0  0  0  0  0
    8.5000   -4.9220   26.9660 C   0  0  0  0  0  0  0  0  0  0  0  0
    8.1180   -4.7020   25.6930 C   0  0  0  0  0  0  0  0  0  0  0  0
    6.1690    0.7460   17.4750 N   0  0  0  0  0  0  0  0  0  0  0  0
    5.1240    1.4930   17.8580 C   0  0  0  0  0  0  0  0  0  0  0  0
    4.5700    1.5010   19.3020 C   0  0  0  0  0  0  0  0  0  0  0  0
    5.2550    0.6700   20.1740 C   0  0  0  0  0  0  0  0  0  0  0  0
    6.3220   -0.0680   19.7080 C   0  0  0  0  0  0  0  0  0  0  0  0
    6.7240   -0.0070   18.4310 C   0  0  0  0  0  0  0  0  0  0  0  0
    3.4840    2.2710   19.7110 C   0  0  0  0  0  0  0  0  0  0  0  0
    3.0480    2.2250   21.0480 C   0  0  0  0  0  0  0  0  0  0  0  0
    3.7480    1.3830   21.9370 C   0  0  0  0  0  0  0  0  0  0  0  0
    4.8180    0.6290   21.5050 C   0  0  0  0  0  0  0  0  0  0  0  0
   11.3370   -0.6060   22.4430 C   0  0  0  0  0  0  0  0  0  0  0  0
   12.3290    0.0470   23.1080 C   0  0  0  0  0  0  0  0  0  0  0  0
   11.9640    0.9840   24.0250 C   0  0  0  0  0  0  0  0  0  0  0  0
   10.6350    1.2830   24.3040 C   0  0  0  0  0  0  0  0  0  0  0  0
    9.6560    0.6300   23.6390 C   0  0  0  0  0  0  0  0  0  0  0  0
   10.0150   -0.2960   22.7170 C   0  0  0  0  0  0  0  0  0  0  0  0
  1  4  1  0
  4  2  1  6
  1  5  1  0
  3  5  2  0
  5  6  1  0
  7  8  2  0
  7  9  1  0
  7 10  1  0
  2 11  1  0
 10 11  1  0
  4 12  1  0
 12 13  2  0
 13 14  1  0
 14 15  2  0
 15 16  1  0
 12 17  1  0
 16 17  2  0
 14 18  1  0
 18 19  2  0
 19 20  1  0
 13 21  1  0
 20 21  2  0
 22 23  2  0
 23 24  1  0
 24 25  2  0
  9 26  1  0
 25 26  1  0
 22 27  1  0
 26 27  2  0
 24 28  1  0
 28 29  2  0
 29 30  1  0
 25 31  1  0
 30 31  2  0
 32 33  2  0
 33 34  1  0
 34 35  2  0
 35 36  1  0
 10 37  1  0
 32 37  1  0
 36 37  2  0
M  END
