x0820-x0689
     RDKit          3D

 22 24  0  0  0  0  0  0  0  0999 V2000
    7.1250   -5.0410   21.7230 N   0  0  0  0  0  0  0  0  0  0  0  0
    8.1550   -2.8240   22.2830 C   0  0  0  0  0  0  0  0  0  0  0  0
    5.5480   -5.1200   20.0390 O   0  0  0  0  0  0  0  0  0  0  0  0
    7.7770   -4.2420   22.7540 C   0  0  1  0  0  0  0  0  0  0  0  0
    6.5450   -4.5980   20.5270 C   0  0  0  0  0  0  0  0  0  0  0  0
    7.1580   -3.4340   19.7620 C   0  0  0  0  0  0  0  0  0  0  0  0
    3.8960   -4.0650   26.7590 O   0  0  0  0  0  0  0  0  0  0  0  0
    6.8410   -4.2070   23.9300 C   0  0  0  0  0  0  0  0  0  0  0  0
    7.1930   -4.3470   25.3760 C   0  0  0  0  0  0  0  0  0  0  0  0
    6.1130   -4.2690   26.2190 C   0  0  0  0  0  0  0  0  0  0  0  0
    4.8030   -4.0380   25.7400 C   0  0  0  0  0  0  0  0  0  0  0  0
    4.2860   -3.8000   24.3950 C   0  0  0  0  0  0  0  0  0  0  0  0
    5.5520   -3.9950   23.5970 C   0  0  0  0  0  0  0  0  0  0  0  0
    6.3040   -4.3990   27.6110 C   0  0  0  0  0  0  0  0  0  0  0  0
    7.5740   -4.5810   28.1480 C   0  0  0  0  0  0  0  0  0  0  0  0
    8.6700   -4.6530   27.2980 C   0  0  0  0  0  0  0  0  0  0  0  0
    8.4750   -4.5410   25.9330 C   0  0  0  0  0  0  0  0  0  0  0  0
    3.2780   -2.0920   25.9620 S   0  0  0  0  0  0  0  0  0  0  0  0
    3.1150   -3.6200   25.1350 C   0  0  0  0  0  0  0  0  0  0  0  0
    1.8860   -4.2530   25.3540 C   0  0  0  0  0  0  0  0  0  0  0  0
    1.0880   -3.5520   26.1300 C   0  0  0  0  0  0  0  0  0  0  0  0
    1.7520   -2.2390   26.5740 C   0  0  0  0  0  0  0  0  0  0  0  0
  1  4  1  0
  4  2  1  6
  1  5  1  0
  3  5  2  0
  5  6  1  0
  4  8  1  0
  8  9  2  0
  9 10  1  0
  7 11  1  0
 10 11  2  0
 11 12  1  0
  8 13  1  0
 12 13  2  0
 10 14  1  0
 14 15  2  0
 15 16  1  0
  9 17  1  0
 16 17  2  0
 12 19  1  0
 18 19  1  0
 19 20  2  0
 20 21  1  0
 18 22  1  0
 21 22  2  0
M  END
