x0820-x2643
     RDKit          3D

 33 36  0  0  0  0  0  0  0  0999 V2000
    6.9270   -4.6560   21.6580 N   0  0  0  0  0  0  0  0  0  0  0  0
    7.8920   -2.3590   22.6250 C   0  0  0  0  0  0  0  0  0  0  0  0
    5.3360   -4.8700   20.0020 O   0  0  0  0  0  0  0  0  0  0  0  0
    7.3000   -3.8100   22.7910 C   0  0  1  0  0  0  0  0  0  0  0  0
    6.3570   -4.3370   20.4430 C   0  0  0  0  0  0  0  0  0  0  0  0
    7.0700   -3.3570   19.5360 C   0  0  0  0  0  0  0  0  0  0  0  0
    6.5820   -1.3930   20.8390 N   0  0  0  0  0  0  0  0  0  0  0  0
    8.3060   -0.2310   21.1840 N   0  0  0  0  0  0  0  0  0  0  0  0
    7.5360   -1.3320   21.4980 C   0  0  0  0  0  0  0  0  0  0  0  0
    6.3370   -4.0280   23.9580 C   0  0  0  0  0  0  0  0  0  0  0  0
    6.8120   -4.1760   25.2900 C   0  0  0  0  0  0  0  0  0  0  0  0
    5.9380   -4.3900   26.4030 C   0  0  0  0  0  0  0  0  0  0  0  0
    4.5510   -4.4650   26.2270 C   0  0  0  0  0  0  0  0  0  0  0  0
    3.9670   -4.3150   24.8240 C   0  0  0  0  0  0  0  0  0  0  0  0
    4.9550   -4.0900   23.6900 C   0  0  0  0  0  0  0  0  0  0  0  0
    6.4470   -4.5330   27.7070 C   0  0  0  0  0  0  0  0  0  0  0  0
    7.8070   -4.4750   27.9580 C   0  0  0  0  0  0  0  0  0  0  0  0
    8.6810   -4.2720   26.9140 C   0  0  0  0  0  0  0  0  0  0  0  0
    8.2010   -4.1240   25.6110 C   0  0  0  0  0  0  0  0  0  0  0  0
    6.4530    0.6140   17.7430 N   0  0  0  0  0  0  0  0  0  0  0  0
    6.8020   -0.2550   18.7240 C   0  0  0  0  0  0  0  0  0  0  0  0
    6.1110   -0.3910   19.8390 C   0  0  0  0  0  0  0  0  0  0  0  0
    4.8480    0.4190   20.1550 C   0  0  0  0  0  0  0  0  0  0  0  0
    4.4840    1.4040   19.0000 C   0  0  0  0  0  0  0  0  0  0  0  0
    5.3420    1.3950   17.8950 C   0  0  0  0  0  0  0  0  0  0  0  0
   13.3180   -0.0770   22.5780 Cl  0  0  0  0  0  0  0  0  0  0  0  0
   11.8830   -0.3450   23.3790 C   0  0  0  0  0  0  0  0  0  0  0  0
   11.3400    0.4470   24.3250 C   0  0  0  0  0  0  0  0  0  0  0  0
   10.1630   -0.1110   24.8190 C   0  0  0  0  0  0  0  0  0  0  0  0
    9.9590   -1.2900   24.1380 C   0  0  0  0  0  0  0  0  0  0  0  0
   10.9870   -1.4070   23.1930 C   0  0  1  0  0  0  0  0  0  0  0  0
    9.5230   -0.0080   21.9360 C   0  0  0  0  0  0  0  0  0  0  0  0
   10.2890   -1.1880   21.8680 C   0  0  0  0  0  0  0  0  0  0  0  0
  1  4  1  0
  4  2  1  6
  1  5  1  0
  3  5  2  0
  5  6  1  0
  2  9  1  0
  7  9  1  0
  8  9  2  3
  4 10  1  0
 10 11  2  0
 11 12  1  0
 12 13  2  0
 13 14  1  0
 10 15  1  0
 14 15  2  0
 12 16  1  0
 16 17  2  0
 17 18  1  0
 11 19  1  0
 18 19  2  0
 20 21  2  0
  7 22  1  0
 21 22  1  0
 22 23  2  0
 23 24  1  0
 20 25  1  0
 24 25  2  0
 26 27  1  0
 27 28  2  0
 28 29  1  0
 29 30  2  0
 27 31  1  0
 30 31  1  0
  8 32  1  0
 31 33  1  6
 32 33  1  0
M  END
