x0820-x1249
     RDKit          3D

 36 39  0  0  0  0  0  0  0  0999 V2000
    6.8720   -4.7640   21.7920 N   0  0  0  0  0  0  0  0  0  0  0  0
    7.6990   -2.3950   22.3690 C   0  0  0  0  0  0  0  0  0  0  0  0
    5.3740   -5.0530   20.0380 O   0  0  0  0  0  0  0  0  0  0  0  0
    7.3100   -3.8330   22.8350 C   0  0  1  0  0  0  0  0  0  0  0  0
    6.3430   -4.4740   20.5360 C   0  0  0  0  0  0  0  0  0  0  0  0
    7.0230   -3.4480   19.6540 C   0  0  0  0  0  0  0  0  0  0  0  0
    8.3200    0.5030   24.6110 N   0  0  0  0  0  0  0  0  0  0  0  0
    7.6950    1.3090   24.0570 C   0  0  0  0  0  0  0  0  0  0  0  0
    8.1990    2.3630   23.6730 O   0  0  0  0  0  0  0  0  0  0  0  0
    9.6210    0.7960   24.9510 C   0  0  0  0  0  0  0  0  0  0  0  0
   13.8960   -1.2250   20.4360 N   0  0  0  0  0  0  0  0  0  0  0  0
   13.1610   -2.0470   21.3770 C   0  0  0  0  0  0  0  0  0  0  0  0
    7.1770   -1.2110   23.2420 C   0  0  0  0  0  0  0  0  0  0  0  0
    7.9940   -0.9340   24.3610 C   0  0  0  0  0  0  0  0  0  0  0  0
    6.2970   -3.9820   23.9690 C   0  0  0  0  0  0  0  0  0  0  0  0
    6.7500   -4.3340   25.3970 C   0  0  0  0  0  0  0  0  0  0  0  0
    5.7730   -4.4560   26.3970 C   0  0  0  0  0  0  0  0  0  0  0  0
    4.4440   -4.2650   26.0610 C   0  0  0  0  0  0  0  0  0  0  0  0
    4.0120   -3.9560   24.7820 C   0  0  0  0  0  0  0  0  0  0  0  0
    4.9220   -3.8110   23.7320 C   0  0  0  0  0  0  0  0  0  0  0  0
    6.0760   -4.7690   27.7350 C   0  0  0  0  0  0  0  0  0  0  0  0
    7.3290   -4.9770   28.1110 C   0  0  0  0  0  0  0  0  0  0  0  0
    8.5460   -4.9090   27.1910 C   0  0  0  0  0  0  0  0  0  0  0  0
    8.1130   -4.5420   25.7410 C   0  0  0  0  0  0  0  0  0  0  0  0
    3.6590    1.2480   23.6640 O   0  0  0  0  0  0  0  0  0  0  0  0
    4.4760    1.4430   22.4930 C   0  0  0  0  0  0  0  0  0  0  0  0
    5.7780    1.7270   22.8720 C   0  0  0  0  0  0  0  0  0  0  0  0
    6.3610    1.0100   23.8440 N   0  0  0  0  0  0  0  0  0  0  0  0
    5.5880    0.7150   24.9070 C   0  0  0  0  0  0  0  0  0  0  0  0
    4.2220    0.4840   24.6370 C   0  0  0  0  0  0  0  0  0  0  0  0
   11.9000    0.6360   23.7700 C   0  0  0  0  0  0  0  0  0  0  0  0
   12.7520   -0.0580   22.9030 C   0  0  0  0  0  0  0  0  0  0  0  0
   12.3030   -1.2350   22.3070 C   0  0  0  0  0  0  0  0  0  0  0  0
   11.0360   -1.7100   22.5530 C   0  0  0  0  0  0  0  0  0  0  0  0
   10.2010   -1.0300   23.4050 C   0  0  0  0  0  0  0  0  0  0  0  0
   10.6080    0.1360   24.0280 C   0  0  0  0  0  0  0  0  0  0  0  0
  1  4  1  0
  4  2  1  6
  1  5  1  0
  3  5  2  0
  5  6  1  0
  7  8  1  0
  8  9  2  0
  7 10  1  0
 11 12  3  0
  2 13  1  0
  7 14  1  0
 13 14  1  0
  4 15  1  0
 15 16  2  0
 16 17  1  0
 17 18  2  0
 18 19  1  0
 15 20  1  0
 19 20  2  0
 17 21  1  0
 21 22  2  0
 22 23  1  0
 16 24  1  0
 23 24  2  0
 25 26  1  0
 26 27  1  0
  8 28  1  0
 27 28  1  0
 28 29  1  0
 25 30  1  0
 29 30  1  0
 31 32  2  0
 12 33  1  0
 32 33  1  0
 33 34  2  0
 34 35  1  0
 10 36  1  0
 31 36  1  0
 35 36  2  0
M  END
