x0820-x0107
     RDKit          3D

 28 30  0  0  0  0  0  0  0  0999 V2000
    6.8380   -4.7280   21.7670 N   0  0  0  0  0  0  0  0  0  0  0  0
    6.8800   -2.2440   22.3050 C   0  0  0  0  0  0  0  0  0  0  0  0
    5.3610   -5.1060   20.0300 O   0  0  0  0  0  0  0  0  0  0  0  0
    7.1640   -3.7030   22.7450 C   0  0  1  0  0  0  0  0  0  0  0  0
    6.3230   -4.5040   20.5030 C   0  0  0  0  0  0  0  0  0  0  0  0
    7.0220   -3.5070   19.6000 C   0  0  0  0  0  0  0  0  0  0  0  0
    9.9260   -0.4700   22.5800 C   0  0  0  0  0  0  0  0  0  0  0  0
    8.9840    0.3350   21.6580 C   0  0  0  0  0  0  0  0  0  0  0  0
    9.2310    1.5070   21.3360 O   0  0  0  0  0  0  0  0  0  0  0  0
    7.8440   -0.4840   21.2310 N   0  0  0  0  0  0  0  0  0  0  0  0
    5.4860    0.9050   22.0240 C   0  0  0  0  0  0  0  0  0  0  0  0
    7.8940   -1.6350   21.3180 C   0  0  0  0  0  0  0  0  0  0  0  0
    6.3400   -4.0310   23.9750 C   0  0  0  0  0  0  0  0  0  0  0  0
    6.9770   -4.2190   25.3520 C   0  0  0  0  0  0  0  0  0  0  0  0
    5.9620   -4.5340   26.4530 C   0  0  0  0  0  0  0  0  0  0  0  0
    4.5950   -4.6310   26.1670 C   0  0  0  0  0  0  0  0  0  0  0  0
    4.1170   -4.4460   24.8730 C   0  0  0  0  0  0  0  0  0  0  0  0
    4.9510   -4.1550   23.8020 C   0  0  0  0  0  0  0  0  0  0  0  0
    6.4160   -4.7270   27.7770 C   0  0  0  0  0  0  0  0  0  0  0  0
    7.7920   -4.6410   28.1030 C   0  0  0  0  0  0  0  0  0  0  0  0
    8.7380   -4.3720   27.1930 C   0  0  0  0  0  0  0  0  0  0  0  0
    8.3240   -4.1440   25.7340 C   0  0  0  0  0  0  0  0  0  0  0  0
    6.9170   -0.0230   20.2670 C   0  0  0  0  0  0  0  0  0  0  0  0
    5.7710    0.6620   20.6480 C   0  0  0  0  0  0  0  0  0  0  0  0
    4.9230    1.0970   19.6300 C   0  0  0  0  0  0  0  0  0  0  0  0
    5.2080    0.8560   18.3060 C   0  0  0  0  0  0  0  0  0  0  0  0
    6.3020    0.1880   17.9250 N   0  0  0  0  0  0  0  0  0  0  0  0
    7.1220   -0.2360   18.8960 C   0  0  0  0  0  0  0  0  0  0  0  0
  1  4  1  0
  4  2  1  6
  1  5  1  0
  3  5  2  0
  5  6  1  0
  7  8  1  0
  8  9  2  0
  8 10  1  0
  2 12  1  0
 10 12  1  0
  4 13  1  0
 13 14  2  0
 14 15  1  0
 15 16  2  0
 16 17  1  0
 13 18  1  0
 17 18  2  0
 15 19  1  0
 19 20  2  0
 20 21  1  0
 14 22  1  0
 21 22  2  0
 10 23  1  0
 11 24  1  0
 23 24  2  0
 24 25  1  0
 25 26  2  0
 26 27  1  0
 23 28  1  0
 27 28  2  0
M  END
