x0820-x2608
     RDKit          3D

 33 36  0  0  0  0  0  0  0  0999 V2000
    6.7750   -5.0230   21.8100 N   0  0  0  0  0  0  0  0  0  0  0  0
    7.3140   -2.6490   22.3900 C   0  0  0  0  0  0  0  0  0  0  0  0
    5.3530   -5.2930   20.0250 O   0  0  0  0  0  0  0  0  0  0  0  0
    7.2390   -4.1090   22.8450 C   0  0  1  0  0  0  0  0  0  0  0  0
    6.2680   -4.6840   20.5630 C   0  0  0  0  0  0  0  0  0  0  0  0
    6.8660   -3.5390   19.7470 C   0  0  0  0  0  0  0  0  0  0  0  0
    8.9240   -0.7150   22.4530 N   0  0  0  0  0  0  0  0  0  0  0  0
   12.7570    2.7000   22.7830 C   0  0  0  0  0  0  0  0  0  0  0  0
    8.6640    1.1730   21.0990 O   0  0  0  0  0  0  0  0  0  0  0  0
    7.0670   -0.5590   20.9590 N   0  0  0  0  0  0  0  0  0  0  0  0
    8.2780    0.0540   21.4890 C   0  0  0  0  0  0  0  0  0  0  0  0
    8.7680   -2.2100   22.2890 C   0  0  0  0  0  0  0  0  0  0  0  0
    6.3530   -4.2810   24.0580 C   0  0  0  0  0  0  0  0  0  0  0  0
    6.8800   -4.3430   25.3500 C   0  0  0  0  0  0  0  0  0  0  0  0
    5.9470   -4.5090   26.5560 C   0  0  0  0  0  0  0  0  0  0  0  0
    4.4560   -4.5940   26.1860 C   0  0  0  0  0  0  0  0  0  0  0  0
    4.0410   -4.5200   24.8530 C   0  0  0  0  0  0  0  0  0  0  0  0
    4.9580   -4.3690   23.8250 C   0  0  0  0  0  0  0  0  0  0  0  0
    6.4480   -4.5750   27.8560 C   0  0  0  0  0  0  0  0  0  0  0  0
    7.8260   -4.4830   27.9930 C   0  0  0  0  0  0  0  0  0  0  0  0
    8.7240   -4.3310   26.9280 C   0  0  0  0  0  0  0  0  0  0  0  0
    8.2780   -4.2610   25.6560 C   0  0  0  0  0  0  0  0  0  0  0  0
   12.0400    1.4120   22.8710 C   0  0  0  0  0  0  0  0  0  0  0  0
   12.4810   -0.0550   23.1950 C   0  0  0  0  0  0  0  0  0  0  0  0
   11.3550   -0.8680   23.0640 C   0  0  0  0  0  0  0  0  0  0  0  0
   10.1820   -0.1910   22.7000 C   0  0  0  0  0  0  0  0  0  0  0  0
   10.3880    1.4770   22.5390 S   0  0  0  0  0  0  0  0  0  0  0  0
    6.1060    0.6360   17.7080 N   0  0  0  0  0  0  0  0  0  0  0  0
    6.7470    0.0330   18.7060 C   0  0  0  0  0  0  0  0  0  0  0  0
    6.3390    0.0580   20.0450 C   0  0  0  0  0  0  0  0  0  0  0  0
    5.1570    0.7580   20.3760 C   0  0  0  0  0  0  0  0  0  0  0  0
    4.4830    1.3950   19.3260 C   0  0  0  0  0  0  0  0  0  0  0  0
    4.9930    1.3090   18.0450 C   0  0  0  0  0  0  0  0  0  0  0  0
  1  4  1  0
  4  2  1  6
  1  5  1  0
  3  5  2  0
  5  6  1  0
  7 11  1  0
  9 11  2  0
 10 11  1  0
  2 12  1  0
  7 12  1  0
  4 13  1  0
 13 14  2  0
 14 15  1  0
 15 16  2  0
 16 17  1  0
 13 18  1  0
 17 18  2  0
 15 19  1  0
 19 20  2  0
 20 21  1  0
 14 22  1  0
 21 22  2  0
  8 23  1  0
 23 24  2  0
 24 25  1  0
  7 26  1  0
 25 26  2  0
 23 27  1  0
 26 27  1  0
 28 29  2  0
 10 30  1  0
 29 30  1  0
 30 31  2  0
 31 32  1  0
 28 33  1  0
 32 33  2  0
M  END
