x0820-x2912
     RDKit          3D

 37 40  0  0  0  0  0  0  0  0999 V2000
    7.0880   -0.3790   21.0410 N   0  0  0  0  0  0  0  0  0  0  0  0
    8.1320   -0.4250   24.2090 C   0  0  0  0  0  0  0  0  0  0  0  0
    8.9170    1.3190   21.2930 O   0  0  0  0  0  0  0  0  0  0  0  0
    8.7730   -0.7430   22.8360 C   0  0  2  0  0  0  0  0  0  0  0  0
    8.2780    0.1640   21.6730 C   0  0  0  0  0  0  0  0  0  0  0  0
   13.5610   -3.0460   20.6770 N   0  0  0  0  0  0  0  0  0  0  0  0
    4.8090    1.3660   21.6220 C   0  0  0  0  0  0  0  0  0  0  0  0
   13.1140   -2.2270   21.3250 C   0  0  0  0  0  0  0  0  0  0  0  0
    6.6680   -4.9600   21.7910 N   0  0  0  0  0  0  0  0  0  0  0  0
    7.2790   -2.7610   22.5170 C   0  0  0  0  0  0  0  0  0  0  0  0
    5.3560   -5.2950   20.0250 O   0  0  0  0  0  0  0  0  0  0  0  0
    7.1580   -4.0860   22.8640 C   0  0  1  0  0  0  0  0  0  0  0  0
    6.2470   -4.6320   20.5340 C   0  0  0  0  0  0  0  0  0  0  0  0
    6.8450   -3.5160   19.6860 C   0  0  0  0  0  0  0  0  0  0  0  0
    8.5780   -2.1760   22.3920 C   0  0  0  0  0  0  0  0  0  0  0  0
    6.2280    0.5490   17.6430 N   0  0  0  0  0  0  0  0  0  0  0  0
    5.1840    1.3610   17.8870 C   0  0  0  0  0  0  0  0  0  0  0  0
    4.6920    1.6470   19.1570 C   0  0  0  0  0  0  0  0  0  0  0  0
    5.3170    1.0680   20.2410 C   0  0  0  0  0  0  0  0  0  0  0  0
    6.3890    0.2400   20.0090 C   0  0  0  0  0  0  0  0  0  0  0  0
    6.8040    0.0080   18.7150 C   0  0  0  0  0  0  0  0  0  0  0  0
   10.7720    0.4630   23.7290 C   0  0  0  0  0  0  0  0  0  0  0  0
   12.0800    0.6670   23.7950 C   0  0  0  0  0  0  0  0  0  0  0  0
   13.0440   -0.2040   22.9960 C   0  0  0  0  0  0  0  0  0  0  0  0
   12.4320   -1.3150   22.1300 C   0  0  0  0  0  0  0  0  0  0  0  0
   11.0760   -1.3660   22.1850 C   0  0  0  0  0  0  0  0  0  0  0  0
   10.2620   -0.5390   22.9260 C   0  0  0  0  0  0  0  0  0  0  0  0
    6.2760   -4.2730   24.0820 C   0  0  0  0  0  0  0  0  0  0  0  0
    6.8390   -4.3330   25.3640 C   0  0  0  0  0  0  0  0  0  0  0  0
    5.9840   -4.5050   26.4710 C   0  0  0  0  0  0  0  0  0  0  0  0
    4.5940   -4.6100   26.2350 C   0  0  0  0  0  0  0  0  0  0  0  0
    4.0660   -4.5460   24.9520 C   0  0  0  0  0  0  0  0  0  0  0  0
    4.8980   -4.3770   23.8510 C   0  0  0  0  0  0  0  0  0  0  0  0
    6.4650   -4.5770   27.7910 C   0  0  0  0  0  0  0  0  0  0  0  0
    7.8320   -4.4790   28.0400 C   0  0  0  0  0  0  0  0  0  0  0  0
    8.7180   -4.3070   26.9810 C   0  0  0  0  0  0  0  0  0  0  0  0
    8.2310   -4.2330   25.6720 C   0  0  0  0  0  0  0  0  0  0  0  0
  4  2  1  1
  1  5  1  0
  3  5  2  0
  4  5  1  0
  6  8  3  0
  9 12  1  0
 12 10  1  6
  9 13  1  0
 11 13  2  0
 13 14  1  0
  4 15  1  0
 10 15  1  0
 16 17  2  0
 17 18  1  0
  7 19  1  0
 18 19  2  0
  1 20  1  0
 19 20  1  0
 16 21  1  0
 20 21  2  0
 22 23  2  0
 23 24  1  0
  8 25  1  0
 24 25  2  0
 25 26  1  0
  4 27  1  0
 22 27  1  0
 26 27  2  0
 12 28  1  0
 28 29  2  0
 29 30  1  0
 30 31  2  0
 31 32  1  0
 28 33  1  0
 32 33  2  0
 30 34  1  0
 34 35  2  0
 35 36  1  0
 29 37  1  0
 36 37  2  0
M  END
