x0820-x2119
     RDKit          3D

 20 22  0  0  0  0  0  0  0  0999 V2000
    6.2880   -4.5510   21.2970 N   0  0  0  0  0  0  0  0  0  0  0  0
    4.8770   -4.0580   19.5670 O   0  0  0  0  0  0  0  0  0  0  0  0
    6.4770   -3.9100   22.5630 C   0  0  2  0  0  0  0  0  0  0  0  0
    5.9690   -3.9540   20.0880 C   0  0  0  0  0  0  0  0  0  0  0  0
    7.0240   -3.1640   19.3210 C   0  0  0  0  0  0  0  0  0  0  0  0
    5.7030   -4.5790   23.7580 C   0  0  0  0  0  0  0  0  0  0  0  0
    6.4170   -5.0040   25.0490 C   0  0  0  0  0  0  0  0  0  0  0  0
    5.5700   -5.6520   26.1620 C   0  0  0  0  0  0  0  0  0  0  0  0
    4.1980   -5.8430   25.9860 C   0  0  0  0  0  0  0  0  0  0  0  0
    3.5400   -5.4580   24.8030 C   0  0  0  0  0  0  0  0  0  0  0  0
    4.2190   -4.8600   23.7340 C   0  0  0  0  0  0  0  0  0  0  0  0
    6.2650   -6.0460   27.3740 C   0  0  0  0  0  0  0  0  0  0  0  0
    7.7840   -5.8160   27.5060 C   0  0  0  0  0  0  0  0  0  0  0  0
    8.5180   -5.2300   26.4730 C   0  0  0  0  0  0  0  0  0  0  0  0
    7.9110   -4.8270   25.2930 C   0  0  0  0  0  0  0  0  0  0  0  0
    7.5500   -2.7650   22.2940 C   0  0  0  0  0  0  0  0  0  0  0  0
    7.4320   -4.2930   22.4370 N   0  0  0  0  0  0  0  0  0  0  0  0
    6.2540   -4.1890   22.6240 C   0  0  0  0  0  0  0  0  0  0  0  0
    5.2400   -3.2290   22.7130 C   0  0  0  0  0  0  0  0  0  0  0  0
    6.2410   -2.4560   22.4840 N   0  0  0  0  0  0  0  0  0  0  0  0
  3  1  1  6
  1  4  1  0
  2  4  2  0
  4  5  1  0
  3  6  1  0
  6  7  2  0
  7  8  1  0
  8  9  2  0
  9 10  1  0
  6 11  1  0
 10 11  2  0
  8 12  1  0
 12 13  2  0
 13 14  1  0
  7 15  1  0
 14 15  2  0
 16 17  2  0
 17 18  1  0
 18 19  2  0
  3 20  1  0
 16 20  1  0
 19 20  1  0
M  END
