x0820-x2540
     RDKit          3D

 39 42  0  0  0  0  0  0  0  0999 V2000
    7.4820   -1.5990   22.1430 N   0  0  0  0  0  0  0  0  0  0  0  0
    8.0780    1.5420   23.2850 N   0  0  0  0  0  0  0  0  0  0  0  0
    8.7050    1.6110   21.0090 O   0  0  0  0  0  0  0  0  0  0  0  0
    6.9630   -0.2500   21.8210 C   0  0  1  0  0  0  0  0  0  0  0  0
    7.9420    0.9670   22.0470 C   0  0  0  0  0  0  0  0  0  0  0  0
    8.9200    2.6970   23.4980 C   0  0  0  0  0  0  0  0  0  0  0  0
    8.9010    3.0130   24.8390 C   0  0  0  0  0  0  0  0  0  0  0  0
    8.4520    3.9070   22.6540 C   0  0  0  0  0  0  0  0  0  0  0  0
   10.3470    2.3720   22.9980 C   0  0  0  0  0  0  0  0  0  0  0  0
   12.3030   -1.2270   23.5360 C   0  0  0  0  0  0  0  0  0  0  0  0
   12.9340   -1.1560   22.2910 C   0  0  0  0  0  0  0  0  0  0  0  0
   12.4700    0.0890   24.2890 C   0  0  0  0  0  0  0  0  0  0  0  0
   12.9990   -2.3170   24.3940 C   0  0  0  0  0  0  0  0  0  0  0  0
    5.8030   -3.3020   21.4360 N   0  0  0  0  0  0  0  0  0  0  0  0
    5.5770   -5.0130   20.0230 O   0  0  0  0  0  0  0  0  0  0  0  0
    6.8100   -2.9950   22.4130 C   0  0  2  0  0  0  0  0  0  0  0  0
    6.0640   -3.9020   20.2530 C   0  0  0  0  0  0  0  0  0  0  0  0
    6.9150   -3.2200   19.1990 C   0  0  0  0  0  0  0  0  0  0  0  0
    6.3820    0.1410   17.9190 N   0  0  0  0  0  0  0  0  0  0  0  0
    5.2400    0.8600   17.9920 C   0  0  0  0  0  0  0  0  0  0  0  0
    4.6300    1.2180   19.1970 C   0  0  0  0  0  0  0  0  0  0  0  0
    5.1990    0.8360   20.4320 C   0  0  0  0  0  0  0  0  0  0  0  0
    6.3390    0.1220   20.4550 C   0  0  0  0  0  0  0  0  0  0  0  0
    6.9470   -0.2400   19.0900 C   0  0  0  0  0  0  0  0  0  0  0  0
   10.1520   -2.1850   24.3000 O   0  0  0  0  0  0  0  0  0  0  0  0
    8.8320   -2.2730   23.9210 N   0  0  0  0  0  0  0  0  0  0  0  0
    8.6800   -1.6510   22.7550 C   0  0  0  0  0  0  0  0  0  0  0  0
    9.9110   -1.1510   22.3860 C   0  0  0  0  0  0  0  0  0  0  0  0
   10.8210   -1.4930   23.3670 C   0  0  0  0  0  0  0  0  0  0  0  0
    6.1970   -3.4750   23.7850 C   0  0  0  0  0  0  0  0  0  0  0  0
    6.8570   -3.8390   25.0320 C   0  0  0  0  0  0  0  0  0  0  0  0
    6.0350   -4.2520   26.1410 C   0  0  0  0  0  0  0  0  0  0  0  0
    4.6350   -4.3050   25.9950 C   0  0  0  0  0  0  0  0  0  0  0  0
    4.0260   -3.9650   24.8020 C   0  0  0  0  0  0  0  0  0  0  0  0
    4.7960   -3.5550   23.7170 C   0  0  0  0  0  0  0  0  0  0  0  0
    6.5670   -4.6160   27.3950 C   0  0  0  0  0  0  0  0  0  0  0  0
    7.9240   -4.6130   27.6590 C   0  0  0  0  0  0  0  0  0  0  0  0
    8.7700   -4.2310   26.6200 C   0  0  0  0  0  0  0  0  0  0  0  0
    8.2580   -3.8580   25.3550 C   0  0  0  0  0  0  0  0  0  0  0  0
  1  4  1  0
  2  5  1  0
  3  5  2  0
  4  5  1  6
  6  2  1  0
  6  7  1  0
  6  8  1  0
  6  9  1  0
 10 11  1  0
 10 12  1  0
 10 13  1  0
  1 16  1  0
 16 14  1  6
 14 17  1  0
 15 17  2  0
 17 18  1  0
 19 20  2  0
 20 21  1  0
 21 22  2  0
  4 23  1  0
 22 23  1  0
 19 24  1  0
 23 24  2  0
 25 26  1  0
  1 27  1  0
 26 27  2  0
 27 28  1  0
 10 29  1  0
 25 29  1  0
 28 29  2  0
 16 30  1  0
 30 31  2  0
 31 32  1  0
 32 33  2  0
 33 34  1  0
 30 35  1  0
 34 35  2  0
 32 36  1  0
 36 37  2  0
 37 38  1  0
 31 39  1  0
 38 39  2  0
M  END
