x0820-x1077
     RDKit          3D

 25 27  0  0  0  0  0  0  0  0999 V2000
    6.9260   -4.8390   21.7720 N   0  0  0  0  0  0  0  0  0  0  0  0
    7.9100   -2.5210   22.5720 C   0  0  0  0  0  0  0  0  0  0  0  0
    5.3900   -5.0540   20.0420 O   0  0  0  0  0  0  0  0  0  0  0  0
    7.4280   -3.9930   22.8710 C   0  0  1  0  0  0  0  0  0  0  0  0
    6.3650   -4.4900   20.5460 C   0  0  0  0  0  0  0  0  0  0  0  0
    7.0060   -3.4140   19.7020 C   0  0  0  0  0  0  0  0  0  0  0  0
    6.3950   -4.1180   23.9760 C   0  0  0  0  0  0  0  0  0  0  0  0
    6.7910   -4.4190   25.4340 C   0  0  0  0  0  0  0  0  0  0  0  0
    5.7850   -4.5150   26.4170 C   0  0  0  0  0  0  0  0  0  0  0  0
    4.4080   -4.3550   26.1250 C   0  0  0  0  0  0  0  0  0  0  0  0
    3.9920   -4.0900   24.8210 C   0  0  0  0  0  0  0  0  0  0  0  0
    5.0330   -3.9670   23.7090 C   0  0  0  0  0  0  0  0  0  0  0  0
    6.1400   -4.7800   27.7490 C   0  0  0  0  0  0  0  0  0  0  0  0
    7.4650   -4.9600   28.1210 C   0  0  0  0  0  0  0  0  0  0  0  0
    8.4500   -4.8800   27.1720 C   0  0  0  0  0  0  0  0  0  0  0  0
    8.1320   -4.6120   25.8570 C   0  0  0  0  0  0  0  0  0  0  0  0
    9.1510    1.4970   21.5100 N   0  0  0  0  0  0  0  0  0  0  0  0
    9.2620    0.4580   22.0030 C   0  0  0  0  0  0  0  0  0  0  0  0
    9.3360   -0.7660   22.6920 C   0  0  0  0  0  0  0  0  0  0  0  0
    8.3800   -1.0580   23.6320 C   0  0  0  0  0  0  0  0  0  0  0  0
    8.3560   -2.3920   24.4830 C   0  0  0  0  0  0  0  0  0  0  0  0
    9.5570   -3.3310   24.1310 C   0  0  0  0  0  0  0  0  0  0  0  0
   10.2490   -2.6720   23.1760 C   0  0  0  0  0  0  0  0  0  0  0  0
   10.3740   -1.6060   22.3970 N   0  0  0  0  0  0  0  0  0  0  0  0
    9.1040   -1.9590   23.4560 C   0  0  0  0  0  0  0  0  0  0  0  0
  1  4  1  0
  4  2  1  6
  1  5  1  0
  3  5  2  0
  5  6  1  0
  4  7  1  0
  7  8  2  0
  8  9  1  0
  9 10  2  0
 10 11  1  0
  7 12  1  0
 11 12  2  0
  9 13  1  0
 13 14  2  0
 14 15  1  0
  8 16  1  0
 15 16  2  0
 17 18  3  0
 18 19  1  0
 19 20  2  0
 20 21  1  0
 21 22  2  0
 22 23  1  0
 19 24  1  0
 23 24  2  0
  2 25  1  0
 23 25  1  0
M  END
