x0820-x2703
     RDKit          3D

 44 48  0  0  0  0  0  0  0  0999 V2000
    7.3660   -1.8510   22.0760 N   0  0  0  0  0  0  0  0  0  0  0  0
    7.3370    1.8090   22.7590 N   0  0  0  0  0  0  0  0  0  0  0  0
    9.0360    0.7180   21.5190 O   0  0  0  0  0  0  0  0  0  0  0  0
    6.7380   -0.5430   21.8150 C   0  0  1  0  0  0  0  0  0  0  0  0
    7.7120    0.6700   22.0530 C   0  0  0  0  0  0  0  0  0  0  0  0
   10.0270    1.8600   24.0580 C   0  0  0  0  0  0  0  0  0  0  0  0
    9.2040    1.3040   25.0480 C   0  0  0  0  0  0  0  0  0  0  0  0
    6.1330    4.2340   21.7700 C   0  0  0  0  0  0  0  0  0  0  0  0
   12.4720   -1.5630   24.5260 C   0  0  0  0  0  0  0  0  0  0  0  0
   12.9600   -2.7980   24.9640 C   0  0  0  0  0  0  0  0  0  0  0  0
   13.3050   -1.0010   23.3930 C   0  0  0  0  0  0  0  0  0  0  0  0
    5.6620   -3.3940   21.4240 N   0  0  0  0  0  0  0  0  0  0  0  0
    5.5430   -5.0970   20.0180 O   0  0  0  0  0  0  0  0  0  0  0  0
    6.6440   -3.1770   22.4120 C   0  0  2  0  0  0  0  0  0  0  0  0
    5.9830   -3.9710   20.2540 C   0  0  0  0  0  0  0  0  0  0  0  0
    6.8470   -3.2500   19.2260 C   0  0  0  0  0  0  0  0  0  0  0  0
    6.4070    0.1400   18.0410 N   0  0  0  0  0  0  0  0  0  0  0  0
    5.2120    0.7560   18.0030 C   0  0  0  0  0  0  0  0  0  0  0  0
    4.4380    0.9750   19.1190 C   0  0  0  0  0  0  0  0  0  0  0  0
    4.8920    0.5570   20.3590 C   0  0  0  0  0  0  0  0  0  0  0  0
    6.1380   -0.0870   20.4580 C   0  0  0  0  0  0  0  0  0  0  0  0
    6.8550   -0.2730   19.2580 C   0  0  0  0  0  0  0  0  0  0  0  0
   11.0060   -1.8730   22.6080 N   0  0  0  0  0  0  0  0  0  0  0  0
   11.0900   -1.6490   23.9300 C   0  0  0  0  0  0  0  0  0  0  0  0
    9.8640   -1.4700   24.7970 C   0  0  0  0  0  0  0  0  0  0  0  0
    8.5150   -1.5490   24.0800 C   0  0  0  0  0  0  0  0  0  0  0  0
    8.5550   -1.7750   22.7220 C   0  0  0  0  0  0  0  0  0  0  0  0
    9.7760   -1.9260   22.0720 C   0  0  0  0  0  0  0  0  0  0  0  0
    9.3390    3.1200   23.5170 C   0  0  0  0  0  0  0  0  0  0  0  0
   10.0000    4.3660   23.6350 C   0  0  0  0  0  0  0  0  0  0  0  0
    9.4020    5.5480   23.1520 C   0  0  0  0  0  0  0  0  0  0  0  0
    8.1370    5.4410   22.5520 C   0  0  0  0  0  0  0  0  0  0  0  0
    7.4850    4.2130   22.4350 C   0  0  0  0  0  0  0  0  0  0  0  0
    8.0710    3.0270   22.9160 C   0  0  0  0  0  0  0  0  0  0  0  0
    6.1530   -3.6190   23.8400 C   0  0  0  0  0  0  0  0  0  0  0  0
    6.8070   -3.9040   25.0870 C   0  0  0  0  0  0  0  0  0  0  0  0
    6.0160   -4.2920   26.2000 C   0  0  0  0  0  0  0  0  0  0  0  0
    4.6240   -4.4050   26.0890 C   0  0  0  0  0  0  0  0  0  0  0  0
    3.9960   -4.1390   24.8920 C   0  0  0  0  0  0  0  0  0  0  0  0
    4.7530   -3.7540   23.7990 C   0  0  0  0  0  0  0  0  0  0  0  0
    6.5850   -4.5820   27.4600 C   0  0  0  0  0  0  0  0  0  0  0  0
    7.9580   -4.5050   27.6680 C   0  0  0  0  0  0  0  0  0  0  0  0
    8.7690   -4.1380   26.6100 C   0  0  0  0  0  0  0  0  0  0  0  0
    8.2080   -3.8440   25.3520 C   0  0  0  0  0  0  0  0  0  0  0  0
  1  4  1  0
  2  5  1  0
  3  5  2  0
  4  5  1  6
  6  7  1  0
  9 10  1  0
  9 11  1  0
  1 14  1  0
 14 12  1  6
 12 15  1  0
 13 15  2  0
 15 16  1  0
 17 18  2  0
 18 19  1  0
 19 20  2  0
  4 21  1  0
 20 21  1  0
 17 22  1  0
 21 22  2  0
  9 24  1  0
 23 24  2  0
 24 25  1  0
 25 26  2  0
  1 27  1  0
 26 27  1  0
 23 28  1  0
 27 28  2  0
  6 29  1  0
 29 30  2  0
 30 31  1  0
 31 32  2  0
  8 33  1  0
 32 33  1  0
  2 34  1  0
 29 34  1  0
 33 34  2  0
 14 35  1  0
 35 36  2  0
 36 37  1  0
 37 38  2  0
 38 39  1  0
 35 40  1  0
 39 40  2  0
 37 41  1  0
 41 42  2  0
 42 43  1  0
 36 44  1  0
 43 44  2  0
M  END
