x0820-x2964
     RDKit          3D

 35 38  0  0  0  0  0  0  0  0999 V2000
    6.8290   -4.8880   21.7710 N   0  0  0  0  0  0  0  0  0  0  0  0
    7.3300   -2.4960   22.3900 C   0  0  0  0  0  0  0  0  0  0  0  0
    5.3440   -5.1590   20.0270 O   0  0  0  0  0  0  0  0  0  0  0  0
    7.1760   -3.9620   22.8410 C   0  0  1  0  0  0  0  0  0  0  0  0
    6.2910   -4.5680   20.5320 C   0  0  0  0  0  0  0  0  0  0  0  0
    6.9190   -3.4700   19.6880 C   0  0  0  0  0  0  0  0  0  0  0  0
    3.2510    2.1910   19.1490 N   0  0  0  0  0  0  0  0  0  0  0  0
    8.7980    1.3910   21.2290 O   0  0  0  0  0  0  0  0  0  0  0  0
   13.3210   -2.1370   21.3320 Cl  0  0  0  0  0  0  0  0  0  0  0  0
    7.2320   -0.3080   21.0700 N   0  0  0  0  0  0  0  0  0  0  0  0
    8.9780   -0.5440   22.5240 N   0  0  0  0  0  0  0  0  0  0  0  0
    8.3610    0.2780   21.5680 C   0  0  0  0  0  0  0  0  0  0  0  0
    8.8030   -2.0120   22.3610 C   0  0  0  0  0  0  0  0  0  0  0  0
    6.2880   -4.1970   24.0460 C   0  0  0  0  0  0  0  0  0  0  0  0
    6.8340   -4.2990   25.3430 C   0  0  0  0  0  0  0  0  0  0  0  0
    5.9950   -4.5040   26.4420 C   0  0  0  0  0  0  0  0  0  0  0  0
    4.4720   -4.6310   26.3170 C   0  0  0  0  0  0  0  0  0  0  0  0
    3.9880   -4.5090   24.8640 C   0  0  0  0  0  0  0  0  0  0  0  0
    4.8940   -4.3020   23.8230 C   0  0  0  0  0  0  0  0  0  0  0  0
    6.5370   -4.6200   27.8730 C   0  0  0  0  0  0  0  0  0  0  0  0
    7.8950   -4.5200   28.0590 C   0  0  0  0  0  0  0  0  0  0  0  0
    8.7000   -4.3160   26.9460 C   0  0  0  0  0  0  0  0  0  0  0  0
    8.2310   -4.2040   25.6280 C   0  0  0  0  0  0  0  0  0  0  0  0
    4.5300    1.4710   19.0400 C   0  0  0  0  0  0  0  0  0  0  0  0
    5.1610    0.9500   20.3380 C   0  0  0  0  0  0  0  0  0  0  0  0
    6.5070    0.2090   20.0840 C   0  0  0  0  0  0  0  0  0  0  0  0
    6.9180    0.1220   18.7650 C   0  0  0  0  0  0  0  0  0  0  0  0
    6.3160    0.6100   17.6790 N   0  0  0  0  0  0  0  0  0  0  0  0
    5.1660    1.2580   17.8450 C   0  0  0  0  0  0  0  0  0  0  0  0
   10.7820    0.8070   23.3790 C   0  0  0  0  0  0  0  0  0  0  0  0
   12.1630    1.0150   23.4670 C   0  0  0  0  0  0  0  0  0  0  0  0
   13.0310    0.1120   22.8420 C   0  0  0  0  0  0  0  0  0  0  0  0
   12.4530   -0.9620   22.1600 C   0  0  0  0  0  0  0  0  0  0  0  0
   11.1240   -1.1480   22.0870 C   0  0  0  0  0  0  0  0  0  0  0  0
   10.2580   -0.2800   22.6800 C   0  0  0  0  0  0  0  0  0  0  0  0
  1  4  1  0
  4  2  1  6
  1  5  1  0
  3  5  2  0
  5  6  1  0
  8 12  2  0
 10 12  1  0
 11 12  1  0
  2 13  1  0
 11 13  1  0
  4 14  1  0
 14 15  2  0
 15 16  1  0
 16 17  2  0
 17 18  1  0
 14 19  1  0
 18 19  2  0
 16 20  1  0
 20 21  2  0
 21 22  1  0
 15 23  1  0
 22 23  2  0
  7 24  1  0
 24 25  2  0
 10 26  1  0
 25 26  1  0
 26 27  2  0
 27 28  1  0
 24 29  1  0
 28 29  2  0
 30 31  2  0
 31 32  1  0
  9 33  1  0
 32 33  2  0
 33 34  1  0
 11 35  1  0
 30 35  1  0
 34 35  2  0
M  END
