x0820-x3110
     RDKit          3D

 43 46  0  0  0  0  0  0  0  0999 V2000
    7.9700    0.9430   23.4650 N   0  0  0  0  0  0  0  0  0  0  0  0
   13.3620    5.1260   22.8850 C   0  0  0  0  0  0  0  0  0  0  0  0
   11.9630    3.1850   22.4740 O   0  0  0  0  0  0  0  0  0  0  0  0
   12.3250    4.4700   21.9510 C   0  0  0  0  0  0  0  0  0  0  0  0
    7.4990   -2.0240   22.0320 N   0  0  0  0  0  0  0  0  0  0  0  0
   10.8630    4.2030   24.1910 O   0  0  0  0  0  0  0  0  0  0  0  0
   11.0350    3.2420   23.4590 C   0  0  0  0  0  0  0  0  0  0  0  0
    8.5510    0.9160   21.2570 O   0  0  0  0  0  0  0  0  0  0  0  0
   10.2790    2.0590   23.5380 C   0  0  0  0  0  0  0  0  0  0  0  0
    8.7570    2.1980   23.7290 C   0  0  0  0  0  0  0  0  0  0  0  0
    7.8400    0.4410   22.1500 C   0  0  0  0  0  0  0  0  0  0  0  0
    6.8540   -0.5730   21.9060 C   0  0  1  0  0  0  0  0  0  0  0  0
   12.6070   -1.8460   24.3120 C   0  0  0  0  0  0  0  0  0  0  0  0
   12.8070   -0.6090   24.8620 C   0  0  0  0  0  0  0  0  0  0  0  0
   13.4960   -2.0420   23.0990 C   0  0  0  0  0  0  0  0  0  0  0  0
   12.9860   -2.9270   25.3280 C   0  0  0  0  0  0  0  0  0  0  0  0
    6.2730   -4.1720   21.7360 N   0  0  0  0  0  0  0  0  0  0  0  0
    5.3120   -4.9520   19.9690 O   0  0  0  0  0  0  0  0  0  0  0  0
    7.0130   -3.3620   22.6630 C   0  0  2  0  0  0  0  0  0  0  0  0
    6.1350   -4.1670   20.4080 C   0  0  0  0  0  0  0  0  0  0  0  0
    6.9460   -3.3140   19.4560 C   0  0  0  0  0  0  0  0  0  0  0  0
    6.3970    0.1840   17.9830 N   0  0  0  0  0  0  0  0  0  0  0  0
    5.2600    0.9030   18.0120 C   0  0  0  0  0  0  0  0  0  0  0  0
    4.5430    1.2020   19.1740 C   0  0  0  0  0  0  0  0  0  0  0  0
    4.9700    0.7750   20.3760 C   0  0  0  0  0  0  0  0  0  0  0  0
    6.2630   -0.0660   20.5640 C   0  0  0  0  0  0  0  0  0  0  0  0
    6.9000   -0.2900   19.1540 C   0  0  0  0  0  0  0  0  0  0  0  0
    9.8610   -1.4270   21.8590 C   0  0  0  0  0  0  0  0  0  0  0  0
   11.0950   -1.4160   22.4630 C   0  0  0  0  0  0  0  0  0  0  0  0
   11.2370   -1.9040   23.7380 C   0  0  0  0  0  0  0  0  0  0  0  0
   10.1550   -2.4090   24.4320 C   0  0  0  0  0  0  0  0  0  0  0  0
    8.9140   -2.4180   23.8230 C   0  0  0  0  0  0  0  0  0  0  0  0
    8.7720   -1.9290   22.5200 C   0  0  0  0  0  0  0  0  0  0  0  0
    6.2120   -3.6280   23.9620 C   0  0  0  0  0  0  0  0  0  0  0  0
    6.7810   -3.9550   25.2270 C   0  0  0  0  0  0  0  0  0  0  0  0
    5.9330   -4.1940   26.3230 C   0  0  0  0  0  0  0  0  0  0  0  0
    4.5480   -4.1170   26.1640 C   0  0  0  0  0  0  0  0  0  0  0  0
    3.9970   -3.8030   24.9220 C   0  0  0  0  0  0  0  0  0  0  0  0
    4.8190   -3.5560   23.8180 C   0  0  0  0  0  0  0  0  0  0  0  0
    6.4370   -4.5160   27.5970 C   0  0  0  0  0  0  0  0  0  0  0  0
    7.8020   -4.6190   27.8280 C   0  0  0  0  0  0  0  0  0  0  0  0
    8.6740   -4.3990   26.7810 C   0  0  0  0  0  0  0  0  0  0  0  0
    8.1770   -4.0760   25.5130 C   0  0  0  0  0  0  0  0  0  0  0  0
  2  4  1  0
  3  4  1  0
  3  7  1  0
  6  7  2  0
  7  9  1  0
  1 10  1  0
  9 10  1  0
  1 11  1  0
  8 11  2  0
  5 12  1  0
 12 11  1  6
 13 14  1  0
 13 15  1  0
 13 16  1  0
  5 19  1  0
 19 17  1  6
 17 20  1  0
 18 20  2  0
 20 21  1  0
 22 23  2  0
 23 24  1  0
 24 25  2  0
 12 26  1  0
 25 26  1  0
 22 27  1  0
 26 27  2  0
 28 29  2  0
 13 30  1  0
 29 30  1  0
 30 31  2  0
 31 32  1  0
  5 33  1  0
 28 33  1  0
 32 33  2  0
 19 34  1  0
 34 35  2  0
 35 36  1  0
 36 37  2  0
 37 38  1  0
 34 39  1  0
 38 39  2  0
 36 40  1  0
 40 41  2  0
 41 42  1  0
 35 43  1  0
 42 43  2  0
M  END
