x0820-x2600
     RDKit          3D

 35 38  0  0  0  0  0  0  0  0999 V2000
    6.7490   -4.9180   21.7650 N   0  0  0  0  0  0  0  0  0  0  0  0
    7.0710   -2.5000   22.3850 C   0  0  0  0  0  0  0  0  0  0  0  0
    5.3120   -5.1990   20.0130 O   0  0  0  0  0  0  0  0  0  0  0  0
    7.1340   -3.9760   22.7930 C   0  0  1  0  0  0  0  0  0  0  0  0
    6.2430   -4.6000   20.5220 C   0  0  0  0  0  0  0  0  0  0  0  0
    6.8790   -3.4920   19.6900 C   0  0  0  0  0  0  0  0  0  0  0  0
   14.0540   -1.4180   20.3310 N   0  0  0  0  0  0  0  0  0  0  0  0
    8.3870    0.3970   21.7220 C   0  0  0  0  0  0  0  0  0  0  0  0
    9.0360    1.3920   21.3620 O   0  0  0  0  0  0  0  0  0  0  0  0
    8.7270   -0.5360   22.9040 C   0  0  1  0  0  0  0  0  0  0  0  0
    7.2410   -0.0820   21.1550 N   0  0  0  0  0  0  0  0  0  0  0  0
   13.2400   -1.2750   21.5430 C   0  0  0  0  0  0  0  0  0  0  0  0
    8.4810   -1.9280   22.3090 C   0  0  0  0  0  0  0  0  0  0  0  0
    6.2830   -4.2100   24.0110 C   0  0  0  0  0  0  0  0  0  0  0  0
    6.9310   -4.3140   25.3850 C   0  0  0  0  0  0  0  0  0  0  0  0
    5.9220   -4.5470   26.5060 C   0  0  0  0  0  0  0  0  0  0  0  0
    4.5510   -4.6470   26.2320 C   0  0  0  0  0  0  0  0  0  0  0  0
    4.0620   -4.5380   24.9320 C   0  0  0  0  0  0  0  0  0  0  0  0
    4.8980   -4.3260   23.8480 C   0  0  0  0  0  0  0  0  0  0  0  0
    6.3910   -4.6630   27.8290 C   0  0  0  0  0  0  0  0  0  0  0  0
    7.7700   -4.5730   28.1410 C   0  0  0  0  0  0  0  0  0  0  0  0
    8.6970   -4.3680   27.1980 C   0  0  0  0  0  0  0  0  0  0  0  0
    8.2920   -4.2240   25.7260 C   0  0  0  0  0  0  0  0  0  0  0  0
    6.2530    0.5680   17.6720 N   0  0  0  0  0  0  0  0  0  0  0  0
    6.9120    0.0880   18.7380 C   0  0  0  0  0  0  0  0  0  0  0  0
    6.5680    0.3950   20.0350 C   0  0  0  0  0  0  0  0  0  0  0  0
    5.4780    1.2370   20.2630 C   0  0  0  0  0  0  0  0  0  0  0  0
    4.7850    1.7420   19.1830 C   0  0  0  0  0  0  0  0  0  0  0  0
    5.2130    1.3810   17.9000 C   0  0  0  0  0  0  0  0  0  0  0  0
   10.6870   -0.2530   24.5540 C   0  0  0  0  0  0  0  0  0  0  0  0
   12.0700   -0.3240   24.7980 C   0  0  0  0  0  0  0  0  0  0  0  0
   12.9100   -0.6680   23.7950 C   0  0  0  0  0  0  0  0  0  0  0  0
   12.4020   -0.9430   22.5670 C   0  0  0  0  0  0  0  0  0  0  0  0
   11.0640   -0.8950   22.2920 C   0  0  0  0  0  0  0  0  0  0  0  0
   10.1830   -0.5500   23.2710 C   0  0  0  0  0  0  0  0  0  0  0  0
  1  4  1  0
  4  2  1  6
  1  5  1  0
  3  5  2  0
  5  6  1  0
  8  9  2  0
  8 10  1  0
  8 11  1  0
  7 12  3  0
  2 13  1  0
 10 13  1  6
  4 14  1  0
 14 15  2  0
 15 16  1  0
 16 17  2  0
 17 18  1  0
 14 19  1  0
 18 19  2  0
 16 20  1  0
 20 21  2  0
 21 22  1  0
 15 23  1  0
 22 23  2  0
 24 25  2  0
 11 26  1  0
 25 26  1  0
 26 27  2  0
 27 28  1  0
 24 29  1  0
 28 29  2  0
 30 31  2  0
 31 32  1  0
 12 33  1  0
 32 33  2  0
 33 34  1  0
 10 35  1  0
 30 35  1  0
 34 35  2  0
M  END
