x0830-x2964
     RDKit          3D

 32 36  0  0  0  0  0  0  0  0999 V2000
    7.6330   -3.8980   20.0120 C   0  0  0  0  0  0  0  0  0  0  0  0
    5.3730   -3.5090   19.4690 O   0  0  0  0  0  0  0  0  0  0  0  0
    6.3540   -3.1810   20.1940 C   0  0  0  0  0  0  0  0  0  0  0  0
    9.7870   -2.3180   23.3740 C   0  0  0  0  0  0  0  0  0  0  0  0
   13.2630   -2.2990   21.4830 Cl  0  0  0  0  0  0  0  0  0  0  0  0
    7.6320    1.0590   21.0650 O   0  0  0  0  0  0  0  0  0  0  0  0
    8.3650   -0.5830   22.6840 N   0  0  0  0  0  0  0  0  0  0  0  0
    7.7960   -0.1140   21.4070 C   0  0  0  0  0  0  0  0  0  0  0  0
    6.4750   -2.1840   21.1910 N   0  0  0  0  0  0  0  0  0  0  0  0
    6.2690   -2.5370   22.5750 C   0  0  0  0  0  0  0  0  0  0  0  0
    7.5030   -2.5530   23.3780 C   0  0  0  0  0  0  0  0  0  0  0  0
    8.5220   -2.0440   22.5390 C   0  0  2  0  0  0  0  0  0  0  0  0
    8.8690   -1.9860   21.3950 C   0  0  0  0  0  0  0  0  0  0  0  0
    7.5810   -1.4010   20.7370 C   0  0  2  0  0  0  0  0  0  0  0  0
   11.9080   -1.8890   22.3680 C   0  0  0  0  0  0  0  0  0  0  0  0
   12.8250   -0.7970   22.2360 C   0  0  0  0  0  0  0  0  0  0  0  0
   12.6950    0.4750   22.6950 C   0  0  0  0  0  0  0  0  0  0  0  0
   11.6440    0.9110   23.3660 C   0  0  0  0  0  0  0  0  0  0  0  0
   10.6920   -0.0130   23.6270 C   0  0  0  0  0  0  0  0  0  0  0  0
   10.8520   -1.3110   23.1400 C   0  0  0  0  0  0  0  0  0  0  0  0
   11.4550    2.1750   23.7750 C   0  0  0  0  0  0  0  0  0  0  0  0
   10.3340    2.5410   24.4570 C   0  0  0  0  0  0  0  0  0  0  0  0
    9.3530    1.6370   24.7920 C   0  0  0  0  0  0  0  0  0  0  0  0
    9.5440    0.3380   24.3640 C   0  0  0  0  0  0  0  0  0  0  0  0
    3.1160    2.4210   19.6560 N   0  0  0  0  0  0  0  0  0  0  0  0
    4.2460    1.6110   19.3490 C   0  0  0  0  0  0  0  0  0  0  0  0
    4.7380    0.4790   20.1900 C   0  0  0  0  0  0  0  0  0  0  0  0
    5.9690   -0.3290   19.7420 C   0  0  0  0  0  0  0  0  0  0  0  0
    6.8590   -0.1430   18.4640 C   0  0  0  0  0  0  0  0  0  0  0  0
    6.2530    0.9210   17.8740 N   0  0  0  0  0  0  0  0  0  0  0  0
    5.1050    1.7530   18.1720 C   0  0  0  0  0  0  0  0  0  0  0  0
    7.4270   -1.3000   19.2100 C   0  0  0  0  0  0  0  0  0  0  0  0
  1  3  1  0
  2  3  2  0
  6  8  2  0
  7  8  1  0
  3  9  1  0
  9 10  1  0
 10 11  1  0
 12  4  1  1
  7 12  1  0
 11 12  1  0
 12 13  1  0
  8 14  1  0
  9 14  1  0
 13 14  1  0
  5 15  1  0
 15 16  2  0
 16 17  1  0
 17 18  2  0
 18 19  1  0
  4 20  1  0
 15 20  1  0
 19 20  2  0
 18 21  1  0
 21 22  2  0
 22 23  1  0
 19 24  1  0
 23 24  2  0
 25 26  1  0
 26 27  2  0
 27 28  1  0
 28 29  2  0
 29 30  1  0
 26 31  1  0
 30 31  2  0
 14 32  1  6
 29 32  1  0
M  END
