x0831-x2052
     RDKit          3D

 29 31  0  0  0  0  0  0  0  0999 V2000
    6.0180   -1.5800   25.2360 C   0  0  0  0  0  0  0  0  0  0  0  0
    4.5940   -1.4100   25.2660 O   0  0  0  0  0  0  0  0  0  0  0  0
    6.9480   -1.0630   26.1550 N   0  0  0  0  0  0  0  0  0  0  0  0
    5.4470   -4.5120   19.9320 O   0  0  0  0  0  0  0  0  0  0  0  0
    5.1700    2.2200   30.5120 O   0  0  0  0  0  0  0  0  0  0  0  0
    6.3730   -3.7590   20.2710 C   0  0  0  0  0  0  0  0  0  0  0  0
    7.1840   -3.1340   19.1530 C   0  0  0  0  0  0  0  0  0  0  0  0
    5.9120    3.1830   30.7110 C   0  0  0  0  0  0  0  0  0  0  0  0
    6.7030   -3.5100   21.6190 N   0  0  0  0  0  0  0  0  0  0  0  0
    7.7750   -2.5650   21.8820 C   0  0  1  0  0  0  0  0  0  0  0  0
    7.2010   -1.7120   23.0270 C   0  0  0  0  0  0  0  0  0  0  0  0
    6.6450   -2.4100   24.0960 C   0  0  2  0  0  0  0  0  0  0  0  0
    5.8340   -3.4610   23.6720 C   0  0  0  0  0  0  0  0  0  0  0  0
    6.4220   -4.3630   22.7880 C   0  0  0  0  0  0  0  0  0  0  0  0
    6.3290    2.0440   28.3300 N   0  0  0  0  0  0  0  0  0  0  0  0
    6.7000    1.1860   27.3530 C   0  0  0  0  0  0  0  0  0  0  0  0
    6.4830   -0.1880   27.2570 C   0  0  0  0  0  0  0  0  0  0  0  0
    5.7800   -0.8670   28.2620 C   0  0  0  0  0  0  0  0  0  0  0  0
    5.2670   -0.0650   29.4730 C   0  0  0  0  0  0  0  0  0  0  0  0
    5.5880    1.4410   29.4510 C   0  0  0  0  0  0  0  0  0  0  0  0
   12.6310   -2.1280   22.1640 C   0  0  0  0  0  0  0  0  0  0  0  0
    9.7940   -2.1300   23.4520 C   0  0  0  0  0  0  0  0  0  0  0  0
   12.0220   -0.8970   22.8760 C   0  0  0  0  0  0  0  0  0  0  0  0
   10.6140   -0.9900   23.4940 C   0  0  0  0  0  0  0  0  0  0  0  0
   10.1950    0.1910   24.0970 C   0  0  0  0  0  0  0  0  0  0  0  0
   11.0030    1.3340   24.1020 C   0  0  0  0  0  0  0  0  0  0  0  0
   12.2930    1.4030   23.5220 C   0  0  0  0  0  0  0  0  0  0  0  0
   12.7900    0.2610   22.9130 C   0  0  0  0  0  0  0  0  0  0  0  0
    9.1370   -2.1560   22.0580 C   0  0  0  0  0  0  0  0  0  0  0  0
  1  2  2  0
  1  3  1  0
  4  6  2  0
  6  7  1  0
  5  8  1  0
  6  9  1  0
  9 10  1  0
 10 11  1  0
 12  1  1  6
 11 12  1  0
 12 13  1  0
  9 14  1  0
 13 14  1  0
 15 16  2  0
  3 17  1  0
 16 17  1  0
 17 18  2  0
 18 19  1  0
  5 20  1  0
 15 20  1  0
 19 20  2  0
 21 23  1  0
 22 24  1  0
 23 24  2  0
 24 25  1  0
 25 26  2  0
 26 27  1  0
 23 28  1  0
 27 28  2  0
 10 29  1  1
 22 29  1  0
M  END
