x0831-x1351
     RDKit          3D

 27 29  0  0  0  0  0  0  0  0999 V2000
    6.9730   -3.1850   19.1180 C   0  0  0  0  0  0  0  0  0  0  0  0
    5.0950   -4.4930   19.7990 O   0  0  0  0  0  0  0  0  0  0  0  0
    6.0890   -3.8810   20.1350 C   0  0  0  0  0  0  0  0  0  0  0  0
    6.1240   -2.9490   25.3460 N   0  0  0  0  0  0  0  0  0  0  0  0
    7.9510   -2.8860   26.6850 O   0  0  0  0  0  0  0  0  0  0  0  0
    6.9050   -2.3530   26.3180 C   0  0  0  0  0  0  0  0  0  0  0  0
    6.4610   -3.8400   21.4450 N   0  0  0  0  0  0  0  0  0  0  0  0
    6.8010   -2.5590   21.9280 C   0  0  0  0  0  0  0  0  0  0  0  0
    7.3680   -2.5080   23.1750 C   0  0  1  0  0  0  0  0  0  0  0  0
    6.7820   -3.4920   24.2120 C   0  0  2  0  0  0  0  0  0  0  0  0
    6.0540   -4.5590   23.6790 C   0  0  0  0  0  0  0  0  0  0  0  0
    6.3190   -4.9590   22.3820 C   0  0  0  0  0  0  0  0  0  0  0  0
    7.0630   -0.6320   28.1680 C   0  0  0  0  0  0  0  0  0  0  0  0
    6.7170    0.5690   28.7940 C   0  0  0  0  0  0  0  0  0  0  0  0
    5.7710    1.4560   28.2440 C   0  0  0  0  0  0  0  0  0  0  0  0
    5.1200    1.1910   27.0300 C   0  0  0  0  0  0  0  0  0  0  0  0
    5.4830   -0.1180   26.3260 C   0  0  0  0  0  0  0  0  0  0  0  0
    6.5180   -1.0500   26.9710 C   0  0  0  0  0  0  0  0  0  0  0  0
   12.4510   -2.1760   22.2330 C   0  0  0  0  0  0  0  0  0  0  0  0
    9.8030   -2.2800   23.9610 C   0  0  0  0  0  0  0  0  0  0  0  0
   11.8530   -0.9430   22.9420 C   0  0  0  0  0  0  0  0  0  0  0  0
   10.5510   -1.0750   23.7590 C   0  0  0  0  0  0  0  0  0  0  0  0
   10.1310    0.1210   24.3340 C   0  0  0  0  0  0  0  0  0  0  0  0
   10.8490    1.3340   24.1710 C   0  0  0  0  0  0  0  0  0  0  0  0
   12.0560    1.3810   23.4090 C   0  0  0  0  0  0  0  0  0  0  0  0
   12.5550    0.2410   22.7970 C   0  0  0  0  0  0  0  0  0  0  0  0
    8.7680   -2.6680   22.8970 C   0  0  0  0  0  0  0  0  0  0  0  0
  1  3  1  0
  2  3  2  0
  4  6  1  0
  5  6  2  0
  3  7  1  0
  7  8  1  0
  8  9  1  0
 10  4  1  1
  9 10  1  0
 10 11  1  0
  7 12  1  0
 11 12  1  0
 13 14  2  0
 14 15  1  0
 15 16  2  0
 16 17  1  0
  6 18  1  0
 13 18  1  0
 17 18  2  0
 19 21  1  0
 20 22  1  0
 21 22  2  0
 22 23  1  0
 23 24  2  0
 24 25  1  0
 21 26  1  0
 25 26  2  0
  9 27  1  6
 20 27  1  0
M  END
