x0830-x2643
     RDKit          3D

 28 32  0  0  0  0  0  0  0  0999 V2000
    7.8500   -3.6620   19.6140 C   0  0  0  0  0  0  0  0  0  0  0  0
    5.6720   -3.1270   19.2220 O   0  0  0  0  0  0  0  0  0  0  0  0
    6.6690   -2.9070   19.9660 C   0  0  0  0  0  0  0  0  0  0  0  0
    9.7350   -2.4030   23.5580 C   0  0  0  0  0  0  0  0  0  0  0  0
    8.3350   -0.0410   21.5730 O   0  0  0  0  0  0  0  0  0  0  0  0
    6.8140   -2.0690   21.2630 C   0  0  1  0  0  0  0  0  0  0  0  0
    6.2450   -2.9910   22.3910 C   0  0  0  0  0  0  0  0  0  0  0  0
    7.5920   -3.0810   23.0380 C   0  0  0  0  0  0  0  0  0  0  0  0
    8.7610   -2.5730   22.3660 C   0  0  2  0  0  0  0  0  0  0  0  0
    9.4630   -2.2840   21.5880 C   0  0  0  0  0  0  0  0  0  0  0  0
    8.2110   -1.4650   21.3420 C   0  0  1  0  0  0  0  0  0  0  0  0
   12.0490   -1.9400   22.7140 C   0  0  0  0  0  0  0  0  0  0  0  0
   13.1090   -1.0790   22.4520 C   0  0  0  0  0  0  0  0  0  0  0  0
   12.9870    0.2510   22.7830 C   0  0  0  0  0  0  0  0  0  0  0  0
   11.8380    0.7460   23.3650 C   0  0  0  0  0  0  0  0  0  0  0  0
   10.7720   -0.1210   23.6490 C   0  0  0  0  0  0  0  0  0  0  0  0
   10.8650   -1.4610   23.3160 C   0  0  0  0  0  0  0  0  0  0  0  0
   11.6990    2.0770   23.6710 C   0  0  0  0  0  0  0  0  0  0  0  0
   10.5330    2.5340   24.2560 C   0  0  0  0  0  0  0  0  0  0  0  0
    9.5130    1.6830   24.5520 C   0  0  0  0  0  0  0  0  0  0  0  0
    9.6080    0.3590   24.2580 C   0  0  0  0  0  0  0  0  0  0  0  0
    6.4060    0.7500   17.6310 N   0  0  0  0  0  0  0  0  0  0  0  0
    6.6190   -0.0720   18.7900 C   0  0  0  0  0  0  0  0  0  0  0  0
    5.6840   -0.0570   19.9960 C   0  0  0  0  0  0  0  0  0  0  0  0
    4.4840    0.8830   19.9450 C   0  0  0  0  0  0  0  0  0  0  0  0
    4.2410    1.7670   18.7300 C   0  0  0  0  0  0  0  0  0  0  0  0
    5.2510    1.6370   17.6170 C   0  0  0  0  0  0  0  0  0  0  0  0
    5.8370   -0.8930   21.2430 C   0  0  0  0  0  0  0  0  0  0  0  0
  1  3  1  0
  2  3  2  0
  6  3  1  0
  6  7  1  0
  7  8  1  0
  9  4  1  1
  8  9  1  0
  9 10  1  0
 11  5  1  1
  6 11  1  0
  9 11  1  0
 10 11  1  0
 12 13  2  0
 13 14  1  0
 14 15  2  0
 15 16  1  0
  4 17  1  0
 12 17  1  0
 16 17  2  0
 15 18  1  0
 18 19  2  0
 19 20  1  0
 16 21  1  0
 20 21  2  0
 22 23  2  0
 23 24  1  0
 24 25  2  0
 25 26  1  0
 22 27  1  0
 26 27  2  0
  6 28  1  6
 24 28  1  0
M  END
