x0830-x0995
     RDKit          3D

 28 31  0  0  0  0  0  0  0  0999 V2000
    7.6510   -4.1180   20.3980 C   0  0  0  0  0  0  0  0  0  0  0  0
    5.7270   -3.2590   19.3100 O   0  0  0  0  0  0  0  0  0  0  0  0
    6.6040   -3.0720   20.1970 C   0  0  0  0  0  0  0  0  0  0  0  0
    9.8400   -2.3970   23.8040 C   0  0  0  0  0  0  0  0  0  0  0  0
    3.3200    1.2720   20.1810 N   0  0  0  0  0  0  0  0  0  0  0  0
    5.4510   -1.0130   21.3300 C   0  0  0  0  0  0  0  0  0  0  0  0
    6.7600   -1.8260   21.1660 C   0  0  0  0  0  0  0  0  0  0  0  0
    6.4430   -2.3470   22.4860 C   0  0  0  0  0  0  0  0  0  0  0  0
    7.5670   -3.0900   23.1250 C   0  0  0  0  0  0  0  0  0  0  0  0
    8.6420   -2.2310   22.9700 N   0  0  0  0  0  0  0  0  0  0  0  0
    9.0390   -2.0590   21.6920 C   0  0  0  0  0  0  0  0  0  0  0  0
    7.9850   -1.1770   21.0250 C   0  0  0  0  0  0  0  0  0  0  0  0
   12.1290   -1.9850   22.8630 C   0  0  0  0  0  0  0  0  0  0  0  0
   13.1360   -1.0900   22.5490 C   0  0  0  0  0  0  0  0  0  0  0  0
   13.0500    0.2560   22.7950 C   0  0  0  0  0  0  0  0  0  0  0  0
   11.8990    0.7450   23.3850 C   0  0  0  0  0  0  0  0  0  0  0  0
   10.8650   -0.1310   23.7310 C   0  0  0  0  0  0  0  0  0  0  0  0
   10.9660   -1.4870   23.4690 C   0  0  0  0  0  0  0  0  0  0  0  0
   11.7270    2.0790   23.6370 C   0  0  0  0  0  0  0  0  0  0  0  0
   10.5700    2.5630   24.2270 C   0  0  0  0  0  0  0  0  0  0  0  0
    9.5710    1.6940   24.5850 C   0  0  0  0  0  0  0  0  0  0  0  0
    9.7100    0.3560   24.3400 C   0  0  0  0  0  0  0  0  0  0  0  0
    4.5530    0.8110   19.5800 C   0  0  0  0  0  0  0  0  0  0  0  0
    5.0330    1.3960   18.2240 C   0  0  0  0  0  0  0  0  0  0  0  0
    6.2800    0.9650   17.5790 N   0  0  0  0  0  0  0  0  0  0  0  0
    6.9740   -0.0340   18.3420 C   0  0  0  0  0  0  0  0  0  0  0  0
    6.6470   -0.5890   19.4780 N   0  0  0  0  0  0  0  0  0  0  0  0
    5.4290   -0.1620   20.1000 C   0  0  0  0  0  0  0  0  0  0  0  0
  1  3  1  0
  2  3  2  0
  7  3  1  0
  6  7  1  0
  7  8  1  0
  8  9  1  0
  4 10  1  0
  9 10  1  0
 10 11  1  0
  7 12  1  0
 11 12  1  0
 13 14  2  0
 14 15  1  0
 15 16  2  0
 16 17  1  0
  4 18  1  0
 13 18  1  0
 17 18  2  0
 16 19  1  0
 19 20  2  0
 20 21  1  0
 17 22  1  0
 21 22  2  0
  5 23  1  0
 23 24  2  0
 24 25  1  0
 25 26  2  0
 26 27  1  0
  6 28  1  0
 23 28  1  0
 27 28  2  0
M  END
