x0831-x1093
     RDKit          3D

 29 32  0  0  0  0  0  0  0  0999 V2000
   12.8110   -2.0080   22.2060 C   0  0  0  0  0  0  0  0  0  0  0  0
    5.3530   -4.2830   19.8060 O   0  0  0  0  0  0  0  0  0  0  0  0
   10.0710   -2.2270   23.5280 C   0  0  0  0  0  0  0  0  0  0  0  0
    6.2420   -3.4600   20.0700 C   0  0  0  0  0  0  0  0  0  0  0  0
    7.1840   -3.0520   18.9360 C   0  0  0  0  0  0  0  0  0  0  0  0
    8.6570    1.7400   21.4160 O   0  0  0  0  0  0  0  0  0  0  0  0
    8.0080    0.5510   21.9130 C   0  0  0  0  0  0  0  0  0  0  0  0
   12.1480   -0.9150   22.8740 C   0  0  0  0  0  0  0  0  0  0  0  0
   10.8990   -0.9890   23.4880 C   0  0  0  0  0  0  0  0  0  0  0  0
   10.3890    0.1430   24.0810 C   0  0  0  0  0  0  0  0  0  0  0  0
   11.0220    1.3520   24.1050 C   0  0  0  0  0  0  0  0  0  0  0  0
   12.2660    1.4360   23.4950 C   0  0  0  0  0  0  0  0  0  0  0  0
   12.8210    0.3100   22.8920 C   0  0  0  0  0  0  0  0  0  0  0  0
    6.4020   -2.9490   21.3780 N   0  0  0  0  0  0  0  0  0  0  0  0
    6.3280   -1.5290   21.8030 C   0  0  0  0  0  0  0  0  0  0  0  0
    7.5900   -0.8320   21.2790 C   0  0  2  0  0  0  0  0  0  0  0  0
    8.8510   -1.7030   21.5100 C   0  0  0  0  0  0  0  0  0  0  0  0
    8.8850   -2.0940   22.8570 N   0  0  0  0  0  0  0  0  0  0  0  0
    8.0010   -3.0570   23.3540 C   0  0  0  0  0  0  0  0  0  0  0  0
    7.0870   -3.7090   22.3130 C   0  0  0  0  0  0  0  0  0  0  0  0
    6.3150    0.3190   17.8720 N   0  0  0  0  0  0  0  0  0  0  0  0
    7.3170   -0.4950   18.6030 C   0  0  0  0  0  0  0  0  0  0  0  0
    7.0680   -0.3670   20.0780 C   0  0  0  0  0  0  0  0  0  0  0  0
    5.9740    0.4720   20.1620 C   0  0  0  0  0  0  0  0  0  0  0  0
    5.5850    0.8350   18.8630 C   0  0  0  0  0  0  0  0  0  0  0  0
    4.4390    1.7240   18.7000 N   0  0  0  0  0  0  0  0  0  0  0  0
    3.8420    2.1220   19.8270 C   0  0  0  0  0  0  0  0  0  0  0  0
    4.2390    1.7520   21.1200 C   0  0  0  0  0  0  0  0  0  0  0  0
    5.3250    0.9130   21.3180 C   0  0  0  0  0  0  0  0  0  0  0  0
  2  4  2  0
  4  5  1  0
  6  7  2  0
  1  8  1  0
  3  9  1  0
  8  9  2  0
  9 10  1  0
 10 11  2  0
 11 12  1  0
  8 13  1  0
 12 13  2  0
  4 14  1  0
 14 15  1  0
 16  7  1  1
 15 16  1  0
 16 17  1  0
  3 18  1  0
 17 18  1  0
 18 19  1  0
 14 20  1  0
 19 20  1  0
 21 22  1  0
 16 23  1  0
 22 23  2  0
 23 24  1  0
 21 25  1  0
 24 25  2  0
 25 26  1  0
 26 27  2  0
 27 28  1  0
 24 29  1  0
 28 29  2  0
M  END
