x0830-x1348
     RDKit          3D

 32 37  0  0  0  0  0  0  0  0999 V2000
    6.8950   -3.4810   21.2380 N   0  0  0  0  0  0  0  0  0  0  0  0
    8.1950   -5.3180   27.4930 C   0  0  0  0  0  0  0  0  0  0  0  0
    8.0080   -5.0770   26.2820 O   0  0  0  0  0  0  0  0  0  0  0  0
    5.3280   -4.3080   19.7700 O   0  0  0  0  0  0  0  0  0  0  0  0
    6.3860   -3.7300   20.0020 C   0  0  0  0  0  0  0  0  0  0  0  0
    7.3040   -3.2030   18.9320 C   0  0  0  0  0  0  0  0  0  0  0  0
    9.8160   -2.4770   23.8550 C   0  0  0  0  0  0  0  0  0  0  0  0
    6.7380   -5.4620   25.7390 C   0  0  0  0  0  0  0  0  0  0  0  0
    6.4810   -5.2140   24.3190 C   0  0  0  0  0  0  0  0  0  0  0  0
    5.1810   -5.6260   23.9450 C   0  0  0  0  0  0  0  0  0  0  0  0
    4.2150   -6.1240   24.3630 C   0  0  0  0  0  0  0  0  0  0  0  0
    4.3990   -6.4450   25.8670 C   0  0  0  0  0  0  0  0  0  0  0  0
    5.6580   -6.0850   26.4690 C   0  0  0  0  0  0  0  0  0  0  0  0
    7.3750   -4.6180   23.3420 N   0  0  0  0  0  0  0  0  0  0  0  0
    6.4870   -3.9490   22.4230 C   0  0  2  0  0  0  0  0  0  0  0  0
    5.2100   -5.1320   22.2780 S   0  0  0  0  0  0  0  0  0  0  0  0
    6.4920   -2.1770   21.6280 N   0  0  0  0  0  0  0  0  0  0  0  0
    6.3620   -2.7050   22.9720 C   0  0  2  0  0  0  0  0  0  0  0  0
    7.4360   -2.1760   23.6960 C   0  0  0  0  0  0  0  0  0  0  0  0
    8.6240   -2.3790   23.0310 N   0  0  0  0  0  0  0  0  0  0  0  0
    8.8850   -1.7730   21.7830 C   0  0  0  0  0  0  0  0  0  0  0  0
    7.6030   -1.2410   21.6050 C   0  0  0  0  0  0  0  0  0  0  0  0
   12.0550   -2.0410   22.7490 C   0  0  0  0  0  0  0  0  0  0  0  0
   13.0300   -1.1210   22.4070 C   0  0  0  0  0  0  0  0  0  0  0  0
   12.9370    0.2220   22.6870 C   0  0  0  0  0  0  0  0  0  0  0  0
   11.8610    0.8010   23.3270 C   0  0  0  0  0  0  0  0  0  0  0  0
   10.8350   -0.0740   23.7230 C   0  0  0  0  0  0  0  0  0  0  0  0
   10.9220   -1.5560   23.4290 C   0  0  0  0  0  0  0  0  0  0  0  0
   11.7800    2.1520   23.5630 C   0  0  0  0  0  0  0  0  0  0  0  0
   10.5910    2.8220   24.2670 C   0  0  0  0  0  0  0  0  0  0  0  0
    9.5320    1.8530   24.6940 C   0  0  0  0  0  0  0  0  0  0  0  0
    9.6990    0.3930   24.3970 C   0  0  0  0  0  0  0  0  0  0  0  0
  2  3  1  0
  1  5  1  0
  4  5  2  0
  5  6  1  0
  3  8  1  0
  8  9  2  0
  9 10  1  0
 10 11  2  0
 11 12  1  0
  8 13  1  0
 12 13  2  0
  9 14  1  0
  1 15  1  0
 15 14  1  1
 10 16  1  0
 15 16  1  0
  1 17  1  0
 15 18  1  0
 17 18  1  0
 18 19  1  1
  7 20  1  0
 19 20  1  0
 20 21  1  0
 17 22  1  0
 21 22  1  0
 23 24  2  0
 24 25  1  0
 25 26  2  0
 26 27  1  0
  7 28  1  0
 23 28  1  0
 27 28  2  0
 26 29  1  0
 29 30  2  0
 30 31  1  0
 27 32  1  0
 31 32  2  0
M  END
