x0831-x2600
     RDKit          3D

 29 32  0  0  0  0  0  0  0  0999 V2000
   12.7370   -2.0860   22.3950 C   0  0  0  0  0  0  0  0  0  0  0  0
    5.4020   -4.2930   19.7930 O   0  0  0  0  0  0  0  0  0  0  0  0
   10.1230   -1.9050   24.0240 C   0  0  0  0  0  0  0  0  0  0  0  0
    6.2470   -3.4240   20.0320 C   0  0  0  0  0  0  0  0  0  0  0  0
    7.2300   -3.0350   18.9170 C   0  0  0  0  0  0  0  0  0  0  0  0
   13.3130   -1.9520   21.1080 N   0  0  0  0  0  0  0  0  0  0  0  0
    8.5030    0.0380   22.2080 C   0  0  0  0  0  0  0  0  0  0  0  0
    8.7050    1.4180   21.9420 O   0  0  0  0  0  0  0  0  0  0  0  0
    9.0750   -0.8540   23.3830 C   0  0  0  0  0  0  0  0  0  0  0  0
   12.1820   -0.7860   23.0010 C   0  0  0  0  0  0  0  0  0  0  0  0
   10.9850   -0.7640   23.7320 C   0  0  0  0  0  0  0  0  0  0  0  0
   10.5580    0.4640   24.2320 C   0  0  0  0  0  0  0  0  0  0  0  0
   11.2670    1.6230   24.0210 C   0  0  0  0  0  0  0  0  0  0  0  0
   12.4340    1.5640   23.3070 C   0  0  0  0  0  0  0  0  0  0  0  0
   12.9000    0.3770   22.8000 C   0  0  0  0  0  0  0  0  0  0  0  0
    6.2920   -2.8450   21.3150 N   0  0  0  0  0  0  0  0  0  0  0  0
    6.3720   -1.3890   21.5560 C   0  0  1  0  0  0  0  0  0  0  0  0
    7.8240   -0.9680   21.5780 C   0  0  2  0  0  0  0  0  0  0  0  0
    8.7590   -2.0730   21.5150 C   0  0  0  0  0  0  0  0  0  0  0  0
    8.8100   -2.1940   22.9750 C   0  0  1  0  0  0  0  0  0  0  0  0
    7.5810   -2.9040   23.5530 C   0  0  0  0  0  0  0  0  0  0  0  0
    6.9220   -3.7050   22.3680 C   0  0  0  0  0  0  0  0  0  0  0  0
    6.5790    0.6930   17.6230 N   0  0  0  0  0  0  0  0  0  0  0  0
    6.8930   -0.1070   18.7210 C   0  0  0  0  0  0  0  0  0  0  0  0
    6.1250   -0.1980   19.8740 C   0  0  0  0  0  0  0  0  0  0  0  0
    4.8830    0.4740   20.1940 C   0  0  0  0  0  0  0  0  0  0  0  0
    4.6880    1.2480   18.9950 C   0  0  0  0  0  0  0  0  0  0  0  0
    5.3820    1.4080   17.8110 C   0  0  0  0  0  0  0  0  0  0  0  0
    5.1930   -0.3820   21.4000 C   0  0  0  0  0  0  0  0  0  0  0  0
  2  4  2  0
  4  5  1  0
  1  6  3  0
  7  8  2  0
  7  9  1  0
  1 10  1  0
  3 11  1  0
 10 11  2  0
 11 12  1  0
 12 13  2  0
 13 14  1  0
 10 15  1  0
 14 15  2  0
  4 16  1  0
 16 17  1  0
 18  7  1  1
 17 18  1  0
 18 19  1  0
 20  3  1  6
  9 20  1  0
 19 20  1  0
 20 21  1  0
 16 22  1  0
 21 22  1  0
 23 24  2  0
 24 25  1  0
 25 26  2  0
 26 27  1  0
 23 28  1  0
 27 28  2  0
 17 29  1  6
 26 29  1  0
M  END
