x0831-x0354
     RDKit          3D

 30 32  0  0  0  0  0  0  0  0999 V2000
   12.2140   -2.3690   22.7650 C   0  0  0  0  0  0  0  0  0  0  0  0
    5.4160   -4.1660   19.7510 O   0  0  0  0  0  0  0  0  0  0  0  0
   10.0060   -2.1910   23.8600 C   0  0  0  0  0  0  0  0  0  0  0  0
    6.3520   -3.3780   19.9650 C   0  0  0  0  0  0  0  0  0  0  0  0
    7.2900   -3.0180   18.8340 C   0  0  0  0  0  0  0  0  0  0  0  0
   12.2670   -0.8580   22.9820 C   0  0  0  0  0  0  0  0  0  0  0  0
   10.8830   -0.9870   23.6260 C   0  0  0  0  0  0  0  0  0  0  0  0
   10.4700    0.2730   24.0200 C   0  0  0  0  0  0  0  0  0  0  0  0
   11.2570    1.4000   23.8110 C   0  0  0  0  0  0  0  0  0  0  0  0
   12.5070    1.4400   23.2210 C   0  0  0  0  0  0  0  0  0  0  0  0
   13.0560    0.2440   22.7770 C   0  0  0  0  0  0  0  0  0  0  0  0
    6.5930   -2.8450   21.2270 N   0  0  0  0  0  0  0  0  0  0  0  0
    6.4310   -1.4540   21.7020 C   0  0  0  0  0  0  0  0  0  0  0  0
    7.6350   -0.7520   21.5710 C   0  0  0  0  0  0  0  0  0  0  0  0
    8.7690   -1.7760   21.7010 C   0  0  0  0  0  0  0  0  0  0  0  0
    8.8420   -2.2100   23.1180 N   0  0  0  0  0  0  0  0  0  0  0  0
    7.8020   -3.2090   23.4810 C   0  0  2  0  0  0  0  0  0  0  0  0
    7.0810   -3.7890   22.2510 C   0  0  0  0  0  0  0  0  0  0  0  0
    7.1350   -2.0390   25.6330 N   0  0  0  0  0  0  0  0  0  0  0  0
    7.7210   -0.5250   27.7890 O   0  0  0  0  0  0  0  0  0  0  0  0
    8.0580   -0.8910   25.4900 C   0  0  0  0  0  0  0  0  0  0  0  0
    8.5110   -0.1520   26.7300 C   0  0  0  0  0  0  0  0  0  0  0  0
    5.5870    3.7210   30.7230 C   0  0  0  0  0  0  0  0  0  0  0  0
    7.8080    1.6400   28.5740 C   0  0  0  0  0  0  0  0  0  0  0  0
    7.3470    2.7610   29.2880 C   0  0  0  0  0  0  0  0  0  0  0  0
    6.1140    2.6490   29.9840 C   0  0  0  0  0  0  0  0  0  0  0  0
    5.4380    1.4210   29.9060 C   0  0  0  0  0  0  0  0  0  0  0  0
    5.8900    0.3070   29.1990 C   0  0  0  0  0  0  0  0  0  0  0  0
    7.1050    0.4410   28.5280 C   0  0  0  0  0  0  0  0  0  0  0  0
    6.6760   -2.6730   24.3850 C   0  0  0  0  0  0  0  0  0  0  0  0
  2  4  2  0
  4  5  1  0
  1  6  1  0
  3  7  1  0
  6  7  2  0
  7  8  1  0
  8  9  2  0
  9 10  1  0
  6 11  1  0
 10 11  2  0
  4 12  1  0
 12 13  1  0
 13 14  1  0
 14 15  1  0
  3 16  1  0
 15 16  1  0
 16 17  1  0
 12 18  1  0
 17 18  1  0
 19 21  2  3
 20 22  1  0
 21 22  1  0
 24 25  2  0
 23 26  1  0
 25 26  1  0
 26 27  2  0
 27 28  1  0
 20 29  1  0
 24 29  1  0
 28 29  2  0
 17 30  1  1
 19 30  1  0
M  END
