x0830-x2563
     RDKit          3D

 34 39  0  0  0  0  0  0  0  0999 V2000
    7.7450   -3.6550   19.6680 C   0  0  0  0  0  0  0  0  0  0  0  0
    5.6310   -3.0560   19.0780 O   0  0  0  0  0  0  0  0  0  0  0  0
    6.5390   -2.8870   19.9300 C   0  0  0  0  0  0  0  0  0  0  0  0
    9.7410   -2.4880   23.5920 C   0  0  0  0  0  0  0  0  0  0  0  0
    8.6210   -0.3270   21.3540 C   0  0  0  0  0  0  0  0  0  0  0  0
    8.9820    0.7990   21.0090 O   0  0  0  0  0  0  0  0  0  0  0  0
    6.4550   -2.1960   21.1410 N   0  0  0  0  0  0  0  0  0  0  0  0
    6.3010   -2.9120   22.0530 C   0  0  0  0  0  0  0  0  0  0  0  0
    7.6280   -3.3000   22.8070 C   0  0  0  0  0  0  0  0  0  0  0  0
    8.5670   -2.2810   22.8620 N   0  0  0  0  0  0  0  0  0  0  0  0
    8.6730   -1.8280   21.7890 C   0  0  1  0  0  0  0  0  0  0  0  0
    7.4330   -1.2040   21.6850 C   0  0  1  0  0  0  0  0  0  0  0  0
   12.0780   -1.9810   22.6810 C   0  0  0  0  0  0  0  0  0  0  0  0
   13.1010   -1.0700   22.4200 C   0  0  0  0  0  0  0  0  0  0  0  0
   13.0120    0.2890   22.7400 C   0  0  0  0  0  0  0  0  0  0  0  0
   11.8820    0.8150   23.3430 C   0  0  0  0  0  0  0  0  0  0  0  0
   10.7480   -0.1350   23.6710 C   0  0  0  0  0  0  0  0  0  0  0  0
   10.8980   -1.5870   23.2910 C   0  0  0  0  0  0  0  0  0  0  0  0
   11.7410    2.1700   23.6490 C   0  0  0  0  0  0  0  0  0  0  0  0
   10.5050    2.7540   24.3170 C   0  0  0  0  0  0  0  0  0  0  0  0
    9.3730    1.8220   24.6840 C   0  0  0  0  0  0  0  0  0  0  0  0
    9.6130    0.3710   24.3000 C   0  0  0  0  0  0  0  0  0  0  0  0
    6.2910    0.7110   17.5040 N   0  0  0  0  0  0  0  0  0  0  0  0
    5.1820    1.5000   17.9580 C   0  0  0  0  0  0  0  0  0  0  0  0
    4.6640    1.4770   19.2420 C   0  0  0  0  0  0  0  0  0  0  0  0
    5.2860    0.6010   20.1630 C   0  0  0  0  0  0  0  0  0  0  0  0
    6.3630   -0.1700   19.7360 C   0  0  0  0  0  0  0  0  0  0  0  0
    6.9110   -0.1810   18.4820 C   0  0  0  0  0  0  0  0  0  0  0  0
    3.5850    2.2660   19.6350 C   0  0  0  0  0  0  0  0  0  0  0  0
    3.0900    2.2290   20.9170 C   0  0  0  0  0  0  0  0  0  0  0  0
    3.6900    1.3720   21.8370 C   0  0  0  0  0  0  0  0  0  0  0  0
    4.7670    0.5690   21.4640 C   0  0  0  0  0  0  0  0  0  0  0  0
    6.6850   -0.3600   22.6700 C   0  0  0  0  0  0  0  0  0  0  0  0
    5.3140   -0.3300   22.5460 C   0  0  0  0  0  0  0  0  0  0  0  0
  1  3  1  0
  2  3  2  0
  5  6  2  0
  3  7  1  0
  7  8  1  0
  8  9  1  0
  4 10  1  0
  9 10  1  0
 11  5  1  1
 10 11  1  0
  5 12  1  0
  7 12  1  0
 11 12  1  0
 13 14  2  0
 14 15  1  0
 15 16  2  0
 16 17  1  0
  4 18  1  0
 13 18  1  0
 17 18  2  0
 16 19  1  0
 19 20  2  0
 20 21  1  0
 17 22  1  0
 21 22  2  0
 23 24  2  0
 24 25  1  0
 25 26  2  0
 26 27  1  0
 23 28  1  0
 27 28  2  0
 25 29  1  0
 29 30  2  0
 30 31  1  0
 26 32  1  0
 31 32  2  0
 12 33  1  1
 32 34  1  0
 33 34  1  0
M  END
