x0830-x0104
     RDKit          3D

 26 28  0  0  0  0  0  0  0  0999 V2000
    9.0970    6.5780   22.6040 C   0  0  0  0  0  0  0  0  0  0  0  0
   10.3670    6.1410   23.3950 C   0  0  0  0  0  0  0  0  0  0  0  0
   10.4310    6.2240   24.6180 O   0  0  0  0  0  0  0  0  0  0  0  0
   11.3830    5.6680   22.6030 N   0  0  0  0  0  0  0  0  0  0  0  0
   12.4620    4.9770   23.1620 C   0  0  0  0  0  0  0  0  0  0  0  0
   12.7080    3.6080   22.4830 C   0  0  0  0  0  0  0  0  0  0  0  0
   13.8100   -1.9720   22.3830 F   0  0  0  0  0  0  0  0  0  0  0  0
    7.6350   -3.5680   19.5580 C   0  0  0  0  0  0  0  0  0  0  0  0
    5.3890   -3.2070   19.0990 O   0  0  0  0  0  0  0  0  0  0  0  0
    6.3560   -2.8800   19.8110 C   0  0  0  0  0  0  0  0  0  0  0  0
    9.1170   -1.6810   23.7360 C   0  0  0  0  0  0  0  0  0  0  0  0
   11.6220    2.5560   22.8350 C   0  0  0  0  0  0  0  0  0  0  0  0
   10.3520    2.9880   23.1670 C   0  0  0  0  0  0  0  0  0  0  0  0
    9.4590    1.9100   23.4550 N   0  0  0  0  0  0  0  0  0  0  0  0
   10.3140    0.7530   23.2690 C   0  0  0  0  0  0  0  0  0  0  0  0
   11.6710    1.1180   22.8810 C   0  0  0  0  0  0  0  0  0  0  0  0
   10.2770   -1.0220   23.3680 C   0  0  0  0  0  0  0  0  0  0  0  0
   11.5430   -1.7490   23.0320 C   0  0  0  0  0  0  0  0  0  0  0  0
   12.8260   -1.1880   22.6430 C   0  0  0  0  0  0  0  0  0  0  0  0
   12.8850    0.2550   22.5850 C   0  0  0  0  0  0  0  0  0  0  0  0
    6.3680   -1.9830   20.8550 N   0  0  0  0  0  0  0  0  0  0  0  0
    6.0770   -2.4690   22.2250 C   0  0  0  0  0  0  0  0  0  0  0  0
    7.3220   -3.0920   22.8660 C   0  0  0  0  0  0  0  0  0  0  0  0
    8.5730   -2.3060   22.6440 N   0  0  0  0  0  0  0  0  0  0  0  0
    8.6980   -1.5450   21.5320 C   0  0  0  0  0  0  0  0  0  0  0  0
    7.5500   -1.1500   20.8430 C   0  0  0  0  0  0  0  0  0  0  0  0
  1  2  1  0
  2  3  2  0
  2  4  1  0
  4  5  1  0
  5  6  1  0
  8 10  1  0
  9 10  2  0
  6 12  1  0
 12 13  2  0
 13 14  1  0
 14 15  1  0
 12 16  1  0
 15 16  2  0
 11 17  1  0
 15 17  1  0
 17 18  2  0
  7 19  1  0
 18 19  1  0
 16 20  1  0
 19 20  2  0
 10 21  1  0
 21 22  1  0
 22 23  1  0
 11 24  1  0
 23 24  1  0
 24 25  1  0
 21 26  1  0
 25 26  1  0
M  END
