x0831-x1348
     RDKit          3D

 29 32  0  0  0  0  0  0  0  0999 V2000
    6.5310   -4.2110   20.8280 N   0  0  0  0  0  0  0  0  0  0  0  0
    8.1520   -5.2660   27.7730 C   0  0  0  0  0  0  0  0  0  0  0  0
    8.0750   -5.7430   26.4170 O   0  0  0  0  0  0  0  0  0  0  0  0
    5.0040   -3.7320   19.2330 O   0  0  0  0  0  0  0  0  0  0  0  0
    6.1570   -3.7120   19.6240 C   0  0  0  0  0  0  0  0  0  0  0  0
    7.2870   -3.1320   18.8220 C   0  0  0  0  0  0  0  0  0  0  0  0
   12.3040   -2.2820   22.1590 C   0  0  0  0  0  0  0  0  0  0  0  0
    9.5320   -2.0390   23.8160 C   0  0  0  0  0  0  0  0  0  0  0  0
    6.8010   -5.7050   25.9200 C   0  0  0  0  0  0  0  0  0  0  0  0
    6.5370   -5.1500   24.6810 C   0  0  0  0  0  0  0  0  0  0  0  0
    5.2620   -5.0810   24.2060 C   0  0  0  0  0  0  0  0  0  0  0  0
    4.2300   -5.6230   24.9480 C   0  0  0  0  0  0  0  0  0  0  0  0
    4.4240   -6.2220   26.1850 C   0  0  0  0  0  0  0  0  0  0  0  0
    5.7330   -6.2400   26.6610 C   0  0  0  0  0  0  0  0  0  0  0  0
    7.5710   -4.5980   23.7810 N   0  0  0  0  0  0  0  0  0  0  0  0
    6.9050   -3.6140   22.9470 C   0  0  2  0  0  0  0  0  0  0  0  0
    5.2730   -4.2550   22.7120 S   0  0  0  0  0  0  0  0  0  0  0  0
   11.8330   -1.0230   22.8440 C   0  0  0  0  0  0  0  0  0  0  0  0
   10.4700   -0.9610   23.6390 C   0  0  0  0  0  0  0  0  0  0  0  0
   10.1330    0.3830   24.2570 C   0  0  0  0  0  0  0  0  0  0  0  0
   11.0520    1.5770   24.1070 C   0  0  0  0  0  0  0  0  0  0  0  0
   12.3410    1.4540   23.3470 C   0  0  0  0  0  0  0  0  0  0  0  0
   12.6550    0.1000   22.7440 C   0  0  0  0  0  0  0  0  0  0  0  0
    7.1090   -3.2600   21.6030 N   0  0  0  0  0  0  0  0  0  0  0  0
    6.4900   -1.9770   21.2270 C   0  0  0  0  0  0  0  0  0  0  0  0
    7.3500   -0.8790   21.2480 C   0  0  0  0  0  0  0  0  0  0  0  0
    8.5310   -1.3730   21.8220 C   0  0  0  0  0  0  0  0  0  0  0  0
    8.3220   -1.5980   23.2770 N   0  0  0  0  0  0  0  0  0  0  0  0
    7.1450   -2.2580   23.6410 C   0  0  0  0  0  0  0  0  0  0  0  0
  2  3  1  0
  1  5  1  0
  4  5  2  0
  5  6  1  0
  3  9  1  0
  9 10  2  0
 10 11  1  0
 11 12  2  0
 12 13  1  0
  9 14  1  0
 13 14  2  0
 10 15  1  0
 15 16  1  0
 11 17  1  0
 16 17  1  0
  7 18  1  0
  8 19  1  0
 18 19  2  0
 19 20  1  0
 20 21  2  0
 21 22  1  0
 18 23  1  0
 22 23  2  0
  1 24  1  0
 16 24  1  0
 24 25  1  0
 25 26  1  0
 26 27  1  0
  8 28  1  0
 27 28  1  0
 16 29  1  1
 28 29  1  0
M  END
