x0831-x0874
     RDKit          3D

 25 28  0  0  0  0  0  0  0  0999 V2000
    5.5190   -4.3270   19.8700 O   0  0  0  0  0  0  0  0  0  0  0  0
    9.7000   -2.5710   22.9350 C   0  0  0  0  0  0  0  0  0  0  0  0
    6.3840   -3.4570   20.1100 C   0  0  0  0  0  0  0  0  0  0  0  0
    7.2770   -3.0450   18.9450 C   0  0  0  0  0  0  0  0  0  0  0  0
   10.7260   -0.4740   23.9320 C   0  0  2  0  0  0  0  0  0  0  0  0
   10.4850   -1.8420   24.0090 C   0  0  2  0  0  0  0  0  0  0  0  0
   10.1740   -1.2050   22.6780 C   0  0  2  0  0  0  0  0  0  0  0  0
   10.2110    0.2230   22.5210 C   0  0  0  0  0  0  0  0  0  0  0  0
   11.4590    0.6510   22.7660 C   0  0  0  0  0  0  0  0  0  0  0  0
   12.1150   -0.0030   23.6860 C   0  0  0  0  0  0  0  0  0  0  0  0
    6.5560   -2.8480   21.3850 N   0  0  0  0  0  0  0  0  0  0  0  0
    6.2470   -1.4300   21.6190 C   0  0  0  0  0  0  0  0  0  0  0  0
    7.2610   -0.6760   21.0230 C   0  0  0  0  0  0  0  0  0  0  0  0
    8.4920   -1.3050   21.1670 C   0  0  0  0  0  0  0  0  0  0  0  0
    7.9880   -2.4760   23.4280 C   0  0  0  0  0  0  0  0  0  0  0  0
    7.2730   -3.5020   22.4370 C   0  0  0  0  0  0  0  0  0  0  0  0
    9.5010    0.5020   23.7360 C   0  0  0  0  0  0  0  0  0  0  0  0
    8.3000   -0.0470   23.0100 C   0  0  0  0  0  0  0  0  0  0  0  0
    8.6360   -1.3830   22.5190 C   0  0  1  0  0  0  0  0  0  0  0  0
   10.1570    3.7780   22.6040 N   0  0  0  0  0  0  0  0  0  0  0  0
    9.3660    2.5620   22.6620 C   0  0  0  0  0  0  0  0  0  0  0  0
    8.8610    2.1080   21.6130 O   0  0  0  0  0  0  0  0  0  0  0  0
    9.2890    1.9870   23.9670 C   0  0  0  0  0  0  0  0  0  0  0  0
   13.0060   -2.0950   24.0740 C   0  0  0  0  0  0  0  0  0  0  0  0
   12.4540   -0.9580   24.7660 C   0  0  0  0  0  0  0  0  0  0  0  0
  1  3  2  0
  3  4  1  0
  6  2  1  1
  5  6  1  0
  5  7  1  0
  6  7  1  0
  7  8  1  1
  8  9  1  0
  5 10  1  6
  9 10  2  0
  3 11  1  0
 11 12  1  0
 12 13  1  0
 13 14  1  0
 11 16  1  0
 15 16  1  0
  5 17  1  0
 17 18  2  0
  7 19  1  0
 19 14  1  6
 15 19  1  0
 19 18  1  0
 20 21  1  0
 21 22  2  0
 17 23  1  0
 21 23  1  0
 10 25  1  0
 24 25  1  0
M  END
