x0830-x0072
     RDKit          3D

 25 27  0  0  0  0  0  0  0  0999 V2000
    7.7410   -3.6580   19.6590 C   0  0  0  0  0  0  0  0  0  0  0  0
    5.5720   -3.1010   19.0850 O   0  0  0  0  0  0  0  0  0  0  0  0
    6.5400   -2.8500   19.8410 C   0  0  0  0  0  0  0  0  0  0  0  0
    9.4800   -2.6750   23.6180 C   0  0  1  0  0  0  0  0  0  0  0  0
    6.8460   -4.6450   25.3960 C   0  0  0  0  0  0  0  0  0  0  0  0
    8.4490   -4.1690   25.7890 S   0  0  0  0  0  0  0  0  0  0  0  0
    9.2500   -5.3700   25.7410 O   0  0  0  0  0  0  0  0  0  0  0  0
    8.3280   -3.7060   27.1490 O   0  0  0  0  0  0  0  0  0  0  0  0
    8.7070   -2.7070   24.9190 N   0  0  0  0  0  0  0  0  0  0  0  0
    6.6300   -1.9500   20.9130 N   0  0  0  0  0  0  0  0  0  0  0  0
    6.2830   -2.4340   22.1760 C   0  0  0  0  0  0  0  0  0  0  0  0
    7.3840   -3.2010   22.7570 C   0  0  0  0  0  0  0  0  0  0  0  0
    8.5360   -2.5140   22.6620 N   0  0  0  0  0  0  0  0  0  0  0  0
    8.7030   -1.4280   21.6810 C   0  0  0  0  0  0  0  0  0  0  0  0
    7.7620   -1.1940   20.9320 C   0  0  0  0  0  0  0  0  0  0  0  0
   11.7920   -2.0880   22.6750 C   0  0  0  0  0  0  0  0  0  0  0  0
   12.8780   -1.2460   22.3720 C   0  0  0  0  0  0  0  0  0  0  0  0
   12.7790    0.0760   22.7440 C   0  0  0  0  0  0  0  0  0  0  0  0
   11.6740    0.5690   23.3810 C   0  0  0  0  0  0  0  0  0  0  0  0
   10.5860   -0.2810   23.7030 C   0  0  0  0  0  0  0  0  0  0  0  0
   10.6240   -1.6400   23.3460 C   0  0  0  0  0  0  0  0  0  0  0  0
   11.5900    1.8860   23.7090 C   0  0  0  0  0  0  0  0  0  0  0  0
   10.4770    2.4070   24.3490 C   0  0  0  0  0  0  0  0  0  0  0  0
    9.4240    1.5780   24.6890 C   0  0  0  0  0  0  0  0  0  0  0  0
    9.4730    0.2390   24.3690 C   0  0  0  0  0  0  0  0  0  0  0  0
  1  3  1  0
  2  3  2  0
  5  6  1  0
  6  7  2  0
  6  8  2  0
  4  9  1  1
  6  9  1  0
  3 10  1  0
 10 11  1  0
 11 12  1  0
  4 13  1  0
 12 13  1  0
 13 14  1  0
 10 15  1  0
 14 15  1  0
 16 17  2  0
 17 18  1  0
 18 19  2  0
 19 20  1  0
  4 21  1  0
 16 21  1  0
 20 21  2  0
 19 22  1  0
 22 23  2  0
 23 24  1  0
 20 25  1  0
 24 25  2  0
M  END
