x0830-x1336
     RDKit          3D

 30 33  0  0  0  0  0  0  0  0999 V2000
    5.9290   -4.6470   28.9650 C   0  0  0  0  0  0  0  0  0  0  0  0
    9.0210   -1.4180   24.9360 N   0  0  0  0  0  0  0  0  0  0  0  0
    6.5510   -0.9340   25.8590 O   0  0  0  0  0  0  0  0  0  0  0  0
    5.3740   -4.1750   19.7480 O   0  0  0  0  0  0  0  0  0  0  0  0
    9.5550   -3.9210   24.8160 C   0  0  0  0  0  0  0  0  0  0  0  0
    6.4360   -3.5930   20.0010 C   0  0  0  0  0  0  0  0  0  0  0  0
    7.3060   -3.1020   18.8760 C   0  0  0  0  0  0  0  0  0  0  0  0
    7.4140   -1.9330   25.2660 S   0  0  2  0  0  0  0  0  0  0  0  0
    7.1140   -4.9430   28.0450 C   0  0  0  0  0  0  0  0  0  0  0  0
    6.7540   -3.6740   27.3340 C   0  0  0  0  0  0  0  0  0  0  0  0
    7.5640   -3.3380   26.2590 C   0  0  0  0  0  0  0  0  0  0  0  0
    8.6360   -4.2080   25.9340 C   0  0  0  0  0  0  0  0  0  0  0  0
    8.9040   -5.4020   26.6690 C   0  0  0  0  0  0  0  0  0  0  0  0
    8.1270   -5.7980   27.7650 C   0  0  0  0  0  0  0  0  0  0  0  0
    6.9120   -3.4000   21.2810 N   0  0  0  0  0  0  0  0  0  0  0  0
    6.4420   -4.2200   22.4320 C   0  0  0  0  0  0  0  0  0  0  0  0
    5.9860   -3.3360   23.4150 C   0  0  0  0  0  0  0  0  0  0  0  0
    7.0250   -2.3410   23.6960 N   0  0  0  0  0  0  0  0  0  0  0  0
    7.4120   -1.5050   22.7030 C   0  0  0  0  0  0  0  0  0  0  0  0
    7.9330   -2.3890   21.5750 C   0  0  0  0  0  0  0  0  0  0  0  0
   12.2200   -1.8950   22.4730 C   0  0  0  0  0  0  0  0  0  0  0  0
   13.0940   -0.7300   22.1420 C   0  0  0  0  0  0  0  0  0  0  0  0
   12.7320    0.6460   22.6500 C   0  0  0  0  0  0  0  0  0  0  0  0
   11.4880    0.8590   23.4910 C   0  0  0  0  0  0  0  0  0  0  0  0
   10.7240   -0.2770   23.8130 C   0  0  0  0  0  0  0  0  0  0  0  0
   11.0450   -1.5750   23.3270 C   0  0  0  0  0  0  0  0  0  0  0  0
   11.0980    2.1140   23.9340 C   0  0  0  0  0  0  0  0  0  0  0  0
    9.9460    2.1890   24.7040 C   0  0  0  0  0  0  0  0  0  0  0  0
    9.2110    1.0760   25.0730 C   0  0  0  0  0  0  0  0  0  0  0  0
    9.6050   -0.1680   24.6360 C   0  0  0  0  0  0  0  0  0  0  0  0
  4  6  2  0
  6  7  1  0
  2  8  2  0
  3  8  2  0
  1  9  1  0
  9 10  2  0
  8 11  1  1
 10 11  1  0
  5 12  1  0
 11 12  2  0
 12 13  1  0
  9 14  1  0
 13 14  2  0
  6 15  1  0
 15 16  1  0
 16 17  1  0
  8 18  1  0
 17 18  1  0
 18 19  1  0
 15 20  1  0
 19 20  1  0
 21 22  2  0
 22 23  1  0
 23 24  2  0
 24 25  1  0
 21 26  1  0
 25 26  2  0
 24 27  1  0
 27 28  2  0
 28 29  1  0
  2 30  1  0
 25 30  1  0
 29 30  2  0
M  END
