x0830-x2908
     RDKit          3D

 31 35  0  0  0  0  0  0  0  0999 V2000
    7.6760   -3.7540   19.7130 C   0  0  0  0  0  0  0  0  0  0  0  0
    5.4630   -3.2830   19.2480 O   0  0  0  0  0  0  0  0  0  0  0  0
    6.4470   -3.0090   19.9730 C   0  0  0  0  0  0  0  0  0  0  0  0
    9.7330   -2.4970   23.5560 C   0  0  0  0  0  0  0  0  0  0  0  0
   13.2760   -2.3530   21.5850 Cl  0  0  0  0  0  0  0  0  0  0  0  0
    8.6200    0.9070   22.5370 O   0  0  0  0  0  0  0  0  0  0  0  0
    8.5420   -0.4030   21.9750 C   0  0  0  0  0  0  0  0  0  0  0  0
    6.5380   -2.1360   21.0380 N   0  0  0  0  0  0  0  0  0  0  0  0
    6.3320   -2.6230   22.0700 C   0  0  0  0  0  0  0  0  0  0  0  0
    7.4300   -2.4100   23.1260 C   0  0  0  0  0  0  0  0  0  0  0  0
    8.6920   -2.5580   22.6310 N   0  0  0  0  0  0  0  0  0  0  0  0
    8.8910   -1.8610   21.7000 C   0  0  1  0  0  0  0  0  0  0  0  0
    7.7910   -1.3140   20.9960 C   0  0  2  0  0  0  0  0  0  0  0  0
   11.8940   -2.0320   22.4640 C   0  0  0  0  0  0  0  0  0  0  0  0
   12.7470   -0.8850   22.2960 C   0  0  0  0  0  0  0  0  0  0  0  0
   12.6370    0.4390   22.6890 C   0  0  0  0  0  0  0  0  0  0  0  0
   11.5910    0.9300   23.3590 C   0  0  0  0  0  0  0  0  0  0  0  0
   10.5870   -0.1150   23.6860 C   0  0  0  0  0  0  0  0  0  0  0  0
   10.8240   -1.5280   23.2090 C   0  0  0  0  0  0  0  0  0  0  0  0
   11.4250    2.2620   23.7070 C   0  0  0  0  0  0  0  0  0  0  0  0
   10.1780    2.6810   24.4460 C   0  0  0  0  0  0  0  0  0  0  0  0
    9.1470    1.6530   24.8380 C   0  0  0  0  0  0  0  0  0  0  0  0
    9.4450    0.2350   24.4040 C   0  0  0  0  0  0  0  0  0  0  0  0
    4.3930    1.6720   21.3040 C   0  0  0  0  0  0  0  0  0  0  0  0
    6.3070    0.4810   17.8890 N   0  0  0  0  0  0  0  0  0  0  0  0
    7.0740    0.0780   18.9540 C   0  0  0  0  0  0  0  0  0  0  0  0
    6.1950    0.6140   19.9930 C   0  0  0  0  0  0  0  0  0  0  0  0
    4.9920    1.3000   19.9900 C   0  0  0  0  0  0  0  0  0  0  0  0
    4.3860    1.6230   18.8620 C   0  0  0  0  0  0  0  0  0  0  0  0
    5.0760    1.2010   17.8170 C   0  0  0  0  0  0  0  0  0  0  0  0
    7.4490   -0.0690   20.2800 C   0  0  0  0  0  0  0  0  0  0  0  0
  1  3  1  0
  2  3  2  0
  6  7  2  0
  3  8  1  0
  8  9  1  0
  9 10  1  0
  4 11  1  0
 10 11  1  0
 12  7  1  1
 11 12  1  0
  7 13  1  0
  8 13  1  0
 12 13  1  0
  5 14  1  0
 14 15  2  0
 15 16  1  0
 16 17  2  0
 17 18  1  0
  4 19  1  0
 14 19  1  0
 18 19  2  0
 17 20  1  0
 20 21  2  0
 21 22  1  0
 18 23  1  0
 22 23  2  0
 25 26  2  0
 26 27  1  0
 24 28  1  0
 27 28  2  0
 28 29  1  0
 25 30  1  0
 29 30  2  0
 13 31  1  6
 26 31  1  0
M  END
