x0831-x2572
     RDKit          3D

 30 33  0  0  0  0  0  0  0  0999 V2000
    4.2430    1.5640   21.5660 C   0  0  0  0  0  0  0  0  0  0  0  0
    6.1210    0.4570   18.2470 N   0  0  0  0  0  0  0  0  0  0  0  0
    7.1440   -0.1290   19.0580 C   0  0  0  0  0  0  0  0  0  0  0  0
    6.2340    0.4180   20.2410 C   0  0  0  0  0  0  0  0  0  0  0  0
    4.8550    1.2090   20.2540 C   0  0  0  0  0  0  0  0  0  0  0  0
    4.2440    1.5550   19.0590 C   0  0  0  0  0  0  0  0  0  0  0  0
    5.0010    1.1100   17.8950 C   0  0  0  0  0  0  0  0  0  0  0  0
    7.9860    1.3470   22.3800 O   0  0  0  0  0  0  0  0  0  0  0  0
   13.6380   -2.9740   20.6320 N   0  0  0  0  0  0  0  0  0  0  0  0
    7.9990   -0.0230   22.3440 C   0  0  0  0  0  0  0  0  0  0  0  0
    8.6810   -0.6290   23.3880 C   0  0  2  0  0  0  0  0  0  0  0  0
   13.0040   -1.9790   21.4580 C   0  0  0  0  0  0  0  0  0  0  0  0
    5.3790   -4.5420   19.8980 O   0  0  0  0  0  0  0  0  0  0  0  0
    9.6440   -2.9070   23.5980 C   0  0  0  0  0  0  0  0  0  0  0  0
    6.1230   -3.5960   20.1570 C   0  0  0  0  0  0  0  0  0  0  0  0
    7.0440   -3.0900   19.0300 C   0  0  0  0  0  0  0  0  0  0  0  0
   10.5660    0.7500   23.8710 C   0  0  0  0  0  0  0  0  0  0  0  0
   12.0540    1.0430   23.7060 C   0  0  0  0  0  0  0  0  0  0  0  0
   12.8920    0.1270   22.8980 C   0  0  0  0  0  0  0  0  0  0  0  0
   12.2810   -1.0770   22.2380 C   0  0  0  0  0  0  0  0  0  0  0  0
   10.7980   -1.3340   22.4130 C   0  0  0  0  0  0  0  0  0  0  0  0
    9.9640   -0.3550   23.2730 C   0  0  0  0  0  0  0  0  0  0  0  0
    6.1120   -2.9890   21.4300 N   0  0  0  0  0  0  0  0  0  0  0  0
    6.1790   -1.5470   21.4100 C   0  0  0  0  0  0  0  0  0  0  0  0
    7.5130   -1.1210   21.4220 C   0  0  2  0  0  0  0  0  0  0  0  0
    8.3760   -2.2010   21.7470 C   0  0  0  0  0  0  0  0  0  0  0  0
    8.4360   -2.1010   23.0920 C   0  0  2  0  0  0  0  0  0  0  0  0
    7.3270   -2.7480   23.6290 C   0  0  0  0  0  0  0  0  0  0  0  0
    6.7480   -3.5800   22.6250 C   0  0  0  0  0  0  0  0  0  0  0  0
    7.9060   -0.5360   20.2760 C   0  0  0  0  0  0  0  0  0  0  0  0
  2  3  2  0
  3  4  1  0
  1  5  1  0
  4  5  2  0
  5  6  1  0
  2  7  1  0
  6  7  2  0
  8 10  2  0
 10 11  1  0
  9 12  3  0
 13 15  2  0
 15 16  1  0
 17 18  2  0
 18 19  1  0
 12 20  1  0
 19 20  2  0
 20 21  1  0
 11 22  1  6
 17 22  1  0
 21 22  2  0
 15 23  1  0
 23 24  1  0
 10 25  1  0
 24 25  1  0
 25 26  1  0
 11 27  1  0
 27 14  1  1
 26 27  1  0
 27 28  1  0
 23 29  1  0
 28 29  1  0
  3 30  1  0
 25 30  1  6
M  END
