x0831-x1493
     RDKit          3D

 27 29  0  0  0  0  0  0  0  0999 V2000
   12.7470   -2.0450   22.2540 C   0  0  0  0  0  0  0  0  0  0  0  0
    5.4460   -4.2240   19.7890 O   0  0  0  0  0  0  0  0  0  0  0  0
    9.9930   -2.0300   23.5760 C   0  0  0  0  0  0  0  0  0  0  0  0
    6.3900   -3.4510   20.0220 C   0  0  0  0  0  0  0  0  0  0  0  0
    7.3130   -3.0490   18.8830 C   0  0  0  0  0  0  0  0  0  0  0  0
    3.9580   -6.1490   25.9160 C   0  0  0  0  0  0  0  0  0  0  0  0
    6.4100   -6.0850   26.4700 O   0  0  0  0  0  0  0  0  0  0  0  0
    5.4060   -5.8530   25.5280 C   0  0  0  0  0  0  0  0  0  0  0  0
   12.1360   -0.8030   22.9090 C   0  0  0  0  0  0  0  0  0  0  0  0
   10.8830   -0.8720   23.4920 C   0  0  0  0  0  0  0  0  0  0  0  0
   10.4260    0.3000   24.0400 C   0  0  0  0  0  0  0  0  0  0  0  0
   11.0830    1.5080   24.0530 C   0  0  0  0  0  0  0  0  0  0  0  0
   12.3380    1.5290   23.4540 C   0  0  0  0  0  0  0  0  0  0  0  0
   12.8650    0.3760   22.8880 C   0  0  0  0  0  0  0  0  0  0  0  0
    6.6410   -2.9620   21.3060 N   0  0  0  0  0  0  0  0  0  0  0  0
    6.2950   -1.5540   21.5450 C   0  0  0  0  0  0  0  0  0  0  0  0
    7.5280   -0.6560   21.2260 C   0  0  0  0  0  0  0  0  0  0  0  0
    8.7980   -1.3410   21.7260 C   0  0  0  0  0  0  0  0  0  0  0  0
    8.7300   -1.6940   23.1700 N   0  0  0  0  0  0  0  0  0  0  0  0
    7.8230   -2.7770   23.5010 C   0  0  0  0  0  0  0  0  0  0  0  0
    7.6750   -3.5370   22.2140 C   0  0  1  0  0  0  0  0  0  0  0  0
    5.5930   -5.3590   24.1370 N   0  0  0  0  0  0  0  0  0  0  0  0
    6.8640   -5.0100   23.8750 C   0  0  0  0  0  0  0  0  0  0  0  0
    7.3180   -4.9360   22.5530 C   0  0  1  0  0  0  0  0  0  0  0  0
    6.2640   -5.2510   21.5830 N   0  0  0  0  0  0  0  0  0  0  0  0
    5.7180   -6.3840   21.9760 C   0  0  0  0  0  0  0  0  0  0  0  0
    5.0150   -6.0740   23.1620 C   0  0  0  0  0  0  0  0  0  0  0  0
  2  4  2  0
  4  5  1  0
  6  8  1  0
  7  8  2  0
  1  9  1  0
  3 10  1  0
  9 10  2  0
 10 11  1  0
 11 12  2  0
 12 13  1  0
  9 14  1  0
 13 14  2  0
  4 15  1  0
 15 16  1  0
 16 17  1  0
 17 18  1  0
  3 19  1  0
 18 19  1  0
 19 20  1  0
 15 21  1  0
 21 20  1  1
  8 22  1  0
 22 23  1  0
 21 24  1  0
 24 23  1  1
 24 25  1  0
 25 26  1  0
 22 27  1  0
 26 27  1  0
M  END
