x0831-x0540
     RDKit          3D

 37 40  0  0  0  0  0  0  0  0999 V2000
   12.6960   -2.1990   22.4680 C   0  0  0  0  0  0  0  0  0  0  0  0
    5.4150   -4.2070   19.8280 O   0  0  0  0  0  0  0  0  0  0  0  0
   10.1510   -2.2790   23.8710 C   0  0  0  0  0  0  0  0  0  0  0  0
    6.2940   -3.3560   20.0920 C   0  0  0  0  0  0  0  0  0  0  0  0
    7.2060   -2.9870   18.9350 C   0  0  0  0  0  0  0  0  0  0  0  0
    2.6610    1.5120   24.6290 O   0  0  0  0  0  0  0  0  0  0  0  0
    2.7910    2.3000   23.4470 C   0  0  0  0  0  0  0  0  0  0  0  0
    3.8190    2.0630   22.5290 N   0  0  0  0  0  0  0  0  0  0  0  0
    4.7200    0.9490   22.6640 C   0  0  0  0  0  0  0  0  0  0  0  0
    4.6290   -0.1460   21.7690 C   0  0  0  0  0  0  0  0  0  0  0  0
    2.0500    3.1760   23.1880 N   0  0  0  0  0  0  0  0  0  0  0  0
    5.8230   -0.4910   21.1410 C   0  0  1  0  0  0  0  0  0  0  0  0
   12.1150   -0.9340   23.0420 C   0  0  0  0  0  0  0  0  0  0  0  0
   10.8880   -0.9410   23.7230 C   0  0  0  0  0  0  0  0  0  0  0  0
   10.3250    0.2080   24.2510 C   0  0  0  0  0  0  0  0  0  0  0  0
   10.8940    1.4600   24.1610 C   0  0  0  0  0  0  0  0  0  0  0  0
   12.2380    1.5620   23.4370 C   0  0  0  0  0  0  0  0  0  0  0  0
   12.8230    0.2530   22.8740 C   0  0  0  0  0  0  0  0  0  0  0  0
    6.4860   -2.8030   21.4030 N   0  0  0  0  0  0  0  0  0  0  0  0
    6.7220   -1.4380   21.6310 C   0  0  1  0  0  0  0  0  0  0  0  0
    8.1340   -1.0940   21.1930 C   0  0  0  0  0  0  0  0  0  0  0  0
    9.1970   -1.9900   21.7170 C   0  0  0  0  0  0  0  0  0  0  0  0
    8.8950   -2.2300   23.1290 N   0  0  0  0  0  0  0  0  0  0  0  0
    7.9660   -3.2000   23.3860 C   0  0  0  0  0  0  0  0  0  0  0  0
    7.1000   -3.7010   22.3840 C   0  0  0  0  0  0  0  0  0  0  0  0
    5.8900   -0.6330   19.6350 C   0  0  0  0  0  0  0  0  0  0  0  0
    5.8630   -0.5050   18.2280 C   0  0  0  0  0  0  0  0  0  0  0  0
    5.5000    0.5590   17.4990 N   0  0  0  0  0  0  0  0  0  0  0  0
    5.0210    1.8350   17.9180 C   0  0  0  0  0  0  0  0  0  0  0  0
    5.0160    1.7730   19.2710 C   0  0  0  0  0  0  0  0  0  0  0  0
    5.4130    0.6610   20.0030 C   0  0  0  0  0  0  0  0  0  0  0  0
    0.6760    4.6110   24.4450 C   0  0  0  0  0  0  0  0  0  0  0  0
   -0.5380    4.9280   25.0700 C   0  0  0  0  0  0  0  0  0  0  0  0
   -1.6570    4.4880   24.3730 C   0  0  0  0  0  0  0  0  0  0  0  0
   -1.5850    3.2310   23.7800 C   0  0  0  0  0  0  0  0  0  0  0  0
   -0.3730    2.9710   23.1390 C   0  0  0  0  0  0  0  0  0  0  0  0
    0.7900    3.3370   23.8390 C   0  0  0  0  0  0  0  0  0  0  0  0
  2  4  2  0
  4  5  1  0
  6  7  2  0
  7  8  1  0
  8  9  1  0
  9 10  1  0
  7 11  1  0
 12 10  1  1
  1 13  1  0
  3 14  1  0
 13 14  2  0
 14 15  1  0
 15 16  2  0
 16 17  1  0
 13 18  1  0
 17 18  2  0
  4 19  1  0
 12 20  1  0
 19 20  1  0
 20 21  1  6
 21 22  1  0
  3 23  1  0
 22 23  1  0
 23 24  1  0
 19 25  1  0
 24 25  1  0
 12 26  1  0
 26 27  2  0
 27 28  1  0
 28 29  2  0
 29 30  1  0
 26 31  1  0
 30 31  2  0
 32 33  1  0
 33 34  1  0
 34 35  1  0
 35 36  1  0
 11 37  1  0
 32 37  1  0
 36 37  1  0
M  END
