x0830-x1093
     RDKit          3D

 32 36  0  0  0  0  0  0  0  0999 V2000
    7.6160   -3.6650   19.7300 C   0  0  0  0  0  0  0  0  0  0  0  0
    5.3660   -3.3960   19.4160 O   0  0  0  0  0  0  0  0  0  0  0  0
    6.3400   -3.0610   20.1510 C   0  0  0  0  0  0  0  0  0  0  0  0
    9.9420   -2.5300   23.4940 C   0  0  0  0  0  0  0  0  0  0  0  0
   12.2110   -0.2400   23.0820 C   0  0  0  0  0  0  0  0  0  0  0  0
    7.9890    0.8340   22.1610 O   0  0  0  0  0  0  0  0  0  0  0  0
    7.4420   -0.2810   22.2050 C   0  0  0  0  0  0  0  0  0  0  0  0
    6.3840   -2.2570   21.3220 N   0  0  0  0  0  0  0  0  0  0  0  0
    6.4940   -2.8930   22.5450 C   0  0  0  0  0  0  0  0  0  0  0  0
    7.8320   -3.4710   22.7850 C   0  0  0  0  0  0  0  0  0  0  0  0
    8.6990   -2.4080   22.7050 N   0  0  0  0  0  0  0  0  0  0  0  0
    8.8540   -1.8900   21.4320 C   0  0  0  0  0  0  0  0  0  0  0  0
    7.4540   -1.2920   21.2330 C   0  0  2  0  0  0  0  0  0  0  0  0
   12.1760   -1.7250   22.7360 C   0  0  0  0  0  0  0  0  0  0  0  0
   13.3010   -1.1250   22.3830 C   0  0  0  0  0  0  0  0  0  0  0  0
   13.1790    0.2190   22.7260 C   0  0  0  0  0  0  0  0  0  0  0  0
   11.9770    0.7120   23.3400 C   0  0  0  0  0  0  0  0  0  0  0  0
   10.8670   -0.1510   23.6500 C   0  0  0  0  0  0  0  0  0  0  0  0
   10.9660   -1.4970   23.3100 C   0  0  0  0  0  0  0  0  0  0  0  0
   11.7920    2.0300   23.6610 C   0  0  0  0  0  0  0  0  0  0  0  0
   10.6500    2.5460   24.2460 C   0  0  0  0  0  0  0  0  0  0  0  0
    9.6170    1.6920   24.5560 C   0  0  0  0  0  0  0  0  0  0  0  0
    9.7140    0.3540   24.2630 C   0  0  0  0  0  0  0  0  0  0  0  0
    6.5240    0.2210   17.8270 N   0  0  0  0  0  0  0  0  0  0  0  0
    7.3200   -0.6550   18.6510 C   0  0  0  0  0  0  0  0  0  0  0  0
    6.9420   -0.5270   20.0780 C   0  0  0  0  0  0  0  0  0  0  0  0
    5.8410    0.4970   20.1150 C   0  0  0  0  0  0  0  0  0  0  0  0
    5.5520    0.9520   18.6770 C   0  0  0  0  0  0  0  0  0  0  0  0
    4.5720    1.8430   18.3940 N   0  0  0  0  0  0  0  0  0  0  0  0
    3.8530    2.3720   19.5560 C   0  0  0  0  0  0  0  0  0  0  0  0
    4.1720    1.9140   20.9830 C   0  0  0  0  0  0  0  0  0  0  0  0
    5.1600    0.9780   21.2290 C   0  0  0  0  0  0  0  0  0  0  0  0
  1  3  1  0
  2  3  2  0
  6  7  2  0
  3  8  1  0
  8  9  1  0
  9 10  1  0
  4 11  1  0
 10 11  1  0
 11 12  1  0
 13  7  1  1
  8 13  1  0
 12 13  1  0
  5 14  1  0
 14 15  2  0
 15 16  1  0
 16 17  2  0
 17 18  1  0
  4 19  1  0
 14 19  1  0
 18 19  2  0
 17 20  1  0
 20 21  2  0
 21 22  1  0
 18 23  1  0
 22 23  2  0
 24 25  1  0
 13 26  1  0
 25 26  2  0
 26 27  1  0
 24 28  2  0
 27 28  1  0
 28 29  1  0
 29 30  1  0
 30 31  2  0
 27 32  2  0
 31 32  1  0
M  END
