x0830-x0978
     RDKit          3D

 33 35  0  0  0  0  0  0  0  0999 V2000
    1.9320   -5.5350   23.5030 N   0  0  0  0  0  0  0  0  0  0  0  0
    2.1460   -8.0410   24.2800 C   0  0  0  0  0  0  0  0  0  0  0  0
    4.4210   -7.6960   24.6760 O   0  0  0  0  0  0  0  0  0  0  0  0
    3.3400   -7.1610   24.5340 C   0  0  1  0  0  0  0  0  0  0  0  0
    5.4350   -6.1650   22.3720 N   0  0  0  0  0  0  0  0  0  0  0  0
    1.0650   -7.2280   22.0540 O   0  0  0  0  0  0  0  0  0  0  0  0
    3.1100   -6.4140   23.4040 C   0  0  2  0  0  0  0  0  0  0  0  0
    4.3470   -4.3290   23.3860 O   0  0  0  0  0  0  0  0  0  0  0  0
    0.8690   -6.1680   22.6450 C   0  0  0  0  0  0  0  0  0  0  0  0
   -0.4610   -5.4260   22.5450 C   0  0  0  0  0  0  0  0  0  0  0  0
    4.3210   -5.5170   23.0720 C   0  0  0  0  0  0  0  0  0  0  0  0
    6.3080   -5.4570   21.3560 C   0  0  0  0  0  0  0  0  0  0  0  0
    7.3380   -3.0520   18.8700 C   0  0  0  0  0  0  0  0  0  0  0  0
    5.1860   -3.5900   19.4530 O   0  0  0  0  0  0  0  0  0  0  0  0
    6.2620   -3.1970   19.8800 C   0  0  0  0  0  0  0  0  0  0  0  0
    9.5220   -2.2850   24.0000 C   0  0  0  0  0  0  0  0  0  0  0  0
    6.9650   -4.2970   21.8860 C   0  0  0  0  0  0  0  0  0  0  0  0
    6.7180   -3.0080   21.3560 C   0  0  0  0  0  0  0  0  0  0  0  0
    6.2610   -2.1890   22.3310 C   0  0  0  0  0  0  0  0  0  0  0  0
    7.1840   -2.3030   23.4320 C   0  0  0  0  0  0  0  0  0  0  0  0
    8.4850   -1.9620   23.1330 N   0  0  0  0  0  0  0  0  0  0  0  0
    8.9510   -2.3010   21.7980 C   0  0  0  0  0  0  0  0  0  0  0  0
    7.8900   -2.0210   21.0240 C   0  0  0  0  0  0  0  0  0  0  0  0
   11.9870   -2.0680   22.9580 C   0  0  0  0  0  0  0  0  0  0  0  0
   13.0410   -1.2100   22.6100 C   0  0  0  0  0  0  0  0  0  0  0  0
   13.0510    0.1740   22.7920 C   0  0  0  0  0  0  0  0  0  0  0  0
   11.9430    0.7720   23.3620 C   0  0  0  0  0  0  0  0  0  0  0  0
   10.7180   -0.0110   23.8140 C   0  0  0  0  0  0  0  0  0  0  0  0
   10.7230   -1.4910   23.6020 C   0  0  0  0  0  0  0  0  0  0  0  0
   11.8840    2.1190   23.5440 C   0  0  0  0  0  0  0  0  0  0  0  0
   10.6800    2.7710   24.1610 C   0  0  0  0  0  0  0  0  0  0  0  0
    9.4980    1.9250   24.6100 C   0  0  0  0  0  0  0  0  0  0  0  0
    9.5950    0.5680   24.4030 C   0  0  0  0  0  0  0  0  0  0  0  0
  4  2  1  6
  3  4  1  0
  7  1  1  1
  4  7  1  0
  1  9  1  0
  6  9  2  0
  9 10  1  0
  5 11  1  0
  7 11  1  0
  8 11  2  0
  5 12  1  0
 13 15  1  0
 14 15  2  0
 12 17  1  0
 18 15  1  0
 17 18  1  0
 18 19  1  0
 19 20  1  0
 16 21  1  0
 20 21  1  0
 21 22  1  0
 18 23  1  0
 22 23  1  0
 24 25  2  0
 25 26  1  0
 26 27  2  0
 27 28  1  0
 16 29  1  0
 24 29  1  0
 28 29  2  0
 27 30  1  0
 30 31  2  0
 31 32  1  0
 28 33  1  0
 32 33  2  0
M  END
