x0830-x2600
     RDKit          3D

 32 36  0  0  0  0  0  0  0  0999 V2000
    7.5550   -3.6560   19.6700 C   0  0  0  0  0  0  0  0  0  0  0  0
    5.2950   -3.4230   19.3790 O   0  0  0  0  0  0  0  0  0  0  0  0
    6.2720   -3.0740   20.0850 C   0  0  0  0  0  0  0  0  0  0  0  0
    9.7240   -2.4210   23.6460 C   0  0  0  0  0  0  0  0  0  0  0  0
    7.4760   -0.1980   22.2420 C   0  0  0  0  0  0  0  0  0  0  0  0
    7.2340    0.9990   22.0720 O   0  0  0  0  0  0  0  0  0  0  0  0
    7.8710   -0.8840   23.3790 C   0  0  0  0  0  0  0  0  0  0  0  0
   13.8540   -1.8010   20.6460 N   0  0  0  0  0  0  0  0  0  0  0  0
   12.9290   -1.9770   21.6570 C   0  0  0  0  0  0  0  0  0  0  0  0
    6.3170   -2.2640   21.2320 N   0  0  0  0  0  0  0  0  0  0  0  0
    6.2090   -2.8430   22.2820 C   0  0  0  0  0  0  0  0  0  0  0  0
    7.4530   -3.1510   22.9100 C   0  0  0  0  0  0  0  0  0  0  0  0
    8.4340   -2.1980   22.8170 C   0  0  2  0  0  0  0  0  0  0  0  0
    8.6870   -2.0050   21.4980 C   0  0  0  0  0  0  0  0  0  0  0  0
    7.5010   -1.3420   21.2090 C   0  0  2  0  0  0  0  0  0  0  0  0
   11.8160   -1.9070   22.4360 C   0  0  0  0  0  0  0  0  0  0  0  0
   12.6710   -0.6180   22.2800 C   0  0  0  0  0  0  0  0  0  0  0  0
   12.5430    0.8020   22.7680 C   0  0  0  0  0  0  0  0  0  0  0  0
   11.3830    1.1110   23.5540 C   0  0  0  0  0  0  0  0  0  0  0  0
   10.4880   -0.0440   23.8390 C   0  0  0  0  0  0  0  0  0  0  0  0
   10.7740   -1.4380   23.2710 C   0  0  0  0  0  0  0  0  0  0  0  0
   11.1340    2.3260   23.9740 C   0  0  0  0  0  0  0  0  0  0  0  0
   10.0010    2.5750   24.7220 C   0  0  0  0  0  0  0  0  0  0  0  0
    9.1280    1.5170   25.0620 C   0  0  0  0  0  0  0  0  0  0  0  0
    9.3810    0.1980   24.6170 C   0  0  0  0  0  0  0  0  0  0  0  0
    6.0010    0.2420   17.9940 N   0  0  0  0  0  0  0  0  0  0  0  0
    6.9110   -0.2460   18.8880 C   0  0  0  0  0  0  0  0  0  0  0  0
    6.4960    0.5410   20.0080 C   0  0  0  0  0  0  0  0  0  0  0  0
    5.4930    1.4850   20.1350 C   0  0  0  0  0  0  0  0  0  0  0  0
    4.6950    1.8440   19.1380 C   0  0  0  0  0  0  0  0  0  0  0  0
    4.9830    1.1810   18.0170 C   0  0  0  0  0  0  0  0  0  0  0  0
    7.7060   -0.5500   19.9670 C   0  0  0  0  0  0  0  0  0  0  0  0
  1  3  1  0
  2  3  2  0
  5  6  2  0
  5  7  1  0
  8  9  3  0
  3 10  1  0
 10 11  1  0
 11 12  1  0
 13  4  1  1
  7 13  1  0
 12 13  1  0
 13 14  1  0
  5 15  1  0
 10 15  1  0
 14 15  1  0
  9 16  1  0
 16 17  2  0
 17 18  1  0
 18 19  2  0
 19 20  1  0
  4 21  1  0
 16 21  1  0
 20 21  2  0
 19 22  1  0
 22 23  2  0
 23 24  1  0
 20 25  1  0
 24 25  2  0
 26 27  2  0
 27 28  1  0
 28 29  2  0
 29 30  1  0
 26 31  1  0
 30 31  2  0
 15 32  1  6
 27 32  1  0
M  END
