x0831-x2563
     RDKit          3D

 31 35  0  0  0  0  0  0  0  0999 V2000
   12.7720   -2.0650   22.1590 C   0  0  0  0  0  0  0  0  0  0  0  0
    5.2920   -4.3230   19.8060 O   0  0  0  0  0  0  0  0  0  0  0  0
   10.0820   -2.1890   23.5140 C   0  0  0  0  0  0  0  0  0  0  0  0
    6.1980   -3.5260   20.0670 C   0  0  0  0  0  0  0  0  0  0  0  0
    7.1320   -3.0990   18.9510 C   0  0  0  0  0  0  0  0  0  0  0  0
    8.2170   -0.1350   21.4900 C   0  0  0  0  0  0  0  0  0  0  0  0
    8.9080    1.0640   21.1020 O   0  0  0  0  0  0  0  0  0  0  0  0
    7.2660   -0.8050   20.5350 C   0  0  1  0  0  0  0  0  0  0  0  0
   12.1380   -0.8560   22.8680 C   0  0  0  0  0  0  0  0  0  0  0  0
   10.8930   -0.9670   23.4820 C   0  0  0  0  0  0  0  0  0  0  0  0
   10.3670    0.1630   24.1060 C   0  0  0  0  0  0  0  0  0  0  0  0
   11.0540    1.3720   24.1080 C   0  0  0  0  0  0  0  0  0  0  0  0
   12.2870    1.4450   23.4870 C   0  0  0  0  0  0  0  0  0  0  0  0
   12.8250    0.3400   22.8790 C   0  0  0  0  0  0  0  0  0  0  0  0
    6.4100   -3.0470   21.3560 N   0  0  0  0  0  0  0  0  0  0  0  0
    6.3810   -1.6020   21.5030 C   0  0  1  0  0  0  0  0  0  0  0  0
    6.7660   -1.1340   22.9300 C   0  0  0  0  0  0  0  0  0  0  0  0
    8.2450   -0.8360   22.8520 C   0  0  1  0  0  0  0  0  0  0  0  0
    8.8980   -2.1660   22.8140 N   0  0  0  0  0  0  0  0  0  0  0  0
    8.0360   -3.2220   23.4090 C   0  0  0  0  0  0  0  0  0  0  0  0
    7.0430   -3.8660   22.4220 C   0  0  0  0  0  0  0  0  0  0  0  0
    6.2510    0.9640   17.4470 N   0  0  0  0  0  0  0  0  0  0  0  0
    5.1690    1.6010   17.9110 C   0  0  0  0  0  0  0  0  0  0  0  0
    4.6640    1.5550   19.1970 C   0  0  0  0  0  0  0  0  0  0  0  0
    5.3600    0.7560   20.1150 C   0  0  0  0  0  0  0  0  0  0  0  0
    6.5050    0.0700   19.6470 C   0  0  0  0  0  0  0  0  0  0  0  0
    6.8710    0.2220   18.3600 C   0  0  0  0  0  0  0  0  0  0  0  0
    3.5160    2.2680   19.5660 C   0  0  0  0  0  0  0  0  0  0  0  0
    3.0520    2.1890   20.8740 C   0  0  0  0  0  0  0  0  0  0  0  0
    3.7230    1.4110   21.7970 C   0  0  0  0  0  0  0  0  0  0  0  0
    4.8610    0.6990   21.4330 C   0  0  0  0  0  0  0  0  0  0  0  0
  2  4  2  0
  4  5  1  0
  6  7  2  0
  6  8  1  0
  1  9  1  0
  3 10  1  0
  9 10  2  0
 10 11  1  0
 11 12  2  0
 12 13  1  0
  9 14  1  0
 13 14  2  0
  4 15  1  0
  8 16  1  0
 16 15  1  1
 16 17  1  0
 18  6  1  6
 17 18  1  0
  3 19  1  0
 18 19  1  0
 19 20  1  0
 15 21  1  0
 20 21  1  0
 22 23  2  0
 23 24  1  0
 24 25  2  0
  8 26  1  1
 25 26  1  0
 22 27  1  0
 26 27  2  0
 24 28  1  0
 28 29  2  0
 29 30  1  0
 25 31  1  0
 30 31  2  0
M  END
