x0831-x0107
     RDKit          3D

 27 30  0  0  0  0  0  0  0  0999 V2000
   11.9010   -2.1900   22.2400 C   0  0  0  0  0  0  0  0  0  0  0  0
    5.3940   -4.3960   19.8480 O   0  0  0  0  0  0  0  0  0  0  0  0
    9.0550   -1.1020   23.3040 C   0  0  2  0  0  0  0  0  0  0  0  0
    6.2810   -3.5890   20.1590 C   0  0  0  0  0  0  0  0  0  0  0  0
    7.2170   -3.0970   19.0230 C   0  0  0  0  0  0  0  0  0  0  0  0
    8.1910   -0.1960   22.3680 C   0  0  0  0  0  0  0  0  0  0  0  0
    8.2550    1.2180   22.3370 O   0  0  0  0  0  0  0  0  0  0  0  0
    5.3220    0.8630   22.0070 C   0  0  0  0  0  0  0  0  0  0  0  0
   11.6210   -0.8020   22.8430 C   0  0  0  0  0  0  0  0  0  0  0  0
   10.3510   -0.4060   23.3000 C   0  0  0  0  0  0  0  0  0  0  0  0
   10.2250    0.8630   23.8240 C   0  0  0  0  0  0  0  0  0  0  0  0
   11.2840    1.7320   23.8840 C   0  0  0  0  0  0  0  0  0  0  0  0
   12.5160    1.3440   23.4180 C   0  0  0  0  0  0  0  0  0  0  0  0
   12.6800    0.0780   22.9100 C   0  0  0  0  0  0  0  0  0  0  0  0
    6.4030   -3.1620   21.5170 N   0  0  0  0  0  0  0  0  0  0  0  0
    6.1700   -1.7660   21.9350 C   0  0  0  0  0  0  0  0  0  0  0  0
    7.4170   -0.9950   21.4910 C   0  0  2  0  0  0  0  0  0  0  0  0
    8.4200   -2.0630   21.3600 C   0  0  0  0  0  0  0  0  0  0  0  0
    8.9130   -2.3330   22.7090 N   0  0  0  0  0  0  0  0  0  0  0  0
    8.0120   -3.2090   23.4950 C   0  0  0  0  0  0  0  0  0  0  0  0
    7.0310   -3.9640   22.5850 C   0  0  0  0  0  0  0  0  0  0  0  0
    6.8560   -0.2550   20.2330 C   0  0  0  0  0  0  0  0  0  0  0  0
    5.8370    0.6200   20.5670 C   0  0  0  0  0  0  0  0  0  0  0  0
    5.1740    1.3670   19.5700 C   0  0  0  0  0  0  0  0  0  0  0  0
    5.5650    1.2220   18.2080 C   0  0  0  0  0  0  0  0  0  0  0  0
    6.6620    0.2860   17.9060 N   0  0  0  0  0  0  0  0  0  0  0  0
    7.2320   -0.3930   18.9250 C   0  0  0  0  0  0  0  0  0  0  0  0
  2  4  2  0
  4  5  1  0
  3  6  1  0
  6  7  2  0
  1  9  1  0
  3 10  1  6
  9 10  2  0
 10 11  1  0
 11 12  2  0
 12 13  1  0
  9 14  1  0
 13 14  2  0
  4 15  1  0
 15 16  1  0
  6 17  1  0
 16 17  1  0
 17 18  1  0
  3 19  1  0
 18 19  1  0
 19 20  1  0
 15 21  1  0
 20 21  1  0
 17 22  1  6
  8 23  1  0
 22 23  2  0
 23 24  1  0
 24 25  2  0
 25 26  1  0
 22 27  1  0
 26 27  2  0
M  END
