x0831-x2649
     RDKit          3D

 28 30  0  0  0  0  0  0  0  0999 V2000
    8.9860   -1.5870   21.5140 C   0  0  0  0  0  0  0  0  0  0  0  0
    8.0380    0.3690   21.5000 O   0  0  0  0  0  0  0  0  0  0  0  0
    5.3540   -4.3580   19.8250 O   0  0  0  0  0  0  0  0  0  0  0  0
    6.1160   -3.4110   20.0390 C   0  0  0  0  0  0  0  0  0  0  0  0
    7.0840   -3.0000   18.9350 C   0  0  0  0  0  0  0  0  0  0  0  0
    6.1110   -2.7460   21.2680 N   0  0  0  0  0  0  0  0  0  0  0  0
    6.4030   -1.3140   21.2960 C   0  0  2  0  0  0  0  0  0  0  0  0
    7.7680   -1.0540   21.5490 C   0  0  2  0  0  0  0  0  0  0  0  0
    8.4710   -1.5720   22.8250 C   0  0  1  0  0  0  0  0  0  0  0  0
    8.1650   -2.8450   23.1530 N   0  0  0  0  0  0  0  0  0  0  0  0
    7.0870   -2.9420   23.5030 C   0  0  0  0  0  0  0  0  0  0  0  0
    6.4050   -3.5610   22.4750 C   0  0  0  0  0  0  0  0  0  0  0  0
   13.2220   -2.1950   21.1680 Cl  0  0  0  0  0  0  0  0  0  0  0  0
   10.9820    0.4770   24.0510 C   0  0  0  0  0  0  0  0  0  0  0  0
   12.2340    0.7780   23.6130 C   0  0  0  0  0  0  0  0  0  0  0  0
   12.9180   -0.0290   22.7470 C   0  0  0  0  0  0  0  0  0  0  0  0
   12.3820   -1.2080   22.2530 C   0  0  0  0  0  0  0  0  0  0  0  0
   10.9860   -1.6900   22.6500 C   0  0  0  0  0  0  0  0  0  0  0  0
   10.3430   -0.6640   23.6380 C   0  0  0  0  0  0  0  0  0  0  0  0
    9.7800   -1.3550   23.4800 C   0  0  0  0  0  0  0  0  0  0  0  0
    5.1250    0.7670   21.6740 C   0  0  0  0  0  0  0  0  0  0  0  0
    6.2820    0.8310   17.5370 N   0  0  0  0  0  0  0  0  0  0  0  0
    5.1190    1.6250   17.9720 C   0  0  0  0  0  0  0  0  0  0  0  0
    4.7090    1.6010   19.4430 C   0  0  0  0  0  0  0  0  0  0  0  0
    5.4640    0.8280   20.3100 C   0  0  0  0  0  0  0  0  0  0  0  0
    6.5440    0.1190   19.8060 C   0  0  0  0  0  0  0  0  0  0  0  0
    6.9250    0.1280   18.4770 C   0  0  0  0  0  0  0  0  0  0  0  0
    5.4330   -0.5260   22.1780 C   0  0  0  0  0  0  0  0  0  0  0  0
  3  4  2  0
  4  5  1  0
  4  6  1  0
  6  7  1  0
  8  2  1  1
  7  8  1  0
  9  1  1  6
  8  9  1  0
  9 10  1  0
 10 11  1  0
  6 12  1  0
 11 12  1  0
 14 15  2  0
 15 16  1  0
 13 17  1  0
 16 17  2  0
 17 18  1  0
 14 19  1  0
 18 19  2  0
  9 20  1  0
 18 20  1  0
 22 23  2  0
 23 24  1  0
 21 25  1  0
 24 25  2  0
 25 26  1  0
 22 27  1  0
 26 27  2  0
  7 28  1  1
 21 28  1  0
M  END
