x0830-x2608
     RDKit          3D

 30 34  0  0  0  0  0  0  0  0999 V2000
    7.5330   -3.7690   19.7140 C   0  0  0  0  0  0  0  0  0  0  0  0
    5.2240   -3.5820   19.4560 O   0  0  0  0  0  0  0  0  0  0  0  0
    6.2260   -3.1920   20.0900 C   0  0  0  0  0  0  0  0  0  0  0  0
    9.9390   -2.5510   23.3680 C   0  0  0  0  0  0  0  0  0  0  0  0
    7.8930    0.9770   21.5510 O   0  0  0  0  0  0  0  0  0  0  0  0
    8.0600   -0.2310   21.3980 C   0  0  0  0  0  0  0  0  0  0  0  0
   13.2350    2.0510   22.6990 C   0  0  0  0  0  0  0  0  0  0  0  0
    6.3210   -2.2810   21.1180 N   0  0  0  0  0  0  0  0  0  0  0  0
    6.4150   -2.7300   22.4250 C   0  0  0  0  0  0  0  0  0  0  0  0
    7.7200   -3.3360   22.7300 C   0  0  0  0  0  0  0  0  0  0  0  0
    8.6120   -2.3050   22.7260 N   0  0  0  0  0  0  0  0  0  0  0  0
    8.7150   -1.6380   21.5090 C   0  0  1  0  0  0  0  0  0  0  0  0
    7.4850   -1.5500   20.7350 C   0  0  2  0  0  0  0  0  0  0  0  0
   12.0910   -1.5520   22.5650 C   0  0  0  0  0  0  0  0  0  0  0  0
   12.9070   -0.4310   22.3960 C   0  0  0  0  0  0  0  0  0  0  0  0
   12.4430    0.7850   22.8970 C   0  0  0  0  0  0  0  0  0  0  0  0
   11.2840    0.9040   23.5510 C   0  0  0  0  0  0  0  0  0  0  0  0
   10.4750   -0.1910   23.7460 C   0  0  0  0  0  0  0  0  0  0  0  0
   10.8580   -1.4140   23.2350 C   0  0  0  0  0  0  0  0  0  0  0  0
   10.8940    2.1380   24.0180 C   0  0  0  0  0  0  0  0  0  0  0  0
    9.7000    2.2590   24.6860 C   0  0  0  0  0  0  0  0  0  0  0  0
    8.9130    1.1800   24.9000 C   0  0  0  0  0  0  0  0  0  0  0  0
    9.2740   -0.0500   24.4400 C   0  0  0  0  0  0  0  0  0  0  0  0
    6.1250    0.5510   17.9140 N   0  0  0  0  0  0  0  0  0  0  0  0
    6.3730   -0.1890   19.1140 C   0  0  0  0  0  0  0  0  0  0  0  0
    5.5450    0.0640   20.3480 C   0  0  0  0  0  0  0  0  0  0  0  0
    4.4400    1.0930   20.3460 C   0  0  0  0  0  0  0  0  0  0  0  0
    4.1820    1.8760   19.0580 C   0  0  0  0  0  0  0  0  0  0  0  0
    5.0620    1.5730   17.8430 C   0  0  0  0  0  0  0  0  0  0  0  0
    7.3650   -1.1710   19.2260 C   0  0  0  0  0  0  0  0  0  0  0  0
  1  3  1  0
  2  3  2  0
  5  6  2  0
  3  8  1  0
  8  9  1  0
  9 10  1  0
  4 11  1  0
 10 11  1  0
 12  6  1  1
 11 12  1  0
  6 13  1  0
  8 13  1  0
 12 13  1  0
 14 15  2  0
  7 16  1  0
 15 16  1  0
 16 17  2  0
 17 18  1  0
  4 19  1  0
 14 19  1  0
 18 19  2  0
 17 20  1  0
 20 21  2  0
 21 22  1  0
 18 23  1  0
 22 23  2  0
 24 25  2  0
 25 26  1  0
 26 27  2  0
 27 28  1  0
 24 29  1  0
 28 29  2  0
 13 30  1  6
 25 30  1  0
M  END
