x0830-x0397
     RDKit          3D

 31 36  0  0  0  0  0  0  0  0999 V2000
    7.4490   -2.8990   19.4950 C   0  0  2  0  0  0  0  0  0  0  0  0
    6.8930   -2.0650   18.3280 C   0  0  0  0  0  0  0  0  0  0  0  0
    3.9070    1.9250   19.5760 C   0  0  0  0  0  0  0  0  0  0  0  0
    6.4380   -3.5850   20.3620 C   0  0  0  0  0  0  0  0  0  0  0  0
    5.5780   -4.3520   19.9040 O   0  0  0  0  0  0  0  0  0  0  0  0
    9.7370   -2.6670   23.5120 C   0  0  0  0  0  0  0  0  0  0  0  0
    5.1610   -0.4040   19.4000 C   0  0  0  0  0  0  0  0  0  0  0  0
    6.1400   -0.7470   18.5080 C   0  0  0  0  0  0  0  0  0  0  0  0
    6.3840    0.3360   17.7070 N   0  0  0  0  0  0  0  0  0  0  0  0
    5.6530    1.3320   18.0030 O   0  0  0  0  0  0  0  0  0  0  0  0
    4.8270    1.0210   19.0440 C   0  0  0  0  0  0  0  0  0  0  0  0
    6.7110   -1.8160   21.5260 N   0  0  0  0  0  0  0  0  0  0  0  0
    6.5640   -3.2210   21.8660 C   0  0  2  0  0  0  0  0  0  0  0  0
    7.7230   -3.6670   22.5410 C   0  0  0  0  0  0  0  0  0  0  0  0
    8.6420   -2.5050   22.6670 N   0  0  0  0  0  0  0  0  0  0  0  0
    8.9640   -2.0080   21.4610 C   0  0  0  0  0  0  0  0  0  0  0  0
    7.8740   -1.7740   20.6040 C   0  0  1  0  0  0  0  0  0  0  0  0
   11.9610   -2.0400   22.6430 C   0  0  0  0  0  0  0  0  0  0  0  0
   13.1330   -1.1200   22.3110 C   0  0  0  0  0  0  0  0  0  0  0  0
   12.9560    0.3060   22.7230 C   0  0  0  0  0  0  0  0  0  0  0  0
   11.7170    0.8090   23.4110 C   0  0  0  0  0  0  0  0  0  0  0  0
   10.5950   -0.1770   23.7310 C   0  0  0  0  0  0  0  0  0  0  0  0
   10.8030   -1.6340   23.2850 C   0  0  0  0  0  0  0  0  0  0  0  0
   11.5430    2.1470   23.7610 C   0  0  0  0  0  0  0  0  0  0  0  0
   10.3800    2.5780   24.4030 C   0  0  0  0  0  0  0  0  0  0  0  0
    9.3500    1.6550   24.7270 C   0  0  0  0  0  0  0  0  0  0  0  0
    9.4580    0.2980   24.3920 C   0  0  0  0  0  0  0  0  0  0  0  0
    5.8300   -5.7520   23.4870 C   0  0  0  0  0  0  0  0  0  0  0  0
    5.1320   -5.0560   22.6220 C   0  0  0  0  0  0  0  0  0  0  0  0
    5.8900   -5.7960   21.8540 C   0  0  0  0  0  0  0  0  0  0  0  0
    5.3340   -3.6150   22.6330 C   0  0  0  0  0  0  0  0  0  0  0  0
  1  2  1  6
  1  4  1  0
  4  5  2  0
  2  8  1  0
  7  8  1  0
  8  9  2  0
  9 10  1  0
  3 11  1  0
  7 11  2  0
 10 11  1  0
  4 13  1  0
 12 13  1  0
 13 14  1  0
  6 15  1  0
 14 15  1  0
 15 16  1  0
  1 17  1  0
 12 17  1  0
 17 16  1  1
 18 19  2  0
 19 20  1  0
 20 21  2  0
 21 22  1  0
  6 23  1  0
 18 23  1  0
 22 23  2  0
 21 24  1  0
 24 25  2  0
 25 26  1  0
 22 27  1  0
 26 27  2  0
 28 29  1  0
 28 30  1  0
 29 30  1  0
 13 31  1  1
 29 31  1  0
M  END
