x0831-x0705
     RDKit          3D

 26 28  0  0  0  0  0  0  0  0999 V2000
    1.3690   -2.4790   27.6960 C   0  0  0  0  0  0  0  0  0  0  0  0
    7.6210   -1.2060   26.0000 O   0  0  0  0  0  0  0  0  0  0  0  0
    5.4450   -3.4500   19.4330 O   0  0  0  0  0  0  0  0  0  0  0  0
    6.7860   -1.8900   25.4310 C   0  0  0  0  0  0  0  0  0  0  0  0
    6.4190   -3.2820   20.1960 C   0  0  0  0  0  0  0  0  0  0  0  0
    7.6730   -3.7920   19.7070 C   0  0  0  0  0  0  0  0  0  0  0  0
   12.3310   -2.2440   22.2600 C   0  0  0  0  0  0  0  0  0  0  0  0
    9.3870   -2.2250   23.5520 C   0  0  0  0  0  0  0  0  0  0  0  0
    2.7980   -2.3450   27.1290 C   0  0  0  0  0  0  0  0  0  0  0  0
    3.0670   -1.4680   26.0960 C   0  0  0  0  0  0  0  0  0  0  0  0
    4.3350   -1.3500   25.5890 C   0  0  0  0  0  0  0  0  0  0  0  0
    5.3920   -2.0990   26.0890 C   0  0  0  0  0  0  0  0  0  0  0  0
    5.1520   -2.9960   27.1390 C   0  0  0  0  0  0  0  0  0  0  0  0
    3.8420   -3.1220   27.6660 C   0  0  0  0  0  0  0  0  0  0  0  0
    6.4180   -2.7850   21.4700 N   0  0  0  0  0  0  0  0  0  0  0  0
    6.1620   -3.8180   22.4430 C   0  0  0  0  0  0  0  0  0  0  0  0
    5.7970   -3.0600   23.7010 C   0  0  0  0  0  0  0  0  0  0  0  0
    6.9660   -2.5160   24.2210 N   0  0  0  0  0  0  0  0  0  0  0  0
    7.9030   -1.8520   23.3630 C   0  0  2  0  0  0  0  0  0  0  0  0
    7.4310   -1.9170   21.9010 C   0  0  0  0  0  0  0  0  0  0  0  0
   11.7900   -1.0080   22.9420 C   0  0  0  0  0  0  0  0  0  0  0  0
   10.3760   -1.0240   23.5580 C   0  0  0  0  0  0  0  0  0  0  0  0
   10.0180    0.1860   24.1460 C   0  0  0  0  0  0  0  0  0  0  0  0
   10.8770    1.3140   24.1550 C   0  0  0  0  0  0  0  0  0  0  0  0
   12.1730    1.2560   23.5610 C   0  0  0  0  0  0  0  0  0  0  0  0
   12.6320    0.0930   22.9580 C   0  0  0  0  0  0  0  0  0  0  0  0
  2  4  2  0
  3  5  2  0
  5  6  1  0
  1  9  1  0
  9 10  2  0
 10 11  1  0
  4 12  1  0
 11 12  2  0
 12 13  1  0
  9 14  1  0
 13 14  2  0
  5 15  1  0
 15 16  1  0
 16 17  1  0
  4 18  1  0
 17 18  1  0
 19  8  1  6
 18 19  1  0
 15 20  1  0
 19 20  1  0
  7 21  1  0
  8 22  1  0
 21 22  2  0
 22 23  1  0
 23 24  2  0
 24 25  1  0
 21 26  1  0
 25 26  2  0
M  END
