x0831-x1418
     RDKit          3D

 18 19  0  0  0  0  0  0  0  0999 V2000
   12.2360   -2.2260   22.4830 C   0  0  0  0  0  0  0  0  0  0  0  0
    5.4000   -4.2340   19.7710 O   0  0  0  0  0  0  0  0  0  0  0  0
   10.0190   -2.3450   23.5240 C   0  0  0  0  0  0  0  0  0  0  0  0
    6.2980   -3.4060   19.9790 C   0  0  0  0  0  0  0  0  0  0  0  0
    7.2490   -3.0300   18.8550 C   0  0  0  0  0  0  0  0  0  0  0  0
   12.1920   -0.7660   22.9210 C   0  0  0  0  0  0  0  0  0  0  0  0
   10.8160   -1.0700   23.5100 C   0  0  0  0  0  0  0  0  0  0  0  0
   10.3020    0.0740   24.0890 C   0  0  0  0  0  0  0  0  0  0  0  0
   11.0000    1.2800   24.0770 C   0  0  0  0  0  0  0  0  0  0  0  0
   12.2640    1.4820   23.5090 C   0  0  0  0  0  0  0  0  0  0  0  0
   12.9090    0.4060   22.9000 C   0  0  0  0  0  0  0  0  0  0  0  0
    6.4800   -2.8240   21.2270 N   0  0  0  0  0  0  0  0  0  0  0  0
    6.2290   -1.4280   21.6520 C   0  0  0  0  0  0  0  0  0  0  0  0
    7.4000   -0.6520   21.5920 C   0  0  0  0  0  0  0  0  0  0  0  0
    8.6100   -1.6000   21.5910 C   0  0  0  0  0  0  0  0  0  0  0  0
    8.7850   -2.1420   22.9580 N   0  0  0  0  0  0  0  0  0  0  0  0
    7.5650   -2.7950   23.4640 C   0  0  0  0  0  0  0  0  0  0  0  0
    7.0550   -3.6540   22.3040 C   0  0  0  0  0  0  0  0  0  0  0  0
  2  4  2  0
  4  5  1  0
  1  6  1  0
  3  7  1  0
  6  7  2  0
  7  8  1  0
  8  9  2  0
  9 10  1  0
  6 11  1  0
 10 11  2  0
  4 12  1  0
 12 13  1  0
 13 14  1  0
 14 15  1  0
  3 16  1  0
 15 16  1  0
 16 17  1  0
 12 18  1  0
 17 18  1  0
M  END
