x0831-x2779
     RDKit          3D

 18 19  0  0  0  0  0  0  0  0999 V2000
   12.2320   -2.2300   22.4790 C   0  0  0  0  0  0  0  0  0  0  0  0
    5.4030   -4.2310   19.7720 O   0  0  0  0  0  0  0  0  0  0  0  0
   10.0220   -2.3480   23.5180 C   0  0  0  0  0  0  0  0  0  0  0  0
    6.2990   -3.4030   19.9820 C   0  0  0  0  0  0  0  0  0  0  0  0
    7.2490   -3.0250   18.8590 C   0  0  0  0  0  0  0  0  0  0  0  0
   12.1920   -0.7660   22.9140 C   0  0  0  0  0  0  0  0  0  0  0  0
   10.8160   -1.0740   23.5040 C   0  0  0  0  0  0  0  0  0  0  0  0
   10.3020    0.0720   24.0830 C   0  0  0  0  0  0  0  0  0  0  0  0
   10.9980    1.2780   24.0710 C   0  0  0  0  0  0  0  0  0  0  0  0
   12.2620    1.4820   23.5010 C   0  0  0  0  0  0  0  0  0  0  0  0
   12.9060    0.4040   22.8930 C   0  0  0  0  0  0  0  0  0  0  0  0
    6.4770   -2.8240   21.2300 N   0  0  0  0  0  0  0  0  0  0  0  0
    6.2280   -1.4260   21.6560 C   0  0  0  0  0  0  0  0  0  0  0  0
    7.3990   -0.6540   21.5950 C   0  0  0  0  0  0  0  0  0  0  0  0
    8.6110   -1.6010   21.5920 C   0  0  0  0  0  0  0  0  0  0  0  0
    8.7860   -2.1430   22.9560 N   0  0  0  0  0  0  0  0  0  0  0  0
    7.5660   -2.7960   23.4630 C   0  0  0  0  0  0  0  0  0  0  0  0
    7.0550   -3.6530   22.3040 C   0  0  0  0  0  0  0  0  0  0  0  0
  2  4  2  0
  4  5  1  0
  1  6  1  0
  3  7  1  0
  6  7  2  0
  7  8  1  0
  8  9  2  0
  9 10  1  0
  6 11  1  0
 10 11  2  0
  4 12  1  0
 12 13  1  0
 13 14  1  0
 14 15  1  0
  3 16  1  0
 15 16  1  0
 16 17  1  0
 12 18  1  0
 17 18  1  0
M  END
