x0831-x0434
     RDKit          3D

 27 30  0  0  0  0  0  0  0  0999 V2000
   12.0290   -2.2010   22.4420 C   0  0  0  0  0  0  0  0  0  0  0  0
    5.4130   -4.4220   19.8660 O   0  0  0  0  0  0  0  0  0  0  0  0
    9.1730   -1.0930   23.4750 C   0  0  2  0  0  0  0  0  0  0  0  0
    6.2510   -3.5530   20.1470 C   0  0  0  0  0  0  0  0  0  0  0  0
    7.1760   -3.0750   19.0060 C   0  0  0  0  0  0  0  0  0  0  0  0
    8.3380    1.1570   22.4480 O   0  0  0  0  0  0  0  0  0  0  0  0
    8.4050   -0.2560   22.4250 C   0  0  0  0  0  0  0  0  0  0  0  0
   11.7310   -0.8850   22.9450 C   0  0  0  0  0  0  0  0  0  0  0  0
   10.4870   -0.4120   23.4150 C   0  0  0  0  0  0  0  0  0  0  0  0
   10.3320    0.8700   23.8720 C   0  0  0  0  0  0  0  0  0  0  0  0
   11.3800    1.7140   23.8520 C   0  0  0  0  0  0  0  0  0  0  0  0
   12.6020    1.3130   23.3870 C   0  0  0  0  0  0  0  0  0  0  0  0
   12.7940    0.0160   22.9430 C   0  0  0  0  0  0  0  0  0  0  0  0
    6.3410   -3.0330   21.4670 N   0  0  0  0  0  0  0  0  0  0  0  0
    6.4310   -1.6100   21.8030 C   0  0  1  0  0  0  0  0  0  0  0  0
    7.8530   -1.2460   21.4000 C   0  0  2  0  0  0  0  0  0  0  0  0
    8.8670   -2.3570   21.6210 C   0  0  0  0  0  0  0  0  0  0  0  0
    8.9840   -2.3480   22.9520 N   0  0  0  0  0  0  0  0  0  0  0  0
    7.9070   -3.0260   23.5410 C   0  0  0  0  0  0  0  0  0  0  0  0
    6.9950   -3.7610   22.4900 C   0  0  0  0  0  0  0  0  0  0  0  0
    5.5280   -0.0510   20.1540 C   0  0  0  0  0  0  0  0  0  0  0  0
    4.6160    0.9040   19.3860 C   0  0  0  0  0  0  0  0  0  0  0  0
    5.1450    1.3060   18.1660 C   0  0  0  0  0  0  0  0  0  0  0  0
    6.3450    0.9110   17.6790 N   0  0  0  0  0  0  0  0  0  0  0  0
    7.1300    0.0740   18.3750 C   0  0  0  0  0  0  0  0  0  0  0  0
    6.6990   -0.3830   19.5930 C   0  0  0  0  0  0  0  0  0  0  0  0
    5.3010   -0.6310   21.3700 C   0  0  0  0  0  0  0  0  0  0  0  0
  2  4  2  0
  4  5  1  0
  3  7  1  0
  6  7  2  0
  1  8  1  0
  3  9  1  6
  8  9  2  0
  9 10  1  0
 10 11  2  0
 11 12  1  0
  8 13  1  0
 12 13  2  0
  4 14  1  0
 14 15  1  0
 16  7  1  1
 15 16  1  0
 16 17  1  0
  3 18  1  0
 17 18  1  0
 18 19  1  0
 14 20  1  0
 19 20  1  0
 21 22  2  0
 22 23  1  0
 23 24  2  0
 24 25  1  0
 21 26  1  0
 25 26  2  0
 15 27  1  6
 21 27  1  0
M  END
