x0831-x2964
     RDKit          3D

 29 32  0  0  0  0  0  0  0  0999 V2000
   12.7900   -2.0530   22.2270 C   0  0  0  0  0  0  0  0  0  0  0  0
    5.3930   -4.3380   19.8260 O   0  0  0  0  0  0  0  0  0  0  0  0
   10.0530   -2.0870   23.6050 C   0  0  0  0  0  0  0  0  0  0  0  0
    6.2020   -3.4260   20.0400 C   0  0  0  0  0  0  0  0  0  0  0  0
    7.1860   -3.0710   18.9300 C   0  0  0  0  0  0  0  0  0  0  0  0
    8.8200    1.5200   21.4330 O   0  0  0  0  0  0  0  0  0  0  0  0
    8.5300   -0.2830   22.9010 N   0  0  0  0  0  0  0  0  0  0  0  0
    8.4400    0.1760   21.8040 C   0  0  0  0  0  0  0  0  0  0  0  0
   12.1890   -0.9140   22.8780 C   0  0  0  0  0  0  0  0  0  0  0  0
   10.9520   -0.9100   23.5160 C   0  0  0  0  0  0  0  0  0  0  0  0
   10.5060    0.2550   24.0880 C   0  0  0  0  0  0  0  0  0  0  0  0
   11.1840    1.4320   24.0710 C   0  0  0  0  0  0  0  0  0  0  0  0
   12.4150    1.4450   23.4370 C   0  0  0  0  0  0  0  0  0  0  0  0
   12.9090    0.2810   22.8550 C   0  0  0  0  0  0  0  0  0  0  0  0
    6.2460   -2.7430   21.2660 N   0  0  0  0  0  0  0  0  0  0  0  0
    6.4700   -1.2960   21.4080 C   0  0  1  0  0  0  0  0  0  0  0  0
    7.8870   -0.9540   20.9250 C   0  0  2  0  0  0  0  0  0  0  0  0
    8.8650   -2.0060   21.4300 C   0  0  0  0  0  0  0  0  0  0  0  0
    8.7570   -1.7830   22.8930 C   0  0  1  0  0  0  0  0  0  0  0  0
    7.5270   -2.5460   23.4480 C   0  0  0  0  0  0  0  0  0  0  0  0
    6.8340   -3.4850   22.4220 C   0  0  0  0  0  0  0  0  0  0  0  0
    3.5210    1.8480   19.1240 N   0  0  0  0  0  0  0  0  0  0  0  0
    4.6580    1.1230   19.1320 C   0  0  0  0  0  0  0  0  0  0  0  0
    4.9650    0.3720   20.3020 C   0  0  0  0  0  0  0  0  0  0  0  0
    6.2060   -0.2220   19.8760 C   0  0  0  0  0  0  0  0  0  0  0  0
    6.9060   -0.0910   18.6500 C   0  0  0  0  0  0  0  0  0  0  0  0
    6.4250    0.7280   17.5750 N   0  0  0  0  0  0  0  0  0  0  0  0
    5.3150    1.2650   17.9470 C   0  0  0  0  0  0  0  0  0  0  0  0
    5.3910   -0.4220   21.4040 C   0  0  0  0  0  0  0  0  0  0  0  0
  2  4  2  0
  4  5  1  0
  6  8  2  0
  7  8  1  0
  1  9  1  0
  3 10  1  0
  9 10  2  0
 10 11  1  0
 11 12  2  0
 12 13  1  0
  9 14  1  0
 13 14  2  0
  4 15  1  0
 15 16  1  0
 17  8  1  1
 16 17  1  0
 17 18  1  0
 19  3  1  1
  7 19  1  0
 18 19  1  0
 19 20  1  0
 15 21  1  0
 20 21  1  0
 22 23  1  0
 23 24  2  0
 24 25  1  0
 25 26  2  0
 26 27  1  0
 23 28  1  0
 27 28  2  0
 16 29  1  6
 24 29  1  0
M  END
