x0830-x0786
     RDKit          3D

 35 39  0  0  0  0  0  0  0  0999 V2000
    5.7360   -3.5630   21.9100 N   0  0  0  0  0  0  0  0  0  0  0  0
    7.4990   -4.6180   20.6470 C   0  0  0  0  0  0  0  0  0  0  0  0
    5.2220   -4.5150   19.8810 O   0  0  0  0  0  0  0  0  0  0  0  0
    6.0470   -4.2470   20.7520 C   0  0  0  0  0  0  0  0  0  0  0  0
    3.8790   -8.0330   24.8170 O   0  0  0  0  0  0  0  0  0  0  0  0
    3.3810   -6.9960   24.4250 C   0  0  0  0  0  0  0  0  0  0  0  0
    9.8910   -2.3360   23.4670 C   0  0  0  0  0  0  0  0  0  0  0  0
    5.2640   -4.1910   23.1080 C   0  0  0  0  0  0  0  0  0  0  0  0
    4.5000   -5.4260   23.0960 C   0  0  0  0  0  0  0  0  0  0  0  0
    4.2040   -5.7110   24.4510 C   0  0  0  0  0  0  0  0  0  0  0  0
    4.2950   -5.4150   25.5650 C   0  0  0  0  0  0  0  0  0  0  0  0
    5.1100   -4.1140   25.5990 C   0  0  0  0  0  0  0  0  0  0  0  0
    5.5590   -3.5570   24.3670 C   0  0  0  0  0  0  0  0  0  0  0  0
    1.4660   -5.6350   23.3680 C   0  0  0  0  0  0  0  0  0  0  0  0
    0.5960   -5.0770   24.3010 C   0  0  0  0  0  0  0  0  0  0  0  0
   -0.7510   -6.2110   24.2190 S   0  0  0  0  0  0  0  0  0  0  0  0
   -0.0240   -7.5850   24.8420 C   0  0  0  0  0  0  0  0  0  0  0  0
    1.0410   -7.9970   24.0290 C   0  0  0  0  0  0  0  0  0  0  0  0
    1.9990   -6.9030   23.9200 N   0  0  0  0  0  0  0  0  0  0  0  0
    6.9410   -1.8880   20.9010 N   0  0  0  0  0  0  0  0  0  0  0  0
    6.5420   -2.4530   22.1900 C   0  0  2  0  0  0  0  0  0  0  0  0
    7.7260   -2.9250   22.7600 C   0  0  0  0  0  0  0  0  0  0  0  0
    8.6700   -1.8340   22.9230 N   0  0  0  0  0  0  0  0  0  0  0  0
    8.9010   -1.2600   21.5890 C   0  0  0  0  0  0  0  0  0  0  0  0
    7.7380   -0.7110   21.0920 C   0  0  0  0  0  0  0  0  0  0  0  0
   12.2290   -1.9940   22.9560 C   0  0  0  0  0  0  0  0  0  0  0  0
   13.3090   -1.1940   22.7210 C   0  0  0  0  0  0  0  0  0  0  0  0
   13.3160    0.3150   22.7190 C   0  0  0  0  0  0  0  0  0  0  0  0
   12.0290    1.0310   22.9870 C   0  0  0  0  0  0  0  0  0  0  0  0
   10.8130    0.1100   23.2410 C   0  0  0  0  0  0  0  0  0  0  0  0
   11.0210   -1.3980   23.2120 C   0  0  0  0  0  0  0  0  0  0  0  0
   11.8310    2.4530   23.0310 C   0  0  0  0  0  0  0  0  0  0  0  0
   10.5440    2.9520   23.3000 C   0  0  0  0  0  0  0  0  0  0  0  0
    9.4820    2.0780   23.5160 C   0  0  0  0  0  0  0  0  0  0  0  0
    9.5850    0.7010   23.4880 C   0  0  0  0  0  0  0  0  0  0  0  0
  1  4  1  0
  2  4  1  0
  3  4  2  0
  5  6  2  0
  1  8  1  0
  8  9  2  0
  6 10  1  0
  9 10  1  0
 10 11  2  0
 11 12  1  0
  8 13  1  0
 12 13  2  0
 14 15  1  0
 15 16  1  0
 16 17  1  0
 17 18  1  0
  6 19  1  0
 14 19  1  0
 18 19  1  0
 21  1  1  6
 20 21  1  0
 21 22  1  0
  7 23  1  0
 22 23  1  0
 23 24  1  0
 20 25  1  0
 24 25  1  0
 26 27  2  0
 27 28  1  0
 28 29  2  0
 29 30  1  0
  7 31  1  0
 26 31  1  0
 30 31  2  0
 29 32  1  0
 32 33  2  0
 33 34  1  0
 30 35  1  0
 34 35  2  0
M  END
