x0830-x1334
     RDKit          3D

 28 31  0  0  0  0  0  0  0  0999 V2000
    7.7090   -3.5960   19.5830 C   0  0  0  0  0  0  0  0  0  0  0  0
    5.4900   -3.1570   19.0840 O   0  0  0  0  0  0  0  0  0  0  0  0
    6.4640   -2.8460   19.7990 C   0  0  0  0  0  0  0  0  0  0  0  0
    9.6320   -2.4710   23.1810 C   0  0  1  0  0  0  0  0  0  0  0  0
    6.5080   -1.9280   20.8320 N   0  0  0  0  0  0  0  0  0  0  0  0
    6.4010   -2.5720   22.1110 C   0  0  0  0  0  0  0  0  0  0  0  0
    7.6780   -2.8630   22.5990 C   0  0  0  0  0  0  0  0  0  0  0  0
    8.4790   -2.0020   22.5870 N   0  0  0  0  0  0  0  0  0  0  0  0
    8.6000   -1.4850   21.5370 C   0  0  0  0  0  0  0  0  0  0  0  0
    7.5340   -0.9090   20.8280 C   0  0  0  0  0  0  0  0  0  0  0  0
   12.0430   -1.9190   22.4990 C   0  0  0  0  0  0  0  0  0  0  0  0
   13.0980   -1.0530   22.3460 C   0  0  0  0  0  0  0  0  0  0  0  0
   12.9880    0.2630   22.7070 C   0  0  0  0  0  0  0  0  0  0  0  0
   11.8400    0.7780   23.2320 C   0  0  0  0  0  0  0  0  0  0  0  0
   10.7090   -0.0370   23.4540 C   0  0  0  0  0  0  0  0  0  0  0  0
   10.8400   -1.4790   23.0370 C   0  0  0  0  0  0  0  0  0  0  0  0
   11.8520    2.1500   23.5190 C   0  0  0  0  0  0  0  0  0  0  0  0
   10.6560    2.8150   24.0900 C   0  0  0  0  0  0  0  0  0  0  0  0
    9.4540    1.9650   24.3730 C   0  0  0  0  0  0  0  0  0  0  0  0
    9.5530    0.5140   24.0180 C   0  0  0  0  0  0  0  0  0  0  0  0
    7.2480   -6.0520   28.6010 Cl  0  0  0  0  0  0  0  0  0  0  0  0
    9.6090   -5.1760   25.4360 C   0  0  0  0  0  0  0  0  0  0  0  0
    8.7200   -4.0640   25.5370 C   0  0  0  0  0  0  0  0  0  0  0  0
    7.4750   -3.8970   26.7510 S   0  0  0  0  0  0  0  0  0  0  0  0
    8.0240   -5.3540   27.2590 C   0  0  0  0  0  0  0  0  0  0  0  0
    9.0820   -5.8830   26.5350 C   0  0  0  0  0  0  0  0  0  0  0  0
    9.5150   -3.0070   24.5470 C   0  0  0  0  0  0  0  0  0  0  0  0
    9.9270   -4.3000   24.4320 C   0  0  0  0  0  0  0  0  0  0  0  0
  1  3  1  0
  2  3  2  0
  3  5  1  0
  5  6  1  0
  6  7  1  0
  4  8  1  0
  7  8  1  0
  8  9  1  0
  5 10  1  0
  9 10  1  0
 11 12  2  0
 12 13  1  0
 13 14  2  0
 14 15  1  0
  4 16  1  0
 11 16  1  0
 15 16  2  0
 14 17  1  0
 17 18  2  0
 18 19  1  0
 15 20  1  0
 19 20  2  0
 22 23  2  0
 23 24  1  0
 21 25  1  0
 24 25  1  0
 22 26  1  0
 25 26  2  0
  4 27  1  1
 22 28  1  0
 27 28  1  0
M  END
