x0831-x1358
     RDKit          3D

 28 30  0  0  0  0  0  0  0  0999 V2000
    7.0030   -2.0490   25.9720 N   0  0  0  0  0  0  0  0  0  0  0  0
    5.5920    0.0820   25.1640 O   0  0  0  0  0  0  0  0  0  0  0  0
    5.1240   -3.5500   25.8320 O   0  0  0  0  0  0  0  0  0  0  0  0
    5.0420   -4.1680   19.6100 O   0  0  0  0  0  0  0  0  0  0  0  0
    6.1010   -3.0200   25.3110 C   0  0  0  0  0  0  0  0  0  0  0  0
    6.0980   -3.6810   19.9560 C   0  0  0  0  0  0  0  0  0  0  0  0
    7.0900   -3.1170   18.9520 C   0  0  0  0  0  0  0  0  0  0  0  0
    6.0130   -0.1230   26.4470 C   0  0  0  0  0  0  0  0  0  0  0  0
    6.7270   -1.2520   26.7790 C   0  0  0  0  0  0  0  0  0  0  0  0
    7.1750   -1.4630   28.2230 C   0  0  0  0  0  0  0  0  0  0  0  0
    6.8710   -0.5130   29.1740 C   0  0  0  0  0  0  0  0  0  0  0  0
    6.1510    0.6190   28.7790 C   0  0  0  0  0  0  0  0  0  0  0  0
    5.7280    0.8120   27.4540 C   0  0  0  0  0  0  0  0  0  0  0  0
    6.4300   -3.6470   21.2720 N   0  0  0  0  0  0  0  0  0  0  0  0
    7.0910   -2.4290   21.7910 C   0  0  0  0  0  0  0  0  0  0  0  0
    7.3540   -2.4840   23.1450 C   0  0  1  0  0  0  0  0  0  0  0  0
    6.4710   -3.3290   23.8640 C   0  0  1  0  0  0  0  0  0  0  0  0
    6.7020   -4.7740   23.4750 C   0  0  0  0  0  0  0  0  0  0  0  0
    6.6420   -4.9440   21.9640 C   0  0  0  0  0  0  0  0  0  0  0  0
   12.5610   -2.2420   22.4980 C   0  0  0  0  0  0  0  0  0  0  0  0
    9.8120   -2.1820   24.0880 C   0  0  0  0  0  0  0  0  0  0  0  0
   11.9430   -0.9560   23.0720 C   0  0  0  0  0  0  0  0  0  0  0  0
   10.6050   -1.0210   23.8170 C   0  0  0  0  0  0  0  0  0  0  0  0
   10.1610    0.2150   24.2840 C   0  0  0  0  0  0  0  0  0  0  0  0
   10.8970    1.4150   24.0770 C   0  0  0  0  0  0  0  0  0  0  0  0
   12.1370    1.3990   23.3790 C   0  0  0  0  0  0  0  0  0  0  0  0
   12.6650    0.2150   22.8750 C   0  0  0  0  0  0  0  0  0  0  0  0
    8.8690   -2.8640   23.0900 C   0  0  0  0  0  0  0  0  0  0  0  0
  1  5  1  0
  3  5  2  0
  4  6  2  0
  6  7  1  0
  2  8  1  0
  1  9  1  0
  8  9  2  0
  9 10  1  0
 10 11  2  0
 11 12  1  0
  8 13  1  0
 12 13  2  0
  6 14  1  0
 14 15  1  0
 15 16  1  0
 17  5  1  1
 16 17  1  0
 17 18  1  0
 14 19  1  0
 18 19  1  0
 20 22  1  0
 21 23  1  0
 22 23  2  0
 23 24  1  0
 24 25  2  0
 25 26  1  0
 22 27  1  0
 26 27  2  0
 16 28  1  6
 21 28  1  0
M  END
