x0830-x0395
     RDKit          3D

 27 31  0  0  0  0  0  0  0  0999 V2000
    7.7230   -3.5130   19.4560 C   0  0  0  0  0  0  0  0  0  0  0  0
    5.5140   -3.0510   18.9870 O   0  0  0  0  0  0  0  0  0  0  0  0
    6.4720   -2.8170   19.7520 C   0  0  0  0  0  0  0  0  0  0  0  0
    9.9580   -2.4590   22.9770 C   0  0  1  0  0  0  0  0  0  0  0  0
   13.3420   -2.0830   21.6850 F   0  0  0  0  0  0  0  0  0  0  0  0
    8.1790   -5.0330   27.0100 C   0  0  0  0  0  0  0  0  0  0  0  0
    6.4510   -2.0990   20.9300 N   0  0  0  0  0  0  0  0  0  0  0  0
    6.3470   -2.9850   22.1110 C   0  0  0  0  0  0  0  0  0  0  0  0
    7.6370   -3.4100   22.6330 C   0  0  0  0  0  0  0  0  0  0  0  0
    8.4520   -2.2470   22.6310 C   0  0  0  0  0  0  0  0  0  0  0  0
    8.5790   -1.1670   22.1930 C   0  0  0  0  0  0  0  0  0  0  0  0
    7.4890   -1.0320   21.0720 C   0  0  0  0  0  0  0  0  0  0  0  0
   12.1600   -1.8630   22.2580 C   0  0  0  0  0  0  0  0  0  0  0  0
   13.0070   -0.7250   22.2800 C   0  0  0  0  0  0  0  0  0  0  0  0
   12.8050    0.5300   22.7680 C   0  0  0  0  0  0  0  0  0  0  0  0
   11.6710    0.8920   23.3510 C   0  0  0  0  0  0  0  0  0  0  0  0
   10.7230   -0.0730   23.4620 C   0  0  0  0  0  0  0  0  0  0  0  0
   10.9740   -1.3510   22.9310 C   0  0  0  0  0  0  0  0  0  0  0  0
   11.4030    2.1350   23.8180 C   0  0  0  0  0  0  0  0  0  0  0  0
   10.2220    2.4860   24.4210 C   0  0  0  0  0  0  0  0  0  0  0  0
    9.2770    1.5140   24.5710 C   0  0  0  0  0  0  0  0  0  0  0  0
    9.5150    0.2470   24.0970 C   0  0  0  0  0  0  0  0  0  0  0  0
    8.4990   -3.8650   26.0350 C   0  0  0  0  0  0  0  0  0  0  0  0
    8.3490   -2.5830   26.2180 N   0  0  0  0  0  0  0  0  0  0  0  0
    8.8030   -1.8510   25.1510 N   0  0  0  0  0  0  0  0  0  0  0  0
    8.9380   -2.6540   24.0640 C   0  0  2  0  0  0  0  0  0  0  0  0
    9.1540   -4.2560   24.5640 S   0  0  0  0  0  0  0  0  0  0  0  0
  1  3  1  0
  2  3  2  0
  3  7  1  0
  7  8  1  0
  8  9  1  0
  4 10  1  0
 10  9  1  0
 10 11  1  0
  7 12  1  0
 11 12  1  0
  5 13  1  0
 13 14  2  0
 14 15  1  0
 15 16  2  0
 16 17  1  0
  4 18  1  1
 13 18  1  0
 17 18  2  0
 16 19  1  0
 19 20  2  0
 20 21  1  0
 17 22  1  0
 21 22  2  0
  6 23  1  0
 23 24  2  0
 24 25  1  0
  4 26  1  0
 10 26  1  0
 26 25  1  1
 23 27  1  0
 26 27  1  0
M  END
