x0831-x0736
     RDKit          3D

 25 27  0  0  0  0  0  0  0  0999 V2000
   12.6300   -2.0300   22.0670 C   0  0  0  0  0  0  0  0  0  0  0  0
    5.2710   -4.2300   19.7230 O   0  0  0  0  0  0  0  0  0  0  0  0
    9.9750   -2.3330   23.6000 C   0  0  0  0  0  0  0  0  0  0  0  0
    6.1630   -3.4270   19.9640 C   0  0  0  0  0  0  0  0  0  0  0  0
    7.1870   -3.0530   18.9010 C   0  0  0  0  0  0  0  0  0  0  0  0
    6.2880   -2.2150   24.4660 O   0  0  0  0  0  0  0  0  0  0  0  0
    7.6700   -1.9380   24.2430 C   0  0  0  0  0  0  0  0  0  0  0  0
   12.0000   -0.9540   22.7880 C   0  0  0  0  0  0  0  0  0  0  0  0
   10.7870   -1.0450   23.4880 C   0  0  0  0  0  0  0  0  0  0  0  0
   10.3120    0.0850   24.1200 C   0  0  0  0  0  0  0  0  0  0  0  0
   10.9750    1.2890   24.0910 C   0  0  0  0  0  0  0  0  0  0  0  0
   12.1750    1.3800   23.4110 C   0  0  0  0  0  0  0  0  0  0  0  0
   12.6810    0.2630   22.7660 C   0  0  0  0  0  0  0  0  0  0  0  0
    6.2550   -2.8990   21.2240 N   0  0  0  0  0  0  0  0  0  0  0  0
    5.8660   -1.5230   21.5550 C   0  0  0  0  0  0  0  0  0  0  0  0
    7.0880   -0.6260   21.8190 C   0  0  0  0  0  0  0  0  0  0  0  0
    8.4550   -1.3330   21.8960 C   0  0  0  0  0  0  0  0  0  0  0  0
    8.5660   -2.3470   23.0430 C   0  0  1  0  0  0  0  0  0  0  0  0
    8.1030   -3.7290   22.6730 C   0  0  0  0  0  0  0  0  0  0  0  0
    6.6390   -3.7870   22.3290 C   0  0  0  0  0  0  0  0  0  0  0  0
    8.3190    0.2040   25.1290 O   0  0  0  0  0  0  0  0  0  0  0  0
    8.1850   -1.1830   25.3900 C   0  0  0  0  0  0  0  0  0  0  0  0
    8.5940   -1.4310   26.6930 C   0  0  0  0  0  0  0  0  0  0  0  0
    9.0080   -0.2440   27.2940 C   0  0  0  0  0  0  0  0  0  0  0  0
    8.8350    0.7710   26.3250 C   0  0  0  0  0  0  0  0  0  0  0  0
  2  4  2  0
  4  5  1  0
  6  7  2  0
  1  8  1  0
  3  9  1  0
  8  9  2  0
  9 10  1  0
 10 11  2  0
 11 12  1  0
  8 13  1  0
 12 13  2  0
  4 14  1  0
 14 15  1  0
 15 16  1  0
 16 17  1  0
 18  3  1  1
 18  7  1  0
 17 18  1  0
 18 19  1  0
 14 20  1  0
 19 20  1  0
  7 22  1  0
 21 22  1  0
 22 23  2  0
 23 24  1  0
 21 25  1  0
 24 25  2  0
M  END
