x0831-x0981
     RDKit          3D

 31 32  0  0  0  0  0  0  0  0999 V2000
    1.2120   -8.7640   21.3470 C   0  0  0  0  0  0  0  0  0  0  0  0
    2.7650   -7.1230   22.7600 N   0  0  0  0  0  0  0  0  0  0  0  0
    0.5970   -6.5550   22.3370 O   0  0  0  0  0  0  0  0  0  0  0  0
    1.4280   -7.4420   22.1500 C   0  0  0  0  0  0  0  0  0  0  0  0
    2.4160   -8.3210   26.3970 N   0  0  0  0  0  0  0  0  0  0  0  0
    4.0290   -8.1800   24.5480 O   0  0  0  0  0  0  0  0  0  0  0  0
    2.9900   -5.9520   23.4970 C   0  0  1  0  0  0  0  0  0  0  0  0
    5.2200   -5.6980   22.1870 N   0  0  0  0  0  0  0  0  0  0  0  0
    4.9170   -4.6860   24.2790 O   0  0  0  0  0  0  0  0  0  0  0  0
    2.7500   -6.2510   24.9920 C   0  0  0  0  0  0  0  0  0  0  0  0
    3.0360   -7.5600   25.3290 C   0  0  0  0  0  0  0  0  0  0  0  0
    4.4430   -5.3860   23.3880 C   0  0  0  0  0  0  0  0  0  0  0  0
    6.5750   -5.0880   22.1060 C   0  0  0  0  0  0  0  0  0  0  0  0
   12.6050   -2.1400   22.2880 C   0  0  0  0  0  0  0  0  0  0  0  0
    5.3370   -4.3060   19.7960 O   0  0  0  0  0  0  0  0  0  0  0  0
    9.8750   -2.4140   23.5380 C   0  0  0  0  0  0  0  0  0  0  0  0
    6.2130   -3.4750   20.0360 C   0  0  0  0  0  0  0  0  0  0  0  0
    7.1510   -3.0500   18.9200 C   0  0  0  0  0  0  0  0  0  0  0  0
   12.0380   -1.0040   22.8850 C   0  0  0  0  0  0  0  0  0  0  0  0
   10.6380   -1.0560   23.5540 C   0  0  0  0  0  0  0  0  0  0  0  0
   10.0570    0.2120   24.1870 C   0  0  0  0  0  0  0  0  0  0  0  0
   10.8550    1.4840   24.1370 C   0  0  0  0  0  0  0  0  0  0  0  0
   12.2200    1.4540   23.4640 C   0  0  0  0  0  0  0  0  0  0  0  0
   12.7870    0.1870   22.8490 C   0  0  0  0  0  0  0  0  0  0  0  0
    6.3930   -2.9150   21.3110 N   0  0  0  0  0  0  0  0  0  0  0  0
    6.2790   -1.5640   21.3930 C   0  0  0  0  0  0  0  0  0  0  0  0
    7.4180   -0.7730   21.5410 C   0  0  0  0  0  0  0  0  0  0  0  0
    8.5870   -1.5480   21.7260 C   0  0  0  0  0  0  0  0  0  0  0  0
    8.6750   -2.5300   22.6670 N   0  0  0  0  0  0  0  0  0  0  0  0
    7.5620   -2.9670   23.3260 C   0  0  0  0  0  0  0  0  0  0  0  0
    6.6270   -3.5980   22.4560 C   0  0  2  0  0  0  0  0  0  0  0  0
  1  4  1  0
  2  4  1  0
  3  4  2  0
  2  7  1  0
  7 10  1  1
  5 11  1  0
  6 11  2  0
 10 11  1  0
  7 12  1  0
  8 12  1  0
  9 12  2  0
  8 13  1  0
 15 17  2  0
 17 18  1  0
 14 19  1  0
 16 20  1  0
 19 20  2  0
 20 21  1  0
 21 22  2  0
 22 23  1  0
 19 24  1  0
 23 24  2  0
 17 25  1  0
 25 26  1  0
 26 27  1  0
 27 28  1  0
 16 29  1  0
 28 29  1  0
 29 30  1  0
 31 13  1  6
 25 31  1  0
 30 31  1  0
M  END
