x0831-x1334
     RDKit          3D

 26 28  0  0  0  0  0  0  0  0999 V2000
   12.2320   -2.1200   22.1900 C   0  0  0  0  0  0  0  0  0  0  0  0
    5.4570   -4.2100   19.7710 O   0  0  0  0  0  0  0  0  0  0  0  0
   10.0550   -2.3670   23.2370 C   0  0  0  0  0  0  0  0  0  0  0  0
    6.3480   -3.3730   19.9680 C   0  0  0  0  0  0  0  0  0  0  0  0
    7.3210   -3.0360   18.8450 C   0  0  0  0  0  0  0  0  0  0  0  0
   12.1660   -0.6950   22.7440 C   0  0  0  0  0  0  0  0  0  0  0  0
   10.7980   -1.0650   23.3150 C   0  0  0  0  0  0  0  0  0  0  0  0
   10.2690    0.0260   23.9790 C   0  0  0  0  0  0  0  0  0  0  0  0
   10.9460    1.2420   24.0560 C   0  0  0  0  0  0  0  0  0  0  0  0
   12.2080    1.5020   23.4990 C   0  0  0  0  0  0  0  0  0  0  0  0
   12.8600    0.4830   22.8130 C   0  0  0  0  0  0  0  0  0  0  0  0
    6.4790   -2.7600   21.2110 N   0  0  0  0  0  0  0  0  0  0  0  0
    6.1140   -1.3870   21.6320 C   0  0  0  0  0  0  0  0  0  0  0  0
    7.2690   -0.6220   21.7580 C   0  0  0  0  0  0  0  0  0  0  0  0
    8.4320   -1.5870   21.5450 C   0  0  0  0  0  0  0  0  0  0  0  0
    8.7610   -2.2110   22.8440 N   0  0  0  0  0  0  0  0  0  0  0  0
    7.7580   -3.1480   23.4110 C   0  0  2  0  0  0  0  0  0  0  0  0
    6.7510   -3.6400   22.3550 C   0  0  0  0  0  0  0  0  0  0  0  0
    7.3470   -5.2660   28.2760 Cl  0  0  0  0  0  0  0  0  0  0  0  0
    9.8280   -5.5860   25.3020 C   0  0  0  0  0  0  0  0  0  0  0  0
    8.9380   -4.6330   24.6770 C   0  0  0  0  0  0  0  0  0  0  0  0
    7.8270   -4.3240   25.6870 C   0  0  1  0  0  0  0  0  0  0  0  0
    8.2000   -5.1520   26.8190 C   0  0  0  0  0  0  0  0  0  0  0  0
    9.3800   -5.8740   26.5410 C   0  0  0  0  0  0  0  0  0  0  0  0
    7.1410   -2.4090   24.6160 C   0  0  0  0  0  0  0  0  0  0  0  0
    7.5790   -2.9840   25.8320 C   0  0  0  0  0  0  0  0  0  0  0  0
  2  4  2  0
  4  5  1  0
  1  6  1  0
  3  7  1  0
  6  7  2  0
  7  8  1  0
  8  9  2  0
  9 10  1  0
  6 11  1  0
 10 11  2  0
  4 12  1  0
 12 13  1  0
 13 14  1  0
 14 15  1  0
  3 16  1  0
 15 16  1  0
 16 17  1  0
 12 18  1  0
 17 18  1  0
 20 21  2  0
 21 22  1  0
 19 23  1  0
 22 23  1  0
 20 24  1  0
 23 24  2  0
 17 25  1  1
 22 26  1  1
 25 26  1  0
M  END
