x0831-x1336
     RDKit          3D

 29 31  0  0  0  0  0  0  0  0999 V2000
    6.0220   -4.5560   29.0430 C   0  0  0  0  0  0  0  0  0  0  0  0
    8.5910   -1.6520   24.9080 O   0  0  0  0  0  0  0  0  0  0  0  0
    6.2770   -1.3810   25.8270 O   0  0  0  0  0  0  0  0  0  0  0  0
    5.4020   -4.0180   19.6640 O   0  0  0  0  0  0  0  0  0  0  0  0
    9.6560   -4.3230   24.8170 C   0  0  0  0  0  0  0  0  0  0  0  0
    6.5180   -3.5600   19.9340 C   0  0  0  0  0  0  0  0  0  0  0  0
    7.4460   -3.1100   18.8410 C   0  0  0  0  0  0  0  0  0  0  0  0
    7.2860   -2.1910   25.1750 S   0  0  0  0  0  0  0  0  0  0  0  0
    7.2110   -4.9350   28.1590 C   0  0  0  0  0  0  0  0  0  0  0  0
    6.8320   -3.7640   27.3270 C   0  0  0  0  0  0  0  0  0  0  0  0
    7.6170   -3.5200   26.2120 C   0  0  0  0  0  0  0  0  0  0  0  0
    8.7140   -4.4100   25.9580 C   0  0  0  0  0  0  0  0  0  0  0  0
    8.9910   -5.5030   26.8250 C   0  0  0  0  0  0  0  0  0  0  0  0
    8.2280   -5.7880   27.9620 C   0  0  0  0  0  0  0  0  0  0  0  0
    6.9930   -3.5110   21.2230 N   0  0  0  0  0  0  0  0  0  0  0  0
    6.7600   -4.4160   22.3450 C   0  0  0  0  0  0  0  0  0  0  0  0
    6.0430   -3.7460   23.3170 C   0  0  0  0  0  0  0  0  0  0  0  0
    6.6340   -2.4430   23.6420 N   0  0  0  0  0  0  0  0  0  0  0  0
    7.2140   -1.6190   22.5680 C   0  0  0  0  0  0  0  0  0  0  0  0
    7.9170   -2.5170   21.5400 C   0  0  0  0  0  0  0  0  0  0  0  0
   12.9930   -1.9320   22.2250 C   0  0  0  0  0  0  0  0  0  0  0  0
   10.2340   -2.2770   23.4420 C   0  0  0  0  0  0  0  0  0  0  0  0
   12.2400   -0.7590   22.8720 C   0  0  0  0  0  0  0  0  0  0  0  0
   10.8630   -1.0170   23.4510 C   0  0  0  0  0  0  0  0  0  0  0  0
   10.3020    0.1340   23.9860 C   0  0  0  0  0  0  0  0  0  0  0  0
   10.9110    1.4010   24.0060 C   0  0  0  0  0  0  0  0  0  0  0  0
   12.2050    1.5820   23.4510 C   0  0  0  0  0  0  0  0  0  0  0  0
   12.8540    0.4840   22.8910 C   0  0  0  0  0  0  0  0  0  0  0  0
   10.4840   -3.0880   24.7120 C   0  0  0  0  0  0  0  0  0  0  0  0
  4  6  2  0
  6  7  1  0
  2  8  2  0
  3  8  2  0
  1  9  1  0
  9 10  2  0
  8 11  1  0
 10 11  1  0
  5 12  1  0
 11 12  2  0
 12 13  1  0
  9 14  1  0
 13 14  2  0
  6 15  1  0
 15 16  1  0
 16 17  1  0
  8 18  1  0
 17 18  1  0
 18 19  1  0
 15 20  1  0
 19 20  1  0
 21 23  1  0
 22 24  1  0
 23 24  2  0
 24 25  1  0
 25 26  2  0
 26 27  1  0
 23 28  1  0
 27 28  2  0
  5 29  1  0
 22 29  1  0
M  END
