x0831-x0734
     RDKit          3D

 27 29  0  0  0  0  0  0  0  0999 V2000
    5.1780   -4.8050   26.2920 N   0  0  0  0  0  0  0  0  0  0  0  0
    4.5190   -5.6010   25.6040 O   0  0  0  0  0  0  0  0  0  0  0  0
    4.7400   -3.7530   26.7800 O   0  0  0  0  0  0  0  0  0  0  0  0
    5.0690   -4.0480   19.5950 O   0  0  0  0  0  0  0  0  0  0  0  0
    6.1980   -3.7640   19.9640 C   0  0  0  0  0  0  0  0  0  0  0  0
    7.1730   -3.1280   19.0090 C   0  0  0  0  0  0  0  0  0  0  0  0
    6.5530   -5.0280   26.3610 C   0  0  0  0  0  0  0  0  0  0  0  0
    7.3750   -4.7040   25.1060 C   0  0  0  0  0  0  0  0  0  0  0  0
    8.7030   -4.9490   25.2410 C   0  0  0  0  0  0  0  0  0  0  0  0
    9.3500   -5.4960   26.4940 C   0  0  0  0  0  0  0  0  0  0  0  0
    8.5310   -5.7600   27.5970 C   0  0  0  0  0  0  0  0  0  0  0  0
    7.1500   -5.5270   27.5270 C   0  0  0  0  0  0  0  0  0  0  0  0
    6.6520   -4.0620   21.2250 N   0  0  0  0  0  0  0  0  0  0  0  0
    6.4840   -5.3370   21.9230 C   0  0  0  0  0  0  0  0  0  0  0  0
    5.9400   -5.0970   23.1730 C   0  0  0  0  0  0  0  0  0  0  0  0
    6.8680   -4.2180   23.9290 N   0  0  0  0  0  0  0  0  0  0  0  0
    7.3770   -3.1380   23.2690 C   0  0  2  0  0  0  0  0  0  0  0  0
    7.6560   -3.2390   21.9210 C   0  0  0  0  0  0  0  0  0  0  0  0
   12.4200   -2.1590   22.0450 C   0  0  0  0  0  0  0  0  0  0  0  0
    9.9500   -2.5210   23.1850 C   0  0  0  0  0  0  0  0  0  0  0  0
   12.0210   -0.8650   22.7240 C   0  0  0  0  0  0  0  0  0  0  0  0
   10.6540   -1.1800   23.3090 C   0  0  0  0  0  0  0  0  0  0  0  0
   10.0840    0.0300   24.0430 C   0  0  0  0  0  0  0  0  0  0  0  0
   10.8610    1.3680   24.1210 C   0  0  0  0  0  0  0  0  0  0  0  0
   12.1310    1.5090   23.5210 C   0  0  0  0  0  0  0  0  0  0  0  0
   12.7080    0.4300   22.8440 C   0  0  0  0  0  0  0  0  0  0  0  0
    8.6290   -2.5730   23.9900 C   0  0  0  0  0  0  0  0  0  0  0  0
  1  2  2  0
  1  3  1  0
  4  5  2  0
  5  6  1  0
  1  7  1  0
  7  8  2  0
  8  9  1  0
  9 10  2  0
 10 11  1  0
  7 12  1  0
 11 12  2  0
  5 13  1  0
 13 14  1  0
 14 15  1  0
  8 16  1  0
 15 16  1  0
 16 17  1  0
 13 18  1  0
 17 18  1  0
 19 21  1  0
 20 22  1  0
 21 22  2  0
 22 23  1  0
 23 24  2  0
 24 25  1  0
 21 26  1  0
 25 26  2  0
 17 27  1  1
 20 27  1  0
M  CHG  2   1   1   3  -1
M  END
