x0874-x2705
     RDKit          3D

 36 39  0  0  0  0  0  0  0  0999 V2000
    6.4140   -1.7330   21.9440 N   0  0  0  0  0  0  0  0  0  0  0  0
    6.2650   -4.4830   19.9970 C   0  0  0  0  0  0  0  0  0  0  0  0
    4.3540   -2.9250   21.7830 O   0  0  0  0  0  0  0  0  0  0  0  0
    6.2610   -4.2210   21.4910 C   0  0  0  0  0  0  0  0  0  0  0  0
    5.8960    1.8570   22.7140 N   0  0  0  0  0  0  0  0  0  0  0  0
    7.7300    0.6980   22.7900 O   0  0  0  0  0  0  0  0  0  0  0  0
    5.5890   -2.8970   21.7510 C   0  0  0  0  0  0  0  0  0  0  0  0
    5.8690   -0.4060   21.9270 C   0  0  1  0  0  0  0  0  0  0  0  0
    6.4920    0.6340   22.8310 C   0  0  2  0  0  0  0  0  0  0  0  0
    8.3520    2.5160   24.4440 C   0  0  0  0  0  0  0  0  0  0  0  0
    7.7370    2.8890   25.6510 C   0  0  0  0  0  0  0  0  0  0  0  0
    5.0720    3.7160   20.6470 C   0  0  0  0  0  0  0  0  0  0  0  0
   10.6090   -2.0530   22.6380 C   0  0  0  0  0  0  0  0  0  0  0  0
   10.1290   -0.7100   22.6970 C   0  0  0  0  0  0  0  0  0  0  0  0
    9.9510   -2.7500   21.4400 C   0  0  0  0  0  0  0  0  0  0  0  0
    6.3390    0.1080   24.1950 N   0  0  0  0  0  0  0  0  0  0  0  0
    6.1590    0.4340   18.0450 N   0  0  0  0  0  0  0  0  0  0  0  0
    4.9720    1.0640   17.7960 C   0  0  0  0  0  0  0  0  0  0  0  0
    3.9590    1.2990   18.7460 C   0  0  0  0  0  0  0  0  0  0  0  0
    4.1470    0.8360   20.1850 C   0  0  0  0  0  0  0  0  0  0  0  0
    5.4640    0.1200   20.5510 C   0  0  0  0  0  0  0  0  0  0  0  0
    6.4370   -0.0220   19.3020 C   0  0  0  0  0  0  0  0  0  0  0  0
    9.9710   -2.3550   23.7310 N   0  0  0  0  0  0  0  0  0  0  0  0
    8.4730   -2.2230   23.4680 N   0  0  0  0  0  0  0  0  0  0  0  0
    7.8490   -1.8870   22.2690 C   0  0  0  0  0  0  0  0  0  0  0  0
    8.9020   -1.7380   21.5150 C   0  0  0  0  0  0  0  0  0  0  0  0
   10.1160   -1.9680   22.1850 C   0  0  0  0  0  0  0  0  0  0  0  0
    7.7940    3.3800   23.3160 C   0  0  0  0  0  0  0  0  0  0  0  0
    8.4830    4.5650   23.0800 C   0  0  0  0  0  0  0  0  0  0  0  0
    8.0700    5.4480   22.0780 C   0  0  0  0  0  0  0  0  0  0  0  0
    6.9520    5.1250   21.3200 C   0  0  0  0  0  0  0  0  0  0  0  0
    6.2510    3.9460   21.5360 C   0  0  0  0  0  0  0  0  0  0  0  0
    6.6400    3.0520   22.5150 C   0  0  0  0  0  0  0  0  0  0  0  0
   11.3600   -1.8620   21.4910 C   0  0  0  0  0  0  0  0  0  0  0  0
   12.3590   -2.2100   22.6930 S   0  0  0  0  0  0  0  0  0  0  0  0
   11.3630   -2.4780   23.9740 C   0  0  0  0  0  0  0  0  0  0  0  0
  2  4  1  0
  1  7  1  0
  3  7  2  0
  4  7  1  0
  8  1  1  6
  5  9  1  0
  9  6  1  0
  8  9  1  0
 10 11  1  0
 13 14  1  0
 13 15  1  0
  9 16  1  1
 17 18  2  0
 18 19  1  0
 19 20  2  0
  8 21  1  0
 20 21  1  0
 17 22  1  0
 21 22  2  0
 23 24  1  0
  1 25  1  0
 24 25  1  0
 25 26  2  0
 23 27  1  0
 26 27  1  0
 10 28  1  0
 28 29  2  0
 29 30  1  0
 30 31  2  0
 12 32  1  0
 31 32  1  0
  5 33  1  0
 28 33  1  0
 32 33  2  0
 27 34  2  0
 13 35  1  0
 34 35  1  0
 23 36  1  0
 35 36  2  0
M  END
