x0874-x2643
     RDKit          3D

 21 24  0  0  0  0  0  0  0  0999 V2000
    8.6170   -0.7250   20.8040 N   0  0  0  0  0  0  0  0  0  0  0  0
    9.9290    0.9170   22.1030 C   0  0  0  0  0  0  0  0  0  0  0  0
    9.4240   -0.4880   21.8940 C   0  0  0  0  0  0  0  0  0  0  0  0
   10.6810    3.6860   22.1930 N   0  0  0  0  0  0  0  0  0  0  0  0
   10.5020    2.2450   22.4380 C   0  0  0  0  0  0  0  0  0  0  0  0
   11.4090   -1.3210   24.7240 C   0  0  2  0  0  0  0  0  0  0  0  0
   11.9930   -2.4550   24.1730 C   0  0  1  0  0  0  0  0  0  0  0  0
   11.2960   -1.7110   23.1320 C   0  0  2  0  0  0  0  0  0  0  0  0
   12.0760   -0.8720   22.2480 C   0  0  0  0  0  0  0  0  0  0  0  0
   12.2940   -0.2010   23.8520 S   0  0  0  0  0  0  0  0  0  0  0  0
    6.4530    0.3230   18.2530 N   0  0  0  0  0  0  0  0  0  0  0  0
    7.2440   -0.2860   18.8860 C   0  0  0  0  0  0  0  0  0  0  0  0
    7.6450    0.0960   20.1910 C   0  0  0  0  0  0  0  0  0  0  0  0
    7.0860    1.2330   20.8050 C   0  0  0  0  0  0  0  0  0  0  0  0
    6.1480    1.9880   20.1020 C   0  0  0  0  0  0  0  0  0  0  0  0
    5.8490    1.5230   18.8170 C   0  0  0  0  0  0  0  0  0  0  0  0
   10.1000   -1.3520   24.4100 C   0  0  0  0  0  0  0  0  0  0  0  0
    8.7280   -1.3850   24.0780 C   0  0  0  0  0  0  0  0  0  0  0  0
    9.7790   -1.6120   22.8660 C   0  0  1  0  0  0  0  0  0  0  0  0
   13.9990   -2.7510   25.7500 Cl  0  0  0  0  0  0  0  0  0  0  0  0
   13.4790   -2.5450   24.1290 C   0  0  0  0  0  0  0  0  0  0  0  0
  1  3  1  0
  2  3  2  0
  2  5  2  0
  4  5  1  0
  6  7  1  0
  6  8  1  0
  7  8  1  0
  8  9  1  6
  6 10  1  0
  9 10  2  0
 11 12  2  0
  1 13  1  0
 12 13  1  0
 13 14  2  0
 14 15  1  0
 11 16  1  0
 15 16  2  0
  6 17  1  1
 17 18  2  0
 19  3  1  6
  8 19  1  0
 18 19  1  0
  7 21  1  6
 20 21  1  0
M  END
