x0874-x2569
     RDKit          3D

 22 25  0  0  0  0  0  0  0  0999 V2000
    7.2500   -0.9700   22.3350 C   0  0  0  0  0  0  0  0  0  0  0  0
    8.0970    0.3230   22.2540 C   0  0  0  0  0  0  0  0  0  0  0  0
   13.0800   -1.9620   21.6330 N   0  0  0  0  0  0  0  0  0  0  0  0
    6.0920   -0.9660   21.5160 N   0  0  0  0  0  0  0  0  0  0  0  0
   11.7130   -1.6650   22.0440 C   0  0  0  0  0  0  0  0  0  0  0  0
    8.2790    2.4560   21.2750 N   0  0  0  0  0  0  0  0  0  0  0  0
    8.7520    1.4700   22.1130 C   0  0  0  0  0  0  0  0  0  0  0  0
    8.2200   -0.3040   22.4140 C   0  0  1  0  0  0  0  0  0  0  0  0
    9.5270   -0.5640   21.6920 C   0  0  0  0  0  0  0  0  0  0  0  0
   10.3930   -1.3560   22.4320 C   0  0  0  0  0  0  0  0  0  0  0  0
    9.7660   -1.7910   23.6010 C   0  0  0  0  0  0  0  0  0  0  0  0
    8.4430   -1.3390   23.7420 C   0  0  1  0  0  0  0  0  0  0  0  0
    8.2270   -0.0410   23.7170 C   0  0  0  0  0  0  0  0  0  0  0  0
    6.2320    0.4060   17.9380 N   0  0  0  0  0  0  0  0  0  0  0  0
    6.4820   -0.3040   19.0790 C   0  0  0  0  0  0  0  0  0  0  0  0
    5.7790   -0.1730   20.3050 C   0  0  0  0  0  0  0  0  0  0  0  0
    4.7190    0.7250   20.4750 C   0  0  0  0  0  0  0  0  0  0  0  0
    4.3060    1.5970   19.2940 C   0  0  0  0  0  0  0  0  0  0  0  0
    5.1160    1.4030   17.9990 C   0  0  0  0  0  0  0  0  0  0  0  0
    6.9120   -0.7910   21.7000 C   0  0  0  0  0  0  0  0  0  0  0  0
    6.5710   -2.2320   22.2040 C   0  0  0  0  0  0  0  0  0  0  0  0
    7.4600   -2.2070   23.1690 C   0  0  0  0  0  0  0  0  0  0  0  0
  1  2  2  0
  1  4  1  0
  3  5  3  0
  2  7  2  0
  6  7  1  0
  8  9  1  6
  5 10  1  0
  9 10  1  0
 10 11  2  0
  8 12  1  0
 12 11  1  6
  8 13  1  0
 12 13  1  0
 14 15  2  0
  4 16  1  0
 15 16  1  0
 16 17  2  0
 17 18  1  0
 14 19  1  0
 18 19  2  0
  8 20  1  0
 20 21  1  0
  1 22  1  0
 12 22  1  0
 21 22  2  0
M  END
