x0874-x0708
     RDKit          3D

 21 22  0  0  0  0  0  0  0  0999 V2000
    6.6200   -4.5520   21.1870 N   0  0  0  0  0  0  0  0  0  0  0  0
    7.2890   -3.1170   19.2330 C   0  0  0  0  0  0  0  0  0  0  0  0
    5.1090   -3.9890   19.5990 O   0  0  0  0  0  0  0  0  0  0  0  0
    6.2530   -3.9000   20.0160 C   0  0  0  0  0  0  0  0  0  0  0  0
    7.6920   -4.0950   21.9520 N   0  0  0  0  0  0  0  0  0  0  0  0
    6.2920   -2.6730   23.3600 O   0  0  0  0  0  0  0  0  0  0  0  0
    7.4880   -2.9100   22.7810 C   0  0  0  0  0  0  0  0  0  0  0  0
    8.6950   -2.0130   22.8940 C   0  0  0  0  0  0  0  0  0  0  0  0
   10.0020   -2.4430   22.4190 C   0  0  0  0  0  0  0  0  0  0  0  0
   11.0170   -1.4340   22.6150 C   0  0  0  0  0  0  0  0  0  0  0  0
   10.4990   -0.2930   23.1930 C   0  0  0  0  0  0  0  0  0  0  0  0
    8.7930   -0.4440   23.5340 S   0  0  0  0  0  0  0  0  0  0  0  0
   12.5120   -1.3770   22.3070 C   0  0  0  0  0  0  0  0  0  0  0  0
   13.2170   -0.2300   22.6100 C   0  0  0  0  0  0  0  0  0  0  0  0
   12.5940    0.8620   23.1730 C   0  0  0  0  0  0  0  0  0  0  0  0
   11.2470    0.8170   23.4520 C   0  0  0  0  0  0  0  0  0  0  0  0
    8.3590    3.7360   22.2120 N   0  0  0  0  0  0  0  0  0  0  0  0
    9.3300    2.7010   22.0200 C   0  0  0  0  0  0  0  0  0  0  0  0
    9.1130    1.7800   21.2470 O   0  0  0  0  0  0  0  0  0  0  0  0
   10.6190    1.9940   24.0070 C   0  0  0  0  0  0  0  0  0  0  0  0
   10.5590    2.9540   22.8420 C   0  0  0  0  0  0  0  0  0  0  0  0
  1  4  1  0
  2  4  1  0
  3  4  2  0
  1  5  1  0
  5  7  1  0
  6  7  2  0
  7  8  1  0
  8  9  2  0
  9 10  1  0
 10 11  2  0
  8 12  1  0
 11 12  1  0
 10 13  1  0
 13 14  2  0
 14 15  1  0
 11 16  1  0
 15 16  2  0
 17 18  1  0
 18 19  2  0
 16 20  1  0
 18 21  1  0
 20 21  1  0
M  END
