x0946-x0978-x3110-x0691
     RDKit          3D

 63 67  0  0  0  0  0  0  0  0999 V2000
    7.9820    1.3190   23.5420 N   0  0  0  0  0  0  0  0  0  0  0  0
   13.4210    5.3300   23.2190 C   0  0  0  0  0  0  0  0  0  0  0  0
   12.9970    4.3800   22.1780 C   0  0  0  0  0  0  0  0  0  0  0  0
    7.1710   -1.4130   22.0860 N   0  0  0  0  0  0  0  0  0  0  0  0
   10.2830    4.8190   23.2490 C   0  0  0  0  0  0  0  0  0  0  0  0
    8.6670    1.6490   21.3200 O   0  0  0  0  0  0  0  0  0  0  0  0
    8.7980    2.2730   24.1390 C   0  0  0  0  0  0  0  0  0  0  0  0
    7.9190    1.0770   22.1490 C   0  0  0  0  0  0  0  0  0  0  0  0
    6.8080    0.0350   21.7900 C   0  0  1  0  0  0  0  0  0  0  0  0
   12.4830   -1.8910   24.1800 C   0  0  0  0  0  0  0  0  0  0  0  0
   12.6670   -0.6400   25.0250 C   0  0  0  0  0  0  0  0  0  0  0  0
   13.4960   -1.9910   23.0550 C   0  0  0  0  0  0  0  0  0  0  0  0
   12.7790   -3.0760   25.0770 C   0  0  0  0  0  0  0  0  0  0  0  0
    9.0070    5.0550   22.6870 N   0  0  0  0  0  0  0  0  0  0  0  0
   10.1060    5.2930   24.5660 O   0  0  0  0  0  0  0  0  0  0  0  0
   11.1150    5.7160   22.5670 O   0  0  0  0  0  0  0  0  0  0  0  0
    2.0380   -5.6130   23.1200 N   0  0  0  0  0  0  0  0  0  0  0  0
    2.1450   -7.4090   25.1580 C   0  0  0  0  0  0  0  0  0  0  0  0
    4.4030   -7.9810   24.4790 O   0  0  0  0  0  0  0  0  0  0  0  0
    3.1590   -7.5420   24.0210 C   0  0  2  0  0  0  0  0  0  0  0  0
    0.8180   -7.2010   21.9900 O   0  0  0  0  0  0  0  0  0  0  0  0
    3.3110   -6.3900   23.0220 C   0  0  2  0  0  0  0  0  0  0  0  0
    4.2170   -4.1910   22.5170 O   0  0  0  0  0  0  0  0  0  0  0  0
    0.8650   -6.1420   22.6090 C   0  0  0  0  0  0  0  0  0  0  0  0
   -0.3920   -5.3150   22.8600 C   0  0  0  0  0  0  0  0  0  0  0  0
    6.4260   -4.2630   20.0610 C   0  0  0  0  0  0  0  0  0  0  0  0
    5.3250   -3.5000   19.3860 C   0  0  0  0  0  0  0  0  0  0  0  0
    6.2380   -2.1880   22.7790 C   0  0  0  0  0  0  0  0  0  0  0  0
    5.4440   -3.2430   21.9900 C   0  0  0  0  0  0  0  0  0  0  0  0
    4.2160   -6.8930   26.0190 O   0  0  0  0  0  0  0  0  0  0  0  0
    5.7890   -4.8060   26.6310 O   0  0  0  0  0  0  0  0  0  0  0  0
    3.2280   -0.5250   25.9860 F   0  0  0  0  0  0  0  0  0  0  0  0
    4.8460   -5.3370   25.6870 S   0  0  0  0  0  0  0  0  0  0  0  0
    6.3900    0.2070   17.9760 N   0  0  0  0  0  0  0  0  0  0  0  0
    5.3120    1.0380   17.9000 C   0  0  0  0  0  0  0  0  0  0  0  0
    4.6620    1.5700   19.0070 C   0  0  0  0  0  0  0  0  0  0  0  0
    5.2060    1.1900   20.2450 C   0  0  0  0  0  0  0  0  0  0  0  0
    6.3040    0.3530   20.3910 C   0  0  0  0  0  0  0  0  0  0  0  0
    6.8600   -0.1180   19.2080 C   0  0  0  0  0  0  0  0  0  0  0  0
    9.4660   -1.7090   21.7030 C   0  0  0  0  0  0  0  0  0  0  0  0
   10.7690   -1.8350   22.0740 C   0  0  0  0  0  0  0  0  0  0  0  0
   11.1190   -1.8070   23.5620 C   0  0  0  0  0  0  0  0  0  0  0  0
   10.0360   -1.6650   24.4290 C   0  0  0  0  0  0  0  0  0  0  0  0
    8.7270   -1.5470   23.9620 C   0  0  0  0  0  0  0  0  0  0  0  0
    8.4440   -1.5600   22.5940 C   0  0  0  0  0  0  0  0  0  0  0  0
   12.1860    0.9030   23.2260 C   0  0  0  0  0  0  0  0  0  0  0  0
   12.8390    2.0390   22.7690 C   0  0  0  0  0  0  0  0  0  0  0  0
   12.1890    3.2580   22.7570 C   0  0  0  0  0  0  0  0  0  0  0  0
   10.8990    3.3980   23.2340 C   0  0  0  0  0  0  0  0  0  0  0  0
   10.2310    2.2500   23.6680 C   0  0  0  0  0  0  0  0  0  0  0  0
   10.8600    1.0100   23.6740 C   0  0  0  0  0  0  0  0  0  0  0  0
    2.8650   -1.8090   25.8820 C   0  0  0  0  0  0  0  0  0  0  0  0
    3.8520   -2.8050   25.8350 C   0  0  0  0  0  0  0  0  0  0  0  0
    3.5030   -4.1630   25.7270 C   0  0  0  0  0  0  0  0  0  0  0  0
    2.1700   -4.6320   25.6530 C   0  0  0  0  0  0  0  0  0  0  0  0
    1.0740   -3.5790   25.7000 C   0  0  0  0  0  0  0  0  0  0  0  0
    1.5090   -2.1300   25.8220 C   0  0  0  0  0  0  0  0  0  0  0  0
    6.1680   -4.5870   21.6130 C   0  0  1  0  0  0  0  0  0  0  0  0
    5.4560   -5.9800   21.7240 C   0  0  0  0  0  0  0  0  0  0  0  0
    4.6650   -5.4940   22.8630 C   0  0  2  0  0  0  0  0  0  0  0  0
    5.5070   -5.3610   24.1000 N   0  0  0  0  0  0  0  0  0  0  0  0
    6.9300   -4.8780   23.9230 C   0  0  0  0  0  0  0  0  0  0  0  0
    7.3430   -4.7760   22.5870 C   0  0  0  0  0  0  0  0  0  0  0  0
  2  3  1  0
  1  7  1  0
  1  8  1  0
  6  8  2  0
  4  9  1  0
  9  8  1  6
 10 11  1  0
 10 12  1  0
 10 13  1  0
  5 14  1  0
  5 15  1  0
  5 16  1  0
 20 18  1  1
 19 20  1  0
 22 17  1  1
 20 22  1  0
 17 24  1  0
 21 24  2  0
 24 25  1  0
 26 27  2  3
  4 28  1  0
 28 29  1  0
 30 33  2  0
 31 33  2  0
 34 35  2  0
 35 36  1  0
 36 37  2  0
  9 38  1  0
 37 38  1  0
 34 39  1  0
 38 39  2  0
 40 41  2  0
 10 42  1  0
 41 42  1  0
 42 43  2  0
 43 44  1  0
  4 45  1  0
 40 45  1  0
 44 45  2  0
 46 47  2  0
  3 48  1  0
 47 48  1  0
  5 49  1  0
 48 49  2  0
  7 50  1  0
 49 50  1  0
 46 51  1  0
 50 51  2  0
 32 52  1  0
 52 53  2  0
 33 54  1  0
 53 54  1  0
 54 55  2  0
 55 56  1  0
 52 57  1  0
 56 57  2  0
 58 26  1  6
 29 58  1  0
 58 59  1  0
 22 60  1  0
 60 23  1  6
 59 60  1  0
 33 61  1  0
 60 61  1  0
 61 62  1  0
 58 63  1  0
 62 63  1  0
M  END
