x0946-x3077
     RDKit          3D

 26 29  0  0  0  0  0  0  0  0999 V2000
    6.9860   -3.2330   19.3230 C   0  0  0  0  0  0  0  0  0  0  0  0
    5.4790   -4.8930   20.0160 O   0  0  0  0  0  0  0  0  0  0  0  0
   13.1420   -2.0970   21.1250 Cl  0  0  0  0  0  0  0  0  0  0  0  0
    6.2600   -4.0150   20.4000 C   0  0  0  0  0  0  0  0  0  0  0  0
    9.5030   -2.1430   24.2780 C   0  0  0  0  0  0  0  0  0  0  0  0
    9.0620    4.9770   22.5230 N   0  0  0  0  0  0  0  0  0  0  0  0
    9.9300    5.2570   24.5910 O   0  0  0  0  0  0  0  0  0  0  0  0
   11.2700    5.9930   22.6130 O   0  0  0  0  0  0  0  0  0  0  0  0
   10.3990    5.0210   23.2420 S   0  0  0  0  0  0  0  0  0  0  0  0
    6.4840   -3.7550   21.7630 N   0  0  0  0  0  0  0  0  0  0  0  0
    7.2330   -4.5710   22.5700 C   0  0  0  0  0  0  0  0  0  0  0  0
    7.6040   -3.7940   23.6990 C   0  0  2  0  0  0  0  0  0  0  0  0
    6.6020   -2.8090   23.7460 C   0  0  0  0  0  0  0  0  0  0  0  0
    6.6150   -2.5580   22.4000 C   0  0  1  0  0  0  0  0  0  0  0  0
    8.6550   -2.8230   23.2640 N   0  0  0  0  0  0  0  0  0  0  0  0
    8.0700   -2.0290   22.2830 C   0  0  0  0  0  0  0  0  0  0  0  0
   10.8100    0.1070   24.0400 C   0  0  0  0  0  0  0  0  0  0  0  0
   11.5640    0.8780   23.1420 C   0  0  2  0  0  0  0  0  0  0  0  0
   12.3720    0.0730   22.3840 C   0  0  0  0  0  0  0  0  0  0  0  0
   12.0310   -1.1810   22.0110 C   0  0  0  0  0  0  0  0  0  0  0  0
   10.8160   -1.6580   22.3540 C   0  0  0  0  0  0  0  0  0  0  0  0
   10.3960   -1.1910   23.5760 C   0  0  0  0  0  0  0  0  0  0  0  0
   12.5910    1.8070   23.3330 C   0  0  0  0  0  0  0  0  0  0  0  0
   12.3800    3.1890   23.3000 C   0  0  0  0  0  0  0  0  0  0  0  0
   11.1060    3.4630   23.1530 C   0  0  0  0  0  0  0  0  0  0  0  0
   10.5440    2.0300   22.9360 C   0  0  0  0  0  0  0  0  0  0  0  0
  1  4  1  0
  2  4  2  0
  9  6  1  0
  7  9  2  0
  8  9  2  0
  4 10  1  0
 10 11  1  0
 12 11  1  6
 12 13  1  0
 10 14  1  0
 13 14  1  0
  5 15  1  0
 12 15  1  0
 14 16  1  6
 15 16  1  0
 18 17  1  1
 18 19  1  0
  3 20  1  0
 19 20  2  0
 20 21  1  0
  5 22  1  0
 17 22  2  0
 21 22  1  0
 18 23  1  0
 23 24  2  0
  9 25  1  0
 24 25  1  0
 18 26  1  0
 25 26  2  0
M  END
