x0946-x0426-x3110-x1458
     RDKit          3D

 63 68  0  0  0  0  0  0  0  0999 V2000
    8.0860    1.0190   23.2630 N   0  0  0  0  0  0  0  0  0  0  0  0
   13.9810    5.1320   22.5980 C   0  0  0  0  0  0  0  0  0  0  0  0
   12.5410    5.0960   22.7740 C   0  0  0  0  0  0  0  0  0  0  0  0
    7.1090   -1.5750   21.5420 C   0  0  2  0  0  0  0  0  0  0  0  0
   10.0420    4.8930   23.6300 C   0  0  0  0  0  0  0  0  0  0  0  0
    8.6910    1.5120   21.0750 O   0  0  0  0  0  0  0  0  0  0  0  0
    5.2840   -3.7410   20.6510 O   0  0  0  0  0  0  0  0  0  0  0  0
    8.7780    2.0120   23.9980 C   0  0  0  0  0  0  0  0  0  0  0  0
    7.9580    0.8980   21.8670 C   0  0  0  0  0  0  0  0  0  0  0  0
    6.8150   -0.0350   21.3750 C   0  0  1  0  0  0  0  0  0  0  0  0
    6.0180   -2.7050   20.9810 C   0  0  0  0  0  0  0  0  0  0  0  0
    8.2170   -4.4470   21.0830 C   0  0  0  0  0  0  0  0  0  0  0  0
   12.4630   -1.8540   24.0560 C   0  0  0  0  0  0  0  0  0  0  0  0
   12.6360   -0.6110   24.9330 C   0  0  0  0  0  0  0  0  0  0  0  0
   13.4400   -1.8110   22.9800 C   0  0  0  0  0  0  0  0  0  0  0  0
   12.8010   -3.0270   24.9650 C   0  0  0  0  0  0  0  0  0  0  0  0
    2.3550    1.7720   23.8380 C   0  0  0  0  0  0  0  0  0  0  0  0
    2.2230    0.5520   23.7270 O   0  0  0  0  0  0  0  0  0  0  0  0
    3.4530    2.4480   23.3440 N   0  0  0  0  0  0  0  0  0  0  0  0
    4.4500    1.8110   22.5070 C   0  0  0  0  0  0  0  0  0  0  0  0
    3.8490    1.4170   21.1510 C   0  0  0  0  0  0  0  0  0  0  0  0
    2.8140    4.2800   25.2070 F   0  0  0  0  0  0  0  0  0  0  0  0
    8.5980    4.8540   23.6560 N   0  0  0  0  0  0  0  0  0  0  0  0
   10.4120    5.8570   22.7120 O   0  0  0  0  0  0  0  0  0  0  0  0
   10.4790    5.6190   24.7310 O   0  0  0  0  0  0  0  0  0  0  0  0
    6.1700   -3.9380   26.7630 N   0  0  0  0  0  0  0  0  0  0  0  0
    7.0270   -5.0310   28.7000 C   0  0  0  0  0  0  0  0  0  0  0  0
    4.1060   -3.7810   25.8080 O   0  0  0  0  0  0  0  0  0  0  0  0
    6.2860   -5.1320   27.5220 C   0  0  0  0  0  0  0  0  0  0  0  0
    4.9560   -5.8490   27.6880 C   0  0  0  0  0  0  0  0  0  0  0  0
    6.3640   -2.7640   27.4230 C   0  0  0  0  0  0  0  0  0  0  0  0
    5.3120   -3.9510   25.6610 C   0  0  0  0  0  0  0  0  0  0  0  0
    6.3380   -1.8680   22.7770 C   0  0  0  0  0  0  0  0  0  0  0  0
    6.4130    0.7460   17.7510 N   0  0  0  0  0  0  0  0  0  0  0  0
    5.2390    1.3760   17.6530 C   0  0  0  0  0  0  0  0  0  0  0  0
    4.4830    1.5480   18.7790 C   0  0  0  0  0  0  0  0  0  0  0  0
    4.8640    1.1220   20.0590 C   0  0  0  0  0  0  0  0  0  0  0  0
    6.1090    0.4930   20.1640 C   0  0  0  0  0  0  0  0  0  0  0  0
    6.8000    0.3400   18.9520 C   0  0  0  0  0  0  0  0  0  0  0  0
    9.6740   -1.2460   21.6030 C   0  0  0  0  0  0  0  0  0  0  0  0
   10.9280   -1.3120   22.1950 C   0  0  0  0  0  0  0  0  0  0  0  0
   11.0790   -1.8550   23.4330 C   0  0  0  0  0  0  0  0  0  0  0  0
    9.9710   -2.3430   24.0420 C   0  0  0  0  0  0  0  0  0  0  0  0
    8.6890   -2.3020   23.4850 C   0  0  0  0  0  0  0  0  0  0  0  0
    8.5180   -1.7350   22.2350 C   0  0  0  0  0  0  0  0  0  0  0  0
    1.5730    3.7820   25.1940 C   0  0  0  0  0  0  0  0  0  0  0  0
    1.3020    2.5670   24.5420 C   0  0  0  0  0  0  0  0  0  0  0  0
   -0.1340    2.0080   24.5370 C   0  0  0  0  0  0  0  0  0  0  0  0
   -1.2270    2.8100   25.2540 C   0  0  0  0  0  0  0  0  0  0  0  0
   -0.8650    4.0090   25.8770 C   0  0  0  0  0  0  0  0  0  0  0  0
    0.5860    4.5180   25.8480 C   0  0  0  0  0  0  0  0  0  0  0  0
   12.3600    1.3290   22.9530 C   0  0  0  0  0  0  0  0  0  0  0  0
   12.8600    2.6140   22.7620 C   0  0  0  0  0  0  0  0  0  0  0  0
   12.0410    3.7030   22.9870 C   0  0  0  0  0  0  0  0  0  0  0  0
   10.7530    3.5420   23.4040 C   0  0  0  0  0  0  0  0  0  0  0  0
   10.2210    2.2600   23.5800 C   0  0  0  0  0  0  0  0  0  0  0  0
   11.0320    1.1490   23.3610 C   0  0  0  0  0  0  0  0  0  0  0  0
    6.8800   -3.8660   21.6820 C   0  0  1  0  0  0  0  0  0  0  0  0
    7.1910   -3.0570   22.9150 C   0  0  2  0  0  0  0  0  0  0  0  0
    7.1700   -3.8140   24.1850 C   0  0  0  0  0  0  0  0  0  0  0  0
    5.8620   -4.0810   24.2360 C   0  0  1  0  0  0  0  0  0  0  0  0
    5.4410   -5.1240   23.4170 C   0  0  0  0  0  0  0  0  0  0  0  0
    6.0660   -5.1540   22.1350 C   0  0  0  0  0  0  0  0  0  0  0  0
  2  3  1  0
  1  8  1  0
  1  9  1  0
  6  9  2  0
  4 10  1  0
 10  9  1  6
  4 11  1  0
  7 11  2  0
 13 14  1  0
 13 15  1  0
 13 16  1  0
 17 18  2  0
 17 19  1  0
 19 20  1  0
 20 21  1  0
  5 23  1  0
  5 24  1  0
  5 25  1  0
 26 29  1  0
 27 29  1  0
 29 30  1  0
 26 31  1  0
 26 32  1  0
 28 32  2  0
  4 33  1  0
 34 35  2  0
 35 36  1  0
 21 37  1  0
 36 37  2  0
 10 38  1  0
 37 38  1  0
 34 39  1  0
 38 39  2  0
 40 41  2  0
 13 42  1  0
 41 42  1  0
 42 43  2  0
 43 44  1  0
  4 45  1  1
 40 45  1  0
 44 45  2  0
 22 46  1  0
 17 47  1  0
 46 47  2  0
 47 48  1  0
 48 49  2  0
 49 50  1  0
 46 51  1  0
 50 51  2  0
 52 53  2  0
  3 54  1  0
 53 54  1  0
  5 55  1  0
 54 55  2  0
  8 56  1  0
 55 56  1  0
 52 57  1  0
 56 57  2  0
 11 58  1  0
 58 12  1  6
 59 33  1  1
 58 59  1  0
 59 60  1  0
 61 32  1  1
 60 61  1  0
 61 62  1  0
 58 63  1  0
 62 63  1  0
M  END
