x0946-x0104
     RDKit          3D

 16 17  0  0  0  0  0  0  0  0999 V2000
    9.0810    6.4930   22.6640 C   0  0  0  0  0  0  0  0  0  0  0  0
   10.3450    6.1100   23.4270 C   0  0  0  0  0  0  0  0  0  0  0  0
   10.4320    6.2570   24.6420 O   0  0  0  0  0  0  0  0  0  0  0  0
   11.3850    5.5730   22.5410 N   0  0  0  0  0  0  0  0  0  0  0  0
   12.6060    4.9460   23.0860 C   0  0  0  0  0  0  0  0  0  0  0  0
   12.7630    3.6310   22.6220 C   0  0  0  0  0  0  0  0  0  0  0  0
   13.5760   -1.9900   22.1520 F   0  0  0  0  0  0  0  0  0  0  0  0
   11.8640    2.6480   23.1230 C   0  0  0  0  0  0  0  0  0  0  0  0
   10.6440    2.8480   23.7790 C   0  0  0  0  0  0  0  0  0  0  0  0
    9.9630    1.5860   24.1550 N   0  0  0  0  0  0  0  0  0  0  0  0
   10.7110    0.5480   23.7520 C   0  0  0  0  0  0  0  0  0  0  0  0
   11.9920    1.0930   23.0620 C   0  0  0  0  0  0  0  0  0  0  0  0
   10.5430   -0.9910   23.8360 C   0  0  0  0  0  0  0  0  0  0  0  0
   11.5650   -1.7520   23.2660 C   0  0  0  0  0  0  0  0  0  0  0  0
   12.6820   -1.1690   22.6650 C   0  0  0  0  0  0  0  0  0  0  0  0
   12.9180    0.1930   22.5650 C   0  0  0  0  0  0  0  0  0  0  0  0
  1  2  1  0
  2  3  2  0
  2  4  1  0
  4  5  1  0
  5  6  1  0
  6  8  1  0
  8  9  2  0
  9 10  1  0
 10 11  1  0
  8 12  1  0
 11 12  2  0
 11 13  1  0
 13 14  2  0
  7 15  1  0
 14 15  1  0
 12 16  1  0
 15 16  2  0
M  END
