x0946-x3110-x0771-x1351
     RDKit          3D

 66 74  0  0  0  0  0  0  0  0999 V2000
    7.9680    0.9130   23.5330 N   0  0  0  0  0  0  0  0  0  0  0  0
   13.7550    5.1850   22.6330 C   0  0  0  0  0  0  0  0  0  0  0  0
   12.3490    5.1500   22.8550 C   0  0  0  0  0  0  0  0  0  0  0  0
    7.0430   -1.8740   21.8380 C   0  0  1  0  0  0  0  0  0  0  0  0
   10.1140    4.9340   23.6650 C   0  0  0  0  0  0  0  0  0  0  0  0
    8.4980    1.1220   21.3110 O   0  0  0  0  0  0  0  0  0  0  0  0
    4.9400   -3.0350   20.6000 O   0  0  0  0  0  0  0  0  0  0  0  0
    8.6570    2.0160   24.0730 C   0  0  0  0  0  0  0  0  0  0  0  0
    7.7810    0.5940   22.1710 C   0  0  0  0  0  0  0  0  0  0  0  0
    6.6360   -0.4190   21.8280 C   0  0  1  0  0  0  0  0  0  0  0  0
    6.1660   -2.9580   21.1370 C   0  0  0  0  0  0  0  0  0  0  0  0
    8.0560   -4.4000   21.0630 C   0  0  0  0  0  0  0  0  0  0  0  0
   12.4800   -1.6900   24.2240 C   0  0  0  0  0  0  0  0  0  0  0  0
   12.5340   -0.4330   24.9540 C   0  0  0  0  0  0  0  0  0  0  0  0
   13.3010   -1.2510   23.0850 C   0  0  0  0  0  0  0  0  0  0  0  0
   12.7840   -2.9570   24.8880 C   0  0  0  0  0  0  0  0  0  0  0  0
    9.0270    5.2880   22.8230 N   0  0  0  0  0  0  0  0  0  0  0  0
    9.7180    5.1970   24.7970 O   0  0  0  0  0  0  0  0  0  0  0  0
   11.1010    5.9110   23.5230 O   0  0  0  0  0  0  0  0  0  0  0  0
    0.6400   -1.5080   26.1030 C   0  0  0  0  0  0  0  0  0  0  0  0
    4.6300   -6.7510   25.4300 O   0  0  0  0  0  0  0  0  0  0  0  0
    6.0670   -5.0820   26.6080 O   0  0  0  0  0  0  0  0  0  0  0  0
    2.0670   -6.2230   25.5170 C   0  0  0  0  0  0  0  0  0  0  0  0
    5.1740   -5.4120   25.5280 S   0  0  0  0  0  0  0  0  0  0  0  0
    5.5030   -2.6350   25.7290 N   0  0  0  0  0  0  0  0  0  0  0  0
    7.0180   -3.2750   27.5580 O   0  0  0  0  0  0  0  0  0  0  0  0
    6.2400   -2.3580   26.7990 C   0  0  0  0  0  0  0  0  0  0  0  0
    6.4150    0.2720   18.0500 N   0  0  0  0  0  0  0  0  0  0  0  0
    5.3360    1.0100   17.9640 C   0  0  0  0  0  0  0  0  0  0  0  0
    4.5440    1.3740   19.0090 C   0  0  0  0  0  0  0  0  0  0  0  0
    4.9930    0.8780   20.2800 C   0  0  0  0  0  0  0  0  0  0  0  0
    6.1200    0.0960   20.4870 C   0  0  0  0  0  0  0  0  0  0  0  0
    6.8090   -0.1820   19.2760 C   0  0  0  0  0  0  0  0  0  0  0  0
    9.7260   -2.1980   21.7620 C   0  0  0  0  0  0  0  0  0  0  0  0
   10.9450   -2.1590   22.3010 C   0  0  0  0  0  0  0  0  0  0  0  0
   11.0980   -1.7490   23.5890 C   0  0  0  0  0  0  0  0  0  0  0  0
    9.9760   -1.3850   24.2750 C   0  0  0  0  0  0  0  0  0  0  0  0
    8.6900   -1.4110   23.7550 C   0  0  0  0  0  0  0  0  0  0  0  0
    8.5740   -1.8360   22.4430 C   0  0  0  0  0  0  0  0  0  0  0  0
   12.2890    1.4060   22.9110 C   0  0  0  0  0  0  0  0  0  0  0  0
   12.7130    2.7080   22.7660 C   0  0  0  0  0  0  0  0  0  0  0  0
   11.8520    3.7430   23.0470 C   0  0  0  0  0  0  0  0  0  0  0  0
   10.6290    3.4730   23.4630 C   0  0  0  0  0  0  0  0  0  0  0  0
   10.0990    2.2020   23.6220 C   0  0  0  0  0  0  0  0  0  0  0  0
   10.9610    1.1560   23.3400 C   0  0  0  0  0  0  0  0  0  0  0  0
    1.7620   -2.4850   25.9320 C   0  0  0  0  0  0  0  0  0  0  0  0
    1.4810   -3.8500   25.7930 C   0  0  0  0  0  0  0  0  0  0  0  0
    2.4560   -4.7770   25.6540 C   0  0  0  0  0  0  0  0  0  0  0  0
    3.7420   -4.2900   25.6580 C   0  0  0  0  0  0  0  0  0  0  0  0
    4.1360   -2.9940   25.7640 C   0  0  0  0  0  0  0  0  0  0  0  0
    3.1070   -2.0470   25.9110 C   0  0  0  0  0  0  0  0  0  0  0  0
    5.8030   -5.0790   21.3330 N   0  0  0  0  0  0  0  0  0  0  0  0
    6.2170   -6.2980   21.8880 C   0  0  0  0  0  0  0  0  0  0  0  0
    6.2160   -6.3670   23.2670 C   0  0  0  0  0  0  0  0  0  0  0  0
    5.9900   -5.1100   24.0620 N   0  0  0  0  0  0  0  0  0  0  0  0
    5.6800   -3.9080   23.2670 C   0  0  2  0  0  0  0  0  0  0  0  0
    4.9570   -4.6070   22.3310 C   0  0  1  0  0  0  0  0  0  0  0  0
    6.9100   -4.1040   21.4170 C   0  0  2  0  0  0  0  0  0  0  0  0
    6.8120   -3.3030   22.7920 C   0  0  1  0  0  0  0  0  0  0  0  0
    4.3460   -3.4640   23.2290 C   0  0  0  0  0  0  0  0  0  0  0  0
    6.9240   -0.5610   28.5660 C   0  0  0  0  0  0  0  0  0  0  0  0
    6.7510    0.7840   28.8970 C   0  0  0  0  0  0  0  0  0  0  0  0
    6.0000    1.6180   28.1310 C   0  0  0  0  0  0  0  0  0  0  0  0
    5.2330    1.3850   26.8690 C   0  0  0  0  0  0  0  0  0  0  0  0
    5.3250   -0.0400   26.3830 C   0  0  0  0  0  0  0  0  0  0  0  0
    6.1670   -0.9590   27.2580 C   0  0  0  0  0  0  0  0  0  0  0  0
  2  3  1  0
  1  8  1  0
  1  9  1  0
  6  9  2  0
  4 10  1  0
 10  9  1  6
  4 11  1  0
  7 11  2  0
 13 14  1  0
 13 15  1  0
 13 16  1  0
  5 17  1  0
  5 18  1  0
  5 19  1  0
 21 24  2  0
 22 24  2  0
 25 27  1  0
 26 27  2  0
 28 29  2  0
 29 30  1  0
 30 31  2  0
 10 32  1  0
 31 32  1  0
 28 33  1  0
 32 33  2  0
 34 35  2  0
 13 36  1  0
 35 36  1  0
 36 37  2  0
 37 38  1  0
  4 39  1  6
 34 39  1  0
 38 39  2  0
 40 41  2  0
  3 42  1  0
 41 42  1  0
  5 43  1  0
 42 43  2  0
  8 44  1  0
 43 44  1  0
 40 45  1  0
 44 45  2  0
 20 46  1  0
 46 47  2  0
 23 48  1  0
 47 48  1  0
 24 49  1  0
 48 49  2  0
 25 50  1  0
 49 50  1  0
 46 51  1  0
 50 51  2  0
 52 53  1  0
 53 54  1  0
 24 55  1  0
 54 55  1  0
 56 55  1  0
 52 57  1  0
 56 57  1  0
 11 58  1  0
 58 12  1  6
 52 58  1  0
  4 59  1  0
 56 59  1  0
 59 58  1  6
 56 60  1  1
 57 60  1  6
 61 62  2  0
 62 63  1  0
 63 64  2  0
 64 65  1  0
 27 66  1  0
 61 66  1  0
 65 66  2  0
M  END
