x0946-x2562
     RDKit          3D

 26 28  0  0  0  0  0  0  0  0999 V2000
    8.4360    0.0710   21.4220 C   0  0  0  0  0  0  0  0  0  0  0  0
    8.5700    1.2720   21.1160 O   0  0  0  0  0  0  0  0  0  0  0  0
    7.2120   -0.6820   20.9570 C   0  0  0  0  0  0  0  0  0  0  0  0
   12.0240    2.9570   23.3930 O   0  0  0  0  0  0  0  0  0  0  0  0
    9.2980   -0.7050   22.1630 N   0  0  0  0  0  0  0  0  0  0  0  0
   13.3830    7.1420   22.7080 O   0  0  0  0  0  0  0  0  0  0  0  0
    8.6820    5.1360   22.9210 N   0  0  0  0  0  0  0  0  0  0  0  0
   10.0440    5.3820   25.1670 O   0  0  0  0  0  0  0  0  0  0  0  0
   11.1190    5.7420   22.8450 N   0  0  0  0  0  0  0  0  0  0  0  0
   10.0940    4.8620   23.8100 S   0  0  0  0  0  0  0  0  0  0  0  0
    4.5920    1.6030   19.3400 N   0  0  0  0  0  0  0  0  0  0  0  0
    5.0270    1.4870   18.0580 C   0  0  0  0  0  0  0  0  0  0  0  0
    6.1500    0.6720   17.5990 N   0  0  0  0  0  0  0  0  0  0  0  0
    6.7650    0.0260   18.5890 C   0  0  0  0  0  0  0  0  0  0  0  0
    6.4050    0.0910   19.9280 C   0  0  0  0  0  0  0  0  0  0  0  0
    5.2960    0.9010   20.2310 C   0  0  0  0  0  0  0  0  0  0  0  0
   12.2120    5.0690   22.1080 N   0  0  0  0  0  0  0  0  0  0  0  0
   13.4890    5.8090   22.2430 C   0  0  2  0  0  0  0  0  0  0  0  0
   13.4650    4.8430   23.3780 C   0  0  0  0  0  0  0  0  0  0  0  0
   12.8670    3.8210   22.7410 C   0  0  1  0  0  0  0  0  0  0  0  0
   11.7950   -1.0700   22.2960 C   0  0  0  0  0  0  0  0  0  0  0  0
   13.0490   -0.5570   22.5320 C   0  0  0  0  0  0  0  0  0  0  0  0
   13.1330    0.7910   22.8870 C   0  0  0  0  0  0  0  0  0  0  0  0
   12.0050    1.6180   23.0200 C   0  0  0  0  0  0  0  0  0  0  0  0
   10.7700    1.0530   22.7680 C   0  0  0  0  0  0  0  0  0  0  0  0
   10.6550   -0.2760   22.4040 C   0  0  0  0  0  0  0  0  0  0  0  0
  1  2  2  0
  1  3  1  0
  1  5  1  0
  7 10  1  0
  8 10  2  0
  9 10  2  0
 11 12  2  0
 12 13  1  0
 13 14  2  0
  3 15  1  0
 14 15  1  0
 11 16  1  0
 15 16  2  0
  9 17  1  0
 18  6  1  1
 17 18  1  0
 18 19  1  0
 20  4  1  1
 17 20  1  0
 19 20  1  0
 21 22  2  0
 22 23  1  0
  4 24  1  0
 23 24  2  0
 24 25  1  0
  5 26  1  0
 21 26  1  0
 25 26  2  0
M  END
