x0946-x3303
     RDKit          3D

 37 42  0  0  0  0  0  0  0  0999 V2000
    6.1030   -1.7060   21.0310 C   0  0  0  0  0  0  0  0  0  0  0  0
    5.2950   -2.6040   21.0770 O   0  0  0  0  0  0  0  0  0  0  0  0
    6.6380    1.1940   16.9460 O   0  0  0  0  0  0  0  0  0  0  0  0
   10.3530   -0.9450   22.8110 C   0  0  0  0  0  0  0  0  0  0  0  0
    8.1350   -0.7560   21.3860 C   0  0  0  0  0  0  0  0  0  0  0  0
    9.4490   -0.9800   21.7220 C   0  0  0  0  0  0  0  0  0  0  0  0
    9.5100   -0.8100   23.1440 N   0  0  0  0  0  0  0  0  0  0  0  0
    8.2400   -0.5890   23.8090 C   0  0  0  0  0  0  0  0  0  0  0  0
    7.3760   -1.6340   23.2990 C   0  0  0  0  0  0  0  0  0  0  0  0
    7.3010   -1.7160   21.8190 N   0  0  0  0  0  0  0  0  0  0  0  0
    5.0910    1.7640   18.4060 N   0  0  0  0  0  0  0  0  0  0  0  0
    4.4580    1.5660   19.5560 C   0  0  0  0  0  0  0  0  0  0  0  0
    4.8150    0.3860   20.4600 C   0  0  0  0  0  0  0  0  0  0  0  0
    5.8150   -0.5160   20.1060 C   0  0  0  0  0  0  0  0  0  0  0  0
    6.4480   -0.2620   18.8810 C   0  0  0  0  0  0  0  0  0  0  0  0
    6.0280    0.8690   18.1150 C   0  0  0  0  0  0  0  0  0  0  0  0
   11.5660   -1.3330   22.2110 C   0  0  0  0  0  0  0  0  0  0  0  0
   12.9440   -1.6710   22.4600 C   0  0  0  0  0  0  0  0  0  0  0  0
   13.5800   -1.7720   23.7160 C   0  0  0  0  0  0  0  0  0  0  0  0
   12.9000   -1.5110   24.8940 C   0  0  0  0  0  0  0  0  0  0  0  0
   11.5740   -1.1610   24.7940 C   0  0  0  0  0  0  0  0  0  0  0  0
   10.9610   -1.0790   23.5300 C   0  0  0  0  0  0  0  0  0  0  0  0
    4.0700    0.2430   21.7180 C   0  0  0  0  0  0  0  0  0  0  0  0
    2.9970    1.2270   22.1100 C   0  0  0  0  0  0  0  0  0  0  0  0
    2.6970    2.3120   21.2630 C   0  0  0  0  0  0  0  0  0  0  0  0
    3.3410    2.5350   20.0080 C   0  0  0  0  0  0  0  0  0  0  0  0
    9.4250    4.7420   22.8270 N   0  0  0  0  0  0  0  0  0  0  0  0
    9.9560    4.9860   25.1070 O   0  0  0  0  0  0  0  0  0  0  0  0
   11.5240    5.6930   23.2650 O   0  0  0  0  0  0  0  0  0  0  0  0
   10.5800    4.7220   23.8300 S   0  0  0  0  0  0  0  0  0  0  0  0
   12.9230    0.8760   23.1350 C   0  0  0  0  0  0  0  0  0  0  0  0
   13.6190    2.0490   22.7570 C   0  0  0  0  0  0  0  0  0  0  0  0
   12.5580    3.1340   23.1280 C   0  0  0  0  0  0  0  0  0  0  0  0
   11.2900    3.0350   23.6690 C   0  0  0  0  0  0  0  0  0  0  0  0
   10.8130    1.7160   23.9730 C   0  0  0  0  0  0  0  0  0  0  0  0
   11.6220    0.5310   23.7120 C   0  0  0  0  0  0  0  0  0  0  0  0
   11.2830   -0.9090   23.9330 C   0  0  0  0  0  0  0  0  0  0  0  0
  1  2  2  0
  4  6  2  0
  5  6  1  0
  6  7  1  0
  7  8  1  0
  8  9  1  0
  1 10  1  0
  5 10  1  0
  9 10  1  0
 11 12  2  0
 12 13  1  0
  1 14  1  0
 13 14  2  0
 14 15  1  0
  3 16  1  0
 11 16  1  0
 15 16  2  0
  4 17  1  0
 17 18  1  0
 18 19  2  0
 19 20  1  0
 20 21  2  0
  7 22  1  0
 17 22  2  0
 21 22  1  0
 13 23  1  0
 23 24  2  0
 24 25  1  0
 12 26  1  0
 25 26  2  0
 30 27  1  0
 28 30  2  0
 29 30  2  0
 31 32  2  0
 32 33  1  0
 30 34  1  0
 33 34  2  0
 34 35  1  0
 31 36  1  0
 35 36  2  0
  4 37  1  0
 36 37  1  0
M  END
