x0946-x2908
     RDKit          3D

 27 29  0  0  0  0  0  0  0  0999 V2000
    4.8920    1.0570   21.6930 C   0  0  0  0  0  0  0  0  0  0  0  0
    8.4720    1.0690   21.1590 O   0  0  0  0  0  0  0  0  0  0  0  0
   13.3310   -2.5320   23.8150 Cl  0  0  0  0  0  0  0  0  0  0  0  0
    7.0960   -0.7870   21.0390 N   0  0  0  0  0  0  0  0  0  0  0  0
    9.3440   -1.0330   21.4280 N   0  0  0  0  0  0  0  0  0  0  0  0
    8.2960   -0.1460   21.2070 C   0  0  0  0  0  0  0  0  0  0  0  0
    9.2280    5.5350   22.7910 N   0  0  0  0  0  0  0  0  0  0  0  0
    9.4860    5.0710   25.1030 O   0  0  0  0  0  0  0  0  0  0  0  0
   11.3440    6.2520   23.8890 O   0  0  0  0  0  0  0  0  0  0  0  0
   10.3570    5.1940   23.9750 S   0  0  0  0  0  0  0  0  0  0  0  0
    6.2780    0.5210   17.6140 N   0  0  0  0  0  0  0  0  0  0  0  0
    6.8310   -0.1490   18.6420 C   0  0  0  0  0  0  0  0  0  0  0  0
    6.4400   -0.0290   19.9590 C   0  0  0  0  0  0  0  0  0  0  0  0
    5.3820    0.8500   20.3070 C   0  0  0  0  0  0  0  0  0  0  0  0
    4.7730    1.5710   19.2380 C   0  0  0  0  0  0  0  0  0  0  0  0
    5.2160    1.4040   17.9420 C   0  0  0  0  0  0  0  0  0  0  0  0
   10.5560    0.6490   22.7130 C   0  0  0  0  0  0  0  0  0  0  0  0
   11.6670    1.0780   23.3990 C   0  0  1  0  0  0  0  0  0  0  0  0
   12.3740    0.0700   24.0410 C   0  0  0  0  0  0  0  0  0  0  0  0
   12.3990   -1.1720   23.3630 C   0  0  0  0  0  0  0  0  0  0  0  0
   11.6470   -1.4120   22.2330 C   0  0  0  0  0  0  0  0  0  0  0  0
   10.5310   -0.5970   22.1330 C   0  0  0  0  0  0  0  0  0  0  0  0
   12.7750    1.6320   22.7810 C   0  0  0  0  0  0  0  0  0  0  0  0
   12.9380    2.9140   22.3600 C   0  0  0  0  0  0  0  0  0  0  0  0
   11.9970    3.8620   22.4530 C   0  0  0  0  0  0  0  0  0  0  0  0
   11.1140    3.7360   23.4910 C   0  0  0  0  0  0  0  0  0  0  0  0
   10.9000    2.2540   24.1000 C   0  0  0  0  0  0  0  0  0  0  0  0
  2  6  2  0
  4  6  1  0
  5  6  1  0
 10  7  1  0
  8 10  2  0
  9 10  2  0
 11 12  2  0
  4 13  1  0
 12 13  1  0
  1 14  1  0
 13 14  2  0
 14 15  1  0
 11 16  1  0
 15 16  2  0
 18 17  1  6
 18 19  1  0
  3 20  1  0
 19 20  2  0
 20 21  1  0
  5 22  1  0
 17 22  2  0
 21 22  1  0
 18 23  1  0
 23 24  2  0
 24 25  1  0
 10 26  1  0
 25 26  1  0
 18 27  1  0
 26 27  2  0
M  END
