x0946-x1308-x3110-x0771
     RDKit          3D

 62 66  0  0  0  0  0  0  0  0999 V2000
    8.3540    1.4450   23.3250 N   0  0  0  0  0  0  0  0  0  0  0  0
   13.8180    5.4410   22.4780 C   0  0  0  0  0  0  0  0  0  0  0  0
   12.3940    5.2500   22.5710 C   0  0  0  0  0  0  0  0  0  0  0  0
    7.1220   -1.4520   22.0860 N   0  0  0  0  0  0  0  0  0  0  0  0
   10.0490    4.9600   23.6670 C   0  0  0  0  0  0  0  0  0  0  0  0
    8.4550    1.4550   20.8970 O   0  0  0  0  0  0  0  0  0  0  0  0
    9.0640    2.0020   24.3940 C   0  0  0  0  0  0  0  0  0  0  0  0
    7.8820    0.9770   22.0290 C   0  0  0  0  0  0  0  0  0  0  0  0
    6.7120   -0.0260   21.8500 C   0  0  1  0  0  0  0  0  0  0  0  0
   12.4730   -1.8440   24.1830 C   0  0  0  0  0  0  0  0  0  0  0  0
   12.6560   -0.5760   25.0160 C   0  0  0  0  0  0  0  0  0  0  0  0
   13.4290   -1.8230   23.0010 C   0  0  0  0  0  0  0  0  0  0  0  0
   12.8870   -3.0050   25.0710 C   0  0  0  0  0  0  0  0  0  0  0  0
   10.4170    5.7180   24.7880 N   0  0  0  0  0  0  0  0  0  0  0  0
    8.6910    4.8160   23.8480 O   0  0  0  0  0  0  0  0  0  0  0  0
   10.2060    5.9500   22.6460 O   0  0  0  0  0  0  0  0  0  0  0  0
    0.6620   -0.9530   26.1090 C   0  0  0  0  0  0  0  0  0  0  0  0
    3.8490   -6.8760   25.3300 O   0  0  0  0  0  0  0  0  0  0  0  0
    4.8290   -5.2580   26.9500 O   0  0  0  0  0  0  0  0  0  0  0  0
    5.9910   -5.4420   19.9370 O   0  0  0  0  0  0  0  0  0  0  0  0
    0.7220   -5.7080   24.5350 C   0  0  0  0  0  0  0  0  0  0  0  0
    6.6650   -4.6990   20.6010 C   0  0  0  0  0  0  0  0  0  0  0  0
    7.8170   -3.7340   20.2040 C   0  0  0  0  0  0  0  0  0  0  0  0
    4.2770   -5.5260   25.6390 S   0  0  0  0  0  0  0  0  0  0  0  0
    6.1390   -2.3840   22.7540 C   0  0  0  0  0  0  0  0  0  0  0  0
    5.2250   -2.4190   19.4520 C   0  0  0  0  0  0  0  0  0  0  0  0
    5.0110   -4.0890   21.4000 N   0  0  0  0  0  0  0  0  0  0  0  0
    0.3580   -0.7160   27.8210 Cl  0  0  0  0  0  0  0  0  0  0  0  0
    5.7060   -3.2650   20.4220 C   0  0  0  0  0  0  0  0  0  0  0  0
    5.3790   -7.0370   26.4840 O   0  0  0  0  0  0  0  0  0  0  0  0
    6.1060   -4.8230   27.0930 O   0  0  0  0  0  0  0  0  0  0  0  0
    6.0980   -5.8680   26.0990 S   0  0  0  0  0  0  0  0  0  0  0  0
    6.4320    0.1930   17.9920 N   0  0  0  0  0  0  0  0  0  0  0  0
    5.2270    1.0180   17.8910 C   0  0  0  0  0  0  0  0  0  0  0  0
    4.5870    1.4240   19.0210 C   0  0  0  0  0  0  0  0  0  0  0  0
    5.0310    1.0970   20.2780 C   0  0  0  0  0  0  0  0  0  0  0  0
    6.1710    0.3260   20.4760 C   0  0  0  0  0  0  0  0  0  0  0  0
    6.8960   -0.1480   19.2180 C   0  0  0  0  0  0  0  0  0  0  0  0
    9.5110   -1.8940   21.8130 C   0  0  0  0  0  0  0  0  0  0  0  0
   10.8240   -2.0030   22.2850 C   0  0  0  0  0  0  0  0  0  0  0  0
   11.0940   -1.7680   23.6250 C   0  0  0  0  0  0  0  0  0  0  0  0
   10.0120   -1.4380   24.4090 C   0  0  0  0  0  0  0  0  0  0  0  0
    8.7050   -1.3250   23.9710 C   0  0  0  0  0  0  0  0  0  0  0  0
    8.4490   -1.5550   22.6360 C   0  0  0  0  0  0  0  0  0  0  0  0
   12.5620    1.5340   23.0180 C   0  0  0  0  0  0  0  0  0  0  0  0
   12.9100    2.8200   22.7020 C   0  0  0  0  0  0  0  0  0  0  0  0
   12.0380    3.8390   22.9350 C   0  0  0  0  0  0  0  0  0  0  0  0
   10.8290    3.6450   23.4850 C   0  0  0  0  0  0  0  0  0  0  0  0
   10.4240    2.3440   23.8120 C   0  0  0  0  0  0  0  0  0  0  0  0
   11.2880    1.3140   23.5800 C   0  0  0  0  0  0  0  0  0  0  0  0
    1.4630   -2.1650   25.9200 C   0  0  0  0  0  0  0  0  0  0  0  0
    0.8230   -3.2910   25.3640 C   0  0  0  0  0  0  0  0  0  0  0  0
    1.4260   -4.5240   25.1240 C   0  0  0  0  0  0  0  0  0  0  0  0
    2.8170   -4.4680   25.5410 C   0  0  0  0  0  0  0  0  0  0  0  0
    3.5130   -3.4230   26.0800 C   0  0  0  0  0  0  0  0  0  0  0  0
    2.8290   -2.2110   26.2860 C   0  0  0  0  0  0  0  0  0  0  0  0
    6.0910   -4.7180   22.0050 C   0  0  1  0  0  0  0  0  0  0  0  0
    5.9040   -5.9890   22.2970 C   0  0  0  0  0  0  0  0  0  0  0  0
    5.1650   -6.0950   23.6180 C   0  0  0  0  0  0  0  0  0  0  0  0
    5.5200   -5.1680   24.5850 C   0  0  1  0  0  0  0  0  0  0  0  0
    6.5800   -4.3130   24.1970 C   0  0  0  0  0  0  0  0  0  0  0  0
    6.6600   -3.8660   22.9080 C   0  0  2  0  0  0  0  0  0  0  0  0
  2  3  1  0
  1  7  1  0
  1  8  1  0
  6  8  2  0
  4  9  1  0
  9  8  1  6
 10 11  1  0
 10 12  1  0
 10 13  1  0
  5 14  1  0
  5 15  1  0
  5 16  1  0
 20 22  2  0
 22 23  1  0
 18 24  2  0
 19 24  2  0
  4 25  1  0
 17 28  1  0
 26 29  1  0
 27 29  2  3
 30 32  2  0
 31 32  2  0
 33 34  2  0
 34 35  1  0
 35 36  2  0
  9 37  1  0
 36 37  1  0
 33 38  1  0
 37 38  2  0
 39 40  2  0
 10 41  1  0
 40 41  1  0
 41 42  2  0
 42 43  1  0
  4 44  1  0
 39 44  1  0
 43 44  2  0
 45 46  2  0
  3 47  1  0
 46 47  1  0
  5 48  1  0
 47 48  2  0
  7 49  1  0
 48 49  1  0
 45 50  1  0
 49 50  2  0
 17 51  1  0
 51 52  2  0
 21 53  1  0
 52 53  1  0
 24 54  1  0
 53 54  2  0
 54 55  1  0
 51 56  1  0
 55 56  2  0
 22 57  1  0
 57 27  1  6
 57 58  1  0
 58 59  1  0
 24 60  1  0
 60 32  1  1
 60 59  1  0
 60 61  1  0
 62 25  1  1
 57 62  1  0
 61 62  1  0
M  END
