x0946-x1334
     RDKit          3D

 30 32  0  0  0  0  0  0  0  0999 V2000
    7.3430   -3.0200   18.7690 C   0  0  0  0  0  0  0  0  0  0  0  0
    5.4770   -4.0980   19.7510 O   0  0  0  0  0  0  0  0  0  0  0  0
    7.3510   -5.9640   28.4100 Cl  0  0  0  0  0  0  0  0  0  0  0  0
    6.4150   -3.2950   19.9320 C   0  0  0  0  0  0  0  0  0  0  0  0
    9.3970   -2.7240   24.1210 C   0  0  1  0  0  0  0  0  0  0  0  0
    9.3330    5.2530   22.7800 N   0  0  0  0  0  0  0  0  0  0  0  0
   10.0370    5.4720   24.9060 O   0  0  0  0  0  0  0  0  0  0  0  0
   11.5570    6.1210   23.0130 O   0  0  0  0  0  0  0  0  0  0  0  0
   12.6390   -0.4550   23.1560 O   0  0  0  0  0  0  0  0  0  0  0  0
   10.6130    5.2000   23.6120 S   0  0  0  0  0  0  0  0  0  0  0  0
   10.7550   -2.3300   24.1030 C   0  0  0  0  0  0  0  0  0  0  0  0
   11.5430   -2.4750   22.9510 C   0  0  0  0  0  0  0  0  0  0  0  0
   12.0500   -1.2590   22.4350 C   0  0  0  0  0  0  0  0  0  0  0  0
    6.6770   -2.6500   21.1500 N   0  0  0  0  0  0  0  0  0  0  0  0
    7.5430   -1.6260   21.2320 C   0  0  0  0  0  0  0  0  0  0  0  0
    8.9270   -1.9810   21.8500 C   0  0  0  0  0  0  0  0  0  0  0  0
    8.8810   -3.0940   22.8130 N   0  0  0  0  0  0  0  0  0  0  0  0
    7.7330   -4.0330   22.7930 C   0  0  0  0  0  0  0  0  0  0  0  0
    6.5510   -3.3890   22.4160 C   0  0  0  0  0  0  0  0  0  0  0  0
    9.8640   -5.0930   25.2520 C   0  0  0  0  0  0  0  0  0  0  0  0
    9.1870   -3.8720   25.1050 C   0  0  0  0  0  0  0  0  0  0  0  0
    7.9290   -3.8630   26.3690 S   0  0  0  0  0  0  0  0  0  0  0  0
    8.2260   -5.3290   27.0810 C   0  0  0  0  0  0  0  0  0  0  0  0
    9.2680   -5.8990   26.4130 C   0  0  0  0  0  0  0  0  0  0  0  0
   12.0650    0.8550   23.3030 C   0  0  0  0  0  0  0  0  0  0  0  0
   12.9180    1.8670   22.9040 C   0  0  0  0  0  0  0  0  0  0  0  0
   12.5720    3.2120   22.9480 C   0  0  0  0  0  0  0  0  0  0  0  0
   11.1630    3.5880   23.4850 C   0  0  0  0  0  0  0  0  0  0  0  0
   10.2550    2.4270   23.9170 C   0  0  0  0  0  0  0  0  0  0  0  0
   10.7780    1.1310   23.7910 C   0  0  0  0  0  0  0  0  0  0  0  0
  1  4  1  0
  2  4  2  0
 10  6  1  0
  7 10  2  0
  8 10  2  0
  5 11  1  6
 11 12  1  0
  9 13  1  0
 12 13  1  0
  4 14  1  0
 14 15  1  0
 15 16  1  0
  5 17  1  0
 16 17  1  0
 17 18  1  0
 14 19  1  0
 18 19  1  0
  5 21  1  0
 20 21  2  0
 21 22  1  0
  3 23  1  0
 22 23  1  0
 20 24  1  0
 23 24  2  0
  9 25  1  0
 25 26  2  0
 26 27  1  0
 10 28  1  0
 27 28  2  0
 28 29  1  0
 25 30  1  0
 29 30  2  0
M  END
