x0946-x1093
     RDKit          3D

 27 30  0  0  0  0  0  0  0  0999 V2000
   13.1890   -1.4850   23.5940 C   0  0  0  0  0  0  0  0  0  0  0  0
    8.6060    1.2770   21.0440 O   0  0  0  0  0  0  0  0  0  0  0  0
    8.6590    0.2050   21.6730 C   0  0  0  0  0  0  0  0  0  0  0  0
    7.7560   -0.9420   21.1820 C   0  0  0  0  0  0  0  0  0  0  0  0
    9.4390    5.3340   22.8310 N   0  0  0  0  0  0  0  0  0  0  0  0
   10.3180    5.2270   24.9310 O   0  0  0  0  0  0  0  0  0  0  0  0
   11.7260    6.0280   22.9960 O   0  0  0  0  0  0  0  0  0  0  0  0
   10.7610    5.1090   23.5570 S   0  0  0  0  0  0  0  0  0  0  0  0
   12.3070   -0.8280   22.7100 N   0  0  0  0  0  0  0  0  0  0  0  0
   11.8860    0.4600   22.8560 C   0  0  0  0  0  0  0  0  0  0  0  0
   10.5460    0.9460   22.9610 C   0  0  0  0  0  0  0  0  0  0  0  0
    9.5100   -0.0900   22.8470 N   0  0  0  0  0  0  0  0  0  0  0  0
   10.0150   -1.3380   22.9690 C   0  0  0  0  0  0  0  0  0  0  0  0
   11.2730   -1.6480   22.4820 C   0  0  0  0  0  0  0  0  0  0  0  0
    6.3070    0.2660   17.7670 N   0  0  0  0  0  0  0  0  0  0  0  0
    7.2660   -0.5240   18.6610 C   0  0  0  0  0  0  0  0  0  0  0  0
    7.0330   -0.3490   20.0100 C   0  0  0  0  0  0  0  0  0  0  0  0
    5.9380    0.4980   20.1090 C   0  0  0  0  0  0  0  0  0  0  0  0
    5.5030    0.8780   18.8640 C   0  0  0  0  0  0  0  0  0  0  0  0
    4.4820    1.7080   18.6490 N   0  0  0  0  0  0  0  0  0  0  0  0
    3.8890    2.0610   19.9020 C   0  0  0  0  0  0  0  0  0  0  0  0
    4.3550    1.6360   21.1730 C   0  0  0  0  0  0  0  0  0  0  0  0
    5.4740    0.7890   21.5340 C   0  0  0  0  0  0  0  0  0  0  0  0
   12.8500    1.6490   22.9310 C   0  0  0  0  0  0  0  0  0  0  0  0
   12.4750    2.9910   23.1140 C   0  0  0  0  0  0  0  0  0  0  0  0
   11.2000    3.4800   23.2690 C   0  0  0  0  0  0  0  0  0  0  0  0
   10.1250    2.3830   23.1690 C   0  0  0  0  0  0  0  0  0  0  0  0
  2  3  2  0
  3  4  1  0
  8  5  1  0
  6  8  2  0
  7  8  2  0
  1  9  1  0
  9 10  1  0
 10 11  2  0
  3 12  1  0
 11 12  1  0
 12 13  1  0
  9 14  1  0
 13 14  1  0
 15 16  1  0
  4 17  1  0
 16 17  2  0
 17 18  1  0
 15 19  2  0
 18 19  1  0
 19 20  1  0
 20 21  1  0
 21 22  2  0
 18 23  2  0
 22 23  1  0
 10 24  1  0
 24 25  2  0
  8 26  1  0
 25 26  1  0
 11 27  1  0
 26 27  2  0
M  END
