x0946-x0749
     RDKit          3D

 30 33  0  0  0  0  0  0  0  0999 V2000
    7.4150   -3.2050   19.2880 C   0  0  0  0  0  0  0  0  0  0  0  0
    5.2890   -4.1740   19.7430 O   0  0  0  0  0  0  0  0  0  0  0  0
    6.4130   -3.9470   20.1800 C   0  0  0  0  0  0  0  0  0  0  0  0
    9.2120    5.4440   22.7960 N   0  0  0  0  0  0  0  0  0  0  0  0
    9.9000    5.5580   24.9580 O   0  0  0  0  0  0  0  0  0  0  0  0
   11.4350    6.2740   23.1000 O   0  0  0  0  0  0  0  0  0  0  0  0
   12.6200   -0.3780   23.3600 N   0  0  0  0  0  0  0  0  0  0  0  0
   10.4710    5.3440   23.6510 S   0  0  0  0  0  0  0  0  0  0  0  0
   13.4380   -0.6840   22.3950 C   0  0  0  0  0  0  0  0  0  0  0  0
    6.7580   -4.4280   21.4330 N   0  0  0  0  0  0  0  0  0  0  0  0
    7.7920   -3.9490   22.2100 C   0  0  0  0  0  0  0  0  0  0  0  0
    7.9910   -4.3340   23.5530 C   0  0  1  0  0  0  0  0  0  0  0  0
    7.7520   -5.6990   23.7890 C   0  0  0  0  0  0  0  0  0  0  0  0
    6.9390   -6.3830   22.8750 C   0  0  0  0  0  0  0  0  0  0  0  0
    6.0960   -5.5010   21.9360 C   0  0  0  0  0  0  0  0  0  0  0  0
    9.8010   -2.8210   23.5940 N   0  0  0  0  0  0  0  0  0  0  0  0
    9.2200   -3.8960   24.0160 C   0  0  0  0  0  0  0  0  0  0  0  0
   10.1790   -4.7090   25.1950 S   0  0  0  0  0  0  0  0  0  0  0  0
   11.4550   -3.5320   25.0700 C   0  0  0  0  0  0  0  0  0  0  0  0
   11.1080   -2.5630   24.1610 C   0  0  0  0  0  0  0  0  0  0  0  0
   11.6580   -1.4270   23.6210 C   0  0  0  0  0  0  0  0  0  0  0  0
   12.8940   -1.4800   24.3600 C   0  0  0  0  0  0  0  0  0  0  0  0
   13.3680   -2.3950   25.3080 C   0  0  0  0  0  0  0  0  0  0  0  0
   12.6570   -3.4730   25.7060 C   0  0  0  0  0  0  0  0  0  0  0  0
   12.1060    0.9760   23.4130 C   0  0  0  0  0  0  0  0  0  0  0  0
   12.9250    1.9730   22.9390 C   0  0  0  0  0  0  0  0  0  0  0  0
   12.4820    3.4440   22.9540 C   0  0  0  0  0  0  0  0  0  0  0  0
   11.1130    3.6870   23.5280 C   0  0  0  0  0  0  0  0  0  0  0  0
   10.3470    2.6040   23.9790 C   0  0  0  0  0  0  0  0  0  0  0  0
   10.8270    1.2600   23.9260 C   0  0  0  0  0  0  0  0  0  0  0  0
  1  3  1  0
  2  3  2  0
  8  4  1  0
  5  8  2  0
  6  8  2  0
  7  9  1  0
  3 10  1  0
 10 11  1  0
 11 12  1  0
 12 13  1  0
 13 14  1  0
 10 15  1  0
 14 15  1  0
 12 17  1  6
 16 17  2  0
 17 18  1  0
 18 19  1  0
 16 20  1  0
 19 20  2  0
  7 21  1  0
 20 21  1  0
 21 22  2  0
 22 23  1  0
 19 24  1  0
 23 24  2  0
  7 25  1  0
 25 26  2  0
 26 27  1  0
  8 28  1  0
 27 28  2  0
 28 29  1  0
 25 30  1  0
 29 30  2  0
M  END
