x0946-x3110-x1402
     RDKit          3D

 55 60  0  0  0  0  0  0  0  0999 V2000
    8.1460    0.8020   23.3050 N   0  0  0  0  0  0  0  0  0  0  0  0
   13.8090    5.2340   22.5620 C   0  0  0  0  0  0  0  0  0  0  0  0
   12.3590    5.1320   22.6670 C   0  0  0  0  0  0  0  0  0  0  0  0
    6.8320   -1.6720   21.8950 C   0  0  2  0  0  0  0  0  0  0  0  0
    9.8150    4.8790   23.5420 C   0  0  0  0  0  0  0  0  0  0  0  0
    8.5410    1.4690   21.1250 O   0  0  0  0  0  0  0  0  0  0  0  0
    4.8190   -2.9160   20.7820 O   0  0  0  0  0  0  0  0  0  0  0  0
    8.7390    1.8640   24.1000 C   0  0  0  0  0  0  0  0  0  0  0  0
    7.8770    0.8020   21.9460 C   0  0  0  0  0  0  0  0  0  0  0  0
    6.6430   -0.1060   21.5580 C   0  0  1  0  0  0  0  0  0  0  0  0
    6.0740   -2.8270   21.0800 C   0  0  0  0  0  0  0  0  0  0  0  0
    6.8120   -4.0690   20.8160 C   0  0  1  0  0  0  0  0  0  0  0  0
    8.2730   -3.7930   20.5140 C   0  0  0  0  0  0  0  0  0  0  0  0
   12.4040   -1.8800   24.0440 C   0  0  0  0  0  0  0  0  0  0  0  0
   12.5870   -0.6030   24.8680 C   0  0  0  0  0  0  0  0  0  0  0  0
   13.4420   -1.9090   22.9430 C   0  0  0  0  0  0  0  0  0  0  0  0
   12.7340   -3.0440   24.9700 C   0  0  0  0  0  0  0  0  0  0  0  0
    8.5810    5.0320   22.8520 N   0  0  0  0  0  0  0  0  0  0  0  0
    9.5640    5.2330   24.8830 O   0  0  0  0  0  0  0  0  0  0  0  0
   10.5280    5.9210   22.9290 O   0  0  0  0  0  0  0  0  0  0  0  0
    0.8090   -1.3340   26.0490 Cl  0  0  0  0  0  0  0  0  0  0  0  0
    3.7080   -6.4030   25.9060 O   0  0  0  0  0  0  0  0  0  0  0  0
    5.7460   -5.5100   27.0550 O   0  0  0  0  0  0  0  0  0  0  0  0
    4.8120   -5.4800   25.9660 S   0  0  0  0  0  0  0  0  0  0  0  0
    5.9770   -2.1370   23.0580 C   0  0  0  0  0  0  0  0  0  0  0  0
    5.5250   -3.6230   22.9120 C   0  0  0  0  0  0  0  0  0  0  0  0
    6.3740    0.4650   17.8010 N   0  0  0  0  0  0  0  0  0  0  0  0
    5.2970    1.2690   17.7880 C   0  0  0  0  0  0  0  0  0  0  0  0
    4.6120    1.6520   18.9080 C   0  0  0  0  0  0  0  0  0  0  0  0
    5.0590    1.1900   20.1270 C   0  0  0  0  0  0  0  0  0  0  0  0
    6.1770    0.3570   20.1980 C   0  0  0  0  0  0  0  0  0  0  0  0
    6.7950    0.0200   19.0000 C   0  0  0  0  0  0  0  0  0  0  0  0
    9.4160   -1.4180   21.6520 C   0  0  0  0  0  0  0  0  0  0  0  0
   10.7290   -1.4680   22.1530 C   0  0  0  0  0  0  0  0  0  0  0  0
   10.9940   -1.8600   23.4580 C   0  0  0  0  0  0  0  0  0  0  0  0
    9.9060   -2.2210   24.2220 C   0  0  0  0  0  0  0  0  0  0  0  0
    8.5960   -2.1850   23.7380 C   0  0  0  0  0  0  0  0  0  0  0  0
    8.3120   -1.7700   22.4290 C   0  0  0  0  0  0  0  0  0  0  0  0
   12.3500    1.3500   23.0420 C   0  0  0  0  0  0  0  0  0  0  0  0
   12.7730    2.6440   22.7890 C   0  0  0  0  0  0  0  0  0  0  0  0
   11.9010    3.7320   22.9630 C   0  0  0  0  0  0  0  0  0  0  0  0
   10.5880    3.5620   23.4030 C   0  0  0  0  0  0  0  0  0  0  0  0
   10.1410    2.2370   23.6510 C   0  0  0  0  0  0  0  0  0  0  0  0
   11.0390    1.1510   23.4680 C   0  0  0  0  0  0  0  0  0  0  0  0
    6.4270   -4.7120   22.1500 C   0  0  0  0  0  0  0  0  0  0  0  0
    7.6010   -5.0860   23.0570 C   0  0  0  0  0  0  0  0  0  0  0  0
    7.1030   -5.2150   24.4790 C   0  0  0  0  0  0  0  0  0  0  0  0
    5.6470   -5.5390   24.4930 N   0  0  0  0  0  0  0  0  0  0  0  0
    5.0630   -6.4050   23.4310 C   0  0  0  0  0  0  0  0  0  0  0  0
    5.5180   -5.9380   22.0650 C   0  0  0  0  0  0  0  0  0  0  0  0
    2.3250   -3.8480   25.9720 S   0  0  0  0  0  0  0  0  0  0  0  0
    4.0340   -3.8800   25.9950 C   0  0  0  0  0  0  0  0  0  0  0  0
    4.5700   -2.6050   26.0360 C   0  0  0  0  0  0  0  0  0  0  0  0
    3.5630   -1.5960   26.0520 C   0  0  0  0  0  0  0  0  0  0  0  0
    2.3140   -2.1600   26.0260 C   0  0  0  0  0  0  0  0  0  0  0  0
  2  3  1  0
  1  8  1  0
  1  9  1  0
  6  9  2  0
  4 10  1  0
 10  9  1  6
  4 11  1  0
  7 11  2  0
 11 12  1  0
 12 13  1  1
 14 15  1  0
 14 16  1  0
 14 17  1  0
  5 18  1  0
  5 19  1  0
  5 20  1  0
 22 24  2  0
 23 24  2  0
  4 25  1  0
 25 26  1  0
 27 28  2  0
 28 29  1  0
 29 30  2  0
 10 31  1  0
 30 31  1  0
 27 32  1  0
 31 32  2  0
 33 34  2  0
 14 35  1  0
 34 35  1  0
 35 36  2  0
 36 37  1  0
  4 38  1  1
 33 38  1  0
 37 38  2  0
 39 40  2  0
  3 41  1  0
 40 41  1  0
  5 42  1  0
 41 42  2  0
  8 43  1  0
 42 43  1  0
 39 44  1  0
 43 44  2  0
 12 45  1  0
 45 26  1  0
 45 46  1  0
 46 47  1  0
 24 48  1  0
 47 48  1  0
 48 49  1  0
 45 50  1  0
 49 50  1  0
 24 52  1  0
 51 52  1  0
 52 53  2  0
 53 54  1  0
 21 55  1  0
 51 55  1  0
 54 55  2  0
M  END
