x0946-x0978-x0731-x3110
     RDKit          3D

 63 67  0  0  0  0  0  0  0  0999 V2000
    8.0470    1.4890   23.5990 N   0  0  0  0  0  0  0  0  0  0  0  0
   13.5070    5.3160   23.1460 C   0  0  0  0  0  0  0  0  0  0  0  0
   13.0020    4.3830   22.1340 C   0  0  0  0  0  0  0  0  0  0  0  0
    7.0410   -1.0450   22.1490 N   0  0  0  0  0  0  0  0  0  0  0  0
   10.3380    4.8090   23.2900 C   0  0  0  0  0  0  0  0  0  0  0  0
    8.8190    1.7970   21.3930 O   0  0  0  0  0  0  0  0  0  0  0  0
    8.9400    2.2980   24.2810 C   0  0  0  0  0  0  0  0  0  0  0  0
    8.0180    1.2940   22.2110 C   0  0  0  0  0  0  0  0  0  0  0  0
    6.8550    0.3840   21.8390 C   0  0  1  0  0  0  0  0  0  0  0  0
   12.3380   -2.0560   24.2590 C   0  0  0  0  0  0  0  0  0  0  0  0
   12.7390   -0.8240   25.0650 C   0  0  0  0  0  0  0  0  0  0  0  0
   13.3710   -2.2970   23.1500 C   0  0  0  0  0  0  0  0  0  0  0  0
   12.1200   -3.2570   25.1820 C   0  0  0  0  0  0  0  0  0  0  0  0
    9.0460    4.8530   22.7000 N   0  0  0  0  0  0  0  0  0  0  0  0
   10.2020    5.3080   24.5880 O   0  0  0  0  0  0  0  0  0  0  0  0
   11.0950    5.8190   22.6310 O   0  0  0  0  0  0  0  0  0  0  0  0
    2.2060   -5.6030   23.1080 N   0  0  0  0  0  0  0  0  0  0  0  0
    2.1100   -8.1680   24.5590 C   0  0  0  0  0  0  0  0  0  0  0  0
    4.4790   -8.0280   24.4300 O   0  0  0  0  0  0  0  0  0  0  0  0
    3.3350   -7.2220   24.4490 C   0  0  1  0  0  0  0  0  0  0  0  0
    0.9330   -7.3840   21.9700 O   0  0  0  0  0  0  0  0  0  0  0  0
    3.4430   -6.3670   23.2560 C   0  0  2  0  0  0  0  0  0  0  0  0
    4.2790   -4.1750   22.7440 O   0  0  0  0  0  0  0  0  0  0  0  0
    1.0510   -6.1240   22.6390 C   0  0  0  0  0  0  0  0  0  0  0  0
   -0.3480   -5.4400   22.7240 C   0  0  0  0  0  0  0  0  0  0  0  0
    6.5900   -4.2130   19.9550 C   0  0  0  0  0  0  0  0  0  0  0  0
    5.5610   -3.5750   19.4010 C   0  0  0  0  0  0  0  0  0  0  0  0
    6.3450   -2.0050   21.2960 C   0  0  0  0  0  0  0  0  0  0  0  0
    5.8860   -3.1720   21.9140 C   0  0  0  0  0  0  0  0  0  0  0  0
    1.0560   -1.0470   26.0450 C   0  0  0  0  0  0  0  0  0  0  0  0
    6.5140   -4.7010   26.4680 O   0  0  0  0  0  0  0  0  0  0  0  0
    4.8460   -6.5940   26.2300 O   0  0  0  0  0  0  0  0  0  0  0  0
    5.3500   -5.2240   25.7730 S   0  0  0  0  0  0  0  0  0  0  0  0
    6.3870    0.3110   17.9510 N   0  0  0  0  0  0  0  0  0  0  0  0
    5.2550    1.2160   17.7980 C   0  0  0  0  0  0  0  0  0  0  0  0
    4.6670    1.8070   18.9020 C   0  0  0  0  0  0  0  0  0  0  0  0
    5.1090    1.5920   20.2050 C   0  0  0  0  0  0  0  0  0  0  0  0
    6.3020    0.6640   20.4710 C   0  0  0  0  0  0  0  0  0  0  0  0
    6.8730    0.0530   19.1870 C   0  0  0  0  0  0  0  0  0  0  0  0
    9.4770   -1.2870   21.7720 C   0  0  0  0  0  0  0  0  0  0  0  0
   10.8540   -1.5560   22.3590 C   0  0  0  0  0  0  0  0  0  0  0  0
   10.9780   -1.8130   23.7090 C   0  0  0  0  0  0  0  0  0  0  0  0
    9.8280   -1.8240   24.4710 C   0  0  0  0  0  0  0  0  0  0  0  0
    8.5580   -1.5840   23.9620 C   0  0  0  0  0  0  0  0  0  0  0  0
    8.3580   -1.3080   22.6190 C   0  0  0  0  0  0  0  0  0  0  0  0
   12.2670    0.9000   23.2560 C   0  0  0  0  0  0  0  0  0  0  0  0
   12.8790    2.0240   22.7620 C   0  0  0  0  0  0  0  0  0  0  0  0
   12.2320    3.2590   22.7520 C   0  0  0  0  0  0  0  0  0  0  0  0
   10.9690    3.4020   23.2730 C   0  0  0  0  0  0  0  0  0  0  0  0
   10.3470    2.2600   23.7480 C   0  0  0  0  0  0  0  0  0  0  0  0
   10.9810    1.0200   23.7470 C   0  0  0  0  0  0  0  0  0  0  0  0
    2.1460   -2.0700   25.9760 C   0  0  0  0  0  0  0  0  0  0  0  0
    1.8840   -3.2770   25.4800 C   0  0  0  0  0  0  0  0  0  0  0  0
    2.8880   -4.2530   25.4170 C   0  0  0  0  0  0  0  0  0  0  0  0
    4.1920   -3.9850   25.8720 C   0  0  0  0  0  0  0  0  0  0  0  0
    4.4320   -2.7030   26.3800 C   0  0  0  0  0  0  0  0  0  0  0  0
    3.4270   -1.7370   26.4400 C   0  0  0  0  0  0  0  0  0  0  0  0
    6.4490   -4.5680   21.4730 C   0  0  2  0  0  0  0  0  0  0  0  0
    7.6130   -4.8560   22.3900 C   0  0  0  0  0  0  0  0  0  0  0  0
    7.0960   -4.7180   23.8500 C   0  0  0  0  0  0  0  0  0  0  0  0
    5.7950   -5.3380   24.1320 N   0  0  0  0  0  0  0  0  0  0  0  0
    4.7760   -5.4750   23.0270 C   0  0  1  0  0  0  0  0  0  0  0  0
    5.4790   -5.7250   21.8040 C   0  0  0  0  0  0  0  0  0  0  0  0
  2  3  1  0
  1  7  1  0
  1  8  1  0
  6  8  2  0
  4  9  1  0
  9  8  1  6
 10 11  1  0
 10 12  1  0
 10 13  1  0
  5 14  1  0
  5 15  1  0
  5 16  1  0
 20 18  1  6
 19 20  1  0
 22 17  1  1
 20 22  1  0
 17 24  1  0
 21 24  2  0
 24 25  1  0
 26 27  2  3
  4 28  1  0
 28 29  1  0
 31 33  2  0
 32 33  2  0
 34 35  2  0
 35 36  1  0
 36 37  2  0
  9 38  1  0
 37 38  1  0
 34 39  1  0
 38 39  2  0
 40 41  2  0
 10 42  1  0
 41 42  1  0
 42 43  2  0
 43 44  1  0
  4 45  1  0
 40 45  1  0
 44 45  2  0
 46 47  2  0
  3 48  1  0
 47 48  1  0
  5 49  1  0
 48 49  2  0
  7 50  1  0
 49 50  1  0
 46 51  1  0
 50 51  2  0
 30 52  1  0
 52 53  2  0
 53 54  1  0
 33 55  1  0
 54 55  2  0
 55 56  1  0
 52 57  1  0
 56 57  2  0
 58 26  1  6
 29 58  1  0
 58 59  1  0
 59 60  1  0
 33 61  1  0
 60 61  1  0
 22 62  1  0
 62 23  1  6
 61 62  1  0
 58 63  1  0
 62 63  1  0
M  END
