x0946-x0434
     RDKit          3D

 23 24  0  0  0  0  0  0  0  0999 V2000
    9.3730    5.5010   22.7950 N   0  0  0  0  0  0  0  0  0  0  0  0
   10.1820    5.6490   25.0120 O   0  0  0  0  0  0  0  0  0  0  0  0
   11.4980    6.4010   23.0050 O   0  0  0  0  0  0  0  0  0  0  0  0
   12.9170   -0.5810   22.8220 Br  0  0  0  0  0  0  0  0  0  0  0  0
   10.6350    5.4480   23.6520 S   0  0  0  0  0  0  0  0  0  0  0  0
   12.3190    1.2050   23.0220 C   0  0  0  0  0  0  0  0  0  0  0  0
   13.1400    2.3720   22.7910 C   0  0  0  0  0  0  0  0  0  0  0  0
   12.5540    3.7210   22.9960 C   0  0  0  0  0  0  0  0  0  0  0  0
   11.2260    3.8150   23.4050 C   0  0  0  0  0  0  0  0  0  0  0  0
   10.2430    2.7770   23.6640 C   0  0  0  0  0  0  0  0  0  0  0  0
   10.9450    1.5170   23.4340 C   0  0  0  0  0  0  0  0  0  0  0  0
    8.4720    0.4970   21.8200 N   0  0  0  0  0  0  0  0  0  0  0  0
    8.1170   -0.7810   21.7280 C   0  0  0  0  0  0  0  0  0  0  0  0
    8.8880   -1.7990   22.4540 N   0  0  0  0  0  0  0  0  0  0  0  0
    6.9290   -1.0890   20.9020 N   0  0  0  0  0  0  0  0  0  0  0  0
    5.1350    0.4980   20.1130 C   0  0  0  0  0  0  0  0  0  0  0  0
    4.5620    1.3190   19.1630 C   0  0  0  0  0  0  0  0  0  0  0  0
    5.2030    1.4170   17.9560 C   0  0  0  0  0  0  0  0  0  0  0  0
    6.3780    0.7320   17.6700 N   0  0  0  0  0  0  0  0  0  0  0  0
    6.9200   -0.0830   18.6500 C   0  0  0  0  0  0  0  0  0  0  0  0
    6.3180   -0.2220   19.8950 C   0  0  0  0  0  0  0  0  0  0  0  0
    9.4570    1.4950   23.8510 C   0  0  0  0  0  0  0  0  0  0  0  0
    9.6160    0.7630   22.6740 C   0  0  0  0  0  0  0  0  0  0  0  0
  5  1  1  0
  2  5  2  0
  3  5  2  0
  4  6  1  0
  6  7  2  0
  7  8  1  0
  5  9  1  0
  8  9  2  0
  9 10  1  0
  6 11  1  0
 10 11  2  0
 12 13  2  3
 13 14  1  0
 13 15  1  0
 16 17  2  0
 17 18  1  0
 18 19  2  0
 19 20  1  0
 15 21  1  0
 16 21  1  0
 20 21  2  0
 10 22  1  0
 12 23  1  0
 22 23  1  0
M  END
