x0946-x0978-x1308-x3110
     RDKit          3D

 63 67  0  0  0  0  0  0  0  0999 V2000
    8.1090    1.1620   23.5220 N   0  0  0  0  0  0  0  0  0  0  0  0
   13.8200    5.4110   22.5190 C   0  0  0  0  0  0  0  0  0  0  0  0
   12.3780    5.2300   22.6050 C   0  0  0  0  0  0  0  0  0  0  0  0
    7.3050   -1.3880   22.0020 N   0  0  0  0  0  0  0  0  0  0  0  0
    9.9820    4.9290   23.6740 C   0  0  0  0  0  0  0  0  0  0  0  0
    8.7680    1.6630   21.3220 O   0  0  0  0  0  0  0  0  0  0  0  0
    8.9420    2.0820   24.2820 C   0  0  0  0  0  0  0  0  0  0  0  0
    8.0410    1.0580   22.1360 C   0  0  0  0  0  0  0  0  0  0  0  0
    6.8940    0.0670   21.7210 C   0  0  1  0  0  0  0  0  0  0  0  0
   12.4960   -1.8910   24.2120 C   0  0  0  0  0  0  0  0  0  0  0  0
   12.7030   -0.6130   24.9980 C   0  0  0  0  0  0  0  0  0  0  0  0
   13.4740   -1.9390   23.0520 C   0  0  0  0  0  0  0  0  0  0  0  0
   12.8450   -3.0650   25.1000 C   0  0  0  0  0  0  0  0  0  0  0  0
    8.5760    4.8570   23.7800 N   0  0  0  0  0  0  0  0  0  0  0  0
   10.2530    5.8710   22.7040 O   0  0  0  0  0  0  0  0  0  0  0  0
   10.4180    5.6310   24.7980 O   0  0  0  0  0  0  0  0  0  0  0  0
    2.0740   -5.4910   23.1070 N   0  0  0  0  0  0  0  0  0  0  0  0
    2.1990   -8.0980   24.9340 C   0  0  0  0  0  0  0  0  0  0  0  0
    4.4380   -7.9910   24.2760 O   0  0  0  0  0  0  0  0  0  0  0  0
    3.1630   -7.5270   23.8840 C   0  0  2  0  0  0  0  0  0  0  0  0
    1.0610   -7.3260   22.0930 O   0  0  0  0  0  0  0  0  0  0  0  0
    3.2730   -6.0260   23.7280 C   0  0  1  0  0  0  0  0  0  0  0  0
    4.3640   -3.9330   23.2140 O   0  0  0  0  0  0  0  0  0  0  0  0
    0.9990   -6.2150   22.6200 C   0  0  0  0  0  0  0  0  0  0  0  0
   -0.2180   -5.5430   22.7650 C   0  0  0  0  0  0  0  0  0  0  0  0
    6.4530   -4.2680   20.0170 C   0  0  0  0  0  0  0  0  0  0  0  0
    5.3510   -3.5130   19.3590 C   0  0  0  0  0  0  0  0  0  0  0  0
    6.2750   -2.1950   22.6810 C   0  0  0  0  0  0  0  0  0  0  0  0
    5.6560   -3.0690   21.8240 C   0  0  0  0  0  0  0  0  0  0  0  0
    0.5950   -1.1140   26.4450 Cl  0  0  0  0  0  0  0  0  0  0  0  0
    6.2280   -4.9690   26.8280 O   0  0  0  0  0  0  0  0  0  0  0  0
    4.6180   -6.7650   26.2000 O   0  0  0  0  0  0  0  0  0  0  0  0
    5.2210   -5.4700   25.9390 S   0  0  0  0  0  0  0  0  0  0  0  0
    6.3210    0.2850   17.8290 N   0  0  0  0  0  0  0  0  0  0  0  0
    5.2580    1.0560   17.8620 C   0  0  0  0  0  0  0  0  0  0  0  0
    4.6560    1.5320   19.0400 C   0  0  0  0  0  0  0  0  0  0  0  0
    5.1660    1.2150   20.3260 C   0  0  0  0  0  0  0  0  0  0  0  0
    6.2660    0.4320   20.3900 C   0  0  0  0  0  0  0  0  0  0  0  0
    6.8020   -0.0070   19.2000 C   0  0  0  0  0  0  0  0  0  0  0  0
    9.6280   -2.0340   21.8280 C   0  0  0  0  0  0  0  0  0  0  0  0
   10.8890   -2.1540   22.3720 C   0  0  0  0  0  0  0  0  0  0  0  0
   11.1100   -1.7870   23.6860 C   0  0  0  0  0  0  0  0  0  0  0  0
   10.0590   -1.3160   24.4570 C   0  0  0  0  0  0  0  0  0  0  0  0
    8.7870   -1.2020   23.8720 C   0  0  0  0  0  0  0  0  0  0  0  0
    8.5710   -1.5510   22.5440 C   0  0  0  0  0  0  0  0  0  0  0  0
   12.4410    1.4660   22.9750 C   0  0  0  0  0  0  0  0  0  0  0  0
   12.8500    2.7700   22.6870 C   0  0  0  0  0  0  0  0  0  0  0  0
   11.9880    3.8200   22.9250 C   0  0  0  0  0  0  0  0  0  0  0  0
   10.7680    3.6220   23.4450 C   0  0  0  0  0  0  0  0  0  0  0  0
   10.3280    2.3350   23.7270 C   0  0  0  0  0  0  0  0  0  0  0  0
   11.1670    1.2600   23.4930 C   0  0  0  0  0  0  0  0  0  0  0  0
    6.2740   -4.4910   21.5670 C   0  0  2  0  0  0  0  0  0  0  0  0
    7.3800   -4.8090   22.4570 C   0  0  0  0  0  0  0  0  0  0  0  0
    7.0890   -4.9380   23.9000 C   0  0  0  0  0  0  0  0  0  0  0  0
    5.7190   -5.3930   24.2880 N   0  0  0  0  0  0  0  0  0  0  0  0
    4.6690   -5.3110   23.2780 C   0  0  1  0  0  0  0  0  0  0  0  0
    5.2520   -5.5680   22.0410 C   0  0  0  0  0  0  0  0  0  0  0  0
    4.2720   -2.9240   26.2990 C   0  0  0  0  0  0  0  0  0  0  0  0
    3.1920   -1.8570   26.4240 C   0  0  0  0  0  0  0  0  0  0  0  0
    1.8680   -2.2570   26.3050 C   0  0  0  0  0  0  0  0  0  0  0  0
    1.5590   -3.7220   26.0540 C   0  0  0  0  0  0  0  0  0  0  0  0
    2.5930   -4.6520   25.9500 C   0  0  0  0  0  0  0  0  0  0  0  0
    3.9260   -4.2630   26.0700 C   0  0  0  0  0  0  0  0  0  0  0  0
  2  3  1  0
  1  7  1  0
  1  8  1  0
  6  8  2  0
  4  9  1  0
  9  8  1  6
 10 11  1  0
 10 12  1  0
 10 13  1  0
  5 14  1  0
  5 15  1  0
  5 16  1  0
 20 18  1  1
 19 20  1  0
 22 17  1  6
 20 22  1  0
 17 24  1  0
 21 24  2  0
 24 25  1  0
 26 27  2  3
  4 28  1  0
 28 29  1  0
 31 33  2  0
 32 33  2  0
 34 35  2  0
 35 36  1  0
 36 37  2  0
  9 38  1  0
 37 38  1  0
 34 39  1  0
 38 39  2  0
 40 41  2  0
 10 42  1  0
 41 42  1  0
 42 43  2  0
 43 44  1  0
  4 45  1  0
 40 45  1  0
 44 45  2  0
 46 47  2  0
  3 48  1  0
 47 48  1  0
  5 49  1  0
 48 49  2  0
  7 50  1  0
 49 50  1  0
 46 51  1  0
 50 51  2  0
 52 26  1  6
 29 52  1  0
 52 53  1  0
 53 54  1  0
 33 55  1  0
 54 55  1  0
 22 56  1  0
 56 23  1  6
 55 56  1  0
 52 57  1  0
 56 57  1  0
 58 59  2  0
 30 60  1  0
 59 60  1  0
 60 61  2  0
 61 62  1  0
 33 63  1  0
 58 63  1  0
 62 63  2  0
M  END
