x0946-x0072
     RDKit          3D

 23 24  0  0  0  0  0  0  0  0999 V2000
    6.6040   -5.2030   26.4820 C   0  0  0  0  0  0  0  0  0  0  0  0
    8.2820   -4.5480   26.1590 S   0  0  0  0  0  0  0  0  0  0  0  0
    9.0630   -5.6800   25.5250 O   0  0  0  0  0  0  0  0  0  0  0  0
    8.7760   -4.1060   27.4720 O   0  0  0  0  0  0  0  0  0  0  0  0
    7.9580   -3.4890   24.8550 N   0  0  0  0  0  0  0  0  0  0  0  0
    8.9970   -3.2420   23.9860 C   0  0  0  0  0  0  0  0  0  0  0  0
    9.2140   -1.8450   23.3770 C   0  0  0  0  0  0  0  0  0  0  0  0
    9.0140    5.2580   22.6640 N   0  0  0  0  0  0  0  0  0  0  0  0
    9.3170    5.2920   25.1960 O   0  0  0  0  0  0  0  0  0  0  0  0
   11.0400    6.4810   23.5520 O   0  0  0  0  0  0  0  0  0  0  0  0
   10.1690    5.3510   23.8370 S   0  0  0  0  0  0  0  0  0  0  0  0
   10.5340   -1.4460   23.2430 C   0  0  0  0  0  0  0  0  0  0  0  0
   11.4060   -2.4000   22.8640 C   0  0  0  0  0  0  0  0  0  0  0  0
   12.6930   -2.0600   22.7310 C   0  0  0  0  0  0  0  0  0  0  0  0
   13.0470   -0.7810   22.9820 C   0  0  0  0  0  0  0  0  0  0  0  0
   12.2640    0.4990   23.4140 C   0  0  0  0  0  0  0  0  0  0  0  0
   10.9780   -0.1450   23.4790 C   0  0  0  0  0  0  0  0  0  0  0  0
   12.3940    1.8910   23.1760 C   0  0  0  0  0  0  0  0  0  0  0  0
   12.9480    3.0900   22.7690 C   0  0  0  0  0  0  0  0  0  0  0  0
   12.2610    4.1980   22.9600 C   0  0  0  0  0  0  0  0  0  0  0  0
   11.0790    3.9910   23.5470 C   0  0  0  0  0  0  0  0  0  0  0  0
   10.6020    2.7320   23.9210 C   0  0  0  0  0  0  0  0  0  0  0  0
   11.1810    1.4340   23.8080 C   0  0  0  0  0  0  0  0  0  0  0  0
  1  2  1  0
  2  3  2  0
  2  4  2  0
  2  5  1  0
  5  6  1  0
  6  7  1  0
 11  8  1  0
  9 11  2  0
 10 11  2  0
  7 12  1  0
 12 13  2  0
 13 14  1  0
 14 15  2  0
 15 16  1  0
 12 17  1  0
 16 17  2  0
 18 19  2  0
 19 20  1  0
 11 21  1  0
 20 21  2  0
 21 22  1  0
 16 23  1  0
 18 23  1  0
 22 23  2  0
M  END
