x0946-x0354
     RDKit          3D

 28 30  0  0  0  0  0  0  0  0999 V2000
   13.1140   -0.7660   22.8750 C   0  0  0  0  0  0  0  0  0  0  0  0
    7.6500   -2.2100   25.0910 O   0  0  0  0  0  0  0  0  0  0  0  0
    7.4150   -0.5230   27.3350 O   0  0  0  0  0  0  0  0  0  0  0  0
    8.4900   -1.3800   25.4260 C   0  0  0  0  0  0  0  0  0  0  0  0
    7.9880   -0.2020   26.2890 C   0  0  0  0  0  0  0  0  0  0  0  0
    5.6990    3.6170   30.9920 C   0  0  0  0  0  0  0  0  0  0  0  0
    8.9690    5.0950   22.4410 N   0  0  0  0  0  0  0  0  0  0  0  0
    9.4890    5.6160   24.5530 O   0  0  0  0  0  0  0  0  0  0  0  0
   11.0050    6.4380   22.8000 O   0  0  0  0  0  0  0  0  0  0  0  0
   10.1660    5.3730   23.3250 S   0  0  0  0  0  0  0  0  0  0  0  0
   11.7440   -1.0460   23.0690 N   0  0  0  0  0  0  0  0  0  0  0  0
   11.1860   -2.3230   23.2360 C   0  0  0  0  0  0  0  0  0  0  0  0
   10.5480   -2.5700   24.5030 C   0  0  0  0  0  0  0  0  0  0  0  0
    9.9360   -1.3820   25.1270 N   0  0  0  0  0  0  0  0  0  0  0  0
   10.5820   -0.2500   25.0470 C   0  0  0  0  0  0  0  0  0  0  0  0
   11.0040   -0.0580   23.6130 C   0  0  1  0  0  0  0  0  0  0  0  0
    7.8090    1.7460   28.4480 C   0  0  0  0  0  0  0  0  0  0  0  0
    7.3120    2.6680   29.3370 C   0  0  0  0  0  0  0  0  0  0  0  0
    6.1300    2.5250   30.0520 C   0  0  0  0  0  0  0  0  0  0  0  0
    5.4220    1.3400   29.8250 C   0  0  0  0  0  0  0  0  0  0  0  0
    5.8830    0.3550   28.9220 C   0  0  0  0  0  0  0  0  0  0  0  0
    7.0840    0.5750   28.2350 C   0  0  0  0  0  0  0  0  0  0  0  0
   12.7370    1.5970   22.9550 C   0  0  0  0  0  0  0  0  0  0  0  0
   13.2370    2.8690   22.6830 C   0  0  0  0  0  0  0  0  0  0  0  0
   12.4940    3.9940   22.7930 C   0  0  0  0  0  0  0  0  0  0  0  0
   11.0440    3.9110   23.2300 C   0  0  0  0  0  0  0  0  0  0  0  0
   10.5340    2.4820   23.5210 C   0  0  0  0  0  0  0  0  0  0  0  0
   11.4250    1.3830   23.3620 C   0  0  0  0  0  0  0  0  0  0  0  0
  2  4  2  0
  3  5  1  0
  4  5  1  0
 10  7  1  0
  8 10  2  0
  9 10  2  0
  1 11  1  0
 11 12  1  0
 12 13  1  0
  4 14  1  0
 13 14  1  0
 14 15  1  0
 11 16  1  0
 15 16  1  0
 17 18  2  0
  6 19  1  0
 18 19  1  0
 19 20  2  0
 20 21  1  0
  3 22  1  0
 17 22  1  0
 21 22  2  0
 23 24  2  0
 24 25  1  0
 10 26  1  0
 25 26  2  0
 26 27  1  0
 16 28  1  1
 23 28  1  0
 27 28  2  0
M  END
