x0946-x0426-x3110-x0734
     RDKit          3D

 64 69  0  0  0  0  0  0  0  0999 V2000
    7.9680    1.0960   23.3440 N   0  0  0  0  0  0  0  0  0  0  0  0
   13.8050    5.3940   22.5540 C   0  0  0  0  0  0  0  0  0  0  0  0
   12.3700    5.2620   22.7680 C   0  0  0  0  0  0  0  0  0  0  0  0
    6.9060   -1.6660   21.7550 N   0  0  0  0  0  0  0  0  0  0  0  0
    9.8300    4.6180   23.5230 C   0  0  0  0  0  0  0  0  0  0  0  0
    8.5780    1.3970   21.1520 O   0  0  0  0  0  0  0  0  0  0  0  0
    5.0090   -3.1670   21.0080 O   0  0  0  0  0  0  0  0  0  0  0  0
    8.6760    2.2130   23.8270 C   0  0  0  0  0  0  0  0  0  0  0  0
    7.8090    0.8300   21.9620 C   0  0  0  0  0  0  0  0  0  0  0  0
    6.5990   -0.1710   21.5640 C   0  0  1  0  0  0  0  0  0  0  0  0
    6.3230   -2.9680   21.3490 C   0  0  0  0  0  0  0  0  0  0  0  0
    8.3280   -4.4120   20.9250 C   0  0  0  0  0  0  0  0  0  0  0  0
   12.3480   -1.8810   24.2880 C   0  0  0  0  0  0  0  0  0  0  0  0
   12.4590   -0.5470   25.0910 C   0  0  0  0  0  0  0  0  0  0  0  0
   13.2650   -1.7150   23.1120 C   0  0  0  0  0  0  0  0  0  0  0  0
   12.6750   -3.0530   25.1300 C   0  0  0  0  0  0  0  0  0  0  0  0
    2.3070    1.7670   23.8810 C   0  0  0  0  0  0  0  0  0  0  0  0
    2.1950    0.5390   23.7680 O   0  0  0  0  0  0  0  0  0  0  0  0
    3.3930    2.4720   23.3950 N   0  0  0  0  0  0  0  0  0  0  0  0
    4.3550    1.7870   22.5290 C   0  0  0  0  0  0  0  0  0  0  0  0
    3.7350    1.4180   21.2090 C   0  0  0  0  0  0  0  0  0  0  0  0
    2.7630    4.2890   25.2350 F   0  0  0  0  0  0  0  0  0  0  0  0
    8.4700    4.4620   23.1800 N   0  0  0  0  0  0  0  0  0  0  0  0
   10.2080    5.7430   22.8320 O   0  0  0  0  0  0  0  0  0  0  0  0
    9.9760    5.2540   24.7480 O   0  0  0  0  0  0  0  0  0  0  0  0
    5.1070   -5.0440   26.6590 N   0  0  0  0  0  0  0  0  0  0  0  0
    4.4130   -5.7790   25.9480 O   0  0  0  0  0  0  0  0  0  0  0  0
    4.7530   -3.9090   27.0070 O   0  0  0  0  0  0  0  0  0  0  0  0
    6.4610    0.6440   17.7930 N   0  0  0  0  0  0  0  0  0  0  0  0
    5.2010    1.4000   17.6760 C   0  0  0  0  0  0  0  0  0  0  0  0
    4.3760    1.6210   18.7440 C   0  0  0  0  0  0  0  0  0  0  0  0
    4.7340    1.1140   20.1170 C   0  0  0  0  0  0  0  0  0  0  0  0
    6.0580    0.3530   20.2800 C   0  0  0  0  0  0  0  0  0  0  0  0
    6.8450    0.1700   18.9860 C   0  0  0  0  0  0  0  0  0  0  0  0
    9.5080   -2.0150   21.7440 C   0  0  0  0  0  0  0  0  0  0  0  0
   10.7520   -2.0590   22.3500 C   0  0  0  0  0  0  0  0  0  0  0  0
   10.9210   -1.8400   23.7020 C   0  0  0  0  0  0  0  0  0  0  0  0
    9.7650   -1.5770   24.4460 C   0  0  0  0  0  0  0  0  0  0  0  0
    8.4520   -1.5100   23.9010 C   0  0  0  0  0  0  0  0  0  0  0  0
    8.2180   -1.7180   22.5110 C   0  0  0  0  0  0  0  0  0  0  0  0
    1.5220    3.7750   25.2170 C   0  0  0  0  0  0  0  0  0  0  0  0
    1.2530    2.5580   24.5750 C   0  0  0  0  0  0  0  0  0  0  0  0
   -0.0650    2.0820   24.5940 C   0  0  0  0  0  0  0  0  0  0  0  0
   -1.0960    2.7680   25.2200 C   0  0  0  0  0  0  0  0  0  0  0  0
   -0.9400    3.9790   25.8840 C   0  0  0  0  0  0  0  0  0  0  0  0
    0.5050    4.5040   25.8640 C   0  0  0  0  0  0  0  0  0  0  0  0
   12.4470    1.2280   22.9290 C   0  0  0  0  0  0  0  0  0  0  0  0
   12.9600    2.6760   22.7310 C   0  0  0  0  0  0  0  0  0  0  0  0
   11.9610    3.8330   22.9480 C   0  0  0  0  0  0  0  0  0  0  0  0
   10.7010    3.5960   23.3000 C   0  0  0  0  0  0  0  0  0  0  0  0
   10.1720    2.1420   23.4770 C   0  0  0  0  0  0  0  0  0  0  0  0
   11.1200    0.9460   23.2810 C   0  0  0  0  0  0  0  0  0  0  0  0
    6.5500   -5.2430   26.5480 C   0  0  0  0  0  0  0  0  0  0  0  0
    7.1370   -5.0210   25.2020 C   0  0  0  0  0  0  0  0  0  0  0  0
    8.6450   -5.2280   25.1030 C   0  0  0  0  0  0  0  0  0  0  0  0
    9.3110   -5.6040   26.2770 C   0  0  0  0  0  0  0  0  0  0  0  0
    8.6450   -5.7960   27.5480 C   0  0  0  0  0  0  0  0  0  0  0  0
    7.2840   -5.6140   27.6570 C   0  0  0  0  0  0  0  0  0  0  0  0
    7.1030   -4.2050   21.4130 C   0  0  0  0  0  0  0  0  0  0  0  0
    6.3260   -5.4980   21.8090 C   0  0  0  0  0  0  0  0  0  0  0  0
    5.7490   -5.5640   23.1160 C   0  0  0  0  0  0  0  0  0  0  0  0
    6.3380   -4.6360   24.1300 N   0  0  0  0  0  0  0  0  0  0  0  0
    6.7420   -3.3490   23.6580 C   0  0  0  0  0  0  0  0  0  0  0  0
    7.8120   -3.7250   22.6750 C   0  0  0  0  0  0  0  0  0  0  0  0
  2  3  1  0
  1  8  1  0
  1  9  1  0
  6  9  2  0
  4 10  1  0
 10  9  1  6
  4 11  1  0
  7 11  2  0
 13 14  1  0
 13 15  1  0
 13 16  1  0
 17 18  2  0
 17 19  1  0
 19 20  1  0
 20 21  1  0
  5 23  1  0
  5 24  1  0
  5 25  1  0
 26 27  2  0
 26 28  1  0
 29 30  2  0
 30 31  1  0
 21 32  1  0
 31 32  2  0
 10 33  1  0
 32 33  1  0
 29 34  1  0
 33 34  2  0
 35 36  2  0
 13 37  1  0
 36 37  1  0
 37 38  2  0
 38 39  1  0
  4 40  1  0
 35 40  1  0
 39 40  2  0
 22 41  1  0
 17 42  1  0
 41 42  2  0
 42 43  1  0
 43 44  2  0
 44 45  1  0
 41 46  1  0
 45 46  2  0
 47 48  2  0
  3 49  1  0
 48 49  1  0
  5 50  1  0
 49 50  2  0
  8 51  1  0
 50 51  1  0
 47 52  1  0
 51 52  2  0
 26 53  1  0
 53 54  2  0
 54 55  1  0
 55 56  2  0
 56 57  1  0
 53 58  1  0
 57 58  2  0
 59 11  1  0
 12 59  1  0
 59 60  1  0
 60 61  1  0
 54 62  1  0
 61 62  1  0
 62 63  1  0
 59 64  1  0
 63 64  1  0
M  CHG  2  26   1  28  -1
M  END
