x0946-x1077-x3110-x0691
     RDKit          3D

 61 67  0  0  0  0  0  0  0  0999 V2000
    7.9210    1.2190   23.3910 N   0  0  0  0  0  0  0  0  0  0  0  0
   13.3280    5.2350   21.5480 C   0  0  0  0  0  0  0  0  0  0  0  0
   13.2790    4.7210   22.9450 C   0  0  0  0  0  0  0  0  0  0  0  0
    6.8390   -1.4760   22.0600 N   0  0  0  0  0  0  0  0  0  0  0  0
   10.3440    5.1160   23.6390 C   0  0  0  0  0  0  0  0  0  0  0  0
    8.5620    1.4680   21.1970 O   0  0  0  0  0  0  0  0  0  0  0  0
    4.8360   -3.0460   21.2860 O   0  0  0  0  0  0  0  0  0  0  0  0
    8.6300    2.3750   23.9140 C   0  0  0  0  0  0  0  0  0  0  0  0
    7.7910    0.9460   22.0450 C   0  0  0  0  0  0  0  0  0  0  0  0
    6.6270   -0.0090   21.6140 C   0  0  1  0  0  0  0  0  0  0  0  0
    6.1350   -2.6620   21.5230 C   0  0  0  0  0  0  0  0  0  0  0  0
    7.1770   -3.7510   21.1510 C   0  0  2  0  0  0  0  0  0  0  0  0
    7.1360   -3.6170   19.6490 C   0  0  0  0  0  0  0  0  0  0  0  0
   12.3260   -1.8770   24.1760 C   0  0  0  0  0  0  0  0  0  0  0  0
   12.5840   -0.6280   24.9620 C   0  0  0  0  0  0  0  0  0  0  0  0
   13.3300   -1.9110   23.0410 C   0  0  0  0  0  0  0  0  0  0  0  0
   12.7030   -3.0010   25.1120 C   0  0  0  0  0  0  0  0  0  0  0  0
    9.1790    5.4320   22.8850 N   0  0  0  0  0  0  0  0  0  0  0  0
   10.0570    5.4140   24.9650 O   0  0  0  0  0  0  0  0  0  0  0  0
   11.2760    6.0730   23.2130 O   0  0  0  0  0  0  0  0  0  0  0  0
    4.1470   -6.8060   26.1070 O   0  0  0  0  0  0  0  0  0  0  0  0
    5.7290   -5.0750   26.8970 N   0  0  0  0  0  0  0  0  0  0  0  0
    2.9910   -0.4660   26.0190 F   0  0  0  0  0  0  0  0  0  0  0  0
    4.6970   -5.4960   25.8330 S   0  0  2  0  0  0  0  0  0  0  0  0
    6.3420    0.3490   17.8540 N   0  0  0  0  0  0  0  0  0  0  0  0
    5.2570    1.1430   17.8310 C   0  0  0  0  0  0  0  0  0  0  0  0
    4.5790    1.5690   18.9430 C   0  0  0  0  0  0  0  0  0  0  0  0
    5.0350    1.1720   20.1760 C   0  0  0  0  0  0  0  0  0  0  0  0
    6.1560    0.3620   20.2440 C   0  0  0  0  0  0  0  0  0  0  0  0
    6.7810   -0.0350   19.0640 C   0  0  0  0  0  0  0  0  0  0  0  0
    9.3100   -1.5650   21.7630 C   0  0  0  0  0  0  0  0  0  0  0  0
   10.6370   -1.6660   22.2820 C   0  0  0  0  0  0  0  0  0  0  0  0
   10.8870   -1.7940   23.6020 C   0  0  0  0  0  0  0  0  0  0  0  0
    9.7610   -1.8340   24.4750 C   0  0  0  0  0  0  0  0  0  0  0  0
    8.4430   -1.7370   23.9680 C   0  0  0  0  0  0  0  0  0  0  0  0
    8.1970   -1.5950   22.5890 C   0  0  0  0  0  0  0  0  0  0  0  0
   12.1890    1.0550   22.9930 C   0  0  0  0  0  0  0  0  0  0  0  0
   12.8950    2.2090   22.8810 C   0  0  0  0  0  0  0  0  0  0  0  0
   12.3420    3.5490   23.0910 C   0  0  0  0  0  0  0  0  0  0  0  0
   10.9030    3.6900   23.4430 C   0  0  0  0  0  0  0  0  0  0  0  0
   10.1070    2.4220   23.5710 C   0  0  0  0  0  0  0  0  0  0  0  0
   10.8690    1.1170   23.3210 C   0  0  0  0  0  0  0  0  0  0  0  0
    7.4650   -6.0420   25.4570 O   0  0  0  0  0  0  0  0  0  0  0  0
    8.0860   -5.7300   24.2070 C   0  0  2  0  0  0  0  0  0  0  0  0
    9.3910   -5.4050   24.3860 C   0  0  0  0  0  0  0  0  0  0  0  0
    9.7840   -5.1450   25.6570 C   0  0  0  0  0  0  0  0  0  0  0  0
    9.2540   -3.8700   26.0760 N   0  0  0  0  0  0  0  0  0  0  0  0
    7.9670   -4.0460   26.7760 C   0  0  0  0  0  0  0  0  0  0  0  0
    7.1610   -5.1540   26.5370 C   0  0  1  0  0  0  0  0  0  0  0  0
    2.7150   -1.7730   25.9230 C   0  0  0  0  0  0  0  0  0  0  0  0
    3.8670   -2.7590   25.9320 C   0  0  0  0  0  0  0  0  0  0  0  0
    3.4570   -4.2210   25.8210 C   0  0  0  0  0  0  0  0  0  0  0  0
    2.1470   -4.5590   25.7170 C   0  0  0  0  0  0  0  0  0  0  0  0
    1.1060   -3.6350   25.7100 C   0  0  0  0  0  0  0  0  0  0  0  0
    1.4040   -2.1790   25.8210 C   0  0  0  0  0  0  0  0  0  0  0  0
    6.9690   -5.0560   21.8670 N   0  0  0  0  0  0  0  0  0  0  0  0
    5.5500   -5.6250   21.7500 C   0  0  0  0  0  0  0  0  0  0  0  0
    4.7440   -5.8900   23.0360 C   0  0  0  0  0  0  0  0  0  0  0  0
    5.4610   -5.4990   24.2850 N   0  0  0  0  0  0  0  0  0  0  0  0
    6.2020   -4.2960   23.9540 C   0  0  0  0  0  0  0  0  0  0  0  0
    7.2970   -4.8170   23.2960 C   0  0  1  0  0  0  0  0  0  0  0  0
  2  3  1  0
  1  8  1  0
  1  9  1  0
  6  9  2  0
  4 10  1  0
 10  9  1  6
  4 11  1  0
  7 11  2  0
 11 12  1  0
 12 13  1  6
 14 15  1  0
 14 16  1  0
 14 17  1  0
  5 18  1  0
  5 19  1  0
  5 20  1  0
 21 24  2  0
 22 24  2  0
 25 26  2  0
 26 27  1  0
 27 28  2  0
 10 29  1  0
 28 29  1  0
 25 30  1  0
 29 30  2  0
 31 32  2  0
 14 33  1  0
 32 33  1  0
 33 34  2  0
 34 35  1  0
  4 36  1  0
 31 36  1  0
 35 36  2  0
 37 38  2  0
  3 39  1  0
 38 39  1  0
  5 40  1  0
 39 40  2  0
  8 41  1  0
 40 41  1  0
 37 42  1  0
 41 42  2  0
 43 44  1  0
 44 45  1  1
 45 46  1  0
 46 47  1  0
 47 48  1  0
 22 49  1  0
 43 49  1  0
 49 48  1  6
 23 50  1  0
 50 51  2  0
 24 52  1  6
 51 52  1  0
 52 53  2  0
 53 54  1  0
 50 55  1  0
 54 55  2  0
 12 56  1  0
 56 57  1  0
 57 58  1  0
 24 59  1  0
 58 59  1  0
 59 60  1  0
 44 61  1  0
 61 56  1  6
 60 61  1  0
M  END
