x0946-x3110-x3113-x1077-x0691
     RDKit          3D

 61 67  0  0  0  0  0  0  0  0999 V2000
    7.9060    1.2340   23.4850 N   0  0  0  0  0  0  0  0  0  0  0  0
   13.4240    5.3210   23.2230 C   0  0  0  0  0  0  0  0  0  0  0  0
   13.0440    4.3560   22.1920 C   0  0  0  0  0  0  0  0  0  0  0  0
    6.8010   -1.5210   22.1010 N   0  0  0  0  0  0  0  0  0  0  0  0
   10.3220    4.8020   23.2200 C   0  0  0  0  0  0  0  0  0  0  0  0
    8.5840    1.4290   21.2500 O   0  0  0  0  0  0  0  0  0  0  0  0
    4.8040   -3.0140   21.3220 O   0  0  0  0  0  0  0  0  0  0  0  0
    8.7690    2.3110   24.0640 C   0  0  0  0  0  0  0  0  0  0  0  0
    7.8120    0.9400   22.1100 C   0  0  0  0  0  0  0  0  0  0  0  0
    6.5950   -0.0440   21.7440 C   0  0  1  0  0  0  0  0  0  0  0  0
    6.1030   -2.6720   21.5180 C   0  0  0  0  0  0  0  0  0  0  0  0
    7.0640   -3.6840   21.0760 C   0  0  2  0  0  0  0  0  0  0  0  0
    7.1460   -3.5780   19.5840 C   0  0  0  0  0  0  0  0  0  0  0  0
   12.2890   -1.8550   24.1630 C   0  0  0  0  0  0  0  0  0  0  0  0
   12.5240   -0.6270   25.0380 C   0  0  0  0  0  0  0  0  0  0  0  0
   13.3430   -1.8430   23.0490 C   0  0  0  0  0  0  0  0  0  0  0  0
   12.6280   -3.0650   25.0310 C   0  0  0  0  0  0  0  0  0  0  0  0
    8.9900    4.8910   22.7460 N   0  0  0  0  0  0  0  0  0  0  0  0
   11.0680    5.7140   22.5160 O   0  0  0  0  0  0  0  0  0  0  0  0
   10.4030    5.4750   24.4300 O   0  0  0  0  0  0  0  0  0  0  0  0
    4.1020   -6.7250   26.1020 O   0  0  0  0  0  0  0  0  0  0  0  0
    5.7430   -4.9820   26.8390 N   0  0  0  0  0  0  0  0  0  0  0  0
    3.0720   -0.5320   26.0490 F   0  0  0  0  0  0  0  0  0  0  0  0
    4.6610   -5.4110   25.8270 S   0  0  2  0  0  0  0  0  0  0  0  0
    6.3650    0.3990   17.8880 N   0  0  0  0  0  0  0  0  0  0  0  0
    5.2750    1.1890   17.7780 C   0  0  0  0  0  0  0  0  0  0  0  0
    4.4400    1.6760   18.9160 C   0  0  0  0  0  0  0  0  0  0  0  0
    4.8670    1.2550   20.2650 C   0  0  0  0  0  0  0  0  0  0  0  0
    6.0850    0.3870   20.3970 C   0  0  0  0  0  0  0  0  0  0  0  0
    6.7710    0.0020   19.1180 C   0  0  0  0  0  0  0  0  0  0  0  0
    9.2800   -1.5920   21.7870 C   0  0  0  0  0  0  0  0  0  0  0  0
   10.5890   -1.6740   22.2710 C   0  0  0  0  0  0  0  0  0  0  0  0
   10.8340   -1.7890   23.6340 C   0  0  0  0  0  0  0  0  0  0  0  0
    9.7340   -1.8260   24.4850 C   0  0  0  0  0  0  0  0  0  0  0  0
    8.4020   -1.7450   23.9990 C   0  0  0  0  0  0  0  0  0  0  0  0
    8.1690   -1.6230   22.6270 C   0  0  0  0  0  0  0  0  0  0  0  0
   12.1300    0.8700   23.2180 C   0  0  0  0  0  0  0  0  0  0  0  0
   12.8050    1.9820   22.7810 C   0  0  0  0  0  0  0  0  0  0  0  0
   12.2220    3.2440   22.7430 C   0  0  0  0  0  0  0  0  0  0  0  0
   10.9240    3.3870   23.2020 C   0  0  0  0  0  0  0  0  0  0  0  0
   10.2180    2.2530   23.6230 C   0  0  0  0  0  0  0  0  0  0  0  0
   10.8170    0.9910   23.6390 C   0  0  0  0  0  0  0  0  0  0  0  0
    7.3450   -6.0200   25.3160 O   0  0  0  0  0  0  0  0  0  0  0  0
    8.0500   -5.7390   24.0950 C   0  0  2  0  0  0  0  0  0  0  0  0
    9.5240   -5.6030   24.3050 C   0  0  0  0  0  0  0  0  0  0  0  0
    9.9380   -5.1890   25.6830 C   0  0  0  0  0  0  0  0  0  0  0  0
    9.3790   -3.9190   26.0390 N   0  0  0  0  0  0  0  0  0  0  0  0
    8.0080   -3.9680   26.5540 C   0  0  0  0  0  0  0  0  0  0  0  0
    7.1500   -5.2380   26.4990 C   0  0  1  0  0  0  0  0  0  0  0  0
    2.7470   -1.8230   25.9360 C   0  0  0  0  0  0  0  0  0  0  0  0
    3.6800   -2.8260   25.9280 C   0  0  0  0  0  0  0  0  0  0  0  0
    3.3270   -4.1580   25.8120 C   0  0  0  0  0  0  0  0  0  0  0  0
    2.0020   -4.5490   25.6920 C   0  0  0  0  0  0  0  0  0  0  0  0
    1.0280   -3.5420   25.6980 C   0  0  0  0  0  0  0  0  0  0  0  0
    1.4000   -2.1890   25.8220 C   0  0  0  0  0  0  0  0  0  0  0  0
    6.9040   -5.0040   21.7580 N   0  0  0  0  0  0  0  0  0  0  0  0
    5.5570   -5.7340   21.7210 C   0  0  0  0  0  0  0  0  0  0  0  0
    4.6840   -5.8520   23.0340 C   0  0  0  0  0  0  0  0  0  0  0  0
    5.4180   -5.4920   24.2690 N   0  0  0  0  0  0  0  0  0  0  0  0
    6.1140   -4.2670   23.9330 C   0  0  0  0  0  0  0  0  0  0  0  0
    7.3400   -4.7660   23.1720 C   0  0  1  0  0  0  0  0  0  0  0  0
  2  3  1  0
  1  8  1  0
  1  9  1  0
  6  9  2  0
  4 10  1  0
 10  9  1  6
  4 11  1  0
  7 11  2  0
 11 12  1  0
 12 13  1  6
 14 15  1  0
 14 16  1  0
 14 17  1  0
  5 18  1  0
  5 19  1  0
  5 20  1  0
 21 24  2  0
 22 24  2  0
 25 26  2  0
 26 27  1  0
 27 28  2  0
 10 29  1  0
 28 29  1  0
 25 30  1  0
 29 30  2  0
 31 32  2  0
 14 33  1  0
 32 33  1  0
 33 34  2  0
 34 35  1  0
  4 36  1  0
 31 36  1  0
 35 36  2  0
 37 38  2  0
  3 39  1  0
 38 39  1  0
  5 40  1  0
 39 40  2  0
  8 41  1  0
 40 41  1  0
 37 42  1  0
 41 42  2  0
 43 44  1  0
 44 45  1  1
 45 46  1  0
 46 47  1  0
 47 48  1  0
 22 49  1  0
 43 49  1  0
 49 48  1  6
 23 50  1  0
 50 51  2  0
 24 52  1  6
 51 52  1  0
 52 53  2  0
 53 54  1  0
 50 55  1  0
 54 55  2  0
 12 56  1  0
 56 57  1  0
 57 58  1  0
 24 59  1  0
 58 59  1  0
 59 60  1  0
 44 61  1  0
 61 56  1  6
 60 61  1  0
M  END
