x0946-x2608
     RDKit          3D

 25 27  0  0  0  0  0  0  0  0999 V2000
    8.7530   -1.5000   21.4310 N   0  0  0  0  0  0  0  0  0  0  0  0
    8.1690    0.7010   21.0060 O   0  0  0  0  0  0  0  0  0  0  0  0
    6.6110   -0.9610   20.8190 N   0  0  0  0  0  0  0  0  0  0  0  0
    7.8680   -0.4920   21.0800 C   0  0  0  0  0  0  0  0  0  0  0  0
    9.4210    5.7930   22.6800 N   0  0  0  0  0  0  0  0  0  0  0  0
   10.2860    5.5490   24.9200 O   0  0  0  0  0  0  0  0  0  0  0  0
   11.8990    5.9930   23.0300 O   0  0  0  0  0  0  0  0  0  0  0  0
   13.2100   -1.6100   24.2410 Br  0  0  0  0  0  0  0  0  0  0  0  0
   10.7480    5.3210   23.5780 S   0  0  0  0  0  0  0  0  0  0  0  0
   11.5880    0.7740   23.3350 C   0  0  2  0  0  0  0  0  0  0  0  0
   11.8200   -0.7780   23.3970 C   0  0  0  0  0  0  0  0  0  0  0  0
   10.8630   -1.5530   22.7580 C   0  0  0  0  0  0  0  0  0  0  0  0
    9.8510   -0.8790   22.1210 C   0  0  0  0  0  0  0  0  0  0  0  0
   10.1730    0.8170   22.3060 S   0  0  0  0  0  0  0  0  0  0  0  0
    6.1920    0.7990   17.6950 N   0  0  0  0  0  0  0  0  0  0  0  0
    6.6750   -0.0050   18.6420 C   0  0  0  0  0  0  0  0  0  0  0  0
    6.1070   -0.1680   19.8880 C   0  0  0  0  0  0  0  0  0  0  0  0
    4.8210    0.6290   20.2160 C   0  0  0  0  0  0  0  0  0  0  0  0
    4.2840    1.4730   19.2580 C   0  0  0  0  0  0  0  0  0  0  0  0
    4.9380    1.5670   18.0380 C   0  0  0  0  0  0  0  0  0  0  0  0
   12.6100    1.8140   22.9480 C   0  0  0  0  0  0  0  0  0  0  0  0
   12.2440    3.1800   22.9410 C   0  0  0  0  0  0  0  0  0  0  0  0
   10.9150    3.5650   23.2900 C   0  0  1  0  0  0  0  0  0  0  0  0
   10.3890    2.6970   24.2490 C   0  0  0  0  0  0  0  0  0  0  0  0
   10.6890    1.3570   24.3300 C   0  0  0  0  0  0  0  0  0  0  0  0
  1  4  1  0
  2  4  2  0
  3  4  1  0
  9  5  1  0
  6  9  2  0
  7  9  2  0
  8 11  1  0
 10 11  1  0
 11 12  2  0
  1 13  1  0
 12 13  1  0
 10 14  1  0
 13 14  2  0
 15 16  2  0
  3 17  1  0
 16 17  1  0
 17 18  2  0
 18 19  1  0
 15 20  1  0
 19 20  2  0
 10 21  1  6
 21 22  2  0
 23  9  1  1
 22 23  1  0
 23 24  1  0
 10 25  1  0
 24 25  2  0
M  END
