x0946-x2646
     RDKit          3D

 28 30  0  0  0  0  0  0  0  0999 V2000
    4.8470    1.1800   21.7140 C   0  0  0  0  0  0  0  0  0  0  0  0
    8.7030    0.8280   21.2700 O   0  0  0  0  0  0  0  0  0  0  0  0
   13.1650   -2.8820   21.5030 Cl  0  0  0  0  0  0  0  0  0  0  0  0
    7.0030   -0.7340   20.9170 N   0  0  0  0  0  0  0  0  0  0  0  0
    8.1030   -0.2150   21.5210 C   0  0  0  0  0  0  0  0  0  0  0  0
    8.6970   -0.9730   22.6830 C   0  0  0  0  0  0  0  0  0  0  0  0
    9.0230    5.5450   22.8360 N   0  0  0  0  0  0  0  0  0  0  0  0
    9.7830    5.6390   25.2880 O   0  0  0  0  0  0  0  0  0  0  0  0
   11.1040    6.7850   23.4910 O   0  0  0  0  0  0  0  0  0  0  0  0
   10.2980    5.6710   23.9450 S   0  0  0  0  0  0  0  0  0  0  0  0
    6.2180    0.6710   17.5470 N   0  0  0  0  0  0  0  0  0  0  0  0
    6.7120   -0.0100   18.6230 C   0  0  0  0  0  0  0  0  0  0  0  0
    6.3220    0.1050   19.9470 C   0  0  0  0  0  0  0  0  0  0  0  0
    5.3050    1.0070   20.3040 C   0  0  0  0  0  0  0  0  0  0  0  0
    4.7590    1.7260   19.2550 C   0  0  0  0  0  0  0  0  0  0  0  0
    5.2180    1.5730   17.7880 C   0  0  0  0  0  0  0  0  0  0  0  0
   10.7780    0.2550   23.1310 C   0  0  0  0  0  0  0  0  0  0  0  0
   12.1590    0.5990   23.2340 C   0  0  0  0  0  0  0  0  0  0  0  0
   12.7830   -0.5510   22.7030 C   0  0  0  0  0  0  0  0  0  0  0  0
   12.2210   -1.6760   22.1620 C   0  0  0  0  0  0  0  0  0  0  0  0
   10.9100   -1.8320   22.1380 C   0  0  0  0  0  0  0  0  0  0  0  0
   10.1740   -0.8750   22.6360 C   0  0  0  0  0  0  0  0  0  0  0  0
   12.4580    2.0100   23.0600 C   0  0  0  0  0  0  0  0  0  0  0  0
   13.0260    3.2270   22.7360 C   0  0  0  0  0  0  0  0  0  0  0  0
   12.5010    4.4130   22.9350 C   0  0  0  0  0  0  0  0  0  0  0  0
   11.1700    4.2820   23.5940 C   0  0  0  0  0  0  0  0  0  0  0  0
   10.6620    2.8630   23.9200 C   0  0  0  0  0  0  0  0  0  0  0  0
   11.2410    1.5880   23.6790 C   0  0  0  0  0  0  0  0  0  0  0  0
  2  5  2  0
  4  5  1  0
  5  6  1  0
 10  7  1  0
  8 10  2  0
  9 10  2  0
 11 12  2  0
  4 13  1  0
 12 13  1  0
  1 14  1  0
 13 14  2  0
 14 15  1  0
 11 16  1  0
 15 16  2  0
 17 18  2  0
 18 19  1  0
  3 20  1  0
 19 20  2  0
 20 21  1  0
  6 22  1  0
 17 22  1  0
 21 22  2  0
 23 24  2  0
 24 25  1  0
 10 26  1  0
 25 26  2  0
 26 27  1  0
 18 28  1  0
 23 28  1  0
 27 28  2  0
M  END
