x0946-x3115
     RDKit          3D

 38 40  0  0  0  0  0  0  0  0999 V2000
    6.7840   -1.6490   21.9040 N   0  0  0  0  0  0  0  0  0  0  0  0
    6.7690   -4.8680   20.5130 C   0  0  0  0  0  0  0  0  0  0  0  0
    4.8060   -3.0300   21.2910 O   0  0  0  0  0  0  0  0  0  0  0  0
    6.8620   -4.0780   21.8090 C   0  0  0  0  0  0  0  0  0  0  0  0
    7.1930    1.7540   22.9060 N   0  0  0  0  0  0  0  0  0  0  0  0
    8.5390    0.6980   21.3900 O   0  0  0  0  0  0  0  0  0  0  0  0
    6.0350   -2.8460   21.6420 C   0  0  0  0  0  0  0  0  0  0  0  0
    8.7140    5.0160   22.9080 N   0  0  0  0  0  0  0  0  0  0  0  0
    6.3730   -0.2050   21.7610 C   0  0  1  0  0  0  0  0  0  0  0  0
    7.4540    0.7310   21.9800 C   0  0  0  0  0  0  0  0  0  0  0  0
    8.1830    2.7760   23.3360 C   0  0  0  0  0  0  0  0  0  0  0  0
    8.3180    3.8110   22.3890 C   0  0  0  0  0  0  0  0  0  0  0  0
    8.1970    6.1050   22.2430 C   0  0  0  0  0  0  0  0  0  0  0  0
   12.2870   -1.8030   24.1070 C   0  0  0  0  0  0  0  0  0  0  0  0
   13.2870   -1.7080   23.1640 C   0  0  0  0  0  0  0  0  0  0  0  0
   12.6680   -3.0140   24.9440 C   0  0  0  0  0  0  0  0  0  0  0  0
   12.5550   -0.6480   25.0130 C   0  0  0  0  0  0  0  0  0  0  0  0
    9.8370    5.4570   25.0730 O   0  0  0  0  0  0  0  0  0  0  0  0
   10.9840    6.1860   22.9690 O   0  0  0  0  0  0  0  0  0  0  0  0
   10.1950    5.2060   23.6970 S   0  0  0  0  0  0  0  0  0  0  0  0
    6.3130    0.2170   17.7910 N   0  0  0  0  0  0  0  0  0  0  0  0
    5.1980    1.0220   18.0540 C   0  0  0  0  0  0  0  0  0  0  0  0
    4.4230    1.4990   19.0090 C   0  0  0  0  0  0  0  0  0  0  0  0
    4.8580    1.0470   20.2430 C   0  0  0  0  0  0  0  0  0  0  0  0
    6.0170    0.1790   20.3280 C   0  0  0  0  0  0  0  0  0  0  0  0
    6.7130   -0.2200   19.1290 C   0  0  0  0  0  0  0  0  0  0  0  0
    9.2100   -1.9010   21.6560 C   0  0  0  0  0  0  0  0  0  0  0  0
   10.6150   -1.9360   22.2610 C   0  0  0  0  0  0  0  0  0  0  0  0
   10.8530   -1.7870   23.6180 C   0  0  0  0  0  0  0  0  0  0  0  0
    9.7180   -1.6110   24.4350 C   0  0  0  0  0  0  0  0  0  0  0  0
    8.4030   -1.5810   23.8810 C   0  0  0  0  0  0  0  0  0  0  0  0
    8.1340   -1.7140   22.5080 C   0  0  0  0  0  0  0  0  0  0  0  0
   12.3890    1.2620   23.1950 C   0  0  0  0  0  0  0  0  0  0  0  0
   12.9750    2.4390   22.7860 C   0  0  0  0  0  0  0  0  0  0  0  0
   12.2980    3.6310   22.9400 C   0  0  0  0  0  0  0  0  0  0  0  0
   11.0290    3.6410   23.5190 C   0  0  0  0  0  0  0  0  0  0  0  0
   10.4640    2.4710   23.9280 C   0  0  0  0  0  0  0  0  0  0  0  0
   11.1310    1.2590   23.7700 C   0  0  0  0  0  0  0  0  0  0  0  0
  2  4  1  0
  1  7  1  0
  3  7  2  0
  4  7  1  0
  1  9  1  0
  5 10  1  0
  6 10  2  0
  9 10  1  6
  5 11  1  0
  8 12  1  0
 11 12  1  0
  8 13  1  0
 14 15  1  0
 14 16  1  0
 14 17  1  0
 20  8  1  0
 18 20  2  0
 19 20  2  0
 21 22  2  0
 22 23  1  0
 23 24  2  0
  9 25  1  0
 24 25  1  0
 21 26  1  0
 25 26  2  0
 27 28  2  0
 14 29  1  0
 28 29  1  0
 29 30  2  0
 30 31  1  0
  1 32  1  0
 27 32  1  0
 31 32  2  0
 33 34  2  0
 34 35  1  0
 20 36  1  0
 35 36  2  0
 36 37  1  0
 33 38  1  0
 37 38  2  0
M  END
