x0946-x2964
     RDKit          3D

 26 28  0  0  0  0  0  0  0  0999 V2000
    3.2530    2.1320   19.0290 N   0  0  0  0  0  0  0  0  0  0  0  0
    8.6490    1.2520   21.1270 O   0  0  0  0  0  0  0  0  0  0  0  0
   13.1670   -2.5370   21.9750 Cl  0  0  0  0  0  0  0  0  0  0  0  0
    7.2580   -0.5600   20.9480 N   0  0  0  0  0  0  0  0  0  0  0  0
    8.8850   -0.4830   22.6500 N   0  0  0  0  0  0  0  0  0  0  0  0
    8.2710    0.1360   21.5460 C   0  0  0  0  0  0  0  0  0  0  0  0
    9.0710    5.4770   22.7810 N   0  0  0  0  0  0  0  0  0  0  0  0
   10.1400    5.1430   25.1820 O   0  0  0  0  0  0  0  0  0  0  0  0
   11.3150    6.1370   23.2010 O   0  0  0  0  0  0  0  0  0  0  0  0
   10.2330    5.3400   23.7540 S   0  0  0  0  0  0  0  0  0  0  0  0
    4.4270    1.4380   19.1140 C   0  0  0  0  0  0  0  0  0  0  0  0
    5.0840    0.8040   20.3060 C   0  0  0  0  0  0  0  0  0  0  0  0
    6.2970    0.1090   20.3230 C   0  0  0  0  0  0  0  0  0  0  0  0
    6.8100    0.0950   18.9640 C   0  0  0  0  0  0  0  0  0  0  0  0
    6.3260    0.6250   17.7980 N   0  0  0  0  0  0  0  0  0  0  0  0
    5.1790    1.2770   17.8730 C   0  0  0  0  0  0  0  0  0  0  0  0
   10.8810    1.2080   22.8720 C   0  0  0  0  0  0  0  0  0  0  0  0
   12.3640    1.3060   22.7440 C   0  0  0  0  0  0  0  0  0  0  0  0
   13.0940    0.1700   22.4880 C   0  0  0  0  0  0  0  0  0  0  0  0
   12.4790   -1.0490   22.3170 C   0  0  0  0  0  0  0  0  0  0  0  0
   11.1160   -1.2450   22.3850 C   0  0  0  0  0  0  0  0  0  0  0  0
   10.3020   -0.1720   22.6500 C   0  0  0  0  0  0  0  0  0  0  0  0
   12.9960    2.5060   22.8580 C   0  0  0  0  0  0  0  0  0  0  0  0
   12.2880    3.6580   23.1450 C   0  0  0  0  0  0  0  0  0  0  0  0
   10.9140    3.7420   23.3420 C   0  0  0  0  0  0  0  0  0  0  0  0
   10.1860    2.5410   23.1960 C   0  0  0  0  0  0  0  0  0  0  0  0
  2  6  2  0
  4  6  1  0
  5  6  1  0
 10  7  1  0
  8 10  2  0
  9 10  2  0
  1 11  1  0
 11 12  2  0
  4 13  1  0
 12 13  1  0
 13 14  2  0
 14 15  1  0
 11 16  1  0
 15 16  2  0
 17 18  1  0
 18 19  2  0
  3 20  1  0
 19 20  1  0
 20 21  2  0
  5 22  1  0
 17 22  2  0
 21 22  1  0
 18 23  1  0
 23 24  2  0
 10 25  1  0
 24 25  1  0
 17 26  1  0
 25 26  2  0
M  END
