x0946-x1249
     RDKit          3D

 26 28  0  0  0  0  0  0  0  0999 V2000
    8.3000    0.5050   25.1090 N   0  0  0  0  0  0  0  0  0  0  0  0
    7.6960    1.4880   24.3200 C   0  0  0  0  0  0  0  0  0  0  0  0
    8.2470    2.5160   23.9560 O   0  0  0  0  0  0  0  0  0  0  0  0
    9.6170    0.8530   25.2250 C   0  0  0  0  0  0  0  0  0  0  0  0
   13.4440   -2.7180   20.7440 N   0  0  0  0  0  0  0  0  0  0  0  0
   12.7060   -1.9680   21.5340 C   0  0  0  0  0  0  0  0  0  0  0  0
    8.9680    5.3270   22.4540 N   0  0  0  0  0  0  0  0  0  0  0  0
   10.1120    5.3740   24.5990 O   0  0  0  0  0  0  0  0  0  0  0  0
   11.4640    5.8460   22.5460 O   0  0  0  0  0  0  0  0  0  0  0  0
   10.4230    5.0940   23.2130 S   0  0  0  0  0  0  0  0  0  0  0  0
    3.7240    1.2720   23.5390 O   0  0  0  0  0  0  0  0  0  0  0  0
    4.5200    1.3890   22.6030 C   0  0  0  0  0  0  0  0  0  0  0  0
    5.7420    1.9890   22.9020 C   0  0  0  0  0  0  0  0  0  0  0  0
    6.4080    1.2340   23.9660 N   0  0  0  0  0  0  0  0  0  0  0  0
    5.5870    0.7660   24.9270 C   0  0  0  0  0  0  0  0  0  0  0  0
    4.2390    0.5450   24.6650 C   0  0  0  0  0  0  0  0  0  0  0  0
   11.3380    1.0020   23.2400 C   0  0  1  0  0  0  0  0  0  0  0  0
   11.9930    0.1350   22.4450 C   0  0  0  0  0  0  0  0  0  0  0  0
   11.8990   -1.2290   22.3980 C   0  0  0  0  0  0  0  0  0  0  0  0
   11.0420   -1.9350   23.1970 C   0  0  0  0  0  0  0  0  0  0  0  0
   10.4020   -1.1170   24.1020 C   0  0  0  0  0  0  0  0  0  0  0  0
   10.5380    0.2660   24.1400 C   0  0  0  0  0  0  0  0  0  0  0  0
   12.4810    1.7700   23.5110 C   0  0  0  0  0  0  0  0  0  0  0  0
   12.1370    3.1140   23.3930 C   0  0  0  0  0  0  0  0  0  0  0  0
   10.8830    3.3540   23.1290 C   0  0  0  0  0  0  0  0  0  0  0  0
   10.3340    2.1200   22.8680 C   0  0  0  0  0  0  0  0  0  0  0  0
  1  2  1  0
  2  3  2  0
  1  4  1  0
  5  6  3  0
 10  7  1  0
  8 10  2  0
  9 10  2  0
 11 12  1  0
 12 13  1  0
  2 14  1  0
 13 14  1  0
 14 15  1  0
 11 16  1  0
 15 16  1  0
 17 18  1  6
  6 19  1  0
 18 19  2  0
 19 20  1  0
 20 21  1  0
  4 22  1  0
 17 22  1  0
 21 22  2  0
 17 23  1  0
 23 24  2  0
 10 25  1  0
 24 25  1  0
 17 26  1  0
 25 26  2  0
M  END
