x0946-x2649
     RDKit          3D

 29 31  0  0  0  0  0  0  0  0999 V2000
    6.8630   -0.5880   21.0250 N   0  0  0  0  0  0  0  0  0  0  0  0
    7.9360   -0.7310   23.9520 C   0  0  0  0  0  0  0  0  0  0  0  0
    8.6680    0.9270   21.2720 O   0  0  0  0  0  0  0  0  0  0  0  0
   13.1820   -2.8720   21.4900 Cl  0  0  0  0  0  0  0  0  0  0  0  0
    8.6340   -1.0300   22.6280 C   0  0  1  0  0  0  0  0  0  0  0  0
    8.0970   -0.1100   21.5850 C   0  0  0  0  0  0  0  0  0  0  0  0
    5.1320    0.7840   21.3870 C   0  0  0  0  0  0  0  0  0  0  0  0
    9.0080    5.5500   22.8470 N   0  0  0  0  0  0  0  0  0  0  0  0
    9.6970    5.6220   25.3160 O   0  0  0  0  0  0  0  0  0  0  0  0
   11.1260    6.6920   23.5540 O   0  0  0  0  0  0  0  0  0  0  0  0
   10.2550    5.6210   23.9930 S   0  0  0  0  0  0  0  0  0  0  0  0
    6.2270    0.7110   17.5300 N   0  0  0  0  0  0  0  0  0  0  0  0
    5.0650    1.6750   17.7510 C   0  0  0  0  0  0  0  0  0  0  0  0
    4.5490    1.8160   19.0530 C   0  0  0  0  0  0  0  0  0  0  0  0
    5.1410    1.0860   20.0200 C   0  0  0  0  0  0  0  0  0  0  0  0
    6.3090    0.1130   19.8860 C   0  0  0  0  0  0  0  0  0  0  0  0
    6.8250   -0.0570   18.6380 C   0  0  0  0  0  0  0  0  0  0  0  0
   10.7430    0.1840   23.1520 C   0  0  0  0  0  0  0  0  0  0  0  0
   12.1240    0.5510   23.2960 C   0  0  0  0  0  0  0  0  0  0  0  0
   12.7560   -0.5800   22.7430 C   0  0  0  0  0  0  0  0  0  0  0  0
   12.2060   -1.7000   22.1620 C   0  0  0  0  0  0  0  0  0  0  0  0
   10.9040   -1.8840   22.1020 C   0  0  0  0  0  0  0  0  0  0  0  0
   10.1420   -0.9460   22.6110 C   0  0  0  0  0  0  0  0  0  0  0  0
   12.4290    1.9160   23.0540 C   0  0  0  0  0  0  0  0  0  0  0  0
   13.0560    3.0680   22.6150 C   0  0  0  0  0  0  0  0  0  0  0  0
   12.3640    4.3330   22.9050 C   0  0  0  0  0  0  0  0  0  0  0  0
   11.1190    4.1190   23.6380 C   0  0  0  0  0  0  0  0  0  0  0  0
   10.6350    2.8600   24.0300 C   0  0  0  0  0  0  0  0  0  0  0  0
   11.2280    1.5530   23.7730 C   0  0  0  0  0  0  0  0  0  0  0  0
  5  2  1  1
  1  6  1  0
  3  6  2  0
  5  6  1  0
 11  8  1  0
  9 11  2  0
 10 11  2  0
 12 13  2  0
 13 14  1  0
  7 15  1  0
 14 15  2  0
  1 16  1  0
 15 16  1  0
 12 17  1  0
 16 17  2  0
 18 19  2  0
 19 20  1  0
  4 21  1  0
 20 21  2  0
 21 22  1  0
  5 23  1  0
 18 23  1  0
 22 23  2  0
 24 25  2  0
 25 26  1  0
 11 27  1  0
 26 27  2  0
 27 28  1  0
 19 29  1  0
 24 29  1  0
 28 29  2  0
M  END
