x0946
     RDKit          3D

 11 11  0  0  0  0  0  0  0  0999 V2000
    9.4120    5.1100   22.9750 N   0  0  0  0  0  0  0  0  0  0  0  0
   12.5020    1.0600   23.1300 C   0  0  0  0  0  0  0  0  0  0  0  0
   10.2510    5.1710   25.2810 O   0  0  0  0  0  0  0  0  0  0  0  0
   11.2610    1.1280   23.7700 C   0  0  0  0  0  0  0  0  0  0  0  0
   11.6170    6.1220   23.4850 O   0  0  0  0  0  0  0  0  0  0  0  0
   10.7180    2.4000   24.0320 C   0  0  0  0  0  0  0  0  0  0  0  0
   11.3900    3.5880   23.6660 C   0  0  0  0  0  0  0  0  0  0  0  0
   12.6370    3.4560   23.0360 C   0  0  0  0  0  0  0  0  0  0  0  0
   13.1990    2.2080   22.7690 C   0  0  0  0  0  0  0  0  0  0  0  0
   13.3040   -0.6920   22.6750 Br  0  0  0  0  0  0  0  0  0  0  0  0
   10.7280    5.1110   23.9540 S   0  0  2  0  0  0  0  0  0  0  0  0
  2  4  2  0
  4  6  1  0
  6  7  2  0
  7  8  1  0
  2  9  1  0
  8  9  2  0
  2 10  1  0
 11  1  1  6
  3 11  2  0
  5 11  2  0
  7 11  1  0
M  END
