x0946-x0161
     RDKit          3D

 14 14  0  0  0  0  0  0  0  0999 V2000
   13.3280   -2.2500   24.3710 C   0  0  0  0  0  0  0  0  0  0  0  0
   12.9200   -1.0830   24.4240 O   0  0  0  0  0  0  0  0  0  0  0  0
   12.9720   -0.4560   23.3570 C   0  0  0  0  0  0  0  0  0  0  0  0
   13.5260   -0.8390   22.3340 O   0  0  0  0  0  0  0  0  0  0  0  0
   10.2620    5.1910   23.6110 S   0  0  0  0  0  0  0  0  0  0  0  0
   11.2040    6.0710   22.9560 O   0  0  0  0  0  0  0  0  0  0  0  0
    9.7840    5.5040   24.9400 O   0  0  0  0  0  0  0  0  0  0  0  0
    8.8640    5.0750   22.6460 N   0  0  0  0  0  0  0  0  0  0  0  0
   12.2710    0.9120   23.4180 C   0  0  0  0  0  0  0  0  0  0  0  0
   12.8320    2.0890   22.9880 C   0  0  0  0  0  0  0  0  0  0  0  0
   12.1790    3.3430   23.0600 C   0  0  0  0  0  0  0  0  0  0  0  0
   10.8720    3.5700   23.5820 C   0  0  0  0  0  0  0  0  0  0  0  0
   10.2160    2.4030   24.0370 C   0  0  0  0  0  0  0  0  0  0  0  0
   10.9130    1.0150   23.9680 C   0  0  0  0  0  0  0  0  0  0  0  0
  1  2  1  0
  2  3  1  0
  3  4  2  0
  5  6  2  0
  5  7  2  0
  5  8  1  0
  3  9  1  0
  9 10  2  0
 10 11  1  0
  5 12  1  0
 11 12  2  0
 12 13  1  0
  9 14  1  0
 13 14  2  0
M  END
