x0946-x0978-x3110-x3113
     RDKit          3D

 50 52  0  0  0  0  0  0  0  0999 V2000
    8.0120    1.3240   23.3900 N   0  0  0  0  0  0  0  0  0  0  0  0
   13.2610    5.3570   21.5830 C   0  0  0  0  0  0  0  0  0  0  0  0
   13.3080    4.7050   22.9580 C   0  0  0  0  0  0  0  0  0  0  0  0
    7.2420   -1.3930   21.8170 N   0  0  0  0  0  0  0  0  0  0  0  0
   10.3860    5.1310   23.6510 C   0  0  0  0  0  0  0  0  0  0  0  0
    8.6950    1.5860   21.1960 O   0  0  0  0  0  0  0  0  0  0  0  0
    8.6340    2.4520   23.8950 C   0  0  0  0  0  0  0  0  0  0  0  0
    7.9380    1.0440   22.0250 C   0  0  0  0  0  0  0  0  0  0  0  0
    6.8360    0.0380   21.6930 C   0  0  1  0  0  0  0  0  0  0  0  0
   12.4530   -1.8460   24.1970 C   0  0  0  0  0  0  0  0  0  0  0  0
   12.6530   -0.6050   25.0460 C   0  0  0  0  0  0  0  0  0  0  0  0
   13.4620   -1.8980   23.0670 C   0  0  0  0  0  0  0  0  0  0  0  0
   12.7750   -3.0450   25.0650 C   0  0  0  0  0  0  0  0  0  0  0  0
    9.1910    5.3600   22.9070 N   0  0  0  0  0  0  0  0  0  0  0  0
   10.0920    5.4720   24.9700 O   0  0  0  0  0  0  0  0  0  0  0  0
   11.3120    6.1360   23.3230 O   0  0  0  0  0  0  0  0  0  0  0  0
    2.2720   -6.3920   22.6050 N   0  0  0  0  0  0  0  0  0  0  0  0
    2.3580   -8.0420   24.8130 C   0  0  0  0  0  0  0  0  0  0  0  0
    4.5710   -7.8160   24.2160 O   0  0  0  0  0  0  0  0  0  0  0  0
    3.4620   -7.0630   24.6760 C   0  0  1  0  0  0  0  0  0  0  0  0
    5.2800   -5.6520   22.3040 N   0  0  0  0  0  0  0  0  0  0  0  0
    0.2510   -7.2390   21.8540 O   0  0  0  0  0  0  0  0  0  0  0  0
    3.1230   -5.9400   23.6990 C   0  0  1  0  0  0  0  0  0  0  0  0
    4.4610   -3.9310   23.5440 O   0  0  0  0  0  0  0  0  0  0  0  0
    0.8090   -6.3820   22.5330 C   0  0  0  0  0  0  0  0  0  0  0  0
    0.0190   -5.4560   23.1800 C   0  0  0  0  0  0  0  0  0  0  0  0
    4.3450   -5.0940   23.1790 C   0  0  0  0  0  0  0  0  0  0  0  0
    6.4230   -4.9950   21.8860 C   0  0  1  0  0  0  0  0  0  0  0  0
    6.4410   -4.9480   20.3480 C   0  0  0  0  0  0  0  0  0  0  0  0
    5.6660   -6.1470   19.8590 C   0  0  0  0  0  0  0  0  0  0  0  0
    6.2390   -2.4640   21.9620 C   0  0  0  0  0  0  0  0  0  0  0  0
    6.7380   -3.6260   22.5210 C   0  0  0  0  0  0  0  0  0  0  0  0
    6.3660    0.2510   17.9240 N   0  0  0  0  0  0  0  0  0  0  0  0
    5.2860    1.0520   17.8700 C   0  0  0  0  0  0  0  0  0  0  0  0
    4.6360    1.5590   18.9830 C   0  0  0  0  0  0  0  0  0  0  0  0
    5.1280    1.2290   20.2510 C   0  0  0  0  0  0  0  0  0  0  0  0
    6.2550    0.4030   20.3380 C   0  0  0  0  0  0  0  0  0  0  0  0
    6.8370   -0.0650   19.1540 C   0  0  0  0  0  0  0  0  0  0  0  0
    9.5530   -2.0260   21.7450 C   0  0  0  0  0  0  0  0  0  0  0  0
   10.8280   -2.1460   22.2980 C   0  0  0  0  0  0  0  0  0  0  0  0
   11.0630   -1.7610   23.6100 C   0  0  0  0  0  0  0  0  0  0  0  0
    9.9620   -1.2720   24.3370 C   0  0  0  0  0  0  0  0  0  0  0  0
    8.6940   -1.1570   23.7610 C   0  0  0  0  0  0  0  0  0  0  0  0
    8.4930   -1.5290   22.4360 C   0  0  0  0  0  0  0  0  0  0  0  0
   12.1620    1.0820   22.9760 C   0  0  0  0  0  0  0  0  0  0  0  0
   12.9130    2.2660   22.8710 C   0  0  0  0  0  0  0  0  0  0  0  0
   12.3800    3.5330   23.0840 C   0  0  0  0  0  0  0  0  0  0  0  0
   10.9440    3.7090   23.4360 C   0  0  0  0  0  0  0  0  0  0  0  0
   10.1030    2.4660   23.5560 C   0  0  0  0  0  0  0  0  0  0  0  0
   10.8230    1.1360   23.3010 C   0  0  0  0  0  0  0  0  0  0  0  0
  2  3  1  0
  1  7  1  0
  1  8  1  0
  6  8  2  0
  4  9  1  0
  9  8  1  6
 10 11  1  0
 10 12  1  0
 10 13  1  0
  5 14  1  0
  5 15  1  0
  5 16  1  0
 20 18  1  6
 19 20  1  0
 23 17  1  6
 20 23  1  0
 17 25  1  0
 22 25  2  0
 25 26  1  0
 21 27  1  0
 23 27  1  0
 24 27  2  0
 21 28  1  0
 28 29  1  6
 29 30  2  3
  4 31  1  0
 28 32  1  0
 31 32  1  0
 33 34  2  0
 34 35  1  0
 35 36  2  0
  9 37  1  0
 36 37  1  0
 33 38  1  0
 37 38  2  0
 39 40  2  0
 10 41  1  0
 40 41  1  0
 41 42  2  0
 42 43  1  0
  4 44  1  0
 39 44  1  0
 43 44  2  0
 45 46  2  0
  3 47  1  0
 46 47  1  0
  5 48  1  0
 47 48  2  0
  7 49  1  0
 48 49  1  0
 45 50  1  0
 49 50  2  0
M  END
