x0946-x0978-x2754-x3110
     RDKit          3D

 62 67  0  0  0  0  0  0  0  0999 V2000
    7.8970    1.6330   23.4540 N   0  0  0  0  0  0  0  0  0  0  0  0
   13.4890    5.3600   23.1740 C   0  0  0  0  0  0  0  0  0  0  0  0
   12.9740    4.4810   22.1230 C   0  0  0  0  0  0  0  0  0  0  0  0
    7.4550   -1.2920   21.9300 N   0  0  0  0  0  0  0  0  0  0  0  0
   10.1880    4.5490   23.3030 C   0  0  0  0  0  0  0  0  0  0  0  0
    8.8120    1.7090   21.3370 O   0  0  0  0  0  0  0  0  0  0  0  0
    8.8640    2.5410   24.0580 C   0  0  0  0  0  0  0  0  0  0  0  0
    7.9850    1.2180   22.1320 C   0  0  0  0  0  0  0  0  0  0  0  0
    6.9640    0.1390   21.7410 C   0  0  1  0  0  0  0  0  0  0  0  0
   12.5750   -1.9490   24.3340 C   0  0  0  0  0  0  0  0  0  0  0  0
   12.8190   -0.6970   25.0990 C   0  0  0  0  0  0  0  0  0  0  0  0
   13.5020   -2.1390   23.1430 C   0  0  0  0  0  0  0  0  0  0  0  0
   12.8590   -3.1150   25.2790 C   0  0  0  0  0  0  0  0  0  0  0  0
    8.9980    4.7730   22.5610 N   0  0  0  0  0  0  0  0  0  0  0  0
    9.7440    4.7800   24.6170 O   0  0  0  0  0  0  0  0  0  0  0  0
   11.0010    5.6470   22.9770 O   0  0  0  0  0  0  0  0  0  0  0  0
    1.8870   -5.6090   23.2680 N   0  0  0  0  0  0  0  0  0  0  0  0
    2.4480   -7.2830   25.5540 C   0  0  0  0  0  0  0  0  0  0  0  0
    4.4260   -7.9620   24.4510 O   0  0  0  0  0  0  0  0  0  0  0  0
    3.1090   -7.5050   24.2490 C   0  0  2  0  0  0  0  0  0  0  0  0
    5.3490   -5.8770   21.9300 N   0  0  0  0  0  0  0  0  0  0  0  0
    0.7300   -7.0980   21.9680 O   0  0  0  0  0  0  0  0  0  0  0  0
    3.0850   -6.4320   23.1670 C   0  0  2  0  0  0  0  0  0  0  0  0
    0.7460   -6.0730   22.6460 C   0  0  0  0  0  0  0  0  0  0  0  0
   -0.4850   -5.2520   22.8500 C   0  0  0  0  0  0  0  0  0  0  0  0
    4.3550   -5.5960   22.7610 C   0  0  0  0  0  0  0  0  0  0  0  0
    6.5550   -5.0120   20.4370 C   0  0  0  0  0  0  0  0  0  0  0  0
    5.7910   -6.1040   19.9050 C   0  0  0  0  0  0  0  0  0  0  0  0
    4.6890   -3.3420   25.2010 C   0  0  0  0  0  0  0  0  0  0  0  0
    3.6370   -3.8900   25.5170 O   0  0  0  0  0  0  0  0  0  0  0  0
    5.5690   -2.9410   26.2300 N   0  0  0  0  0  0  0  0  0  0  0  0
    4.9760   -2.1260   27.2900 C   0  0  0  0  0  0  0  0  0  0  0  0
    6.3640    0.2250   17.9640 N   0  0  0  0  0  0  0  0  0  0  0  0
    5.3010    1.0090   17.9160 C   0  0  0  0  0  0  0  0  0  0  0  0
    4.7050    1.5440   19.0340 C   0  0  0  0  0  0  0  0  0  0  0  0
    5.2030    1.2840   20.2800 C   0  0  0  0  0  0  0  0  0  0  0  0
    6.3480    0.4500   20.3700 C   0  0  0  0  0  0  0  0  0  0  0  0
    6.8620   -0.0360   19.2120 C   0  0  0  0  0  0  0  0  0  0  0  0
    9.8390   -1.2210   21.7730 C   0  0  0  0  0  0  0  0  0  0  0  0
   11.1440   -1.4150   22.4240 C   0  0  0  0  0  0  0  0  0  0  0  0
   11.1760   -1.8080   23.7590 C   0  0  0  0  0  0  0  0  0  0  0  0
   10.0230   -2.0110   24.4450 C   0  0  0  0  0  0  0  0  0  0  0  0
    8.7970   -1.8310   23.8220 C   0  0  0  0  0  0  0  0  0  0  0  0
    8.7000   -1.4450   22.5120 C   0  0  0  0  0  0  0  0  0  0  0  0
   12.2970    0.9220   23.2380 C   0  0  0  0  0  0  0  0  0  0  0  0
   12.9070    2.0460   22.7640 C   0  0  0  0  0  0  0  0  0  0  0  0
   12.2140    3.3350   22.7210 C   0  0  0  0  0  0  0  0  0  0  0  0
   10.9640    3.4230   23.1960 C   0  0  0  0  0  0  0  0  0  0  0  0
   10.2980    2.1610   23.6790 C   0  0  0  0  0  0  0  0  0  0  0  0
   10.9870    0.9810   23.6870 C   0  0  0  0  0  0  0  0  0  0  0  0
    5.9050   -3.2930   21.5370 N   0  0  0  0  0  0  0  0  0  0  0  0
    6.6390   -2.4320   22.4490 C   0  0  2  0  0  0  0  0  0  0  0  0
    5.8400   -2.0760   23.4570 C   0  0  0  0  0  0  0  0  0  0  0  0
    4.9380   -3.0850   23.6910 C   0  0  1  0  0  0  0  0  0  0  0  0
    5.1950   -4.3880   22.8420 C   0  0  0  0  0  0  0  0  0  0  0  0
    6.2620   -4.6350   21.9120 C   0  0  2  0  0  0  0  0  0  0  0  0
    6.8390   -4.6740   27.4410 C   0  0  0  0  0  0  0  0  0  0  0  0
    8.1470   -5.3910   27.8430 C   0  0  0  0  0  0  0  0  0  0  0  0
    9.4390   -4.8140   27.2240 C   0  0  0  0  0  0  0  0  0  0  0  0
    9.4200   -3.7250   26.3610 C   0  0  0  0  0  0  0  0  0  0  0  0
    8.1060   -3.0630   26.0060 C   0  0  0  0  0  0  0  0  0  0  0  0
    6.8030   -3.5710   26.5730 C   0  0  0  0  0  0  0  0  0  0  0  0
  2  3  1  0
  1  7  1  0
  1  8  1  0
  6  8  2  0
  4  9  1  0
  9  8  1  6
 10 11  1  0
 10 12  1  0
 10 13  1  0
  5 14  1  0
  5 15  1  0
  5 16  1  0
 20 18  1  1
 19 20  1  0
 23 17  1  1
 20 23  1  0
 17 24  1  0
 22 24  2  0
 24 25  1  0
 21 26  1  0
 23 26  1  0
 27 28  2  3
 29 30  2  0
 29 31  1  0
 31 32  1  0
 33 34  2  0
 34 35  1  0
 35 36  2  0
  9 37  1  0
 36 37  1  0
 33 38  1  0
 37 38  2  0
 39 40  2  0
 10 41  1  0
 40 41  1  0
 41 42  2  0
 42 43  1  0
  4 44  1  0
 39 44  1  0
 43 44  2  0
 45 46  2  0
  3 47  1  0
 46 47  1  0
  5 48  1  0
 47 48  2  0
  7 49  1  0
 48 49  1  0
 45 50  1  0
 49 50  2  0
 52  4  1  6
 51 52  1  0
 52 53  1  0
 54 29  1  1
 53 54  1  0
 26 55  2  0
 54 55  1  0
 21 56  1  0
 56 27  1  1
 51 56  1  0
 55 56  1  0
 57 58  2  0
 58 59  1  0
 59 60  2  0
 60 61  1  0
 31 62  1  0
 57 62  1  0
 61 62  2  0
M  END
