x0946-x2912
     RDKit          3D

 30 32  0  0  0  0  0  0  0  0999 V2000
    6.9400   -0.8140   21.2540 N   0  0  0  0  0  0  0  0  0  0  0  0
    8.2530   -0.9000   24.4090 C   0  0  0  0  0  0  0  0  0  0  0  0
    8.6620    0.7360   21.5910 O   0  0  0  0  0  0  0  0  0  0  0  0
    8.7580   -1.2130   23.0090 C   0  0  1  0  0  0  0  0  0  0  0  0
    8.1360   -0.3300   21.9070 C   0  0  0  0  0  0  0  0  0  0  0  0
   13.7100   -3.5860   20.7120 N   0  0  0  0  0  0  0  0  0  0  0  0
    4.4660    1.4560   21.1150 C   0  0  0  0  0  0  0  0  0  0  0  0
   13.1040   -2.6200   21.4810 C   0  0  0  0  0  0  0  0  0  0  0  0
    9.0480    5.6610   22.9050 N   0  0  0  0  0  0  0  0  0  0  0  0
    9.7630    5.6090   25.2720 O   0  0  0  0  0  0  0  0  0  0  0  0
   11.1720    6.8470   23.5720 O   0  0  0  0  0  0  0  0  0  0  0  0
   10.3450    5.7280   23.9650 S   0  0  0  0  0  0  0  0  0  0  0  0
    6.1940    0.4850   17.6930 N   0  0  0  0  0  0  0  0  0  0  0  0
    5.1880    1.3570   17.9490 C   0  0  0  0  0  0  0  0  0  0  0  0
    4.6940    1.5800   19.2100 C   0  0  0  0  0  0  0  0  0  0  0  0
    5.3770    0.7650   20.3010 C   0  0  0  0  0  0  0  0  0  0  0  0
    6.3930   -0.1460   20.2120 C   0  0  0  0  0  0  0  0  0  0  0  0
    6.7990   -0.2800   18.8810 C   0  0  0  0  0  0  0  0  0  0  0  0
   10.4860    0.5130   23.0600 C   0  0  0  0  0  0  0  0  0  0  0  0
   11.8920    0.5390   22.7640 C   0  0  0  0  0  0  0  0  0  0  0  0
   12.8410   -0.3750   22.3090 C   0  0  0  0  0  0  0  0  0  0  0  0
   12.3210   -1.5640   22.0670 C   0  0  0  0  0  0  0  0  0  0  0  0
   11.0430   -1.7980   22.3260 C   0  0  0  0  0  0  0  0  0  0  0  0
   10.1870   -0.8450   22.8040 C   0  0  0  0  0  0  0  0  0  0  0  0
   12.5330    1.7520   22.7790 C   0  0  0  0  0  0  0  0  0  0  0  0
   13.2890    3.0570   22.7290 C   0  0  0  0  0  0  0  0  0  0  0  0
   12.5850    4.2920   23.1160 C   0  0  0  0  0  0  0  0  0  0  0  0
   11.2660    4.2920   23.5170 C   0  0  0  0  0  0  0  0  0  0  0  0
   10.5600    3.0370   23.5510 C   0  0  0  0  0  0  0  0  0  0  0  0
   11.2010    1.8180   23.1730 C   0  0  0  0  0  0  0  0  0  0  0  0
  4  2  1  1
  1  5  1  0
  3  5  2  0
  4  5  1  0
  6  8  3  0
 12  9  1  0
 10 12  2  0
 11 12  2  0
 13 14  2  0
 14 15  1  0
  7 16  1  0
 15 16  2  0
  1 17  1  0
 16 17  1  0
 13 18  1  0
 17 18  2  0
 19 20  2  0
 20 21  1  0
  8 22  1  0
 21 22  2  0
 22 23  1  0
  4 24  1  0
 19 24  1  0
 23 24  2  0
 25 26  2  0
 26 27  1  0
 12 28  1  0
 27 28  2  0
 28 29  1  0
 19 30  1  0
 25 30  1  0
 29 30  2  0
M  END
