x0967-x0820
     RDKit          3D

 37 39  0  0  0  0  0  0  0  0999 V2000
    7.5700    4.8340   22.3540 C   0  0  0  0  0  0  0  0  0  0  0  0
    7.9740    2.5810   23.0680 N   0  0  0  0  0  0  0  0  0  0  0  0
    5.9080    3.5020   23.4430 O   0  0  0  0  0  0  0  0  0  0  0  0
    7.0470    3.5800   23.0060 C   0  0  0  0  0  0  0  0  0  0  0  0
    8.9920   -0.9290   22.5870 N   0  0  0  0  0  0  0  0  0  0  0  0
    5.7180    0.8080   17.0780 O   0  0  0  0  0  0  0  0  0  0  0  0
    7.6710    1.1510   23.1340 C   0  0  1  0  0  0  0  0  0  0  0  0
    9.5990    1.0720   21.7130 O   0  0  0  0  0  0  0  0  0  0  0  0
    6.2920    0.6610   22.6590 C   0  0  0  0  0  0  0  0  0  0  0  0
    8.8190    0.4320   22.4140 C   0  0  0  0  0  0  0  0  0  0  0  0
    9.9680   -1.5490   21.7270 C   0  0  0  0  0  0  0  0  0  0  0  0
   11.1720   -1.8410   22.4610 C   0  0  0  0  0  0  0  0  0  0  0  0
   12.0890   -2.0640   23.1630 C   0  0  0  0  0  0  0  0  0  0  0  0
   13.4380   -2.4360   24.4230 Br  0  0  0  0  0  0  0  0  0  0  0  0
    6.7960   -4.9510   21.7570 N   0  0  0  0  0  0  0  0  0  0  0  0
    7.2950   -2.6990   22.3380 C   0  0  0  0  0  0  0  0  0  0  0  0
    5.3170   -5.1790   20.0210 O   0  0  0  0  0  0  0  0  0  0  0  0
    7.2560   -4.0200   22.7660 C   0  0  1  0  0  0  0  0  0  0  0  0
    6.2690   -4.6110   20.5240 C   0  0  0  0  0  0  0  0  0  0  0  0
    6.9360   -3.5180   19.7000 C   0  0  0  0  0  0  0  0  0  0  0  0
    8.0720   -1.8050   23.2810 C   0  0  0  0  0  0  0  0  0  0  0  0
    6.1700    0.6680   21.1570 C   0  0  0  0  0  0  0  0  0  0  0  0
    6.9370   -0.1980   20.3440 C   0  0  0  0  0  0  0  0  0  0  0  0
    6.8050   -0.1770   18.9560 C   0  0  0  0  0  0  0  0  0  0  0  0
    5.9050    0.7170   18.3930 C   0  0  0  0  0  0  0  0  0  0  0  0
    5.1700    1.5480   19.1910 C   0  0  0  0  0  0  0  0  0  0  0  0
    5.2690    1.5570   20.5580 C   0  0  0  0  0  0  0  0  0  0  0  0
    6.3570   -4.2000   23.9650 C   0  0  0  0  0  0  0  0  0  0  0  0
    6.9240   -4.3180   25.3870 C   0  0  0  0  0  0  0  0  0  0  0  0
    5.9620   -4.5010   26.5820 C   0  0  0  0  0  0  0  0  0  0  0  0
    4.4330   -4.5630   26.3370 C   0  0  0  0  0  0  0  0  0  0  0  0
    3.9960   -4.4370   24.8940 C   0  0  0  0  0  0  0  0  0  0  0  0
    4.9740   -4.2580   23.7490 C   0  0  0  0  0  0  0  0  0  0  0  0
    6.4880   -4.6080   27.8750 C   0  0  0  0  0  0  0  0  0  0  0  0
    7.8610   -4.5560   28.0880 C   0  0  0  0  0  0  0  0  0  0  0  0
    8.7520   -4.3910   27.0290 C   0  0  0  0  0  0  0  0  0  0  0  0
    8.2980   -4.2740   25.7110 C   0  0  0  0  0  0  0  0  0  0  0  0
  1  4  1  0
  2  4  1  0
  3  4  2  0
  2  7  1  0
  7  9  1  6
  5 10  1  0
  7 10  1  0
  8 10  2  0
  5 11  1  0
 11 12  1  0
 12 13  3  0
 13 14  1  0
 15 18  1  0
 18 16  1  6
 15 19  1  0
 17 19  2  0
 19 20  1  0
  5 21  1  0
 16 21  1  0
  9 22  1  0
 22 23  2  0
 23 24  1  0
  6 25  1  0
 24 25  2  0
 25 26  1  0
 22 27  1  0
 26 27  2  0
 18 28  1  0
 28 29  2  0
 29 30  1  0
 30 31  2  0
 31 32  1  0
 28 33  1  0
 32 33  2  0
 30 34  1  0
 34 35  2  0
 35 36  1  0
 29 37  1  0
 36 37  2  0
M  END
