x0967-x1402
     RDKit          3D

 40 42  0  0  0  0  0  0  0  0999 V2000
    7.6220    4.8240   22.4120 C   0  0  0  0  0  0  0  0  0  0  0  0
    7.9500    2.4500   22.6960 N   0  0  0  0  0  0  0  0  0  0  0  0
    6.1390    3.4540   23.6910 O   0  0  0  0  0  0  0  0  0  0  0  0
    7.1490    3.5180   23.0020 C   0  0  0  0  0  0  0  0  0  0  0  0
    8.8500   -1.1780   22.4830 N   0  0  0  0  0  0  0  0  0  0  0  0
    5.7570    0.8690   17.0170 O   0  0  0  0  0  0  0  0  0  0  0  0
    7.6930    1.0550   23.0860 C   0  0  1  0  0  0  0  0  0  0  0  0
    9.9320    0.8100   22.2680 O   0  0  0  0  0  0  0  0  0  0  0  0
    6.3670    0.4560   22.5890 C   0  0  0  0  0  0  0  0  0  0  0  0
    8.8950    0.2220   22.5940 C   0  0  0  0  0  0  0  0  0  0  0  0
    9.9550   -1.6820   21.7080 C   0  0  0  0  0  0  0  0  0  0  0  0
   11.1330   -1.8840   22.5190 C   0  0  0  0  0  0  0  0  0  0  0  0
   12.0400   -2.0600   23.2460 C   0  0  0  0  0  0  0  0  0  0  0  0
   13.4030   -2.3850   24.5030 Br  0  0  0  0  0  0  0  0  0  0  0  0
    7.8280   -3.6360   20.2600 C   0  0  0  0  0  0  0  0  0  0  0  0
    5.5060   -4.3020   19.8260 O   0  0  0  0  0  0  0  0  0  0  0  0
    0.6410   -1.3390   26.2100 Cl  0  0  0  0  0  0  0  0  0  0  0  0
    6.4950   -4.3320   20.5620 C   0  0  0  0  0  0  0  0  0  0  0  0
    3.8400   -6.3630   25.8700 O   0  0  0  0  0  0  0  0  0  0  0  0
    5.9950   -5.3660   26.7340 O   0  0  0  0  0  0  0  0  0  0  0  0
    4.8860   -5.3710   25.8120 S   0  0  0  0  0  0  0  0  0  0  0  0
    8.2140   -2.1560   23.3840 C   0  0  0  0  0  0  0  0  0  0  0  0
    7.1890   -2.8500   22.7330 C   0  0  0  0  0  0  0  0  0  0  0  0
    6.2180    0.5370   21.0940 C   0  0  0  0  0  0  0  0  0  0  0  0
    6.9720   -0.2910   20.2550 C   0  0  0  0  0  0  0  0  0  0  0  0
    6.8300   -0.1990   18.8730 C   0  0  0  0  0  0  0  0  0  0  0  0
    5.9370    0.7220   18.3330 C   0  0  0  0  0  0  0  0  0  0  0  0
    5.1990    1.5290   19.1690 C   0  0  0  0  0  0  0  0  0  0  0  0
    5.3170    1.4580   20.5400 C   0  0  0  0  0  0  0  0  0  0  0  0
    6.4570   -5.0010   21.7630 N   0  0  0  0  0  0  0  0  0  0  0  0
    7.2730   -4.4060   22.8280 C   0  0  2  0  0  0  0  0  0  0  0  0
    6.9060   -4.8120   24.1080 C   0  0  0  0  0  0  0  0  0  0  0  0
    5.4940   -5.2730   24.2220 N   0  0  0  0  0  0  0  0  0  0  0  0
    4.9740   -6.2720   23.2400 C   0  0  0  0  0  0  0  0  0  0  0  0
    5.8600   -6.3130   21.9980 C   0  0  0  0  0  0  0  0  0  0  0  0
    2.3350   -3.7880   25.9560 S   0  0  0  0  0  0  0  0  0  0  0  0
    4.0570   -3.8250   25.9690 C   0  0  0  0  0  0  0  0  0  0  0  0
    4.5380   -2.4230   26.1130 C   0  0  0  0  0  0  0  0  0  0  0  0
    3.4320   -1.4160   26.2060 C   0  0  0  0  0  0  0  0  0  0  0  0
    2.1910   -2.0620   26.1350 C   0  0  0  0  0  0  0  0  0  0  0  0
  1  4  1  0
  2  4  1  0
  3  4  2  0
  2  7  1  0
  7  9  1  6
  5 10  1  0
  7 10  1  0
  8 10  2  0
  5 11  1  0
 11 12  1  0
 12 13  3  0
 13 14  1  0
 15 18  1  0
 16 18  2  0
 19 21  2  0
 20 21  2  0
  5 22  1  0
 22 23  1  0
  9 24  1  0
 24 25  2  0
 25 26  1  0
  6 27  1  0
 26 27  2  0
 27 28  1  0
 24 29  1  0
 28 29  2  0
 18 30  1  0
 31 23  1  1
 30 31  1  0
 31 32  1  0
 21 33  1  0
 32 33  1  0
 33 34  1  0
 30 35  1  0
 34 35  1  0
 21 37  1  0
 36 37  1  0
 37 38  2  0
 38 39  1  0
 17 40  1  0
 36 40  1  0
 39 40  2  0
M  END
