x0967-x3077
     RDKit          3D

 34 37  0  0  0  0  0  0  0  0999 V2000
    7.8390    4.7310   22.4290 C   0  0  0  0  0  0  0  0  0  0  0  0
    8.1150    2.3510   22.7540 N   0  0  0  0  0  0  0  0  0  0  0  0
    6.2730    3.4130   23.6550 O   0  0  0  0  0  0  0  0  0  0  0  0
    7.3170    3.4440   23.0110 C   0  0  0  0  0  0  0  0  0  0  0  0
    8.7260   -1.4220   22.6520 N   0  0  0  0  0  0  0  0  0  0  0  0
    5.7100    0.8220   17.0670 O   0  0  0  0  0  0  0  0  0  0  0  0
    7.7300    0.9530   23.0210 C   0  0  1  0  0  0  0  0  0  0  0  0
    9.4840    0.4010   21.4570 O   0  0  0  0  0  0  0  0  0  0  0  0
    6.2910    0.6480   22.6200 C   0  0  0  0  0  0  0  0  0  0  0  0
    8.7150   -0.0370   22.3150 C   0  0  0  0  0  0  0  0  0  0  0  0
    9.9980   -2.0000   23.0450 C   0  0  0  0  0  0  0  0  0  0  0  0
   13.3410   -2.5230   23.1770 Br  0  0  0  0  0  0  0  0  0  0  0  0
    6.8670   -3.2840   19.3490 C   0  0  0  0  0  0  0  0  0  0  0  0
    5.4160   -5.0550   20.0120 O   0  0  0  0  0  0  0  0  0  0  0  0
    6.1910   -4.1810   20.3790 C   0  0  0  0  0  0  0  0  0  0  0  0
    6.1330    0.6860   21.1240 C   0  0  0  0  0  0  0  0  0  0  0  0
    6.9350   -0.1160   20.2970 C   0  0  0  0  0  0  0  0  0  0  0  0
    6.7830   -0.0660   18.9250 C   0  0  0  0  0  0  0  0  0  0  0  0
    5.8320    0.7850   18.3900 C   0  0  0  0  0  0  0  0  0  0  0  0
    5.0260    1.5840   19.1880 C   0  0  0  0  0  0  0  0  0  0  0  0
    5.1750    1.5350   20.5610 C   0  0  0  0  0  0  0  0  0  0  0  0
    6.4870   -4.0150   21.7340 N   0  0  0  0  0  0  0  0  0  0  0  0
    7.7940   -4.2530   22.3980 C   0  0  0  0  0  0  0  0  0  0  0  0
    7.5770   -3.5010   23.5360 C   0  0  2  0  0  0  0  0  0  0  0  0
    6.2370   -3.4690   23.7270 C   0  0  0  0  0  0  0  0  0  0  0  0
    5.8190   -3.0040   22.5250 C   0  0  1  0  0  0  0  0  0  0  0  0
    7.5890   -2.0410   23.1730 N   0  0  0  0  0  0  0  0  0  0  0  0
    6.3720   -1.7840   22.3590 C   0  0  0  0  0  0  0  0  0  0  0  0
   10.8640    1.6600   23.0220 C   0  0  0  0  0  0  0  0  0  0  0  0
   12.3710    1.7240   23.0260 C   0  0  0  0  0  0  0  0  0  0  0  0
   13.1350    0.4000   23.0590 C   0  0  0  0  0  0  0  0  0  0  0  0
   12.3850   -0.9250   23.0930 C   0  0  0  0  0  0  0  0  0  0  0  0
   10.9090   -0.8440   23.0630 C   0  0  0  0  0  0  0  0  0  0  0  0
   10.1840    0.4670   23.0400 C   0  0  0  0  0  0  0  0  0  0  0  0
  1  4  1  0
  2  4  1  0
  3  4  2  0
  2  7  1  0
  7  9  1  6
  5 10  1  0
  7 10  1  0
  8 10  2  0
  5 11  1  0
 13 15  1  0
 14 15  2  0
  9 16  1  0
 16 17  2  0
 17 18  1  0
  6 19  1  0
 18 19  2  0
 19 20  1  0
 16 21  1  0
 20 21  2  0
 15 22  1  0
 22 23  1  0
 24 23  1  6
 24 25  1  0
 22 26  1  0
 25 26  1  0
  5 27  1  0
 24 27  1  0
 26 28  1  6
 27 28  1  0
 29 30  2  0
 30 31  1  0
 12 32  1  0
 31 32  2  0
 11 33  1  0
 32 33  1  0
 29 34  1  0
 33 34  2  0
M  END
