x0967-x0978
     RDKit          3D

 37 37  0  0  0  0  0  0  0  0999 V2000
    7.5630    5.1470   22.3570 C   0  0  0  0  0  0  0  0  0  0  0  0
    7.9040    2.7870   22.5880 N   0  0  0  0  0  0  0  0  0  0  0  0
    6.1150    3.7420   23.6460 O   0  0  0  0  0  0  0  0  0  0  0  0
    7.1060    3.8370   22.9340 C   0  0  0  0  0  0  0  0  0  0  0  0
    8.9310   -0.7130   22.9840 N   0  0  0  0  0  0  0  0  0  0  0  0
    5.6250    0.7310   17.0770 O   0  0  0  0  0  0  0  0  0  0  0  0
    7.7350    1.4500   23.1330 C   0  0  1  0  0  0  0  0  0  0  0  0
    9.9130    1.1490   22.1390 O   0  0  0  0  0  0  0  0  0  0  0  0
    6.4550    0.7110   22.7140 C   0  0  0  0  0  0  0  0  0  0  0  0
    8.9520    0.6300   22.7090 C   0  0  0  0  0  0  0  0  0  0  0  0
    9.7340   -1.5140   22.1070 C   0  0  1  0  0  0  0  0  0  0  0  0
   11.0420   -1.6940   22.6830 C   0  0  0  0  0  0  0  0  0  0  0  0
   12.0220   -1.9260   23.2840 C   0  0  0  0  0  0  0  0  0  0  0  0
   13.4500   -2.3970   24.4090 Br  0  0  0  0  0  0  0  0  0  0  0  0
    2.0530   -5.6100   23.0880 N   0  0  0  0  0  0  0  0  0  0  0  0
    2.2790   -7.9830   24.6650 C   0  0  0  0  0  0  0  0  0  0  0  0
    4.5140   -7.6910   24.6270 O   0  0  0  0  0  0  0  0  0  0  0  0
    3.2810   -7.0400   24.3940 C   0  0  1  0  0  0  0  0  0  0  0  0
    5.3480   -5.7920   21.7950 N   0  0  0  0  0  0  0  0  0  0  0  0
    0.7940   -7.2740   21.9470 O   0  0  0  0  0  0  0  0  0  0  0  0
    3.2930   -6.3940   23.1510 C   0  0  2  0  0  0  0  0  0  0  0  0
    4.6480   -4.3730   23.4770 O   0  0  0  0  0  0  0  0  0  0  0  0
    0.8240   -6.2000   22.5390 C   0  0  0  0  0  0  0  0  0  0  0  0
   -0.3370   -5.4390   22.7330 C   0  0  0  0  0  0  0  0  0  0  0  0
    4.4870   -5.4180   22.8470 C   0  0  0  0  0  0  0  0  0  0  0  0
    6.6390   -5.1230   21.4310 C   0  0  1  0  0  0  0  0  0  0  0  0
    6.5950   -4.4720   20.0090 C   0  0  0  0  0  0  0  0  0  0  0  0
    5.4200   -3.6650   19.5770 C   0  0  0  0  0  0  0  0  0  0  0  0
    9.1020   -2.8790   21.9880 C   0  0  0  0  0  0  0  0  0  0  0  0
    7.7250   -2.9400   22.1990 C   0  0  0  0  0  0  0  0  0  0  0  0
    7.2010   -4.2040   22.5460 C   0  0  0  0  0  0  0  0  0  0  0  0
    6.2300    0.7070   21.2320 C   0  0  0  0  0  0  0  0  0  0  0  0
    7.0350   -0.3230   20.4010 C   0  0  0  0  0  0  0  0  0  0  0  0
    6.8270   -0.3340   18.8880 C   0  0  0  0  0  0  0  0  0  0  0  0
    5.8370    0.6910   18.3850 C   0  0  0  0  0  0  0  0  0  0  0  0
    5.0930    1.6570   19.2810 C   0  0  0  0  0  0  0  0  0  0  0  0
    5.3320    1.6060   20.6380 C   0  0  0  0  0  0  0  0  0  0  0  0
  1  4  1  0
  2  4  1  0
  3  4  2  0
  2  7  1  0
  7  9  1  6
  5 10  1  0
  7 10  1  0
  8 10  2  0
  5 11  1  0
 11 12  1  1
 12 13  3  0
 13 14  1  0
 18 16  1  6
 17 18  1  0
 21 15  1  1
 18 21  1  0
 15 23  1  0
 20 23  2  0
 23 24  1  0
 19 25  1  0
 21 25  1  0
 22 25  2  0
 19 26  1  0
 26 27  1  6
 27 28  2  3
 11 29  1  0
 29 30  1  0
 26 31  1  0
 30 31  1  0
  9 32  1  0
 32 33  2  0
 33 34  1  0
  6 35  1  0
 34 35  2  0
 35 36  1  0
 32 37  1  0
 36 37  2  0
M  END
