x0967-x0426
     RDKit          3D

 32 33  0  0  0  0  0  0  0  0999 V2000
    7.6960    4.9410   22.3880 C   0  0  0  0  0  0  0  0  0  0  0  0
    7.8980    2.5450   22.4790 N   0  0  0  0  0  0  0  0  0  0  0  0
    6.3420    3.5820   23.8050 O   0  0  0  0  0  0  0  0  0  0  0  0
    7.2310    3.6320   22.9700 C   0  0  0  0  0  0  0  0  0  0  0  0
    8.8990   -1.0140   22.6480 N   0  0  0  0  0  0  0  0  0  0  0  0
    5.7230    0.7190   17.0280 O   0  0  0  0  0  0  0  0  0  0  0  0
    7.7290    1.1860   23.0050 C   0  0  1  0  0  0  0  0  0  0  0  0
    9.9810    0.9360   22.1880 O   0  0  0  0  0  0  0  0  0  0  0  0
    6.4600    0.4310   22.5730 C   0  0  0  0  0  0  0  0  0  0  0  0
    8.9590    0.3720   22.5820 C   0  0  0  0  0  0  0  0  0  0  0  0
    9.8730   -1.6580   21.7940 C   0  0  0  0  0  0  0  0  0  0  0  0
   11.0970   -1.8910   22.5240 C   0  0  0  0  0  0  0  0  0  0  0  0
   12.0300   -2.0710   23.2190 C   0  0  0  0  0  0  0  0  0  0  0  0
   13.4110   -2.3920   24.4580 Br  0  0  0  0  0  0  0  0  0  0  0  0
    2.1720    1.7730   23.9010 C   0  0  0  0  0  0  0  0  0  0  0  0
    2.0800    0.5380   23.8320 O   0  0  0  0  0  0  0  0  0  0  0  0
    3.2050    2.5320   23.3580 N   0  0  0  0  0  0  0  0  0  0  0  0
    4.1970    1.7780   22.6360 C   0  0  0  0  0  0  0  0  0  0  0  0
    4.2080    2.1300   21.2990 C   0  0  0  0  0  0  0  0  0  0  0  0
    2.6320    4.2810   25.2690 F   0  0  0  0  0  0  0  0  0  0  0  0
    6.2230    0.5220   21.0890 C   0  0  0  0  0  0  0  0  0  0  0  0
    7.0330   -0.1810   20.2130 C   0  0  0  0  0  0  0  0  0  0  0  0
    6.9050   -0.1540   18.8510 C   0  0  0  0  0  0  0  0  0  0  0  0
    5.8830    0.6480   18.3370 C   0  0  0  0  0  0  0  0  0  0  0  0
    5.0380    1.3660   19.1520 C   0  0  0  0  0  0  0  0  0  0  0  0
    5.1960    1.3080   20.5210 C   0  0  0  0  0  0  0  0  0  0  0  0
    1.3840    3.7860   25.2710 C   0  0  0  0  0  0  0  0  0  0  0  0
    1.1320    2.5690   24.6160 C   0  0  0  0  0  0  0  0  0  0  0  0
   -0.1800    2.0840   24.6380 C   0  0  0  0  0  0  0  0  0  0  0  0
   -1.3580    2.7790   25.3230 C   0  0  0  0  0  0  0  0  0  0  0  0
   -1.0390    4.1060   26.0270 C   0  0  0  0  0  0  0  0  0  0  0  0
    0.4280    4.5560   25.9490 C   0  0  0  0  0  0  0  0  0  0  0  0
  1  4  1  0
  2  4  1  0
  3  4  2  0
  2  7  1  0
  7  9  1  6
  5 10  1  0
  7 10  1  0
  8 10  2  0
  5 11  1  0
 11 12  1  0
 12 13  3  0
 13 14  1  0
 15 16  2  0
 15 17  1  0
 17 18  1  0
 18 19  1  0
  9 21  1  0
 21 22  2  0
 22 23  1  0
  6 24  1  0
 23 24  2  0
 24 25  1  0
 19 26  1  0
 21 26  1  0
 25 26  2  0
 20 27  1  0
 15 28  1  0
 27 28  2  0
 28 29  1  0
 29 30  2  0
 30 31  1  0
 27 32  1  0
 31 32  2  0
M  END
