x0967-x1384
     RDKit          3D

 37 40  0  0  0  0  0  0  0  0999 V2000
    7.6570    4.7470   22.4160 C   0  0  0  0  0  0  0  0  0  0  0  0
    7.9560    2.4770   23.1560 N   0  0  0  0  0  0  0  0  0  0  0  0
    5.9000    3.4640   23.4070 O   0  0  0  0  0  0  0  0  0  0  0  0
    7.0650    3.5080   23.0370 C   0  0  0  0  0  0  0  0  0  0  0  0
    8.9260   -1.0740   22.5710 N   0  0  0  0  0  0  0  0  0  0  0  0
    5.7590    0.8890   17.0030 O   0  0  0  0  0  0  0  0  0  0  0  0
    7.6140    1.0500   23.1610 C   0  0  1  0  0  0  0  0  0  0  0  0
    9.5930    0.9590   21.8030 O   0  0  0  0  0  0  0  0  0  0  0  0
    6.2460    0.6500   22.6010 C   0  0  0  0  0  0  0  0  0  0  0  0
    8.7670    0.3090   22.4510 C   0  0  0  0  0  0  0  0  0  0  0  0
    9.9750   -1.6100   21.7370 C   0  0  0  0  0  0  0  0  0  0  0  0
   11.1690   -1.8690   22.5050 C   0  0  0  0  0  0  0  0  0  0  0  0
   12.0800   -2.0730   23.2220 C   0  0  0  0  0  0  0  0  0  0  0  0
   13.4250   -2.4230   24.4920 Br  0  0  0  0  0  0  0  0  0  0  0  0
    6.6440   -3.5470   21.5700 N   0  0  0  0  0  0  0  0  0  0  0  0
    7.3440   -3.0970   19.2320 C   0  0  0  0  0  0  0  0  0  0  0  0
    5.4160   -4.3780   19.8500 O   0  0  0  0  0  0  0  0  0  0  0  0
    6.3850   -3.7290   20.2360 C   0  0  0  0  0  0  0  0  0  0  0  0
    7.9190   -2.0310   23.0020 C   0  0  0  0  0  0  0  0  0  0  0  0
    7.0140   -2.2060   21.9750 C   0  0  0  0  0  0  0  0  0  0  0  0
    6.1480    0.6770   21.0990 C   0  0  0  0  0  0  0  0  0  0  0  0
    6.9960   -0.0890   20.2910 C   0  0  0  0  0  0  0  0  0  0  0  0
    6.8790   -0.0360   18.9030 C   0  0  0  0  0  0  0  0  0  0  0  0
    5.9200    0.7840   18.3260 C   0  0  0  0  0  0  0  0  0  0  0  0
    5.0910    1.5320   19.1310 C   0  0  0  0  0  0  0  0  0  0  0  0
    5.1810    1.4980   20.5030 C   0  0  0  0  0  0  0  0  0  0  0  0
    5.2000   -3.0790   27.2370 O   0  0  0  0  0  0  0  0  0  0  0  0
    3.8780   -3.8170   23.9520 C   0  0  2  0  0  0  0  0  0  0  0  0
    5.0910   -3.4990   23.5180 C   0  0  1  0  0  0  0  0  0  0  0  0
    5.3480   -3.8920   24.8450 C   0  0  2  0  0  0  0  0  0  0  0  0
    5.1440   -5.3870   25.2140 C   0  0  0  0  0  0  0  0  0  0  0  0
    4.3570   -6.3220   24.2000 C   0  0  0  0  0  0  0  0  0  0  0  0
    3.6510   -5.1200   23.5680 C   0  0  0  0  0  0  0  0  0  0  0  0
    5.2000   -2.7790   25.8770 C   0  0  1  0  0  0  0  0  0  0  0  0
    4.0580   -2.9960   25.2970 C   0  0  0  0  0  0  0  0  0  0  0  0
    2.8380   -3.0800   24.9150 C   0  0  0  0  0  0  0  0  0  0  0  0
    5.7920   -4.3100   22.4660 C   0  0  0  0  0  0  0  0  0  0  0  0
  1  4  1  0
  2  4  1  0
  3  4  2  0
  2  7  1  0
  7  9  1  6
  5 10  1  0
  7 10  1  0
  8 10  2  0
  5 11  1  0
 11 12  1  0
 12 13  3  0
 13 14  1  0
 15 18  1  0
 16 18  1  0
 17 18  2  0
  5 19  1  0
 15 20  1  0
 19 20  1  0
  9 21  1  0
 21 22  2  0
 22 23  1  0
  6 24  1  0
 23 24  2  0
 24 25  1  0
 21 26  1  0
 25 26  2  0
 28 29  1  0
 28 30  1  0
 29 30  1  0
 30 31  1  6
 31 32  1  0
 28 33  1  6
 32 33  2  0
 34 27  1  1
 30 34  1  0
 34 35  1  0
 28 36  1  0
 35 36  2  0
 15 37  1  0
 29 37  1  6
M  END
