x0967-x0689
     RDKit          3D

 39 41  0  0  0  0  0  0  0  0999 V2000
    7.6420    4.8550   22.4130 C   0  0  0  0  0  0  0  0  0  0  0  0
    7.9550    2.4800   22.7110 N   0  0  0  0  0  0  0  0  0  0  0  0
    6.1380    3.4960   23.6820 O   0  0  0  0  0  0  0  0  0  0  0  0
    7.1540    3.5530   23.0040 C   0  0  0  0  0  0  0  0  0  0  0  0
    8.7020   -1.1880   22.5500 N   0  0  0  0  0  0  0  0  0  0  0  0
    5.7510    0.8500   17.0200 O   0  0  0  0  0  0  0  0  0  0  0  0
    7.6620    1.0910   23.0980 C   0  0  1  0  0  0  0  0  0  0  0  0
    9.8690    0.7470   22.2160 O   0  0  0  0  0  0  0  0  0  0  0  0
    6.3240    0.5260   22.6010 C   0  0  0  0  0  0  0  0  0  0  0  0
    8.8220    0.2100   22.5950 C   0  0  0  0  0  0  0  0  0  0  0  0
    9.7740   -1.7550   21.7600 C   0  0  0  0  0  0  0  0  0  0  0  0
   10.9970   -1.9120   22.5260 C   0  0  0  0  0  0  0  0  0  0  0  0
   11.9450   -2.0540   23.2170 C   0  0  0  0  0  0  0  0  0  0  0  0
   13.3720   -2.3220   24.4200 Br  0  0  0  0  0  0  0  0  0  0  0  0
    7.2600   -3.4510   19.8800 C   0  0  0  0  0  0  0  0  0  0  0  0
    5.2240   -4.6680   19.9290 O   0  0  0  0  0  0  0  0  0  0  0  0
    6.3190   -4.5160   20.4470 C   0  0  0  0  0  0  0  0  0  0  0  0
    4.2520   -6.1780   25.6700 O   0  0  0  0  0  0  0  0  0  0  0  0
    5.8740   -4.4040   26.4560 O   0  0  0  0  0  0  0  0  0  0  0  0
    4.8850   -4.8840   25.5230 S   0  0  0  0  0  0  0  0  0  0  0  0
    8.1450   -2.0610   23.6070 C   0  0  0  0  0  0  0  0  0  0  0  0
    6.9340   -2.6930   23.2630 C   0  0  0  0  0  0  0  0  0  0  0  0
    6.1910    0.5750   21.1040 C   0  0  0  0  0  0  0  0  0  0  0  0
    6.9340   -0.2830   20.2830 C   0  0  0  0  0  0  0  0  0  0  0  0
    6.7980   -0.2090   18.8970 C   0  0  0  0  0  0  0  0  0  0  0  0
    5.9250    0.7180   18.3390 C   0  0  0  0  0  0  0  0  0  0  0  0
    5.1980    1.5520   19.1580 C   0  0  0  0  0  0  0  0  0  0  0  0
    5.3090    1.5020   20.5280 C   0  0  0  0  0  0  0  0  0  0  0  0
    6.6900   -5.3360   21.5270 N   0  0  0  0  0  0  0  0  0  0  0  0
    5.6440   -6.2010   22.0430 C   0  0  0  0  0  0  0  0  0  0  0  0
    4.7480   -5.5130   22.8790 C   0  0  0  0  0  0  0  0  0  0  0  0
    5.4800   -4.7070   23.9150 N   0  0  0  0  0  0  0  0  0  0  0  0
    6.9020   -4.1940   23.6590 C   0  0  1  0  0  0  0  0  0  0  0  0
    7.6310   -4.9830   22.5770 C   0  0  0  0  0  0  0  0  0  0  0  0
    3.8030   -2.1120   25.9820 S   0  0  0  0  0  0  0  0  0  0  0  0
    3.5160   -3.7640   25.5850 C   0  0  0  0  0  0  0  0  0  0  0  0
    2.0520   -3.9170   25.3560 C   0  0  0  0  0  0  0  0  0  0  0  0
    1.2790   -2.6450   25.5320 C   0  0  0  0  0  0  0  0  0  0  0  0
    2.1420   -1.5960   25.8760 C   0  0  0  0  0  0  0  0  0  0  0  0
  1  4  1  0
  2  4  1  0
  3  4  2  0
  2  7  1  0
  7  9  1  6
  5 10  1  0
  7 10  1  0
  8 10  2  0
  5 11  1  0
 11 12  1  0
 12 13  3  0
 13 14  1  0
 15 17  1  0
 16 17  2  0
 18 20  2  0
 19 20  2  0
  5 21  1  0
 21 22  1  0
  9 23  1  0
 23 24  2  0
 24 25  1  0
  6 26  1  0
 25 26  2  0
 26 27  1  0
 23 28  1  0
 27 28  2  0
 17 29  1  0
 29 30  1  0
 30 31  1  0
 20 32  1  0
 31 32  1  0
 33 22  1  6
 32 33  1  0
 29 34  1  0
 33 34  1  0
 20 36  1  0
 35 36  1  0
 36 37  2  0
 37 38  1  0
 35 39  1  0
 38 39  2  0
M  END
