x0967-x1093
     RDKit          3D

 29 35  0  0  0  0  0  0  0  0999 V2000
    6.0360    0.8410   17.1100 O   0  0  0  0  0  0  0  0  0  0  0  0
    5.5750    1.4920   20.5110 C   0  0  2  0  0  0  0  0  0  0  0  0
    5.8520    0.0780   20.4860 C   0  0  0  0  0  0  0  0  0  0  0  0
    5.7030   -0.2160   19.1860 C   0  0  0  0  0  0  0  0  0  0  0  0
    5.7190    1.3450   19.1180 C   0  0  2  0  0  0  0  0  0  0  0  0
    4.5260    1.7430   18.3480 C   0  0  0  0  0  0  0  0  0  0  0  0
    4.7520    2.3970   19.5720 C   0  0  2  0  0  0  0  0  0  0  0  0
    4.4950    1.8200   21.4850 C   0  0  0  0  0  0  0  0  0  0  0  0
    3.8120    2.4620   20.7680 C   0  0  0  0  0  0  0  0  0  0  0  0
    5.5100   -0.3160   17.7170 C   0  0  0  0  0  0  0  0  0  0  0  0
    7.9250    4.2550   22.2730 C   0  0  0  0  0  0  0  0  0  0  0  0
    7.5050    1.9670   21.8490 N   0  0  0  0  0  0  0  0  0  0  0  0
    6.3080    3.1400   23.4400 O   0  0  0  0  0  0  0  0  0  0  0  0
    7.1820    3.1090   22.5760 C   0  0  0  0  0  0  0  0  0  0  0  0
    9.5180   -0.5170   23.3610 N   0  0  0  0  0  0  0  0  0  0  0  0
    7.6910    0.7520   22.5010 C   0  0  1  0  0  0  0  0  0  0  0  0
    9.8140    1.7410   23.1660 N   0  0  0  0  0  0  0  0  0  0  0  0
    7.5540   -0.4750   21.8580 C   0  0  0  0  0  0  0  0  0  0  0  0
    9.0700    0.6840   23.0220 C   0  0  0  0  0  0  0  0  0  0  0  0
   10.1610   -1.2170   22.3910 C   0  0  0  0  0  0  0  0  0  0  0  0
   12.2920   -2.5210   22.8560 C   0  0  0  0  0  0  0  0  0  0  0  0
   13.4600   -2.6420   24.3940 Br  0  0  0  0  0  0  0  0  0  0  0  0
   12.3970   -0.1810   22.5180 N   0  0  0  0  0  0  0  0  0  0  0  0
   12.0150    1.1440   23.0370 C   0  0  0  0  0  0  0  0  0  0  0  0
   10.9230    1.1730   23.8800 C   0  0  2  0  0  0  0  0  0  0  0  0
   10.4150   -0.1270   24.4040 N   0  0  0  0  0  0  0  0  0  0  0  0
   11.4430   -1.1250   24.3670 C   0  0  0  0  0  0  0  0  0  0  0  0
   11.5570   -1.2580   23.0170 C   0  0  1  0  0  0  0  0  0  0  0  0
    6.1240   -0.8020   21.6550 C   0  0  0  0  0  0  0  0  0  0  0  0
  2  3  1  0
  3  4  2  0
  2  5  1  0
  5  4  1  0
  5  6  1  6
  2  7  1  0
  5  7  1  0
  7  6  1  6
  2  8  1  1
  7  9  1  0
  8  9  2  0
  1 10  1  0
  4 10  1  0
 11 14  1  0
 12 14  1  0
 13 14  2  0
 12 16  1  0
 16 18  1  6
 15 19  1  0
 16 19  1  0
 17 19  2  0
 15 20  1  0
 21 22  1  0
 23 24  1  0
 17 25  1  0
 25 24  1  6
 15 26  1  0
 25 26  1  0
 26 27  1  0
 20 28  1  0
 28 21  1  1
 23 28  1  0
 27 28  1  0
  3 29  1  0
 18 29  1  0
M  END
