x0967-x1358
     RDKit          3D

 41 43  0  0  0  0  0  0  0  0999 V2000
    7.7650    5.0270   22.4230 C   0  0  0  0  0  0  0  0  0  0  0  0
    7.9270    2.6330   22.3560 N   0  0  0  0  0  0  0  0  0  0  0  0
    6.2050    3.6010   23.5410 O   0  0  0  0  0  0  0  0  0  0  0  0
    7.2060    3.6920   22.8380 C   0  0  0  0  0  0  0  0  0  0  0  0
    9.0490   -0.8650   22.7330 N   0  0  0  0  0  0  0  0  0  0  0  0
    5.7030    0.8840   17.0530 O   0  0  0  0  0  0  0  0  0  0  0  0
    7.8660    1.3040   22.9580 C   0  0  1  0  0  0  0  0  0  0  0  0
   10.1680    1.0710   22.2780 O   0  0  0  0  0  0  0  0  0  0  0  0
    6.6990    0.4120   22.5460 C   0  0  1  0  0  0  0  0  0  0  0  0
    9.1290    0.5150   22.6310 C   0  0  0  0  0  0  0  0  0  0  0  0
    9.7930   -1.5430   21.7090 C   0  0  0  0  0  0  0  0  0  0  0  0
   11.0800   -1.8590   22.2350 C   0  0  0  0  0  0  0  0  0  0  0  0
   12.0680   -2.0980   22.7840 C   0  0  0  0  0  0  0  0  0  0  0  0
   13.5570   -2.5170   23.8170 Br  0  0  0  0  0  0  0  0  0  0  0  0
    6.7440   -2.2030   25.7030 N   0  0  0  0  0  0  0  0  0  0  0  0
    4.9860    0.1320   25.6130 O   0  0  0  0  0  0  0  0  0  0  0  0
    4.8980   -3.6440   25.6970 O   0  0  0  0  0  0  0  0  0  0  0  0
    5.1400   -4.1800   19.6820 O   0  0  0  0  0  0  0  0  0  0  0  0
    5.9640   -3.2420   25.2450 C   0  0  0  0  0  0  0  0  0  0  0  0
    6.2600   -3.8640   20.0510 C   0  0  0  0  0  0  0  0  0  0  0  0
    7.2190   -3.1610   19.0850 C   0  0  0  0  0  0  0  0  0  0  0  0
    5.5090    0.5660   23.4180 C   0  0  0  0  0  0  0  0  0  0  0  0
    5.3810   -0.4310   24.3750 C   0  0  0  0  0  0  0  0  0  0  0  0
    6.3980    0.5680   21.0790 C   0  0  0  0  0  0  0  0  0  0  0  0
    7.0770   -0.2620   20.1890 C   0  0  0  0  0  0  0  0  0  0  0  0
    6.8520   -0.1710   18.8330 C   0  0  0  0  0  0  0  0  0  0  0  0
    5.9410    0.7600   18.3650 C   0  0  0  0  0  0  0  0  0  0  0  0
    5.2460    1.5970   19.2210 C   0  0  0  0  0  0  0  0  0  0  0  0
    5.4720    1.5050   20.5910 C   0  0  0  0  0  0  0  0  0  0  0  0
    5.7310   -0.1180   26.7490 C   0  0  0  0  0  0  0  0  0  0  0  0
    6.6430   -1.3740   26.7660 C   0  0  0  0  0  0  0  0  0  0  0  0
    7.4780   -1.6660   28.0540 C   0  0  0  0  0  0  0  0  0  0  0  0
    7.4020   -0.7220   29.2710 C   0  0  0  0  0  0  0  0  0  0  0  0
    6.4840    0.4620   29.1170 C   0  0  0  0  0  0  0  0  0  0  0  0
    5.6780    0.7230   27.8620 C   0  0  0  0  0  0  0  0  0  0  0  0
    6.6740   -4.1920   21.3300 N   0  0  0  0  0  0  0  0  0  0  0  0
    7.6480   -3.3260   21.9900 C   0  0  0  0  0  0  0  0  0  0  0  0
    7.1610   -2.9140   23.2060 C   0  0  0  0  0  0  0  0  0  0  0  0
    6.5980   -3.8930   24.0120 C   0  0  0  0  0  0  0  0  0  0  0  0
    5.7220   -4.7870   23.3850 C   0  0  0  0  0  0  0  0  0  0  0  0
    6.0980   -5.2760   22.1240 C   0  0  0  0  0  0  0  0  0  0  0  0
  1  4  1  0
  2  4  1  0
  3  4  2  0
  7  2  1  6
  7  9  1  0
  5 10  1  0
  7 10  1  0
  8 10  2  0
  5 11  1  0
 11 12  1  0
 12 13  3  0
 13 14  1  0
 15 19  1  0
 17 19  2  0
 18 20  2  0
 20 21  1  0
  9 22  1  1
 16 23  1  0
 22 23  1  0
  9 24  1  0
 24 25  2  0
 25 26  1  0
  6 27  1  0
 26 27  2  0
 27 28  1  0
 24 29  1  0
 28 29  2  0
 16 30  1  0
 15 31  1  0
 30 31  1  0
 31 32  2  0
 32 33  1  0
 33 34  2  0
 30 35  2  0
 34 35  1  0
 20 36  1  0
 36 37  1  0
 37 38  1  0
 19 39  1  0
 38 39  1  0
 39 40  1  0
 36 41  1  0
 40 41  1  0
M  END
