x0967-x0731
     RDKit          3D

 41 43  0  0  0  0  0  0  0  0999 V2000
    7.5880    5.1560   22.3800 C   0  0  0  0  0  0  0  0  0  0  0  0
    7.7240    2.7670   22.3860 N   0  0  0  0  0  0  0  0  0  0  0  0
    6.1490    3.7710   23.7030 O   0  0  0  0  0  0  0  0  0  0  0  0
    7.0670    3.8430   22.8970 C   0  0  0  0  0  0  0  0  0  0  0  0
    9.0670   -0.5880   22.9890 N   0  0  0  0  0  0  0  0  0  0  0  0
    5.7190    0.8000   17.0410 O   0  0  0  0  0  0  0  0  0  0  0  0
    7.6550    1.4490   22.9960 C   0  0  1  0  0  0  0  0  0  0  0  0
    9.8960    1.3140   22.1060 O   0  0  0  0  0  0  0  0  0  0  0  0
    6.4470    0.5800   22.6030 C   0  0  0  0  0  0  0  0  0  0  0  0
    8.9630    0.7330   22.6550 C   0  0  0  0  0  0  0  0  0  0  0  0
    9.8250   -1.3730   22.0580 C   0  0  1  0  0  0  0  0  0  0  0  0
   11.1620   -1.5580   22.5530 C   0  0  0  0  0  0  0  0  0  0  0  0
   12.1420   -1.8220   23.1280 C   0  0  0  0  0  0  0  0  0  0  0  0
   13.5170   -2.3820   24.2720 Br  0  0  0  0  0  0  0  0  0  0  0  0
    0.9010   -0.9030   25.9980 C   0  0  0  0  0  0  0  0  0  0  0  0
    6.5440   -4.9820   26.7350 O   0  0  0  0  0  0  0  0  0  0  0  0
    4.7240   -6.5950   26.0700 O   0  0  0  0  0  0  0  0  0  0  0  0
    5.2790   -5.0130   19.9930 O   0  0  0  0  0  0  0  0  0  0  0  0
    6.3020   -4.5520   20.4720 C   0  0  0  0  0  0  0  0  0  0  0  0
    7.0130   -3.4620   19.6700 C   0  0  0  0  0  0  0  0  0  0  0  0
    5.4690   -5.3800   25.8510 S   0  0  0  0  0  0  0  0  0  0  0  0
    9.2080   -2.7230   22.0310 C   0  0  0  0  0  0  0  0  0  0  0  0
    7.8360   -2.8280   22.2430 C   0  0  0  0  0  0  0  0  0  0  0  0
    6.2610    0.6130   21.1100 C   0  0  0  0  0  0  0  0  0  0  0  0
    6.9930   -0.2520   20.2800 C   0  0  0  0  0  0  0  0  0  0  0  0
    6.8220   -0.2090   18.8990 C   0  0  0  0  0  0  0  0  0  0  0  0
    5.9210    0.7020   18.3560 C   0  0  0  0  0  0  0  0  0  0  0  0
    5.2000    1.5460   19.1660 C   0  0  0  0  0  0  0  0  0  0  0  0
    5.3610    1.5100   20.5320 C   0  0  0  0  0  0  0  0  0  0  0  0
    1.9870   -1.9350   25.9550 C   0  0  0  0  0  0  0  0  0  0  0  0
    1.7430   -3.3220   25.3670 C   0  0  0  0  0  0  0  0  0  0  0  0
    2.8520   -4.3780   25.3390 C   0  0  0  0  0  0  0  0  0  0  0  0
    4.2540   -4.0930   25.9000 C   0  0  0  0  0  0  0  0  0  0  0  0
    4.3930   -2.6810   26.4510 C   0  0  0  0  0  0  0  0  0  0  0  0
    3.2610   -1.6320   26.4670 C   0  0  0  0  0  0  0  0  0  0  0  0
    6.7930   -5.0850   21.6740 N   0  0  0  0  0  0  0  0  0  0  0  0
    7.3600   -4.2050   22.7260 C   0  0  2  0  0  0  0  0  0  0  0  0
    6.4750   -4.0320   23.7660 C   0  0  0  0  0  0  0  0  0  0  0  0
    6.1250   -5.3790   24.2810 N   0  0  0  0  0  0  0  0  0  0  0  0
    5.3570   -6.1430   23.2600 C   0  0  0  0  0  0  0  0  0  0  0  0
    6.2170   -6.3430   22.1770 C   0  0  0  0  0  0  0  0  0  0  0  0
  1  4  1  0
  2  4  1  0
  3  4  2  0
  2  7  1  0
  7  9  1  6
  5 10  1  0
  7 10  1  0
  8 10  2  0
  5 11  1  0
 11 12  1  1
 12 13  3  0
 13 14  1  0
 18 19  2  0
 19 20  1  0
 16 21  2  0
 17 21  2  0
 11 22  1  0
 22 23  1  0
  9 24  1  0
 24 25  2  0
 25 26  1  0
  6 27  1  0
 26 27  2  0
 27 28  1  0
 24 29  1  0
 28 29  2  0
 15 30  1  0
 30 31  2  0
 31 32  1  0
 21 33  1  0
 32 33  2  0
 33 34  1  0
 30 35  1  0
 34 35  2  0
 19 36  1  0
 37 23  1  6
 36 37  1  0
 37 38  1  0
 21 39  1  0
 38 39  1  0
 39 40  1  0
 36 41  1  0
 40 41  1  0
M  END
