x0967-x0736
     RDKit          3D

 36 38  0  0  0  0  0  0  0  0999 V2000
    7.7010    4.7120   22.3970 C   0  0  0  0  0  0  0  0  0  0  0  0
    7.9180    2.4440   23.1630 N   0  0  0  0  0  0  0  0  0  0  0  0
    5.9080    3.5150   23.4300 O   0  0  0  0  0  0  0  0  0  0  0  0
    7.0670    3.5080   23.0420 C   0  0  0  0  0  0  0  0  0  0  0  0
    8.2360   -1.0510   21.9130 N   0  0  0  0  0  0  0  0  0  0  0  0
    5.7570    0.8780   17.0510 O   0  0  0  0  0  0  0  0  0  0  0  0
    7.4850    1.0360   23.1860 C   0  0  1  0  0  0  0  0  0  0  0  0
    9.6550    0.7060   22.2350 O   0  0  0  0  0  0  0  0  0  0  0  0
    6.0920    0.7030   22.6350 C   0  0  0  0  0  0  0  0  0  0  0  0
    8.5300    0.2170   22.4310 C   0  0  0  0  0  0  0  0  0  0  0  0
    9.3810   -1.5770   21.3480 C   0  0  0  0  0  0  0  0  0  0  0  0
   10.6120   -1.4450   22.0650 C   0  0  0  0  0  0  0  0  0  0  0  0
   11.6490   -1.2730   22.5410 C   0  0  0  0  0  0  0  0  0  0  0  0
   13.3100   -0.9050   23.2760 Br  0  0  0  0  0  0  0  0  0  0  0  0
    7.4030   -2.9430   19.0800 C   0  0  0  0  0  0  0  0  0  0  0  0
    5.5150   -4.1440   19.8100 O   0  0  0  0  0  0  0  0  0  0  0  0
    6.4230   -3.3550   20.1720 C   0  0  0  0  0  0  0  0  0  0  0  0
    5.8120   -2.4700   25.2280 O   0  0  0  0  0  0  0  0  0  0  0  0
    7.0330   -2.5390   25.0940 C   0  0  0  0  0  0  0  0  0  0  0  0
    6.0180    0.7260   21.1280 C   0  0  0  0  0  0  0  0  0  0  0  0
    6.7840   -0.1370   20.3300 C   0  0  0  0  0  0  0  0  0  0  0  0
    6.6920   -0.0830   18.9530 C   0  0  0  0  0  0  0  0  0  0  0  0
    5.8250    0.8430   18.3780 C   0  0  0  0  0  0  0  0  0  0  0  0
    5.0590    1.7010   19.1410 C   0  0  0  0  0  0  0  0  0  0  0  0
    5.1570    1.6420   20.5160 C   0  0  0  0  0  0  0  0  0  0  0  0
    6.4720   -2.9480   21.5690 N   0  0  0  0  0  0  0  0  0  0  0  0
    7.4170   -2.1330   22.4140 C   0  0  1  0  0  0  0  0  0  0  0  0
    8.3780   -2.8160   23.1270 C   0  0  0  0  0  0  0  0  0  0  0  0
    7.6430   -3.5170   24.1740 N   0  0  0  0  0  0  0  0  0  0  0  0
    6.7310   -4.4950   23.5220 C   0  0  0  0  0  0  0  0  0  0  0  0
    5.9370   -3.8910   22.3530 C   0  0  0  0  0  0  0  0  0  0  0  0
    8.7480   -0.8550   25.0280 O   0  0  0  0  0  0  0  0  0  0  0  0
    7.9270   -1.6730   25.8180 C   0  0  0  0  0  0  0  0  0  0  0  0
    8.2300   -1.4060   27.3100 C   0  0  0  0  0  0  0  0  0  0  0  0
    9.2870   -0.3820   27.2830 C   0  0  0  0  0  0  0  0  0  0  0  0
    9.5430   -0.1120   25.8320 C   0  0  0  0  0  0  0  0  0  0  0  0
  1  4  1  0
  2  4  1  0
  3  4  2  0
  2  7  1  0
  7  9  1  6
  5 10  1  0
  7 10  1  0
  8 10  2  0
  5 11  1  0
 11 12  1  0
 12 13  3  0
 13 14  1  0
 15 17  1  0
 16 17  2  0
 18 19  2  0
  9 20  1  0
 20 21  2  0
 21 22  1  0
  6 23  1  0
 22 23  2  0
 23 24  1  0
 20 25  1  0
 24 25  2  0
 17 26  1  0
 27  5  1  6
 26 27  1  0
 27 28  1  0
 19 29  1  0
 28 29  1  0
 29 30  1  0
 26 31  1  0
 30 31  1  0
 19 33  1  0
 32 33  1  0
 33 34  2  0
 34 35  1  0
 32 36  1  0
 35 36  2  0
M  END
