x0967-x0769
     RDKit          3D

 42 44  0  0  0  0  0  0  0  0999 V2000
    7.6190    4.9870   22.4000 C   0  0  0  0  0  0  0  0  0  0  0  0
    7.9570    2.6160   22.5950 N   0  0  0  0  0  0  0  0  0  0  0  0
    6.1630    3.5730   23.6620 O   0  0  0  0  0  0  0  0  0  0  0  0
    7.1580    3.6660   22.9550 C   0  0  0  0  0  0  0  0  0  0  0  0
    8.9030   -0.9830   22.6140 N   0  0  0  0  0  0  0  0  0  0  0  0
    5.6780    0.7950   17.0920 O   0  0  0  0  0  0  0  0  0  0  0  0
    7.7470    1.2410   23.0490 C   0  0  1  0  0  0  0  0  0  0  0  0
    9.9360    0.9630   22.0870 O   0  0  0  0  0  0  0  0  0  0  0  0
    6.3930    0.6160   22.6580 C   0  0  2  0  0  0  0  0  0  0  0  0
    8.9410    0.4030   22.5460 C   0  0  0  0  0  0  0  0  0  0  0  0
    9.8920   -1.6270   21.7750 C   0  0  0  0  0  0  0  0  0  0  0  0
   11.1080   -1.8730   22.5170 C   0  0  0  0  0  0  0  0  0  0  0  0
   12.0340   -2.0630   23.2170 C   0  0  0  0  0  0  0  0  0  0  0  0
   13.4100   -2.3920   24.4590 Br  0  0  0  0  0  0  0  0  0  0  0  0
    5.8790   -5.1540   26.8190 O   0  0  0  0  0  0  0  0  0  0  0  0
    4.0490   -6.5730   25.8860 O   0  0  0  0  0  0  0  0  0  0  0  0
    5.3250   -4.7150   19.9580 O   0  0  0  0  0  0  0  0  0  0  0  0
    6.3690   -4.4550   20.5450 C   0  0  0  0  0  0  0  0  0  0  0  0
    7.3410   -3.4550   19.9070 C   0  0  0  0  0  0  0  0  0  0  0  0
    5.6550   -2.4630   26.1820 O   0  0  0  0  0  0  0  0  0  0  0  0
    4.8590   -5.3800   25.8180 S   0  0  0  0  0  0  0  0  0  0  0  0
    6.3040   -0.8260   23.2050 C   0  0  0  0  0  0  0  0  0  0  0  0
    5.5510   -1.0230   24.3490 C   0  0  0  0  0  0  0  0  0  0  0  0
    6.2700   -1.3760   25.4990 C   0  0  0  0  0  0  0  0  0  0  0  0
    6.2160    0.6400   21.1600 C   0  0  0  0  0  0  0  0  0  0  0  0
    6.9510   -0.2370   20.3300 C   0  0  0  0  0  0  0  0  0  0  0  0
    6.7860   -0.2080   18.9460 C   0  0  0  0  0  0  0  0  0  0  0  0
    5.8900    0.7000   18.4040 C   0  0  0  0  0  0  0  0  0  0  0  0
    5.1840    1.5430   19.2200 C   0  0  0  0  0  0  0  0  0  0  0  0
    5.3160    1.5440   20.5870 C   0  0  0  0  0  0  0  0  0  0  0  0
    4.3130   -2.5790   26.0510 C   0  0  0  0  0  0  0  0  0  0  0  0
    3.7370   -3.9890   25.8500 C   0  0  0  0  0  0  0  0  0  0  0  0
    2.2060   -4.1710   25.6930 C   0  0  0  0  0  0  0  0  0  0  0  0
    1.2840   -2.9330   25.7450 C   0  0  0  0  0  0  0  0  0  0  0  0
    1.9440   -1.5840   25.9510 C   0  0  0  0  0  0  0  0  0  0  0  0
    3.4540   -1.4720   26.0940 C   0  0  0  0  0  0  0  0  0  0  0  0
    6.6570   -5.0820   21.7650 N   0  0  0  0  0  0  0  0  0  0  0  0
    5.7770   -6.2030   22.1190 C   0  0  0  0  0  0  0  0  0  0  0  0
    4.8980   -5.9010   23.1520 C   0  0  0  0  0  0  0  0  0  0  0  0
    5.6890   -5.3770   24.3100 N   0  0  0  0  0  0  0  0  0  0  0  0
    6.4360   -4.1310   23.9480 C   0  0  0  0  0  0  0  0  0  0  0  0
    7.3340   -4.4380   22.9050 C   0  0  0  0  0  0  0  0  0  0  0  0
  1  4  1  0
  2  4  1  0
  3  4  2  0
  7  2  1  6
  7  9  1  0
  5 10  1  0
  7 10  1  0
  8 10  2  0
  5 11  1  0
 11 12  1  0
 12 13  3  0
 13 14  1  0
 17 18  2  0
 18 19  1  0
 15 21  2  0
 16 21  2  0
  9 22  1  6
 22 23  1  0
 20 24  1  0
 23 24  1  0
  9 25  1  0
 25 26  2  0
 26 27  1  0
  6 28  1  0
 27 28  2  0
 28 29  1  0
 25 30  1  0
 29 30  2  0
 20 31  1  0
 21 32  1  0
 31 32  1  0
 32 33  2  0
 33 34  1  0
 34 35  2  0
 31 36  2  0
 35 36  1  0
 18 37  1  0
 37 38  1  0
 38 39  1  0
 21 40  1  0
 39 40  1  0
 40 41  1  0
 37 42  1  0
 41 42  1  0
M  END
