x0967-x2754
     RDKit          3D

 40 42  0  0  0  0  0  0  0  0999 V2000
    7.6700    4.7850   22.4220 C   0  0  0  0  0  0  0  0  0  0  0  0
    8.0530    2.5160   23.1390 N   0  0  0  0  0  0  0  0  0  0  0  0
    5.9750    3.4440   23.4400 O   0  0  0  0  0  0  0  0  0  0  0  0
    7.1300    3.5220   23.0460 C   0  0  0  0  0  0  0  0  0  0  0  0
    8.7730   -1.0890   22.3380 N   0  0  0  0  0  0  0  0  0  0  0  0
    5.7680    0.9130   17.0180 O   0  0  0  0  0  0  0  0  0  0  0  0
    7.7020    1.0900   23.1570 C   0  0  1  0  0  0  0  0  0  0  0  0
    9.8350    0.9010   22.0670 O   0  0  0  0  0  0  0  0  0  0  0  0
    6.3080    0.7010   22.6220 C   0  0  0  0  0  0  0  0  0  0  0  0
    8.8430    0.3010   22.4840 C   0  0  0  0  0  0  0  0  0  0  0  0
    9.9230   -1.5630   21.6390 C   0  0  0  0  0  0  0  0  0  0  0  0
   11.0870   -1.7790   22.4280 C   0  0  0  0  0  0  0  0  0  0  0  0
   12.0510   -2.0340   23.0130 C   0  0  0  0  0  0  0  0  0  0  0  0
   13.5640   -2.5640   23.9560 Br  0  0  0  0  0  0  0  0  0  0  0  0
    4.8510   -3.4130   25.4120 C   0  0  0  0  0  0  0  0  0  0  0  0
    3.6880   -3.2060   25.0510 O   0  0  0  0  0  0  0  0  0  0  0  0
    5.3610   -3.1570   26.6890 N   0  0  0  0  0  0  0  0  0  0  0  0
    5.2210   -4.4960   19.8650 O   0  0  0  0  0  0  0  0  0  0  0  0
    6.2480   -3.9740   20.2870 C   0  0  0  0  0  0  0  0  0  0  0  0
    7.0960   -3.1860   19.2930 C   0  0  0  0  0  0  0  0  0  0  0  0
    4.7950   -2.1040   27.5310 C   0  0  0  0  0  0  0  0  0  0  0  0
    7.6070   -1.7980   21.8190 C   0  0  0  0  0  0  0  0  0  0  0  0
    6.1900    0.7390   21.1020 C   0  0  0  0  0  0  0  0  0  0  0  0
    7.0410   -0.0130   20.2780 C   0  0  0  0  0  0  0  0  0  0  0  0
    6.9090    0.0310   18.9000 C   0  0  0  0  0  0  0  0  0  0  0  0
    5.9300    0.8300   18.3450 C   0  0  0  0  0  0  0  0  0  0  0  0
    5.0760    1.5840   19.1270 C   0  0  0  0  0  0  0  0  0  0  0  0
    5.2050    1.5380   20.5120 C   0  0  0  0  0  0  0  0  0  0  0  0
    6.6180   -4.1820   21.6280 N   0  0  0  0  0  0  0  0  0  0  0  0
    7.2890   -3.1430   22.4840 C   0  0  2  0  0  0  0  0  0  0  0  0
    6.4650   -2.7850   23.7100 C   0  0  0  0  0  0  0  0  0  0  0  0
    5.8340   -3.9900   24.3870 C   0  0  2  0  0  0  0  0  0  0  0  0
    5.1510   -4.9330   23.3840 C   0  0  0  0  0  0  0  0  0  0  0  0
    6.1670   -5.3760   22.3440 C   0  0  0  0  0  0  0  0  0  0  0  0
    7.0910   -4.9500   26.6710 C   0  0  0  0  0  0  0  0  0  0  0  0
    8.3400   -5.4640   27.0470 C   0  0  0  0  0  0  0  0  0  0  0  0
    9.1720   -4.7180   27.8470 C   0  0  0  0  0  0  0  0  0  0  0  0
    8.7500   -3.4760   28.2650 C   0  0  0  0  0  0  0  0  0  0  0  0
    7.5110   -2.9590   27.8900 C   0  0  0  0  0  0  0  0  0  0  0  0
    6.6500   -3.6810   27.0840 C   0  0  0  0  0  0  0  0  0  0  0  0
  1  4  1  0
  2  4  1  0
  3  4  2  0
  2  7  1  0
  7  9  1  6
  5 10  1  0
  7 10  1  0
  8 10  2  0
  5 11  1  0
 11 12  1  0
 12 13  3  0
 13 14  1  0
 15 16  2  0
 15 17  1  0
 18 19  2  0
 19 20  1  0
 17 21  1  0
  5 22  1  0
  9 23  1  0
 23 24  2  0
 24 25  1  0
  6 26  1  0
 25 26  2  0
 26 27  1  0
 23 28  1  0
 27 28  2  0
 19 29  1  0
 30 22  1  6
 29 30  1  0
 30 31  1  0
 32 15  1  1
 31 32  1  0
 32 33  1  0
 29 34  1  0
 33 34  1  0
 35 36  2  0
 36 37  1  0
 37 38  2  0
 38 39  1  0
 17 40  1  0
 35 40  1  0
 39 40  2  0
M  END
