x0967-x1478
     RDKit          3D

 32 33  0  0  0  0  0  0  0  0999 V2000
    7.7770    5.0910   22.3480 C   0  0  0  0  0  0  0  0  0  0  0  0
    8.0140    2.7000   22.5530 N   0  0  0  0  0  0  0  0  0  0  0  0
    6.2320    3.7290   23.5610 O   0  0  0  0  0  0  0  0  0  0  0  0
    7.2530    3.7870   22.8830 C   0  0  0  0  0  0  0  0  0  0  0  0
    8.5680   -0.8860   23.3980 N   0  0  0  0  0  0  0  0  0  0  0  0
    5.6670    0.7940   17.0730 O   0  0  0  0  0  0  0  0  0  0  0  0
    7.6740    1.3800   23.0650 C   0  0  1  0  0  0  0  0  0  0  0  0
    9.7240    0.5880   22.0220 O   0  0  0  0  0  0  0  0  0  0  0  0
    6.3140    0.8330   22.6220 C   0  0  0  0  0  0  0  0  0  0  0  0
    8.7600    0.3390   22.7570 C   0  0  0  0  0  0  0  0  0  0  0  0
    9.0170   -2.1130   22.7800 C   0  0  2  0  0  0  0  0  0  0  0  0
   10.4720   -2.1210   22.8290 C   0  0  0  0  0  0  0  0  0  0  0  0
   11.6260   -2.1320   23.0780 C   0  0  0  0  0  0  0  0  0  0  0  0
   13.3880   -2.1940   23.7190 Br  0  0  0  0  0  0  0  0  0  0  0  0
    6.9990   -2.6740   21.2360 N   0  0  0  0  0  0  0  0  0  0  0  0
    7.8010   -3.6670   19.3650 C   0  0  0  0  0  0  0  0  0  0  0  0
    5.5360   -3.4610   19.4740 O   0  0  0  0  0  0  0  0  0  0  0  0
    6.5190   -5.9060   22.3300 Cl  0  0  0  0  0  0  0  0  0  0  0  0
    6.6280   -3.2170   20.0420 C   0  0  0  0  0  0  0  0  0  0  0  0
    8.4480   -2.3200   21.3870 C   0  0  0  0  0  0  0  0  0  0  0  0
    6.1450    0.8060   21.1280 C   0  0  0  0  0  0  0  0  0  0  0  0
    6.9190   -0.0420   20.3310 C   0  0  0  0  0  0  0  0  0  0  0  0
    6.7550   -0.0490   18.9570 C   0  0  0  0  0  0  0  0  0  0  0  0
    5.8050    0.8090   18.3960 C   0  0  0  0  0  0  0  0  0  0  0  0
    5.0280    1.6530   19.1640 C   0  0  0  0  0  0  0  0  0  0  0  0
    5.1990    1.6510   20.5340 C   0  0  0  0  0  0  0  0  0  0  0  0
    5.0970   -4.5740   23.9860 N   0  0  0  0  0  0  0  0  0  0  0  0
    5.9250   -4.3920   22.8930 C   0  0  0  0  0  0  0  0  0  0  0  0
    6.1740   -3.0780   22.3900 C   0  0  0  0  0  0  0  0  0  0  0  0
    5.6010   -1.9640   22.9850 C   0  0  0  0  0  0  0  0  0  0  0  0
    4.6850   -2.0730   24.1890 C   0  0  0  0  0  0  0  0  0  0  0  0
    4.4360   -3.4850   24.6940 C   0  0  0  0  0  0  0  0  0  0  0  0
  1  4  1  0
  2  4  1  0
  3  4  2  0
  2  7  1  0
  7  9  1  6
  5 10  1  0
  7 10  1  0
  8 10  2  0
  5 11  1  0
 11 12  1  6
 12 13  3  0
 13 14  1  0
 15 19  1  0
 16 19  1  0
 17 19  2  0
 11 20  1  0
 15 20  1  0
  9 21  1  0
 21 22  2  0
 22 23  1  0
  6 24  1  0
 23 24  2  0
 24 25  1  0
 21 26  1  0
 25 26  2  0
 18 28  1  0
 27 28  2  0
 15 29  1  0
 28 29  1  0
 29 30  2  0
 30 31  1  0
 27 32  1  0
 31 32  2  0
M  END
