x0967-x0995
     RDKit          3D

 21 21  0  0  0  0  0  0  0  0999 V2000
    7.6120    4.9620   22.3990 C   0  0  0  0  0  0  0  0  0  0  0  0
    7.9180    2.5790   22.5600 N   0  0  0  0  0  0  0  0  0  0  0  0
    6.1660    3.5530   23.6790 O   0  0  0  0  0  0  0  0  0  0  0  0
    7.1450    3.6400   22.9500 C   0  0  0  0  0  0  0  0  0  0  0  0
    8.8720   -0.9990   22.6500 N   0  0  0  0  0  0  0  0  0  0  0  0
    5.5650    0.7880   17.1140 O   0  0  0  0  0  0  0  0  0  0  0  0
    7.7480    1.2170   23.0680 C   0  0  1  0  0  0  0  0  0  0  0  0
    9.9640    0.9380   22.1690 O   0  0  0  0  0  0  0  0  0  0  0  0
    6.4500    0.4990   22.6740 C   0  0  0  0  0  0  0  0  0  0  0  0
    8.9500    0.3850   22.5950 C   0  0  0  0  0  0  0  0  0  0  0  0
    9.8470   -1.6480   21.7990 C   0  0  0  0  0  0  0  0  0  0  0  0
   11.0800   -1.8690   22.5190 C   0  0  0  0  0  0  0  0  0  0  0  0
   12.0200   -2.0510   23.2030 C   0  0  0  0  0  0  0  0  0  0  0  0
   13.4160   -2.3820   24.4230 Br  0  0  0  0  0  0  0  0  0  0  0  0
    4.0190    2.2940   18.7720 N   0  0  0  0  0  0  0  0  0  0  0  0
    6.1940    0.5820   21.1930 C   0  0  0  0  0  0  0  0  0  0  0  0
    6.9310   -0.1600   20.2700 C   0  0  0  0  0  0  0  0  0  0  0  0
    6.7350   -0.1090   18.9120 C   0  0  0  0  0  0  0  0  0  0  0  0
    5.7470    0.7330   18.4320 C   0  0  0  0  0  0  0  0  0  0  0  0
    4.9700    1.5000   19.3200 C   0  0  0  0  0  0  0  0  0  0  0  0
    5.1950    1.4240   20.6930 C   0  0  0  0  0  0  0  0  0  0  0  0
  1  4  1  0
  2  4  1  0
  3  4  2  0
  2  7  1  0
  7  9  1  6
  5 10  1  0
  7 10  1  0
  8 10  2  0
  5 11  1  0
 11 12  1  0
 12 13  3  0
 13 14  1  0
  9 16  1  0
 16 17  2  0
 17 18  1  0
  6 19  1  0
 18 19  2  0
 15 20  1  0
 19 20  1  0
 16 21  1  0
 20 21  2  0
M  END
