x0967-x1458
     RDKit          3D

 37 38  0  0  0  0  0  0  0  0999 V2000
    7.6250    4.7710   22.3720 C   0  0  0  0  0  0  0  0  0  0  0  0
    7.9870    2.5100   23.0980 N   0  0  0  0  0  0  0  0  0  0  0  0
    5.9270    3.4630   23.4320 O   0  0  0  0  0  0  0  0  0  0  0  0
    7.0740    3.5240   23.0160 C   0  0  0  0  0  0  0  0  0  0  0  0
    8.7940   -1.0700   22.4120 N   0  0  0  0  0  0  0  0  0  0  0  0
    5.7790    0.8430   17.0250 O   0  0  0  0  0  0  0  0  0  0  0  0
    7.6600    1.0800   23.1590 C   0  0  1  0  0  0  0  0  0  0  0  0
    9.6380    0.9510   21.8060 O   0  0  0  0  0  0  0  0  0  0  0  0
    6.2610    0.6430   22.7050 C   0  0  0  0  0  0  0  0  0  0  0  0
    8.7640    0.3210   22.4050 C   0  0  0  0  0  0  0  0  0  0  0  0
    9.9300   -1.6000   21.6920 C   0  0  0  0  0  0  0  0  0  0  0  0
   11.0960   -1.8350   22.5130 C   0  0  0  0  0  0  0  0  0  0  0  0
   12.0110   -2.0370   23.2300 C   0  0  0  0  0  0  0  0  0  0  0  0
   13.3970   -2.3840   24.4580 Br  0  0  0  0  0  0  0  0  0  0  0  0
    6.9880   -3.7570   26.6270 N   0  0  0  0  0  0  0  0  0  0  0  0
    9.0220   -4.6340   27.4980 C   0  0  0  0  0  0  0  0  0  0  0  0
    4.9850   -3.4050   25.3240 O   0  0  0  0  0  0  0  0  0  0  0  0
    7.6870   -4.9240   27.1760 C   0  0  0  0  0  0  0  0  0  0  0  0
    5.2100   -4.5280   19.8730 O   0  0  0  0  0  0  0  0  0  0  0  0
    6.9060   -5.6100   28.1010 C   0  0  0  0  0  0  0  0  0  0  0  0
    6.5750   -2.7570   27.6010 C   0  0  0  0  0  0  0  0  0  0  0  0
    6.3000   -3.9320   25.4950 C   0  0  0  0  0  0  0  0  0  0  0  0
    6.2430   -4.0040   20.2700 C   0  0  0  0  0  0  0  0  0  0  0  0
    7.0920   -3.2140   19.2870 C   0  0  0  0  0  0  0  0  0  0  0  0
    7.5250   -1.7790   22.2130 C   0  0  0  0  0  0  0  0  0  0  0  0
    6.0990    0.7260   21.2140 C   0  0  0  0  0  0  0  0  0  0  0  0
    6.9110   -0.0220   20.3330 C   0  0  0  0  0  0  0  0  0  0  0  0
    6.8090    0.0070   18.9400 C   0  0  0  0  0  0  0  0  0  0  0  0
    5.8530    0.8240   18.3470 C   0  0  0  0  0  0  0  0  0  0  0  0
    4.9190    1.6770   19.1610 C   0  0  0  0  0  0  0  0  0  0  0  0
    5.0150    1.6530   20.6680 C   0  0  0  0  0  0  0  0  0  0  0  0
    6.6590   -4.1830   21.5870 N   0  0  0  0  0  0  0  0  0  0  0  0
    7.6660   -3.3190   22.2760 C   0  0  2  0  0  0  0  0  0  0  0  0
    7.8500   -3.6400   23.7340 C   0  0  0  0  0  0  0  0  0  0  0  0
    6.9760   -4.7220   24.3760 C   0  0  2  0  0  0  0  0  0  0  0  0
    5.9830   -5.2450   23.5540 C   0  0  0  0  0  0  0  0  0  0  0  0
    6.4160   -5.4570   22.2660 C   0  0  0  0  0  0  0  0  0  0  0  0
  1  4  1  0
  2  4  1  0
  3  4  2  0
  2  7  1  0
  7  9  1  6
  5 10  1  0
  7 10  1  0
  8 10  2  0
  5 11  1  0
 11 12  1  0
 12 13  3  0
 13 14  1  0
 15 18  1  0
 16 18  1  0
 18 20  1  0
 15 21  1  0
 15 22  1  0
 17 22  2  0
 19 23  2  0
 23 24  1  0
  5 25  1  0
  9 26  1  0
 26 27  2  0
 27 28  1  0
  6 29  1  0
 28 29  2  0
 29 30  1  0
 26 31  1  0
 30 31  2  0
 23 32  1  0
 33 25  1  1
 32 33  1  0
 33 34  1  0
 35 22  1  1
 34 35  1  0
 35 36  1  0
 32 37  1  0
 36 37  1  0
M  END
