x0967-x0991
     RDKit          3D

 26 26  0  0  0  0  0  0  0  0999 V2000
    7.6730    4.8410   22.3770 C   0  0  0  0  0  0  0  0  0  0  0  0
    8.0240    2.5510   23.0160 N   0  0  0  0  0  0  0  0  0  0  0  0
    5.9800    3.5110   23.4140 O   0  0  0  0  0  0  0  0  0  0  0  0
    7.1220    3.5760   22.9830 C   0  0  0  0  0  0  0  0  0  0  0  0
    8.5760   -1.0940   22.6750 N   0  0  0  0  0  0  0  0  0  0  0  0
    5.7520    0.8510   16.9910 O   0  0  0  0  0  0  0  0  0  0  0  0
    7.6390    1.1430   23.1170 C   0  0  1  0  0  0  0  0  0  0  0  0
    9.6810    0.7500   21.8540 O   0  0  0  0  0  0  0  0  0  0  0  0
    6.2640    0.7200   22.5830 C   0  0  0  0  0  0  0  0  0  0  0  0
    8.7270    0.2660   22.4770 C   0  0  0  0  0  0  0  0  0  0  0  0
    9.5020   -2.0440   22.0850 C   0  0  1  0  0  0  0  0  0  0  0  0
   10.8710   -1.8910   22.5190 C   0  0  0  0  0  0  0  0  0  0  0  0
   11.9170   -1.9490   23.0510 C   0  0  0  0  0  0  0  0  0  0  0  0
   13.4360   -2.2140   24.1250 Br  0  0  0  0  0  0  0  0  0  0  0  0
   10.1440   -5.2080   25.2800 N   0  0  0  0  0  0  0  0  0  0  0  0
    8.0480   -3.4170   23.7680 C   0  0  0  0  0  0  0  0  0  0  0  0
    8.0280   -4.7370   24.2590 C   0  0  0  0  0  0  0  0  0  0  0  0
    8.1070   -5.2500   26.6430 N   0  0  0  0  0  0  0  0  0  0  0  0
    8.7060   -5.0680   25.4420 C   0  0  0  0  0  0  0  0  0  0  0  0
    9.1220   -3.3850   22.6620 C   0  0  0  0  0  0  0  0  0  0  0  0
    6.1600    0.7030   21.0830 C   0  0  0  0  0  0  0  0  0  0  0  0
    6.9030   -0.1920   20.2940 C   0  0  0  0  0  0  0  0  0  0  0  0
    6.7820   -0.1700   18.8970 C   0  0  0  0  0  0  0  0  0  0  0  0
    5.9220    0.7500   18.3080 C   0  0  0  0  0  0  0  0  0  0  0  0
    5.2080    1.6040   19.1020 C   0  0  0  0  0  0  0  0  0  0  0  0
    5.2950    1.6140   20.4670 C   0  0  0  0  0  0  0  0  0  0  0  0
  1  4  1  0
  2  4  1  0
  3  4  2  0
  2  7  1  0
  7  9  1  6
  5 10  1  0
  7 10  1  0
  8 10  2  0
  5 11  1  0
 11 12  1  1
 12 13  3  0
 13 14  1  0
 16 17  1  0
 15 19  2  3
 17 19  1  0
 18 19  1  0
 11 20  1  0
 16 20  1  0
  9 21  1  0
 21 22  2  0
 22 23  1  0
  6 24  1  0
 23 24  2  0
 24 25  1  0
 21 26  1  0
 25 26  2  0
M  END
