x0978-x2754-x3110-x3113
     RDKit          3D

 56 60  0  0  0  0  0  0  0  0999 V2000
    8.1090    1.3450   23.3990 N   0  0  0  0  0  0  0  0  0  0  0  0
   13.3940    5.1960   22.9120 C   0  0  0  0  0  0  0  0  0  0  0  0
   12.1080    3.4090   22.3720 O   0  0  0  0  0  0  0  0  0  0  0  0
   12.4580    4.5100   21.9440 C   0  0  0  0  0  0  0  0  0  0  0  0
    7.6600   -1.5560   21.6990 N   0  0  0  0  0  0  0  0  0  0  0  0
   11.0640    4.2660   24.1860 O   0  0  0  0  0  0  0  0  0  0  0  0
   11.2240    3.2980   23.4190 C   0  0  0  0  0  0  0  0  0  0  0  0
    8.8440    1.7100   21.1040 O   0  0  0  0  0  0  0  0  0  0  0  0
   10.4360    1.9680   23.6290 C   0  0  0  0  0  0  0  0  0  0  0  0
    8.9930    2.3170   23.8210 C   0  0  0  0  0  0  0  0  0  0  0  0
    8.0550    0.9580   22.0210 C   0  0  0  0  0  0  0  0  0  0  0  0
    7.1470   -0.1930   21.6260 C   0  0  1  0  0  0  0  0  0  0  0  0
   12.6390   -1.9130   24.2770 C   0  0  0  0  0  0  0  0  0  0  0  0
   12.8130   -0.5720   24.8810 C   0  0  0  0  0  0  0  0  0  0  0  0
   13.5190   -2.1730   23.1090 C   0  0  0  0  0  0  0  0  0  0  0  0
   13.0320   -2.9710   25.2990 C   0  0  0  0  0  0  0  0  0  0  0  0
    2.3630   -6.6340   22.6090 N   0  0  0  0  0  0  0  0  0  0  0  0
    2.4080   -8.0830   24.9270 C   0  0  0  0  0  0  0  0  0  0  0  0
    4.5710   -7.8980   24.2430 O   0  0  0  0  0  0  0  0  0  0  0  0
    3.5910   -7.2470   24.6110 C   0  0  1  0  0  0  0  0  0  0  0  0
    5.5730   -6.0510   21.8680 N   0  0  0  0  0  0  0  0  0  0  0  0
    0.0670   -7.1160   21.6790 O   0  0  0  0  0  0  0  0  0  0  0  0
    3.2740   -6.1710   23.5760 C   0  0  1  0  0  0  0  0  0  0  0  0
    0.9180   -6.4090   22.5620 C   0  0  0  0  0  0  0  0  0  0  0  0
    0.0900   -5.4300   23.3920 C   0  0  0  0  0  0  0  0  0  0  0  0
    4.5650   -5.5910   22.7530 C   0  0  0  0  0  0  0  0  0  0  0  0
    6.2600   -4.3840   20.1440 C   0  0  0  0  0  0  0  0  0  0  0  0
    5.3140   -3.6630   19.6050 C   0  0  0  0  0  0  0  0  0  0  0  0
    4.7010   -3.2650   24.8770 C   0  0  0  0  0  0  0  0  0  0  0  0
    3.6010   -3.7370   25.1230 O   0  0  0  0  0  0  0  0  0  0  0  0
    5.5450   -2.8940   25.9640 N   0  0  0  0  0  0  0  0  0  0  0  0
    4.9590   -2.0990   27.0350 C   0  0  0  0  0  0  0  0  0  0  0  0
    6.3930    0.2380   17.8970 N   0  0  0  0  0  0  0  0  0  0  0  0
    5.2960    1.0640   17.8970 C   0  0  0  0  0  0  0  0  0  0  0  0
    4.6750    1.5560   19.0460 C   0  0  0  0  0  0  0  0  0  0  0  0
    5.2490    1.1650   20.4230 C   0  0  0  0  0  0  0  0  0  0  0  0
    6.4800    0.2460   20.3360 C   0  0  0  0  0  0  0  0  0  0  0  0
    6.9450   -0.1450   19.0770 C   0  0  0  0  0  0  0  0  0  0  0  0
   10.0250   -1.1300   21.7970 C   0  0  0  0  0  0  0  0  0  0  0  0
   11.1710   -1.2730   22.4940 C   0  0  0  0  0  0  0  0  0  0  0  0
   11.2850   -1.8880   23.7020 C   0  0  0  0  0  0  0  0  0  0  0  0
   10.1470   -2.4130   24.2640 C   0  0  0  0  0  0  0  0  0  0  0  0
    8.9390   -2.2860   23.5700 C   0  0  0  0  0  0  0  0  0  0  0  0
    8.8860   -1.6390   22.3320 C   0  0  0  0  0  0  0  0  0  0  0  0
    7.2360   -4.0580   22.2970 N   0  0  0  0  0  0  0  0  0  0  0  0
    6.8580   -2.6100   22.1520 C   0  0  1  0  0  0  0  0  0  0  0  0
    6.1190   -2.2220   23.2340 C   0  0  0  0  0  0  0  0  0  0  0  0
    5.0530   -3.0560   23.4000 C   0  0  1  0  0  0  0  0  0  0  0  0
    5.2060   -4.3140   22.7120 C   0  0  0  0  0  0  0  0  0  0  0  0
    6.1350   -4.6920   21.6720 C   0  0  2  0  0  0  0  0  0  0  0  0
    6.8040   -4.6550   27.2250 C   0  0  0  0  0  0  0  0  0  0  0  0
    7.9440   -5.2480   27.6100 C   0  0  0  0  0  0  0  0  0  0  0  0
    9.1660   -4.7790   27.1720 C   0  0  0  0  0  0  0  0  0  0  0  0
    9.2520   -3.6990   26.3320 C   0  0  0  0  0  0  0  0  0  0  0  0
    8.0560   -3.0760   25.9300 C   0  0  0  0  0  0  0  0  0  0  0  0
    6.7880   -3.5220   26.3550 C   0  0  0  0  0  0  0  0  0  0  0  0
  2  4  1  0
  3  4  1  0
  3  7  1  0
  6  7  2  0
  7  9  1  0
  1 10  1  0
  9 10  1  0
  1 11  1  0
  8 11  2  0
  5 12  1  0
 12 11  1  6
 13 14  1  0
 13 15  1  0
 13 16  1  0
 20 18  1  6
 19 20  1  0
 23 17  1  6
 20 23  1  0
 17 24  1  0
 22 24  2  0
 24 25  1  0
 21 26  1  0
 23 26  1  0
 27 28  2  3
 29 30  2  0
 29 31  1  0
 31 32  1  0
 33 34  2  0
 34 35  1  0
 35 36  2  0
 12 37  1  0
 36 37  1  0
 33 38  1  0
 37 38  2  0
 39 40  2  0
 13 41  1  0
 40 41  1  0
 41 42  2  0
 42 43  1  0
  5 44  1  0
 39 44  1  0
 43 44  2  0
 46  5  1  1
 45 46  1  0
 46 47  1  0
 48 29  1  1
 47 48  1  0
 26 49  2  0
 48 49  1  0
 21 50  1  0
 50 27  1  6
 45 50  1  0
 49 50  1  0
 51 52  2  0
 52 53  1  0
 53 54  2  0
 54 55  1  0
 31 56  1  0
 51 56  1  0
 55 56  2  0
M  END
