x0978-x2776-x2694-x0689
     RDKit          3D

 68 75  0  0  0  0  0  0  0  0999 V2000
    2.1760   -5.6480   23.0850 N   0  0  0  0  0  0  0  0  0  0  0  0
    2.6090   -7.1790   25.4240 C   0  0  0  0  0  0  0  0  0  0  0  0
    4.5100   -7.6970   24.4590 O   0  0  0  0  0  0  0  0  0  0  0  0
    3.7930   -6.7020   24.6000 C   0  0  1  0  0  0  0  0  0  0  0  0
    0.9860   -7.5220   22.0190 O   0  0  0  0  0  0  0  0  0  0  0  0
    3.5100   -6.3360   23.1470 C   0  0  2  0  0  0  0  0  0  0  0  0
    4.1780   -4.1370   23.0270 O   0  0  0  0  0  0  0  0  0  0  0  0
    1.0060   -6.2470   22.6470 C   0  0  0  0  0  0  0  0  0  0  0  0
   -0.2740   -5.4860   22.8480 C   0  0  0  0  0  0  0  0  0  0  0  0
    6.4660   -4.3060   20.0270 C   0  0  0  0  0  0  0  0  0  0  0  0
    5.4640   -3.6260   19.4840 C   0  0  0  0  0  0  0  0  0  0  0  0
    5.0010   -6.2510   26.3130 O   0  0  0  0  0  0  0  0  0  0  0  0
    4.7390   -5.4130   25.1630 S   0  0  0  0  0  0  0  0  0  0  0  0
    7.1570   -1.3650   21.2800 N   0  0  0  0  0  0  0  0  0  0  0  0
    7.7320    2.4800   22.0140 N   0  0  0  0  0  0  0  0  0  0  0  0
    9.0720    0.6880   22.1270 O   0  0  0  0  0  0  0  0  0  0  0  0
   10.9880    6.5990   23.8310 O   0  0  0  0  0  0  0  0  0  0  0  0
    6.8470    0.0140   21.3040 C   0  0  1  0  0  0  0  0  0  0  0  0
   12.7570   -3.0000   24.6810 N   0  0  0  0  0  0  0  0  0  0  0  0
    7.9080    0.9770   21.8150 C   0  0  0  0  0  0  0  0  0  0  0  0
   10.5120    1.9170   23.2220 C   0  0  0  0  0  0  0  0  0  0  0  0
   12.1200    6.6390   24.5610 C   0  0  0  0  0  0  0  0  0  0  0  0
   11.6400   -2.2310   25.0190 C   0  0  1  0  0  0  0  0  0  0  0  0
   12.0740   -0.8390   25.1700 C   0  0  0  0  0  0  0  0  0  0  0  0
   13.3410   -3.4620   25.7950 C   0  0  0  0  0  0  0  0  0  0  0  0
    6.1640   -3.3810   22.2770 C   0  0  0  0  0  0  0  0  0  0  0  0
    5.9620   -2.2100   21.3490 C   0  0  0  0  0  0  0  0  0  0  0  0
    6.4920    0.6770   22.7020 N   0  0  0  0  0  0  0  0  0  0  0  0
    7.4550    3.7660   22.0630 N   0  0  0  0  0  0  0  0  0  0  0  0
    9.1870    1.9360   22.3430 O   0  0  0  0  0  0  0  0  0  0  0  0
    7.0860    1.5540   21.6640 C   0  0  0  0  0  0  0  0  0  0  0  0
    8.0390    2.5030   22.0740 C   0  0  0  0  0  0  0  0  0  0  0  0
    6.3620   -4.6670   21.5160 C   0  0  1  0  0  0  0  0  0  0  0  0
    5.3260   -5.5190   21.6230 C   0  0  0  0  0  0  0  0  0  0  0  0
    4.7080   -5.4340   22.8340 C   0  0  2  0  0  0  0  0  0  0  0  0
    5.6630   -5.6650   23.9340 N   0  0  0  0  0  0  0  0  0  0  0  0
    6.9880   -5.2160   23.7140 C   0  0  0  0  0  0  0  0  0  0  0  0
    7.4210   -5.2730   22.3220 C   0  0  0  0  0  0  0  0  0  0  0  0
    3.7260   -2.5790   25.8850 S   0  0  0  0  0  0  0  0  0  0  0  0
    3.4980   -4.2400   25.4140 C   0  0  0  0  0  0  0  0  0  0  0  0
    1.9650   -4.2800   25.3060 C   0  0  0  0  0  0  0  0  0  0  0  0
    1.2280   -3.1460   25.5690 C   0  0  0  0  0  0  0  0  0  0  0  0
    2.0870   -1.9620   25.9480 C   0  0  0  0  0  0  0  0  0  0  0  0
    6.2770    0.6570   17.6720 N   0  0  0  0  0  0  0  0  0  0  0  0
    5.1690    1.3950   17.6860 C   0  0  0  0  0  0  0  0  0  0  0  0
    4.5270    1.7030   18.8590 C   0  0  0  0  0  0  0  0  0  0  0  0
    5.0630    1.2450   20.0440 C   0  0  0  0  0  0  0  0  0  0  0  0
    6.2330    0.4870   20.0230 C   0  0  0  0  0  0  0  0  0  0  0  0
    6.8010    0.2090   18.8030 C   0  0  0  0  0  0  0  0  0  0  0  0
    9.9130    3.2760   23.0700 C   0  0  0  0  0  0  0  0  0  0  0  0
   10.7180    4.2990   23.5090 C   0  0  0  0  0  0  0  0  0  0  0  0
   10.2400    5.5530   23.4240 C   0  0  0  0  0  0  0  0  0  0  0  0
    8.9840    5.7680   22.9220 C   0  0  0  0  0  0  0  0  0  0  0  0
    7.9830    4.9050   22.4130 C   0  0  0  0  0  0  0  0  0  0  0  0
    8.6080    3.6460   22.5380 C   0  0  0  0  0  0  0  0  0  0  0  0
    9.3830   -2.2920   21.8310 C   0  0  0  0  0  0  0  0  0  0  0  0
   10.3540   -2.4100   22.8240 C   0  0  0  0  0  0  0  0  0  0  0  0
   10.5970   -2.1220   24.0470 C   0  0  0  0  0  0  0  0  0  0  0  0
    9.4350   -1.6090   24.1250 C   0  0  0  0  0  0  0  0  0  0  0  0
    8.2980   -1.3280   23.4100 C   0  0  0  0  0  0  0  0  0  0  0  0
    8.2260   -1.6640   22.1140 C   0  0  0  0  0  0  0  0  0  0  0  0
   10.4790    7.3670   25.9640 O   0  0  0  0  0  0  0  0  0  0  0  0
   11.8490    7.0600   25.9500 C   0  0  0  0  0  0  0  0  0  0  0  0
   12.6270   -1.4880   22.7200 C   0  0  0  0  0  0  0  0  0  0  0  0
   13.0440   -0.0390   22.9220 C   0  0  0  0  0  0  0  0  0  0  0  0
   13.0520   -1.9130   21.3080 C   0  0  0  0  0  0  0  0  0  0  0  0
   13.4490   -2.3810   23.6980 C   0  0  0  0  0  0  0  0  0  0  0  0
    9.7830    1.2670   24.3710 C   0  0  0  0  0  0  0  0  0  0  0  0
  4  2  1  1
  4  3  1  0
  6  1  1  1
  4  6  1  0
  1  8  1  0
  5  8  2  0
  8  9  1  0
 10 11  2  3
  4 13  1  0
 12 13  2  0
 18 14  1  6
 15 20  2  0
 16 20  1  0
 18 20  1  0
 17 22  1  0
 19 23  1  0
 23 24  1  6
 19 25  1  0
 14 27  1  0
 26 27  1  0
 16 30  1  0
 28 31  1  0
 29 32  2  0
 30 32  1  0
 31 32  1  0
 33 10  1  6
 26 33  1  0
 33 34  1  0
  6 35  1  0
 35  7  1  1
 34 35  1  0
 13 36  1  0
 35 36  1  0
 36 37  1  0
 33 38  1  0
 37 38  1  0
 13 40  1  0
 39 40  1  0
 40 41  2  0
 41 42  1  0
 39 43  1  0
 42 43  2  0
 44 45  2  0
 45 46  1  0
 46 47  2  0
 18 48  1  0
 47 48  1  0
 44 49  1  0
 48 49  2  0
 21 50  1  0
 50 51  1  0
 17 52  1  0
 51 52  2  0
 52 53  1  0
 29 54  1  0
 53 54  2  0
 15 55  1  0
 50 55  2  0
 54 55  1  0
 56 57  2  0
 23 58  1  0
 57 58  1  0
 57 59  1  0
 58 59  2  0
 59 60  1  0
 14 61  1  0
 56 61  1  0
 60 61  2  0
 22 63  1  0
 62 63  1  0
 64 65  1  0
 64 66  1  0
 19 67  1  0
 64 67  1  0
 21 68  1  0
M  END
