x0978-x1308-x3110-x1077
     RDKit          3D

 64 69  0  0  0  0  0  0  0  0999 V2000
    8.0780    1.3770   23.3870 N   0  0  0  0  0  0  0  0  0  0  0  0
   13.3700    5.2120   22.9170 C   0  0  0  0  0  0  0  0  0  0  0  0
   12.1000    3.4190   22.3670 O   0  0  0  0  0  0  0  0  0  0  0  0
   12.4620    4.5130   21.9330 C   0  0  0  0  0  0  0  0  0  0  0  0
    7.2040   -1.3720   21.8770 N   0  0  0  0  0  0  0  0  0  0  0  0
   11.0330    4.3290   24.1340 O   0  0  0  0  0  0  0  0  0  0  0  0
   11.2000    3.3380   23.4020 C   0  0  0  0  0  0  0  0  0  0  0  0
    8.7810    1.7000   21.0800 O   0  0  0  0  0  0  0  0  0  0  0  0
   10.3990    2.0200   23.6420 C   0  0  0  0  0  0  0  0  0  0  0  0
    8.9510    2.3850   23.7500 C   0  0  0  0  0  0  0  0  0  0  0  0
    7.9320    1.0300   22.0080 C   0  0  0  0  0  0  0  0  0  0  0  0
    6.8860    0.0040   21.6090 C   0  0  1  0  0  0  0  0  0  0  0  0
   12.4570   -1.8150   24.2450 C   0  0  0  0  0  0  0  0  0  0  0  0
   12.6200   -0.5750   25.0420 C   0  0  0  0  0  0  0  0  0  0  0  0
   13.4310   -1.9320   23.1230 C   0  0  0  0  0  0  0  0  0  0  0  0
   12.7870   -2.9720   25.1850 C   0  0  0  0  0  0  0  0  0  0  0  0
    2.0980   -5.5940   22.8290 N   0  0  0  0  0  0  0  0  0  0  0  0
    2.1510   -7.9790   24.9210 C   0  0  0  0  0  0  0  0  0  0  0  0
    4.2820   -7.9490   24.1170 O   0  0  0  0  0  0  0  0  0  0  0  0
    3.1320   -7.5540   23.8990 C   0  0  2  0  0  0  0  0  0  0  0  0
    0.6610   -7.5560   22.0510 O   0  0  0  0  0  0  0  0  0  0  0  0
    3.1400   -6.0550   23.6430 C   0  0  1  0  0  0  0  0  0  0  0  0
    3.9670   -4.0680   22.7580 O   0  0  0  0  0  0  0  0  0  0  0  0
    0.8300   -6.2370   22.5430 C   0  0  0  0  0  0  0  0  0  0  0  0
   -0.5140   -5.5250   22.6940 C   0  0  0  0  0  0  0  0  0  0  0  0
    7.0270   -5.2040   20.6100 C   0  0  0  0  0  0  0  0  0  0  0  0
    5.9890   -5.8390   20.0390 C   0  0  0  0  0  0  0  0  0  0  0  0
    6.0770   -2.1920   22.3780 C   0  0  0  0  0  0  0  0  0  0  0  0
    5.7840   -3.2770   21.5280 C   0  0  0  0  0  0  0  0  0  0  0  0
    0.6360   -0.9120   26.6840 Cl  0  0  0  0  0  0  0  0  0  0  0  0
    6.2970   -4.8190   26.1920 N   0  0  0  0  0  0  0  0  0  0  0  0
    4.5950   -6.3630   26.9120 O   0  0  0  0  0  0  0  0  0  0  0  0
    5.0290   -5.4870   25.8400 S   0  0  2  0  0  0  0  0  0  0  0  0
    6.3730    0.3910   17.7540 N   0  0  0  0  0  0  0  0  0  0  0  0
    5.2490    1.3110   17.7710 C   0  0  0  0  0  0  0  0  0  0  0  0
    4.6730    1.7680   18.9470 C   0  0  0  0  0  0  0  0  0  0  0  0
    5.1520    1.3770   20.2030 C   0  0  0  0  0  0  0  0  0  0  0  0
    6.3510    0.4100   20.2930 C   0  0  0  0  0  0  0  0  0  0  0  0
    6.8710   -0.0200   18.9310 C   0  0  0  0  0  0  0  0  0  0  0  0
    9.6140   -1.3130   21.7540 C   0  0  0  0  0  0  0  0  0  0  0  0
   10.9470   -1.4480   22.4170 C   0  0  0  0  0  0  0  0  0  0  0  0
   11.0550   -1.7460   23.7470 C   0  0  0  0  0  0  0  0  0  0  0  0
    9.9010   -1.9310   24.4880 C   0  0  0  0  0  0  0  0  0  0  0  0
    8.6280   -1.8160   23.8830 C   0  0  0  0  0  0  0  0  0  0  0  0
    8.4690   -1.5060   22.5130 C   0  0  0  0  0  0  0  0  0  0  0  0
    7.5470   -5.2090   25.5310 N   0  0  0  0  0  0  0  0  0  0  0  0
    7.6820   -5.5440   24.1760 C   0  0  2  0  0  0  0  0  0  0  0  0
    9.0070   -5.6560   23.9120 C   0  0  0  0  0  0  0  0  0  0  0  0
    9.9630   -4.9080   24.6700 C   0  0  0  0  0  0  0  0  0  0  0  0
    9.6000   -3.9280   25.6790 N   0  0  0  0  0  0  0  0  0  0  0  0
    9.2350   -4.6290   26.8560 C   0  0  0  0  0  0  0  0  0  0  0  0
    8.4980   -5.7140   26.5210 C   0  0  0  0  0  0  0  0  0  0  0  0
    6.4670   -4.6640   21.9090 C   0  0  2  0  0  0  0  0  0  0  0  0
    7.1670   -4.4200   23.1830 C   0  0  1  0  0  0  0  0  0  0  0  0
    6.2710   -3.8930   23.9960 C   0  0  0  0  0  0  0  0  0  0  0  0
    5.3080   -4.9660   24.3600 N   0  0  0  0  0  0  0  0  0  0  0  0
    4.4720   -5.3010   23.2620 C   0  0  1  0  0  0  0  0  0  0  0  0
    5.3420   -5.7560   22.2750 C   0  0  0  0  0  0  0  0  0  0  0  0
    4.1350   -2.9380   26.3530 C   0  0  0  0  0  0  0  0  0  0  0  0
    3.1640   -1.9600   26.5280 C   0  0  0  0  0  0  0  0  0  0  0  0
    1.7700   -2.1730   26.4540 C   0  0  0  0  0  0  0  0  0  0  0  0
    1.3060   -3.6130   26.1560 C   0  0  0  0  0  0  0  0  0  0  0  0
    2.3450   -4.7060   25.9620 C   0  0  0  0  0  0  0  0  0  0  0  0
    3.7770   -4.2590   26.0810 C   0  0  0  0  0  0  0  0  0  0  0  0
  2  4  1  0
  3  4  1  0
  3  7  1  0
  6  7  2  0
  7  9  1  0
  1 10  1  0
  9 10  1  0
  1 11  1  0
  8 11  2  0
  5 12  1  0
 12 11  1  6
 13 14  1  0
 13 15  1  0
 13 16  1  0
 20 18  1  1
 19 20  1  0
 22 17  1  6
 20 22  1  0
 17 24  1  0
 21 24  2  0
 24 25  1  0
 26 27  2  3
  5 28  1  0
 28 29  1  0
 31 33  2  0
 32 33  2  0
 34 35  2  0
 35 36  1  0
 36 37  2  0
 12 38  1  0
 37 38  1  0
 34 39  1  0
 38 39  2  0
 40 41  2  0
 13 42  1  0
 41 42  1  0
 42 43  2  0
 43 44  1  0
  5 45  1  0
 40 45  1  0
 44 45  2  0
 31 46  1  0
 46 47  1  0
 47 48  1  6
 48 49  1  0
 49 50  1  0
 50 51  1  0
 46 52  1  0
 51 52  1  0
 53 26  1  6
 29 53  1  0
 47 54  1  0
 53 54  1  0
 54 55  1  1
 33 56  1  0
 55 56  1  0
 22 57  1  0
 57 23  1  6
 56 57  1  0
 53 58  1  0
 57 58  1  0
 59 60  2  0
 30 61  1  0
 60 61  1  0
 61 62  2  0
 62 63  1  0
 33 64  1  1
 59 64  1  0
 63 64  2  0
M  END
