x0978-x3110-x0771-x0755
     RDKit          3D

 62 67  0  0  0  0  0  0  0  0999 V2000
    8.0380    1.2000   23.1680 N   0  0  0  0  0  0  0  0  0  0  0  0
   13.3580    5.1940   22.8790 C   0  0  0  0  0  0  0  0  0  0  0  0
   12.0720    3.1970   22.4940 O   0  0  0  0  0  0  0  0  0  0  0  0
   12.3450    4.4950   22.0000 C   0  0  0  0  0  0  0  0  0  0  0  0
    7.1830   -1.6540   21.7010 N   0  0  0  0  0  0  0  0  0  0  0  0
   10.9540    4.1160   24.0570 O   0  0  0  0  0  0  0  0  0  0  0  0
   11.1670    3.1150   23.3850 C   0  0  0  0  0  0  0  0  0  0  0  0
    8.6090    1.3860   20.9890 O   0  0  0  0  0  0  0  0  0  0  0  0
   10.3230    1.8610   23.6870 C   0  0  0  0  0  0  0  0  0  0  0  0
    8.8370    2.2720   23.5780 C   0  0  0  0  0  0  0  0  0  0  0  0
    7.8960    0.8420   21.8490 C   0  0  0  0  0  0  0  0  0  0  0  0
    6.8470   -0.1490   21.5770 C   0  0  1  0  0  0  0  0  0  0  0  0
   12.3980   -1.9310   24.2520 C   0  0  0  0  0  0  0  0  0  0  0  0
   12.6040   -0.5890   24.9310 C   0  0  0  0  0  0  0  0  0  0  0  0
   13.3590   -2.0540   23.0660 C   0  0  0  0  0  0  0  0  0  0  0  0
   12.8600   -3.0080   25.2450 C   0  0  0  0  0  0  0  0  0  0  0  0
    2.2500   -5.9750   22.9340 N   0  0  0  0  0  0  0  0  0  0  0  0
    2.0360   -8.2420   24.0310 C   0  0  0  0  0  0  0  0  0  0  0  0
    4.2880   -7.9510   24.8850 O   0  0  0  0  0  0  0  0  0  0  0  0
    3.1620   -7.2810   24.3670 C   0  0  0  0  0  0  0  0  0  0  0  0
    0.2520   -6.7400   21.6500 O   0  0  0  0  0  0  0  0  0  0  0  0
    3.5360   -6.3650   23.1900 C   0  0  2  0  0  0  0  0  0  0  0  0
    4.1030   -3.9300   23.5550 O   0  0  0  0  0  0  0  0  0  0  0  0
    0.9170   -5.9680   22.6440 C   0  0  0  0  0  0  0  0  0  0  0  0
   -0.1670   -5.1910   23.3370 C   0  0  0  0  0  0  0  0  0  0  0  0
    6.4910   -4.6050   20.2380 C   0  0  0  0  0  0  0  0  0  0  0  0
    5.8630   -5.7740   19.9670 C   0  0  0  0  0  0  0  0  0  0  0  0
    6.2390   -2.6350   22.0660 C   0  0  0  0  0  0  0  0  0  0  0  0
    4.6740   -6.6570   25.7170 O   0  0  0  0  0  0  0  0  0  0  0  0
    6.4290   -4.9980   26.3870 N   0  0  0  0  0  0  0  0  0  0  0  0
    5.2580   -5.3810   25.4800 S   0  0  2  0  0  0  0  0  0  0  0  0
    5.3930   -2.3730   26.2850 F   0  0  0  0  0  0  0  0  0  0  0  0
    6.3750    0.3260   17.8680 N   0  0  0  0  0  0  0  0  0  0  0  0
    5.2880    1.1220   17.8680 C   0  0  0  0  0  0  0  0  0  0  0  0
    4.6390    1.5400   19.0010 C   0  0  0  0  0  0  0  0  0  0  0  0
    5.1410    1.1220   20.2220 C   0  0  0  0  0  0  0  0  0  0  0  0
    6.2730    0.2980   20.2640 C   0  0  0  0  0  0  0  0  0  0  0  0
    6.8490   -0.0760   19.0640 C   0  0  0  0  0  0  0  0  0  0  0  0
    9.6250   -1.4000   21.7750 C   0  0  0  0  0  0  0  0  0  0  0  0
   10.8660   -1.4770   22.4010 C   0  0  0  0  0  0  0  0  0  0  0  0
   10.9970   -1.9330   23.7130 C   0  0  0  0  0  0  0  0  0  0  0  0
    9.8160   -2.3180   24.3610 C   0  0  0  0  0  0  0  0  0  0  0  0
    8.5620   -2.2380   23.7150 C   0  0  0  0  0  0  0  0  0  0  0  0
    8.4420   -1.7700   22.3920 C   0  0  0  0  0  0  0  0  0  0  0  0
    1.9570   -2.6380   25.7860 C   0  0  0  0  0  0  0  0  0  0  0  0
    1.4170   -3.7900   25.3990 C   0  0  0  0  0  0  0  0  0  0  0  0
    2.5130   -4.5190   25.3370 C   0  0  0  0  0  0  0  0  0  0  0  0
    3.9350   -4.1860   25.6060 C   0  0  0  0  0  0  0  0  0  0  0  0
    4.1410   -2.7810   26.0190 C   0  0  0  0  0  0  0  0  0  0  0  0
    3.1240   -1.8370   26.1570 C   0  0  0  0  0  0  0  0  0  0  0  0
    6.3370   -4.2330   21.7160 C   0  0  1  0  0  0  0  0  0  0  0  0
    5.3580   -5.1630   22.2740 C   0  0  2  0  0  0  0  0  0  0  0  0
    4.6700   -5.2320   23.3440 C   0  0  2  0  0  0  0  0  0  0  0  0
    5.8860   -5.5300   23.8740 C   0  0  2  0  0  0  0  0  0  0  0  0
    7.1280   -4.8810   23.8670 C   0  0  0  0  0  0  0  0  0  0  0  0
    7.5630   -4.5920   22.4500 C   0  0  0  0  0  0  0  0  0  0  0  0
    3.8950   -6.4650   27.4470 O   0  0  0  0  0  0  0  0  0  0  0  0
    6.0530   -4.6940   27.6510 N   0  0  0  0  0  0  0  0  0  0  0  0
    4.3990   -4.9870   27.9940 S   0  0  0  0  0  0  0  0  0  0  0  0
    2.4490   -6.3560   25.3960 C   0  0  0  0  0  0  0  0  0  0  0  0
    0.6330   -1.6630   26.4720 C   0  0  0  0  0  0  0  0  0  0  0  0
    1.9650   -0.8990   26.2760 C   0  0  0  0  0  0  0  0  0  0  0  0
  2  4  1  0
  3  4  1  0
  3  7  1  0
  6  7  2  0
  7  9  1  0
  1 10  1  0
  9 10  1  0
  1 11  1  0
  8 11  2  0
  5 12  1  0
 12 11  1  6
 13 14  1  0
 13 15  1  0
 13 16  1  0
 18 20  1  0
 20 19  1  0
 22 17  1  1
 20 22  1  0
 17 24  1  0
 21 24  2  0
 24 25  1  0
 26 27  2  3
  5 28  1  0
 29 31  2  0
 30 31  2  0
 33 34  2  0
 34 35  1  0
 35 36  2  0
 12 37  1  0
 36 37  1  0
 33 38  1  0
 37 38  2  0
 39 40  2  0
 13 41  1  0
 40 41  1  0
 41 42  2  0
 42 43  1  0
  5 44  1  0
 39 44  1  0
 43 44  2  0
 45 46  2  0
 45 47  1  0
 46 47  1  0
 31 48  1  6
 47 48  2  0
 32 49  1  0
 48 49  1  0
 45 50  1  0
 49 50  2  0
 51 26  1  6
 28 51  1  0
 52 51  1  1
 22 53  1  0
 53 23  1  1
 52 53  1  0
 31 54  1  0
 52 54  1  0
 53 54  1  0
 54 55  1  6
 51 56  1  0
 55 56  1  0
 30 58  1  0
 57 59  2  0
 58 59  2  0
 20 60  1  0
 50 62  1  0
 61 62  1  0
M  END
