x0978-x2776-x0820
     RDKit          3D

 54 59  0  0  0  0  0  0  0  0999 V2000
    1.7710   -5.6300   23.0160 N   0  0  0  0  0  0  0  0  0  0  0  0
    2.1040   -8.2300   24.5220 C   0  0  0  0  0  0  0  0  0  0  0  0
    4.4240   -7.9350   24.3250 O   0  0  0  0  0  0  0  0  0  0  0  0
    3.2110   -7.2050   24.3330 C   0  0  1  0  0  0  0  0  0  0  0  0
    4.8420   -4.9580   21.4550 N   0  0  0  0  0  0  0  0  0  0  0  0
    0.4990   -7.2400   21.8690 O   0  0  0  0  0  0  0  0  0  0  0  0
    3.1010   -6.3050   23.0260 C   0  0  2  0  0  0  0  0  0  0  0  0
    0.5490   -6.1590   22.4490 C   0  0  0  0  0  0  0  0  0  0  0  0
   -0.6130   -5.3160   22.6120 C   0  0  0  0  0  0  0  0  0  0  0  0
    4.3560   -5.3880   22.7990 C   0  0  0  0  0  0  0  0  0  0  0  0
    6.0350   -4.0540   21.3650 C   0  0  0  0  0  0  0  0  0  0  0  0
    6.4650   -3.7290   19.9200 C   0  0  0  0  0  0  0  0  0  0  0  0
    5.4510   -3.1840   19.0170 C   0  0  0  0  0  0  0  0  0  0  0  0
    7.8520   -2.5160   22.3020 C   0  0  1  0  0  0  0  0  0  0  0  0
    6.7030   -3.5760   22.5190 C   0  0  0  0  0  0  0  0  0  0  0  0
    7.8730    1.4370   22.5740 N   0  0  0  0  0  0  0  0  0  0  0  0
    9.7120    0.2020   21.7080 O   0  0  0  0  0  0  0  0  0  0  0  0
   10.6010    6.3220   24.0140 O   0  0  0  0  0  0  0  0  0  0  0  0
    7.6620   -1.0580   21.4700 C   0  0  2  0  0  0  0  0  0  0  0  0
    8.5130    0.2280   21.9410 C   0  0  0  0  0  0  0  0  0  0  0  0
   10.5220    1.5800   23.9250 C   0  0  0  0  0  0  0  0  0  0  0  0
   11.7330    6.2060   24.4960 C   0  0  0  0  0  0  0  0  0  0  0  0
   13.4740   -2.1140   24.4770 O   0  0  0  0  0  0  0  0  0  0  0  0
   12.7120   -1.1400   24.5360 C   0  0  1  0  0  0  0  0  0  0  0  0
   12.9520   -0.0350   23.7350 C   0  0  0  0  0  0  0  0  0  0  0  0
   13.4030   -2.9880   25.5860 C   0  0  0  0  0  0  0  0  0  0  0  0
    6.2220   -4.1920   23.8400 C   0  0  0  0  0  0  0  0  0  0  0  0
    6.8320   -4.0890   25.1360 C   0  0  0  0  0  0  0  0  0  0  0  0
    6.3160   -4.6190   26.2890 C   0  0  0  0  0  0  0  0  0  0  0  0
    5.1200   -5.3130   26.2640 C   0  0  0  0  0  0  0  0  0  0  0  0
    4.5420   -5.4980   25.0590 C   0  0  0  0  0  0  0  0  0  0  0  0
    5.0660   -5.0000   23.8810 C   0  0  0  0  0  0  0  0  0  0  0  0
    6.9740   -4.5440   27.6570 C   0  0  0  0  0  0  0  0  0  0  0  0
    8.1810   -3.9470   27.7490 C   0  0  0  0  0  0  0  0  0  0  0  0
    8.8080   -3.3760   26.5500 C   0  0  0  0  0  0  0  0  0  0  0  0
    8.0580   -3.4660   25.2840 C   0  0  0  0  0  0  0  0  0  0  0  0
    6.3450    0.1050   17.9730 N   0  0  0  0  0  0  0  0  0  0  0  0
    5.1790    0.6730   18.2680 C   0  0  0  0  0  0  0  0  0  0  0  0
    4.6140    0.7510   19.6850 C   0  0  0  0  0  0  0  0  0  0  0  0
    5.4250    0.1760   20.7000 C   0  0  0  0  0  0  0  0  0  0  0  0
    6.6680   -0.4360   20.4630 C   0  0  0  0  0  0  0  0  0  0  0  0
    7.0750   -0.4560   19.1300 C   0  0  0  0  0  0  0  0  0  0  0  0
    9.7910    2.8170   23.5560 C   0  0  0  0  0  0  0  0  0  0  0  0
   10.4320    4.0030   23.8930 C   0  0  0  0  0  0  0  0  0  0  0  0
    9.8660    5.2090   23.6150 C   0  0  0  0  0  0  0  0  0  0  0  0
    8.5140    5.2830   22.9120 C   0  0  0  0  0  0  0  0  0  0  0  0
    7.8580    3.9320   22.5640 C   0  0  0  0  0  0  0  0  0  0  0  0
    8.4690    2.7460   22.8770 C   0  0  0  0  0  0  0  0  0  0  0  0
   10.5580   -2.3160   21.8920 C   0  0  0  0  0  0  0  0  0  0  0  0
   11.6610   -1.9120   22.6880 C   0  0  0  0  0  0  0  0  0  0  0  0
   11.4160   -1.5290   23.9110 C   0  0  0  0  0  0  0  0  0  0  0  0
    9.9280   -1.5840   24.3030 C   0  0  0  0  0  0  0  0  0  0  0  0
    8.6780   -2.0160   23.4820 C   0  0  0  0  0  0  0  0  0  0  0  0
    9.2810   -2.3410   22.2840 C   0  0  0  0  0  0  0  0  0  0  0  0
  4  2  1  6
  3  4  1  0
  7  1  1  1
  4  7  1  0
  1  8  1  0
  6  8  2  0
  8  9  1  0
  5 10  2  0
  7 10  1  0
  5 11  1  0
 11 12  1  0
 12 13  2  3
 11 15  2  0
 14 15  1  1
 14 19  1  0
 16 20  1  0
 17 20  2  0
 19 20  1  1
 18 22  1  0
 23 24  1  0
 24 25  1  6
 23 26  1  0
 15 27  1  0
 27 28  1  0
 28 29  2  0
 29 30  1  0
 30 31  2  0
 10 32  1  0
 27 32  2  0
 31 32  1  0
 29 33  1  0
 33 34  2  0
 34 35  1  0
 28 36  1  0
 35 36  2  0
 37 38  2  0
 38 39  1  0
 39 40  2  0
 19 41  1  0
 40 41  1  0
 37 42  1  0
 41 42  2  0
 21 43  1  0
 43 44  2  0
 18 45  1  0
 44 45  1  0
 45 46  2  0
 46 47  1  0
 16 48  1  0
 43 48  1  0
 47 48  2  0
 49 50  2  0
 24 51  1  0
 50 51  1  0
 51 52  2  0
 14 53  1  0
 52 53  1  0
 49 54  1  0
 53 54  2  0
M  END
