x0978-x1478
     RDKit          3D

 20 21  0  0  0  0  0  0  0  0999 V2000
    1.9820   -6.3050   23.6080 N   0  0  0  0  0  0  0  0  0  0  0  0
    2.6610   -7.8210   25.1630 C   0  0  0  0  0  0  0  0  0  0  0  0
    4.6980   -7.7630   24.0440 O   0  0  0  0  0  0  0  0  0  0  0  0
    3.6800   -6.8940   24.5020 C   0  0  1  0  0  0  0  0  0  0  0  0
    4.7240   -5.3720   21.4900 N   0  0  0  0  0  0  0  0  0  0  0  0
    0.7130   -7.4440   21.6540 O   0  0  0  0  0  0  0  0  0  0  0  0
    3.0950   -6.1120   23.3070 C   0  0  2  0  0  0  0  0  0  0  0  0
    0.8740   -6.4510   22.6500 C   0  0  0  0  0  0  0  0  0  0  0  0
   -0.1820   -5.5480   22.7200 C   0  0  0  0  0  0  0  0  0  0  0  0
    4.2140   -5.2960   22.8450 C   0  0  0  0  0  0  0  0  0  0  0  0
    5.6490   -4.4600   21.2540 C   0  0  0  0  0  0  0  0  0  0  0  0
    6.2050   -4.2560   19.8460 C   0  0  0  0  0  0  0  0  0  0  0  0
    5.3120   -3.3280   19.0860 C   0  0  0  0  0  0  0  0  0  0  0  0
    7.6250   -2.2510   21.9800 N   0  0  0  0  0  0  0  0  0  0  0  0
    4.9550   -4.2980   23.4700 N   0  0  0  0  0  0  0  0  0  0  0  0
    5.8740   -3.7420   22.5720 C   0  0  0  0  0  0  0  0  0  0  0  0
    6.7160   -2.7170   22.9170 C   0  0  0  0  0  0  0  0  0  0  0  0
    6.6290   -2.1830   24.1910 C   0  0  0  0  0  0  0  0  0  0  0  0
    5.7230   -2.7130   25.0810 C   0  0  0  0  0  0  0  0  0  0  0  0
    4.9250   -3.7650   24.6950 C   0  0  0  0  0  0  0  0  0  0  0  0
  4  2  1  6
  3  4  1  0
  7  1  1  1
  4  7  1  0
  1  8  1  0
  6  8  2  0
  8  9  1  0
  5 10  2  0
  7 10  1  0
  5 11  1  0
 11 12  1  0
 12 13  2  3
 10 15  1  0
 11 16  2  0
 15 16  1  0
 14 17  1  0
 16 17  1  0
 17 18  2  0
 18 19  1  0
 15 20  1  0
 19 20  2  0
M  END
