x0978-x2572
     RDKit          3D

 36 37  0  0  0  0  0  0  0  0999 V2000
    1.9710   -5.6580   23.2160 N   0  0  0  0  0  0  0  0  0  0  0  0
    2.1640   -8.0730   24.6470 C   0  0  0  0  0  0  0  0  0  0  0  0
    4.4790   -7.8240   24.3390 O   0  0  0  0  0  0  0  0  0  0  0  0
    3.4250   -7.2380   24.4660 C   0  0  1  0  0  0  0  0  0  0  0  0
    5.5590   -5.6560   22.2500 N   0  0  0  0  0  0  0  0  0  0  0  0
    0.7440   -7.4320   21.8340 O   0  0  0  0  0  0  0  0  0  0  0  0
    3.2580   -6.3650   23.2120 C   0  0  2  0  0  0  0  0  0  0  0  0
    4.2720   -4.1990   23.6060 O   0  0  0  0  0  0  0  0  0  0  0  0
    0.7650   -6.2150   22.5690 C   0  0  0  0  0  0  0  0  0  0  0  0
   -0.3730   -5.4020   22.7610 C   0  0  0  0  0  0  0  0  0  0  0  0
    4.3770   -5.2940   23.0680 C   0  0  0  0  0  0  0  0  0  0  0  0
    6.4090   -4.6920   21.7690 C   0  0  1  0  0  0  0  0  0  0  0  0
    6.5150   -4.9030   20.2610 C   0  0  0  0  0  0  0  0  0  0  0  0
    5.7270   -6.1220   19.8560 C   0  0  0  0  0  0  0  0  0  0  0  0
    4.5600    1.6380   21.5900 C   0  0  0  0  0  0  0  0  0  0  0  0
    8.7870    1.2020   21.2210 O   0  0  0  0  0  0  0  0  0  0  0  0
    6.9130   -0.0620   21.4150 N   0  0  0  0  0  0  0  0  0  0  0  0
   13.6170   -3.3200   20.6360 N   0  0  0  0  0  0  0  0  0  0  0  0
    8.1570    0.2670   21.7620 C   0  0  0  0  0  0  0  0  0  0  0  0
    8.7550   -0.4700   22.7800 C   0  0  0  0  0  0  0  0  0  0  0  0
   13.0140   -2.2570   21.4140 C   0  0  0  0  0  0  0  0  0  0  0  0
    5.8370   -3.2990   22.0820 C   0  0  0  0  0  0  0  0  0  0  0  0
    6.5730   -2.3160   21.4480 C   0  0  0  0  0  0  0  0  0  0  0  0
    6.3150   -1.0970   22.0140 C   0  0  0  0  0  0  0  0  0  0  0  0
    6.4330    0.4730   17.7590 N   0  0  0  0  0  0  0  0  0  0  0  0
    6.9550    0.0210   18.9060 C   0  0  0  0  0  0  0  0  0  0  0  0
    6.3740    0.3850   20.2850 C   0  0  0  0  0  0  0  0  0  0  0  0
    5.1520    1.2770   20.2560 C   0  0  0  0  0  0  0  0  0  0  0  0
    4.6120    1.7350   19.0660 C   0  0  0  0  0  0  0  0  0  0  0  0
    5.2400    1.3430   17.8700 C   0  0  0  0  0  0  0  0  0  0  0  0
   10.9750    0.6360   23.4610 C   0  0  0  0  0  0  0  0  0  0  0  0
   12.3360    0.9350   23.6080 C   0  0  0  0  0  0  0  0  0  0  0  0
   12.9020   -0.2410   22.7930 C   0  0  0  0  0  0  0  0  0  0  0  0
   12.3000   -1.2740   22.1190 C   0  0  0  0  0  0  0  0  0  0  0  0
   10.9650   -1.3590   22.1130 C   0  0  0  0  0  0  0  0  0  0  0  0
   10.2330   -0.4240   22.7700 C   0  0  0  0  0  0  0  0  0  0  0  0
  4  2  1  6
  3  4  1  0
  7  1  1  1
  4  7  1  0
  1  9  1  0
  6  9  2  0
  9 10  1  0
  5 11  1  0
  7 11  1  0
  8 11  2  0
  5 12  1  0
 12 13  1  6
 13 14  2  3
 16 19  2  0
 17 19  1  0
 19 20  1  0
 18 21  3  0
 12 22  1  0
 22 23  1  0
 17 24  1  0
 23 24  1  0
 25 26  2  0
 17 27  1  0
 26 27  1  0
 15 28  1  0
 27 28  2  0
 28 29  1  0
 25 30  1  0
 29 30  2  0
 31 32  2  0
 32 33  1  0
 21 34  1  0
 33 34  2  0
 34 35  1  0
 20 36  1  0
 31 36  1  0
 35 36  2  0
M  END
