x0978-x2776-x3117-x2754-x2705
     RDKit          3D

 79 86  0  0  0  0  0  0  0  0999 V2000
    2.3620   -5.7490   23.0850 N   0  0  0  0  0  0  0  0  0  0  0  0
    3.1500   -7.5630   25.4240 C   0  0  0  0  0  0  0  0  0  0  0  0
    4.7990   -8.0440   24.0850 O   0  0  0  0  0  0  0  0  0  0  0  0
    4.0980   -7.1090   24.3930 C   0  0  1  0  0  0  0  0  0  0  0  0
    5.9290   -5.7850   22.0050 N   0  0  0  0  0  0  0  0  0  0  0  0
    1.0250   -7.5710   22.2580 O   0  0  0  0  0  0  0  0  0  0  0  0
    3.5990   -6.5260   23.1690 C   0  0  2  0  0  0  0  0  0  0  0  0
    1.0650   -6.4190   22.6970 C   0  0  0  0  0  0  0  0  0  0  0  0
   -0.1720   -5.6270   22.8650 C   0  0  0  0  0  0  0  0  0  0  0  0
    4.6920   -5.6020   22.5720 C   0  0  0  0  0  0  0  0  0  0  0  0
    6.3530   -4.1320   20.1800 C   0  0  0  0  0  0  0  0  0  0  0  0
    5.4880   -3.5800   19.5510 C   0  0  0  0  0  0  0  0  0  0  0  0
    6.6110   -0.9370   22.1950 N   0  0  0  0  0  0  0  0  0  0  0  0
    7.4330    2.1940   21.9850 N   0  0  0  0  0  0  0  0  0  0  0  0
    7.1660    1.7870   24.1900 O   0  0  0  0  0  0  0  0  0  0  0  0
   10.9670    6.0480   23.5420 O   0  0  0  0  0  0  0  0  0  0  0  0
    5.9470    0.3070   22.7520 C   0  0  2  0  0  0  0  0  0  0  0  0
   12.5840   -2.9450   23.2010 N   0  0  0  0  0  0  0  0  0  0  0  0
    6.8840    1.4600   23.0400 C   0  0  0  0  0  0  0  0  0  0  0  0
    9.8250    1.4880   22.9760 C   0  0  0  0  0  0  0  0  0  0  0  0
   12.3270    5.6740   23.8110 C   0  0  0  0  0  0  0  0  0  0  0  0
   12.0980   -1.7610   23.7000 C   0  0  1  0  0  0  0  0  0  0  0  0
   13.0110   -0.5440   23.4600 C   0  0  0  0  0  0  0  0  0  0  0  0
   13.8160   -2.9970   23.6900 C   0  0  0  0  0  0  0  0  0  0  0  0
    6.1820   -1.6400   24.2470 N   0  0  0  0  0  0  0  0  0  0  0  0
    6.9520   -0.1680   26.2140 N   0  0  0  0  0  0  0  0  0  0  0  0
    5.4750    1.5530   25.6320 O   0  0  0  0  0  0  0  0  0  0  0  0
    5.5540   -0.2700   24.2130 C   0  0  1  0  0  0  0  0  0  0  0  0
    5.9600    0.4500   25.3610 C   0  0  0  0  0  0  0  0  0  0  0  0
   10.9490    2.2750   23.5220 C   0  0  0  0  0  0  0  0  0  0  0  0
    9.9160    1.6530   24.3480 C   0  0  0  0  0  0  0  0  0  0  0  0
    6.6220    5.2130   21.6630 C   0  0  0  0  0  0  0  0  0  0  0  0
    7.4720   -0.9050   18.8970 N   0  0  0  0  0  0  0  0  0  0  0  0
    6.7450    2.1970   20.6850 N   0  0  0  0  0  0  0  0  0  0  0  0
    6.7070    1.1620   18.2310 O   0  0  0  0  0  0  0  0  0  0  0  0
    7.2810   -0.1430   20.0710 C   0  0  0  0  0  0  0  0  0  0  0  0
    6.9030    1.1210   19.6620 C   0  0  0  0  0  0  0  0  0  0  0  0
    3.6980   -3.3790   24.3930 C   0  0  0  0  0  0  0  0  0  0  0  0
    2.8050   -4.2000   24.6380 O   0  0  0  0  0  0  0  0  0  0  0  0
    4.3410   -2.6550   25.4340 N   0  0  0  0  0  0  0  0  0  0  0  0
    3.7310   -1.6090   25.9940 C   0  0  0  0  0  0  0  0  0  0  0  0
    3.7480    0.7660   19.6090 N   0  0  0  0  0  0  0  0  0  0  0  0
    3.1280    1.9220   19.8580 C   0  0  0  0  0  0  0  0  0  0  0  0
    3.3150    2.6520   21.0010 C   0  0  0  0  0  0  0  0  0  0  0  0
    4.2120    2.1070   21.9010 C   0  0  0  0  0  0  0  0  0  0  0  0
    4.9110    0.9130   21.7330 C   0  0  0  0  0  0  0  0  0  0  0  0
    4.6110    0.3030   20.5430 C   0  0  0  0  0  0  0  0  0  0  0  0
    9.6160    2.9590   22.9200 C   0  0  0  0  0  0  0  0  0  0  0  0
   10.6400    3.7630   23.3910 C   0  0  0  0  0  0  0  0  0  0  0  0
   10.0730    5.0760   23.1470 C   0  0  0  0  0  0  0  0  0  0  0  0
    8.8510    5.5190   22.6190 C   0  0  0  0  0  0  0  0  0  0  0  0
    7.9060    4.6310   22.2010 C   0  0  0  0  0  0  0  0  0  0  0  0
    8.2690    3.3350   22.3370 C   0  0  0  0  0  0  0  0  0  0  0  0
    8.9260   -1.5910   21.6080 C   0  0  0  0  0  0  0  0  0  0  0  0
   10.1450   -1.7100   22.2010 C   0  0  0  0  0  0  0  0  0  0  0  0
   10.7460   -1.5540   23.2510 C   0  0  0  0  0  0  0  0  0  0  0  0
    9.7700   -1.1460   23.8460 C   0  0  0  0  0  0  0  0  0  0  0  0
    8.5130   -0.9220   23.6000 C   0  0  0  0  0  0  0  0  0  0  0  0
    7.9700   -1.1470   22.4100 C   0  0  0  0  0  0  0  0  0  0  0  0
    6.6920   -3.3260   22.6260 N   0  0  0  0  0  0  0  0  0  0  0  0
    6.0110   -1.9810   22.8490 C   0  0  2  0  0  0  0  0  0  0  0  0
    4.6680   -1.9680   22.7220 C   0  0  0  0  0  0  0  0  0  0  0  0
    4.0650   -3.1540   22.9100 C   0  0  1  0  0  0  0  0  0  0  0  0
    4.8390   -4.3430   22.4660 C   0  0  0  0  0  0  0  0  0  0  0  0
    6.0860   -4.3300   21.7310 C   0  0  2  0  0  0  0  0  0  0  0  0
    5.2280   -3.0010   27.8290 C   0  0  0  0  0  0  0  0  0  0  0  0
    6.2030   -3.6480   28.6070 C   0  0  0  0  0  0  0  0  0  0  0  0
    7.1750   -4.4740   28.1150 C   0  0  0  0  0  0  0  0  0  0  0  0
    7.3600   -4.8270   26.6630 C   0  0  0  0  0  0  0  0  0  0  0  0
    6.3810   -4.2070   25.6780 C   0  0  0  0  0  0  0  0  0  0  0  0
    5.3260   -3.2990   26.2940 C   0  0  0  0  0  0  0  0  0  0  0  0
   11.9870   -2.0140   25.1540 C   0  0  0  0  0  0  0  0  0  0  0  0
   11.7130   -0.6060   25.4800 C   0  0  0  0  0  0  0  0  0  0  0  0
   13.3570   -2.5340   25.7030 C   0  0  0  0  0  0  0  0  0  0  0  0
   10.7960   -2.9650   25.4700 C   0  0  0  0  0  0  0  0  0  0  0  0
   12.3340   -1.5580   21.3850 C   0  0  0  0  0  0  0  0  0  0  0  0
   12.1220   -0.5340   22.3130 C   0  0  0  0  0  0  0  0  0  0  0  0
   12.4580   -2.8750   21.8530 C   0  0  0  0  0  0  0  0  0  0  0  0
   13.6730   -1.4650   20.8400 C   0  0  0  0  0  0  0  0  0  0  0  0
  4  2  1  1
  3  4  1  0
  7  1  1  1
  4  7  1  0
  1  8  1  0
  6  8  2  0
  8  9  1  0
  5 10  1  0
  7 10  1  0
 11 12  2  3
 13 17  1  0
 14 19  1  0
 15 19  2  0
 17 19  1  1
 16 21  1  0
 22 18  1  0
 22 23  1  1
 18 24  1  0
 17 28  1  0
 25 28  1  0
 26 29  1  0
 27 29  2  0
 28 29  1  1
 30 31  1  0
 14 34  1  0
 33 36  1  0
 34 37  1  0
 35 37  2  0
 36 37  1  0
 38 39  2  0
 38 40  1  0
 40 41  1  0
 42 43  2  0
 43 44  1  0
 44 45  2  0
 17 46  1  0
 45 46  1  0
 42 47  1  0
 46 47  2  0
 20 48  1  0
 30 49  1  0
 48 49  2  0
 16 50  1  0
 49 50  1  0
 50 51  2  0
 32 52  1  0
 51 52  1  0
 14 53  1  0
 48 53  1  0
 52 53  2  0
 54 55  2  0
 22 56  1  0
 55 56  1  0
 55 57  1  0
 56 57  2  0
 57 58  1  0
 13 59  1  0
 54 59  1  0
 58 59  2  0
 61 13  1  0
 25 61  1  0
 60 61  1  0
 61 62  1  6
 63 38  1  1
 62 63  1  0
 10 64  2  0
 63 64  1  0
  5 65  1  0
 65 11  1  6
 60 65  1  0
 64 65  1  0
 66 67  2  0
 67 68  1  0
 68 69  2  0
 69 70  1  0
 40 71  1  0
 66 71  1  0
 70 71  2  0
 22 72  1  0
 72 73  1  0
 72 74  1  0
 72 75  1  0
 76 77  1  0
 18 78  1  0
 76 78  1  0
 76 79  1  0
M  END
