x0978-x2754-x3110
     RDKit          3D

 56 60  0  0  0  0  0  0  0  0999 V2000
    8.0260    1.5210   23.2420 N   0  0  0  0  0  0  0  0  0  0  0  0
   13.2880    5.5010   21.9240 C   0  0  0  0  0  0  0  0  0  0  0  0
   11.9130    3.5600   22.3720 O   0  0  0  0  0  0  0  0  0  0  0  0
   13.1080    4.2330   22.7020 C   0  0  0  0  0  0  0  0  0  0  0  0
    7.3110   -1.2570   21.9220 N   0  0  0  0  0  0  0  0  0  0  0  0
   10.9910    4.2990   24.1300 O   0  0  0  0  0  0  0  0  0  0  0  0
   11.1310    3.3690   23.3520 C   0  0  0  0  0  0  0  0  0  0  0  0
    8.7130    1.6590   21.0770 O   0  0  0  0  0  0  0  0  0  0  0  0
   10.3450    2.0840   23.6430 C   0  0  0  0  0  0  0  0  0  0  0  0
    8.8680    2.5200   23.7070 C   0  0  0  0  0  0  0  0  0  0  0  0
    7.9570    1.1620   21.9240 C   0  0  0  0  0  0  0  0  0  0  0  0
    6.9310    0.1850   21.6460 C   0  0  1  0  0  0  0  0  0  0  0  0
   12.4870   -1.8840   24.2650 C   0  0  0  0  0  0  0  0  0  0  0  0
   12.7240   -0.6010   25.0190 C   0  0  0  0  0  0  0  0  0  0  0  0
   13.4680   -2.0290   23.1130 C   0  0  0  0  0  0  0  0  0  0  0  0
   12.8220   -3.0430   25.2030 C   0  0  0  0  0  0  0  0  0  0  0  0
    2.0120   -6.1780   23.0300 N   0  0  0  0  0  0  0  0  0  0  0  0
    2.1150   -7.7950   25.0710 C   0  0  0  0  0  0  0  0  0  0  0  0
    4.4830   -7.9520   24.5880 O   0  0  0  0  0  0  0  0  0  0  0  0
    3.3900   -7.0730   24.6470 C   0  0  1  0  0  0  0  0  0  0  0  0
    4.9330   -5.3170   21.3850 N   0  0  0  0  0  0  0  0  0  0  0  0
    0.0670   -6.9080   21.6710 O   0  0  0  0  0  0  0  0  0  0  0  0
    3.3090   -6.5010   23.2480 C   0  0  2  0  0  0  0  0  0  0  0  0
    0.7160   -6.1130   22.6580 C   0  0  0  0  0  0  0  0  0  0  0  0
   -0.3270   -5.2030   23.2430 C   0  0  0  0  0  0  0  0  0  0  0  0
    4.4430   -5.6100   22.7100 C   0  0  0  0  0  0  0  0  0  0  0  0
    6.7730   -5.0420   20.4720 C   0  0  0  0  0  0  0  0  0  0  0  0
    6.0010   -5.9660   19.9350 C   0  0  0  0  0  0  0  0  0  0  0  0
    5.0600   -3.5030   25.1340 C   0  0  0  0  0  0  0  0  0  0  0  0
    3.8900   -3.2250   24.8410 O   0  0  0  0  0  0  0  0  0  0  0  0
    5.5550   -3.3160   26.4290 N   0  0  0  0  0  0  0  0  0  0  0  0
    5.0910   -2.2980   27.1870 C   0  0  0  0  0  0  0  0  0  0  0  0
    6.3400    0.2820   17.8630 N   0  0  0  0  0  0  0  0  0  0  0  0
    5.2680    1.0990   17.8540 C   0  0  0  0  0  0  0  0  0  0  0  0
    4.6710    1.6430   18.9880 C   0  0  0  0  0  0  0  0  0  0  0  0
    5.2060    1.3410   20.2330 C   0  0  0  0  0  0  0  0  0  0  0  0
    6.3100    0.5090   20.2510 C   0  0  0  0  0  0  0  0  0  0  0  0
    6.8400    0.0020   19.0720 C   0  0  0  0  0  0  0  0  0  0  0  0
    9.6360   -1.9880   21.8120 C   0  0  0  0  0  0  0  0  0  0  0  0
   10.8780   -2.1300   22.4010 C   0  0  0  0  0  0  0  0  0  0  0  0
   11.0930   -1.7340   23.7180 C   0  0  0  0  0  0  0  0  0  0  0  0
   10.0650   -1.1950   24.4850 C   0  0  0  0  0  0  0  0  0  0  0  0
    8.7900   -1.0160   23.9510 C   0  0  0  0  0  0  0  0  0  0  0  0
    8.5740   -1.4370   22.5080 C   0  0  0  0  0  0  0  0  0  0  0  0
    5.7240   -3.0040   21.4600 N   0  0  0  0  0  0  0  0  0  0  0  0
    6.4050   -2.1690   22.4680 C   0  0  1  0  0  0  0  0  0  0  0  0
    7.0300   -2.9950   23.6100 C   0  0  0  0  0  0  0  0  0  0  0  0
    6.0730   -4.0740   24.1030 C   0  0  2  0  0  0  0  0  0  0  0  0
    5.5190   -4.6870   22.9740 C   0  0  0  0  0  0  0  0  0  0  0  0
    6.0480   -4.3850   21.6740 C   0  0  1  0  0  0  0  0  0  0  0  0
    7.1210   -4.8370   27.5740 C   0  0  0  0  0  0  0  0  0  0  0  0
    8.4110   -5.3020   27.8430 C   0  0  0  0  0  0  0  0  0  0  0  0
    9.5110   -4.7020   27.2490 C   0  0  0  0  0  0  0  0  0  0  0  0
    9.4600   -3.6370   26.3730 C   0  0  0  0  0  0  0  0  0  0  0  0
    8.0750   -3.0420   26.0130 C   0  0  0  0  0  0  0  0  0  0  0  0
    6.8700   -3.7490   26.6980 C   0  0  0  0  0  0  0  0  0  0  0  0
  2  4  1  0
  3  4  1  0
  3  7  1  0
  6  7  2  0
  7  9  1  0
  1 10  1  0
  9 10  1  0
  1 11  1  0
  8 11  2  0
  5 12  1  0
 12 11  1  6
 13 14  1  0
 13 15  1  0
 13 16  1  0
 20 18  1  6
 19 20  1  0
 23 17  1  1
 20 23  1  0
 17 24  1  0
 22 24  2  0
 24 25  1  0
 21 26  1  0
 23 26  1  0
 27 28  2  3
 29 30  2  0
 29 31  1  0
 31 32  1  0
 33 34  2  0
 34 35  1  0
 35 36  2  0
 12 37  1  0
 36 37  1  0
 33 38  1  0
 37 38  2  0
 39 40  2  0
 13 41  1  0
 40 41  1  0
 41 42  2  0
 42 43  1  0
  5 44  1  0
 39 44  1  0
 43 44  2  0
 46  5  1  6
 45 46  1  0
 46 47  1  0
 48 29  1  1
 47 48  1  0
 26 49  2  0
 48 49  1  0
 21 50  1  0
 50 27  1  1
 45 50  1  0
 49 50  1  0
 51 52  2  0
 52 53  1  0
 53 54  2  0
 54 55  1  0
 31 56  1  0
 51 56  1  0
 55 56  2  0
M  END
