x0978-x3113-x3110-x0691
     RDKit          3D

 57 60  0  0  0  0  0  0  0  0999 V2000
    8.1150    1.3360   23.3630 N   0  0  0  0  0  0  0  0  0  0  0  0
   13.3830    5.2160   22.9410 C   0  0  0  0  0  0  0  0  0  0  0  0
   12.0480    3.3010   22.3840 O   0  0  0  0  0  0  0  0  0  0  0  0
   12.5110    4.5600   21.8920 C   0  0  0  0  0  0  0  0  0  0  0  0
    7.1240   -1.4640   22.0120 N   0  0  0  0  0  0  0  0  0  0  0  0
   11.0210    4.3580   24.1240 O   0  0  0  0  0  0  0  0  0  0  0  0
   11.1820    3.3780   23.4190 C   0  0  0  0  0  0  0  0  0  0  0  0
    8.6430    1.4800   21.0630 O   0  0  0  0  0  0  0  0  0  0  0  0
   10.4050    2.0420   23.5910 C   0  0  0  0  0  0  0  0  0  0  0  0
    8.9420    2.3590   23.7670 C   0  0  0  0  0  0  0  0  0  0  0  0
    7.9350    0.9830   21.9480 C   0  0  0  0  0  0  0  0  0  0  0  0
    6.7780   -0.0130   21.7390 C   0  0  1  0  0  0  0  0  0  0  0  0
   12.4230   -1.7700   24.0700 C   0  0  0  0  0  0  0  0  0  0  0  0
   12.6490   -0.5340   24.8900 C   0  0  0  0  0  0  0  0  0  0  0  0
   13.4350   -1.9160   22.9280 C   0  0  0  0  0  0  0  0  0  0  0  0
   12.7010   -2.9720   24.9740 C   0  0  0  0  0  0  0  0  0  0  0  0
    2.0530   -5.3750   23.1430 N   0  0  0  0  0  0  0  0  0  0  0  0
    2.2020   -7.8180   24.7510 C   0  0  0  0  0  0  0  0  0  0  0  0
    4.3680   -7.9120   24.1340 O   0  0  0  0  0  0  0  0  0  0  0  0
    3.0980   -7.3500   23.7980 C   0  0  2  0  0  0  0  0  0  0  0  0
    1.1080   -7.3150   22.1560 O   0  0  0  0  0  0  0  0  0  0  0  0
    3.1310   -5.9650   23.6880 C   0  0  1  0  0  0  0  0  0  0  0  0
    4.1260   -4.0120   22.7930 O   0  0  0  0  0  0  0  0  0  0  0  0
    1.0310   -6.1920   22.6390 C   0  0  0  0  0  0  0  0  0  0  0  0
   -0.2100   -5.5590   22.7140 C   0  0  0  0  0  0  0  0  0  0  0  0
    6.5960   -5.0370   20.3290 C   0  0  0  0  0  0  0  0  0  0  0  0
    5.8220   -6.1860   19.7690 C   0  0  0  0  0  0  0  0  0  0  0  0
    6.2700   -2.4230   22.6830 C   0  0  0  0  0  0  0  0  0  0  0  0
    5.6390   -3.2950   21.7560 C   0  0  0  0  0  0  0  0  0  0  0  0
    4.2170   -6.8410   26.0000 O   0  0  0  0  0  0  0  0  0  0  0  0
    5.7250   -4.8820   26.9210 O   0  0  0  0  0  0  0  0  0  0  0  0
    3.1000   -0.3970   25.9370 F   0  0  0  0  0  0  0  0  0  0  0  0
    4.7950   -5.3710   25.9310 S   0  0  0  0  0  0  0  0  0  0  0  0
    6.3870    0.2240   17.9360 N   0  0  0  0  0  0  0  0  0  0  0  0
    5.3170    1.0570   17.8940 C   0  0  0  0  0  0  0  0  0  0  0  0
    4.6720    1.5630   18.9970 C   0  0  0  0  0  0  0  0  0  0  0  0
    5.1620    1.1970   20.2270 C   0  0  0  0  0  0  0  0  0  0  0  0
    6.2650    0.3470   20.3530 C   0  0  0  0  0  0  0  0  0  0  0  0
    6.8660   -0.1360   19.1550 C   0  0  0  0  0  0  0  0  0  0  0  0
    9.5570   -1.4390   21.6970 C   0  0  0  0  0  0  0  0  0  0  0  0
   10.8740   -1.5200   22.1680 C   0  0  0  0  0  0  0  0  0  0  0  0
   11.0350   -1.7080   23.5320 C   0  0  0  0  0  0  0  0  0  0  0  0
    9.9340   -1.8130   24.3440 C   0  0  0  0  0  0  0  0  0  0  0  0
    8.6450   -1.7360   23.8250 C   0  0  0  0  0  0  0  0  0  0  0  0
    8.4440   -1.5480   22.5090 C   0  0  0  0  0  0  0  0  0  0  0  0
    2.7390   -1.6830   25.9060 C   0  0  0  0  0  0  0  0  0  0  0  0
    3.7680   -2.8010   25.9280 C   0  0  0  0  0  0  0  0  0  0  0  0
    3.4870   -4.2970   25.8990 C   0  0  0  0  0  0  0  0  0  0  0  0
    2.1140   -4.5860   25.8450 C   0  0  0  0  0  0  0  0  0  0  0  0
    1.0690   -3.4360   25.8210 C   0  0  0  0  0  0  0  0  0  0  0  0
    1.3950   -2.0720   25.8520 C   0  0  0  0  0  0  0  0  0  0  0  0
    6.1930   -4.7450   21.7750 C   0  0  1  0  0  0  0  0  0  0  0  0
    5.3030   -6.0030   22.2020 C   0  0  0  0  0  0  0  0  0  0  0  0
    4.5030   -5.2550   23.1960 C   0  0  2  0  0  0  0  0  0  0  0  0
    5.3890   -5.0920   24.3670 N   0  0  0  0  0  0  0  0  0  0  0  0
    6.8360   -4.8280   24.2240 C   0  0  0  0  0  0  0  0  0  0  0  0
    7.3230   -4.8470   22.8180 C   0  0  0  0  0  0  0  0  0  0  0  0
  2  4  1  0
  3  4  1  0
  3  7  1  0
  6  7  2  0
  7  9  1  0
  1 10  1  0
  9 10  1  0
  1 11  1  0
  8 11  2  0
  5 12  1  0
 12 11  1  6
 13 14  1  0
 13 15  1  0
 13 16  1  0
 20 18  1  1
 19 20  1  0
 22 17  1  6
 20 22  1  0
 17 24  1  0
 21 24  2  0
 24 25  1  0
 26 27  2  3
  5 28  1  0
 28 29  1  0
 30 33  2  0
 31 33  2  0
 34 35  2  0
 35 36  1  0
 36 37  2  0
 12 38  1  0
 37 38  1  0
 34 39  1  0
 38 39  2  0
 40 41  2  0
 13 42  1  0
 41 42  1  0
 42 43  2  0
 43 44  1  0
  5 45  1  0
 40 45  1  0
 44 45  2  0
 32 46  1  0
 46 47  2  0
 33 48  1  0
 47 48  1  0
 48 49  2  0
 49 50  1  0
 46 51  1  0
 50 51  2  0
 52 26  1  6
 29 52  1  0
 52 53  1  0
 22 54  1  0
 54 23  1  6
 53 54  1  0
 33 55  1  0
 54 55  1  0
 55 56  1  0
 52 57  1  0
 56 57  1  0
M  END
