x0978-x3117
     RDKit          3D

 43 45  0  0  0  0  0  0  0  0999 V2000
    2.0040   -5.6170   23.1680 N   0  0  0  0  0  0  0  0  0  0  0  0
    2.1700   -8.0820   24.5680 C   0  0  0  0  0  0  0  0  0  0  0  0
    4.4710   -7.6430   24.6510 O   0  0  0  0  0  0  0  0  0  0  0  0
    3.3680   -7.1420   24.5520 C   0  0  1  0  0  0  0  0  0  0  0  0
    5.5270   -5.4520   22.2200 N   0  0  0  0  0  0  0  0  0  0  0  0
    0.8040   -7.4600   21.8430 O   0  0  0  0  0  0  0  0  0  0  0  0
    3.3010   -6.3040   23.2560 C   0  0  2  0  0  0  0  0  0  0  0  0
    4.3330   -4.1610   23.7920 O   0  0  0  0  0  0  0  0  0  0  0  0
    0.8050   -6.2270   22.5540 C   0  0  0  0  0  0  0  0  0  0  0  0
   -0.3560   -5.4440   22.7460 C   0  0  0  0  0  0  0  0  0  0  0  0
    4.4010   -5.1970   23.1480 C   0  0  0  0  0  0  0  0  0  0  0  0
    6.2820   -4.4250   21.6930 C   0  0  1  0  0  0  0  0  0  0  0  0
    6.5430   -4.8380   20.2720 C   0  0  0  0  0  0  0  0  0  0  0  0
    5.7850   -6.0810   19.8690 C   0  0  0  0  0  0  0  0  0  0  0  0
    7.3300   -1.2390   21.7860 N   0  0  0  0  0  0  0  0  0  0  0  0
    7.7680    1.9030   23.1500 N   0  0  0  0  0  0  0  0  0  0  0  0
    8.7920    1.2420   21.0430 O   0  0  0  0  0  0  0  0  0  0  0  0
    6.9060    0.0650   21.7320 C   0  0  1  0  0  0  0  0  0  0  0  0
    7.9160    1.0660   21.8910 C   0  0  0  0  0  0  0  0  0  0  0  0
   12.1190   -1.8630   24.7140 C   0  0  0  0  0  0  0  0  0  0  0  0
   12.8020   -0.6920   24.8700 C   0  0  0  0  0  0  0  0  0  0  0  0
   13.3020   -1.2810   23.6620 C   0  0  0  0  0  0  0  0  0  0  0  0
   12.5780   -3.1250   25.0160 C   0  0  0  0  0  0  0  0  0  0  0  0
    5.6570   -3.0100   21.7030 C   0  0  0  0  0  0  0  0  0  0  0  0
    6.4150   -2.0580   22.3960 C   0  0  0  0  0  0  0  0  0  0  0  0
    6.3600    0.2010   18.0660 N   0  0  0  0  0  0  0  0  0  0  0  0
    5.1470    1.0300   17.8620 C   0  0  0  0  0  0  0  0  0  0  0  0
    4.4910    1.5450   19.1180 C   0  0  0  0  0  0  0  0  0  0  0  0
    5.0090    1.2580   20.3560 C   0  0  0  0  0  0  0  0  0  0  0  0
    6.1710    0.4740   20.5010 C   0  0  0  0  0  0  0  0  0  0  0  0
    6.7860   -0.0210   19.3170 C   0  0  0  0  0  0  0  0  0  0  0  0
    9.8450    5.1620   24.0480 O   0  0  0  0  0  0  0  0  0  0  0  0
   10.6660    4.1200   23.5220 C   0  0  0  0  0  0  0  0  0  0  0  0
    9.8910    2.7990   23.5610 C   0  0  0  0  0  0  0  0  0  0  0  0
    8.5130    2.9730   23.5410 C   0  0  0  0  0  0  0  0  0  0  0  0
    8.1880    4.1160   22.8010 C   0  0  0  0  0  0  0  0  0  0  0  0
    8.7030    5.3650   23.2150 C   0  0  0  0  0  0  0  0  0  0  0  0
    9.5970   -1.9960   21.9580 C   0  0  0  0  0  0  0  0  0  0  0  0
   10.7670   -2.1520   22.6710 C   0  0  0  0  0  0  0  0  0  0  0  0
   10.8330   -1.6990   23.9790 C   0  0  0  0  0  0  0  0  0  0  0  0
    9.7520   -1.1010   24.5750 C   0  0  0  0  0  0  0  0  0  0  0  0
    8.5840   -0.9440   23.8660 C   0  0  0  0  0  0  0  0  0  0  0  0
    8.4890   -1.3870   22.5370 C   0  0  0  0  0  0  0  0  0  0  0  0
  4  2  1  6
  3  4  1  0
  7  1  1  1
  4  7  1  0
  1  9  1  0
  6  9  2  0
  9 10  1  0
  5 11  1  0
  7 11  1  0
  8 11  2  0
  5 12  1  0
 12 13  1  6
 13 14  2  3
 15 18  1  0
 16 19  1  0
 17 19  2  0
 18 19  1  6
 20 21  1  0
 20 22  1  0
 20 23  1  0
 12 24  1  0
 15 25  1  0
 24 25  1  0
 26 27  2  0
 27 28  1  0
 28 29  2  0
 18 30  1  0
 29 30  1  0
 26 31  1  0
 30 31  2  0
 32 33  1  0
 33 34  1  0
 16 35  1  0
 34 35  1  0
 35 36  1  0
 32 37  1  0
 36 37  1  0
 38 39  2  0
 20 40  1  0
 39 40  1  0
 40 41  2  0
 41 42  1  0
 15 43  1  0
 38 43  1  0
 42 43  2  0
M  END
