x0978-x2776-x1358
     RDKit          3D

 59 64  0  0  0  0  0  0  0  0999 V2000
    2.1630   -5.6950   23.1450 N   0  0  0  0  0  0  0  0  0  0  0  0
    2.1100   -8.2670   24.5920 C   0  0  0  0  0  0  0  0  0  0  0  0
    4.3890   -7.9120   24.7990 O   0  0  0  0  0  0  0  0  0  0  0  0
    3.3260   -7.3870   24.5820 C   0  0  1  0  0  0  0  0  0  0  0  0
    4.6030   -4.9600   21.8660 N   0  0  0  0  0  0  0  0  0  0  0  0
    0.8470   -7.2640   21.9480 O   0  0  0  0  0  0  0  0  0  0  0  0
    3.2800   -6.6230   23.2240 C   0  0  2  0  0  0  0  0  0  0  0  0
    5.6880   -5.7170   23.8000 N   0  0  0  0  0  0  0  0  0  0  0  0
    0.9080   -6.2200   22.5870 C   0  0  0  0  0  0  0  0  0  0  0  0
   -0.2370   -5.4430   22.8280 C   0  0  0  0  0  0  0  0  0  0  0  0
    4.5780   -5.7830   23.0220 C   0  0  0  0  0  0  0  0  0  0  0  0
    6.2690   -4.4130   20.0760 C   0  0  0  0  0  0  0  0  0  0  0  0
    5.2570   -3.5610   19.3730 C   0  0  0  0  0  0  0  0  0  0  0  0
    7.6480   -1.0350   21.5690 N   0  0  0  0  0  0  0  0  0  0  0  0
    7.8020    2.1140   22.9960 N   0  0  0  0  0  0  0  0  0  0  0  0
    8.7660    1.6030   20.8450 O   0  0  0  0  0  0  0  0  0  0  0  0
   10.9010    6.8070   23.8470 O   0  0  0  0  0  0  0  0  0  0  0  0
    6.9650    0.1170   21.6550 C   0  0  1  0  0  0  0  0  0  0  0  0
   12.5750   -2.7720   25.1710 O   0  0  0  0  0  0  0  0  0  0  0  0
    7.8600    1.3500   21.9110 C   0  0  0  0  0  0  0  0  0  0  0  0
   10.5290    1.8760   23.8780 C   0  0  0  0  0  0  0  0  0  0  0  0
   11.8390    6.6810   24.8400 C   0  0  0  0  0  0  0  0  0  0  0  0
   12.4610   -1.4280   24.7240 C   0  0  1  0  0  0  0  0  0  0  0  0
   13.3720   -1.2480   23.7440 C   0  0  0  0  0  0  0  0  0  0  0  0
   13.7040   -3.0290   25.4980 C   0  0  0  0  0  0  0  0  0  0  0  0
    6.8930   -2.5830   26.0590 N   0  0  0  0  0  0  0  0  0  0  0  0
    5.4030   -0.3130   25.3370 O   0  0  0  0  0  0  0  0  0  0  0  0
    5.1070   -4.0380   25.8900 O   0  0  0  0  0  0  0  0  0  0  0  0
    6.0160   -3.3650   25.3860 C   0  0  0  0  0  0  0  0  0  0  0  0
    6.3730    0.3500   17.8140 N   0  0  0  0  0  0  0  0  0  0  0  0
    5.2070    1.2910   17.8020 C   0  0  0  0  0  0  0  0  0  0  0  0
    4.7270    1.7360   19.0270 C   0  0  0  0  0  0  0  0  0  0  0  0
    5.3180    1.3270   20.2040 C   0  0  0  0  0  0  0  0  0  0  0  0
    6.4040    0.4630   20.2710 C   0  0  0  0  0  0  0  0  0  0  0  0
    6.9470   -0.0470   19.0800 C   0  0  0  0  0  0  0  0  0  0  0  0
    9.8900    3.2470   23.6220 C   0  0  0  0  0  0  0  0  0  0  0  0
   10.6390    4.4150   23.8230 C   0  0  0  0  0  0  0  0  0  0  0  0
   10.0750    5.6680   23.6020 C   0  0  0  0  0  0  0  0  0  0  0  0
    8.7710    5.8430   23.1670 C   0  0  0  0  0  0  0  0  0  0  0  0
    7.9770    4.7210   22.9460 C   0  0  0  0  0  0  0  0  0  0  0  0
    8.5610    3.3280   23.1910 C   0  0  0  0  0  0  0  0  0  0  0  0
    9.7630   -1.8390   21.8550 C   0  0  0  0  0  0  0  0  0  0  0  0
   11.0450   -1.9820   22.6390 C   0  0  0  0  0  0  0  0  0  0  0  0
   11.2020   -1.3110   23.9940 C   0  0  0  0  0  0  0  0  0  0  0  0
   10.0200   -0.5180   24.5200 C   0  0  0  0  0  0  0  0  0  0  0  0
    8.7700   -0.3970   23.7000 C   0  0  0  0  0  0  0  0  0  0  0  0
    8.7110   -1.0870   22.3480 C   0  0  0  0  0  0  0  0  0  0  0  0
    5.9530   -0.3960   26.5840 C   0  0  0  0  0  0  0  0  0  0  0  0
    6.7070   -1.5260   26.9960 C   0  0  0  0  0  0  0  0  0  0  0  0
    7.2510   -1.5690   28.2930 C   0  0  0  0  0  0  0  0  0  0  0  0
    7.0790   -0.5250   29.1980 C   0  0  0  0  0  0  0  0  0  0  0  0
    6.3600    0.6060   28.8600 C   0  0  0  0  0  0  0  0  0  0  0  0
    5.7590    0.6780   27.4740 C   0  0  0  0  0  0  0  0  0  0  0  0
    5.8180   -2.8290   21.6540 N   0  0  0  0  0  0  0  0  0  0  0  0
    7.1240   -2.3020   22.0200 C   0  0  2  0  0  0  0  0  0  0  0  0
    7.2850   -2.3810   23.4880 C   0  0  0  0  0  0  0  0  0  0  0  0
    6.2240   -3.3240   23.8530 C   0  0  1  0  0  0  0  0  0  0  0  0
    6.4290   -4.6400   23.0640 C   0  0  2  0  0  0  0  0  0  0  0  0
    5.8420   -4.2670   21.6490 C   0  0  1  0  0  0  0  0  0  0  0  0
  4  2  1  6
  3  4  1  0
  7  1  1  1
  4  7  1  0
  1  9  1  0
  6  9  2  0
  9 10  1  0
  5 11  1  0
  7 11  1  0
  8 11  2  0
 12 13  2  3
 14 18  1  0
 15 20  1  0
 16 20  2  0
 18 20  1  6
 17 22  1  0
 19 23  1  0
 23 24  1  6
 19 25  1  0
 26 29  1  0
 28 29  2  0
 30 31  2  0
 31 32  1  0
 32 33  2  0
 18 34  1  0
 33 34  1  0
 30 35  1  0
 34 35  2  0
 21 36  1  0
 36 37  2  0
 17 38  1  0
 37 38  1  0
 38 39  2  0
 39 40  1  0
 15 41  1  0
 36 41  1  0
 40 41  2  0
 42 43  2  0
 23 44  1  0
 43 44  1  0
 44 45  2  0
 45 46  1  0
 14 47  1  0
 42 47  1  0
 46 47  2  0
 27 48  1  0
 26 49  1  0
 48 49  2  0
 49 50  1  0
 50 51  2  0
 51 52  1  0
 48 53  1  0
 52 53  2  0
 55 14  1  1
 54 55  1  0
 55 56  1  0
 57 29  1  1
 56 57  1  0
 58  8  1  1
 57 58  1  0
  5 59  1  0
 59 12  1  6
 54 59  1  0
 58 59  1  0
M  END
