x0978-x1458-x3113
     RDKit          3D

 53 57  0  0  0  0  0  0  0  0999 V2000
    7.5090   -1.8710   22.5390 C   0  0  1  0  0  0  0  0  0  0  0  0
    8.2660    1.4480   23.4240 N   0  0  0  0  0  0  0  0  0  0  0  0
    8.8540    0.8510   21.2620 O   0  0  0  0  0  0  0  0  0  0  0  0
   11.6920    4.0510   23.3580 O   0  0  0  0  0  0  0  0  0  0  0  0
    6.9580   -0.4510   22.1680 C   0  0  1  0  0  0  0  0  0  0  0  0
    8.1180    0.6470   22.2260 C   0  0  0  0  0  0  0  0  0  0  0  0
    9.2980    2.5020   23.3830 C   0  0  0  0  0  0  0  0  0  0  0  0
   10.5910    1.9570   23.5300 C   0  0  0  0  0  0  0  0  0  0  0  0
   11.7010    2.7070   23.0910 C   0  0  0  0  0  0  0  0  0  0  0  0
   12.8440    4.6230   22.8940 C   0  0  0  0  0  0  0  0  0  0  0  0
   12.6430   -1.7600   24.4180 C   0  0  0  0  0  0  0  0  0  0  0  0
   13.6150   -2.4070   23.7130 C   0  0  0  0  0  0  0  0  0  0  0  0
   13.1050   -2.9780   25.1480 C   0  0  0  0  0  0  0  0  0  0  0  0
   12.8130   -0.5790   25.0920 C   0  0  0  0  0  0  0  0  0  0  0  0
    2.1250   -6.7310   22.3810 N   0  0  0  0  0  0  0  0  0  0  0  0
    2.0740   -8.1870   24.3860 C   0  0  0  0  0  0  0  0  0  0  0  0
    4.2210   -7.7190   24.6680 O   0  0  0  0  0  0  0  0  0  0  0  0
    3.0030   -7.1630   24.4180 C   0  0  1  0  0  0  0  0  0  0  0  0
    5.3940   -5.7610   21.9930 N   0  0  0  0  0  0  0  0  0  0  0  0
    0.0560   -7.3730   21.5470 O   0  0  0  0  0  0  0  0  0  0  0  0
    2.9800   -6.2180   23.3920 C   0  0  1  0  0  0  0  0  0  0  0  0
    4.7700   -5.2520   24.2320 N   0  0  0  0  0  0  0  0  0  0  0  0
    0.7960   -6.5510   22.3280 C   0  0  0  0  0  0  0  0  0  0  0  0
    0.0240   -5.5820   22.9740 C   0  0  0  0  0  0  0  0  0  0  0  0
    4.4000   -5.7470   23.0820 C   0  0  0  0  0  0  0  0  0  0  0  0
    6.4600   -4.3360   19.8970 C   0  0  0  0  0  0  0  0  0  0  0  0
    5.3500   -3.4930   19.3390 C   0  0  0  0  0  0  0  0  0  0  0  0
    7.6730   -3.1440   21.7770 C   0  0  0  0  0  0  0  0  0  0  0  0
    6.5260   -3.4870   26.9210 N   0  0  0  0  0  0  0  0  0  0  0  0
    8.7600   -4.3020   27.4130 C   0  0  0  0  0  0  0  0  0  0  0  0
    4.8130   -2.4430   25.8880 O   0  0  0  0  0  0  0  0  0  0  0  0
    7.3750   -4.5280   27.2440 C   0  0  0  0  0  0  0  0  0  0  0  0
    6.8600   -5.5450   28.0540 C   0  0  0  0  0  0  0  0  0  0  0  0
    6.6470   -2.5120   27.8110 C   0  0  0  0  0  0  0  0  0  0  0  0
    5.9190   -3.1280   25.7680 C   0  0  0  0  0  0  0  0  0  0  0  0
    6.5290    0.0320   18.2060 N   0  0  0  0  0  0  0  0  0  0  0  0
    5.4120    0.7540   18.0330 C   0  0  0  0  0  0  0  0  0  0  0  0
    4.6300    1.1650   19.2710 C   0  0  0  0  0  0  0  0  0  0  0  0
    5.0450    0.8210   20.5630 C   0  0  0  0  0  0  0  0  0  0  0  0
    6.3380   -0.0110   20.8260 C   0  0  0  0  0  0  0  0  0  0  0  0
    7.0710   -0.3990   19.5180 C   0  0  0  0  0  0  0  0  0  0  0  0
    9.9190   -1.2850   21.7980 C   0  0  0  0  0  0  0  0  0  0  0  0
   11.3320   -1.2800   22.3240 C   0  0  0  0  0  0  0  0  0  0  0  0
   11.4180   -1.7250   23.7830 C   0  0  0  0  0  0  0  0  0  0  0  0
   10.3300   -2.0760   24.4910 C   0  0  0  0  0  0  0  0  0  0  0  0
    9.1500   -2.0440   23.9120 C   0  0  0  0  0  0  0  0  0  0  0  0
    8.9250   -1.6720   22.6090 C   0  0  0  0  0  0  0  0  0  0  0  0
    6.7020   -4.5890   21.7130 S   0  0  0  0  0  0  0  0  0  0  0  0
    7.7360   -3.9350   22.9700 C   0  0  0  0  0  0  0  0  0  0  0  0
    7.2800   -2.7630   23.5830 C   0  0  2  0  0  0  0  0  0  0  0  0
    6.3110   -3.4420   24.4100 C   0  0  1  0  0  0  0  0  0  0  0  0
    6.0990   -4.9070   24.1220 C   0  0  2  0  0  0  0  0  0  0  0  0
    6.7080   -5.6690   22.9640 C   0  0  0  0  0  0  0  0  0  0  0  0
  1  5  1  0
  2  6  1  0
  3  6  2  0
  5  6  1  6
  2  7  1  0
  7  8  1  0
  4  9  1  0
  8  9  1  0
  4 10  1  0
 11 12  1  0
 11 13  1  0
 11 14  1  0
 18 16  1  6
 17 18  1  0
 21 15  1  6
 18 21  1  0
 15 23  1  0
 20 23  2  0
 23 24  1  0
 19 25  1  0
 21 25  1  0
 22 25  2  0
 26 27  2  3
  1 28  1  0
 29 32  1  0
 30 32  1  0
 32 33  1  0
 29 34  1  0
 29 35  1  0
 31 35  2  0
 36 37  2  0
 37 38  1  0
 38 39  2  0
  5 40  1  0
 39 40  1  0
 36 41  1  0
 40 41  2  0
 42 43  2  0
 11 44  1  0
 43 44  1  0
 44 45  2  0
 45 46  1  0
  1 47  1  1
 42 47  1  0
 46 47  2  0
 19 48  1  0
 26 48  1  0
 28 48  1  0
 48 49  1  0
  1 50  1  0
 50 49  1  6
 51 35  1  1
 50 51  1  0
 52 22  1  6
 51 52  1  0
 48 53  1  0
 52 53  1  0
M  END
