x0978-x1077-x3113
     RDKit          3D

 50 52  0  0  0  0  0  0  0  0999 V2000
    7.3780   -1.2740   21.8880 N   0  0  0  0  0  0  0  0  0  0  0  0
    8.2370    1.6160   23.3690 N   0  0  0  0  0  0  0  0  0  0  0  0
    8.9150    1.6670   20.9880 O   0  0  0  0  0  0  0  0  0  0  0  0
   11.7770    3.8840   22.2980 O   0  0  0  0  0  0  0  0  0  0  0  0
    6.9780    0.1360   21.7680 C   0  0  1  0  0  0  0  0  0  0  0  0
    8.0800    1.1340   21.9880 C   0  0  0  0  0  0  0  0  0  0  0  0
    9.3040    2.5480   23.6460 C   0  0  0  0  0  0  0  0  0  0  0  0
   10.6640    2.0040   23.3520 C   0  0  0  0  0  0  0  0  0  0  0  0
   11.6710    3.1270   23.2490 C   0  0  0  0  0  0  0  0  0  0  0  0
   12.8150    4.5420   22.4010 C   0  0  0  0  0  0  0  0  0  0  0  0
   12.4190   -1.8870   24.3260 C   0  0  0  0  0  0  0  0  0  0  0  0
   13.4330   -1.8750   23.1700 C   0  0  0  0  0  0  0  0  0  0  0  0
   12.8210   -3.0620   25.2420 C   0  0  0  0  0  0  0  0  0  0  0  0
   12.6160   -0.6010   25.0950 C   0  0  0  0  0  0  0  0  0  0  0  0
    1.8760   -5.7640   23.1650 N   0  0  0  0  0  0  0  0  0  0  0  0
    2.1330   -8.1160   24.7360 C   0  0  0  0  0  0  0  0  0  0  0  0
    4.4700   -7.9210   24.3810 O   0  0  0  0  0  0  0  0  0  0  0  0
    3.3030   -7.1450   24.4860 C   0  0  1  0  0  0  0  0  0  0  0  0
    5.0960   -5.5110   21.8620 N   0  0  0  0  0  0  0  0  0  0  0  0
    0.6010   -7.2910   21.8320 O   0  0  0  0  0  0  0  0  0  0  0  0
    3.0940   -6.4100   23.2270 C   0  0  2  0  0  0  0  0  0  0  0  0
    4.2810   -4.3150   23.6790 O   0  0  0  0  0  0  0  0  0  0  0  0
    0.6790   -6.2700   22.4990 C   0  0  0  0  0  0  0  0  0  0  0  0
   -0.4620   -5.3320   22.7610 C   0  0  0  0  0  0  0  0  0  0  0  0
    4.1730   -5.3340   22.9790 C   0  0  0  0  0  0  0  0  0  0  0  0
    6.3860   -4.7960   21.7370 C   0  0  1  0  0  0  0  0  0  0  0  0
    6.5650   -4.4220   20.1850 C   0  0  0  0  0  0  0  0  0  0  0  0
    5.5880   -3.7600   19.6010 C   0  0  0  0  0  0  0  0  0  0  0  0
    6.3670   -2.2960   21.6470 C   0  0  0  0  0  0  0  0  0  0  0  0
    6.2870   -3.4180   22.4710 C   0  0  0  0  0  0  0  0  0  0  0  0
    6.3730    0.2190   17.9990 N   0  0  0  0  0  0  0  0  0  0  0  0
    5.3180    1.0260   17.8950 C   0  0  0  0  0  0  0  0  0  0  0  0
    4.7260    1.5900   19.0760 C   0  0  0  0  0  0  0  0  0  0  0  0
    5.2840    1.2770   20.2870 C   0  0  0  0  0  0  0  0  0  0  0  0
    6.3980    0.4310   20.4010 C   0  0  0  0  0  0  0  0  0  0  0  0
    6.9600   -0.1240   19.2070 C   0  0  0  0  0  0  0  0  0  0  0  0
    9.7760   -1.2730   21.8480 C   0  0  0  0  0  0  0  0  0  0  0  0
   10.9980   -1.4280   22.4430 C   0  0  0  0  0  0  0  0  0  0  0  0
   11.0880   -1.7860   23.7550 C   0  0  0  0  0  0  0  0  0  0  0  0
    9.9580   -2.0130   24.5000 C   0  0  0  0  0  0  0  0  0  0  0  0
    8.7140   -1.8680   23.9220 C   0  0  0  0  0  0  0  0  0  0  0  0
    8.6070   -1.4870   22.5870 C   0  0  0  0  0  0  0  0  0  0  0  0
    7.2780   -5.8130   24.8010 O   0  0  0  0  0  0  0  0  0  0  0  0
    7.9600   -5.2480   23.7510 C   0  0  1  0  0  0  0  0  0  0  0  0
    9.2780   -5.5410   23.8780 C   0  0  0  0  0  0  0  0  0  0  0  0
    9.9810   -5.1150   24.9750 C   0  0  0  0  0  0  0  0  0  0  0  0
    9.3150   -4.0790   25.7340 N   0  0  0  0  0  0  0  0  0  0  0  0
    8.2850   -4.6060   26.6680 C   0  0  0  0  0  0  0  0  0  0  0  0
    7.1390   -5.0700   26.0300 C   0  0  0  0  0  0  0  0  0  0  0  0
    7.4470   -5.6620   22.5090 C   0  0  0  0  0  0  0  0  0  0  0  0
  1  5  1  0
  2  6  1  0
  3  6  2  0
  5  6  1  6
  2  7  1  0
  7  8  1  0
  4  9  1  0
  8  9  1  0
  4 10  1  0
 11 12  1  0
 11 13  1  0
 11 14  1  0
 18 16  1  6
 17 18  1  0
 21 15  1  1
 18 21  1  0
 15 23  1  0
 20 23  2  0
 23 24  1  0
 19 25  1  0
 21 25  1  0
 22 25  2  0
 19 26  1  0
 26 27  1  6
 27 28  2  3
  1 29  1  0
 26 30  1  0
 29 30  1  0
 31 32  2  0
 32 33  1  0
 33 34  2  0
  5 35  1  0
 34 35  1  0
 31 36  1  0
 35 36  2  0
 37 38  2  0
 11 39  1  0
 38 39  1  0
 39 40  2  0
 40 41  1  0
  1 42  1  0
 37 42  1  0
 41 42  2  0
 43 44  1  0
 44 45  1  0
 45 46  1  0
 46 47  1  0
 47 48  1  0
 43 49  1  0
 48 49  1  0
 26 50  1  0
 44 50  1  6
M  END
