x0978-x2540-x3110-x1077
     RDKit          3D

 55 59  0  0  0  0  0  0  0  0999 V2000
    8.0200    1.4610   23.1680 N   0  0  0  0  0  0  0  0  0  0  0  0
   13.4470    5.2740   22.6410 C   0  0  0  0  0  0  0  0  0  0  0  0
   12.0370    3.3280   22.4290 O   0  0  0  0  0  0  0  0  0  0  0  0
   12.3200    4.4350   21.9880 C   0  0  0  0  0  0  0  0  0  0  0  0
    7.3730   -1.3410   21.5390 N   0  0  0  0  0  0  0  0  0  0  0  0
   11.1000    4.3110   24.2610 O   0  0  0  0  0  0  0  0  0  0  0  0
   11.1870    3.3780   23.4780 C   0  0  0  0  0  0  0  0  0  0  0  0
    8.6980    1.6310   21.0150 O   0  0  0  0  0  0  0  0  0  0  0  0
   10.3450    2.0920   23.5250 C   0  0  0  0  0  0  0  0  0  0  0  0
    8.8660    2.4840   23.5860 C   0  0  0  0  0  0  0  0  0  0  0  0
    7.9430    1.1010   21.8360 C   0  0  0  0  0  0  0  0  0  0  0  0
    6.8750    0.0510   21.5170 C   0  0  1  0  0  0  0  0  0  0  0  0
   13.4070   -1.3940   24.1420 C   0  0  1  0  0  0  0  0  0  0  0  0
   12.5630   -0.1910   24.5100 C   0  0  0  0  0  0  0  0  0  0  0  0
   13.3040   -1.5570   22.7250 C   0  0  0  0  0  0  0  0  0  0  0  0
   13.2040   -2.6460   25.0270 C   0  0  0  0  0  0  0  0  0  0  0  0
   12.1170   -0.8850   23.2010 C   0  0  1  0  0  0  0  0  0  0  0  0
    8.5100    2.8660   25.0160 C   0  0  0  0  0  0  0  0  0  0  0  0
    8.7070    3.7470   22.7130 C   0  0  0  0  0  0  0  0  0  0  0  0
    2.0090   -5.6410   23.1220 N   0  0  0  0  0  0  0  0  0  0  0  0
    2.1960   -8.1560   24.6720 C   0  0  0  0  0  0  0  0  0  0  0  0
    4.4360   -7.7020   24.6810 O   0  0  0  0  0  0  0  0  0  0  0  0
    3.2250   -7.0250   24.5730 C   0  0  1  0  0  0  0  0  0  0  0  0
    5.1020   -5.3680   21.9240 N   0  0  0  0  0  0  0  0  0  0  0  0
    0.9350   -7.3080   22.0150 O   0  0  0  0  0  0  0  0  0  0  0  0
    3.1870   -6.3730   23.1820 C   0  0  2  0  0  0  0  0  0  0  0  0
    4.3920   -4.3690   23.8560 O   0  0  0  0  0  0  0  0  0  0  0  0
    0.8930   -6.2050   22.5840 C   0  0  0  0  0  0  0  0  0  0  0  0
   -0.3090   -5.4850   22.6890 C   0  0  0  0  0  0  0  0  0  0  0  0
    4.2960   -5.2690   23.0310 C   0  0  0  0  0  0  0  0  0  0  0  0
    6.3430   -4.7630   21.7130 C   0  0  1  0  0  0  0  0  0  0  0  0
    6.4820   -4.5420   20.1580 C   0  0  0  0  0  0  0  0  0  0  0  0
    5.4040   -3.6790   19.5210 C   0  0  0  0  0  0  0  0  0  0  0  0
    6.2600   -2.2350   21.6070 C   0  0  0  0  0  0  0  0  0  0  0  0
    6.4410   -3.3670   22.4240 C   0  0  0  0  0  0  0  0  0  0  0  0
    6.2930    0.5630   17.7080 N   0  0  0  0  0  0  0  0  0  0  0  0
    5.2070    1.4160   17.7010 C   0  0  0  0  0  0  0  0  0  0  0  0
    4.6370    1.8240   18.9040 C   0  0  0  0  0  0  0  0  0  0  0  0
    5.2000    1.3560   20.1230 C   0  0  0  0  0  0  0  0  0  0  0  0
    6.2980    0.5030   20.2040 C   0  0  0  0  0  0  0  0  0  0  0  0
    6.8260    0.1100   19.0120 C   0  0  0  0  0  0  0  0  0  0  0  0
    9.7860   -1.1310   22.2780 C   0  0  0  0  0  0  0  0  0  0  0  0
   10.7530   -1.3320   23.2550 C   0  0  0  0  0  0  0  0  0  0  0  0
   10.4760   -1.9700   24.4540 C   0  0  0  0  0  0  0  0  0  0  0  0
    9.1990   -2.4150   24.7030 C   0  0  0  0  0  0  0  0  0  0  0  0
    8.1790   -2.2490   23.8100 C   0  0  0  0  0  0  0  0  0  0  0  0
    8.4900   -1.5600   22.5070 C   0  0  0  0  0  0  0  0  0  0  0  0
    6.9700   -5.7200   24.8570 O   0  0  0  0  0  0  0  0  0  0  0  0
    7.8160   -5.3720   23.7540 C   0  0  1  0  0  0  0  0  0  0  0  0
    9.2560   -5.8040   23.9920 C   0  0  0  0  0  0  0  0  0  0  0  0
    9.7950   -5.5910   25.4000 C   0  0  0  0  0  0  0  0  0  0  0  0
    9.4650   -4.3100   25.9850 N   0  0  0  0  0  0  0  0  0  0  0  0
    8.1090   -4.2520   26.4910 C   0  0  0  0  0  0  0  0  0  0  0  0
    7.3460   -5.3820   26.2220 C   0  0  0  0  0  0  0  0  0  0  0  0
    7.3090   -5.7420   22.4860 C   0  0  0  0  0  0  0  0  0  0  0  0
  2  4  1  0
  3  4  1  0
  3  7  1  0
  6  7  2  0
  7  9  1  0
 10  1  1  0
  9 10  1  0
  1 11  1  0
  8 11  2  0
  5 12  1  0
 12 11  1  6
 13 14  1  0
 13 15  1  0
 13 16  1  6
 13 17  1  0
 14 17  1  0
 15 17  1  0
 10 18  1  0
 10 19  1  0
 23 21  1  6
 22 23  1  0
 26 20  1  1
 23 26  1  0
 20 28  1  0
 25 28  2  0
 28 29  1  0
 24 30  1  0
 26 30  1  0
 27 30  2  0
 24 31  1  0
 31 32  1  6
 32 33  2  3
  5 34  1  0
 31 35  1  0
 34 35  1  0
 36 37  2  0
 37 38  1  0
 38 39  2  0
 12 40  1  0
 39 40  1  0
 36 41  1  0
 40 41  2  0
 17 43  1  1
 42 43  2  0
 43 44  1  0
 44 45  2  0
 45 46  1  0
  5 47  1  0
 42 47  1  0
 46 47  2  0
 48 49  1  0
 49 50  1  0
 50 51  1  0
 51 52  1  0
 52 53  1  0
 48 54  1  0
 53 54  1  0
 31 55  1  0
 49 55  1  6
M  END
