x0978-x2754-x3113-x1458
     RDKit          3D

 61 68  0  0  0  0  0  0  0  0999 V2000
    7.3450   -1.6310   22.1790 C   0  0  1  0  0  0  0  0  0  0  0  0
    8.2310    1.6890   23.4470 N   0  0  0  0  0  0  0  0  0  0  0  0
    8.6100    1.3240   21.1470 O   0  0  0  0  0  0  0  0  0  0  0  0
   11.8930    4.3060   23.3600 O   0  0  0  0  0  0  0  0  0  0  0  0
    6.9290   -0.1860   22.0980 C   0  0  1  0  0  0  0  0  0  0  0  0
    7.9060    0.9140   22.2600 C   0  0  0  0  0  0  0  0  0  0  0  0
    9.3670    2.6660   23.4310 C   0  0  0  0  0  0  0  0  0  0  0  0
   10.6990    2.0330   23.4810 C   0  0  0  0  0  0  0  0  0  0  0  0
   11.8610    2.9560   23.0020 C   0  0  0  0  0  0  0  0  0  0  0  0
   13.0960    4.8440   22.8890 C   0  0  0  0  0  0  0  0  0  0  0  0
   12.6600   -2.0040   24.0480 C   0  0  0  0  0  0  0  0  0  0  0  0
   13.5890   -2.3290   22.9360 C   0  0  0  0  0  0  0  0  0  0  0  0
   12.9010   -2.9920   25.1910 C   0  0  0  0  0  0  0  0  0  0  0  0
   12.8380   -0.5960   24.6350 C   0  0  0  0  0  0  0  0  0  0  0  0
    1.7330   -5.5750   23.3700 N   0  0  0  0  0  0  0  0  0  0  0  0
    2.0530   -8.3760   24.2260 C   0  0  0  0  0  0  0  0  0  0  0  0
    4.2810   -7.9700   24.2380 O   0  0  0  0  0  0  0  0  0  0  0  0
    3.0970   -7.4110   24.5910 C   0  0  1  0  0  0  0  0  0  0  0  0
    4.5290   -5.2190   21.9920 N   0  0  0  0  0  0  0  0  0  0  0  0
    1.1130   -7.3250   22.0510 O   0  0  0  0  0  0  0  0  0  0  0  0
    3.0270   -6.0380   23.9450 C   0  0  1  0  0  0  0  0  0  0  0  0
    5.1780   -5.1610   24.3060 N   0  0  0  0  0  0  0  0  0  0  0  0
    0.8270   -6.2100   22.6040 C   0  0  0  0  0  0  0  0  0  0  0  0
   -0.4380   -5.7040   22.3700 C   0  0  0  0  0  0  0  0  0  0  0  0
    4.3550   -5.4380   23.3000 C   0  0  0  0  0  0  0  0  0  0  0  0
    6.5730   -3.9880   19.4480 C   0  0  0  0  0  0  0  0  0  0  0  0
    5.9410   -3.2420   18.7820 C   0  0  0  0  0  0  0  0  0  0  0  0
    6.4330   -2.0960   20.9940 C   0  0  0  0  0  0  0  0  0  0  0  0
    5.4680   -3.2110   25.6080 C   0  0  0  0  0  0  0  0  0  0  0  0
    5.8780   -5.4020   27.6060 C   0  0  0  0  0  0  0  0  0  0  0  0
    6.6770   -3.6250   25.3350 C   0  0  0  0  0  0  0  0  0  0  0  0
    4.1520   -2.7030   25.4530 C   0  0  0  0  0  0  0  0  0  0  0  0
    3.0230   -2.2550   25.7430 O   0  0  0  0  0  0  0  0  0  0  0  0
    4.2540   -2.6890   26.8670 N   0  0  0  0  0  0  0  0  0  0  0  0
    5.2890   -1.9550   27.5620 C   0  0  0  0  0  0  0  0  0  0  0  0
    6.5420    0.2040   18.2470 N   0  0  0  0  0  0  0  0  0  0  0  0
    5.4400    0.9310   18.1050 C   0  0  0  0  0  0  0  0  0  0  0  0
    4.8020    1.3000   19.2670 C   0  0  0  0  0  0  0  0  0  0  0  0
    5.2740    0.9420   20.5320 C   0  0  0  0  0  0  0  0  0  0  0  0
    6.4170    0.1920   20.6630 C   0  0  0  0  0  0  0  0  0  0  0  0
    7.0250   -0.1610   19.4660 C   0  0  0  0  0  0  0  0  0  0  0  0
    9.7760   -1.2650   21.7340 C   0  0  0  0  0  0  0  0  0  0  0  0
   11.0840   -1.3860   22.2500 C   0  0  0  0  0  0  0  0  0  0  0  0
   11.3160   -1.9320   23.4960 C   0  0  0  0  0  0  0  0  0  0  0  0
   10.2430   -2.3560   24.1500 C   0  0  0  0  0  0  0  0  0  0  0  0
    8.9830   -2.2450   23.6740 C   0  0  0  0  0  0  0  0  0  0  0  0
    8.6860   -1.6930   22.4630 C   0  0  0  0  0  0  0  0  0  0  0  0
    5.6940   -3.9110   21.2280 S   0  0  0  0  0  0  0  0  0  0  0  0
    5.5640   -2.6700   22.4240 C   0  0  2  0  0  0  0  0  0  0  0  0
    6.7500   -2.6840   22.8350 C   0  0  2  0  0  0  0  0  0  0  0  0
    7.0460   -3.6410   23.9000 C   0  0  2  0  0  0  0  0  0  0  0  0
    6.1580   -4.5170   23.7050 C   0  0  0  0  0  0  0  0  0  0  0  0
    6.2350   -4.9460   22.3900 C   0  0  0  0  0  0  0  0  0  0  0  0
    4.7770   -2.7970   23.4140 C   0  0  0  0  0  0  0  0  0  0  0  0
    5.7760   -3.1160   24.2250 C   0  0  1  0  0  0  0  0  0  0  0  0
    7.2420   -4.9140   27.2750 C   0  0  0  0  0  0  0  0  0  0  0  0
    8.3400   -5.4070   28.1790 C   0  0  0  0  0  0  0  0  0  0  0  0
    9.6460   -4.9930   27.8970 C   0  0  0  0  0  0  0  0  0  0  0  0
    9.8750   -4.1430   26.7950 C   0  0  0  0  0  0  0  0  0  0  0  0
    8.8350   -3.7220   26.0160 C   0  0  0  0  0  0  0  0  0  0  0  0
    7.5700   -4.1050   26.2550 C   0  0  0  0  0  0  0  0  0  0  0  0
  1  5  1  0
  2  6  1  0
  3  6  2  0
  5  6  1  6
  2  7  1  0
  7  8  1  0
  4  9  1  0
  8  9  1  0
  4 10  1  0
 11 12  1  0
 11 13  1  0
 11 14  1  0
 18 16  1  6
 17 18  1  0
 21 15  1  6
 18 21  1  0
 15 23  1  0
 20 23  2  0
 23 24  1  0
 19 25  1  0
 21 25  1  0
 22 25  2  0
 26 27  2  3
  1 28  1  0
 29 31  2  0
 29 32  1  0
 32 33  2  0
 32 34  1  0
 34 35  1  0
 36 37  2  0
 37 38  1  0
 38 39  2  0
  5 40  1  0
 39 40  1  0
 36 41  1  0
 40 41  2  0
 42 43  2  0
 11 44  1  0
 43 44  1  0
 44 45  2  0
 45 46  1  0
  1 47  1  6
 42 47  1  0
 46 47  2  0
 19 48  1  0
 26 48  1  0
 28 48  1  0
 48 49  1  0
  1 50  1  0
 49 50  1  0
 51 31  1  1
 50 51  1  1
 22 52  1  0
 51 52  1  0
 48 53  1  0
 52 53  1  0
 49 54  1  1
 55 29  1  1
 52 55  1  0
 54 55  1  0
 30 56  1  0
 56 57  2  0
 57 58  1  0
 58 59  2  0
 59 60  1  0
 31 61  1  0
 56 61  1  0
 60 61  2  0
M  END
