x0978-x0946-x0691-x3110-x1077
     RDKit          3D

 70 76  0  0  0  0  0  0  0  0999 V2000
    7.8080    1.7290   23.3550 N   0  0  0  0  0  0  0  0  0  0  0  0
   13.7980    5.3260   22.5420 C   0  0  0  0  0  0  0  0  0  0  0  0
   12.3550    5.1780   22.6530 C   0  0  0  0  0  0  0  0  0  0  0  0
    7.3440   -1.3470   21.9090 N   0  0  0  0  0  0  0  0  0  0  0  0
    9.9860    4.8770   23.6900 C   0  0  0  0  0  0  0  0  0  0  0  0
    8.8900    1.6040   21.2400 O   0  0  0  0  0  0  0  0  0  0  0  0
    8.9000    1.9410   24.3070 C   0  0  0  0  0  0  0  0  0  0  0  0
    8.0020    1.1900   22.0040 C   0  0  0  0  0  0  0  0  0  0  0  0
    6.9690    0.1130   21.6470 C   0  0  1  0  0  0  0  0  0  0  0  0
   12.4920   -1.8960   24.2950 C   0  0  0  0  0  0  0  0  0  0  0  0
   12.6860   -0.6420   25.0770 C   0  0  0  0  0  0  0  0  0  0  0  0
   13.4900   -1.9110   23.1530 C   0  0  0  0  0  0  0  0  0  0  0  0
   12.8040   -3.0730   25.2270 C   0  0  0  0  0  0  0  0  0  0  0  0
    8.5770    4.7740   23.7640 N   0  0  0  0  0  0  0  0  0  0  0  0
   10.2040    5.8720   22.7680 O   0  0  0  0  0  0  0  0  0  0  0  0
   10.5160    5.6120   24.7590 O   0  0  0  0  0  0  0  0  0  0  0  0
    1.8960   -5.7120   22.9780 N   0  0  0  0  0  0  0  0  0  0  0  0
    1.9940   -8.3450   24.3710 C   0  0  0  0  0  0  0  0  0  0  0  0
    4.3580   -8.0110   24.4620 O   0  0  0  0  0  0  0  0  0  0  0  0
    3.1220   -7.3290   24.3400 C   0  0  1  0  0  0  0  0  0  0  0  0
    0.7240   -7.3500   21.8980 O   0  0  0  0  0  0  0  0  0  0  0  0
    3.1520   -6.4480   23.0830 C   0  0  2  0  0  0  0  0  0  0  0  0
    3.8180   -4.1960   22.7770 O   0  0  0  0  0  0  0  0  0  0  0  0
    0.7520   -6.2680   22.4640 C   0  0  0  0  0  0  0  0  0  0  0  0
   -0.4960   -5.4030   22.6510 C   0  0  0  0  0  0  0  0  0  0  0  0
    6.7460   -4.2050   20.1470 C   0  0  0  0  0  0  0  0  0  0  0  0
    5.6310   -3.4960   19.3470 C   0  0  0  0  0  0  0  0  0  0  0  0
    6.2880   -2.0670   22.6570 C   0  0  0  0  0  0  0  0  0  0  0  0
    5.7090   -3.2270   22.1840 C   0  0  0  0  0  0  0  0  0  0  0  0
    4.2020   -6.6870   26.0330 O   0  0  0  0  0  0  0  0  0  0  0  0
    6.1030   -4.9900   26.5700 N   0  0  0  0  0  0  0  0  0  0  0  0
    3.2490   -0.5890   26.0310 F   0  0  0  0  0  0  0  0  0  0  0  0
    4.8740   -5.4350   25.7650 S   0  0  2  0  0  0  0  0  0  0  0  0
    6.3930    0.2400   17.9060 N   0  0  0  0  0  0  0  0  0  0  0  0
    5.2520    1.1460   17.8680 C   0  0  0  0  0  0  0  0  0  0  0  0
    4.6790    1.6880   19.0130 C   0  0  0  0  0  0  0  0  0  0  0  0
    5.2350    1.3480   20.2540 C   0  0  0  0  0  0  0  0  0  0  0  0
    6.3400    0.4810   20.3120 C   0  0  0  0  0  0  0  0  0  0  0  0
    6.8760   -0.0450   19.1280 C   0  0  0  0  0  0  0  0  0  0  0  0
    9.7240   -1.3770   21.8330 C   0  0  0  0  0  0  0  0  0  0  0  0
   10.9920   -1.5110   22.3620 C   0  0  0  0  0  0  0  0  0  0  0  0
   11.1080   -1.7840   23.7160 C   0  0  0  0  0  0  0  0  0  0  0  0
    9.9750   -1.9250   24.5030 C   0  0  0  0  0  0  0  0  0  0  0  0
    8.7060   -1.7880   23.9440 C   0  0  0  0  0  0  0  0  0  0  0  0
    8.5710   -1.5050   22.5670 C   0  0  0  0  0  0  0  0  0  0  0  0
   12.5300    1.3940   22.9570 C   0  0  0  0  0  0  0  0  0  0  0  0
   12.8760    2.7270   22.7000 C   0  0  0  0  0  0  0  0  0  0  0  0
   11.9760    3.7560   22.9570 C   0  0  0  0  0  0  0  0  0  0  0  0
   10.7420    3.5590   23.4720 C   0  0  0  0  0  0  0  0  0  0  0  0
   10.2760    2.2710   23.7540 C   0  0  0  0  0  0  0  0  0  0  0  0
   11.2730    1.1730   23.4630 C   0  0  0  0  0  0  0  0  0  0  0  0
    7.2720   -3.8320   24.7080 O   0  0  0  0  0  0  0  0  0  0  0  0
    8.2010   -4.3270   23.7580 C   0  0  1  0  0  0  0  0  0  0  0  0
    9.4470   -5.1210   24.1300 C   0  0  0  0  0  0  0  0  0  0  0  0
    9.8680   -5.2960   25.5760 C   0  0  0  0  0  0  0  0  0  0  0  0
    9.4730   -4.2700   26.5000 N   0  0  0  0  0  0  0  0  0  0  0  0
    8.1500   -4.5850   27.0090 C   0  0  0  0  0  0  0  0  0  0  0  0
    7.0760   -4.0320   26.0920 C   0  0  2  0  0  0  0  0  0  0  0  0
    2.9030   -1.8790   25.9610 C   0  0  0  0  0  0  0  0  0  0  0  0
    3.9110   -2.8590   25.9120 C   0  0  0  0  0  0  0  0  0  0  0  0
    3.5750   -4.2090   25.8410 C   0  0  0  0  0  0  0  0  0  0  0  0
    2.2320   -4.5760   25.8190 C   0  0  0  0  0  0  0  0  0  0  0  0
    1.2280   -3.5940   25.8670 C   0  0  0  0  0  0  0  0  0  0  0  0
    1.5450   -2.2250   25.9410 C   0  0  0  0  0  0  0  0  0  0  0  0
    6.4380   -4.5560   21.6400 C   0  0  1  0  0  0  0  0  0  0  0  0
    5.3340   -5.5870   21.6800 C   0  0  0  0  0  0  0  0  0  0  0  0
    4.4330   -5.4540   22.9660 C   0  0  2  0  0  0  0  0  0  0  0  0
    5.3180   -5.4760   24.1130 N   0  0  0  0  0  0  0  0  0  0  0  0
    6.6060   -5.9900   23.6860 C   0  0  0  0  0  0  0  0  0  0  0  0
    7.4130   -5.1330   22.7440 C   0  0  2  0  0  0  0  0  0  0  0  0
  2  3  1  0
  1  7  1  0
  1  8  1  0
  6  8  2  0
  4  9  1  0
  9  8  1  6
 10 11  1  0
 10 12  1  0
 10 13  1  0
  5 14  1  0
  5 15  1  0
  5 16  1  0
 20 18  1  6
 19 20  1  0
 22 17  1  1
 20 22  1  0
 17 24  1  0
 21 24  2  0
 24 25  1  0
 26 27  2  3
  4 28  1  0
 28 29  1  0
 30 33  2  0
 31 33  2  0
 34 35  2  0
 35 36  1  0
 36 37  2  0
  9 38  1  0
 37 38  1  0
 34 39  1  0
 38 39  2  0
 40 41  2  0
 10 42  1  0
 41 42  1  0
 42 43  2  0
 43 44  1  0
  4 45  1  0
 40 45  1  0
 44 45  2  0
 46 47  2  0
  3 48  1  0
 47 48  1  0
  5 49  1  0
 48 49  2  0
  7 50  1  0
 49 50  1  0
 46 51  1  0
 50 51  2  0
 52 53  1  0
 53 54  1  1
 54 55  1  0
 55 56  1  0
 56 57  1  0
 31 58  1  0
 52 58  1  0
 58 57  1  6
 32 59  1  0
 59 60  2  0
 33 61  1  6
 60 61  1  0
 61 62  2  0
 62 63  1  0
 59 64  1  0
 63 64  2  0
 65 26  1  6
 29 65  1  0
 65 66  1  0
 22 67  1  0
 67 23  1  6
 66 67  1  0
 33 68  1  0
 67 68  1  0
 68 69  1  0
 53 70  1  0
 65 70  1  0
 70 69  1  1
M  END
