x0978-x3110-x3113-x0731-x0691
     RDKit          3D

 62 69  0  0  0  0  0  0  0  0999 V2000
    8.0320    1.7810   23.3770 N   0  0  0  0  0  0  0  0  0  0  0  0
   13.4070    5.2180   22.9140 C   0  0  0  0  0  0  0  0  0  0  0  0
   12.1070    3.3020   22.3510 O   0  0  0  0  0  0  0  0  0  0  0  0
   12.5330    4.5780   21.8690 C   0  0  0  0  0  0  0  0  0  0  0  0
    7.3750   -1.0330   22.0730 N   0  0  0  0  0  0  0  0  0  0  0  0
   11.1730    4.4040   24.1160 O   0  0  0  0  0  0  0  0  0  0  0  0
   11.2630    3.4140   23.4030 C   0  0  0  0  0  0  0  0  0  0  0  0
    8.8220    1.9860   21.2240 O   0  0  0  0  0  0  0  0  0  0  0  0
   10.4500    2.1740   23.5810 C   0  0  0  0  0  0  0  0  0  0  0  0
    9.0540    2.5850   24.0110 C   0  0  0  0  0  0  0  0  0  0  0  0
    8.0570    1.4560   22.0350 C   0  0  0  0  0  0  0  0  0  0  0  0
    7.0220    0.3620   21.7030 C   0  0  1  0  0  0  0  0  0  0  0  0
   12.4990   -1.7840   24.1790 C   0  0  0  0  0  0  0  0  0  0  0  0
   12.7450   -0.5720   25.0300 C   0  0  0  0  0  0  0  0  0  0  0  0
   13.4000   -1.7890   22.9630 C   0  0  0  0  0  0  0  0  0  0  0  0
   12.7940   -3.0100   24.9980 C   0  0  0  0  0  0  0  0  0  0  0  0
    2.1820   -5.6590   22.8830 N   0  0  0  0  0  0  0  0  0  0  0  0
    1.9960   -8.3800   24.3450 C   0  0  0  0  0  0  0  0  0  0  0  0
    4.3500   -8.0910   24.4370 O   0  0  0  0  0  0  0  0  0  0  0  0
    3.1510   -7.3600   24.2890 C   0  0  1  0  0  0  0  0  0  0  0  0
    0.6690   -7.4690   21.8410 O   0  0  0  0  0  0  0  0  0  0  0  0
    3.3600   -6.5080   23.0250 C   0  0  2  0  0  0  0  0  0  0  0  0
    4.5760   -5.4150   25.1210 O   0  0  0  0  0  0  0  0  0  0  0  0
    0.8960   -6.2190   22.4820 C   0  0  0  0  0  0  0  0  0  0  0  0
   -0.3600   -5.3860   22.7520 C   0  0  0  0  0  0  0  0  0  0  0  0
    6.8810   -5.3780   20.4090 C   0  0  0  0  0  0  0  0  0  0  0  0
    5.6450   -6.0230   19.9760 C   0  0  0  0  0  0  0  0  0  0  0  0
    7.0580   -1.9400   21.0450 C   0  0  0  0  0  0  0  0  0  0  0  0
    6.0070   -2.7340   21.3410 C   0  0  0  0  0  0  0  0  0  0  0  0
    6.6420   -3.9910   26.5190 O   0  0  0  0  0  0  0  0  0  0  0  0
    5.7240   -6.2300   26.3870 N   0  0  0  0  0  0  0  0  0  0  0  0
    5.8850   -4.8700   25.6720 S   0  0  1  0  0  0  0  0  0  0  0  0
    3.7670   -0.7070   26.1690 O   0  0  0  0  0  0  0  0  0  0  0  0
    6.3510    0.3310   17.9630 N   0  0  0  0  0  0  0  0  0  0  0  0
    5.2360    1.1340   17.7970 C   0  0  0  0  0  0  0  0  0  0  0  0
    4.7030    1.6760   18.9810 C   0  0  0  0  0  0  0  0  0  0  0  0
    5.2640    1.4280   20.2290 C   0  0  0  0  0  0  0  0  0  0  0  0
    6.3870    0.6240   20.3470 C   0  0  0  0  0  0  0  0  0  0  0  0
    6.8880    0.0940   19.1730 C   0  0  0  0  0  0  0  0  0  0  0  0
    9.6160   -1.6870   21.8900 C   0  0  0  0  0  0  0  0  0  0  0  0
   10.8740   -1.8800   22.4040 C   0  0  0  0  0  0  0  0  0  0  0  0
   11.1120   -1.5910   23.7340 C   0  0  0  0  0  0  0  0  0  0  0  0
   10.1060   -1.1200   24.5770 C   0  0  0  0  0  0  0  0  0  0  0  0
    8.8380   -0.9320   24.0400 C   0  0  0  0  0  0  0  0  0  0  0  0
    8.5900   -1.1990   22.7180 C   0  0  0  0  0  0  0  0  0  0  0  0
    2.1330   -2.6860   25.3800 C   0  0  0  0  0  0  0  0  0  0  0  0
    1.9190   -4.0290   25.3520 C   0  0  0  0  0  0  0  0  0  0  0  0
    3.1140   -4.6480   25.1410 C   0  0  0  0  0  0  0  0  0  0  0  0
    4.1860   -4.2750   25.6950 C   0  0  0  0  0  0  0  0  0  0  0  0
    3.3150   -3.3640   26.2610 C   0  0  2  0  0  0  0  0  0  0  0  0
    3.2180   -1.9550   25.9690 C   0  0  0  0  0  0  0  0  0  0  0  0
    6.1700   -4.3690   22.2480 S   0  0  0  0  0  0  0  0  0  0  0  0
    7.9750   -3.8450   23.0840 C   0  0  0  0  0  0  0  0  0  0  0  0
    6.8180   -3.5600   23.9220 C   0  0  0  0  0  0  0  0  0  0  0  0
    6.3740   -4.9800   23.9180 C   0  0  1  0  0  0  0  0  0  0  0  0
    4.9930   -5.5980   23.1310 S   0  0  0  0  0  0  0  0  0  0  0  0
    4.4930   -4.2110   22.6760 C   0  0  0  0  0  0  0  0  0  0  0  0
    4.4920   -6.7360   26.7180 N   0  0  0  0  0  0  0  0  0  0  0  0
    4.7410   -4.5240   28.0680 O   0  0  0  0  0  0  0  0  0  0  0  0
    3.8130   -5.6920   27.6810 S   0  0  0  0  0  0  0  0  0  0  0  0
    1.4620   -0.3600   26.2560 C   0  0  0  0  0  0  0  0  0  0  0  0
    2.7290    0.2390   26.0710 C   0  0  0  0  0  0  0  0  0  0  0  0
  2  4  1  0
  3  4  1  0
  3  7  1  0
  6  7  2  0
  7  9  1  0
  1 10  1  0
  9 10  1  0
  1 11  1  0
  8 11  2  0
  5 12  1  0
 12 11  1  6
 13 14  1  0
 13 15  1  0
 13 16  1  0
 20 18  1  6
 19 20  1  0
 22 17  1  1
 20 22  1  0
 17 24  1  0
 21 24  2  0
 24 25  1  0
 26 27  2  3
  5 28  1  0
 28 29  1  0
 30 32  2  0
 31 32  2  0
 34 35  2  0
 35 36  1  0
 36 37  2  0
 12 38  1  0
 37 38  1  0
 34 39  1  0
 38 39  2  0
 40 41  2  0
 13 42  1  0
 41 42  1  0
 42 43  2  0
 43 44  1  0
  5 45  1  0
 40 45  1  0
 44 45  2  0
 46 47  1  0
 47 48  1  0
 32 49  1  6
 48 49  2  0
 46 50  1  0
 48 50  1  0
 50 49  1  6
 33 51  1  0
 46 51  2  0
 50 51  1  0
 26 52  1  0
 29 52  1  0
 52 53  1  0
 53 54  1  0
 32 55  1  0
 52 55  1  0
 55 54  1  1
 22 56  1  0
 23 56  1  0
 52 56  1  0
 55 56  1  0
 52 57  1  0
 56 57  1  0
 31 58  1  0
 58 60  2  0
 59 60  2  0
 33 62  1  0
 61 62  1  0
M  END
