x0978-x3117-x3110-x3113
     RDKit          3D

 48 51  0  0  0  0  0  0  0  0999 V2000
    8.1920    1.8180   23.2660 N   0  0  0  0  0  0  0  0  0  0  0  0
   13.4940    5.3680   22.8450 C   0  0  0  0  0  0  0  0  0  0  0  0
   12.1490    3.4790   23.3140 O   0  0  0  0  0  0  0  0  0  0  0  0
   12.5360    4.3710   22.2690 C   0  0  0  0  0  0  0  0  0  0  0  0
    7.0180   -1.2270   22.3480 N   0  0  0  0  0  0  0  0  0  0  0  0
   10.8220    3.4420   23.3660 C   0  0  0  0  0  0  0  0  0  0  0  0
    8.6880    1.5750   21.1160 O   0  0  0  0  0  0  0  0  0  0  0  0
   10.1710    2.6680   22.3450 C   0  0  0  0  0  0  0  0  0  0  0  0
    7.8590    1.1670   22.0720 C   0  0  0  0  0  0  0  0  0  0  0  0
    6.6890    0.1750   21.8430 C   0  0  1  0  0  0  0  0  0  0  0  0
   12.5340   -1.8470   24.1530 C   0  0  0  0  0  0  0  0  0  0  0  0
   12.7660   -0.5400   24.8370 C   0  0  0  0  0  0  0  0  0  0  0  0
   13.4510   -1.9740   22.9480 C   0  0  0  0  0  0  0  0  0  0  0  0
   12.9030   -2.9870   25.0770 C   0  0  0  0  0  0  0  0  0  0  0  0
    2.0110   -5.6270   23.1520 N   0  0  0  0  0  0  0  0  0  0  0  0
    2.1250   -7.9890   24.7950 C   0  0  0  0  0  0  0  0  0  0  0  0
    4.5760   -7.9300   24.2920 O   0  0  0  0  0  0  0  0  0  0  0  0
    3.3830   -7.2140   24.4290 C   0  0  1  0  0  0  0  0  0  0  0  0
    5.3220   -5.5850   21.7800 N   0  0  0  0  0  0  0  0  0  0  0  0
    0.7220   -7.3640   21.8430 O   0  0  0  0  0  0  0  0  0  0  0  0
    3.2530   -6.4050   23.1260 C   0  0  2  0  0  0  0  0  0  0  0  0
    4.5630   -4.4750   23.6080 O   0  0  0  0  0  0  0  0  0  0  0  0
    0.8570   -6.1510   22.5930 C   0  0  0  0  0  0  0  0  0  0  0  0
   -0.3320   -5.4510   22.7460 C   0  0  0  0  0  0  0  0  0  0  0  0
    4.4270   -5.4340   22.8460 C   0  0  0  0  0  0  0  0  0  0  0  0
    6.3710   -4.7320   21.4830 C   0  0  1  0  0  0  0  0  0  0  0  0
    6.4640   -4.4120   19.9750 C   0  0  0  0  0  0  0  0  0  0  0  0
    5.3780   -3.5760   19.4200 C   0  0  0  0  0  0  0  0  0  0  0  0
    6.7220   -2.3120   21.6410 C   0  0  0  0  0  0  0  0  0  0  0  0
    6.2760   -3.4110   22.2740 C   0  0  0  0  0  0  0  0  0  0  0  0
    6.3960    0.1530   18.0300 N   0  0  0  0  0  0  0  0  0  0  0  0
    5.3150    0.9590   17.9260 C   0  0  0  0  0  0  0  0  0  0  0  0
    4.6780    1.4910   19.0160 C   0  0  0  0  0  0  0  0  0  0  0  0
    5.1300    1.2230   20.3130 C   0  0  0  0  0  0  0  0  0  0  0  0
    6.2320    0.4100   20.4260 C   0  0  0  0  0  0  0  0  0  0  0  0
    6.8890   -0.1480   19.3170 C   0  0  0  0  0  0  0  0  0  0  0  0
    9.3690   -1.8040   21.8620 C   0  0  0  0  0  0  0  0  0  0  0  0
   10.8000   -1.9990   22.2090 C   0  0  0  0  0  0  0  0  0  0  0  0
   11.1560   -1.7330   23.6400 C   0  0  0  0  0  0  0  0  0  0  0  0
   10.0230   -1.3070   24.5590 C   0  0  0  0  0  0  0  0  0  0  0  0
    8.7410   -1.1710   24.1060 C   0  0  0  0  0  0  0  0  0  0  0  0
    8.4140   -1.4020   22.8070 C   0  0  0  0  0  0  0  0  0  0  0  0
    9.2380    4.5710   24.8210 O   0  0  0  0  0  0  0  0  0  0  0  0
    9.6540    3.8150   23.9060 C   0  0  0  0  0  0  0  0  0  0  0  0
    8.8690    3.1040   22.9980 C   0  0  2  0  0  0  0  0  0  0  0  0
    7.9550    3.8840   22.3750 C   0  0  0  0  0  0  0  0  0  0  0  0
    7.9050    5.1990   22.7930 C   0  0  0  0  0  0  0  0  0  0  0  0
    8.6020    5.6580   24.0960 C   0  0  0  0  0  0  0  0  0  0  0  0
  2  4  1  0
  3  4  1  0
  3  6  1  0
  6  8  1  0
  1  9  1  0
  7  9  2  0
  5 10  1  0
 10  9  1  6
 11 12  1  0
 11 13  1  0
 11 14  1  0
 18 16  1  6
 17 18  1  0
 21 15  1  1
 18 21  1  0
 15 23  1  0
 20 23  2  0
 23 24  1  0
 19 25  1  0
 21 25  1  0
 22 25  2  0
 19 26  1  0
 26 27  1  6
 27 28  2  3
  5 29  1  0
 26 30  1  0
 29 30  1  0
 31 32  2  0
 32 33  1  0
 33 34  2  0
 10 35  1  0
 34 35  1  0
 31 36  1  0
 35 36  2  0
 37 38  2  0
 11 39  1  0
 38 39  1  0
 39 40  2  0
 40 41  1  0
  5 42  1  0
 37 42  1  0
 41 42  2  0
  6 44  2  0
 43 44  1  0
 45  1  1  1
  8 45  1  0
 44 45  1  0
 45 46  1  0
 46 47  1  0
 43 48  1  0
 47 48  1  0
M  END
