x0978-x2643
     RDKit          3D

 33 34  0  0  0  0  0  0  0  0999 V2000
    1.9060   -5.6900   23.5110 N   0  0  0  0  0  0  0  0  0  0  0  0
    2.2300   -8.0310   24.4330 C   0  0  0  0  0  0  0  0  0  0  0  0
    4.5060   -7.5000   24.4850 O   0  0  0  0  0  0  0  0  0  0  0  0
    3.2240   -6.8820   24.5230 C   0  0  1  0  0  0  0  0  0  0  0  0
    5.2640   -5.4950   22.1480 N   0  0  0  0  0  0  0  0  0  0  0  0
    0.9700   -7.4420   21.8260 O   0  0  0  0  0  0  0  0  0  0  0  0
    3.0700   -5.7920   23.4150 C   0  0  2  0  0  0  0  0  0  0  0  0
    4.9040   -4.7230   24.3340 O   0  0  0  0  0  0  0  0  0  0  0  0
    0.9030   -6.2620   22.6060 C   0  0  0  0  0  0  0  0  0  0  0  0
   -0.3020   -5.5750   22.5000 C   0  0  0  0  0  0  0  0  0  0  0  0
    4.4420   -5.3130   23.3680 C   0  0  0  0  0  0  0  0  0  0  0  0
    6.0890   -4.5120   21.6250 C   0  0  2  0  0  0  0  0  0  0  0  0
    6.3870   -4.8580   20.1790 C   0  0  0  0  0  0  0  0  0  0  0  0
    5.7360   -6.1710   19.8200 C   0  0  0  0  0  0  0  0  0  0  0  0
    6.7610   -0.8020   20.9390 N   0  0  0  0  0  0  0  0  0  0  0  0
    8.6680    0.4090   21.1970 O   0  0  0  0  0  0  0  0  0  0  0  0
   13.4280   -0.0220   22.8060 Cl  0  0  0  0  0  0  0  0  0  0  0  0
    8.0240   -0.8150   22.9870 C   0  0  1  0  0  0  0  0  0  0  0  0
    7.8600   -0.3790   21.6720 C   0  0  0  0  0  0  0  0  0  0  0  0
    7.2250   -4.3350   22.4390 C   0  0  0  0  0  0  0  0  0  0  0  0
    7.8240   -3.0890   22.2830 C   0  0  0  0  0  0  0  0  0  0  0  0
    7.6060   -2.2570   23.3300 C   0  0  0  0  0  0  0  0  0  0  0  0
   11.8710   -0.2610   23.3630 C   0  0  0  0  0  0  0  0  0  0  0  0
   11.3380   -0.3270   24.7810 C   0  0  0  0  0  0  0  0  0  0  0  0
    9.8730   -0.5300   24.8290 C   0  0  0  0  0  0  0  0  0  0  0  0
    9.3150   -0.6330   23.4250 C   0  0  0  0  0  0  0  0  0  0  0  0
   10.5830   -0.4800   22.2570 S   0  0  0  0  0  0  0  0  0  0  0  0
    6.4280    0.6680   17.6630 N   0  0  0  0  0  0  0  0  0  0  0  0
    6.9290   -0.0610   18.6820 C   0  0  0  0  0  0  0  0  0  0  0  0
    6.2730   -0.1020   19.9130 C   0  0  0  0  0  0  0  0  0  0  0  0
    5.0880    0.6040   20.0890 C   0  0  0  0  0  0  0  0  0  0  0  0
    4.5440    1.3530   19.0870 C   0  0  0  0  0  0  0  0  0  0  0  0
    5.1520    1.4280   17.8840 C   0  0  0  0  0  0  0  0  0  0  0  0
  4  2  1  6
  3  4  1  0
  7  1  1  1
  4  7  1  0
  1  9  1  0
  6  9  2  0
  9 10  1  0
  5 11  1  0
  7 11  1  0
  8 11  2  0
  5 12  1  0
 12 13  1  6
 13 14  2  3
 15 19  1  0
 16 19  2  0
 18 19  1  0
 12 20  1  0
 20 21  1  0
 18 22  1  6
 21 22  1  0
 17 23  1  0
 23 24  2  0
 24 25  1  0
 18 26  1  0
 25 26  2  0
 23 27  1  0
 26 27  1  0
 28 29  2  0
 15 30  1  0
 29 30  1  0
 30 31  2  0
 31 32  1  0
 28 33  1  0
 32 33  2  0
M  END
