x0978-x0692
     RDKit          3D

 29 30  0  0  0  0  0  0  0  0999 V2000
    1.8740   -5.8310   23.5760 N   0  0  0  0  0  0  0  0  0  0  0  0
    2.1770   -8.0940   24.5660 C   0  0  0  0  0  0  0  0  0  0  0  0
    4.4670   -7.7500   24.1880 O   0  0  0  0  0  0  0  0  0  0  0  0
    3.2710   -7.0400   24.4990 C   0  0  1  0  0  0  0  0  0  0  0  0
    5.2610   -5.7400   22.2340 N   0  0  0  0  0  0  0  0  0  0  0  0
    0.9020   -7.4420   21.7740 O   0  0  0  0  0  0  0  0  0  0  0  0
    3.0370   -5.9140   23.4490 C   0  0  2  0  0  0  0  0  0  0  0  0
    4.8310   -4.7580   24.3200 O   0  0  0  0  0  0  0  0  0  0  0  0
    0.8640   -6.3050   22.6200 C   0  0  0  0  0  0  0  0  0  0  0  0
   -0.3130   -5.5680   22.5300 C   0  0  0  0  0  0  0  0  0  0  0  0
    4.4020   -5.4410   23.4000 C   0  0  0  0  0  0  0  0  0  0  0  0
    6.0650   -4.7760   21.6910 C   0  0  1  0  0  0  0  0  0  0  0  0
    6.3280   -5.0200   20.2350 C   0  0  0  0  0  0  0  0  0  0  0  0
    5.6750   -6.2650   19.7350 C   0  0  0  0  0  0  0  0  0  0  0  0
   10.7570    2.2690   23.9020 C   0  0  0  0  0  0  0  0  0  0  0  0
    9.5000   -2.5240   23.8090 C   0  0  0  0  0  0  0  0  0  0  0  0
   11.2430    0.8850   23.6300 C   0  0  0  0  0  0  0  0  0  0  0  0
   10.3450   -0.1690   23.8100 C   0  0  0  0  0  0  0  0  0  0  0  0
   10.6280   -1.5260   23.5800 C   0  0  0  0  0  0  0  0  0  0  0  0
   12.0400   -1.8990   23.1010 C   0  0  0  0  0  0  0  0  0  0  0  0
   13.0010   -0.7260   22.9170 C   0  0  0  0  0  0  0  0  0  0  0  0
   12.5560    0.6790   23.1990 C   0  0  0  0  0  0  0  0  0  0  0  0
    6.4940   -1.7220   21.0940 N   0  0  0  0  0  0  0  0  0  0  0  0
    7.8060   -1.1400   20.8620 C   0  0  0  0  0  0  0  0  0  0  0  0
    8.6600   -1.2630   21.9380 C   0  0  0  0  0  0  0  0  0  0  0  0
    8.5410   -2.5100   22.7210 N   0  0  0  0  0  0  0  0  0  0  0  0
    7.1880   -2.7770   23.1950 C   0  0  0  0  0  0  0  0  0  0  0  0
    6.1530   -2.4250   22.3290 C   0  0  2  0  0  0  0  0  0  0  0  0
    5.3510   -3.4440   21.9210 C   0  0  0  0  0  0  0  0  0  0  0  0
  4  2  1  6
  3  4  1  0
  7  1  1  1
  4  7  1  0
  1  9  1  0
  6  9  2  0
  9 10  1  0
  5 11  1  0
  7 11  1  0
  8 11  2  0
  5 12  1  0
 12 13  1  6
 13 14  2  3
 15 17  1  0
 17 18  2  0
 16 19  1  0
 18 19  1  0
 19 20  2  0
 20 21  1  0
 17 22  1  0
 21 22  2  0
 23 24  1  0
 24 25  1  0
 16 26  1  0
 25 26  1  0
 26 27  1  0
 23 28  1  0
 27 28  1  0
 12 29  1  0
 28 29  1  6
M  END
