x0978-x0734
     RDKit          3D

 28 30  0  0  0  0  0  0  0  0999 V2000
    2.2600   -5.5380   23.0110 N   0  0  0  0  0  0  0  0  0  0  0  0
    2.3310   -7.7770   24.6110 C   0  0  0  0  0  0  0  0  0  0  0  0
    4.6180   -7.8510   24.1380 O   0  0  0  0  0  0  0  0  0  0  0  0
    3.6690   -7.1160   24.2900 C   0  0  1  0  0  0  0  0  0  0  0  0
    4.7460   -4.0780   21.8670 N   0  0  0  0  0  0  0  0  0  0  0  0
    0.8920   -7.4470   21.9610 O   0  0  0  0  0  0  0  0  0  0  0  0
    3.5170   -6.3050   22.9850 C   0  0  2  0  0  0  0  0  0  0  0  0
    6.0210   -5.9580   22.9780 N   0  0  0  0  0  0  0  0  0  0  0  0
    0.9780   -6.1890   22.6310 C   0  0  0  0  0  0  0  0  0  0  0  0
   -0.1560   -5.4340   23.0050 C   0  0  0  0  0  0  0  0  0  0  0  0
    4.7900   -5.4290   22.6080 C   0  0  0  0  0  0  0  0  0  0  0  0
    6.3850   -4.2820   20.1960 C   0  0  0  0  0  0  0  0  0  0  0  0
    5.2810   -3.5640   19.4790 C   0  0  0  0  0  0  0  0  0  0  0  0
    4.9730   -4.2880   26.1240 N   0  0  0  0  0  0  0  0  0  0  0  0
    4.0360   -5.0980   26.1720 O   0  0  0  0  0  0  0  0  0  0  0  0
    4.8620   -3.0240   26.6710 O   0  0  0  0  0  0  0  0  0  0  0  0
    6.1940   -4.8360   26.1760 C   0  0  0  0  0  0  0  0  0  0  0  0
    7.1640   -4.8230   25.1570 C   0  0  0  0  0  0  0  0  0  0  0  0
    8.3210   -5.4500   25.4770 C   0  0  0  0  0  0  0  0  0  0  0  0
    8.6540   -6.0900   26.6540 C   0  0  0  0  0  0  0  0  0  0  0  0
    7.6990   -6.0920   27.6520 C   0  0  0  0  0  0  0  0  0  0  0  0
    6.4750   -5.4710   27.4130 C   0  0  0  0  0  0  0  0  0  0  0  0
    6.4330   -2.8620   21.9000 N   0  0  0  0  0  0  0  0  0  0  0  0
    6.1240   -4.1890   21.8080 C   0  0  1  0  0  0  0  0  0  0  0  0
    6.8920   -5.0150   22.5610 C   0  0  1  0  0  0  0  0  0  0  0  0
    7.2040   -4.2720   23.8440 N   0  0  0  0  0  0  0  0  0  0  0  0
    8.1710   -3.1900   23.7210 C   0  0  0  0  0  0  0  0  0  0  0  0
    7.7980   -2.5200   22.3940 C   0  0  0  0  0  0  0  0  0  0  0  0
  4  2  1  6
  3  4  1  0
  7  1  1  1
  4  7  1  0
  1  9  1  0
  6  9  2  0
  9 10  1  0
  5 11  1  0
  7 11  1  0
  8 11  2  0
 12 13  2  3
 14 15  2  0
 14 16  1  0
 14 17  1  0
 17 18  2  0
 18 19  1  0
 19 20  2  0
 20 21  1  0
 17 22  1  0
 21 22  2  0
  5 24  1  0
 24 12  1  6
 23 24  1  0
 25  8  1  1
 24 25  1  0
 18 26  1  0
 25 26  1  0
 26 27  1  0
 23 28  1  0
 27 28  1  0
M  CHG  2  14   1  16  -1
M  END
