x0978-x2776-x0755-x1458
     RDKit          3D

 68 74  0  0  0  0  0  0  0  0999 V2000
    2.3150   -5.6430   23.0710 N   0  0  0  0  0  0  0  0  0  0  0  0
    1.9200   -8.3350   24.1360 C   0  0  0  0  0  0  0  0  0  0  0  0
    4.0980   -8.1100   24.9120 O   0  0  0  0  0  0  0  0  0  0  0  0
    3.0010   -7.3480   24.4500 C   0  0  1  0  0  0  0  0  0  0  0  0
    0.9310   -7.2500   21.9830 O   0  0  0  0  0  0  0  0  0  0  0  0
    3.4160   -6.6380   23.2710 C   0  0  2  0  0  0  0  0  0  0  0  0
    1.0070   -6.1750   22.6180 C   0  0  0  0  0  0  0  0  0  0  0  0
   -0.2490   -5.3660   22.9630 C   0  0  0  0  0  0  0  0  0  0  0  0
    6.4350   -4.6420   19.9500 C   0  0  0  0  0  0  0  0  0  0  0  0
    5.9020   -5.8650   19.8890 C   0  0  0  0  0  0  0  0  0  0  0  0
    7.3320   -1.3480   21.7790 N   0  0  0  0  0  0  0  0  0  0  0  0
    7.9500    1.9590   22.9610 N   0  0  0  0  0  0  0  0  0  0  0  0
    8.9290    1.3720   21.0130 O   0  0  0  0  0  0  0  0  0  0  0  0
   10.8010    6.7540   24.0080 O   0  0  0  0  0  0  0  0  0  0  0  0
    6.9110    0.0760   21.5390 C   0  0  1  0  0  0  0  0  0  0  0  0
   12.3100   -2.6640   25.3670 O   0  0  0  0  0  0  0  0  0  0  0  0
    8.0060    1.1590   21.8110 C   0  0  0  0  0  0  0  0  0  0  0  0
   10.6590    1.7100   23.7650 C   0  0  0  0  0  0  0  0  0  0  0  0
   11.8690    6.7230   24.9100 C   0  0  0  0  0  0  0  0  0  0  0  0
   12.3760   -1.8010   24.3210 C   0  0  2  0  0  0  0  0  0  0  0  0
   12.8340   -0.5590   24.6110 C   0  0  0  0  0  0  0  0  0  0  0  0
   13.5580   -3.2440   25.6220 C   0  0  0  0  0  0  0  0  0  0  0  0
    6.4710   -2.3290   21.1630 C   0  0  0  0  0  0  0  0  0  0  0  0
    7.2290   -3.5840   26.5680 N   0  0  0  0  0  0  0  0  0  0  0  0
    9.4200   -4.7750   26.9050 C   0  0  0  0  0  0  0  0  0  0  0  0
    4.8580   -3.3200   25.5020 N   0  0  0  0  0  0  0  0  0  0  0  0
    7.9500   -4.6010   27.3600 C   0  0  0  0  0  0  0  0  0  0  0  0
    7.2480   -5.7850   27.6580 C   0  0  0  0  0  0  0  0  0  0  0  0
    6.9370   -2.5580   27.3630 C   0  0  0  0  0  0  0  0  0  0  0  0
    6.2900   -3.7630   25.5220 C   0  0  0  0  0  0  0  0  0  0  0  0
    4.6240   -7.0800   26.1730 O   0  0  0  0  0  0  0  0  0  0  0  0
    5.4630   -4.8800   26.9630 O   0  0  0  0  0  0  0  0  0  0  0  0
    2.2750   -4.8360   25.4540 F   0  0  0  0  0  0  0  0  0  0  0  0
    4.8000   -0.7490   26.5400 F   0  0  0  0  0  0  0  0  0  0  0  0
    4.6280   -5.6490   25.9270 S   0  0  0  0  0  0  0  0  0  0  0  0
    6.2540    0.4610   17.7610 N   0  0  0  0  0  0  0  0  0  0  0  0
    5.2170    1.3280   17.7500 C   0  0  0  0  0  0  0  0  0  0  0  0
    4.7050    1.7910   18.9620 C   0  0  0  0  0  0  0  0  0  0  0  0
    5.2870    1.3490   20.1330 C   0  0  0  0  0  0  0  0  0  0  0  0
    6.4390    0.3960   20.1550 C   0  0  0  0  0  0  0  0  0  0  0  0
    6.9150   -0.0520   18.9530 C   0  0  0  0  0  0  0  0  0  0  0  0
    9.9590    3.0710   23.6020 C   0  0  0  0  0  0  0  0  0  0  0  0
   10.6580    4.3500   23.8630 C   0  0  0  0  0  0  0  0  0  0  0  0
   10.0490    5.6050   23.7220 C   0  0  0  0  0  0  0  0  0  0  0  0
    8.7140    5.6880   23.3050 C   0  0  0  0  0  0  0  0  0  0  0  0
    7.9740    4.5280   23.0360 C   0  0  0  0  0  0  0  0  0  0  0  0
    8.6290    3.1350   23.1990 C   0  0  0  0  0  0  0  0  0  0  0  0
    9.5600   -2.0220   21.7400 C   0  0  0  0  0  0  0  0  0  0  0  0
   10.9570   -2.2100   22.2720 C   0  0  0  0  0  0  0  0  0  0  0  0
   11.0950   -1.6940   23.6650 C   0  0  0  0  0  0  0  0  0  0  0  0
    9.9980   -1.1170   24.3150 C   0  0  0  0  0  0  0  0  0  0  0  0
    8.7580   -0.9950   23.7110 C   0  0  0  0  0  0  0  0  0  0  0  0
    8.5540   -1.4560   22.4030 C   0  0  0  0  0  0  0  0  0  0  0  0
    6.2880   -4.0700   21.8110 S   0  0  0  0  0  0  0  0  0  0  0  0
    4.8690   -3.2840   22.6720 C   0  0  0  0  0  0  0  0  0  0  0  0
    5.6820   -3.0200   23.7270 C   0  0  0  0  0  0  0  0  0  0  0  0
    6.0850   -4.2370   24.2040 C   0  0  1  0  0  0  0  0  0  0  0  0
    6.8890   -4.8560   23.2840 C   0  0  2  0  0  0  0  0  0  0  0  0
    8.1090   -4.0720   22.8460 C   0  0  0  0  0  0  0  0  0  0  0  0
    2.3580   -3.5480   25.9290 C   0  0  0  0  0  0  0  0  0  0  0  0
    3.7780   -2.7640   25.9600 C   0  0  0  0  0  0  0  0  0  0  0  0
    3.6560   -1.4240   26.4960 C   0  0  0  0  0  0  0  0  0  0  0  0
    2.3870   -0.7360   26.9860 C   0  0  0  0  0  0  0  0  0  0  0  0
    1.1420   -1.5140   26.9150 C   0  0  0  0  0  0  0  0  0  0  0  0
    0.9730   -2.9420   26.4090 C   0  0  0  0  0  0  0  0  0  0  0  0
    4.9910   -5.1150   24.3310 N   0  0  0  0  0  0  0  0  0  0  0  0
    4.8690   -6.0580   23.3010 C   0  0  2  0  0  0  0  0  0  0  0  0
    5.5890   -5.8150   21.9980 C   0  0  0  0  0  0  0  0  0  0  0  0
  4  2  1  6
  3  4  1  0
  6  1  1  1
  4  6  1  0
  1  7  1  0
  5  7  2  0
  7  8  1  0
  9 10  2  3
 11 15  1  0
 12 17  1  0
 13 17  2  0
 15 17  1  6
 14 19  1  0
 16 20  1  0
 20 21  1  1
 16 22  1  0
 11 23  1  0
 24 27  1  0
 25 27  1  0
 27 28  1  0
 24 29  1  0
 24 30  1  0
 26 30  2  3
 31 35  2  0
 32 35  2  0
 36 37  2  0
 37 38  1  0
 38 39  2  0
 15 40  1  0
 39 40  1  0
 36 41  1  0
 40 41  2  0
 18 42  1  0
 42 43  2  0
 14 44  1  0
 43 44  1  0
 44 45  2  0
 45 46  1  0
 12 47  1  0
 42 47  1  0
 46 47  2  0
 48 49  2  0
 20 50  1  0
 49 50  1  0
 50 51  2  0
 51 52  1  0
 11 53  1  0
 48 53  1  0
 52 53  2  0
  9 54  1  0
 23 54  1  0
 54 55  1  0
 55 56  1  0
 57 30  1  1
 56 57  1  0
 54 58  1  0
 57 58  1  0
 54 59  1  0
 58 59  1  1
 33 60  1  0
 26 61  1  0
 60 61  2  0
 34 62  1  0
 61 62  1  0
 62 63  2  0
 63 64  1  0
 60 65  1  0
 64 65  2  0
 35 66  1  0
 57 66  1  0
  6 67  1  0
 66 67  1  0
 54 68  1  0
 67 68  1  6
M  END
