x0978-x3117-x3110-x0771
     RDKit          3D

 61 66  0  0  0  0  0  0  0  0999 V2000
    8.1620    1.6050   23.2540 N   0  0  0  0  0  0  0  0  0  0  0  0
   13.5520    5.2970   22.6470 C   0  0  0  0  0  0  0  0  0  0  0  0
   12.1370    3.4560   23.2460 O   0  0  0  0  0  0  0  0  0  0  0  0
   12.4200    4.2900   22.3930 C   0  0  0  0  0  0  0  0  0  0  0  0
    7.1700   -1.5600   21.9810 N   0  0  0  0  0  0  0  0  0  0  0  0
   10.8120    3.3560   23.3600 C   0  0  0  0  0  0  0  0  0  0  0  0
    8.6750    1.1990   21.0530 O   0  0  0  0  0  0  0  0  0  0  0  0
   10.1240    2.4570   22.4070 C   0  0  0  0  0  0  0  0  0  0  0  0
    7.9620    0.9280   22.0210 C   0  0  0  0  0  0  0  0  0  0  0  0
    6.8050   -0.0940   21.8160 C   0  0  1  0  0  0  0  0  0  0  0  0
   12.3880   -1.8610   24.1820 C   0  0  0  0  0  0  0  0  0  0  0  0
   12.5920   -0.5680   24.9650 C   0  0  0  0  0  0  0  0  0  0  0  0
   13.4220   -1.9780   23.0730 C   0  0  0  0  0  0  0  0  0  0  0  0
   12.6860   -3.0260   25.1340 C   0  0  0  0  0  0  0  0  0  0  0  0
    2.1210   -5.4740   23.2170 N   0  0  0  0  0  0  0  0  0  0  0  0
    1.9700   -7.5990   24.7760 C   0  0  0  0  0  0  0  0  0  0  0  0
    4.4060   -7.9820   24.3530 O   0  0  0  0  0  0  0  0  0  0  0  0
    3.1550   -7.5180   23.9040 C   0  0  2  0  0  0  0  0  0  0  0  0
    1.0140   -7.2690   22.0050 O   0  0  0  0  0  0  0  0  0  0  0  0
    3.3830   -6.1970   23.1610 C   0  0  2  0  0  0  0  0  0  0  0  0
    4.1410   -3.9790   23.2770 O   0  0  0  0  0  0  0  0  0  0  0  0
    0.9850   -6.0290   22.7110 C   0  0  0  0  0  0  0  0  0  0  0  0
   -0.2420   -5.4110   22.8590 C   0  0  0  0  0  0  0  0  0  0  0  0
    6.6900   -3.9290   20.0170 C   0  0  0  0  0  0  0  0  0  0  0  0
    5.4680   -3.4000   19.2910 C   0  0  0  0  0  0  0  0  0  0  0  0
    6.1140   -2.6400   22.0720 C   0  0  0  0  0  0  0  0  0  0  0  0
    0.8070   -1.0590   26.2200 C   0  0  0  0  0  0  0  0  0  0  0  0
    4.6140   -6.9140   26.1130 O   0  0  0  0  0  0  0  0  0  0  0  0
    6.3470   -4.9460   26.7220 O   0  0  0  0  0  0  0  0  0  0  0  0
    1.8420   -6.2340   25.8190 C   0  0  0  0  0  0  0  0  0  0  0  0
    5.2220   -5.4590   25.8520 S   0  0  0  0  0  0  0  0  0  0  0  0
    6.4030    0.1750   18.0220 N   0  0  0  0  0  0  0  0  0  0  0  0
    5.2810    0.9500   17.9560 C   0  0  0  0  0  0  0  0  0  0  0  0
    4.6060    1.4020   19.0630 C   0  0  0  0  0  0  0  0  0  0  0  0
    5.0820    1.0640   20.3350 C   0  0  0  0  0  0  0  0  0  0  0  0
    6.2420    0.2700   20.4420 C   0  0  0  0  0  0  0  0  0  0  0  0
    6.8600   -0.1490   19.2500 C   0  0  0  0  0  0  0  0  0  0  0  0
    9.5010   -1.5640   21.7490 C   0  0  0  0  0  0  0  0  0  0  0  0
   10.8090   -1.6320   22.1890 C   0  0  0  0  0  0  0  0  0  0  0  0
   10.9930   -1.8120   23.5900 C   0  0  0  0  0  0  0  0  0  0  0  0
    9.9210   -1.9330   24.4890 C   0  0  0  0  0  0  0  0  0  0  0  0
    8.6300   -1.8590   23.9590 C   0  0  0  0  0  0  0  0  0  0  0  0
    8.4310   -1.6700   22.6010 C   0  0  0  0  0  0  0  0  0  0  0  0
    9.2740    4.5180   24.8060 O   0  0  0  0  0  0  0  0  0  0  0  0
    9.6580    3.7120   23.9260 C   0  0  0  0  0  0  0  0  0  0  0  0
    8.8300    2.8890   23.0980 C   0  0  2  0  0  0  0  0  0  0  0  0
    7.9430    3.6930   22.4000 C   0  0  0  0  0  0  0  0  0  0  0  0
    7.7850    5.0280   22.8000 C   0  0  0  0  0  0  0  0  0  0  0  0
    8.5380    5.5170   24.0590 C   0  0  0  0  0  0  0  0  0  0  0  0
    1.8000   -2.1730   26.1190 C   0  0  0  0  0  0  0  0  0  0  0  0
    1.3070   -3.6240   26.0090 C   0  0  0  0  0  0  0  0  0  0  0  0
    2.3630   -4.7280   25.9210 C   0  0  0  0  0  0  0  0  0  0  0  0
    3.8210   -4.2810   25.9450 C   0  0  0  0  0  0  0  0  0  0  0  0
    4.1260   -2.9360   26.0440 C   0  0  0  0  0  0  0  0  0  0  0  0
    3.1800   -1.9150   26.1290 C   0  0  0  0  0  0  0  0  0  0  0  0
    6.5010   -4.1160   21.5650 C   0  0  1  0  0  0  0  0  0  0  0  0
    5.4700   -5.2610   21.7180 C   0  0  0  0  0  0  0  0  0  0  0  0
    4.7090   -5.2870   23.1250 C   0  0  2  0  0  0  0  0  0  0  0  0
    5.7250   -5.3620   24.2180 N   0  0  0  0  0  0  0  0  0  0  0  0
    7.0370   -4.6070   23.9910 C   0  0  0  0  0  0  0  0  0  0  0  0
    7.5790   -4.6420   22.5280 C   0  0  0  0  0  0  0  0  0  0  0  0
  2  4  1  0
  3  4  1  0
  3  6  1  0
  6  8  1  0
  1  9  1  0
  7  9  2  0
  5 10  1  0
 10  9  1  6
 11 12  1  0
 11 13  1  0
 11 14  1  0
 18 16  1  1
 17 18  1  0
 20 15  1  1
 18 20  1  0
 15 22  1  0
 19 22  2  0
 22 23  1  0
 24 25  2  3
  5 26  1  0
 28 31  2  0
 29 31  2  0
 32 33  2  0
 33 34  1  0
 34 35  2  0
 10 36  1  0
 35 36  1  0
 32 37  1  0
 36 37  2  0
 38 39  2  0
 11 40  1  0
 39 40  1  0
 40 41  2  0
 41 42  1  0
  5 43  1  0
 38 43  1  0
 42 43  2  0
  6 45  2  0
 44 45  1  0
 46  1  1  1
  8 46  1  0
 45 46  1  0
 46 47  1  0
 47 48  1  0
 44 49  1  0
 48 49  1  0
 27 50  1  0
 50 51  2  0
 30 52  1  0
 51 52  1  0
 31 53  1  0
 52 53  2  0
 53 54  1  0
 50 55  1  0
 54 55  2  0
 56 24  1  6
 26 56  1  0
 56 57  1  0
 20 58  1  0
 58 21  1  1
 57 58  1  0
 31 59  1  0
 58 59  1  0
 59 60  1  0
 56 61  1  0
 60 61  1  0
M  END
