x0978-x0991
     RDKit          3D

 20 19  0  0  0  0  0  0  0  0999 V2000
    2.0790   -5.6420   23.1310 N   0  0  0  0  0  0  0  0  0  0  0  0
    2.2120   -8.0050   24.6990 C   0  0  0  0  0  0  0  0  0  0  0  0
    4.5180   -7.8430   24.3180 O   0  0  0  0  0  0  0  0  0  0  0  0
    3.4880   -7.2170   24.4330 C   0  0  1  0  0  0  0  0  0  0  0  0
    5.5900   -6.0750   21.8970 N   0  0  0  0  0  0  0  0  0  0  0  0
    0.7370   -7.4150   21.8570 O   0  0  0  0  0  0  0  0  0  0  0  0
    3.3180   -6.4350   23.1240 C   0  0  2  0  0  0  0  0  0  0  0  0
    4.5880   -4.3480   23.2210 O   0  0  0  0  0  0  0  0  0  0  0  0
    0.8190   -6.1950   22.5850 C   0  0  0  0  0  0  0  0  0  0  0  0
   -0.3020   -5.3770   22.8550 C   0  0  0  0  0  0  0  0  0  0  0  0
    4.5310   -5.4990   22.7870 C   0  0  0  0  0  0  0  0  0  0  0  0
    6.8160   -5.4250   21.7420 C   0  0  1  0  0  0  0  0  0  0  0  0
    6.7450   -4.4730   20.4910 C   0  0  0  0  0  0  0  0  0  0  0  0
    5.4110   -4.4950   19.9710 C   0  0  0  0  0  0  0  0  0  0  0  0
    9.7790   -5.6720   25.2390 N   0  0  0  0  0  0  0  0  0  0  0  0
    8.8630   -3.1830   23.3230 C   0  0  0  0  0  0  0  0  0  0  0  0
    8.4520   -4.4990   23.5230 C   0  0  1  0  0  0  0  0  0  0  0  0
    7.4790   -4.6420   25.8320 N   0  0  0  0  0  0  0  0  0  0  0  0
    8.5490   -4.9310   24.8640 C   0  0  0  0  0  0  0  0  0  0  0  0
    7.0060   -4.6920   23.0200 C   0  0  0  0  0  0  0  0  0  0  0  0
  4  2  1  6
  3  4  1  0
  7  1  1  1
  4  7  1  0
  1  9  1  0
  6  9  2  0
  9 10  1  0
  5 11  1  0
  7 11  1  0
  8 11  2  0
  5 12  1  0
 12 13  1  6
 13 14  2  3
 17 16  1  1
 15 19  2  3
 17 19  1  0
 18 19  1  0
 12 20  1  0
 17 20  1  0
M  END
