x0978-x0387
     RDKit          3D

 30 31  0  0  0  0  0  0  0  0999 V2000
    1.9790   -5.6590   23.1160 N   0  0  0  0  0  0  0  0  0  0  0  0
    2.1830   -8.0650   24.7020 C   0  0  0  0  0  0  0  0  0  0  0  0
    4.4810   -7.6370   24.6000 O   0  0  0  0  0  0  0  0  0  0  0  0
    3.3770   -7.1370   24.5190 C   0  0  1  0  0  0  0  0  0  0  0  0
    5.2670   -5.9600   21.6370 N   0  0  0  0  0  0  0  0  0  0  0  0
    0.6730   -7.4410   21.8230 O   0  0  0  0  0  0  0  0  0  0  0  0
    3.2260   -6.4360   23.1510 C   0  0  2  0  0  0  0  0  0  0  0  0
    4.5550   -4.3810   23.2840 O   0  0  0  0  0  0  0  0  0  0  0  0
    0.7390   -6.2150   22.5390 C   0  0  0  0  0  0  0  0  0  0  0  0
   -0.3850   -5.3890   22.7750 C   0  0  0  0  0  0  0  0  0  0  0  0
    4.3920   -5.4750   22.7430 C   0  0  0  0  0  0  0  0  0  0  0  0
    6.4570   -5.3190   21.3640 C   0  0  1  0  0  0  0  0  0  0  0  0
    6.4470   -4.6040   19.9760 C   0  0  0  0  0  0  0  0  0  0  0  0
    5.3410   -3.6950   19.6080 C   0  0  0  0  0  0  0  0  0  0  0  0
    6.9690   -4.4980   22.5490 C   0  0  0  0  0  0  0  0  0  0  0  0
    6.9480   -5.0990   23.8010 C   0  0  0  0  0  0  0  0  0  0  0  0
    8.3400   -5.0530   27.0920 O   0  0  0  0  0  0  0  0  0  0  0  0
    9.6030   -1.8060   24.3830 C   0  0  0  0  0  0  0  0  0  0  0  0
    9.1550   -4.0990   26.4130 C   0  0  2  0  0  0  0  0  0  0  0  0
    8.8100   -4.0740   25.0740 C   0  0  2  0  0  0  0  0  0  0  0  0
    9.4570   -3.1910   24.1820 C   0  0  2  0  0  0  0  0  0  0  0  0
   10.8360   -3.5840   24.2890 N   0  0  0  0  0  0  0  0  0  0  0  0
   11.1810   -3.7440   25.5570 C   0  0  0  0  0  0  0  0  0  0  0  0
   10.4840   -4.7380   26.2170 C   0  0  0  0  0  0  0  0  0  0  0  0
   11.5850   -0.0980   24.1170 C   0  0  0  0  0  0  0  0  0  0  0  0
   10.9050   -1.3760   23.6730 C   0  0  0  0  0  0  0  0  0  0  0  0
   11.5630   -2.0330   22.6430 C   0  0  0  0  0  0  0  0  0  0  0  0
   12.9930   -1.1910   22.1770 S   0  0  0  0  0  0  0  0  0  0  0  0
   12.7300    0.1050   23.3670 C   0  0  0  0  0  0  0  0  0  0  0  0
    7.3210   -4.1320   24.9150 C   0  0  0  0  0  0  0  0  0  0  0  0
  4  2  1  6
  3  4  1  0
  7  1  1  1
  4  7  1  0
  1  9  1  0
  6  9  2  0
  9 10  1  0
  5 11  1  0
  7 11  1  0
  8 11  2  0
  5 12  1  0
 12 13  1  6
 13 14  2  3
 12 15  1  0
 15 16  1  0
 19 17  1  1
 19 20  1  0
 21 18  1  1
 20 21  1  0
 21 22  1  0
 22 23  1  0
 19 24  1  0
 23 24  1  0
 18 26  1  0
 25 26  1  0
 26 27  2  0
 27 28  1  0
 25 29  2  0
 28 29  1  0
 16 30  1  0
 20 30  1  1
M  END
