x0978-x0678
     RDKit          3D

 33 34  0  0  0  0  0  0  0  0999 V2000
    2.0240   -5.6410   23.1490 N   0  0  0  0  0  0  0  0  0  0  0  0
    2.1520   -8.1270   24.5850 C   0  0  0  0  0  0  0  0  0  0  0  0
    4.4510   -7.6810   24.6670 O   0  0  0  0  0  0  0  0  0  0  0  0
    3.3460   -7.1840   24.5540 C   0  0  1  0  0  0  0  0  0  0  0  0
    5.6270   -5.7150   22.3040 N   0  0  0  0  0  0  0  0  0  0  0  0
    0.7680   -7.4650   21.8560 O   0  0  0  0  0  0  0  0  0  0  0  0
    3.2940   -6.3780   23.2390 C   0  0  2  0  0  0  0  0  0  0  0  0
    4.3480   -4.2230   23.6240 O   0  0  0  0  0  0  0  0  0  0  0  0
    0.8030   -6.2290   22.5600 C   0  0  0  0  0  0  0  0  0  0  0  0
   -0.3380   -5.4210   22.7670 C   0  0  0  0  0  0  0  0  0  0  0  0
    4.4370   -5.3260   23.1000 C   0  0  0  0  0  0  0  0  0  0  0  0
    6.5030   -4.7720   21.8160 C   0  0  1  0  0  0  0  0  0  0  0  0
    6.5470   -4.9440   20.2960 C   0  0  0  0  0  0  0  0  0  0  0  0
    5.7130   -6.1240   19.8700 C   0  0  0  0  0  0  0  0  0  0  0  0
    9.3000    1.6980   21.3670 O   0  0  0  0  0  0  0  0  0  0  0  0
    8.7430    0.5160   21.9300 C   0  0  0  0  0  0  0  0  0  0  0  0
    9.3600   -0.1420   23.0080 C   0  0  0  0  0  0  0  0  0  0  0  0
    7.4870   -0.1480   21.4730 N   0  0  0  0  0  0  0  0  0  0  0  0
    6.0750   -3.3620   22.2650 C   0  0  0  0  0  0  0  0  0  0  0  0
    6.7480   -2.3720   21.5580 C   0  0  0  0  0  0  0  0  0  0  0  0
    6.9300   -1.1860   22.2060 C   0  0  0  0  0  0  0  0  0  0  0  0
   11.2480   -1.4320   22.3770 C   0  0  0  0  0  0  0  0  0  0  0  0
   12.6310   -1.6920   22.3370 C   0  0  0  0  0  0  0  0  0  0  0  0
   13.2940   -1.3490   23.5170 C   0  0  0  0  0  0  0  0  0  0  0  0
   12.3760   -0.9860   24.7130 C   0  0  0  0  0  0  0  0  0  0  0  0
   11.3460    0.0180   24.2540 C   0  0  0  0  0  0  0  0  0  0  0  0
   10.8640   -0.2140   22.9780 C   0  0  0  0  0  0  0  0  0  0  0  0
    5.7500    1.1800   20.3910 C   0  0  0  0  0  0  0  0  0  0  0  0
    5.0440    1.6100   19.2400 C   0  0  0  0  0  0  0  0  0  0  0  0
    5.4120    1.1040   18.0060 C   0  0  0  0  0  0  0  0  0  0  0  0
    6.4040    0.2230   17.8520 N   0  0  0  0  0  0  0  0  0  0  0  0
    7.1220   -0.2200   19.0460 C   0  0  0  0  0  0  0  0  0  0  0  0
    6.7970    0.2620   20.3010 C   0  0  0  0  0  0  0  0  0  0  0  0
  4  2  1  6
  3  4  1  0
  7  1  1  1
  4  7  1  0
  1  9  1  0
  6  9  2  0
  9 10  1  0
  5 11  1  0
  7 11  1  0
  8 11  2  0
  5 12  1  0
 12 13  1  6
 13 14  2  3
 15 16  2  0
 16 17  1  0
 16 18  1  0
 12 19  1  0
 19 20  1  0
 18 21  1  0
 20 21  1  0
 22 23  1  0
 23 24  1  0
 24 25  1  0
 25 26  1  0
 17 27  1  0
 22 27  1  0
 26 27  1  0
 28 29  2  0
 29 30  1  0
 30 31  2  0
 31 32  1  0
 18 33  1  0
 28 33  1  0
 32 33  2  0
M  END
