x0978-x0755-x2776-x1458-x2705
     RDKit          3D

 80 87  0  0  0  0  0  0  0  0999 V2000
    2.0640   -5.5440   23.1770 N   0  0  0  0  0  0  0  0  0  0  0  0
    2.2240   -7.7670   23.6320 C   0  0  0  0  0  0  0  0  0  0  0  0
    4.1170   -8.0630   25.1370 O   0  0  0  0  0  0  0  0  0  0  0  0
    3.0470   -7.2180   24.7700 C   0  0  1  0  0  0  0  0  0  0  0  0
    0.8080   -7.2950   21.8730 O   0  0  0  0  0  0  0  0  0  0  0  0
    3.2380   -6.3260   23.5650 C   0  0  2  0  0  0  0  0  0  0  0  0
    0.8380   -6.0770   22.6180 C   0  0  0  0  0  0  0  0  0  0  0  0
   -0.4260   -5.3870   22.8030 C   0  0  0  0  0  0  0  0  0  0  0  0
    6.3270   -4.6520   20.0840 C   0  0  0  0  0  0  0  0  0  0  0  0
    5.7520   -5.9740   19.8910 C   0  0  0  0  0  0  0  0  0  0  0  0
    6.9310   -1.3400   21.2440 N   0  0  0  0  0  0  0  0  0  0  0  0
    8.0040    2.5730   21.3570 N   0  0  0  0  0  0  0  0  0  0  0  0
    9.0860    0.5030   21.4580 O   0  0  0  0  0  0  0  0  0  0  0  0
   10.6340    5.8930   24.8200 O   0  0  0  0  0  0  0  0  0  0  0  0
    6.7900    0.0740   21.0900 C   0  0  2  0  0  0  0  0  0  0  0  0
   12.6240   -2.8540   24.6130 N   0  0  0  0  0  0  0  0  0  0  0  0
    7.8790    1.0700   21.3090 C   0  0  0  0  0  0  0  0  0  0  0  0
   10.2060    1.6270   22.8480 C   0  0  0  0  0  0  0  0  0  0  0  0
   12.0040    6.2150   24.6630 C   0  0  0  0  0  0  0  0  0  0  0  0
   11.6230   -2.0050   24.9640 C   0  0  1  0  0  0  0  0  0  0  0  0
   12.3370   -0.6410   24.9970 C   0  0  0  0  0  0  0  0  0  0  0  0
   13.3790   -3.3010   25.6670 C   0  0  0  0  0  0  0  0  0  0  0  0
    6.0710   -2.4310   21.4060 C   0  0  0  0  0  0  0  0  0  0  0  0
    5.4930   -0.4490   23.0310 N   0  0  0  0  0  0  0  0  0  0  0  0
    6.1390    2.8730   23.5330 N   0  0  0  0  0  0  0  0  0  0  0  0
    7.9150    1.5410   23.4610 O   0  0  0  0  0  0  0  0  0  0  0  0
    5.9670    0.5230   22.2840 C   0  0  1  0  0  0  0  0  0  0  0  0
    6.7400    1.5920   23.1030 C   0  0  0  0  0  0  0  0  0  0  0  0
   10.9490    2.2470   23.7410 C   0  0  0  0  0  0  0  0  0  0  0  0
   10.0160    1.5070   24.4660 C   0  0  0  0  0  0  0  0  0  0  0  0
    7.0180    5.3470   21.6720 C   0  0  0  0  0  0  0  0  0  0  0  0
    6.7800   -4.0400   26.8490 N   0  0  0  0  0  0  0  0  0  0  0  0
    9.0370   -4.4280   27.7740 C   0  0  0  0  0  0  0  0  0  0  0  0
    4.9740   -3.7710   25.2670 N   0  0  0  0  0  0  0  0  0  0  0  0
    7.7390   -4.8590   27.4970 C   0  0  0  0  0  0  0  0  0  0  0  0
    7.1370   -5.6280   28.4370 C   0  0  0  0  0  0  0  0  0  0  0  0
    6.6640   -2.7040   27.4270 C   0  0  0  0  0  0  0  0  0  0  0  0
    6.1770   -4.2720   25.6420 C   0  0  0  0  0  0  0  0  0  0  0  0
    4.7120   -7.3130   26.8640 O   0  0  0  0  0  0  0  0  0  0  0  0
    5.1510   -4.6090   27.4940 O   0  0  0  0  0  0  0  0  0  0  0  0
    2.2750   -4.9010   25.3660 F   0  0  0  0  0  0  0  0  0  0  0  0
    5.2810   -0.8690   26.2110 F   0  0  0  0  0  0  0  0  0  0  0  0
    4.7040   -5.8170   26.3410 S   0  0  0  0  0  0  0  0  0  0  0  0
    6.2560    0.8070   17.5530 N   0  0  0  0  0  0  0  0  0  0  0  0
    5.1520    1.5900   17.5550 C   0  0  0  0  0  0  0  0  0  0  0  0
    4.4570    1.9100   18.8360 C   0  0  0  0  0  0  0  0  0  0  0  0
    5.0410    1.3650   19.9690 C   0  0  0  0  0  0  0  0  0  0  0  0
    6.1670    0.5980   19.8660 C   0  0  0  0  0  0  0  0  0  0  0  0
    6.7510    0.3220   18.6660 C   0  0  0  0  0  0  0  0  0  0  0  0
    9.7660    3.0140   23.0220 C   0  0  0  0  0  0  0  0  0  0  0  0
   10.5850    3.6760   23.9630 C   0  0  0  0  0  0  0  0  0  0  0  0
   10.0030    4.9750   23.9610 C   0  0  0  0  0  0  0  0  0  0  0  0
    8.8610    5.5250   23.2330 C   0  0  0  0  0  0  0  0  0  0  0  0
    8.1790    4.7750   22.3950 C   0  0  0  0  0  0  0  0  0  0  0  0
    8.6850    3.4010   22.2690 C   0  0  0  0  0  0  0  0  0  0  0  0
    9.3610   -2.1530   21.8780 C   0  0  0  0  0  0  0  0  0  0  0  0
   10.3060   -2.2040   22.8450 C   0  0  0  0  0  0  0  0  0  0  0  0
   10.5420   -1.8780   24.0170 C   0  0  0  0  0  0  0  0  0  0  0  0
    9.4250   -1.3550   24.1170 C   0  0  0  0  0  0  0  0  0  0  0  0
    8.1530   -1.0840   23.3480 C   0  0  0  0  0  0  0  0  0  0  0  0
    8.1380   -1.5440   22.0880 C   0  0  0  0  0  0  0  0  0  0  0  0
    6.3690   -4.1310   21.9600 S   0  0  0  0  0  0  0  0  0  0  0  0
    7.8640   -3.6140   22.9560 C   0  0  0  0  0  0  0  0  0  0  0  0
    7.4300   -3.7430   24.3960 C   0  0  0  0  0  0  0  0  0  0  0  0
    6.7190   -5.1170   24.5440 C   0  0  1  0  0  0  0  0  0  0  0  0
    6.2300   -5.2960   23.2440 C   0  0  2  0  0  0  0  0  0  0  0  0
    7.0600   -5.8850   22.1740 C   0  0  0  0  0  0  0  0  0  0  0  0
    2.5450   -3.6170   25.7470 C   0  0  0  0  0  0  0  0  0  0  0  0
    3.9610   -2.9880   25.7180 C   0  0  0  0  0  0  0  0  0  0  0  0
    4.1240   -1.5570   26.1720 C   0  0  0  0  0  0  0  0  0  0  0  0
    2.9780   -0.8790   26.5850 C   0  0  0  0  0  0  0  0  0  0  0  0
    1.6040   -1.5600   26.5820 C   0  0  0  0  0  0  0  0  0  0  0  0
    1.4630   -2.8860   26.1660 C   0  0  0  0  0  0  0  0  0  0  0  0
    5.3440   -5.5840   24.8220 N   0  0  0  0  0  0  0  0  0  0  0  0
    4.6140   -5.5710   23.6220 C   0  0  2  0  0  0  0  0  0  0  0  0
    4.5110   -4.4040   22.8700 C   0  0  0  0  0  0  0  0  0  0  0  0
   12.6410   -1.5470   22.5640 C   0  0  0  0  0  0  0  0  0  0  0  0
   13.0210   -0.1040   22.7280 C   0  0  0  0  0  0  0  0  0  0  0  0
   13.3090   -2.4250   23.5300 C   0  0  0  0  0  0  0  0  0  0  0  0
   13.0460   -1.9610   21.1520 C   0  0  0  0  0  0  0  0  0  0  0  0
  4  2  1  6
  3  4  1  0
  6  1  1  1
  4  6  1  0
  1  7  1  0
  5  7  2  0
  7  8  1  0
  9 10  2  3
 11 15  1  0
 12 17  1  0
 13 17  2  0
 15 17  1  1
 14 19  1  0
 16 20  1  0
 20 21  1  6
 16 22  1  0
 11 23  1  0
 15 27  1  0
 27 24  1  1
 25 28  1  0
 26 28  2  0
 27 28  1  0
 29 30  1  0
 32 35  1  0
 33 35  1  0
 35 36  1  0
 32 37  1  0
 32 38  1  0
 34 38  2  3
 39 43  2  0
 40 43  2  0
 44 45  2  0
 45 46  1  0
 46 47  2  0
 15 48  1  0
 47 48  1  0
 44 49  1  0
 48 49  2  0
 18 50  1  0
 29 51  1  0
 50 51  2  0
 14 52  1  0
 51 52  1  0
 52 53  2  0
 31 54  1  0
 53 54  1  0
 12 55  1  0
 50 55  1  0
 54 55  2  0
 56 57  2  0
 20 58  1  0
 57 58  1  0
 57 59  1  0
 58 59  2  0
 59 60  1  0
 11 61  1  0
 56 61  1  0
 60 61  2  0
  9 62  1  0
 23 62  1  0
 62 63  1  0
 63 64  1  0
 65 38  1  6
 64 65  1  0
 62 66  1  0
 65 66  1  0
 62 67  1  0
 66 67  1  6
 41 68  1  0
 34 69  1  0
 68 69  2  0
 42 70  1  0
 69 70  1  0
 70 71  2  0
 71 72  1  0
 68 73  1  0
 72 73  2  0
 43 74  1  0
 65 74  1  0
  6 75  1  0
 74 75  1  0
 62 76  1  0
 75 76  1  1
 77 78  1  0
 16 79  1  0
 77 79  1  0
 77 80  1  0
M  END
