x0978-x0689-x0946-x3110-x0426
     RDKit          3D

 73 78  0  0  0  0  0  0  0  0999 V2000
    7.9200    1.5730   23.4510 N   0  0  0  0  0  0  0  0  0  0  0  0
   13.0620    6.0200   22.5690 C   0  0  0  0  0  0  0  0  0  0  0  0
   13.6020    4.6280   22.5360 C   0  0  0  0  0  0  0  0  0  0  0  0
    7.0060   -1.1430   22.2860 N   0  0  0  0  0  0  0  0  0  0  0  0
   10.5010    5.0710   23.4250 C   0  0  0  0  0  0  0  0  0  0  0  0
    8.6460    1.7100   21.2240 O   0  0  0  0  0  0  0  0  0  0  0  0
    8.8160    2.5850   24.0220 C   0  0  0  0  0  0  0  0  0  0  0  0
    7.8730    1.2660   22.0950 C   0  0  0  0  0  0  0  0  0  0  0  0
    6.6890    0.2690   21.8430 C   0  0  1  0  0  0  0  0  0  0  0  0
   12.4480   -1.9370   24.1870 C   0  0  0  0  0  0  0  0  0  0  0  0
   12.7470   -0.6440   24.9270 C   0  0  0  0  0  0  0  0  0  0  0  0
   13.4270   -2.0720   23.0250 C   0  0  0  0  0  0  0  0  0  0  0  0
   12.7540   -3.0850   25.1480 C   0  0  0  0  0  0  0  0  0  0  0  0
    2.4000    2.1180   24.0970 C   0  0  0  0  0  0  0  0  0  0  0  0
    2.5370    0.9970   24.5330 O   0  0  0  0  0  0  0  0  0  0  0  0
    3.2400    2.6770   23.1480 N   0  0  0  0  0  0  0  0  0  0  0  0
    4.2410    1.9610   22.5070 C   0  0  0  0  0  0  0  0  0  0  0  0
    3.8690    1.7840   21.0390 C   0  0  0  0  0  0  0  0  0  0  0  0
    2.7860    4.6810   25.6720 F   0  0  0  0  0  0  0  0  0  0  0  0
   10.5220    5.6300   24.7110 N   0  0  0  0  0  0  0  0  0  0  0  0
    9.1830    5.1090   23.0320 O   0  0  0  0  0  0  0  0  0  0  0  0
   11.0160    6.0310   22.5690 O   0  0  0  0  0  0  0  0  0  0  0  0
    1.9990   -5.6300   23.0200 N   0  0  0  0  0  0  0  0  0  0  0  0
    2.1580   -8.2720   24.5220 C   0  0  0  0  0  0  0  0  0  0  0  0
    4.4530   -7.8090   24.6870 O   0  0  0  0  0  0  0  0  0  0  0  0
    3.2080   -7.1880   24.4690 C   0  0  1  0  0  0  0  0  0  0  0  0
    0.7980   -7.4150   21.9460 O   0  0  0  0  0  0  0  0  0  0  0  0
    3.2870   -6.3510   23.2230 C   0  0  2  0  0  0  0  0  0  0  0  0
    4.0950   -4.1190   22.7320 O   0  0  0  0  0  0  0  0  0  0  0  0
    0.8050   -6.3220   22.4830 C   0  0  0  0  0  0  0  0  0  0  0  0
   -0.4660   -5.5300   22.6480 C   0  0  0  0  0  0  0  0  0  0  0  0
    6.4680   -4.3330   19.9830 C   0  0  0  0  0  0  0  0  0  0  0  0
    5.4830   -3.6290   19.4370 C   0  0  0  0  0  0  0  0  0  0  0  0
    6.6300   -2.2210   21.4220 C   0  0  0  0  0  0  0  0  0  0  0  0
    5.8530   -3.2210   22.0050 C   0  0  0  0  0  0  0  0  0  0  0  0
    4.3290   -6.4360   26.2160 O   0  0  0  0  0  0  0  0  0  0  0  0
    5.9980   -4.4480   26.5600 O   0  0  0  0  0  0  0  0  0  0  0  0
    4.9900   -5.0640   25.7410 S   0  0  0  0  0  0  0  0  0  0  0  0
    6.6050    0.2340   18.0810 N   0  0  0  0  0  0  0  0  0  0  0  0
    5.4600    0.8800   17.8460 C   0  0  0  0  0  0  0  0  0  0  0  0
    4.5990    1.3640   18.7980 C   0  0  0  0  0  0  0  0  0  0  0  0
    4.9300    1.1900   20.1200 C   0  0  0  0  0  0  0  0  0  0  0  0
    6.1460    0.5220   20.4300 C   0  0  0  0  0  0  0  0  0  0  0  0
    6.9300    0.0630   19.3690 C   0  0  0  0  0  0  0  0  0  0  0  0
    9.4640   -1.3400   21.8590 C   0  0  0  0  0  0  0  0  0  0  0  0
   10.7610   -1.5430   22.3470 C   0  0  0  0  0  0  0  0  0  0  0  0
   11.0190   -1.7680   23.7020 C   0  0  0  0  0  0  0  0  0  0  0  0
    9.9980   -1.8190   24.6430 C   0  0  0  0  0  0  0  0  0  0  0  0
    8.5530   -1.6110   24.2060 C   0  0  0  0  0  0  0  0  0  0  0  0
    8.3440   -1.3540   22.7210 C   0  0  0  0  0  0  0  0  0  0  0  0
    1.5540    4.1790   25.4530 C   0  0  0  0  0  0  0  0  0  0  0  0
    1.2790    2.9100   24.6700 C   0  0  0  0  0  0  0  0  0  0  0  0
   -0.0450    2.4790   24.5010 C   0  0  0  0  0  0  0  0  0  0  0  0
   -1.0940    3.1970   25.0490 C   0  0  0  0  0  0  0  0  0  0  0  0
   -0.8600    4.3750   25.7830 C   0  0  0  0  0  0  0  0  0  0  0  0
    0.4400    4.8610   25.9820 C   0  0  0  0  0  0  0  0  0  0  0  0
   12.0940    1.1020   23.1610 C   0  0  0  0  0  0  0  0  0  0  0  0
   12.9860    2.0870   22.8490 C   0  0  0  0  0  0  0  0  0  0  0  0
   12.5950    3.5680   22.8850 C   0  0  0  0  0  0  0  0  0  0  0  0
   11.1300    3.6650   23.3120 C   0  0  0  0  0  0  0  0  0  0  0  0
   10.2570    2.4030   23.6290 C   0  0  0  0  0  0  0  0  0  0  0  0
   10.7250    0.9140   23.5720 C   0  0  0  0  0  0  0  0  0  0  0  0
    6.3040   -4.6460   21.5520 C   0  0  1  0  0  0  0  0  0  0  0  0
    5.3720   -5.6230   21.8820 C   0  0  0  0  0  0  0  0  0  0  0  0
    4.5880   -5.4070   23.0140 C   0  0  2  0  0  0  0  0  0  0  0  0
    5.5490   -5.2610   24.1440 N   0  0  0  0  0  0  0  0  0  0  0  0
    6.9690   -4.8450   23.8660 C   0  0  0  0  0  0  0  0  0  0  0  0
    7.4090   -4.9730   22.5590 C   0  0  0  0  0  0  0  0  0  0  0  0
    3.9610   -2.3220   26.2050 S   0  0  0  0  0  0  0  0  0  0  0  0
    3.6080   -3.9300   25.7610 C   0  0  0  0  0  0  0  0  0  0  0  0
    2.1360   -4.0750   25.4670 C   0  0  0  0  0  0  0  0  0  0  0  0
    1.4880   -2.9150   25.6370 C   0  0  0  0  0  0  0  0  0  0  0  0
    2.3180   -1.8750   26.0330 C   0  0  0  0  0  0  0  0  0  0  0  0
  2  3  1  0
  1  7  1  0
  1  8  1  0
  6  8  2  0
  4  9  1  0
  9  8  1  6
 10 11  1  0
 10 12  1  0
 10 13  1  0
 14 15  2  0
 14 16  1  0
 16 17  1  0
 17 18  1  0
  5 20  1  0
  5 21  1  0
  5 22  1  0
 26 24  1  6
 25 26  1  0
 28 23  1  1
 26 28  1  0
 23 30  1  0
 27 30  2  0
 30 31  1  0
 32 33  2  3
  4 34  1  0
 34 35  1  0
 36 38  2  0
 37 38  2  0
 39 40  2  0
 40 41  1  0
 18 42  1  0
 41 42  2  0
  9 43  1  0
 42 43  1  0
 39 44  1  0
 43 44  2  0
 45 46  2  0
 10 47  1  0
 46 47  1  0
 47 48  2  0
 48 49  1  0
  4 50  1  0
 45 50  1  0
 49 50  2  0
 19 51  1  0
 14 52  1  0
 51 52  2  0
 52 53  1  0
 53 54  2  0
 54 55  1  0
 51 56  1  0
 55 56  2  0
 57 58  2  0
  3 59  1  0
 58 59  1  0
  5 60  1  0
 59 60  2  0
  7 61  1  0
 60 61  1  0
 57 62  1  0
 61 62  2  0
 63 32  1  6
 35 63  1  0
 63 64  1  0
 28 65  1  0
 65 29  1  6
 64 65  1  0
 38 66  1  0
 65 66  1  0
 66 67  1  0
 63 68  1  0
 67 68  1  0
 38 70  1  0
 69 70  1  0
 70 71  2  0
 71 72  1  0
 69 73  1  0
 72 73  2  0
M  END
