x0978-x1351-x3110-x3113
     RDKit          3D

 55 59  0  0  0  0  0  0  0  0999 V2000
    8.0050    1.1770   23.2020 N   0  0  0  0  0  0  0  0  0  0  0  0
   13.3880    5.1670   22.7900 C   0  0  0  0  0  0  0  0  0  0  0  0
   12.0550    3.3250   22.4460 O   0  0  0  0  0  0  0  0  0  0  0  0
   12.3160    4.4280   21.9660 C   0  0  0  0  0  0  0  0  0  0  0  0
    7.5090   -1.7440   21.6030 N   0  0  0  0  0  0  0  0  0  0  0  0
   10.9080    4.3080   24.1330 O   0  0  0  0  0  0  0  0  0  0  0  0
   11.1150    3.3400   23.4150 C   0  0  0  0  0  0  0  0  0  0  0  0
    8.5960    1.2660   21.0040 O   0  0  0  0  0  0  0  0  0  0  0  0
   10.3240    2.0340   23.5280 C   0  0  0  0  0  0  0  0  0  0  0  0
    8.7820    2.2600   23.5940 C   0  0  0  0  0  0  0  0  0  0  0  0
    7.9020    0.7350   21.8880 C   0  0  0  0  0  0  0  0  0  0  0  0
    6.8470   -0.3900   21.5930 C   0  0  1  0  0  0  0  0  0  0  0  0
   12.5950   -1.7360   24.3380 C   0  0  0  0  0  0  0  0  0  0  0  0
   12.6410   -0.5150   25.1920 C   0  0  0  0  0  0  0  0  0  0  0  0
   13.4790   -1.5880   23.1210 C   0  0  0  0  0  0  0  0  0  0  0  0
   13.0680   -2.9720   25.0990 C   0  0  0  0  0  0  0  0  0  0  0  0
    2.3550   -6.4580   22.5050 N   0  0  0  0  0  0  0  0  0  0  0  0
    2.4040   -7.9570   24.7210 C   0  0  0  0  0  0  0  0  0  0  0  0
    4.5530   -7.7620   24.1360 O   0  0  0  0  0  0  0  0  0  0  0  0
    3.3990   -7.0160   24.5190 C   0  0  1  0  0  0  0  0  0  0  0  0
    5.3760   -5.3940   22.1740 N   0  0  0  0  0  0  0  0  0  0  0  0
    0.1840   -7.3310   21.6670 O   0  0  0  0  0  0  0  0  0  0  0  0
    3.1350   -5.9860   23.6090 C   0  0  1  0  0  0  0  0  0  0  0  0
    0.9750   -6.4540   22.4660 C   0  0  0  0  0  0  0  0  0  0  0  0
    0.2260   -5.5600   23.2100 C   0  0  0  0  0  0  0  0  0  0  0  0
    4.4170   -5.1900   23.1850 C   0  0  0  0  0  0  0  0  0  0  0  0
    6.3450   -4.6510   20.2160 C   0  0  0  0  0  0  0  0  0  0  0  0
    5.7410   -5.9930   19.9470 C   0  0  0  0  0  0  0  0  0  0  0  0
    5.2750   -2.4560   25.4450 N   0  0  0  0  0  0  0  0  0  0  0  0
    7.0190   -3.1960   26.7030 O   0  0  0  0  0  0  0  0  0  0  0  0
    6.2420   -2.3280   26.3920 C   0  0  0  0  0  0  0  0  0  0  0  0
    6.3690    0.2780   17.8950 N   0  0  0  0  0  0  0  0  0  0  0  0
    5.2520    1.0340   17.9180 C   0  0  0  0  0  0  0  0  0  0  0  0
    4.5560    1.3800   19.0730 C   0  0  0  0  0  0  0  0  0  0  0  0
    5.0710    0.9060   20.2840 C   0  0  0  0  0  0  0  0  0  0  0  0
    6.2290    0.1260   20.2960 C   0  0  0  0  0  0  0  0  0  0  0  0
    6.8420   -0.1660   19.0740 C   0  0  0  0  0  0  0  0  0  0  0  0
    9.7740   -2.2770   21.7170 C   0  0  0  0  0  0  0  0  0  0  0  0
   11.1280   -2.3160   22.3730 C   0  0  0  0  0  0  0  0  0  0  0  0
   11.2540   -1.6870   23.7490 C   0  0  0  0  0  0  0  0  0  0  0  0
   10.0510   -1.0450   24.4170 C   0  0  0  0  0  0  0  0  0  0  0  0
    8.7800   -1.0850   23.6310 C   0  0  0  0  0  0  0  0  0  0  0  0
    8.6830   -1.7090   22.2730 C   0  0  0  0  0  0  0  0  0  0  0  0
    5.8360   -3.9780   21.5460 C   0  0  1  0  0  0  0  0  0  0  0  0
    7.0140   -3.0220   22.0540 C   0  0  2  0  0  0  0  0  0  0  0  0
    6.9570   -2.9380   23.6280 C   0  0  0  0  0  0  0  0  0  0  0  0
    5.5380   -2.8250   24.0890 C   0  0  1  0  0  0  0  0  0  0  0  0
    4.7300   -4.0540   23.7900 C   0  0  0  0  0  0  0  0  0  0  0  0
    6.0450   -4.3130   22.9850 C   0  0  0  0  0  0  0  0  0  0  0  0
    6.9830   -0.7290   28.2180 C   0  0  0  0  0  0  0  0  0  0  0  0
    6.8710    0.5460   28.7910 C   0  0  0  0  0  0  0  0  0  0  0  0
    6.0270    1.5250   28.2440 C   0  0  0  0  0  0  0  0  0  0  0  0
    5.2750    1.2480   27.1050 C   0  0  0  0  0  0  0  0  0  0  0  0
    5.3910   -0.0200   26.5410 C   0  0  0  0  0  0  0  0  0  0  0  0
    6.2340   -1.0240   27.0810 C   0  0  0  0  0  0  0  0  0  0  0  0
  2  4  1  0
  3  4  1  0
  3  7  1  0
  6  7  2  0
  7  9  1  0
  1 10  1  0
  9 10  1  0
  1 11  1  0
  8 11  2  0
  5 12  1  0
 12 11  1  6
 13 14  1  0
 13 15  1  0
 13 16  1  0
 20 18  1  6
 19 20  1  0
 23 17  1  6
 20 23  1  0
 17 24  1  0
 22 24  2  0
 24 25  1  0
 21 26  1  0
 23 26  1  0
 27 28  2  3
 29 31  1  0
 30 31  2  0
 32 33  2  0
 33 34  1  0
 34 35  2  0
 12 36  1  0
 35 36  1  0
 32 37  1  0
 36 37  2  0
 38 39  2  0
 13 40  1  0
 39 40  1  0
 40 41  2  0
 41 42  1  0
  5 43  1  0
 38 43  1  0
 42 43  2  0
 21 44  1  0
 44 27  1  1
 45  5  1  6
 44 45  1  0
 45 46  1  0
 47 29  1  1
 46 47  1  0
 26 48  2  0
 47 48  1  0
 44 49  1  0
 48 49  1  0
 50 51  2  0
 51 52  1  0
 52 53  2  0
 53 54  1  0
 31 55  1  0
 50 55  1  0
 54 55  2  0
M  END
