x0978-x1493-x3113
     RDKit          3D

 48 50  0  0  0  0  0  0  0  0999 V2000
    7.3250   -1.0970   22.1900 N   0  0  0  0  0  0  0  0  0  0  0  0
    8.3340    1.6930   23.3220 N   0  0  0  0  0  0  0  0  0  0  0  0
    8.8940    1.7840   20.9770 O   0  0  0  0  0  0  0  0  0  0  0  0
   11.7270    4.0490   23.4190 O   0  0  0  0  0  0  0  0  0  0  0  0
    7.0230    0.2320   21.8780 C   0  0  1  0  0  0  0  0  0  0  0  0
    8.1240    1.2590   22.0540 C   0  0  0  0  0  0  0  0  0  0  0  0
    9.4610    2.5790   23.5240 C   0  0  0  0  0  0  0  0  0  0  0  0
   10.7720    2.0630   23.5810 C   0  0  0  0  0  0  0  0  0  0  0  0
   11.7390    2.8960   23.0350 C   0  0  0  0  0  0  0  0  0  0  0  0
   12.8730    4.7570   22.9500 C   0  0  0  0  0  0  0  0  0  0  0  0
   12.5720   -2.0550   24.3430 C   0  0  0  0  0  0  0  0  0  0  0  0
   13.4370   -2.2100   23.2840 C   0  0  0  0  0  0  0  0  0  0  0  0
   12.8400   -3.1950   25.3490 C   0  0  0  0  0  0  0  0  0  0  0  0
   12.8590   -0.7520   25.0480 C   0  0  0  0  0  0  0  0  0  0  0  0
    2.4200   -5.4850   22.9640 N   0  0  0  0  0  0  0  0  0  0  0  0
    2.3830   -8.0620   24.1900 C   0  0  0  0  0  0  0  0  0  0  0  0
    4.5820   -7.9550   24.1820 O   0  0  0  0  0  0  0  0  0  0  0  0
    3.4440   -7.1800   24.3990 C   0  0  1  0  0  0  0  0  0  0  0  0
    1.1650   -7.3700   22.1390 O   0  0  0  0  0  0  0  0  0  0  0  0
    3.4360   -5.9580   23.7480 C   0  0  1  0  0  0  0  0  0  0  0  0
    4.5810   -3.9470   23.2130 O   0  0  0  0  0  0  0  0  0  0  0  0
    1.1880   -6.2520   22.6430 C   0  0  0  0  0  0  0  0  0  0  0  0
   -0.1060   -5.4730   22.9780 C   0  0  0  0  0  0  0  0  0  0  0  0
    6.5240   -4.3870   20.0770 C   0  0  0  0  0  0  0  0  0  0  0  0
    5.3820   -3.6100   19.4750 C   0  0  0  0  0  0  0  0  0  0  0  0
    7.0270   -2.3070   21.4520 C   0  0  0  0  0  0  0  0  0  0  0  0
    6.1880   -3.1910   22.1020 C   0  0  0  0  0  0  0  0  0  0  0  0
    4.8530   -5.8890   26.1940 C   0  0  0  0  0  0  0  0  0  0  0  0
    7.2430   -5.3970   26.4500 O   0  0  0  0  0  0  0  0  0  0  0  0
    6.0780   -5.5650   25.6420 C   0  0  0  0  0  0  0  0  0  0  0  0
    6.3920    0.0850   18.0490 N   0  0  0  0  0  0  0  0  0  0  0  0
    5.2960    0.8740   17.9620 C   0  0  0  0  0  0  0  0  0  0  0  0
    4.7070    1.4590   19.0540 C   0  0  0  0  0  0  0  0  0  0  0  0
    5.2840    1.2270   20.3210 C   0  0  0  0  0  0  0  0  0  0  0  0
    6.4150    0.4330   20.4900 C   0  0  0  0  0  0  0  0  0  0  0  0
    6.9910   -0.1610   19.3640 C   0  0  0  0  0  0  0  0  0  0  0  0
    9.6930   -1.3310   21.8380 C   0  0  0  0  0  0  0  0  0  0  0  0
   10.9540   -1.5670   22.3220 C   0  0  0  0  0  0  0  0  0  0  0  0
   11.1840   -1.8530   23.8030 C   0  0  0  0  0  0  0  0  0  0  0  0
   10.0360   -1.8660   24.5480 C   0  0  0  0  0  0  0  0  0  0  0  0
    8.7790   -1.6230   24.0000 C   0  0  0  0  0  0  0  0  0  0  0  0
    8.6130   -1.3520   22.6700 C   0  0  0  0  0  0  0  0  0  0  0  0
    6.1310   -5.4210   24.1540 N   0  0  0  0  0  0  0  0  0  0  0  0
    7.4320   -4.9800   23.6230 C   0  0  0  0  0  0  0  0  0  0  0  0
    7.6270   -5.0460   22.2020 C   0  0  0  0  0  0  0  0  0  0  0  0
    6.4350   -4.6070   21.6680 C   0  0  2  0  0  0  0  0  0  0  0  0
    5.4360   -5.6180   22.0050 C   0  0  0  0  0  0  0  0  0  0  0  0
    4.9000   -5.3360   23.2730 C   0  0  1  0  0  0  0  0  0  0  0  0
  1  5  1  0
  2  6  1  0
  3  6  2  0
  5  6  1  6
  2  7  1  0
  7  8  1  0
  4  9  1  0
  8  9  1  0
  4 10  1  0
 11 12  1  0
 11 13  1  0
 11 14  1  0
 18 16  1  6
 17 18  1  0
 20 15  1  6
 18 20  1  0
 15 22  1  0
 19 22  2  0
 22 23  1  0
 24 25  2  3
  1 26  1  0
 26 27  1  0
 28 30  1  0
 29 30  2  0
 31 32  2  0
 32 33  1  0
 33 34  2  0
  5 35  1  0
 34 35  1  0
 31 36  1  0
 35 36  2  0
 37 38  2  0
 11 39  1  0
 38 39  1  0
 39 40  2  0
 40 41  1  0
  1 42  1  0
 37 42  1  0
 41 42  2  0
 30 43  1  0
 43 44  1  0
 44 45  1  0
 46 24  1  6
 27 46  1  0
 45 46  1  0
 46 47  1  0
 20 48  1  0
 48 21  1  6
 43 48  1  0
 47 48  1  0
M  END
