x0978-x3110
     RDKit          3D

 44 45  0  0  0  0  0  0  0  0999 V2000
    8.1010    1.3280   23.3270 N   0  0  0  0  0  0  0  0  0  0  0  0
   13.3880    5.1630   22.7550 C   0  0  0  0  0  0  0  0  0  0  0  0
   11.9520    3.2600   22.4900 O   0  0  0  0  0  0  0  0  0  0  0  0
   12.3310    4.3410   22.0360 C   0  0  0  0  0  0  0  0  0  0  0  0
    7.3400   -1.4090   21.8310 N   0  0  0  0  0  0  0  0  0  0  0  0
   10.9880    4.3330   24.1100 O   0  0  0  0  0  0  0  0  0  0  0  0
   11.1380    3.3520   23.3980 C   0  0  0  0  0  0  0  0  0  0  0  0
    8.6420    1.5260   21.0500 O   0  0  0  0  0  0  0  0  0  0  0  0
   10.3690    2.1950   23.5480 C   0  0  0  0  0  0  0  0  0  0  0  0
    8.9870    2.4450   23.7280 C   0  0  0  0  0  0  0  0  0  0  0  0
    7.9670    0.9460   21.9160 C   0  0  0  0  0  0  0  0  0  0  0  0
    7.0290   -0.0840   21.6650 C   0  0  1  0  0  0  0  0  0  0  0  0
   12.4780   -1.8150   24.2580 C   0  0  0  0  0  0  0  0  0  0  0  0
   12.6670   -0.6720   24.9950 C   0  0  0  0  0  0  0  0  0  0  0  0
   13.4210   -1.8220   23.0690 C   0  0  0  0  0  0  0  0  0  0  0  0
   12.8720   -3.0150   25.0870 C   0  0  0  0  0  0  0  0  0  0  0  0
    2.0770   -5.5070   23.0360 N   0  0  0  0  0  0  0  0  0  0  0  0
    2.3060   -8.0630   24.6320 C   0  0  0  0  0  0  0  0  0  0  0  0
    4.5240   -7.6820   24.5740 O   0  0  0  0  0  0  0  0  0  0  0  0
    3.2560   -7.0590   24.4210 C   0  0  1  0  0  0  0  0  0  0  0  0
    5.2770   -5.5880   21.8600 N   0  0  0  0  0  0  0  0  0  0  0  0
    1.0280   -7.2880   22.1300 O   0  0  0  0  0  0  0  0  0  0  0  0
    3.1990   -6.3210   23.2330 C   0  0  2  0  0  0  0  0  0  0  0  0
    4.6350   -4.4410   23.8470 O   0  0  0  0  0  0  0  0  0  0  0  0
    0.9630   -6.1550   22.5990 C   0  0  0  0  0  0  0  0  0  0  0  0
   -0.2890   -5.5260   22.6630 C   0  0  0  0  0  0  0  0  0  0  0  0
    4.4220   -5.3520   23.0540 C   0  0  0  0  0  0  0  0  0  0  0  0
    6.5130   -4.8090   21.4860 C   0  0  1  0  0  0  0  0  0  0  0  0
    6.4840   -4.3650   19.9990 C   0  0  0  0  0  0  0  0  0  0  0  0
    5.3510   -3.5630   19.4500 C   0  0  0  0  0  0  0  0  0  0  0  0
    6.3810   -2.4480   22.0150 C   0  0  0  0  0  0  0  0  0  0  0  0
    6.7910   -3.7700   22.4080 C   0  0  0  0  0  0  0  0  0  0  0  0
    6.4040    0.1980   17.9320 N   0  0  0  0  0  0  0  0  0  0  0  0
    5.2010    1.0940   17.8560 C   0  0  0  0  0  0  0  0  0  0  0  0
    4.6440    1.5470   19.1910 C   0  0  0  0  0  0  0  0  0  0  0  0
    5.2440    1.1440   20.3700 C   0  0  0  0  0  0  0  0  0  0  0  0
    6.3640    0.3210   20.3610 C   0  0  0  0  0  0  0  0  0  0  0  0
    6.8930   -0.1220   19.1470 C   0  0  0  0  0  0  0  0  0  0  0  0
    9.6280   -1.9870   21.8090 C   0  0  0  0  0  0  0  0  0  0  0  0
   10.8830   -2.0960   22.3610 C   0  0  0  0  0  0  0  0  0  0  0  0
   11.0930   -1.7360   23.6720 C   0  0  0  0  0  0  0  0  0  0  0  0
   10.0240   -1.2840   24.4310 C   0  0  0  0  0  0  0  0  0  0  0  0
    8.7580   -1.1750   23.8640 C   0  0  0  0  0  0  0  0  0  0  0  0
    8.5510   -1.5190   22.5190 C   0  0  0  0  0  0  0  0  0  0  0  0
  2  4  1  0
  3  4  1  0
  3  7  1  0
  6  7  2  0
  7  9  1  0
  1 10  1  0
  9 10  1  0
  1 11  1  0
  8 11  2  0
  5 12  1  0
 12 11  1  6
 13 14  1  0
 13 15  1  0
 13 16  1  0
 20 18  1  6
 19 20  1  0
 23 17  1  1
 20 23  1  0
 17 25  1  0
 22 25  2  0
 25 26  1  0
 21 27  1  0
 23 27  1  0
 24 27  2  0
 21 28  1  0
 28 29  1  6
 29 30  2  3
  5 31  1  0
 28 32  1  0
 31 32  1  0
 33 34  2  0
 34 35  1  0
 35 36  2  0
 12 37  1  0
 36 37  1  0
 33 38  1  0
 37 38  2  0
 39 40  2  0
 13 41  1  0
 40 41  1  0
 41 42  2  0
 42 43  1  0
  5 44  1  0
 39 44  1  0
 43 44  2  0
M  END
