x0978-x0731-x3110-x1077
     RDKit          3D

 63 68  0  0  0  0  0  0  0  0999 V2000
    7.9550    1.7990   23.3370 N   0  0  0  0  0  0  0  0  0  0  0  0
   13.4080    5.2610   22.9280 C   0  0  0  0  0  0  0  0  0  0  0  0
   12.1680    3.3420   22.3760 O   0  0  0  0  0  0  0  0  0  0  0  0
   12.6220    4.5760   21.8610 C   0  0  0  0  0  0  0  0  0  0  0  0
    7.0930   -1.1710   21.9230 N   0  0  0  0  0  0  0  0  0  0  0  0
   11.2540    4.3610   24.1340 O   0  0  0  0  0  0  0  0  0  0  0  0
   11.2780    3.3430   23.3930 C   0  0  0  0  0  0  0  0  0  0  0  0
    8.5450    1.6850   21.1580 O   0  0  0  0  0  0  0  0  0  0  0  0
   10.3490    2.2100   23.6240 C   0  0  0  0  0  0  0  0  0  0  0  0
    8.9740    2.8150   23.5470 C   0  0  0  0  0  0  0  0  0  0  0  0
    7.7350    1.1980   22.1250 C   0  0  0  0  0  0  0  0  0  0  0  0
    6.8590    0.1920   21.6730 C   0  0  1  0  0  0  0  0  0  0  0  0
   12.2310   -1.9650   24.1900 C   0  0  0  0  0  0  0  0  0  0  0  0
   12.5690   -0.7390   24.9910 C   0  0  0  0  0  0  0  0  0  0  0  0
   13.3110   -2.1380   23.1600 C   0  0  0  0  0  0  0  0  0  0  0  0
   12.1310   -3.1800   25.0490 C   0  0  0  0  0  0  0  0  0  0  0  0
    2.4590   -5.6980   22.8490 N   0  0  0  0  0  0  0  0  0  0  0  0
    2.1660   -8.2620   24.1110 C   0  0  0  0  0  0  0  0  0  0  0  0
    4.4240   -8.0820   24.3030 O   0  0  0  0  0  0  0  0  0  0  0  0
    3.3670   -7.4700   24.4040 C   0  0  1  0  0  0  0  0  0  0  0  0
    1.0910   -7.5410   22.0530 O   0  0  0  0  0  0  0  0  0  0  0  0
    3.5870   -6.1270   23.7070 C   0  0  1  0  0  0  0  0  0  0  0  0
    4.4480   -4.3790   22.6800 O   0  0  0  0  0  0  0  0  0  0  0  0
    1.2250   -6.2770   22.6930 C   0  0  0  0  0  0  0  0  0  0  0  0
    0.0780   -5.5130   23.1640 C   0  0  0  0  0  0  0  0  0  0  0  0
    6.7890   -4.0590   19.9530 C   0  0  0  0  0  0  0  0  0  0  0  0
    5.8070   -3.5050   19.2570 C   0  0  0  0  0  0  0  0  0  0  0  0
    6.3900   -2.0200   21.1300 C   0  0  0  0  0  0  0  0  0  0  0  0
    5.7450   -3.1610   21.6560 C   0  0  0  0  0  0  0  0  0  0  0  0
    1.5340   -0.5140   26.3390 C   0  0  0  0  0  0  0  0  0  0  0  0
    4.5700   -6.3540   25.7990 O   0  0  0  0  0  0  0  0  0  0  0  0
    5.2200   -5.0730   25.6760 S   0  0  2  0  0  0  0  0  0  0  0  0
    6.3600    0.3740   17.8720 N   0  0  0  0  0  0  0  0  0  0  0  0
    5.3050    1.1840   17.8080 C   0  0  0  0  0  0  0  0  0  0  0  0
    4.6610    1.7300   19.0010 C   0  0  0  0  0  0  0  0  0  0  0  0
    5.1920    1.3810   20.2250 C   0  0  0  0  0  0  0  0  0  0  0  0
    6.2950    0.5430   20.3190 C   0  0  0  0  0  0  0  0  0  0  0  0
    6.8340    0.0670   19.1120 C   0  0  0  0  0  0  0  0  0  0  0  0
    9.5140   -1.3200   21.7650 C   0  0  0  0  0  0  0  0  0  0  0  0
   10.7700   -1.5100   22.3090 C   0  0  0  0  0  0  0  0  0  0  0  0
   10.8540   -1.7930   23.6410 C   0  0  0  0  0  0  0  0  0  0  0  0
    9.7400   -1.9050   24.4300 C   0  0  0  0  0  0  0  0  0  0  0  0
    8.4890   -1.7220   23.9000 C   0  0  0  0  0  0  0  0  0  0  0  0
    8.3560   -1.4200   22.5560 C   0  0  0  0  0  0  0  0  0  0  0  0
    7.4060   -6.0480   26.0660 O   0  0  0  0  0  0  0  0  0  0  0  0
    7.4080   -5.5000   24.7460 C   0  0  1  0  0  0  0  0  0  0  0  0
    8.5860   -5.7480   24.1920 C   0  0  0  0  0  0  0  0  0  0  0  0
    9.5150   -5.3060   25.1140 C   0  0  0  0  0  0  0  0  0  0  0  0
    9.0680   -4.0020   25.7480 N   0  0  0  0  0  0  0  0  0  0  0  0
    7.7120   -3.7550   26.3980 C   0  0  0  0  0  0  0  0  0  0  0  0
    6.8810   -4.8780   26.4180 C   0  0  0  0  0  0  0  0  0  0  0  0
    2.5390   -1.6460   26.2050 C   0  0  0  0  0  0  0  0  0  0  0  0
    2.1300   -2.8330   25.6040 C   0  0  0  0  0  0  0  0  0  0  0  0
    2.7980   -4.0460   25.3330 C   0  0  0  0  0  0  0  0  0  0  0  0
    4.1490   -3.6820   25.9030 C   0  0  0  0  0  0  0  0  0  0  0  0
    4.8320   -2.7420   26.4940 C   0  0  0  0  0  0  0  0  0  0  0  0
    3.8910   -1.5340   26.6760 C   0  0  0  0  0  0  0  0  0  0  0  0
    6.4970   -4.4600   21.4360 C   0  0  2  0  0  0  0  0  0  0  0  0
    7.3690   -4.2240   22.4410 C   0  0  0  0  0  0  0  0  0  0  0  0
    6.6720   -3.9440   23.6170 C   0  0  0  0  0  0  0  0  0  0  0  0
    5.9920   -5.0450   24.0890 C   0  0  2  0  0  0  0  0  0  0  0  0
    5.0790   -5.6030   23.1390 C   0  0  1  0  0  0  0  0  0  0  0  0
    5.7350   -5.8150   21.7920 C   0  0  0  0  0  0  0  0  0  0  0  0
  2  4  1  0
  3  4  1  0
  3  7  1  0
  6  7  2  0
  7  9  1  0
  1 10  1  0
  9 10  1  0
  1 11  1  0
  8 11  2  0
  5 12  1  0
 12 11  1  6
 13 14  1  0
 13 15  1  0
 13 16  1  0
 20 18  1  6
 19 20  1  0
 22 17  1  6
 20 22  1  0
 17 24  1  0
 21 24  2  0
 24 25  1  0
 26 27  2  3
  5 28  1  0
 28 29  1  0
 31 32  2  0
 33 34  2  0
 34 35  1  0
 35 36  2  0
 12 37  1  0
 36 37  1  0
 33 38  1  0
 37 38  2  0
 39 40  2  0
 13 41  1  0
 40 41  1  0
 41 42  2  0
 42 43  1  0
  5 44  1  0
 39 44  1  0
 43 44  2  0
 45 46  1  0
 46 47  1  6
 47 48  1  0
 48 49  1  0
 49 50  1  0
 32 51  2  0
 45 51  1  0
 50 51  1  0
 30 52  1  0
 52 53  2  0
 53 54  1  0
 32 55  1  6
 54 55  2  0
 55 56  1  0
 52 57  1  0
 56 57  2  0
 58 26  1  6
 29 58  1  0
 58 59  1  0
 59 60  1  0
 32 61  1  0
 46 61  1  0
 61 60  1  6
 22 62  1  0
 62 23  1  6
 61 62  1  0
 58 63  1  0
 62 63  1  0
M  END
