x0978-x0689-x2694-x1385-x0426
     RDKit          3D

 76 84  0  0  0  0  0  0  0  0999 V2000
    1.9440   -5.6390   23.2690 N   0  0  0  0  0  0  0  0  0  0  0  0
    2.4270   -7.6550   25.2140 C   0  0  0  0  0  0  0  0  0  0  0  0
    4.5330   -7.6580   24.4340 O   0  0  0  0  0  0  0  0  0  0  0  0
    3.6380   -6.8750   24.6770 C   0  0  1  0  0  0  0  0  0  0  0  0
    0.9130   -7.4370   21.8880 O   0  0  0  0  0  0  0  0  0  0  0  0
    3.3130   -6.2370   23.2930 C   0  0  2  0  0  0  0  0  0  0  0  0
    3.8560   -4.1850   22.8540 O   0  0  0  0  0  0  0  0  0  0  0  0
    0.8680   -6.2190   22.6190 C   0  0  0  0  0  0  0  0  0  0  0  0
   -0.4420   -5.4770   22.7070 C   0  0  0  0  0  0  0  0  0  0  0  0
    6.5290   -4.9190   20.2940 C   0  0  0  0  0  0  0  0  0  0  0  0
    5.8480   -6.0020   19.8990 C   0  0  0  0  0  0  0  0  0  0  0  0
    5.6080   -5.7050   26.5250 O   0  0  0  0  0  0  0  0  0  0  0  0
    4.3240   -5.6190   25.5880 S   0  0  0  0  0  0  0  0  0  0  0  0
    7.7460    2.1020   22.6910 N   0  0  0  0  0  0  0  0  0  0  0  0
    9.2220    1.6100   21.0920 O   0  0  0  0  0  0  0  0  0  0  0  0
   10.7860    6.7490   23.9800 O   0  0  0  0  0  0  0  0  0  0  0  0
    7.5550   -0.0530   21.1520 C   0  0  2  0  0  0  0  0  0  0  0  0
    8.2200    1.2620   21.6570 C   0  0  0  0  0  0  0  0  0  0  0  0
   10.1310    1.7520   23.9670 C   0  0  0  0  0  0  0  0  0  0  0  0
   11.8670    6.7150   24.9170 C   0  0  0  0  0  0  0  0  0  0  0  0
   12.3110   -1.1160   23.0790 C   0  0  0  0  0  0  0  0  0  0  0  0
   12.7340    0.3400   23.2430 C   0  0  0  0  0  0  0  0  0  0  0  0
   12.9210   -1.6560   21.7980 C   0  0  0  0  0  0  0  0  0  0  0  0
   12.9400   -1.8880   24.1910 C   0  0  0  0  0  0  0  0  0  0  0  0
    2.4100    2.4020   23.7480 C   0  0  0  0  0  0  0  0  0  0  0  0
    2.7150    1.2460   24.2100 O   0  0  0  0  0  0  0  0  0  0  0  0
    3.0680    2.9270   22.6080 N   0  0  0  0  0  0  0  0  0  0  0  0
    4.4950    2.6340   22.2420 C   0  0  0  0  0  0  0  0  0  0  0  0
    4.6220    1.2200   21.6800 C   0  0  0  0  0  0  0  0  0  0  0  0
    2.9310    4.5620   25.6760 F   0  0  0  0  0  0  0  0  0  0  0  0
    9.8550   -3.0040   24.3400 C   0  0  0  0  0  0  0  0  0  0  0  0
    7.0270   -5.9630   28.6020 Br  0  0  0  0  0  0  0  0  0  0  0  0
    6.3870   -4.6680   21.7550 C   0  0  1  0  0  0  0  0  0  0  0  0
    5.2650   -5.4810   21.8990 C   0  0  0  0  0  0  0  0  0  0  0  0
    4.4710   -5.2270   22.9880 C   0  0  2  0  0  0  0  0  0  0  0  0
    5.2500   -5.2060   24.2030 N   0  0  0  0  0  0  0  0  0  0  0  0
    6.6530   -5.2010   24.0860 C   0  0  0  0  0  0  0  0  0  0  0  0
    7.1760   -5.3340   22.7780 C   0  0  0  0  0  0  0  0  0  0  0  0
    3.8430   -2.5650   26.0100 S   0  0  0  0  0  0  0  0  0  0  0  0
    3.3410   -4.1850   25.6850 C   0  0  0  0  0  0  0  0  0  0  0  0
    1.8120   -4.0180   25.5230 C   0  0  0  0  0  0  0  0  0  0  0  0
    1.3740   -2.5750   25.7110 C   0  0  0  0  0  0  0  0  0  0  0  0
    2.3700   -1.6520   25.9840 C   0  0  0  0  0  0  0  0  0  0  0  0
    6.3460    0.6030   17.7620 N   0  0  0  0  0  0  0  0  0  0  0  0
    5.0560    1.2450   17.9570 C   0  0  0  0  0  0  0  0  0  0  0  0
    4.5970    1.3970   19.2500 C   0  0  0  0  0  0  0  0  0  0  0  0
    5.3170    0.9900   20.3670 C   0  0  0  0  0  0  0  0  0  0  0  0
    6.5890    0.4040   20.1530 C   0  0  0  0  0  0  0  0  0  0  0  0
    7.0320    0.2170   18.8320 C   0  0  0  0  0  0  0  0  0  0  0  0
    9.1330   -1.8750   23.9730 N   0  0  0  0  0  0  0  0  0  0  0  0
    9.8970   -0.8960   24.0550 O   0  0  0  0  0  0  0  0  0  0  0  0
   10.8320   -1.2670   23.0710 C   0  0  0  0  0  0  0  0  0  0  0  0
   10.0020   -1.8270   22.1250 C   0  0  0  0  0  0  0  0  0  0  0  0
    8.7360   -1.8610   22.6600 C   0  0  1  0  0  0  0  0  0  0  0  0
    9.6870    3.1260   23.6400 C   0  0  0  0  0  0  0  0  0  0  0  0
   10.5160    4.3670   23.9810 C   0  0  0  0  0  0  0  0  0  0  0  0
   10.0470    5.6210   23.6610 C   0  0  0  0  0  0  0  0  0  0  0  0
    8.8240    5.7320   23.0160 C   0  0  0  0  0  0  0  0  0  0  0  0
    8.0840    4.5840   22.7060 C   0  0  0  0  0  0  0  0  0  0  0  0
    8.4960    3.2580   23.0110 C   0  0  0  0  0  0  0  0  0  0  0  0
    1.6530    4.1270   25.4950 C   0  0  0  0  0  0  0  0  0  0  0  0
    1.3160    3.1120   24.6000 C   0  0  0  0  0  0  0  0  0  0  0  0
   -0.1120    2.5840   24.3510 C   0  0  0  0  0  0  0  0  0  0  0  0
   -1.2800    3.0220   24.9750 C   0  0  0  0  0  0  0  0  0  0  0  0
   -1.0070    4.1310   25.9740 C   0  0  0  0  0  0  0  0  0  0  0  0
    0.4380    4.7400   26.2880 C   0  0  0  0  0  0  0  0  0  0  0  0
    6.6930   -2.1470   21.3220 N   0  0  0  0  0  0  0  0  0  0  0  0
    6.2090   -3.2250   22.2180 C   0  0  2  0  0  0  0  0  0  0  0  0
    6.9960   -3.1230   23.5060 C   0  0  0  0  0  0  0  0  0  0  0  0
    8.2730   -3.2050   22.9320 N   0  0  0  0  0  0  0  0  0  0  0  0
    7.4860   -1.2020   22.0560 C   0  0  2  0  0  0  0  0  0  0  0  0
    9.7860   -5.2840   25.5530 C   0  0  0  0  0  0  0  0  0  0  0  0
    9.3660   -4.0130   25.3130 C   0  0  0  0  0  0  0  0  0  0  0  0
    8.1040   -3.8160   26.4280 S   0  0  0  0  0  0  0  0  0  0  0  0
    8.1460   -5.3310   27.1800 C   0  0  0  0  0  0  0  0  0  0  0  0
    9.1790   -5.9790   26.5050 C   0  0  0  0  0  0  0  0  0  0  0  0
  4  2  1  1
  4  3  1  0
  6  1  1  1
  4  6  1  0
  1  8  1  0
  5  8  2  0
  8  9  1  0
 10 11  2  3
  4 13  1  0
 12 13  2  0
 14 18  1  0
 15 18  2  0
 17 18  1  1
 16 20  1  0
 21 22  1  0
 21 23  1  0
 21 24  1  0
 25 26  2  0
 25 27  1  0
 27 28  1  0
 28 29  1  0
 33 10  1  6
 33 34  1  0
  6 35  1  0
 35  7  1  6
 34 35  1  0
 13 36  1  0
 35 36  1  0
 36 37  1  0
 33 38  1  0
 37 38  1  0
 13 40  1  0
 39 40  1  0
 40 41  2  0
 41 42  1  0
 39 43  1  0
 42 43  2  0
 44 45  2  0
 45 46  1  0
 29 47  1  0
 46 47  2  0
 17 48  1  0
 47 48  1  0
 44 49  1  0
 48 49  2  0
 31 50  1  0
 50 51  1  0
 21 52  1  0
 51 52  1  0
 52 53  2  0
 50 54  1  0
 54 53  1  6
 19 55  1  0
 55 56  2  0
 16 57  1  0
 56 57  1  0
 57 58  2  0
 58 59  1  0
 14 60  1  0
 55 60  1  0
 59 60  2  0
 30 61  1  0
 25 62  1  0
 61 62  2  0
 62 63  1  0
 63 64  2  0
 64 65  1  0
 61 66  1  0
 65 66  2  0
 33 68  1  0
 67 68  1  0
 68 69  1  1
 54 70  1  0
 69 70  1  0
 17 71  1  0
 54 71  1  0
 71 67  1  6
 31 73  1  0
 72 73  2  0
 73 74  1  0
 32 75  1  0
 74 75  1  0
 72 76  1  0
 75 76  2  0
M  END
