x0978-x1308-x3113
     RDKit          3D

 55 58  0  0  0  0  0  0  0  0999 V2000
    7.2050   -1.1560   22.2700 N   0  0  0  0  0  0  0  0  0  0  0  0
    8.3190    1.6280   23.3320 N   0  0  0  0  0  0  0  0  0  0  0  0
    8.9260    1.7400   21.0010 O   0  0  0  0  0  0  0  0  0  0  0  0
   11.8520    4.1640   23.3820 O   0  0  0  0  0  0  0  0  0  0  0  0
    6.9440    0.2620   21.8540 C   0  0  1  0  0  0  0  0  0  0  0  0
    8.1000    1.2200   22.0380 C   0  0  0  0  0  0  0  0  0  0  0  0
    9.3380    2.6230   23.5810 C   0  0  0  0  0  0  0  0  0  0  0  0
   10.7170    2.0270   23.5470 C   0  0  0  0  0  0  0  0  0  0  0  0
   11.7790    2.9940   23.0310 C   0  0  0  0  0  0  0  0  0  0  0  0
   12.8660    4.7070   22.9340 C   0  0  0  0  0  0  0  0  0  0  0  0
   12.5130   -2.0570   24.2970 C   0  0  0  0  0  0  0  0  0  0  0  0
   13.4560   -2.2390   23.1470 C   0  0  0  0  0  0  0  0  0  0  0  0
   12.8520   -3.1380   25.3370 C   0  0  0  0  0  0  0  0  0  0  0  0
   12.7890   -0.7050   24.9280 C   0  0  0  0  0  0  0  0  0  0  0  0
    2.1750   -5.6490   23.1870 N   0  0  0  0  0  0  0  0  0  0  0  0
    2.1510   -8.2130   24.4740 C   0  0  0  0  0  0  0  0  0  0  0  0
    4.4620   -7.8190   24.6750 O   0  0  0  0  0  0  0  0  0  0  0  0
    3.3760   -7.3120   24.5200 C   0  0  1  0  0  0  0  0  0  0  0  0
    0.9510   -7.3020   21.9790 O   0  0  0  0  0  0  0  0  0  0  0  0
    3.4380   -6.3890   23.2770 C   0  0  2  0  0  0  0  0  0  0  0  0
    4.1860   -4.2270   22.7880 O   0  0  0  0  0  0  0  0  0  0  0  0
    0.9740   -6.2460   22.5950 C   0  0  0  0  0  0  0  0  0  0  0  0
   -0.2990   -5.4220   22.8060 C   0  0  0  0  0  0  0  0  0  0  0  0
    6.6460   -4.3310   20.0690 C   0  0  0  0  0  0  0  0  0  0  0  0
    5.4620   -3.5860   19.4500 C   0  0  0  0  0  0  0  0  0  0  0  0
    6.6130   -2.1600   21.4140 C   0  0  0  0  0  0  0  0  0  0  0  0
    6.0500   -3.2340   22.0890 C   0  0  0  0  0  0  0  0  0  0  0  0
    0.6470   -1.1170   26.6010 Cl  0  0  0  0  0  0  0  0  0  0  0  0
    6.5760   -4.8920   26.5360 O   0  0  0  0  0  0  0  0  0  0  0  0
    4.8890   -6.6750   26.3560 O   0  0  0  0  0  0  0  0  0  0  0  0
    5.4470   -5.4570   25.8150 S   0  0  0  0  0  0  0  0  0  0  0  0
    6.3780    0.1260   18.0320 N   0  0  0  0  0  0  0  0  0  0  0  0
    5.3180    0.9390   17.9630 C   0  0  0  0  0  0  0  0  0  0  0  0
    4.7390    1.5380   19.0600 C   0  0  0  0  0  0  0  0  0  0  0  0
    5.3050    1.2780   20.3010 C   0  0  0  0  0  0  0  0  0  0  0  0
    6.4280    0.4300   20.4060 C   0  0  0  0  0  0  0  0  0  0  0  0
    6.9770   -0.1680   19.2380 C   0  0  0  0  0  0  0  0  0  0  0  0
    9.5800   -1.5330   21.9360 C   0  0  0  0  0  0  0  0  0  0  0  0
   10.8830   -1.7590   22.3810 C   0  0  0  0  0  0  0  0  0  0  0  0
   11.1090   -1.8690   23.7460 C   0  0  0  0  0  0  0  0  0  0  0  0
   10.0460   -1.7760   24.6290 C   0  0  0  0  0  0  0  0  0  0  0  0
    8.7410   -1.5520   24.1840 C   0  0  0  0  0  0  0  0  0  0  0  0
    8.4960   -1.4160   22.8090 C   0  0  0  0  0  0  0  0  0  0  0  0
    6.5290   -4.6460   21.6290 C   0  0  2  0  0  0  0  0  0  0  0  0
    7.6410   -4.9310   22.4250 C   0  0  0  0  0  0  0  0  0  0  0  0
    7.2670   -4.9450   23.8080 C   0  0  0  0  0  0  0  0  0  0  0  0
    5.7920   -5.2770   24.1250 N   0  0  0  0  0  0  0  0  0  0  0  0
    4.7720   -5.5020   23.0730 C   0  0  1  0  0  0  0  0  0  0  0  0
    5.5040   -5.7890   21.9320 C   0  0  0  0  0  0  0  0  0  0  0  0
    4.4620   -2.9670   26.4030 C   0  0  0  0  0  0  0  0  0  0  0  0
    3.3500   -1.9660   26.5840 C   0  0  0  0  0  0  0  0  0  0  0  0
    1.8760   -2.2860   26.3740 C   0  0  0  0  0  0  0  0  0  0  0  0
    1.5470   -3.7150   25.9500 C   0  0  0  0  0  0  0  0  0  0  0  0
    2.6950   -4.7220   25.7720 C   0  0  0  0  0  0  0  0  0  0  0  0
    4.1440   -4.2750   26.0190 C   0  0  0  0  0  0  0  0  0  0  0  0
  1  5  1  0
  2  6  1  0
  3  6  2  0
  5  6  1  6
  2  7  1  0
  7  8  1  0
  4  9  1  0
  8  9  1  0
  4 10  1  0
 11 12  1  0
 11 13  1  0
 11 14  1  0
 18 16  1  6
 17 18  1  0
 20 15  1  1
 18 20  1  0
 15 22  1  0
 19 22  2  0
 22 23  1  0
 24 25  2  3
  1 26  1  0
 26 27  1  0
 29 31  2  0
 30 31  2  0
 32 33  2  0
 33 34  1  0
 34 35  2  0
  5 36  1  0
 35 36  1  0
 32 37  1  0
 36 37  2  0
 38 39  2  0
 11 40  1  0
 39 40  1  0
 40 41  2  0
 41 42  1  0
  1 43  1  0
 38 43  1  0
 42 43  2  0
 44 24  1  6
 27 44  1  0
 44 45  1  0
 45 46  1  0
 31 47  1  0
 46 47  1  0
 20 48  1  0
 48 21  1  6
 47 48  1  0
 44 49  1  0
 48 49  1  0
 50 51  2  0
 28 52  1  0
 51 52  1  0
 52 53  2  0
 53 54  1  0
 31 55  1  0
 50 55  1  0
 54 55  2  0
M  END
