x0978-x2776-x0771
     RDKit          3D

 57 62  0  0  0  0  0  0  0  0999 V2000
    2.1630   -5.5730   22.9590 N   0  0  0  0  0  0  0  0  0  0  0  0
    2.4080   -8.2880   24.5330 C   0  0  0  0  0  0  0  0  0  0  0  0
    4.3800   -7.0250   25.3820 N   0  0  0  0  0  0  0  0  0  0  0  0
    3.1770   -6.9880   24.5470 C   0  0  1  0  0  0  0  0  0  0  0  0
    0.9620   -7.3260   22.0650 O   0  0  0  0  0  0  0  0  0  0  0  0
    3.4600   -6.2900   23.1880 C   0  0  2  0  0  0  0  0  0  0  0  0
    4.1030   -3.9770   23.1870 O   0  0  0  0  0  0  0  0  0  0  0  0
    0.9960   -6.2140   22.5740 C   0  0  0  0  0  0  0  0  0  0  0  0
   -0.2710   -5.4380   22.8120 C   0  0  0  0  0  0  0  0  0  0  0  0
    6.6400   -3.9010   19.9810 C   0  0  0  0  0  0  0  0  0  0  0  0
    5.5910   -3.4400   19.3050 C   0  0  0  0  0  0  0  0  0  0  0  0
    0.7280   -1.4150   26.3190 C   0  0  0  0  0  0  0  0  0  0  0  0
    6.0280   -5.4210   26.6850 O   0  0  0  0  0  0  0  0  0  0  0  0
    5.0340   -5.6750   25.6850 S   0  0  2  0  0  0  0  0  0  0  0  0
    7.1380   -1.4910   21.8000 N   0  0  0  0  0  0  0  0  0  0  0  0
    7.8370    1.9340   22.9580 N   0  0  0  0  0  0  0  0  0  0  0  0
    8.8970    1.2250   21.0640 O   0  0  0  0  0  0  0  0  0  0  0  0
   10.7170    6.6970   23.8510 O   0  0  0  0  0  0  0  0  0  0  0  0
    6.8040    0.0200   21.6330 C   0  0  1  0  0  0  0  0  0  0  0  0
   12.3240   -2.7800   25.3000 O   0  0  0  0  0  0  0  0  0  0  0  0
    7.9640    1.0950   21.8530 C   0  0  0  0  0  0  0  0  0  0  0  0
   10.5790    1.7390   23.8490 C   0  0  0  0  0  0  0  0  0  0  0  0
   11.8170    6.6640   24.7680 C   0  0  0  0  0  0  0  0  0  0  0  0
   12.3100   -1.9150   24.1850 C   0  0  2  0  0  0  0  0  0  0  0  0
   12.7850   -0.5340   24.5730 C   0  0  0  0  0  0  0  0  0  0  0  0
   13.6510   -3.1100   25.6060 C   0  0  0  0  0  0  0  0  0  0  0  0
    6.0630   -2.5800   21.9430 C   0  0  0  0  0  0  0  0  0  0  0  0
    1.7740   -2.4720   26.1560 C   0  0  0  0  0  0  0  0  0  0  0  0
    1.4210   -3.7750   25.7640 C   0  0  0  0  0  0  0  0  0  0  0  0
    2.4020   -4.7520   25.6200 C   0  0  0  0  0  0  0  0  0  0  0  0
    3.7470   -4.4380   25.8640 C   0  0  0  0  0  0  0  0  0  0  0  0
    4.1090   -3.1430   26.2530 C   0  0  0  0  0  0  0  0  0  0  0  0
    3.1210   -2.1660   26.3980 C   0  0  0  0  0  0  0  0  0  0  0  0
    6.4570   -4.0900   21.5360 C   0  0  1  0  0  0  0  0  0  0  0  0
    5.4320   -5.2500   21.7390 C   0  0  0  0  0  0  0  0  0  0  0  0
    4.7010   -5.2700   23.0880 C   0  0  2  0  0  0  0  0  0  0  0  0
    5.6800   -5.3620   24.1470 N   0  0  0  0  0  0  0  0  0  0  0  0
    7.0560   -4.8010   23.9040 C   0  0  0  0  0  0  0  0  0  0  0  0
    7.5780   -4.6350   22.4480 C   0  0  0  0  0  0  0  0  0  0  0  0
    6.3350    0.3000   17.8790 N   0  0  0  0  0  0  0  0  0  0  0  0
    5.2010    1.0220   17.8420 C   0  0  0  0  0  0  0  0  0  0  0  0
    4.5140    1.4410   18.9460 C   0  0  0  0  0  0  0  0  0  0  0  0
    5.0220    1.1090   20.1880 C   0  0  0  0  0  0  0  0  0  0  0  0
    6.2020    0.3680   20.2890 C   0  0  0  0  0  0  0  0  0  0  0  0
    6.8160   -0.0170   19.0980 C   0  0  0  0  0  0  0  0  0  0  0  0
    9.8950    3.0550   23.6070 C   0  0  0  0  0  0  0  0  0  0  0  0
   10.6250    4.2430   23.8280 C   0  0  0  0  0  0  0  0  0  0  0  0
   10.0750    5.5010   23.6410 C   0  0  0  0  0  0  0  0  0  0  0  0
    8.7570    5.5820   23.2040 C   0  0  0  0  0  0  0  0  0  0  0  0
    8.0020    4.4220   22.9680 C   0  0  0  0  0  0  0  0  0  0  0  0
    8.5610    3.1400   23.1720 C   0  0  0  0  0  0  0  0  0  0  0  0
    9.4890   -2.0550   21.7400 C   0  0  0  0  0  0  0  0  0  0  0  0
   10.7440   -2.1620   22.2940 C   0  0  0  0  0  0  0  0  0  0  0  0
   10.9480   -1.8050   23.6050 C   0  0  0  0  0  0  0  0  0  0  0  0
    9.8590   -1.3390   24.3530 C   0  0  0  0  0  0  0  0  0  0  0  0
    8.5930   -1.2380   23.7680 C   0  0  0  0  0  0  0  0  0  0  0  0
    8.3940   -1.5980   22.4240 C   0  0  0  0  0  0  0  0  0  0  0  0
  4  2  1  6
  3  4  1  0
  6  1  1  1
  4  6  1  0
  1  8  1  0
  5  8  2  0
  8  9  1  0
 10 11  2  3
  3 14  2  0
 13 14  2  0
 15 19  1  0
 16 21  1  0
 17 21  2  0
 19 21  1  6
 18 23  1  0
 20 24  1  0
 24 25  1  1
 20 26  1  0
 15 27  1  0
 12 28  1  0
 28 29  2  0
 29 30  1  0
 14 31  1  1
 30 31  2  0
 31 32  1  0
 28 33  1  0
 32 33  2  0
 34 10  1  6
 27 34  1  0
 34 35  1  0
  6 36  1  0
 36  7  1  1
 35 36  1  0
 14 37  1  0
 36 37  1  0
 37 38  1  0
 34 39  1  0
 38 39  1  0
 40 41  2  0
 41 42  1  0
 42 43  2  0
 19 44  1  0
 43 44  1  0
 40 45  1  0
 44 45  2  0
 22 46  1  0
 46 47  2  0
 18 48  1  0
 47 48  1  0
 48 49  2  0
 49 50  1  0
 16 51  1  0
 46 51  1  0
 50 51  2  0
 52 53  2  0
 24 54  1  0
 53 54  1  0
 54 55  2  0
 55 56  1  0
 15 57  1  0
 52 57  1  0
 56 57  2  0
M  END
