x0978-x2908
     RDKit          3D

 35 36  0  0  0  0  0  0  0  0999 V2000
    1.9580   -5.6300   23.2320 N   0  0  0  0  0  0  0  0  0  0  0  0
    2.1920   -8.0130   24.6820 C   0  0  0  0  0  0  0  0  0  0  0  0
    4.4970   -7.7920   24.3030 O   0  0  0  0  0  0  0  0  0  0  0  0
    3.4550   -7.1890   24.4620 C   0  0  1  0  0  0  0  0  0  0  0  0
    5.5470   -5.6140   22.2430 N   0  0  0  0  0  0  0  0  0  0  0  0
    0.7640   -7.4200   21.8420 O   0  0  0  0  0  0  0  0  0  0  0  0
    3.2590   -6.3120   23.2140 C   0  0  2  0  0  0  0  0  0  0  0  0
    4.2340   -4.1040   23.5220 O   0  0  0  0  0  0  0  0  0  0  0  0
    0.7650   -6.1990   22.5720 C   0  0  0  0  0  0  0  0  0  0  0  0
   -0.3820   -5.3920   22.7410 C   0  0  0  0  0  0  0  0  0  0  0  0
    4.3600   -5.2190   23.0360 C   0  0  0  0  0  0  0  0  0  0  0  0
    6.5020   -4.7360   21.7700 C   0  0  1  0  0  0  0  0  0  0  0  0
    6.5250   -4.9050   20.2600 C   0  0  0  0  0  0  0  0  0  0  0  0
    5.7170   -6.1160   19.8600 C   0  0  0  0  0  0  0  0  0  0  0  0
    4.7220    1.3450   21.6610 C   0  0  0  0  0  0  0  0  0  0  0  0
    8.6030    1.3940   21.0510 O   0  0  0  0  0  0  0  0  0  0  0  0
   13.1820   -2.4870   21.2310 Cl  0  0  0  0  0  0  0  0  0  0  0  0
    7.0330   -0.2660   21.1380 N   0  0  0  0  0  0  0  0  0  0  0  0
    8.7460   -0.2390   22.7900 N   0  0  0  0  0  0  0  0  0  0  0  0
    8.1190    0.3770   21.5790 C   0  0  0  0  0  0  0  0  0  0  0  0
    6.3540   -3.2700   22.2420 C   0  0  0  0  0  0  0  0  0  0  0  0
    5.9730   -2.4110   21.2030 C   0  0  0  0  0  0  0  0  0  0  0  0
    7.1280   -1.6400   20.9930 C   0  0  0  0  0  0  0  0  0  0  0  0
    6.3290    0.5810   17.6470 N   0  0  0  0  0  0  0  0  0  0  0  0
    6.8640    0.0720   18.7760 C   0  0  0  0  0  0  0  0  0  0  0  0
    6.4080    0.2760   20.0870 C   0  0  0  0  0  0  0  0  0  0  0  0
    5.2860    1.0670   20.3060 C   0  0  0  0  0  0  0  0  0  0  0  0
    4.5980    1.6930   19.0750 C   0  0  0  0  0  0  0  0  0  0  0  0
    5.2490    1.3590   17.7650 C   0  0  0  0  0  0  0  0  0  0  0  0
   10.6080    0.6940   23.7940 C   0  0  0  0  0  0  0  0  0  0  0  0
   11.9820    0.6040   23.8350 C   0  0  0  0  0  0  0  0  0  0  0  0
   12.7310   -0.3300   23.0850 C   0  0  0  0  0  0  0  0  0  0  0  0
   12.3630   -1.3500   22.1610 C   0  0  0  0  0  0  0  0  0  0  0  0
   10.8610   -1.0900   22.2550 C   0  0  0  0  0  0  0  0  0  0  0  0
   10.0560   -0.2290   22.9360 C   0  0  0  0  0  0  0  0  0  0  0  0
  4  2  1  6
  3  4  1  0
  7  1  1  1
  4  7  1  0
  1  9  1  0
  6  9  2  0
  9 10  1  0
  5 11  1  0
  7 11  1  0
  8 11  2  0
  5 12  1  0
 12 13  1  6
 13 14  2  3
 16 20  2  0
 18 20  1  0
 19 20  1  0
 12 21  1  0
 21 22  1  0
 18 23  1  0
 22 23  1  0
 24 25  2  0
 18 26  1  0
 25 26  1  0
 15 27  1  0
 26 27  2  0
 27 28  1  0
 24 29  1  0
 28 29  2  0
 30 31  2  0
 31 32  1  0
 17 33  1  0
 32 33  2  0
 33 34  1  0
 19 35  1  0
 30 35  1  0
 34 35  2  0
M  END
