x0978-x2646
     RDKit          3D

 35 36  0  0  0  0  0  0  0  0999 V2000
    1.9600   -5.6340   23.2290 N   0  0  0  0  0  0  0  0  0  0  0  0
    2.1880   -8.0240   24.6890 C   0  0  0  0  0  0  0  0  0  0  0  0
    4.4940   -7.7990   24.3190 O   0  0  0  0  0  0  0  0  0  0  0  0
    3.4480   -7.1980   24.4690 C   0  0  1  0  0  0  0  0  0  0  0  0
    5.5680   -5.7180   22.2560 N   0  0  0  0  0  0  0  0  0  0  0  0
    0.7540   -7.4220   21.8450 O   0  0  0  0  0  0  0  0  0  0  0  0
    3.2550   -6.3290   23.2140 C   0  0  2  0  0  0  0  0  0  0  0  0
    4.2740   -4.1240   23.4550 O   0  0  0  0  0  0  0  0  0  0  0  0
    0.7590   -6.2050   22.5820 C   0  0  0  0  0  0  0  0  0  0  0  0
   -0.3900   -5.4050   22.7730 C   0  0  0  0  0  0  0  0  0  0  0  0
    4.3790   -5.2620   23.0150 C   0  0  0  0  0  0  0  0  0  0  0  0
    6.5780   -4.8890   21.8150 C   0  0  1  0  0  0  0  0  0  0  0  0
    6.5360   -4.9280   20.2850 C   0  0  0  0  0  0  0  0  0  0  0  0
    5.6970   -6.1120   19.8680 C   0  0  0  0  0  0  0  0  0  0  0  0
    4.4870    1.3990   21.5600 C   0  0  0  0  0  0  0  0  0  0  0  0
    8.5810    0.9710   21.3360 O   0  0  0  0  0  0  0  0  0  0  0  0
   13.1110   -2.5100   21.4350 Cl  0  0  0  0  0  0  0  0  0  0  0  0
    6.8890   -0.4790   21.1190 N   0  0  0  0  0  0  0  0  0  0  0  0
    8.0150   -0.0640   21.6980 C   0  0  0  0  0  0  0  0  0  0  0  0
    8.5740   -0.8080   22.7300 C   0  0  0  0  0  0  0  0  0  0  0  0
    6.5320   -3.5450   22.4190 C   0  0  0  0  0  0  0  0  0  0  0  0
    5.9730   -2.5890   21.5730 C   0  0  0  0  0  0  0  0  0  0  0  0
    6.8700   -1.7800   20.8730 C   0  0  0  0  0  0  0  0  0  0  0  0
    6.3390    0.6930   17.7090 N   0  0  0  0  0  0  0  0  0  0  0  0
    6.8410    0.0510   18.8000 C   0  0  0  0  0  0  0  0  0  0  0  0
    6.3540    0.1800   20.0870 C   0  0  0  0  0  0  0  0  0  0  0  0
    5.1550    1.1220   20.2560 C   0  0  0  0  0  0  0  0  0  0  0  0
    4.6590    1.7880   18.9880 C   0  0  0  0  0  0  0  0  0  0  0  0
    5.3000    1.5190   17.7920 C   0  0  0  0  0  0  0  0  0  0  0  0
   10.6540    0.5500   23.1370 C   0  0  0  0  0  0  0  0  0  0  0  0
   12.0510    0.7240   23.0780 C   0  0  0  0  0  0  0  0  0  0  0  0
   13.1360   -0.0390   22.6210 C   0  0  0  0  0  0  0  0  0  0  0  0
   12.2570   -1.2420   22.1440 C   0  0  0  0  0  0  0  0  0  0  0  0
   10.9000   -1.4900   22.1700 C   0  0  0  0  0  0  0  0  0  0  0  0
   10.0840   -0.5750   22.6810 C   0  0  0  0  0  0  0  0  0  0  0  0
  4  2  1  6
  3  4  1  0
  7  1  1  1
  4  7  1  0
  1  9  1  0
  6  9  2  0
  9 10  1  0
  5 11  1  0
  7 11  1  0
  8 11  2  0
  5 12  1  0
 12 13  1  6
 13 14  2  3
 16 19  2  0
 18 19  1  0
 19 20  1  0
 12 21  1  0
 21 22  1  0
 18 23  1  0
 22 23  1  0
 24 25  2  0
 18 26  1  0
 25 26  1  0
 15 27  1  0
 26 27  2  0
 27 28  1  0
 24 29  1  0
 28 29  2  0
 30 31  2  0
 31 32  1  0
 17 33  1  0
 32 33  2  0
 33 34  1  0
 20 35  1  0
 30 35  1  0
 34 35  2  0
M  END
