x0978-x0831
     RDKit          3D

 29 30  0  0  0  0  0  0  0  0999 V2000
    2.0550   -5.6270   23.5390 N   0  0  0  0  0  0  0  0  0  0  0  0
    2.2570   -7.9120   24.5160 C   0  0  0  0  0  0  0  0  0  0  0  0
    4.5500   -7.6890   24.1180 O   0  0  0  0  0  0  0  0  0  0  0  0
    3.4030   -6.9100   24.4480 C   0  0  1  0  0  0  0  0  0  0  0  0
    5.2150   -4.9990   22.0230 N   0  0  0  0  0  0  0  0  0  0  0  0
    1.0740   -7.4010   21.8910 O   0  0  0  0  0  0  0  0  0  0  0  0
    3.2220   -5.7520   23.4160 C   0  0  2  0  0  0  0  0  0  0  0  0
    5.2760   -5.2090   24.3750 O   0  0  0  0  0  0  0  0  0  0  0  0
    1.0170   -6.2220   22.6780 C   0  0  0  0  0  0  0  0  0  0  0  0
   -0.2110   -5.5710   22.6140 C   0  0  0  0  0  0  0  0  0  0  0  0
    4.6220   -5.3300   23.3500 C   0  0  0  0  0  0  0  0  0  0  0  0
    6.5540   -4.7300   21.7650 C   0  0  1  0  0  0  0  0  0  0  0  0
    6.7850   -5.1480   20.3310 C   0  0  0  0  0  0  0  0  0  0  0  0
    5.7970   -6.1660   19.8570 C   0  0  0  0  0  0  0  0  0  0  0  0
   12.7860   -2.3030   23.2400 C   0  0  0  0  0  0  0  0  0  0  0  0
    9.8480   -2.0780   23.5690 C   0  0  0  0  0  0  0  0  0  0  0  0
   12.1310   -0.9620   23.1660 C   0  0  0  0  0  0  0  0  0  0  0  0
   10.7370   -0.8540   23.3150 C   0  0  0  0  0  0  0  0  0  0  0  0
   10.0030    0.3410   23.2450 C   0  0  0  0  0  0  0  0  0  0  0  0
   10.7850    1.6470   22.9880 C   0  0  0  0  0  0  0  0  0  0  0  0
   12.3070    1.5050   22.8500 C   0  0  0  0  0  0  0  0  0  0  0  0
   12.9340    0.1530   22.9440 C   0  0  0  0  0  0  0  0  0  0  0  0
    5.9740   -2.4120   21.8340 N   0  0  0  0  0  0  0  0  0  0  0  0
    6.3980   -1.0370   22.0950 C   0  0  0  0  0  0  0  0  0  0  0  0
    7.5150   -0.6220   21.3540 C   0  0  0  0  0  0  0  0  0  0  0  0
    8.6620   -1.4040   21.5870 C   0  0  0  0  0  0  0  0  0  0  0  0
    8.5170   -1.8080   23.0380 N   0  0  0  0  0  0  0  0  0  0  0  0
    7.6330   -2.9840   23.2340 C   0  0  0  0  0  0  0  0  0  0  0  0
    6.9960   -3.2680   22.0600 C   0  0  1  0  0  0  0  0  0  0  0  0
  4  2  1  6
  3  4  1  0
  7  1  1  1
  4  7  1  0
  1  9  1  0
  6  9  2  0
  9 10  1  0
  5 11  1  0
  7 11  1  0
  8 11  2  0
  5 12  1  0
 12 13  1  6
 13 14  2  3
 15 17  1  0
 16 18  1  0
 17 18  2  0
 18 19  1  0
 19 20  2  0
 20 21  1  0
 17 22  1  0
 21 22  2  0
 23 24  1  0
 24 25  1  0
 25 26  1  0
 16 27  1  0
 26 27  1  0
 27 28  1  0
 12 29  1  0
 23 29  1  0
 29 28  1  1
M  END
