x0978-x2764
     RDKit          3D

 34 35  0  0  0  0  0  0  0  0999 V2000
    2.0450   -5.5910   23.1430 N   0  0  0  0  0  0  0  0  0  0  0  0
    2.1900   -8.0500   24.5490 C   0  0  0  0  0  0  0  0  0  0  0  0
    4.4970   -7.6540   24.5750 O   0  0  0  0  0  0  0  0  0  0  0  0
    3.4050   -7.1310   24.5050 C   0  0  1  0  0  0  0  0  0  0  0  0
    5.6860   -5.6300   22.3220 N   0  0  0  0  0  0  0  0  0  0  0  0
    0.8070   -7.4490   21.8800 O   0  0  0  0  0  0  0  0  0  0  0  0
    3.3340   -6.2950   23.2110 C   0  0  2  0  0  0  0  0  0  0  0  0
    4.3380   -4.0900   23.5200 O   0  0  0  0  0  0  0  0  0  0  0  0
    0.8280   -6.2050   22.5680 C   0  0  0  0  0  0  0  0  0  0  0  0
   -0.3230   -5.4110   22.7760 C   0  0  0  0  0  0  0  0  0  0  0  0
    4.4660   -5.2170   23.0590 C   0  0  0  0  0  0  0  0  0  0  0  0
    6.6540   -4.7700   21.8150 C   0  0  1  0  0  0  0  0  0  0  0  0
    6.5310   -4.8030   20.2980 C   0  0  0  0  0  0  0  0  0  0  0  0
    5.7170   -6.0210   19.9070 C   0  0  0  0  0  0  0  0  0  0  0  0
    8.6260   -1.3510   21.3700 N   0  0  0  0  0  0  0  0  0  0  0  0
    7.2720   -1.4510   21.1540 C   0  0  0  0  0  0  0  0  0  0  0  0
    6.4190   -2.4490   21.6940 N   0  0  0  0  0  0  0  0  0  0  0  0
    9.0400   -2.0960   22.4300 C   0  0  0  0  0  0  0  0  0  0  0  0
    6.6600    1.2370   22.0170 O   0  0  0  0  0  0  0  0  0  0  0  0
    7.7240    4.2810   22.6150 N   0  0  0  0  0  0  0  0  0  0  0  0
    7.7760    1.7510   22.2020 C   0  0  0  0  0  0  0  0  0  0  0  0
    7.7310    3.1350   22.4180 C   0  0  0  0  0  0  0  0  0  0  0  0
    6.6980   -3.3310   22.4250 C   0  0  0  0  0  0  0  0  0  0  0  0
   12.6360   -1.6400   22.5150 N   0  0  0  0  0  0  0  0  0  0  0  0
   11.4310   -1.8640   21.9990 C   0  0  0  0  0  0  0  0  0  0  0  0
   10.3660   -1.8630   22.8880 C   0  0  0  0  0  0  0  0  0  0  0  0
   10.7450   -1.6230   24.1960 C   0  0  0  0  0  0  0  0  0  0  0  0
   12.4710   -1.4230   24.1560 S   0  0  0  0  0  0  0  0  0  0  0  0
    6.3580   -0.7650   18.9480 C   0  0  0  0  0  0  0  0  0  0  0  0
    5.7040    0.2730   18.0400 C   0  0  0  0  0  0  0  0  0  0  0  0
    5.4230    1.5260   18.5280 C   0  0  0  0  0  0  0  0  0  0  0  0
    5.7510    1.8310   19.8600 C   0  0  0  0  0  0  0  0  0  0  0  0
    6.3620    0.8930   20.7390 C   0  0  0  0  0  0  0  0  0  0  0  0
    6.6560   -0.4070   20.2720 C   0  0  0  0  0  0  0  0  0  0  0  0
  4  2  1  6
  3  4  1  0
  7  1  1  1
  4  7  1  0
  1  9  1  0
  6  9  2  0
  9 10  1  0
  5 11  1  0
  7 11  1  0
  8 11  2  0
  5 12  1  0
 12 13  1  6
 13 14  2  3
 15 16  1  0
 16 17  2  3
 15 18  1  0
 19 21  1  0
 20 22  3  0
 21 22  1  0
 12 23  1  0
 17 23  1  0
 24 25  2  0
 18 26  1  0
 25 26  1  0
 26 27  2  0
 24 28  1  0
 27 28  1  0
 29 30  2  0
 30 31  1  0
 31 32  2  0
 19 33  1  0
 32 33  1  0
 16 34  1  0
 29 34  1  0
 33 34  2  0
M  END
