x0978-x2608
     RDKit          3D

 33 34  0  0  0  0  0  0  0  0999 V2000
    2.0300   -5.6690   23.3660 N   0  0  0  0  0  0  0  0  0  0  0  0
    2.2380   -8.0120   24.4260 C   0  0  0  0  0  0  0  0  0  0  0  0
    4.5220   -7.5420   24.5130 O   0  0  0  0  0  0  0  0  0  0  0  0
    3.2610   -6.8870   24.4550 C   0  0  1  0  0  0  0  0  0  0  0  0
    5.2790   -5.7150   21.7750 N   0  0  0  0  0  0  0  0  0  0  0  0
    0.9350   -7.4720   21.8350 O   0  0  0  0  0  0  0  0  0  0  0  0
    3.1770   -5.8970   23.2490 C   0  0  2  0  0  0  0  0  0  0  0  0
    5.2010   -5.1450   24.0780 O   0  0  0  0  0  0  0  0  0  0  0  0
    0.9410   -6.2670   22.5800 C   0  0  0  0  0  0  0  0  0  0  0  0
   -0.2660   -5.5770   22.5540 C   0  0  0  0  0  0  0  0  0  0  0  0
    4.5920   -5.5750   23.1050 C   0  0  0  0  0  0  0  0  0  0  0  0
    6.3660   -4.9280   21.4150 C   0  0  1  0  0  0  0  0  0  0  0  0
    6.4490   -4.4740   19.9400 C   0  0  0  0  0  0  0  0  0  0  0  0
    5.3640   -3.5800   19.4070 C   0  0  0  0  0  0  0  0  0  0  0  0
    8.6070   -0.9760   22.4300 N   0  0  0  0  0  0  0  0  0  0  0  0
   12.9660    1.6820   22.9240 C   0  0  0  0  0  0  0  0  0  0  0  0
    8.4120    0.8950   21.0760 O   0  0  0  0  0  0  0  0  0  0  0  0
    6.6170   -0.3610   21.4180 N   0  0  0  0  0  0  0  0  0  0  0  0
    7.9160   -0.0980   21.6080 C   0  0  0  0  0  0  0  0  0  0  0  0
    6.4200   -3.7990   22.2590 C   0  0  0  0  0  0  0  0  0  0  0  0
    6.7660   -2.6780   21.5230 C   0  0  0  0  0  0  0  0  0  0  0  0
    6.2090   -1.5190   21.9420 C   0  0  0  0  0  0  0  0  0  0  0  0
   12.1410    0.6080   22.9390 C   0  0  0  0  0  0  0  0  0  0  0  0
   12.3970   -0.8910   23.2280 C   0  0  0  0  0  0  0  0  0  0  0  0
   11.1160   -1.6630   23.0830 C   0  0  0  0  0  0  0  0  0  0  0  0
    9.9900   -0.7070   22.7010 C   0  0  0  0  0  0  0  0  0  0  0  0
   10.5070    0.9200   22.5790 S   0  0  0  0  0  0  0  0  0  0  0  0
    6.1920    0.5760   17.7940 N   0  0  0  0  0  0  0  0  0  0  0  0
    6.6940    0.0330   18.9190 C   0  0  0  0  0  0  0  0  0  0  0  0
    6.1010    0.1800   20.1630 C   0  0  0  0  0  0  0  0  0  0  0  0
    4.9260    0.9030   20.2880 C   0  0  0  0  0  0  0  0  0  0  0  0
    4.3960    1.4660   19.1460 C   0  0  0  0  0  0  0  0  0  0  0  0
    5.0610    1.2750   17.9630 C   0  0  0  0  0  0  0  0  0  0  0  0
  4  2  1  6
  3  4  1  0
  7  1  1  1
  4  7  1  0
  1  9  1  0
  6  9  2  0
  9 10  1  0
  5 11  1  0
  7 11  1  0
  8 11  2  0
  5 12  1  0
 12 13  1  6
 13 14  2  3
 15 19  1  0
 17 19  2  0
 18 19  1  0
 12 20  1  0
 20 21  1  0
 18 22  1  0
 21 22  1  0
 16 23  1  0
 23 24  2  0
 24 25  1  0
 15 26  1  0
 25 26  2  0
 23 27  1  0
 26 27  1  0
 28 29  2  0
 18 30  1  0
 29 30  1  0
 30 31  2  0
 31 32  1  0
 28 33  1  0
 32 33  2  0
M  END
