x0978-x0946-x3110-x0426-x0734
     RDKit          3D

 75 81  0  0  0  0  0  0  0  0999 V2000
    7.8270    1.4700   23.4860 N   0  0  0  0  0  0  0  0  0  0  0  0
   13.4810    5.3780   23.1430 C   0  0  0  0  0  0  0  0  0  0  0  0
   13.0320    4.4330   22.1160 C   0  0  0  0  0  0  0  0  0  0  0  0
    7.2920   -1.2480   21.7300 N   0  0  0  0  0  0  0  0  0  0  0  0
   10.3520    4.8920   23.1700 C   0  0  0  0  0  0  0  0  0  0  0  0
    8.6000    1.6600   21.2860 O   0  0  0  0  0  0  0  0  0  0  0  0
    8.7420    2.4020   24.1620 C   0  0  0  0  0  0  0  0  0  0  0  0
    7.8120    1.1550   22.1240 C   0  0  0  0  0  0  0  0  0  0  0  0
    6.6930    0.1030   21.7020 C   0  0  1  0  0  0  0  0  0  0  0  0
   12.4860   -1.8130   24.2030 C   0  0  0  0  0  0  0  0  0  0  0  0
   12.6930   -0.6470   25.1390 C   0  0  0  0  0  0  0  0  0  0  0  0
   13.4310   -1.7810   23.0130 C   0  0  0  0  0  0  0  0  0  0  0  0
   12.8980   -3.0400   24.9890 C   0  0  0  0  0  0  0  0  0  0  0  0
    2.5710    2.1480   24.0850 C   0  0  0  0  0  0  0  0  0  0  0  0
    2.9020    1.0580   24.5220 O   0  0  0  0  0  0  0  0  0  0  0  0
    3.2660    2.8000   23.0810 N   0  0  0  0  0  0  0  0  0  0  0  0
    4.1970    2.1700   22.3260 C   0  0  0  0  0  0  0  0  0  0  0  0
    3.7920    1.3480   21.2940 C   0  0  0  0  0  0  0  0  0  0  0  0
    2.7310    4.6330   25.3980 F   0  0  0  0  0  0  0  0  0  0  0  0
   10.1880    5.4700   24.4450 N   0  0  0  0  0  0  0  0  0  0  0  0
    9.0800    4.9920   22.6910 O   0  0  0  0  0  0  0  0  0  0  0  0
   11.0670    5.8450   22.4430 O   0  0  0  0  0  0  0  0  0  0  0  0
    2.1650   -6.7200   22.4920 N   0  0  0  0  0  0  0  0  0  0  0  0
    2.3220   -8.2520   24.6630 C   0  0  0  0  0  0  0  0  0  0  0  0
    4.3340   -7.8630   24.2240 O   0  0  0  0  0  0  0  0  0  0  0  0
    3.2960   -7.2740   24.4720 C   0  0  1  0  0  0  0  0  0  0  0  0
    5.0430   -5.6040   21.9080 N   0  0  0  0  0  0  0  0  0  0  0  0
    0.1240   -7.2360   21.6520 O   0  0  0  0  0  0  0  0  0  0  0  0
    2.9950   -6.2570   23.5680 C   0  0  1  0  0  0  0  0  0  0  0  0
    4.6490   -4.6250   23.8600 N   0  0  0  0  0  0  0  0  0  0  0  0
    0.7920   -6.5510   22.4100 C   0  0  0  0  0  0  0  0  0  0  0  0
    0.1920   -5.5720   23.2130 C   0  0  0  0  0  0  0  0  0  0  0  0
    4.2680   -5.4910   23.0710 C   0  0  0  0  0  0  0  0  0  0  0  0
    6.4610   -5.0120   20.3320 C   0  0  0  0  0  0  0  0  0  0  0  0
    5.6440   -6.1750   19.8650 C   0  0  0  0  0  0  0  0  0  0  0  0
    6.4720   -2.3980   21.6390 C   0  0  0  0  0  0  0  0  0  0  0  0
    5.0400   -4.3170   26.5140 N   0  0  0  0  0  0  0  0  0  0  0  0
    4.1270   -5.0780   26.1390 O   0  0  0  0  0  0  0  0  0  0  0  0
    4.8830   -3.3220   27.2240 O   0  0  0  0  0  0  0  0  0  0  0  0
    6.5000    0.5350   17.9450 N   0  0  0  0  0  0  0  0  0  0  0  0
    5.2880    1.1040   17.8020 C   0  0  0  0  0  0  0  0  0  0  0  0
    4.4560    1.3500   18.8760 C   0  0  0  0  0  0  0  0  0  0  0  0
    4.7960    1.0490   20.2040 C   0  0  0  0  0  0  0  0  0  0  0  0
    6.0930    0.4710   20.3710 C   0  0  0  0  0  0  0  0  0  0  0  0
    6.8650    0.2360   19.2140 C   0  0  0  0  0  0  0  0  0  0  0  0
    9.5980   -1.9800   21.7650 C   0  0  0  0  0  0  0  0  0  0  0  0
   10.8150   -2.0940   22.3890 C   0  0  0  0  0  0  0  0  0  0  0  0
   11.0920   -1.6490   23.6550 C   0  0  0  0  0  0  0  0  0  0  0  0
   10.1240   -1.0600   24.3670 C   0  0  0  0  0  0  0  0  0  0  0  0
    8.7500   -0.8660   23.7990 C   0  0  0  0  0  0  0  0  0  0  0  0
    8.5170   -1.3770   22.3700 C   0  0  0  0  0  0  0  0  0  0  0  0
    1.5290    4.0450   25.3170 C   0  0  0  0  0  0  0  0  0  0  0  0
    1.3930    2.8290   24.6830 C   0  0  0  0  0  0  0  0  0  0  0  0
   -0.0040    2.1910   24.6150 C   0  0  0  0  0  0  0  0  0  0  0  0
   -1.1610    2.7540   25.1520 C   0  0  0  0  0  0  0  0  0  0  0  0
   -1.0100    4.1010   25.8550 C   0  0  0  0  0  0  0  0  0  0  0  0
    0.4320    4.6890   25.8860 C   0  0  0  0  0  0  0  0  0  0  0  0
   12.1140    0.9080   23.2950 C   0  0  0  0  0  0  0  0  0  0  0  0
   12.9630    2.0360   22.7410 C   0  0  0  0  0  0  0  0  0  0  0  0
   12.2480    3.3130   22.7150 C   0  0  0  0  0  0  0  0  0  0  0  0
   10.9650    3.4810   23.1840 C   0  0  0  0  0  0  0  0  0  0  0  0
   10.1760    2.2990   23.6980 C   0  0  0  0  0  0  0  0  0  0  0  0
   10.8290    1.0760   23.7180 C   0  0  0  0  0  0  0  0  0  0  0  0
    6.3610   -4.8640   26.3930 C   0  0  0  0  0  0  0  0  0  0  0  0
    7.1570   -4.6170   25.2810 C   0  0  0  0  0  0  0  0  0  0  0  0
    8.4250   -5.2040   25.1770 C   0  0  0  0  0  0  0  0  0  0  0  0
    8.9410   -6.0150   26.1990 C   0  0  0  0  0  0  0  0  0  0  0  0
    8.1800   -6.2390   27.3360 C   0  0  0  0  0  0  0  0  0  0  0  0
    6.7990   -5.6450   27.4460 C   0  0  0  0  0  0  0  0  0  0  0  0
    7.1710   -3.6960   21.7030 N   0  0  0  0  0  0  0  0  0  0  0  0
    6.4630   -4.9860   21.9790 C   0  0  2  0  0  0  0  0  0  0  0  0
    5.8180   -4.0820   23.2070 C   0  0  2  0  0  0  0  0  0  0  0  0
    6.8360   -3.7920   24.2210 N   0  0  0  0  0  0  0  0  0  0  0  0
    7.8510   -2.8640   23.8100 C   0  0  0  0  0  0  0  0  0  0  0  0
    8.3010   -3.4520   22.5290 C   0  0  0  0  0  0  0  0  0  0  0  0
  2  3  1  0
  1  7  1  0
  1  8  1  0
  6  8  2  0
  4  9  1  0
  9  8  1  6
 10 11  1  0
 10 12  1  0
 10 13  1  0
 14 15  2  0
 14 16  1  0
 16 17  1  0
 17 18  1  0
  5 20  1  0
  5 21  1  0
  5 22  1  0
 26 24  1  6
 25 26  1  0
 29 23  1  6
 26 29  1  0
 23 31  1  0
 28 31  2  0
 31 32  1  0
 27 33  1  0
 29 33  1  0
 30 33  2  0
 34 35  2  3
  4 36  1  0
 37 38  2  0
 37 39  1  0
 40 41  2  0
 41 42  1  0
 18 43  1  0
 42 43  2  0
  9 44  1  0
 43 44  1  0
 40 45  1  0
 44 45  2  0
 46 47  2  0
 10 48  1  0
 47 48  1  0
 48 49  2  0
 49 50  1  0
  4 51  1  0
 46 51  1  0
 50 51  2  0
 19 52  1  0
 14 53  1  0
 52 53  2  0
 53 54  1  0
 54 55  2  0
 55 56  1  0
 52 57  1  0
 56 57  2  0
 58 59  2  0
  3 60  1  0
 59 60  1  0
  5 61  1  0
 60 61  2  0
  7 62  1  0
 61 62  1  0
 58 63  1  0
 62 63  2  0
 37 64  1  0
 64 65  2  0
 65 66  1  0
 66 67  2  0
 67 68  1  0
 64 69  1  0
 68 69  2  0
 36 70  1  0
 27 71  1  0
 71 34  1  1
 70 71  1  0
 72 30  1  1
 71 72  1  0
 65 73  1  0
 72 73  1  0
 73 74  1  0
 70 75  1  0
 74 75  1  0
M  CHG  2  37   1  39  -1
M  END
