x0978-x0946-x3110-x0426-x1351-x0734
     RDKit          3D

 83 91  0  0  0  0  0  0  0  0999 V2000
    8.2980    1.6310   23.1110 N   0  0  0  0  0  0  0  0  0  0  0  0
   12.8220    5.7190   22.1470 C   0  0  0  0  0  0  0  0  0  0  0  0
   13.5010    4.5090   22.6670 C   0  0  0  0  0  0  0  0  0  0  0  0
    7.5390   -1.4820   21.6620 N   0  0  0  0  0  0  0  0  0  0  0  0
   10.6020    4.8810   23.6780 C   0  0  0  0  0  0  0  0  0  0  0  0
    8.3090    1.5340   20.6920 O   0  0  0  0  0  0  0  0  0  0  0  0
    8.9830    2.3030   24.1350 C   0  0  0  0  0  0  0  0  0  0  0  0
    7.8470    1.0290   21.8500 C   0  0  0  0  0  0  0  0  0  0  0  0
    6.8420   -0.1600   21.7170 C   0  0  1  0  0  0  0  0  0  0  0  0
   12.4230   -1.9910   24.2920 C   0  0  0  0  0  0  0  0  0  0  0  0
   12.8500   -0.6960   24.9790 C   0  0  0  0  0  0  0  0  0  0  0  0
   13.4820   -2.3590   23.2620 C   0  0  0  0  0  0  0  0  0  0  0  0
   12.1690   -3.1310   25.2730 C   0  0  0  0  0  0  0  0  0  0  0  0
    2.4880    2.1150   24.0340 C   0  0  0  0  0  0  0  0  0  0  0  0
    2.8210    1.0490   24.5820 O   0  0  0  0  0  0  0  0  0  0  0  0
    3.1580    2.6770   22.9410 N   0  0  0  0  0  0  0  0  0  0  0  0
    4.4520    2.2380   22.3720 C   0  0  0  0  0  0  0  0  0  0  0  0
    4.0700    1.1640   21.4380 C   0  0  0  0  0  0  0  0  0  0  0  0
    2.6980    4.5850   25.3580 F   0  0  0  0  0  0  0  0  0  0  0  0
   11.4900    5.5600   24.5920 N   0  0  0  0  0  0  0  0  0  0  0  0
    9.3730    4.9230   24.3880 O   0  0  0  0  0  0  0  0  0  0  0  0
   10.5340    5.8210   22.7040 O   0  0  0  0  0  0  0  0  0  0  0  0
    2.0110   -5.5990   23.2330 N   0  0  0  0  0  0  0  0  0  0  0  0
    1.9740   -8.1410   24.7620 C   0  0  0  0  0  0  0  0  0  0  0  0
    4.3200   -8.0680   24.4170 O   0  0  0  0  0  0  0  0  0  0  0  0
    3.1400   -7.3120   24.3230 C   0  0  1  0  0  0  0  0  0  0  0  0
    5.3420   -5.8040   22.1060 N   0  0  0  0  0  0  0  0  0  0  0  0
    0.7600   -7.1310   21.9720 O   0  0  0  0  0  0  0  0  0  0  0  0
    3.0120   -6.4210   23.1990 C   0  0  2  0  0  0  0  0  0  0  0  0
    0.7830   -6.0760   22.6020 C   0  0  0  0  0  0  0  0  0  0  0  0
   -0.5650   -5.3440   22.6460 C   0  0  0  0  0  0  0  0  0  0  0  0
    4.2830   -5.6180   23.0990 C   0  0  0  0  0  0  0  0  0  0  0  0
    6.3700   -4.0830   19.9380 C   0  0  0  0  0  0  0  0  0  0  0  0
    5.4600   -3.4310   19.2730 C   0  0  0  0  0  0  0  0  0  0  0  0
    5.4920   -3.0220   24.7600 N   0  0  0  0  0  0  0  0  0  0  0  0
    7.3490   -2.9540   26.3440 O   0  0  0  0  0  0  0  0  0  0  0  0
    6.3230   -2.4200   25.8950 C   0  0  0  0  0  0  0  0  0  0  0  0
    6.4370    0.3340   18.0230 N   0  0  0  0  0  0  0  0  0  0  0  0
    5.2680    0.9360   17.9000 C   0  0  0  0  0  0  0  0  0  0  0  0
    4.5170    1.1920   19.0480 C   0  0  0  0  0  0  0  0  0  0  0  0
    4.9660    0.8450   20.3290 C   0  0  0  0  0  0  0  0  0  0  0  0
    6.2290    0.2240   20.4200 C   0  0  0  0  0  0  0  0  0  0  0  0
    6.9200   -0.0210   19.2240 C   0  0  0  0  0  0  0  0  0  0  0  0
    9.9640   -1.1290   21.6970 C   0  0  0  0  0  0  0  0  0  0  0  0
   11.1290   -1.2790   22.3570 C   0  0  0  0  0  0  0  0  0  0  0  0
   11.1480   -1.8230   23.5910 C   0  0  0  0  0  0  0  0  0  0  0  0
   10.0150   -2.2200   24.1930 C   0  0  0  0  0  0  0  0  0  0  0  0
    8.8380   -2.0800   23.5460 C   0  0  0  0  0  0  0  0  0  0  0  0
    8.7830   -1.5310   22.2590 C   0  0  0  0  0  0  0  0  0  0  0  0
    1.4880    4.0060   25.2880 C   0  0  0  0  0  0  0  0  0  0  0  0
    1.3220    2.8010   24.6530 C   0  0  0  0  0  0  0  0  0  0  0  0
    0.0740    2.1910   24.5720 C   0  0  0  0  0  0  0  0  0  0  0  0
   -1.0540    2.7940   25.1430 C   0  0  0  0  0  0  0  0  0  0  0  0
   -0.8900    4.1250   25.8530 C   0  0  0  0  0  0  0  0  0  0  0  0
    0.4040    4.6510   25.8750 C   0  0  0  0  0  0  0  0  0  0  0  0
   12.2300    0.9800   23.0670 C   0  0  0  0  0  0  0  0  0  0  0  0
   13.0100    2.2080   22.8120 C   0  0  0  0  0  0  0  0  0  0  0  0
   12.5580    3.4390   22.9740 C   0  0  0  0  0  0  0  0  0  0  0  0
   11.1120    3.5330   23.4710 C   0  0  0  0  0  0  0  0  0  0  0  0
   10.3820    2.3770   23.6960 C   0  0  0  0  0  0  0  0  0  0  0  0
   10.9300    1.1280   23.5020 C   0  0  0  0  0  0  0  0  0  0  0  0
    5.9640   -3.9960   21.8120 S   0  0  0  0  0  0  0  0  0  0  0  0
    7.1330   -2.7120   22.3350 C   0  0  2  0  0  0  0  0  0  0  0  0
    6.2240   -2.4760   23.2070 C   0  0  0  0  0  0  0  0  0  0  0  0
    6.0660   -3.7810   23.5570 C   0  0  1  0  0  0  0  0  0  0  0  0
    4.9460   -4.7590   23.4110 C   0  0  0  0  0  0  0  0  0  0  0  0
    6.2310   -5.2170   22.6860 C   0  0  0  0  0  0  0  0  0  0  0  0
    6.1340   -1.0350   27.9650 C   0  0  0  0  0  0  0  0  0  0  0  0
    5.9150    0.1310   28.6980 C   0  0  0  0  0  0  0  0  0  0  0  0
    5.5700    1.2720   28.0060 C   0  0  0  0  0  0  0  0  0  0  0  0
    5.4600    1.2110   26.6610 C   0  0  0  0  0  0  0  0  0  0  0  0
    5.6920    0.0200   25.9490 C   0  0  0  0  0  0  0  0  0  0  0  0
    6.0400   -1.1310   26.5970 C   0  0  0  0  0  0  0  0  0  0  0  0
    5.3530   -5.1430   26.2240 N   0  0  0  0  0  0  0  0  0  0  0  0
    4.8290   -6.0880   25.5770 N   0  0  0  0  0  0  0  0  0  0  0  0
    4.5410   -4.2080   26.8330 O   0  0  0  0  0  0  0  0  0  0  0  0
    6.7900   -5.1210   26.3830 C   0  0  0  0  0  0  0  0  0  0  0  0
    7.5580   -4.7400   25.3160 C   0  0  0  0  0  0  0  0  0  0  0  0
    8.9350   -4.6810   25.3740 C   0  0  0  0  0  0  0  0  0  0  0  0
    9.5530   -5.0310   26.5750 C   0  0  0  0  0  0  0  0  0  0  0  0
    8.7830   -5.4120   27.6330 C   0  0  0  0  0  0  0  0  0  0  0  0
    7.3970   -5.4690   27.5790 C   0  0  0  0  0  0  0  0  0  0  0  0
    3.4150   -6.3360   25.5290 C   0  0  0  0  0  0  0  0  0  0  0  0
  2  3  1  0
  1  7  1  0
  1  8  1  0
  6  8  2  0
  4  9  1  0
  9  8  1  6
 10 11  1  0
 10 12  1  0
 10 13  1  0
 14 15  2  0
 14 16  1  0
 16 17  1  0
 17 18  1  0
  5 20  1  0
  5 21  1  0
  5 22  1  0
 26 24  1  1
 26 25  1  0
 29 23  1  1
 26 29  1  0
 23 30  1  0
 28 30  2  0
 30 31  1  0
 27 32  1  0
 29 32  1  0
 33 34  2  3
 35 37  1  0
 36 37  2  0
 38 39  2  0
 39 40  1  0
 18 41  1  0
 40 41  2  0
  9 42  1  0
 41 42  1  0
 38 43  1  0
 42 43  2  0
 44 45  2  0
 10 46  1  0
 45 46  1  0
 46 47  2  0
 47 48  1  0
  4 49  1  0
 44 49  1  0
 48 49  2  0
 19 50  1  0
 14 51  1  0
 50 51  2  0
 51 52  1  0
 52 53  2  0
 53 54  1  0
 50 55  1  0
 54 55  2  0
 56 57  2  0
  3 58  1  0
 57 58  1  0
  5 59  1  0
 58 59  2  0
  7 60  1  0
 59 60  1  0
 56 61  1  0
 60 61  2  0
 27 62  1  0
 33 62  1  0
 63  4  1  6
 62 63  1  0
 63 64  1  0
 65 35  1  6
 62 65  1  0
 64 65  1  0
 32 66  2  0
 65 66  1  0
 62 67  1  0
 66 67  1  0
 68 69  2  0
 69 70  1  0
 70 71  2  0
 71 72  1  0
 37 73  1  0
 68 73  1  0
 72 73  2  0
 74 75  2  3
 74 76  1  0
 74 77  1  0
 77 78  2  0
 78 79  1  0
 79 80  2  0
 80 81  1  0
 77 82  1  0
 81 82  2  0
 26 83  1  0
 75 83  1  0
M  CHG  2  74   1  76  -1
M  END
