x0978-x2540
     RDKit          3D

 41 42  0  0  0  0  0  0  0  0999 V2000
    2.0190   -5.7300   23.4390 N   0  0  0  0  0  0  0  0  0  0  0  0
    2.2440   -7.9680   24.5590 C   0  0  0  0  0  0  0  0  0  0  0  0
    4.5360   -7.7220   24.1470 O   0  0  0  0  0  0  0  0  0  0  0  0
    3.3660   -6.9530   24.4050 C   0  0  1  0  0  0  0  0  0  0  0  0
    5.2210   -5.7480   21.7360 N   0  0  0  0  0  0  0  0  0  0  0  0
    0.9210   -7.4470   21.8170 O   0  0  0  0  0  0  0  0  0  0  0  0
    3.1650   -5.9140   23.2640 C   0  0  2  0  0  0  0  0  0  0  0  0
    5.1800   -5.1020   24.0290 O   0  0  0  0  0  0  0  0  0  0  0  0
    0.9320   -6.2710   22.6090 C   0  0  0  0  0  0  0  0  0  0  0  0
   -0.2650   -5.5640   22.5870 C   0  0  0  0  0  0  0  0  0  0  0  0
    4.5660   -5.5670   23.0770 C   0  0  0  0  0  0  0  0  0  0  0  0
    6.3760   -5.0820   21.3660 C   0  0  1  0  0  0  0  0  0  0  0  0
    6.4470   -4.4890   19.9370 C   0  0  0  0  0  0  0  0  0  0  0  0
    5.3620   -3.5760   19.4330 C   0  0  0  0  0  0  0  0  0  0  0  0
    7.4770   -0.7120   22.0570 N   0  0  0  0  0  0  0  0  0  0  0  0
    8.1710    2.2180   23.1560 N   0  0  0  0  0  0  0  0  0  0  0  0
    8.7210    1.9650   21.0070 O   0  0  0  0  0  0  0  0  0  0  0  0
    7.1050    0.5710   21.8320 C   0  0  1  0  0  0  0  0  0  0  0  0
    8.0350    1.6020   21.9580 C   0  0  0  0  0  0  0  0  0  0  0  0
    9.0430    3.2130   23.4670 C   0  0  0  0  0  0  0  0  0  0  0  0
    9.2060    3.5470   24.7970 C   0  0  0  0  0  0  0  0  0  0  0  0
    8.6510    4.2180   22.6780 C   0  0  0  0  0  0  0  0  0  0  0  0
   10.3200    2.8270   22.9390 C   0  0  0  0  0  0  0  0  0  0  0  0
   12.2980   -1.4470   23.3450 C   0  0  0  0  0  0  0  0  0  0  0  0
   12.8570   -1.8350   21.9840 C   0  0  0  0  0  0  0  0  0  0  0  0
   12.8600   -0.0780   23.6700 C   0  0  0  0  0  0  0  0  0  0  0  0
   12.6950   -2.3480   24.3880 C   0  0  0  0  0  0  0  0  0  0  0  0
    6.6090   -3.9260   22.3750 C   0  0  0  0  0  0  0  0  0  0  0  0
    6.7650   -2.7340   21.6940 C   0  0  0  0  0  0  0  0  0  0  0  0
    6.4530   -1.5710   22.3050 C   0  0  0  0  0  0  0  0  0  0  0  0
    6.3270    0.2240   17.9780 N   0  0  0  0  0  0  0  0  0  0  0  0
    5.3080    1.0680   17.8710 C   0  0  0  0  0  0  0  0  0  0  0  0
    4.8100    1.7730   18.9540 C   0  0  0  0  0  0  0  0  0  0  0  0
    5.3960    1.6000   20.2000 C   0  0  0  0  0  0  0  0  0  0  0  0
    6.4890    0.7320   20.4440 C   0  0  0  0  0  0  0  0  0  0  0  0
    6.9030    0.0770   19.3040 C   0  0  0  0  0  0  0  0  0  0  0  0
   10.0630   -1.6380   24.3330 O   0  0  0  0  0  0  0  0  0  0  0  0
    8.7110   -1.4850   24.1040 N   0  0  0  0  0  0  0  0  0  0  0  0
    8.6180   -1.0620   22.8530 C   0  0  0  0  0  0  0  0  0  0  0  0
    9.9820   -0.9460   22.2120 C   0  0  0  0  0  0  0  0  0  0  0  0
   10.8140   -1.3280   23.2280 C   0  0  0  0  0  0  0  0  0  0  0  0
  4  2  1  6
  3  4  1  0
  7  1  1  1
  4  7  1  0
  1  9  1  0
  6  9  2  0
  9 10  1  0
  5 11  1  0
  7 11  1  0
  8 11  2  0
  5 12  1  0
 12 13  1  6
 13 14  2  3
 15 18  1  0
 16 19  1  0
 17 19  2  0
 18 19  1  6
 20 16  1  0
 20 21  1  0
 20 22  1  0
 20 23  1  0
 24 25  1  0
 24 26  1  0
 24 27  1  0
 12 28  1  0
 28 29  1  0
 15 30  1  0
 29 30  1  0
 31 32  2  0
 32 33  1  0
 33 34  2  0
 18 35  1  0
 34 35  1  0
 31 36  1  0
 35 36  2  0
 37 38  1  0
 15 39  1  0
 38 39  2  0
 39 40  1  0
 24 41  1  0
 37 41  1  0
 40 41  2  0
M  END
