x0978-x0689
     RDKit          3D

 24 26  0  0  0  0  0  0  0  0999 V2000
    2.3070   -5.5190   23.0610 N   0  0  0  0  0  0  0  0  0  0  0  0
    2.4740   -7.0810   25.2270 C   0  0  0  0  0  0  0  0  0  0  0  0
    4.5750   -7.6810   24.4810 O   0  0  0  0  0  0  0  0  0  0  0  0
    3.8280   -6.7190   24.6110 C   0  0  1  0  0  0  0  0  0  0  0  0
    0.9590   -7.4080   21.9400 O   0  0  0  0  0  0  0  0  0  0  0  0
    3.5680   -6.2760   23.1500 C   0  0  2  0  0  0  0  0  0  0  0  0
    4.3720   -4.2790   22.1270 O   0  0  0  0  0  0  0  0  0  0  0  0
    1.0320   -6.1580   22.6220 C   0  0  0  0  0  0  0  0  0  0  0  0
   -0.1160   -5.3990   22.9450 C   0  0  0  0  0  0  0  0  0  0  0  0
    6.7630   -4.0710   20.3450 C   0  0  0  0  0  0  0  0  0  0  0  0
    5.4180   -4.1720   19.8050 C   0  0  0  0  0  0  0  0  0  0  0  0
    5.0450   -6.0020   26.4590 O   0  0  0  0  0  0  0  0  0  0  0  0
    4.6620   -5.2300   25.2980 S   0  0  0  0  0  0  0  0  0  0  0  0
    6.8430   -5.0520   21.4720 N   0  0  0  0  0  0  0  0  0  0  0  0
    5.7650   -5.8880   21.7020 C   0  0  0  0  0  0  0  0  0  0  0  0
    4.8190   -5.4810   22.6940 C   0  0  2  0  0  0  0  0  0  0  0  0
    5.6000   -5.2490   23.9220 N   0  0  0  0  0  0  0  0  0  0  0  0
    6.4810   -4.2440   23.7330 C   0  0  0  0  0  0  0  0  0  0  0  0
    7.4230   -4.6220   22.7580 C   0  0  0  0  0  0  0  0  0  0  0  0
    3.8070   -2.4010   25.8180 S   0  0  0  0  0  0  0  0  0  0  0  0
    3.3420   -4.0290   25.4400 C   0  0  0  0  0  0  0  0  0  0  0  0
    1.9540   -4.1040   25.3080 C   0  0  0  0  0  0  0  0  0  0  0  0
    1.3420   -2.8890   25.5100 C   0  0  0  0  0  0  0  0  0  0  0  0
    2.1830   -1.8370   25.8000 C   0  0  0  0  0  0  0  0  0  0  0  0
  4  2  1  1
  4  3  1  0
  6  1  1  1
  4  6  1  0
  1  8  1  0
  5  8  2  0
  8  9  1  0
 10 11  2  3
  4 13  1  0
 12 13  2  0
 10 14  1  0
 14 15  1  0
  6 16  1  0
 16  7  1  6
 15 16  1  0
 13 17  1  0
 16 17  1  0
 17 18  1  0
 14 19  1  0
 18 19  1  0
 13 21  1  0
 20 21  1  0
 21 22  2  0
 22 23  1  0
 20 24  1  0
 23 24  2  0
M  END
