x0978-x3117-x2754-x3110
     RDKit          3D

 60 66  0  0  0  0  0  0  0  0999 V2000
    8.3210    1.7390   23.3950 N   0  0  0  0  0  0  0  0  0  0  0  0
   13.4170    5.3950   22.9520 C   0  0  0  0  0  0  0  0  0  0  0  0
   12.2640    3.4430   23.1200 O   0  0  0  0  0  0  0  0  0  0  0  0
   12.5520    4.3060   22.2950 C   0  0  0  0  0  0  0  0  0  0  0  0
    7.5290   -1.3720   21.9470 N   0  0  0  0  0  0  0  0  0  0  0  0
   10.9430    3.4090   23.3480 C   0  0  0  0  0  0  0  0  0  0  0  0
    8.6910    1.5490   20.9600 O   0  0  0  0  0  0  0  0  0  0  0  0
   10.0680    2.5220   22.5260 C   0  0  0  0  0  0  0  0  0  0  0  0
    8.0090    1.0740   22.1160 C   0  0  0  0  0  0  0  0  0  0  0  0
    7.0100   -0.0140   21.8050 C   0  0  1  0  0  0  0  0  0  0  0  0
   12.6920   -1.8650   24.2040 C   0  0  0  0  0  0  0  0  0  0  0  0
   12.7820   -0.6760   25.0480 C   0  0  0  0  0  0  0  0  0  0  0  0
   13.4600   -2.0600   22.9890 C   0  0  0  0  0  0  0  0  0  0  0  0
   12.8430   -2.8540   25.2890 C   0  0  0  0  0  0  0  0  0  0  0  0
    2.0610   -5.7140   23.0200 N   0  0  0  0  0  0  0  0  0  0  0  0
    2.1540   -8.0230   24.8380 C   0  0  0  0  0  0  0  0  0  0  0  0
    4.5090   -7.7390   24.7540 O   0  0  0  0  0  0  0  0  0  0  0  0
    3.3130   -7.0120   24.5720 C   0  0  1  0  0  0  0  0  0  0  0  0
    5.2290   -5.6890   21.4850 N   0  0  0  0  0  0  0  0  0  0  0  0
    0.7610   -7.1860   21.9710 O   0  0  0  0  0  0  0  0  0  0  0  0
    3.2590   -6.4000   23.2040 C   0  0  2  0  0  0  0  0  0  0  0  0
    0.8430   -6.1330   22.5830 C   0  0  0  0  0  0  0  0  0  0  0  0
   -0.4340   -5.3480   22.8350 C   0  0  0  0  0  0  0  0  0  0  0  0
    4.5470   -5.5570   22.6740 C   0  0  0  0  0  0  0  0  0  0  0  0
    6.3660   -4.4580   20.0880 C   0  0  0  0  0  0  0  0  0  0  0  0
    5.3690   -3.7520   19.6000 C   0  0  0  0  0  0  0  0  0  0  0  0
    4.8640   -3.4030   25.2310 C   0  0  0  0  0  0  0  0  0  0  0  0
    3.6500   -3.3830   25.0310 O   0  0  0  0  0  0  0  0  0  0  0  0
    5.4740   -3.1960   26.5040 N   0  0  0  0  0  0  0  0  0  0  0  0
    4.9990   -2.1920   27.4600 C   0  0  0  0  0  0  0  0  0  0  0  0
    6.3820    0.1430   18.0360 N   0  0  0  0  0  0  0  0  0  0  0  0
    5.2880    0.9340   18.0040 C   0  0  0  0  0  0  0  0  0  0  0  0
    4.6950    1.4370   19.1190 C   0  0  0  0  0  0  0  0  0  0  0  0
    5.2540    1.1190   20.3590 C   0  0  0  0  0  0  0  0  0  0  0  0
    6.3780    0.3170   20.4570 C   0  0  0  0  0  0  0  0  0  0  0  0
    6.9070   -0.1540   19.2600 C   0  0  0  0  0  0  0  0  0  0  0  0
    9.9170   -1.2190   21.8120 C   0  0  0  0  0  0  0  0  0  0  0  0
   11.1650   -1.3530   22.3730 C   0  0  0  0  0  0  0  0  0  0  0  0
   11.2900   -1.7640   23.6780 C   0  0  0  0  0  0  0  0  0  0  0  0
   10.1590   -2.0480   24.4440 C   0  0  0  0  0  0  0  0  0  0  0  0
    8.9410   -1.8940   23.8110 C   0  0  0  0  0  0  0  0  0  0  0  0
    8.7730   -1.4850   22.5020 C   0  0  0  0  0  0  0  0  0  0  0  0
    9.3100    4.5910   24.8240 O   0  0  0  0  0  0  0  0  0  0  0  0
    9.7590    3.7970   23.9710 C   0  0  0  0  0  0  0  0  0  0  0  0
    9.0340    2.9110   23.1200 C   0  0  2  0  0  0  0  0  0  0  0  0
    7.9490    3.7540   22.3420 C   0  0  0  0  0  0  0  0  0  0  0  0
    7.6400    4.8900   23.1110 C   0  0  0  0  0  0  0  0  0  0  0  0
    8.6030    5.5000   23.9500 C   0  0  0  0  0  0  0  0  0  0  0  0
    5.8860   -3.2680   21.5460 N   0  0  0  0  0  0  0  0  0  0  0  0
    6.7480   -2.5300   22.4090 C   0  0  2  0  0  0  0  0  0  0  0  0
    6.0710   -2.3740   23.5620 C   0  0  0  0  0  0  0  0  0  0  0  0
    5.8270   -3.6420   24.0590 C   0  0  2  0  0  0  0  0  0  0  0  0
    5.4100   -4.5860   23.0330 C   0  0  0  0  0  0  0  0  0  0  0  0
    6.2590   -4.6550   21.6310 C   0  0  2  0  0  0  0  0  0  0  0  0
    6.9820   -4.8690   27.6120 C   0  0  0  0  0  0  0  0  0  0  0  0
    8.2490   -5.4500   27.8950 C   0  0  0  0  0  0  0  0  0  0  0  0
    9.3430   -4.6670   27.1400 C   0  0  0  0  0  0  0  0  0  0  0  0
    9.1730   -3.5380   26.2850 C   0  0  0  0  0  0  0  0  0  0  0  0
    7.9090   -3.1100   26.1260 C   0  0  0  0  0  0  0  0  0  0  0  0
    6.7360   -3.7650   26.7870 C   0  0  0  0  0  0  0  0  0  0  0  0
  2  4  1  0
  3  4  1  0
  3  6  1  0
  6  8  1  0
  1  9  1  0
  7  9  2  0
  5 10  1  0
 10  9  1  6
 11 12  1  0
 11 13  1  0
 11 14  1  0
 18 16  1  6
 17 18  1  0
 21 15  1  1
 18 21  1  0
 15 22  1  0
 20 22  2  0
 22 23  1  0
 19 24  1  0
 21 24  1  0
 25 26  2  3
 27 28  2  0
 27 29  1  0
 29 30  1  0
 31 32  2  0
 32 33  1  0
 33 34  2  0
 10 35  1  0
 34 35  1  0
 31 36  1  0
 35 36  2  0
 37 38  2  0
 11 39  1  0
 38 39  1  0
 39 40  2  0
 40 41  1  0
  5 42  1  0
 37 42  1  0
 41 42  2  0
  6 44  2  0
 43 44  1  0
 45  1  1  1
  8 45  1  0
 44 45  1  0
 45 46  1  0
 46 47  1  0
 43 48  1  0
 47 48  1  0
 50  5  1  6
 49 50  1  0
 50 51  1  0
 52 27  1  1
 51 52  1  0
 24 53  2  0
 52 53  1  0
 19 54  1  0
 54 25  1  1
 49 54  1  0
 53 54  1  0
 55 56  2  0
 56 57  1  0
 57 58  2  0
 58 59  1  0
 29 60  1  0
 55 60  1  0
 59 60  2  0
M  END
