x0978-x1402
     RDKit          3D

 25 27  0  0  0  0  0  0  0  0999 V2000
    2.4300   -5.5450   23.0610 N   0  0  0  0  0  0  0  0  0  0  0  0
    2.4380   -6.8190   25.2850 C   0  0  0  0  0  0  0  0  0  0  0  0
    4.4020   -7.8120   24.6070 O   0  0  0  0  0  0  0  0  0  0  0  0
    3.8390   -6.7200   24.6930 C   0  0  1  0  0  0  0  0  0  0  0  0
    1.0660   -7.4540   21.9720 O   0  0  0  0  0  0  0  0  0  0  0  0
    3.7090   -6.2860   23.2160 C   0  0  2  0  0  0  0  0  0  0  0  0
    4.4250   -4.2360   22.4660 O   0  0  0  0  0  0  0  0  0  0  0  0
    1.1500   -6.2050   22.6550 C   0  0  0  0  0  0  0  0  0  0  0  0
   -0.0010   -5.4580   23.0110 C   0  0  0  0  0  0  0  0  0  0  0  0
    6.7790   -4.1550   20.3660 C   0  0  0  0  0  0  0  0  0  0  0  0
    5.4220   -4.2940   19.8640 C   0  0  0  0  0  0  0  0  0  0  0  0
    0.5770   -1.4630   26.2230 Cl  0  0  0  0  0  0  0  0  0  0  0  0
    5.3830   -6.2560   26.3970 O   0  0  0  0  0  0  0  0  0  0  0  0
    4.9370   -5.3820   25.3330 S   0  0  0  0  0  0  0  0  0  0  0  0
    6.9210   -5.1830   21.4360 N   0  0  0  0  0  0  0  0  0  0  0  0
    7.5610   -4.8340   22.5760 C   0  0  0  0  0  0  0  0  0  0  0  0
    6.7450   -4.3930   23.6060 C   0  0  0  0  0  0  0  0  0  0  0  0
    5.6480   -5.3650   23.8330 N   0  0  0  0  0  0  0  0  0  0  0  0
    4.8650   -5.5040   22.7470 C   0  0  1  0  0  0  0  0  0  0  0  0
    5.7380   -6.0550   21.7630 C   0  0  0  0  0  0  0  0  0  0  0  0
    2.2130   -3.9730   25.6080 S   0  0  0  0  0  0  0  0  0  0  0  0
    3.9300   -3.9540   25.6960 C   0  0  0  0  0  0  0  0  0  0  0  0
    4.3640   -2.6820   26.0690 C   0  0  0  0  0  0  0  0  0  0  0  0
    3.3320   -1.8100   26.2580 C   0  0  0  0  0  0  0  0  0  0  0  0
    2.0580   -2.3070   26.0590 C   0  0  0  0  0  0  0  0  0  0  0  0
  4  2  1  1
  4  3  1  0
  6  1  1  1
  4  6  1  0
  1  8  1  0
  5  8  2  0
  8  9  1  0
 10 11  2  3
  4 14  1  0
 13 14  2  0
 10 15  1  0
 15 16  1  0
 16 17  1  0
 14 18  1  0
 17 18  1  0
  6 19  1  0
 19  7  1  6
 18 19  1  0
 15 20  1  0
 19 20  1  0
 14 22  1  0
 21 22  1  0
 22 23  2  0
 23 24  1  0
 12 25  1  0
 21 25  1  0
 24 25  2  0
M  END
