x0978-x1334-x2694
     RDKit          3D

 54 58  0  0  0  0  0  0  0  0999 V2000
    2.0560   -5.5220   23.2650 N   0  0  0  0  0  0  0  0  0  0  0  0
    2.1870   -8.0100   24.5500 C   0  0  0  0  0  0  0  0  0  0  0  0
    4.4730   -7.7310   24.6820 O   0  0  0  0  0  0  0  0  0  0  0  0
    3.4260   -7.1670   24.4850 C   0  0  1  0  0  0  0  0  0  0  0  0
    5.0740   -5.3800   21.6040 N   0  0  0  0  0  0  0  0  0  0  0  0
    0.8240   -7.3570   21.9340 O   0  0  0  0  0  0  0  0  0  0  0  0
    3.2780   -6.3120   23.2090 C   0  0  2  0  0  0  0  0  0  0  0  0
    4.8460   -4.5270   23.8200 O   0  0  0  0  0  0  0  0  0  0  0  0
    0.8660   -6.0970   22.6220 C   0  0  0  0  0  0  0  0  0  0  0  0
   -0.4630   -5.4070   22.6080 C   0  0  0  0  0  0  0  0  0  0  0  0
    4.4720   -5.3150   22.9630 C   0  0  0  0  0  0  0  0  0  0  0  0
    6.3560   -4.8680   21.3810 C   0  0  1  0  0  0  0  0  0  0  0  0
    6.4670   -4.4280   19.9350 C   0  0  0  0  0  0  0  0  0  0  0  0
    5.3890   -3.5330   19.3880 C   0  0  0  0  0  0  0  0  0  0  0  0
    7.7560    2.0470   22.8950 N   0  0  0  0  0  0  0  0  0  0  0  0
    9.3110    1.5470   21.2550 O   0  0  0  0  0  0  0  0  0  0  0  0
   10.8710    6.7880   23.9560 O   0  0  0  0  0  0  0  0  0  0  0  0
    7.6700    0.0390   21.3410 C   0  0  2  0  0  0  0  0  0  0  0  0
    8.1930    1.2170   21.9380 C   0  0  0  0  0  0  0  0  0  0  0  0
   10.3030    1.8320   24.0460 C   0  0  0  0  0  0  0  0  0  0  0  0
   11.8660    6.5710   24.9560 C   0  0  0  0  0  0  0  0  0  0  0  0
   12.5120   -1.0770   23.0800 C   0  0  0  0  0  0  0  0  0  0  0  0
   12.7780    0.2600   23.3150 C   0  0  0  0  0  0  0  0  0  0  0  0
   12.9900   -1.6520   21.8930 C   0  0  0  0  0  0  0  0  0  0  0  0
   12.9840   -1.8790   24.0610 C   0  0  0  0  0  0  0  0  0  0  0  0
    7.0510   -5.9380   28.3090 Cl  0  0  0  0  0  0  0  0  0  0  0  0
    9.9780   -2.8230   24.5650 C   0  0  0  0  0  0  0  0  0  0  0  0
    6.2620    0.2220   17.7760 N   0  0  0  0  0  0  0  0  0  0  0  0
    5.1260    1.1060   17.9560 C   0  0  0  0  0  0  0  0  0  0  0  0
    4.7480    1.6680   19.2830 C   0  0  0  0  0  0  0  0  0  0  0  0
    5.5860    1.3150   20.4740 C   0  0  0  0  0  0  0  0  0  0  0  0
    6.6850    0.4710   20.2720 C   0  0  0  0  0  0  0  0  0  0  0  0
    6.9470   -0.0410   18.8730 C   0  0  0  0  0  0  0  0  0  0  0  0
    9.1590   -1.7970   24.1700 N   0  0  0  0  0  0  0  0  0  0  0  0
   10.2670   -0.8160   24.1160 O   0  0  0  0  0  0  0  0  0  0  0  0
   11.0290   -1.3320   23.0850 C   0  0  0  0  0  0  0  0  0  0  0  0
   10.1550   -2.0100   22.2690 C   0  0  0  0  0  0  0  0  0  0  0  0
    8.8510   -2.0480   22.7590 C   0  0  2  0  0  0  0  0  0  0  0  0
    9.7850    3.1950   23.7170 C   0  0  0  0  0  0  0  0  0  0  0  0
   10.5720    4.3210   23.9820 C   0  0  0  0  0  0  0  0  0  0  0  0
   10.0590    5.7180   23.6610 C   0  0  0  0  0  0  0  0  0  0  0  0
    8.7930    5.7490   23.0930 C   0  0  0  0  0  0  0  0  0  0  0  0
    8.0280    4.5980   22.8340 C   0  0  0  0  0  0  0  0  0  0  0  0
    8.5120    3.3230   23.1450 C   0  0  0  0  0  0  0  0  0  0  0  0
    6.3370   -2.2270   21.9050 N   0  0  0  0  0  0  0  0  0  0  0  0
    7.6450   -1.4350   21.8240 C   0  0  1  0  0  0  0  0  0  0  0  0
    8.6470   -3.4700   23.0630 N   0  0  0  0  0  0  0  0  0  0  0  0
    7.2860   -3.7990   23.4120 C   0  0  0  0  0  0  0  0  0  0  0  0
    6.7990   -3.6090   22.2020 C   0  0  1  0  0  0  0  0  0  0  0  0
    9.9580   -5.1780   25.5250 C   0  0  0  0  0  0  0  0  0  0  0  0
    9.3950   -3.8860   25.4540 C   0  0  0  0  0  0  0  0  0  0  0  0
    8.0030   -3.7980   26.5450 S   0  0  0  0  0  0  0  0  0  0  0  0
    8.1310   -5.3390   27.1240 C   0  0  0  0  0  0  0  0  0  0  0  0
    9.2930   -6.0260   26.4440 C   0  0  0  0  0  0  0  0  0  0  0  0
  4  2  1  6
  3  4  1  0
  7  1  1  1
  4  7  1  0
  1  9  1  0
  6  9  2  0
  9 10  1  0
  5 11  1  0
  7 11  1  0
  8 11  2  0
  5 12  1  0
 12 13  1  6
 13 14  2  3
 15 19  1  0
 16 19  2  0
 18 19  1  1
 17 21  1  0
 22 23  1  0
 22 24  1  0
 22 25  1  0
 28 29  2  0
 29 30  1  0
 30 31  2  0
 18 32  1  0
 31 32  1  0
 28 33  1  0
 32 33  2  0
 27 34  1  0
 34 35  1  0
 22 36  1  0
 35 36  1  0
 36 37  2  0
 34 38  1  0
 38 37  1  6
 20 39  1  0
 39 40  2  0
 17 41  1  0
 40 41  1  0
 41 42  2  0
 42 43  1  0
 15 44  1  0
 39 44  1  0
 43 44  2  0
 18 46  1  0
 38 46  1  0
 46 45  1  1
 38 47  1  0
 47 48  1  0
 12 49  1  0
 45 49  1  0
 49 48  1  1
 27 51  1  0
 50 51  2  0
 51 52  1  0
 26 53  1  0
 52 53  1  0
 50 54  1  0
 53 54  2  0
M  END
