x0978-x3113-x0981
     RDKit          3D

 57 58  0  0  0  0  0  0  0  0999 V2000
    7.3400   -1.4600   22.0080 N   0  0  0  0  0  0  0  0  0  0  0  0
    8.2610    1.2930   23.3910 N   0  0  0  0  0  0  0  0  0  0  0  0
    8.6890    1.6690   21.0170 O   0  0  0  0  0  0  0  0  0  0  0  0
   12.2800    3.3570   22.6190 O   0  0  0  0  0  0  0  0  0  0  0  0
    6.9500   -0.1130   21.8670 C   0  0  1  0  0  0  0  0  0  0  0  0
    8.0080    0.9850   22.0830 C   0  0  0  0  0  0  0  0  0  0  0  0
    9.2190    2.3350   23.7290 C   0  0  0  0  0  0  0  0  0  0  0  0
   10.5950    2.2300   23.4260 C   0  0  0  0  0  0  0  0  0  0  0  0
   11.1470    3.4500   23.0580 C   0  0  0  0  0  0  0  0  0  0  0  0
   12.9890    4.5950   22.5910 C   0  0  0  0  0  0  0  0  0  0  0  0
   12.6370   -1.9080   24.1020 C   0  0  0  0  0  0  0  0  0  0  0  0
   13.4510   -2.0650   23.0090 C   0  0  0  0  0  0  0  0  0  0  0  0
   12.9980   -3.0070   25.1120 C   0  0  0  0  0  0  0  0  0  0  0  0
   12.8500   -0.5510   24.7300 C   0  0  0  0  0  0  0  0  0  0  0  0
    1.6590   -8.3700   21.9520 C   0  0  0  0  0  0  0  0  0  0  0  0
    3.5620   -7.8090   23.5740 N   0  0  0  0  0  0  0  0  0  0  0  0
    1.1000   -8.5910   24.1570 O   0  0  0  0  0  0  0  0  0  0  0  0
    2.1480   -8.2350   23.2640 C   0  0  0  0  0  0  0  0  0  0  0  0
    2.6770   -8.0250   27.3520 N   0  0  0  0  0  0  0  0  0  0  0  0
    3.0050   -9.0820   25.2530 O   0  0  0  0  0  0  0  0  0  0  0  0
    4.0290   -6.7530   24.3290 C   0  0  1  0  0  0  0  0  0  0  0  0
    5.6080   -5.7940   22.7180 N   0  0  0  0  0  0  0  0  0  0  0  0
    5.5210   -5.1110   24.9090 O   0  0  0  0  0  0  0  0  0  0  0  0
    4.1660   -6.9060   25.7060 C   0  0  0  0  0  0  0  0  0  0  0  0
    3.2250   -8.0520   26.1170 C   0  0  0  0  0  0  0  0  0  0  0  0
    4.7920   -5.7200   23.8510 C   0  0  2  0  0  0  0  0  0  0  0  0
    6.0090   -4.6160   21.8620 C   0  0  2  0  0  0  0  0  0  0  0  0
    6.4260   -4.9550   20.3740 C   0  0  0  0  0  0  0  0  0  0  0  0
    5.7220   -6.1950   19.8950 C   0  0  0  0  0  0  0  0  0  0  0  0
    6.4260   -2.3720   22.6260 C   0  0  0  0  0  0  0  0  0  0  0  0
    6.8740   -3.7080   22.5290 C   0  0  0  0  0  0  0  0  0  0  0  0
    1.0650   -5.0270   23.7030 N   0  0  0  0  0  0  0  0  0  0  0  0
    0.6060   -6.3880   24.9020 C   0  0  0  0  0  0  0  0  0  0  0  0
    2.3550   -7.5280   24.6860 O   0  0  0  0  0  0  0  0  0  0  0  0
    1.9740   -6.2260   24.8030 C   0  0  1  0  0  0  0  0  0  0  0  0
    3.8460   -3.8020   22.4940 N   0  0  0  0  0  0  0  0  0  0  0  0
    0.2470   -6.2600   21.9510 O   0  0  0  0  0  0  0  0  0  0  0  0
    2.2890   -5.5690   23.5630 C   0  0  2  0  0  0  0  0  0  0  0  0
    3.3980   -3.8130   24.6980 O   0  0  0  0  0  0  0  0  0  0  0  0
    0.0900   -5.4390   22.8380 C   0  0  0  0  0  0  0  0  0  0  0  0
   -1.1500   -4.8230   23.0570 C   0  0  0  0  0  0  0  0  0  0  0  0
    3.5190   -4.7280   23.5920 C   0  0  1  0  0  0  0  0  0  0  0  0
    4.6050   -2.5810   22.8560 C   0  0  0  0  0  0  0  0  0  0  0  0
    5.1290   -1.7800   21.6190 C   0  0  0  0  0  0  0  0  0  0  0  0
    5.1820   -2.5360   20.4700 C   0  0  0  0  0  0  0  0  0  0  0  0
    6.3080    0.0970   18.0880 N   0  0  0  0  0  0  0  0  0  0  0  0
    5.1620    0.7840   18.0880 C   0  0  0  0  0  0  0  0  0  0  0  0
    4.5380    1.1990   19.2200 C   0  0  0  0  0  0  0  0  0  0  0  0
    5.0690    0.9320   20.4540 C   0  0  0  0  0  0  0  0  0  0  0  0
    6.3040    0.1990   20.5160 C   0  0  0  0  0  0  0  0  0  0  0  0
    6.8410   -0.1750   19.3010 C   0  0  0  0  0  0  0  0  0  0  0  0
    9.7250   -2.2540   21.7850 C   0  0  0  0  0  0  0  0  0  0  0  0
   10.9330   -2.3040   22.3720 C   0  0  0  0  0  0  0  0  0  0  0  0
   11.2350   -1.7960   23.6180 C   0  0  0  0  0  0  0  0  0  0  0  0
   10.2070   -1.1020   24.5170 C   0  0  0  0  0  0  0  0  0  0  0  0
    8.8220   -0.9920   23.9390 C   0  0  0  0  0  0  0  0  0  0  0  0
    8.5780   -1.5710   22.5400 C   0  0  0  0  0  0  0  0  0  0  0  0
  1  5  1  0
  2  6  1  0
  3  6  2  0
  5  6  1  6
  2  7  1  0
  7  8  1  0
  4  9  1  0
  8  9  1  0
  4 10  1  0
 11 12  1  0
 11 13  1  0
 11 14  1  0
 15 18  1  0
 16 18  1  0
 17 18  2  0
 16 21  1  0
 21 24  1  1
 19 25  1  0
 20 25  2  0
 24 25  1  0
 21 26  1  0
 22 26  1  0
 26 23  1  1
 22 27  1  0
 27 28  1  6
 28 29  2  3
  1 30  1  0
 27 31  1  0
 30 31  1  0
 35 33  1  6
 34 35  1  0
 38 32  1  1
 35 38  1  0
 32 40  1  0
 37 40  2  0
 40 41  1  0
 26 42  1  0
 36 42  1  0
 38 42  1  0
 42 39  1  1
 36 43  1  0
 43 44  1  0
 44 45  2  3
 46 47  2  0
 47 48  1  0
 48 49  2  0
  5 50  1  0
 49 50  1  0
 46 51  1  0
 50 51  2  0
 52 53  2  0
 11 54  1  0
 53 54  1  0
 54 55  2  0
 55 56  1  0
  1 57  1  0
 52 57  1  0
 56 57  2  0
M  END
