x0978-x1093
     RDKit          3D

 36 38  0  0  0  0  0  0  0  0999 V2000
    2.0310   -5.6390   23.3910 N   0  0  0  0  0  0  0  0  0  0  0  0
    2.2660   -7.9670   24.4300 C   0  0  0  0  0  0  0  0  0  0  0  0
    4.5520   -7.5040   24.4790 O   0  0  0  0  0  0  0  0  0  0  0  0
    3.2930   -6.8430   24.4540 C   0  0  1  0  0  0  0  0  0  0  0  0
    5.2870   -5.6710   21.8020 N   0  0  0  0  0  0  0  0  0  0  0  0
    0.9670   -7.4620   21.8570 O   0  0  0  0  0  0  0  0  0  0  0  0
    3.1840   -5.8290   23.2660 C   0  0  2  0  0  0  0  0  0  0  0  0
    5.1690   -4.9460   24.0660 O   0  0  0  0  0  0  0  0  0  0  0  0
    0.9540   -6.2540   22.5990 C   0  0  0  0  0  0  0  0  0  0  0  0
   -0.2620   -5.5820   22.5670 C   0  0  0  0  0  0  0  0  0  0  0  0
    4.5920   -5.4600   23.1180 C   0  0  0  0  0  0  0  0  0  0  0  0
    6.4660   -5.0420   21.3920 C   0  0  1  0  0  0  0  0  0  0  0  0
    6.4680   -4.4990   19.9530 C   0  0  0  0  0  0  0  0  0  0  0  0
    5.3620   -3.6130   19.4700 C   0  0  0  0  0  0  0  0  0  0  0  0
   13.0940   -1.6710   24.5190 C   0  0  0  0  0  0  0  0  0  0  0  0
    8.9220    1.3930   21.1450 O   0  0  0  0  0  0  0  0  0  0  0  0
    8.9070    0.2670   21.6730 C   0  0  0  0  0  0  0  0  0  0  0  0
    7.7950   -0.5750   21.5060 C   0  0  2  0  0  0  0  0  0  0  0  0
    6.9930   -3.9020   22.3030 C   0  0  0  0  0  0  0  0  0  0  0  0
    6.6760   -2.6570   21.7610 C   0  0  0  0  0  0  0  0  0  0  0  0
    8.0600   -1.9670   21.6010 C   0  0  0  0  0  0  0  0  0  0  0  0
   12.6550   -1.0630   23.2450 N   0  0  0  0  0  0  0  0  0  0  0  0
   12.3120    0.2550   23.3400 C   0  0  0  0  0  0  0  0  0  0  0  0
   10.8490    0.6950   23.3460 C   0  0  0  0  0  0  0  0  0  0  0  0
   10.0260   -0.1810   22.5080 N   0  0  0  0  0  0  0  0  0  0  0  0
   10.4050   -1.4780   22.4720 C   0  0  0  0  0  0  0  0  0  0  0  0
   11.7380   -1.8200   22.6060 C   0  0  0  0  0  0  0  0  0  0  0  0
    6.2980    0.0100   18.1470 N   0  0  0  0  0  0  0  0  0  0  0  0
    7.2810   -0.5950   18.9140 C   0  0  0  0  0  0  0  0  0  0  0  0
    7.0320   -0.2160   20.2420 C   0  0  0  0  0  0  0  0  0  0  0  0
    5.9360    0.5720   20.2540 C   0  0  0  0  0  0  0  0  0  0  0  0
    5.5140    0.6970   18.9770 C   0  0  0  0  0  0  0  0  0  0  0  0
    4.4630    1.3940   18.5300 N   0  0  0  0  0  0  0  0  0  0  0  0
    3.7780    2.0170   19.5030 C   0  0  0  0  0  0  0  0  0  0  0  0
    4.1000    1.9710   20.8520 C   0  0  0  0  0  0  0  0  0  0  0  0
    5.2110    1.2320   21.2510 C   0  0  0  0  0  0  0  0  0  0  0  0
  4  2  1  6
  3  4  1  0
  7  1  1  1
  4  7  1  0
  1  9  1  0
  6  9  2  0
  9 10  1  0
  5 11  1  0
  7 11  1  0
  8 11  2  0
  5 12  1  0
 12 13  1  6
 13 14  2  3
 16 17  2  0
 17 18  1  0
 12 19  1  0
 19 20  1  0
 18 21  1  6
 20 21  1  0
 15 22  1  0
 22 23  1  0
 23 24  1  0
 17 25  1  0
 24 25  1  0
 25 26  1  0
 22 27  1  0
 26 27  1  0
 28 29  1  0
 18 30  1  0
 29 30  2  0
 30 31  1  0
 28 32  1  0
 31 32  2  0
 32 33  1  0
 33 34  2  0
 34 35  1  0
 31 36  1  0
 35 36  2  0
M  END
