x0978-x0434
     RDKit          3D

 33 34  0  0  0  0  0  0  0  0999 V2000
    1.9700   -5.6660   23.2130 N   0  0  0  0  0  0  0  0  0  0  0  0
    2.1540   -8.0950   24.6400 C   0  0  0  0  0  0  0  0  0  0  0  0
    4.4700   -7.8350   24.3450 O   0  0  0  0  0  0  0  0  0  0  0  0
    3.4120   -7.2540   24.4670 C   0  0  1  0  0  0  0  0  0  0  0  0
    5.5390   -5.6620   22.2180 N   0  0  0  0  0  0  0  0  0  0  0  0
    0.7400   -7.4390   21.8290 O   0  0  0  0  0  0  0  0  0  0  0  0
    3.2540   -6.3800   23.2150 C   0  0  2  0  0  0  0  0  0  0  0  0
    4.3090   -4.2450   23.6720 O   0  0  0  0  0  0  0  0  0  0  0  0
    0.7610   -6.2230   22.5700 C   0  0  0  0  0  0  0  0  0  0  0  0
   -0.3800   -5.4140   22.7670 C   0  0  0  0  0  0  0  0  0  0  0  0
    4.3830   -5.3190   23.0850 C   0  0  0  0  0  0  0  0  0  0  0  0
    6.3780   -4.6840   21.7540 C   0  0  1  0  0  0  0  0  0  0  0  0
    6.5030   -4.9270   20.2640 C   0  0  0  0  0  0  0  0  0  0  0  0
    5.7080   -6.1380   19.8550 C   0  0  0  0  0  0  0  0  0  0  0  0
    9.0160    1.1740   21.1960 O   0  0  0  0  0  0  0  0  0  0  0  0
    8.3600   -0.0050   21.6800 C   0  0  0  0  0  0  0  0  0  0  0  0
    9.0880   -1.0760   22.4230 N   0  0  0  0  0  0  0  0  0  0  0  0
    7.0290   -0.2060   21.4740 N   0  0  0  0  0  0  0  0  0  0  0  0
    5.9500   -3.4390   22.2010 C   0  0  0  0  0  0  0  0  0  0  0  0
    6.5970   -2.3900   21.5800 C   0  0  0  0  0  0  0  0  0  0  0  0
    6.3310   -1.2220   22.2390 C   0  0  0  0  0  0  0  0  0  0  0  0
   10.6650    0.4240   23.3400 C   0  0  0  0  0  0  0  0  0  0  0  0
   11.9280    0.9360   23.6020 C   0  0  0  0  0  0  0  0  0  0  0  0
   13.0550    0.2840   23.1130 C   0  0  0  0  0  0  0  0  0  0  0  0
   12.9120   -0.8720   22.3830 C   0  0  0  0  0  0  0  0  0  0  0  0
   11.5440   -1.4850   22.0640 C   0  0  0  0  0  0  0  0  0  0  0  0
   10.3480   -0.7250   22.6090 C   0  0  0  0  0  0  0  0  0  0  0  0
    5.2740    1.1670   20.3940 C   0  0  0  0  0  0  0  0  0  0  0  0
    4.6420    1.7200   19.2640 C   0  0  0  0  0  0  0  0  0  0  0  0
    5.1150    1.4460   17.9640 C   0  0  0  0  0  0  0  0  0  0  0  0
    6.2970    0.5460   17.7030 N   0  0  0  0  0  0  0  0  0  0  0  0
    6.9260   -0.0110   18.9280 C   0  0  0  0  0  0  0  0  0  0  0  0
    6.3890    0.3270   20.2980 C   0  0  0  0  0  0  0  0  0  0  0  0
  4  2  1  6
  3  4  1  0
  7  1  1  1
  4  7  1  0
  1  9  1  0
  6  9  2  0
  9 10  1  0
  5 11  1  0
  7 11  1  0
  8 11  2  0
  5 12  1  0
 12 13  1  6
 13 14  2  3
 15 16  2  0
 16 17  1  0
 16 18  1  0
 12 19  1  0
 19 20  1  0
 18 21  1  0
 20 21  1  0
 22 23  2  0
 23 24  1  0
 24 25  2  0
 25 26  1  0
 17 27  1  0
 22 27  1  0
 26 27  2  0
 28 29  2  0
 29 30  1  0
 30 31  2  0
 31 32  1  0
 18 33  1  0
 28 33  1  0
 32 33  2  0
M  END
