x0978-x1392
     RDKit          3D

 31 33  0  0  0  0  0  0  0  0999 V2000
    1.8420   -5.8150   23.1480 N   0  0  0  0  0  0  0  0  0  0  0  0
    2.0950   -8.3020   24.7130 C   0  0  0  0  0  0  0  0  0  0  0  0
    4.3760   -7.7470   24.6210 O   0  0  0  0  0  0  0  0  0  0  0  0
    3.2380   -7.3170   24.5310 C   0  0  1  0  0  0  0  0  0  0  0  0
    5.0080   -5.7770   21.6090 N   0  0  0  0  0  0  0  0  0  0  0  0
    0.5300   -7.4600   21.7080 O   0  0  0  0  0  0  0  0  0  0  0  0
    3.0650   -6.6290   23.1620 C   0  0  2  0  0  0  0  0  0  0  0  0
    4.4060   -4.7230   23.6520 O   0  0  0  0  0  0  0  0  0  0  0  0
    0.6170   -6.2670   22.4740 C   0  0  0  0  0  0  0  0  0  0  0  0
   -0.4650   -5.3800   22.6720 C   0  0  0  0  0  0  0  0  0  0  0  0
    4.2040   -5.6390   22.8610 C   0  0  0  0  0  0  0  0  0  0  0  0
    5.6160   -4.6050   21.3930 C   0  0  2  0  0  0  0  0  0  0  0  0
    6.1840   -4.3360   19.9470 C   0  0  0  0  0  0  0  0  0  0  0  0
    5.3020   -3.3960   19.1960 C   0  0  0  0  0  0  0  0  0  0  0  0
    6.2870   -4.3170   22.7140 C   0  0  0  0  0  0  0  0  0  0  0  0
    7.3340   -2.4780   21.7520 N   0  0  0  0  0  0  0  0  0  0  0  0
    8.4490   -1.7170   21.8360 C   0  0  0  0  0  0  0  0  0  0  0  0
    9.4540   -1.9150   22.8020 C   0  0  0  0  0  0  0  0  0  0  0  0
    9.3740   -2.9110   23.7520 C   0  0  0  0  0  0  0  0  0  0  0  0
    8.2700   -3.5980   23.5940 C   0  0  0  0  0  0  0  0  0  0  0  0
    7.3020   -3.4530   22.6870 C   0  0  0  0  0  0  0  0  0  0  0  0
    7.4980   -4.7770   24.2040 C   0  0  0  0  0  0  0  0  0  0  0  0
    8.3520   -5.1470   25.2570 C   0  0  0  0  0  0  0  0  0  0  0  0
    9.7250   -4.4970   25.6530 C   0  0  0  0  0  0  0  0  0  0  0  0
   10.2740   -3.3110   24.8560 C   0  0  0  0  0  0  0  0  0  0  0  0
   11.8590   -1.4530   22.3810 C   0  0  0  0  0  0  0  0  0  0  0  0
   12.8890   -0.5810   22.5080 C   0  0  0  0  0  0  0  0  0  0  0  0
   12.7040    0.6810   23.1350 C   0  0  0  0  0  0  0  0  0  0  0  0
   11.5530    1.2940   23.7250 C   0  0  0  0  0  0  0  0  0  0  0  0
   10.5200    0.1640   23.4840 C   0  0  0  0  0  0  0  0  0  0  0  0
   10.6620   -1.0580   22.8810 C   0  0  0  0  0  0  0  0  0  0  0  0
  4  2  1  6
  3  4  1  0
  7  1  1  1
  4  7  1  0
  1  9  1  0
  6  9  2  0
  9 10  1  0
  5 11  1  0
  7 11  1  0
  8 11  2  0
  5 12  1  0
 12 13  1  6
 13 14  2  3
 12 15  1  0
 16 17  2  0
 17 18  1  0
 18 19  2  0
 19 20  1  0
 15 21  1  0
 16 21  1  0
 20 21  2  0
 20 22  1  0
 22 23  2  0
 23 24  1  0
 19 25  1  0
 24 25  2  0
 26 27  2  0
 27 28  1  0
 28 29  2  0
 29 30  1  0
 18 31  1  0
 26 31  1  0
 30 31  2  0
M  END
