x0978-x3108
     RDKit          3D

 37 38  0  0  0  0  0  0  0  0999 V2000
    1.8180   -6.0690   23.5390 N   0  0  0  0  0  0  0  0  0  0  0  0
    2.4090   -7.9600   24.8720 C   0  0  0  0  0  0  0  0  0  0  0  0
    4.5720   -7.6740   24.0520 O   0  0  0  0  0  0  0  0  0  0  0  0
    3.4330   -6.9140   24.4390 C   0  0  1  0  0  0  0  0  0  0  0  0
    5.1570   -5.8750   21.8830 N   0  0  0  0  0  0  0  0  0  0  0  0
    0.6750   -7.4340   21.6590 O   0  0  0  0  0  0  0  0  0  0  0  0
    2.9520   -6.0040   23.2730 C   0  0  2  0  0  0  0  0  0  0  0  0
    4.4560   -4.0990   23.6020 N   0  0  0  0  0  0  0  0  0  0  0  0
    0.7490   -6.3620   22.5810 C   0  0  0  0  0  0  0  0  0  0  0  0
   -0.3530   -5.5160   22.5630 C   0  0  0  0  0  0  0  0  0  0  0  0
    4.1970   -5.3470   22.9210 C   0  0  0  0  0  0  0  0  0  0  0  0
    6.3210   -5.2350   21.4670 C   0  0  0  0  0  0  0  0  0  0  0  0
    6.3600   -4.5810   20.0530 C   0  0  0  0  0  0  0  0  0  0  0  0
    5.3190   -3.6370   19.5510 C   0  0  0  0  0  0  0  0  0  0  0  0
    5.9680    1.7580   21.9830 C   0  0  0  0  0  0  0  0  0  0  0  0
    9.2740    1.8490   21.3740 O   0  0  0  0  0  0  0  0  0  0  0  0
    8.1240   -0.3300   21.2760 N   0  0  0  0  0  0  0  0  0  0  0  0
    7.8990   -0.2520   24.9100 O   0  0  0  0  0  0  0  0  0  0  0  0
    9.4150   -1.0140   23.4370 N   0  0  0  0  0  0  0  0  0  0  0  0
    8.9590    0.5950   21.8070 C   0  0  0  0  0  0  0  0  0  0  0  0
    9.6240    0.2590   22.9970 C   0  0  0  0  0  0  0  0  0  0  0  0
    8.2900   -1.1670   24.1810 C   0  0  0  0  0  0  0  0  0  0  0  0
    7.6990   -2.4110   24.0000 C   0  0  2  0  0  0  0  0  0  0  0  0
    5.5940   -3.5300   23.1990 C   0  0  0  0  0  0  0  0  0  0  0  0
    6.2190   -2.4250   24.1090 C   0  0  0  0  0  0  0  0  0  0  0  0
    6.3210    0.0900   17.9750 N   0  0  0  0  0  0  0  0  0  0  0  0
    7.1950   -0.3550   18.8990 C   0  0  0  0  0  0  0  0  0  0  0  0
    7.2330    0.1150   20.3560 C   0  0  0  0  0  0  0  0  0  0  0  0
    6.2500    1.0570   20.6450 C   0  0  0  0  0  0  0  0  0  0  0  0
    5.3460    1.5070   19.6870 C   0  0  0  0  0  0  0  0  0  0  0  0
    5.4370    0.9950   18.4080 C   0  0  0  0  0  0  0  0  0  0  0  0
    9.8580   -5.4650   24.8860 N   0  0  0  0  0  0  0  0  0  0  0  0
    9.2980   -4.4000   24.2480 C   0  0  0  0  0  0  0  0  0  0  0  0
    8.3260   -3.5950   24.7730 C   0  0  0  0  0  0  0  0  0  0  0  0
    7.9040   -3.9260   26.0790 C   0  0  0  0  0  0  0  0  0  0  0  0
    8.4560   -5.0020   26.7430 C   0  0  0  0  0  0  0  0  0  0  0  0
    9.4350   -5.7680   26.1300 C   0  0  0  0  0  0  0  0  0  0  0  0
  4  2  1  6
  3  4  1  0
  7  1  1  1
  4  7  1  0
  1  9  1  0
  6  9  2  0
  9 10  1  0
  5 11  1  0
  7 11  1  0
  8 11  2  3
  5 12  1  0
 12 13  1  0
 13 14  2  3
 16 20  2  0
 17 20  1  0
 19 21  1  0
 20 21  1  0
 18 22  2  0
 19 22  1  0
 22 23  1  0
  8 24  1  0
 23 25  1  1
 24 25  1  0
 26 27  2  0
 17 28  1  0
 27 28  1  0
 15 29  1  0
 28 29  2  0
 29 30  1  0
 26 31  1  0
 30 31  2  0
 32 33  2  0
 23 34  1  0
 33 34  1  0
 34 35  2  0
 35 36  1  0
 32 37  1  0
 36 37  2  0
M  END
