x0978-x0820
     RDKit          3D

 25 27  0  0  0  0  0  0  0  0999 V2000
    1.9200   -5.6990   23.1350 N   0  0  0  0  0  0  0  0  0  0  0  0
    1.9620   -8.3580   24.4310 C   0  0  0  0  0  0  0  0  0  0  0  0
    4.2800   -7.9250   24.4120 O   0  0  0  0  0  0  0  0  0  0  0  0
    3.1660   -7.4350   24.4040 C   0  0  1  0  0  0  0  0  0  0  0  0
    5.0000   -5.4570   21.8050 N   0  0  0  0  0  0  0  0  0  0  0  0
    0.5690   -7.3830   21.7720 O   0  0  0  0  0  0  0  0  0  0  0  0
    3.1060   -6.5590   23.1450 C   0  0  2  0  0  0  0  0  0  0  0  0
    0.6670   -6.1850   22.5340 C   0  0  0  0  0  0  0  0  0  0  0  0
   -0.4280   -5.3320   22.7910 C   0  0  0  0  0  0  0  0  0  0  0  0
    4.3810   -5.6850   23.0740 C   0  0  0  0  0  0  0  0  0  0  0  0
    6.1180   -4.7040   21.7060 C   0  0  0  0  0  0  0  0  0  0  0  0
    6.4040   -4.7610   20.2180 C   0  0  0  0  0  0  0  0  0  0  0  0
    5.7540   -6.0750   19.8310 C   0  0  0  0  0  0  0  0  0  0  0  0
    7.8500   -3.3140   22.8190 C   0  0  0  0  0  0  0  0  0  0  0  0
    6.6990   -4.1160   22.8860 C   0  0  0  0  0  0  0  0  0  0  0  0
    6.0880   -4.3640   24.1530 C   0  0  0  0  0  0  0  0  0  0  0  0
    6.5500   -3.8920   25.4010 C   0  0  0  0  0  0  0  0  0  0  0  0
    5.9090   -4.1770   26.6230 C   0  0  0  0  0  0  0  0  0  0  0  0
    4.7850   -4.9310   26.5710 C   0  0  0  0  0  0  0  0  0  0  0  0
    4.3160   -5.3940   25.3950 C   0  0  0  0  0  0  0  0  0  0  0  0
    4.9280   -5.1460   24.1970 C   0  0  0  0  0  0  0  0  0  0  0  0
    6.4110   -3.6830   27.9750 C   0  0  0  0  0  0  0  0  0  0  0  0
    7.6570   -2.8420   27.8710 C   0  0  0  0  0  0  0  0  0  0  0  0
    8.2730   -2.5530   26.6570 C   0  0  0  0  0  0  0  0  0  0  0  0
    7.7760   -3.0500   25.4520 C   0  0  0  0  0  0  0  0  0  0  0  0
  4  2  1  6
  3  4  1  0
  7  1  1  1
  4  7  1  0
  1  8  1  0
  6  8  2  0
  8  9  1  0
  5 10  2  0
  7 10  1  0
  5 11  1  0
 11 12  1  0
 12 13  2  3
 11 15  2  0
 14 15  1  0
 15 16  1  0
 16 17  1  0
 17 18  2  0
 18 19  1  0
 19 20  2  0
 10 21  1  0
 16 21  2  0
 20 21  1  0
 18 22  1  0
 22 23  2  0
 23 24  1  0
 17 25  1  0
 24 25  2  0
M  END
