x0978-x2705
     RDKit          3D

 45 47  0  0  0  0  0  0  0  0999 V2000
    2.0420   -5.5840   23.2010 N   0  0  0  0  0  0  0  0  0  0  0  0
    2.2290   -7.9380   24.6560 C   0  0  0  0  0  0  0  0  0  0  0  0
    4.5370   -7.7840   24.2810 O   0  0  0  0  0  0  0  0  0  0  0  0
    3.5150   -7.1500   24.4430 C   0  0  1  0  0  0  0  0  0  0  0  0
    5.6940   -5.5800   22.3170 N   0  0  0  0  0  0  0  0  0  0  0  0
    0.8320   -7.4220   21.8780 O   0  0  0  0  0  0  0  0  0  0  0  0
    3.3500   -6.2560   23.1990 C   0  0  2  0  0  0  0  0  0  0  0  0
    4.3370   -4.0370   23.4970 O   0  0  0  0  0  0  0  0  0  0  0  0
    0.8370   -6.1910   22.5920 C   0  0  0  0  0  0  0  0  0  0  0  0
   -0.3250   -5.4090   22.7940 C   0  0  0  0  0  0  0  0  0  0  0  0
    4.4680   -5.1660   23.0450 C   0  0  0  0  0  0  0  0  0  0  0  0
    6.6700   -4.7210   21.8330 C   0  0  1  0  0  0  0  0  0  0  0  0
    6.5560   -4.7890   20.3160 C   0  0  0  0  0  0  0  0  0  0  0  0
    5.7340   -6.0050   19.9180 C   0  0  0  0  0  0  0  0  0  0  0  0
    7.4830   -1.1760   21.6840 N   0  0  0  0  0  0  0  0  0  0  0  0
    7.4960    2.1710   22.7490 N   0  0  0  0  0  0  0  0  0  0  0  0
    8.9770    1.1890   21.1270 O   0  0  0  0  0  0  0  0  0  0  0  0
    6.9990    0.0990   21.5580 C   0  0  1  0  0  0  0  0  0  0  0  0
    7.9290    1.1330   21.7590 C   0  0  0  0  0  0  0  0  0  0  0  0
   10.2730    2.1580   23.9180 C   0  0  0  0  0  0  0  0  0  0  0  0
    9.4480    1.3580   24.7230 C   0  0  0  0  0  0  0  0  0  0  0  0
    6.1850    4.6010   21.9280 C   0  0  0  0  0  0  0  0  0  0  0  0
   12.2550   -1.4560   23.2980 C   0  0  0  0  0  0  0  0  0  0  0  0
   12.7320   -0.2460   23.8110 C   0  0  0  0  0  0  0  0  0  0  0  0
   12.7660   -2.5190   24.3020 C   0  0  0  0  0  0  0  0  0  0  0  0
   12.7880   -1.8970   21.9500 C   0  0  0  0  0  0  0  0  0  0  0  0
    6.8330   -3.3220   22.4650 C   0  0  0  0  0  0  0  0  0  0  0  0
    6.5130   -2.1570   21.7270 C   0  0  0  0  0  0  0  0  0  0  0  0
    6.3690    0.1100   17.8840 N   0  0  0  0  0  0  0  0  0  0  0  0
    5.1560    0.8800   17.8730 C   0  0  0  0  0  0  0  0  0  0  0  0
    4.5870    1.3430   19.0810 C   0  0  0  0  0  0  0  0  0  0  0  0
    4.9940    1.2060   20.4450 C   0  0  0  0  0  0  0  0  0  0  0  0
    6.3000    0.3750   20.2460 C   0  0  0  0  0  0  0  0  0  0  0  0
    6.8650   -0.0930   19.0920 C   0  0  0  0  0  0  0  0  0  0  0  0
    9.8330   -1.4880   24.2650 N   0  0  0  0  0  0  0  0  0  0  0  0
    8.5390   -1.4200   23.8800 N   0  0  0  0  0  0  0  0  0  0  0  0
    8.5670   -1.2980   22.5440 C   0  0  0  0  0  0  0  0  0  0  0  0
    9.9110   -1.3020   22.1590 C   0  0  0  0  0  0  0  0  0  0  0  0
   10.7230   -1.4180   23.2280 C   0  0  0  0  0  0  0  0  0  0  0  0
    9.5480    3.4210   23.4940 C   0  0  0  0  0  0  0  0  0  0  0  0
   10.1980    4.6430   23.6500 C   0  0  0  0  0  0  0  0  0  0  0  0
    9.5680    5.8220   23.2620 C   0  0  0  0  0  0  0  0  0  0  0  0
    8.2820    5.7980   22.7120 C   0  0  0  0  0  0  0  0  0  0  0  0
    7.5730    4.5850   22.5310 C   0  0  0  0  0  0  0  0  0  0  0  0
    8.2570    3.4040   22.9480 C   0  0  0  0  0  0  0  0  0  0  0  0
  4  2  1  6
  3  4  1  0
  7  1  1  1
  4  7  1  0
  1  9  1  0
  6  9  2  0
  9 10  1  0
  5 11  1  0
  7 11  1  0
  8 11  2  0
  5 12  1  0
 12 13  1  6
 13 14  2  3
 15 18  1  0
 16 19  1  0
 17 19  2  0
 18 19  1  6
 20 21  1  0
 23 24  1  0
 23 25  1  0
 23 26  1  0
 12 27  1  0
 15 28  1  0
 27 28  1  0
 29 30  2  0
 30 31  1  0
 31 32  2  0
 18 33  1  0
 32 33  1  0
 29 34  1  0
 33 34  2  0
 35 36  1  0
 15 37  1  0
 36 37  2  0
 37 38  1  0
 23 39  1  0
 35 39  1  0
 38 39  2  0
 20 40  1  0
 40 41  2  0
 41 42  1  0
 42 43  2  0
 22 44  1  0
 43 44  1  0
 16 45  1  0
 40 45  1  0
 44 45  2  0
M  END
