x0978-x3303
     RDKit          3D

 40 43  0  0  0  0  0  0  0  0999 V2000
    1.8750   -5.7270   23.2720 N   0  0  0  0  0  0  0  0  0  0  0  0
    2.1190   -8.1830   24.6740 C   0  0  0  0  0  0  0  0  0  0  0  0
    4.4280   -7.8550   24.3760 O   0  0  0  0  0  0  0  0  0  0  0  0
    3.3520   -7.3080   24.5010 C   0  0  1  0  0  0  0  0  0  0  0  0
    5.3650   -5.6940   22.1530 N   0  0  0  0  0  0  0  0  0  0  0  0
    0.6890   -7.4210   21.7620 O   0  0  0  0  0  0  0  0  0  0  0  0
    3.1600   -6.4400   23.2520 C   0  0  2  0  0  0  0  0  0  0  0  0
    4.2510   -4.3330   23.7470 O   0  0  0  0  0  0  0  0  0  0  0  0
    0.6990   -6.2300   22.5370 C   0  0  0  0  0  0  0  0  0  0  0  0
   -0.4240   -5.3880   22.6940 C   0  0  0  0  0  0  0  0  0  0  0  0
    4.2790   -5.3780   23.1050 C   0  0  0  0  0  0  0  0  0  0  0  0
    6.2290   -4.7150   21.7560 C   0  0  1  0  0  0  0  0  0  0  0  0
    6.4090   -4.9120   20.2680 C   0  0  0  0  0  0  0  0  0  0  0  0
    5.7130   -6.1670   19.8270 C   0  0  0  0  0  0  0  0  0  0  0  0
    6.1550   -1.4710   21.1720 C   0  0  0  0  0  0  0  0  0  0  0  0
    5.2700   -2.6650   21.3260 N   0  0  0  0  0  0  0  0  0  0  0  0
    6.2980    1.1470   16.8950 O   0  0  0  0  0  0  0  0  0  0  0  0
    5.8240   -3.4780   22.2320 C   0  0  0  0  0  0  0  0  0  0  0  0
    8.5850   -0.8870   21.3040 C   0  0  0  0  0  0  0  0  0  0  0  0
    9.2930   -0.0860   22.2470 C   0  0  0  0  0  0  0  0  0  0  0  0
    9.5600   -0.9420   23.4470 N   0  0  0  0  0  0  0  0  0  0  0  0
    8.7730   -1.7470   23.4310 C   0  0  0  0  0  0  0  0  0  0  0  0
    7.7120   -2.4090   22.9350 C   0  0  0  0  0  0  0  0  0  0  0  0
    7.3300   -1.4030   21.9220 N   0  0  0  0  0  0  0  0  0  0  0  0
    4.9850    1.8020   18.5170 N   0  0  0  0  0  0  0  0  0  0  0  0
    4.4390    1.7320   19.7270 C   0  0  0  0  0  0  0  0  0  0  0  0
    4.7420    0.7330   20.6630 C   0  0  0  0  0  0  0  0  0  0  0  0
    5.7650   -0.3530   20.2520 C   0  0  0  0  0  0  0  0  0  0  0  0
    6.3410   -0.2050   18.8550 C   0  0  0  0  0  0  0  0  0  0  0  0
    5.8720    0.8890   18.1290 C   0  0  0  0  0  0  0  0  0  0  0  0
   11.6770   -1.6660   22.4050 C   0  0  0  0  0  0  0  0  0  0  0  0
   12.9570   -2.2160   22.4590 C   0  0  0  0  0  0  0  0  0  0  0  0
   13.7170   -2.6970   23.5530 C   0  0  0  0  0  0  0  0  0  0  0  0
   12.7420   -2.4300   24.7230 C   0  0  0  0  0  0  0  0  0  0  0  0
   11.4790   -1.8870   24.6810 C   0  0  0  0  0  0  0  0  0  0  0  0
   10.9170   -1.5000   23.5240 C   0  0  0  0  0  0  0  0  0  0  0  0
    4.1120    0.7550   21.9290 C   0  0  0  0  0  0  0  0  0  0  0  0
    3.2290    1.7410   22.2090 C   0  0  0  0  0  0  0  0  0  0  0  0
    2.9170    2.7290   21.2930 C   0  0  0  0  0  0  0  0  0  0  0  0
    3.5270    2.7090   20.0660 C   0  0  0  0  0  0  0  0  0  0  0  0
  4  2  1  6
  3  4  1  0
  7  1  1  1
  4  7  1  0
  1  9  1  0
  6  9  2  0
  9 10  1  0
  5 11  1  0
  7 11  1  0
  8 11  2  0
  5 12  1  0
 12 13  1  6
 13 14  2  3
 15 16  2  3
 12 18  1  0
 16 18  1  0
 19 20  1  0
 20 21  1  0
 21 22  1  0
 22 23  1  0
 15 24  1  0
 19 24  1  0
 23 24  1  0
 25 26  2  0
 26 27  1  0
 15 28  1  0
 27 28  2  0
 28 29  1  0
 17 30  1  0
 25 30  1  0
 29 30  2  0
 31 32  2  0
 32 33  1  0
 33 34  2  0
 34 35  1  0
 21 36  1  0
 31 36  1  0
 35 36  2  0
 27 37  1  0
 37 38  2  0
 38 39  1  0
 26 40  1  0
 39 40  2  0
M  END
