x0978-x0830
     RDKit          3D

 32 34  0  0  0  0  0  0  0  0999 V2000
    1.9990   -5.7970   23.4680 N   0  0  0  0  0  0  0  0  0  0  0  0
    2.3320   -7.9070   24.6600 C   0  0  0  0  0  0  0  0  0  0  0  0
    4.5860   -7.6870   24.0840 O   0  0  0  0  0  0  0  0  0  0  0  0
    3.4470   -6.8970   24.4020 C   0  0  1  0  0  0  0  0  0  0  0  0
    5.2630   -5.8450   21.7820 N   0  0  0  0  0  0  0  0  0  0  0  0
    0.9060   -7.4560   21.7850 O   0  0  0  0  0  0  0  0  0  0  0  0
    3.1490   -5.8850   23.2530 C   0  0  2  0  0  0  0  0  0  0  0  0
    4.9920   -4.6160   23.8130 O   0  0  0  0  0  0  0  0  0  0  0  0
    0.9190   -6.2990   22.6050 C   0  0  0  0  0  0  0  0  0  0  0  0
   -0.2670   -5.5760   22.5820 C   0  0  0  0  0  0  0  0  0  0  0  0
    4.5090   -5.4020   23.0090 C   0  0  0  0  0  0  0  0  0  0  0  0
    6.4190   -5.2130   21.2780 C   0  0  1  0  0  0  0  0  0  0  0  0
    6.3940   -4.6050   19.8780 C   0  0  0  0  0  0  0  0  0  0  0  0
    5.3290   -3.6330   19.4810 C   0  0  0  0  0  0  0  0  0  0  0  0
   10.1200   -2.5520   23.6590 C   0  0  0  0  0  0  0  0  0  0  0  0
    6.9610   -4.0700   22.1550 C   0  0  0  0  0  0  0  0  0  0  0  0
    6.5150   -2.6850   21.8580 N   0  0  0  0  0  0  0  0  0  0  0  0
    6.4550   -2.1240   23.1630 C   0  0  0  0  0  0  0  0  0  0  0  0
    7.6060   -2.5610   23.8020 C   0  0  0  0  0  0  0  0  0  0  0  0
    8.8460   -2.1220   23.1230 N   0  0  0  0  0  0  0  0  0  0  0  0
    8.8030   -1.9000   21.7800 C   0  0  0  0  0  0  0  0  0  0  0  0
    7.3560   -1.8000   21.2840 C   0  0  0  0  0  0  0  0  0  0  0  0
   12.2650   -1.9260   22.7050 C   0  0  0  0  0  0  0  0  0  0  0  0
   13.2760   -0.8950   22.3710 C   0  0  0  0  0  0  0  0  0  0  0  0
   12.9850    0.5380   22.7600 C   0  0  0  0  0  0  0  0  0  0  0  0
   11.7980    0.8200   23.3920 C   0  0  0  0  0  0  0  0  0  0  0  0
   10.8950   -0.1900   23.6920 C   0  0  0  0  0  0  0  0  0  0  0  0
   11.1180   -1.5090   23.3560 C   0  0  0  0  0  0  0  0  0  0  0  0
   11.5080    2.1340   23.7160 C   0  0  0  0  0  0  0  0  0  0  0  0
   10.3760    2.5820   24.3370 C   0  0  0  0  0  0  0  0  0  0  0  0
    9.4620    1.5600   24.6740 C   0  0  0  0  0  0  0  0  0  0  0  0
    9.5990    0.2070   24.4190 C   0  0  0  0  0  0  0  0  0  0  0  0
  4  2  1  6
  3  4  1  0
  7  1  1  1
  4  7  1  0
  1  9  1  0
  6  9  2  0
  9 10  1  0
  5 11  1  0
  7 11  1  0
  8 11  2  0
  5 12  1  0
 12 13  1  6
 13 14  2  3
 12 16  1  0
 16 17  1  0
 17 18  1  0
 18 19  1  0
 15 20  1  0
 19 20  1  0
 20 21  1  0
 17 22  1  0
 21 22  1  0
 23 24  2  0
 24 25  1  0
 25 26  2  0
 26 27  1  0
 15 28  1  0
 23 28  1  0
 27 28  2  0
 26 29  1  0
 29 30  2  0
 30 31  1  0
 27 32  1  0
 31 32  2  0
M  END
