x0978
     RDKit          3D

 15 14  0  0  0  0  0  0  0  0999 V2000
    2.0390   -5.5760   23.0250 N   0  0  0  0  0  0  0  0  0  0  0  0
    2.0920   -7.9580   24.7670 C   0  0  0  0  0  0  0  0  0  0  0  0
    4.4720   -7.8230   24.6270 O   0  0  0  0  0  0  0  0  0  0  0  0
    3.2790   -7.0560   24.4970 C   0  0  1  0  0  0  0  0  0  0  0  0
    5.4000   -5.9380   22.0000 N   0  0  0  0  0  0  0  0  0  0  0  0
    0.8400   -7.0180   21.7710 O   0  0  0  0  0  0  0  0  0  0  0  0
    3.2380   -6.4040   23.1020 C   0  0  2  0  0  0  0  0  0  0  0  0
    4.5380   -4.4190   23.4330 O   0  0  0  0  0  0  0  0  0  0  0  0
    0.9100   -5.9650   22.4050 C   0  0  0  0  0  0  0  0  0  0  0  0
   -0.2590   -5.0310   22.5260 C   0  0  0  0  0  0  0  0  0  0  0  0
    4.4660   -5.5100   22.8720 C   0  0  0  0  0  0  0  0  0  0  0  0
    6.5640   -5.1300   21.6130 C   0  0  0  0  0  0  0  0  0  0  0  0
    6.7050   -4.6270   20.0920 C   0  0  0  0  0  0  0  0  0  0  0  0
    5.6660   -4.8660   19.4760 C   0  0  0  0  0  0  0  0  0  0  0  0
    8.0500   -3.8680   19.0450 R   0  0  0  0  0  0  0  0  0  0  0  0
  4  2  1  6
  3  4  1  0
  7  1  1  1
  4  7  1  0
  1  9  1  0
  6  9  2  0
  9 10  1  0
  5 11  1  0
  7 11  1  0
  8 11  2  0
  5 12  1  0
 12 13  1  0
 13 14  2  0
 13 15  1  0
M  END
