x0978-x1493
     RDKit          3D

 20 20  0  0  0  0  0  0  0  0999 V2000
    2.3240   -5.5820   23.1340 N   0  0  0  0  0  0  0  0  0  0  0  0
    2.2320   -8.1210   24.4420 C   0  0  0  0  0  0  0  0  0  0  0  0
    4.5260   -7.7570   24.7110 O   0  0  0  0  0  0  0  0  0  0  0  0
    3.4600   -7.2270   24.5310 C   0  0  1  0  0  0  0  0  0  0  0  0
    0.9550   -7.3990   21.9310 O   0  0  0  0  0  0  0  0  0  0  0  0
    3.5580   -6.3950   23.2360 C   0  0  2  0  0  0  0  0  0  0  0  0
    4.4820   -4.3120   22.4370 O   0  0  0  0  0  0  0  0  0  0  0  0
    1.0420   -6.1770   22.6580 C   0  0  0  0  0  0  0  0  0  0  0  0
   -0.1000   -5.4130   22.9990 C   0  0  0  0  0  0  0  0  0  0  0  0
    6.5100   -4.2550   20.0510 C   0  0  0  0  0  0  0  0  0  0  0  0
    5.3750   -3.5060   19.4380 C   0  0  0  0  0  0  0  0  0  0  0  0
    4.3480   -5.2060   25.8860 C   0  0  0  0  0  0  0  0  0  0  0  0
    6.4190   -6.0080   26.1950 O   0  0  0  0  0  0  0  0  0  0  0  0
    5.6020   -5.5450   25.4170 C   0  0  0  0  0  0  0  0  0  0  0  0
    5.8290   -5.2880   23.9600 N   0  0  0  0  0  0  0  0  0  0  0  0
    6.7490   -4.1880   23.5890 C   0  0  0  0  0  0  0  0  0  0  0  0
    7.3630   -4.5330   22.3680 C   0  0  0  0  0  0  0  0  0  0  0  0
    6.4800   -4.7660   21.3980 N   0  0  0  0  0  0  0  0  0  0  0  0
    5.6690   -5.9970   21.7770 C   0  0  0  0  0  0  0  0  0  0  0  0
    4.8760   -5.6080   22.8900 C   0  0  1  0  0  0  0  0  0  0  0  0
  4  2  1  6
  3  4  1  0
  6  1  1  1
  4  6  1  0
  1  8  1  0
  5  8  2  0
  8  9  1  0
 10 11  2  3
 12 14  1  0
 13 14  2  0
 14 15  1  0
 15 16  1  0
 16 17  1  0
 10 18  1  0
 17 18  1  0
 18 19  1  0
  6 20  1  0
 20  7  1  6
 15 20  1  0
 19 20  1  0
M  END
