x0978-x3110-x2754-x3113
     RDKit          3D

 56 60  0  0  0  0  0  0  0  0999 V2000
    8.0830    1.4430   23.2660 N   0  0  0  0  0  0  0  0  0  0  0  0
   13.4060    5.2120   22.9240 C   0  0  0  0  0  0  0  0  0  0  0  0
   12.0730    3.3400   22.4000 O   0  0  0  0  0  0  0  0  0  0  0  0
   12.5110    4.5820   21.8780 C   0  0  0  0  0  0  0  0  0  0  0  0
    7.5170   -1.4800   21.7170 N   0  0  0  0  0  0  0  0  0  0  0  0
   11.1550    4.4170   24.1940 O   0  0  0  0  0  0  0  0  0  0  0  0
   11.2360    3.4490   23.4550 C   0  0  0  0  0  0  0  0  0  0  0  0
    8.7040    1.5750   21.0970 O   0  0  0  0  0  0  0  0  0  0  0  0
   10.3690    2.1840   23.6080 C   0  0  0  0  0  0  0  0  0  0  0  0
    8.9200    2.5760   23.6470 C   0  0  0  0  0  0  0  0  0  0  0  0
    7.9910    1.0410   21.9630 C   0  0  0  0  0  0  0  0  0  0  0  0
    6.9540   -0.0810   21.6290 C   0  0  1  0  0  0  0  0  0  0  0  0
   12.4110   -2.0050   24.3590 C   0  0  0  0  0  0  0  0  0  0  0  0
   12.7240   -0.7410   25.1370 C   0  0  0  0  0  0  0  0  0  0  0  0
   13.5020   -2.2830   23.3330 C   0  0  0  0  0  0  0  0  0  0  0  0
   12.2090   -3.2050   25.2750 C   0  0  0  0  0  0  0  0  0  0  0  0
    2.1340   -5.6460   23.0990 N   0  0  0  0  0  0  0  0  0  0  0  0
    2.2840   -8.0260   24.8580 C   0  0  0  0  0  0  0  0  0  0  0  0
    4.5170   -7.6470   24.6460 O   0  0  0  0  0  0  0  0  0  0  0  0
    3.4230   -7.0890   24.5880 C   0  0  1  0  0  0  0  0  0  0  0  0
    5.7340   -6.0440   21.7680 N   0  0  0  0  0  0  0  0  0  0  0  0
    0.9250   -7.4110   21.9530 O   0  0  0  0  0  0  0  0  0  0  0  0
    3.3100   -6.4920   23.1900 C   0  0  2  0  0  0  0  0  0  0  0  0
    0.9630   -6.1480   22.6280 C   0  0  0  0  0  0  0  0  0  0  0  0
   -0.3540   -5.3950   22.7830 C   0  0  0  0  0  0  0  0  0  0  0  0
    4.6020   -5.6770   22.5930 C   0  0  0  0  0  0  0  0  0  0  0  0
    6.2960   -4.3410   20.1130 C   0  0  0  0  0  0  0  0  0  0  0  0
    5.3430   -3.6410   19.5640 C   0  0  0  0  0  0  0  0  0  0  0  0
    4.6020   -3.3220   24.9120 C   0  0  0  0  0  0  0  0  0  0  0  0
    3.5350   -3.8190   25.2370 O   0  0  0  0  0  0  0  0  0  0  0  0
    5.4880   -2.8380   25.9430 N   0  0  0  0  0  0  0  0  0  0  0  0
    4.9030   -2.1310   26.9390 C   0  0  0  0  0  0  0  0  0  0  0  0
    6.3680    0.2300   17.9210 N   0  0  0  0  0  0  0  0  0  0  0  0
    5.3010    1.0260   17.9190 C   0  0  0  0  0  0  0  0  0  0  0  0
    4.6790    1.5130   19.0520 C   0  0  0  0  0  0  0  0  0  0  0  0
    5.2330    1.1340   20.2630 C   0  0  0  0  0  0  0  0  0  0  0  0
    6.3510    0.3070   20.2840 C   0  0  0  0  0  0  0  0  0  0  0  0
    6.9290   -0.1610   19.0820 C   0  0  0  0  0  0  0  0  0  0  0  0
    9.9310   -1.1860   21.7170 C   0  0  0  0  0  0  0  0  0  0  0  0
   11.1220   -1.3270   22.3690 C   0  0  0  0  0  0  0  0  0  0  0  0
   11.1320   -1.8390   23.6340 C   0  0  0  0  0  0  0  0  0  0  0  0
    9.9780   -2.2230   24.2930 C   0  0  0  0  0  0  0  0  0  0  0  0
    8.7780   -2.0790   23.6100 C   0  0  0  0  0  0  0  0  0  0  0  0
    8.7600   -1.5690   22.3350 C   0  0  0  0  0  0  0  0  0  0  0  0
    7.2600   -3.9970   22.2970 N   0  0  0  0  0  0  0  0  0  0  0  0
    6.7190   -2.5940   22.1220 C   0  0  1  0  0  0  0  0  0  0  0  0
    6.0470   -2.3170   23.2970 C   0  0  0  0  0  0  0  0  0  0  0  0
    4.9480   -3.1760   23.4060 C   0  0  1  0  0  0  0  0  0  0  0  0
    5.1460   -4.4280   22.6930 C   0  0  0  0  0  0  0  0  0  0  0  0
    6.1870   -4.6810   21.6570 C   0  0  2  0  0  0  0  0  0  0  0  0
    6.7110   -4.6470   27.1630 C   0  0  0  0  0  0  0  0  0  0  0  0
    7.8390   -5.3880   27.6680 C   0  0  0  0  0  0  0  0  0  0  0  0
    9.2260   -4.8200   27.2890 C   0  0  0  0  0  0  0  0  0  0  0  0
    9.3630   -3.5430   26.4260 C   0  0  0  0  0  0  0  0  0  0  0  0
    8.0590   -2.8910   25.9870 C   0  0  0  0  0  0  0  0  0  0  0  0
    6.6930   -3.4660   26.3660 C   0  0  0  0  0  0  0  0  0  0  0  0
  2  4  1  0
  3  4  1  0
  3  7  1  0
  6  7  2  0
  7  9  1  0
  1 10  1  0
  9 10  1  0
  1 11  1  0
  8 11  2  0
  5 12  1  0
 12 11  1  6
 13 14  1  0
 13 15  1  0
 13 16  1  0
 20 18  1  6
 19 20  1  0
 23 17  1  1
 20 23  1  0
 17 24  1  0
 22 24  2  0
 24 25  1  0
 21 26  1  0
 23 26  1  0
 27 28  2  3
 29 30  2  0
 29 31  1  0
 31 32  1  0
 33 34  2  0
 34 35  1  0
 35 36  2  0
 12 37  1  0
 36 37  1  0
 33 38  1  0
 37 38  2  0
 39 40  2  0
 13 41  1  0
 40 41  1  0
 41 42  2  0
 42 43  1  0
  5 44  1  0
 39 44  1  0
 43 44  2  0
 46  5  1  1
 45 46  1  0
 46 47  1  0
 48 29  1  1
 47 48  1  0
 26 49  2  0
 48 49  1  0
 21 50  1  0
 50 27  1  6
 45 50  1  0
 49 50  1  0
 51 52  2  0
 52 53  1  0
 53 54  2  0
 54 55  1  0
 31 56  1  0
 51 56  1  0
 55 56  2  0
M  END
