x0978-x1308
     RDKit          3D

 26 28  0  0  0  0  0  0  0  0999 V2000
    2.3540   -5.5740   22.9730 N   0  0  0  0  0  0  0  0  0  0  0  0
    2.5860   -8.2640   24.6040 C   0  0  0  0  0  0  0  0  0  0  0  0
    4.4840   -6.9690   25.4050 N   0  0  0  0  0  0  0  0  0  0  0  0
    3.3490   -6.9480   24.6260 C   0  0  1  0  0  0  0  0  0  0  0  0
    0.8390   -7.4540   21.9450 O   0  0  0  0  0  0  0  0  0  0  0  0
    3.5780   -6.3620   23.2050 C   0  0  2  0  0  0  0  0  0  0  0  0
    4.2470   -4.3320   22.5360 O   0  0  0  0  0  0  0  0  0  0  0  0
    1.0620   -6.1950   22.5940 C   0  0  0  0  0  0  0  0  0  0  0  0
   -0.1170   -5.4680   22.8840 C   0  0  0  0  0  0  0  0  0  0  0  0
    6.5070   -4.3480   20.0870 C   0  0  0  0  0  0  0  0  0  0  0  0
    5.3630   -3.5790   19.5240 C   0  0  0  0  0  0  0  0  0  0  0  0
    0.8050   -1.1610   26.6200 Cl  0  0  0  0  0  0  0  0  0  0  0  0
    6.2090   -5.4730   26.6170 O   0  0  0  0  0  0  0  0  0  0  0  0
    5.2080   -5.4530   25.5740 S   0  0  1  0  0  0  0  0  0  0  0  0
    6.5210   -4.8880   21.4380 N   0  0  0  0  0  0  0  0  0  0  0  0
    7.3460   -4.5000   22.5050 C   0  0  0  0  0  0  0  0  0  0  0  0
    6.5350   -4.2100   23.6400 C   0  0  0  0  0  0  0  0  0  0  0  0
    5.7990   -5.3210   24.0140 N   0  0  0  0  0  0  0  0  0  0  0  0
    4.7770   -5.5220   22.9180 C   0  0  1  0  0  0  0  0  0  0  0  0
    5.6110   -5.8290   21.8270 C   0  0  0  0  0  0  0  0  0  0  0  0
    4.3460   -3.0080   26.2480 C   0  0  0  0  0  0  0  0  0  0  0  0
    3.3680   -2.0220   26.4870 C   0  0  0  0  0  0  0  0  0  0  0  0
    2.0190   -2.3470   26.3310 C   0  0  0  0  0  0  0  0  0  0  0  0
    1.6430   -3.6200   25.9450 C   0  0  0  0  0  0  0  0  0  0  0  0
    2.6160   -4.5790   25.7140 C   0  0  0  0  0  0  0  0  0  0  0  0
    3.9740   -4.3070   25.8550 C   0  0  0  0  0  0  0  0  0  0  0  0
  4  2  1  6
  3  4  1  0
  6  1  1  1
  4  6  1  0
  1  8  1  0
  5  8  2  0
  8  9  1  0
 10 11  2  3
  3 14  2  0
 13 14  2  0
 10 15  1  0
 15 16  1  0
 16 17  1  0
 14 18  1  0
 17 18  1  0
  6 19  1  0
 19  7  1  6
 18 19  1  0
 15 20  1  0
 19 20  1  0
 21 22  2  0
 12 23  1  0
 22 23  1  0
 23 24  2  0
 24 25  1  0
 14 26  1  1
 21 26  1  0
 25 26  2  0
M  END
