x0978-x1308-x0731-x3113
     RDKit          3D

 59 64  0  0  0  0  0  0  0  0999 V2000
    7.1750   -1.0480   22.1590 N   0  0  0  0  0  0  0  0  0  0  0  0
    8.2820    1.6600   23.2440 N   0  0  0  0  0  0  0  0  0  0  0  0
    8.8290    1.6530   21.0370 O   0  0  0  0  0  0  0  0  0  0  0  0
   11.8070    4.1480   23.3830 O   0  0  0  0  0  0  0  0  0  0  0  0
    6.9340    0.2930   21.7320 C   0  0  1  0  0  0  0  0  0  0  0  0
    8.0720    1.2160   21.9230 C   0  0  0  0  0  0  0  0  0  0  0  0
    9.3280    2.5840   23.5510 C   0  0  0  0  0  0  0  0  0  0  0  0
   10.6830    1.9840   23.4990 C   0  0  0  0  0  0  0  0  0  0  0  0
   11.8060    2.8140   23.0200 C   0  0  0  0  0  0  0  0  0  0  0  0
   12.9620    4.7260   22.8290 C   0  0  0  0  0  0  0  0  0  0  0  0
   12.4520   -1.8750   24.1190 C   0  0  0  0  0  0  0  0  0  0  0  0
   13.3720   -2.0180   22.9390 C   0  0  0  0  0  0  0  0  0  0  0  0
   12.7610   -3.0430   25.0040 C   0  0  0  0  0  0  0  0  0  0  0  0
   12.7440   -0.6530   24.8970 C   0  0  0  0  0  0  0  0  0  0  0  0
    1.9040   -5.6780   22.6030 N   0  0  0  0  0  0  0  0  0  0  0  0
    1.7820   -8.3360   23.7790 C   0  0  0  0  0  0  0  0  0  0  0  0
    4.0480   -8.0210   24.2540 O   0  0  0  0  0  0  0  0  0  0  0  0
    2.8580   -7.3430   24.2150 C   0  0  1  0  0  0  0  0  0  0  0  0
    0.5660   -7.4910   21.9580 O   0  0  0  0  0  0  0  0  0  0  0  0
    2.9580   -6.1950   23.2870 C   0  0  0  0  0  0  0  0  0  0  0  0
    4.2540   -5.4980   25.0470 O   0  0  0  0  0  0  0  0  0  0  0  0
    0.6800   -6.3080   22.4180 C   0  0  0  0  0  0  0  0  0  0  0  0
   -0.5800   -5.5870   22.7060 C   0  0  0  0  0  0  0  0  0  0  0  0
    6.2710   -4.5270   20.1790 C   0  0  0  0  0  0  0  0  0  0  0  0
    5.4130   -3.8620   19.7150 C   0  0  0  0  0  0  0  0  0  0  0  0
    6.3160   -1.9710   21.4660 C   0  0  0  0  0  0  0  0  0  0  0  0
    5.5990   -2.8940   22.3520 C   0  0  0  0  0  0  0  0  0  0  0  0
    0.4280   -1.4250   26.4400 C   0  0  0  0  0  0  0  0  0  0  0  0
    6.3370   -3.8670   26.5980 O   0  0  0  0  0  0  0  0  0  0  0  0
    5.1670   -6.0130   26.3110 O   0  0  0  0  0  0  0  0  0  0  0  0
    5.4220   -4.5940   25.7930 S   0  0  0  0  0  0  0  0  0  0  0  0
    7.7020   -5.1080   26.5500 O   0  0  0  0  0  0  0  0  0  0  0  0
    6.0550   -6.2260   25.6420 O   0  0  0  0  0  0  0  0  0  0  0  0
    7.4060   -5.5330   25.2190 S   0  0  0  0  0  0  0  0  0  0  0  0
    6.3870    0.2310   18.0650 N   0  0  0  0  0  0  0  0  0  0  0  0
    5.3460    1.0410   17.9070 C   0  0  0  0  0  0  0  0  0  0  0  0
    4.7850    1.6300   19.0190 C   0  0  0  0  0  0  0  0  0  0  0  0
    5.3230    1.3620   20.2320 C   0  0  0  0  0  0  0  0  0  0  0  0
    6.4200    0.5130   20.3820 C   0  0  0  0  0  0  0  0  0  0  0  0
    6.9330   -0.0510   19.2450 C   0  0  0  0  0  0  0  0  0  0  0  0
    9.4510   -1.8610   21.8190 C   0  0  0  0  0  0  0  0  0  0  0  0
   10.7310   -2.0500   22.3160 C   0  0  0  0  0  0  0  0  0  0  0  0
   11.0930   -1.7150   23.6110 C   0  0  0  0  0  0  0  0  0  0  0  0
   10.1220   -1.1960   24.4110 C   0  0  0  0  0  0  0  0  0  0  0  0
    8.8560   -1.0050   23.9300 C   0  0  0  0  0  0  0  0  0  0  0  0
    8.4860   -1.3000   22.6760 C   0  0  0  0  0  0  0  0  0  0  0  0
    6.0580   -4.7310   22.3370 S   0  0  0  0  0  0  0  0  0  0  0  0
    7.9780   -4.9360   22.9240 C   0  0  0  0  0  0  0  0  0  0  0  0
    6.9750   -4.5920   23.8520 C   0  0  2  0  0  0  0  0  0  0  0  0
    5.7550   -4.5110   24.0850 N   0  0  0  0  0  0  0  0  0  0  0  0
    4.7350   -5.6430   23.3160 S   0  0  0  0  0  0  0  0  0  0  0  0
    5.5520   -6.4560   22.0970 C   0  0  0  0  0  0  0  0  0  0  0  0
    4.0170   -2.3760   26.2130 C   0  0  0  0  0  0  0  0  0  0  0  0
    2.9110   -1.6210   26.3640 C   0  0  0  0  0  0  0  0  0  0  0  0
    1.6620   -2.2150   26.2840 C   0  0  0  0  0  0  0  0  0  0  0  0
    1.5270   -3.5560   26.0570 C   0  0  0  0  0  0  0  0  0  0  0  0
    2.6910   -4.2840   25.9120 C   0  0  0  0  0  0  0  0  0  0  0  0
    3.9140   -3.7360   25.9800 C   0  0  0  0  0  0  0  0  0  0  0  0
    0.7960    0.0040   26.2020 C   0  0  0  0  0  0  0  0  0  0  0  0
  1  5  1  0
  2  6  1  0
  3  6  2  0
  5  6  1  6
  2  7  1  0
  7  8  1  0
  4  9  1  0
  8  9  1  0
  4 10  1  0
 11 12  1  0
 11 13  1  0
 11 14  1  0
 18 16  1  6
 17 18  1  0
 15 20  1  0
 18 20  1  0
 15 22  1  0
 19 22  2  0
 22 23  1  0
 24 25  2  3
  1 26  1  0
 26 27  1  0
 29 31  2  0
 30 31  2  0
 32 34  2  0
 33 34  2  0
 35 36  2  0
 36 37  1  0
 37 38  2  0
  5 39  1  0
 38 39  1  0
 35 40  1  0
 39 40  2  0
 41 42  2  0
 11 43  1  0
 42 43  1  0
 43 44  2  0
 44 45  1  0
  1 46  1  0
 41 46  1  0
 45 46  2  0
 24 47  1  0
 27 47  1  0
 47 48  1  0
 49 34  1  1
 47 49  1  0
 48 49  1  0
 31 50  1  0
 49 50  1  0
 20 51  1  0
 21 51  1  0
 47 51  1  0
 50 51  1  0
 47 52  1  0
 51 52  1  0
 53 54  2  0
 28 55  1  0
 54 55  1  0
 55 56  2  0
 56 57  1  0
 31 58  1  0
 53 58  1  0
 57 58  2  0
 28 59  1  0
M  END
