x0978-x2540-x0731-x3113
     RDKit          3D

 58 63  0  0  0  0  0  0  0  0999 V2000
    7.4940   -1.3560   21.6390 N   0  0  0  0  0  0  0  0  0  0  0  0
    8.3350    1.4650   23.2100 N   0  0  0  0  0  0  0  0  0  0  0  0
    8.9090    1.6700   20.9190 O   0  0  0  0  0  0  0  0  0  0  0  0
   11.8130    4.1940   23.4310 O   0  0  0  0  0  0  0  0  0  0  0  0
    7.0270    0.0790   21.6160 C   0  0  1  0  0  0  0  0  0  0  0  0
    8.1240    1.0810   21.9410 C   0  0  0  0  0  0  0  0  0  0  0  0
    9.1590    2.6160   23.5680 C   0  0  0  0  0  0  0  0  0  0  0  0
   10.6130    2.1890   23.4860 C   0  0  0  0  0  0  0  0  0  0  0  0
   11.5610    3.0600   22.8160 C   0  0  0  0  0  0  0  0  0  0  0  0
   12.8280    4.7260   22.9750 C   0  0  0  0  0  0  0  0  0  0  0  0
   13.3750   -1.7240   24.1400 C   0  0  1  0  0  0  0  0  0  0  0  0
   13.3590   -1.9770   22.7050 C   0  0  0  0  0  0  0  0  0  0  0  0
   13.1090   -2.8580   25.1570 C   0  0  0  0  0  0  0  0  0  0  0  0
   12.7410   -0.2370   24.3980 C   0  0  0  0  0  0  0  0  0  0  0  0
   12.2680   -1.1920   23.4490 C   0  0  2  0  0  0  0  0  0  0  0  0
    8.7680    3.0300   24.9760 C   0  0  0  0  0  0  0  0  0  0  0  0
    8.9100    3.8160   22.6270 C   0  0  0  0  0  0  0  0  0  0  0  0
    2.2520   -5.7270   23.1320 N   0  0  0  0  0  0  0  0  0  0  0  0
    2.6260   -7.1690   25.3020 C   0  0  0  0  0  0  0  0  0  0  0  0
    4.5200   -7.9340   24.4100 O   0  0  0  0  0  0  0  0  0  0  0  0
    3.2500   -7.4690   24.1100 C   0  0  2  0  0  0  0  0  0  0  0  0
    0.8940   -7.2310   21.9830 O   0  0  0  0  0  0  0  0  0  0  0  0
    3.4020   -6.4980   23.1220 C   0  0  2  0  0  0  0  0  0  0  0  0
    4.3090   -4.3180   22.5710 O   0  0  0  0  0  0  0  0  0  0  0  0
    1.0130   -6.1950   22.6330 C   0  0  0  0  0  0  0  0  0  0  0  0
   -0.1050   -5.4000   22.9200 C   0  0  0  0  0  0  0  0  0  0  0  0
    6.5190   -4.3430   20.0720 C   0  0  0  0  0  0  0  0  0  0  0  0
    5.3810   -3.6050   19.4960 C   0  0  0  0  0  0  0  0  0  0  0  0
    6.3540   -2.1870   21.5220 C   0  0  0  0  0  0  0  0  0  0  0  0
    6.0050   -3.3520   22.2560 C   0  0  0  0  0  0  0  0  0  0  0  0
    1.1360   -0.7740   26.1220 C   0  0  0  0  0  0  0  0  0  0  0  0
    6.4620   -4.7850   26.4170 O   0  0  0  0  0  0  0  0  0  0  0  0
    4.7150   -6.5630   26.1320 O   0  0  0  0  0  0  0  0  0  0  0  0
    5.3280   -5.3330   25.7030 S   0  0  0  0  0  0  0  0  0  0  0  0
    6.3450    0.4260   17.7970 N   0  0  0  0  0  0  0  0  0  0  0  0
    5.2840    1.2440   17.8400 C   0  0  0  0  0  0  0  0  0  0  0  0
    4.7110    1.7250   18.9620 C   0  0  0  0  0  0  0  0  0  0  0  0
    5.2410    1.3700   20.1820 C   0  0  0  0  0  0  0  0  0  0  0  0
    6.3990    0.4890   20.2740 C   0  0  0  0  0  0  0  0  0  0  0  0
    6.8950    0.0460   18.9550 C   0  0  0  0  0  0  0  0  0  0  0  0
    9.8670   -1.2190   22.3960 C   0  0  0  0  0  0  0  0  0  0  0  0
   10.8950   -1.6380   23.4470 C   0  0  0  0  0  0  0  0  0  0  0  0
   10.4850   -2.4750   24.4620 C   0  0  0  0  0  0  0  0  0  0  0  0
    9.1840   -2.9060   24.5280 C   0  0  0  0  0  0  0  0  0  0  0  0
    8.2550   -2.5150   23.5920 C   0  0  0  0  0  0  0  0  0  0  0  0
    8.6010   -1.7000   22.5650 C   0  0  0  0  0  0  0  0  0  0  0  0
    2.0900   -1.9210   25.9760 C   0  0  0  0  0  0  0  0  0  0  0  0
    1.6870   -3.1030   25.4360 C   0  0  0  0  0  0  0  0  0  0  0  0
    2.6360   -4.2840   25.2860 C   0  0  0  0  0  0  0  0  0  0  0  0
    4.0590   -4.0730   25.7740 C   0  0  0  0  0  0  0  0  0  0  0  0
    4.3240   -2.8550   26.2830 C   0  0  0  0  0  0  0  0  0  0  0  0
    3.4120   -1.8060   26.3950 C   0  0  0  0  0  0  0  0  0  0  0  0
    6.4570   -4.7260   21.6310 C   0  0  2  0  0  0  0  0  0  0  0  0
    7.5780   -5.1350   22.2570 C   0  0  0  0  0  0  0  0  0  0  0  0
    7.0570   -4.9340   23.7080 C   0  0  0  0  0  0  0  0  0  0  0  0
    5.7160   -5.4900   24.0590 N   0  0  0  0  0  0  0  0  0  0  0  0
    4.7680   -5.6070   22.9510 C   0  0  1  0  0  0  0  0  0  0  0  0
    5.6150   -5.9690   21.8690 C   0  0  0  0  0  0  0  0  0  0  0  0
  1  5  1  0
  2  6  1  0
  3  6  2  0
  5  6  1  6
  7  2  1  0
  7  8  1  0
  4  9  1  0
  8  9  1  0
  4 10  1  0
 11 12  1  0
 11 13  1  6
 11 14  1  0
 11 15  1  0
 12 15  1  0
 14 15  1  0
  7 16  1  0
  7 17  1  0
 21 19  1  1
 20 21  1  0
 23 18  1  1
 21 23  1  0
 18 25  1  0
 22 25  2  0
 25 26  1  0
 27 28  2  3
  1 29  1  0
 29 30  1  0
 32 34  2  0
 33 34  2  0
 35 36  2  0
 36 37  1  0
 37 38  2  0
  5 39  1  0
 38 39  1  0
 35 40  1  0
 39 40  2  0
 15 42  1  1
 41 42  2  0
 42 43  1  0
 43 44  2  0
 44 45  1  0
  1 46  1  0
 41 46  1  0
 45 46  2  0
 31 47  1  0
 47 48  2  0
 48 49  1  0
 34 50  1  0
 49 50  2  0
 50 51  1  0
 47 52  1  0
 51 52  2  0
 53 27  1  6
 30 53  1  0
 53 54  1  0
 54 55  1  0
 34 56  1  0
 55 56  1  0
 23 57  1  0
 57 24  1  6
 56 57  1  0
 53 58  1  0
 57 58  1  0
M  END
