x0978-x3113-x3110-x0734
     RDKit          3D

 57 61  0  0  0  0  0  0  0  0999 V2000
    7.8440    1.9160   23.1890 N   0  0  0  0  0  0  0  0  0  0  0  0
   13.4130    5.3950   22.9200 C   0  0  0  0  0  0  0  0  0  0  0  0
   12.2600    3.4070   22.5320 O   0  0  0  0  0  0  0  0  0  0  0  0
   12.6520    4.6140   21.9080 C   0  0  0  0  0  0  0  0  0  0  0  0
    6.9570   -0.9110   22.0550 N   0  0  0  0  0  0  0  0  0  0  0  0
   11.1460    4.2470   24.3680 O   0  0  0  0  0  0  0  0  0  0  0  0
   11.2490    3.5070   23.4060 C   0  0  0  0  0  0  0  0  0  0  0  0
    8.6450    1.7120   21.0900 O   0  0  0  0  0  0  0  0  0  0  0  0
   10.1970    2.5160   22.9930 C   0  0  0  0  0  0  0  0  0  0  0  0
    8.8520    2.8700   23.5900 C   0  0  0  0  0  0  0  0  0  0  0  0
    7.7820    1.3900   21.9300 C   0  0  0  0  0  0  0  0  0  0  0  0
    6.6280    0.4300   21.6230 C   0  0  1  0  0  0  0  0  0  0  0  0
   12.4440   -1.8380   23.7090 C   0  0  0  0  0  0  0  0  0  0  0  0
   12.9720   -0.4750   24.0740 C   0  0  0  0  0  0  0  0  0  0  0  0
   13.2370   -2.2440   22.4960 C   0  0  0  0  0  0  0  0  0  0  0  0
   12.7680   -2.8250   24.8310 C   0  0  0  0  0  0  0  0  0  0  0  0
    2.0830   -5.6620   23.0230 N   0  0  0  0  0  0  0  0  0  0  0  0
    2.1690   -8.1760   24.5860 C   0  0  0  0  0  0  0  0  0  0  0  0
    4.3860   -7.8930   24.6340 O   0  0  0  0  0  0  0  0  0  0  0  0
    3.1520   -7.2270   24.3870 C   0  0  1  0  0  0  0  0  0  0  0  0
    4.7750   -4.8130   21.9220 N   0  0  0  0  0  0  0  0  0  0  0  0
    0.7190   -7.3470   21.8530 O   0  0  0  0  0  0  0  0  0  0  0  0
    3.2230   -6.5840   23.1410 C   0  0  2  0  0  0  0  0  0  0  0  0
    5.7020   -6.3180   23.2490 N   0  0  0  0  0  0  0  0  0  0  0  0
    0.8620   -6.1380   22.5800 C   0  0  0  0  0  0  0  0  0  0  0  0
   -0.2680   -5.3630   22.8890 C   0  0  0  0  0  0  0  0  0  0  0  0
    4.6040   -5.9040   22.7920 C   0  0  0  0  0  0  0  0  0  0  0  0
    6.3660   -4.4560   20.0890 C   0  0  0  0  0  0  0  0  0  0  0  0
    5.4010   -3.7400   19.5520 C   0  0  0  0  0  0  0  0  0  0  0  0
    6.2780   -1.9650   21.5640 C   0  0  0  0  0  0  0  0  0  0  0  0
    5.1840   -4.5230   26.2390 N   0  0  0  0  0  0  0  0  0  0  0  0
    4.3020   -5.3330   25.9360 O   0  0  0  0  0  0  0  0  0  0  0  0
    4.9710   -3.4890   26.8840 O   0  0  0  0  0  0  0  0  0  0  0  0
    6.3540    0.3530   17.8900 N   0  0  0  0  0  0  0  0  0  0  0  0
    5.2880    1.1760   17.8000 C   0  0  0  0  0  0  0  0  0  0  0  0
    4.5470    1.8170   18.7970 C   0  0  0  0  0  0  0  0  0  0  0  0
    4.9850    1.5670   20.0760 C   0  0  0  0  0  0  0  0  0  0  0  0
    6.1600    0.6750   20.2610 C   0  0  0  0  0  0  0  0  0  0  0  0
    6.7540    0.1320   19.1550 C   0  0  0  0  0  0  0  0  0  0  0  0
    9.2480   -1.4590   21.4940 C   0  0  0  0  0  0  0  0  0  0  0  0
   10.6390   -1.6940   21.9710 C   0  0  0  0  0  0  0  0  0  0  0  0
   10.9980   -1.6050   23.3160 C   0  0  0  0  0  0  0  0  0  0  0  0
   10.0440   -1.2930   24.2620 C   0  0  0  0  0  0  0  0  0  0  0  0
    8.7200   -1.0690   23.8920 C   0  0  0  0  0  0  0  0  0  0  0  0
    8.2980   -1.1500   22.4240 C   0  0  0  0  0  0  0  0  0  0  0  0
    6.5170   -5.0810   26.3240 C   0  0  0  0  0  0  0  0  0  0  0  0
    7.4870   -5.1230   25.1080 C   0  0  0  0  0  0  0  0  0  0  0  0
    8.8050   -5.7640   25.4710 C   0  0  0  0  0  0  0  0  0  0  0  0
    9.0660   -6.2310   26.7400 C   0  0  0  0  0  0  0  0  0  0  0  0
    8.1250   -6.1230   27.7280 C   0  0  0  0  0  0  0  0  0  0  0  0
    6.8580   -5.5630   27.5510 C   0  0  0  0  0  0  0  0  0  0  0  0
    6.6670   -3.1970   22.1680 N   0  0  0  0  0  0  0  0  0  0  0  0
    6.1750   -4.4880   21.7080 C   0  0  1  0  0  0  0  0  0  0  0  0
    6.7610   -5.4230   22.6780 C   0  0  1  0  0  0  0  0  0  0  0  0
    7.2780   -4.6480   23.8280 N   0  0  0  0  0  0  0  0  0  0  0  0
    8.3660   -3.8930   23.5220 C   0  0  0  0  0  0  0  0  0  0  0  0
    8.0530   -3.1260   22.5050 C   0  0  0  0  0  0  0  0  0  0  0  0
  2  4  1  0
  3  4  1  0
  3  7  1  0
  6  7  2  0
  7  9  1  0
  1 10  1  0
  9 10  1  0
  1 11  1  0
  8 11  2  0
  5 12  1  0
 12 11  1  6
 13 14  1  0
 13 15  1  0
 13 16  1  0
 20 18  1  6
 19 20  1  0
 23 17  1  1
 20 23  1  0
 17 25  1  0
 22 25  2  0
 25 26  1  0
 21 27  1  0
 23 27  1  0
 24 27  2  0
 28 29  2  3
  5 30  1  0
 31 32  2  0
 31 33  1  0
 34 35  2  0
 35 36  1  0
 36 37  2  0
 12 38  1  0
 37 38  1  0
 34 39  1  0
 38 39  2  0
 40 41  2  0
 13 42  1  0
 41 42  1  0
 42 43  2  0
 43 44  1  0
  5 45  1  0
 40 45  1  0
 44 45  2  0
 31 46  1  0
 46 47  2  0
 47 48  1  0
 48 49  2  0
 49 50  1  0
 46 51  1  0
 50 51  2  0
 30 52  1  0
 21 53  1  0
 53 28  1  6
 52 53  1  0
 54 24  1  1
 53 54  1  0
 47 55  1  0
 54 55  1  0
 55 56  1  0
 52 57  1  0
 56 57  1  0
M  CHG  2  31   1  33  -1
M  END
