x0978-x0946-x1375-x3110-x1077
     RDKit          3D

 62 68  0  0  0  0  0  0  0  0999 V2000
    6.9680   -3.5050   22.7400 N   0  0  0  0  0  0  0  0  0  0  0  0
    3.9210   -8.2850   25.0630 O   0  0  0  0  0  0  0  0  0  0  0  0
    2.4050   -6.9470   22.6000 N   0  0  0  0  0  0  0  0  0  0  0  0
    2.4300   -6.2740   25.3070 C   0  0  0  0  0  0  0  0  0  0  0  0
    4.4480   -7.9850   23.9410 O   0  0  0  0  0  0  0  0  0  0  0  0
    0.4790   -7.8200   21.5070 O   0  0  0  0  0  0  0  0  0  0  0  0
    3.0010   -5.7390   22.7950 C   0  0  2  0  0  0  0  0  0  0  0  0
    0.9800   -6.9590   22.2500 C   0  0  0  0  0  0  0  0  0  0  0  0
    0.1390   -5.8270   22.8260 C   0  0  0  0  0  0  0  0  0  0  0  0
    5.7390   -5.6660   21.0090 C   0  0  0  0  0  0  0  0  0  0  0  0
    6.4050   -4.5940   20.1390 C   0  0  0  0  0  0  0  0  0  0  0  0
    5.5360   -3.5600   19.4980 C   0  0  0  0  0  0  0  0  0  0  0  0
    5.7100   -4.7950   24.0570 C   0  0  2  0  0  0  0  0  0  0  0  0
    5.6900   -3.5460   23.3100 C   0  0  2  0  0  0  0  0  0  0  0  0
    4.6130   -5.0400   22.6500 S   0  0  0  0  0  0  0  0  0  0  0  0
    3.9190   -5.9240   24.1370 S   0  0  0  0  0  0  0  0  0  0  0  0
    4.7010   -4.5500   25.0470 C   0  0  0  0  0  0  0  0  0  0  0  0
    1.5850   -7.1260   24.8310 O   0  0  0  0  0  0  0  0  0  0  0  0
   11.2550   -4.1940   25.9230 O   0  0  0  0  0  0  0  0  0  0  0  0
    7.3150   -5.7570   25.2040 O   0  0  0  0  0  0  0  0  0  0  0  0
    7.9810   -4.8980   24.3410 C   0  0  1  0  0  0  0  0  0  0  0  0
    9.4840   -5.0670   24.4110 C   0  0  0  0  0  0  0  0  0  0  0  0
   10.0150   -3.9920   25.3130 C   0  0  1  0  0  0  0  0  0  0  0  0
    9.0600   -3.6800   26.2240 N   0  0  0  0  0  0  0  0  0  0  0  0
    8.4260   -4.6790   26.9580 C   0  0  0  0  0  0  0  0  0  0  0  0
    8.1410   -5.8650   26.3430 C   0  0  0  0  0  0  0  0  0  0  0  0
    7.4430   -4.8160   22.9800 C   0  0  0  0  0  0  0  0  0  0  0  0
    7.9820    1.4410   23.3210 N   0  0  0  0  0  0  0  0  0  0  0  0
   13.3040    5.2980   21.6580 C   0  0  0  0  0  0  0  0  0  0  0  0
   13.2010    4.8200   23.0740 C   0  0  0  0  0  0  0  0  0  0  0  0
    7.1150   -1.0860   21.8860 N   0  0  0  0  0  0  0  0  0  0  0  0
   10.4780    5.0270   23.6930 C   0  0  0  0  0  0  0  0  0  0  0  0
    8.7130    1.7690   21.2300 O   0  0  0  0  0  0  0  0  0  0  0  0
    8.7160    2.5060   23.7060 C   0  0  0  0  0  0  0  0  0  0  0  0
    7.9460    1.1750   22.0010 C   0  0  0  0  0  0  0  0  0  0  0  0
    6.9930    0.2270   21.5630 C   0  0  1  0  0  0  0  0  0  0  0  0
   12.3350   -1.5280   23.8590 C   0  0  0  0  0  0  0  0  0  0  0  0
   12.6700   -0.2420   24.2580 C   0  0  0  0  0  0  0  0  0  0  0  0
   13.3870   -1.9720   22.9330 C   0  0  0  0  0  0  0  0  0  0  0  0
   12.3550   -2.0820   25.1720 C   0  0  0  0  0  0  0  0  0  0  0  0
    9.0610    4.9820   23.9430 N   0  0  0  0  0  0  0  0  0  0  0  0
   10.6090    5.9990   22.7620 O   0  0  0  0  0  0  0  0  0  0  0  0
   11.0670    5.6690   24.8080 O   0  0  0  0  0  0  0  0  0  0  0  0
    6.2850    0.2700   17.8890 N   0  0  0  0  0  0  0  0  0  0  0  0
    5.2360    1.0780   17.8210 C   0  0  0  0  0  0  0  0  0  0  0  0
    4.7260    1.6200   18.9930 C   0  0  0  0  0  0  0  0  0  0  0  0
    5.3230    1.3180   20.2300 C   0  0  0  0  0  0  0  0  0  0  0  0
    6.4240    0.4760   20.2790 C   0  0  0  0  0  0  0  0  0  0  0  0
    6.8600   -0.0260   19.0590 C   0  0  0  0  0  0  0  0  0  0  0  0
    9.4830   -1.2660   21.6180 C   0  0  0  0  0  0  0  0  0  0  0  0
   10.7800   -1.3750   22.0580 C   0  0  0  0  0  0  0  0  0  0  0  0
   11.0030   -1.4550   23.4090 C   0  0  0  0  0  0  0  0  0  0  0  0
    9.9430   -1.4540   24.3170 C   0  0  0  0  0  0  0  0  0  0  0  0
    8.6510   -1.3520   23.8700 C   0  0  0  0  0  0  0  0  0  0  0  0
    8.4330   -1.2460   22.4930 C   0  0  0  0  0  0  0  0  0  0  0  0
   12.1860    1.1410   22.8090 C   0  0  0  0  0  0  0  0  0  0  0  0
   12.9090    2.3690   22.8120 C   0  0  0  0  0  0  0  0  0  0  0  0
   12.3390    3.6280   23.0980 C   0  0  0  0  0  0  0  0  0  0  0  0
   10.9960    3.6990   23.3980 C   0  0  0  0  0  0  0  0  0  0  0  0
   10.1230    2.4270   23.4130 C   0  0  0  0  0  0  0  0  0  0  0  0
   10.8430    1.1370   23.0950 C   0  0  0  0  0  0  0  0  0  0  0  0
   12.2040   -3.5110   25.1920 C   0  0  0  0  0  0  0  0  0  0  0  0
  2  5  1  0
  7  3  1  6
  3  8  1  0
  6  8  2  0
  8  9  1  0
 10 11  1  0
 11 12  2  3
 14  1  1  6
 13 14  1  0
  7 15  1  0
 10 15  1  0
 13 15  1  0
 14 15  1  0
  4 16  1  0
  5 16  1  0
  7 16  1  0
 15 16  1  0
 13 17  1  1
 16 17  1  0
  4 18  1  0
 20 21  1  0
 21 22  1  0
 23 19  1  1
 22 23  1  0
 23 24  1  0
 24 25  1  0
 20 26  1  0
 25 26  1  0
  1 27  1  0
 21 27  1  6
 29 30  1  0
 28 34  1  0
 28 35  1  0
 33 35  2  0
 36 31  1  6
 35 36  1  0
 37 38  1  0
 37 39  1  0
 37 40  1  0
 32 41  1  0
 32 42  1  0
 32 43  1  0
 44 45  2  0
 45 46  1  0
 46 47  2  0
 36 48  1  0
 47 48  1  0
 44 49  1  0
 48 49  2  0
 50 51  2  0
 37 52  1  0
 51 52  1  0
 52 53  2  0
 53 54  1  0
 31 55  1  0
 50 55  1  0
 54 55  2  0
 56 57  2  0
 30 58  1  0
 57 58  1  0
 32 59  1  0
 58 59  2  0
 34 60  1  0
 59 60  1  0
 56 61  1  0
 60 61  2  0
 19 62  1  0
 40 62  1  0
M  END
