x0978-x2776-x0689
     RDKit          3D

 56 61  0  0  0  0  0  0  0  0999 V2000
    2.1490   -5.6330   23.2300 N   0  0  0  0  0  0  0  0  0  0  0  0
    2.6410   -7.2950   25.2450 C   0  0  0  0  0  0  0  0  0  0  0  0
    4.6960   -7.6770   24.2950 O   0  0  0  0  0  0  0  0  0  0  0  0
    3.9210   -6.7780   24.5820 C   0  0  1  0  0  0  0  0  0  0  0  0
    0.9110   -7.4340   21.8730 O   0  0  0  0  0  0  0  0  0  0  0  0
    3.4910   -6.2490   23.2000 C   0  0  2  0  0  0  0  0  0  0  0  0
    4.0460   -4.0570   23.0490 O   0  0  0  0  0  0  0  0  0  0  0  0
    0.9330   -6.2230   22.6200 C   0  0  0  0  0  0  0  0  0  0  0  0
   -0.2240   -5.4440   22.8560 C   0  0  0  0  0  0  0  0  0  0  0  0
    6.6130   -4.2300   20.0320 C   0  0  0  0  0  0  0  0  0  0  0  0
    5.4170   -3.5530   19.4100 C   0  0  0  0  0  0  0  0  0  0  0  0
    4.8470   -6.3890   26.4480 O   0  0  0  0  0  0  0  0  0  0  0  0
    4.7340   -5.3390   25.4760 S   0  0  0  0  0  0  0  0  0  0  0  0
    7.0050   -0.9370   22.0430 N   0  0  0  0  0  0  0  0  0  0  0  0
    7.8490    2.0990   23.0310 N   0  0  0  0  0  0  0  0  0  0  0  0
    8.7810    1.3180   20.9780 O   0  0  0  0  0  0  0  0  0  0  0  0
   10.9060    6.7480   23.8720 O   0  0  0  0  0  0  0  0  0  0  0  0
    6.7910    0.3640   21.7530 C   0  0  1  0  0  0  0  0  0  0  0  0
   12.4100   -2.7310   25.2120 O   0  0  0  0  0  0  0  0  0  0  0  0
    7.8700    1.2430   21.8620 C   0  0  0  0  0  0  0  0  0  0  0  0
   10.6340    1.8420   23.8550 C   0  0  0  0  0  0  0  0  0  0  0  0
   11.8620    6.7890   24.8540 C   0  0  0  0  0  0  0  0  0  0  0  0
   12.4460   -1.9870   24.0750 C   0  0  2  0  0  0  0  0  0  0  0  0
   12.9040   -0.7050   24.3350 C   0  0  0  0  0  0  0  0  0  0  0  0
   13.6990   -3.0260   25.5800 C   0  0  0  0  0  0  0  0  0  0  0  0
    5.7930   -3.0500   22.0360 C   0  0  0  0  0  0  0  0  0  0  0  0
    6.2590   -1.9470   21.2980 C   0  0  0  0  0  0  0  0  0  0  0  0
    6.4560   -4.3490   21.5330 C   0  0  1  0  0  0  0  0  0  0  0  0
    5.3600   -5.4090   21.5560 C   0  0  0  0  0  0  0  0  0  0  0  0
    4.6400   -5.3310   22.8890 C   0  0  2  0  0  0  0  0  0  0  0  0
    5.4380   -5.4490   23.9400 N   0  0  0  0  0  0  0  0  0  0  0  0
    6.7430   -5.0310   23.7690 C   0  0  0  0  0  0  0  0  0  0  0  0
    7.3740   -4.8240   22.4590 C   0  0  0  0  0  0  0  0  0  0  0  0
    3.9490   -2.3550   25.7710 S   0  0  0  0  0  0  0  0  0  0  0  0
    3.5200   -4.0230   25.4980 C   0  0  0  0  0  0  0  0  0  0  0  0
    2.0990   -4.3080   25.3010 C   0  0  0  0  0  0  0  0  0  0  0  0
    1.5820   -2.8440   25.4450 C   0  0  0  0  0  0  0  0  0  0  0  0
    2.4050   -1.7980   25.6790 C   0  0  0  0  0  0  0  0  0  0  0  0
    6.4170    0.3220   17.9710 N   0  0  0  0  0  0  0  0  0  0  0  0
    5.2150    1.1660   17.7800 C   0  0  0  0  0  0  0  0  0  0  0  0
    4.5610    1.7020   18.8740 C   0  0  0  0  0  0  0  0  0  0  0  0
    5.0330    1.4570   20.1170 C   0  0  0  0  0  0  0  0  0  0  0  0
    6.1690    0.6750   20.3680 C   0  0  0  0  0  0  0  0  0  0  0  0
    6.8790    0.0890   19.3320 C   0  0  0  0  0  0  0  0  0  0  0  0
    9.9900    3.1870   23.6380 C   0  0  0  0  0  0  0  0  0  0  0  0
   10.7100    4.3390   23.8310 C   0  0  0  0  0  0  0  0  0  0  0  0
   10.1460    5.6180   23.6470 C   0  0  0  0  0  0  0  0  0  0  0  0
    8.7670    5.7220   23.2250 C   0  0  0  0  0  0  0  0  0  0  0  0
    7.9810    4.5880   23.0090 C   0  0  0  0  0  0  0  0  0  0  0  0
    8.5400    3.2980   23.2060 C   0  0  0  0  0  0  0  0  0  0  0  0
    9.2710   -1.7470   21.7170 C   0  0  0  0  0  0  0  0  0  0  0  0
   10.7290   -2.0350   22.2280 C   0  0  0  0  0  0  0  0  0  0  0  0
   11.0370   -1.7490   23.5400 C   0  0  0  0  0  0  0  0  0  0  0  0
   10.1140   -1.2270   24.4360 C   0  0  0  0  0  0  0  0  0  0  0  0
    8.6590   -0.9270   23.9670 C   0  0  0  0  0  0  0  0  0  0  0  0
    8.3310   -1.2320   22.5150 C   0  0  0  0  0  0  0  0  0  0  0  0
  4  2  1  1
  4  3  1  0
  6  1  1  1
  4  6  1  0
  1  8  1  0
  5  8  2  0
  8  9  1  0
 10 11  2  3
  4 13  1  0
 12 13  2  0
 14 18  1  0
 15 20  1  0
 16 20  2  0
 18 20  1  6
 17 22  1  0
 19 23  1  0
 23 24  1  1
 19 25  1  0
 14 27  1  0
 26 27  1  0
 28 10  1  6
 26 28  1  0
 28 29  1  0
  6 30  1  0
 30  7  1  1
 29 30  1  0
 13 31  1  0
 30 31  1  0
 31 32  1  0
 28 33  1  0
 32 33  1  0
 13 35  1  0
 34 35  1  0
 35 36  2  0
 36 37  1  0
 34 38  1  0
 37 38  2  0
 39 40  2  0
 40 41  1  0
 41 42  2  0
 18 43  1  0
 42 43  1  0
 39 44  1  0
 43 44  2  0
 21 45  1  0
 45 46  2  0
 17 47  1  0
 46 47  1  0
 47 48  2  0
 48 49  1  0
 15 50  1  0
 45 50  1  0
 49 50  2  0
 51 52  2  0
 23 53  1  0
 52 53  1  0
 53 54  2  0
 54 55  1  0
 14 56  1  0
 51 56  1  0
 55 56  2  0
M  END
