x0978-x3124
     RDKit          3D

 38 39  0  0  0  0  0  0  0  0999 V2000
    1.9950   -5.6410   23.1650 N   0  0  0  0  0  0  0  0  0  0  0  0
    2.1570   -8.1040   24.6150 C   0  0  0  0  0  0  0  0  0  0  0  0
    4.4570   -7.6570   24.6650 O   0  0  0  0  0  0  0  0  0  0  0  0
    3.3520   -7.1610   24.5650 C   0  0  1  0  0  0  0  0  0  0  0  0
    5.6050   -5.7780   22.3100 N   0  0  0  0  0  0  0  0  0  0  0  0
    0.7690   -7.4580   21.8330 O   0  0  0  0  0  0  0  0  0  0  0  0
    3.2700   -6.3660   23.2450 C   0  0  2  0  0  0  0  0  0  0  0  0
    4.3100   -4.1740   23.4840 O   0  0  0  0  0  0  0  0  0  0  0  0
    0.7850   -6.2320   22.5540 C   0  0  0  0  0  0  0  0  0  0  0  0
   -0.3660   -5.4390   22.7630 C   0  0  0  0  0  0  0  0  0  0  0  0
    4.4120   -5.3150   23.0520 C   0  0  0  0  0  0  0  0  0  0  0  0
    6.6110   -4.9450   21.8710 C   0  0  1  0  0  0  0  0  0  0  0  0
    6.4940   -4.8620   20.3490 C   0  0  0  0  0  0  0  0  0  0  0  0
    5.6840   -6.0550   19.9030 C   0  0  0  0  0  0  0  0  0  0  0  0
    7.2440   -1.2370   21.9620 N   0  0  0  0  0  0  0  0  0  0  0  0
    7.7280    1.6290   23.3650 N   0  0  0  0  0  0  0  0  0  0  0  0
    8.4750    1.3550   21.0560 O   0  0  0  0  0  0  0  0  0  0  0  0
    6.7350    0.0130   21.8020 C   0  0  1  0  0  0  0  0  0  0  0  0
    7.7200    1.0200   21.9860 C   0  0  0  0  0  0  0  0  0  0  0  0
    8.7840    2.5950   23.7450 C   0  0  0  0  0  0  0  0  0  0  0  0
   12.4330   -1.7890   24.2100 C   0  0  0  0  0  0  0  0  0  0  0  0
   12.6910   -0.6980   24.9990 C   0  0  0  0  0  0  0  0  0  0  0  0
   13.3840   -1.8030   23.0180 C   0  0  0  0  0  0  0  0  0  0  0  0
   12.8420   -3.0120   25.0100 C   0  0  0  0  0  0  0  0  0  0  0  0
    6.7160   -3.5610   22.6640 C   0  0  0  0  0  0  0  0  0  0  0  0
    6.3420   -2.2460   21.8890 C   0  0  0  0  0  0  0  0  0  0  0  0
    6.2580    0.2240   17.9220 N   0  0  0  0  0  0  0  0  0  0  0  0
    5.1760    1.0230   17.9010 C   0  0  0  0  0  0  0  0  0  0  0  0
    4.5400    1.5130   19.0280 C   0  0  0  0  0  0  0  0  0  0  0  0
    5.0660    1.1590   20.2840 C   0  0  0  0  0  0  0  0  0  0  0  0
    6.2050    0.3330   20.4310 C   0  0  0  0  0  0  0  0  0  0  0  0
    6.7920   -0.1330   19.2720 C   0  0  0  0  0  0  0  0  0  0  0  0
    9.5610   -2.0170   21.8260 C   0  0  0  0  0  0  0  0  0  0  0  0
   10.8180   -2.1540   22.3590 C   0  0  0  0  0  0  0  0  0  0  0  0
   11.0460   -1.6950   23.6310 C   0  0  0  0  0  0  0  0  0  0  0  0
    9.9770   -1.1340   24.3300 C   0  0  0  0  0  0  0  0  0  0  0  0
    8.7380   -0.9920   23.8150 C   0  0  0  0  0  0  0  0  0  0  0  0
    8.5160   -1.4320   22.5100 C   0  0  0  0  0  0  0  0  0  0  0  0
  4  2  1  6
  3  4  1  0
  7  1  1  1
  4  7  1  0
  1  9  1  0
  6  9  2  0
  9 10  1  0
  5 11  1  0
  7 11  1  0
  8 11  2  0
  5 12  1  0
 12 13  1  6
 13 14  2  3
 15 18  1  0
 16 19  1  0
 17 19  2  0
 18 19  1  6
 16 20  1  0
 21 22  1  0
 21 23  1  0
 21 24  1  0
 12 25  1  0
 15 26  1  0
 25 26  1  0
 27 28  2  0
 28 29  1  0
 29 30  2  0
 18 31  1  0
 30 31  1  0
 27 32  1  0
 31 32  2  0
 33 34  2  0
 21 35  1  0
 34 35  1  0
 35 36  2  0
 36 37  1  0
 15 38  1  0
 33 38  1  0
 37 38  2  0
M  END
