x0978-x2705-x1358
     RDKit          3D

 58 63  0  0  0  0  0  0  0  0999 V2000
    2.0020   -5.5660   23.3850 N   0  0  0  0  0  0  0  0  0  0  0  0
    2.1070   -8.1110   24.2090 C   0  0  0  0  0  0  0  0  0  0  0  0
    4.3710   -7.7590   24.6870 O   0  0  0  0  0  0  0  0  0  0  0  0
    3.2940   -7.2320   24.4900 C   0  0  1  0  0  0  0  0  0  0  0  0
    4.8260   -5.1390   21.7330 N   0  0  0  0  0  0  0  0  0  0  0  0
    1.0270   -7.2690   22.0210 O   0  0  0  0  0  0  0  0  0  0  0  0
    3.1270   -6.5190   23.3300 C   0  0  2  0  0  0  0  0  0  0  0  0
    5.3670   -5.4380   23.9430 N   0  0  0  0  0  0  0  0  0  0  0  0
    0.8800   -6.2010   22.6090 C   0  0  0  0  0  0  0  0  0  0  0  0
   -0.4480   -5.4510   22.5900 C   0  0  0  0  0  0  0  0  0  0  0  0
    4.4090   -5.7220   23.0260 C   0  0  0  0  0  0  0  0  0  0  0  0
    6.7420   -5.0210   20.4040 C   0  0  0  0  0  0  0  0  0  0  0  0
    5.9290   -6.1270   19.8500 C   0  0  0  0  0  0  0  0  0  0  0  0
    7.8940   -1.0710   21.6850 N   0  0  0  0  0  0  0  0  0  0  0  0
    7.4850    2.2530   22.7810 N   0  0  0  0  0  0  0  0  0  0  0  0
    8.9400    1.4150   21.1040 O   0  0  0  0  0  0  0  0  0  0  0  0
    7.2160    0.1050   21.6510 C   0  0  1  0  0  0  0  0  0  0  0  0
    7.9570    1.2890   21.8190 C   0  0  0  0  0  0  0  0  0  0  0  0
   10.1740    2.2180   23.9480 C   0  0  0  0  0  0  0  0  0  0  0  0
    9.3110    1.4660   24.7350 C   0  0  0  0  0  0  0  0  0  0  0  0
    6.2140    4.5390   21.9230 C   0  0  0  0  0  0  0  0  0  0  0  0
   12.6050   -1.4630   23.2790 C   0  0  0  0  0  0  0  0  0  0  0  0
   13.0660   -0.1860   23.5590 C   0  0  0  0  0  0  0  0  0  0  0  0
   12.9430   -2.4390   24.3720 C   0  0  0  0  0  0  0  0  0  0  0  0
   13.0220   -1.9050   22.0450 C   0  0  0  0  0  0  0  0  0  0  0  0
    6.8670   -2.4970   26.0800 N   0  0  0  0  0  0  0  0  0  0  0  0
    5.4490   -0.3120   25.3840 O   0  0  0  0  0  0  0  0  0  0  0  0
    4.8870   -3.9510   26.0730 O   0  0  0  0  0  0  0  0  0  0  0  0
    5.9500   -3.2560   25.4590 C   0  0  0  0  0  0  0  0  0  0  0  0
    6.3250    0.1790   17.8860 N   0  0  0  0  0  0  0  0  0  0  0  0
    5.1270    1.0350   17.7770 C   0  0  0  0  0  0  0  0  0  0  0  0
    4.6570    1.5310   19.0150 C   0  0  0  0  0  0  0  0  0  0  0  0
    5.2810    1.2630   20.3800 C   0  0  0  0  0  0  0  0  0  0  0  0
    6.5020    0.3910   20.3440 C   0  0  0  0  0  0  0  0  0  0  0  0
    6.9580   -0.1260   19.0240 C   0  0  0  0  0  0  0  0  0  0  0  0
   10.3170   -1.0190   24.2720 N   0  0  0  0  0  0  0  0  0  0  0  0
    9.0220   -0.8930   23.9120 N   0  0  0  0  0  0  0  0  0  0  0  0
    9.0000   -1.0780   22.5910 C   0  0  0  0  0  0  0  0  0  0  0  0
   10.3780   -1.3400   22.1210 C   0  0  0  0  0  0  0  0  0  0  0  0
   11.1670   -1.2860   23.2310 C   0  0  0  0  0  0  0  0  0  0  0  0
    9.4700    3.4840   23.4880 C   0  0  0  0  0  0  0  0  0  0  0  0
   10.1720    4.6820   23.6410 C   0  0  0  0  0  0  0  0  0  0  0  0
    9.6060    5.9050   23.2380 C   0  0  0  0  0  0  0  0  0  0  0  0
    8.3270    5.9430   22.6730 C   0  0  0  0  0  0  0  0  0  0  0  0
    7.5790    4.6280   22.5150 C   0  0  0  0  0  0  0  0  0  0  0  0
    8.1890    3.4600   22.9350 C   0  0  0  0  0  0  0  0  0  0  0  0
    5.9670   -0.3410   26.6550 C   0  0  0  0  0  0  0  0  0  0  0  0
    6.7150   -1.4830   27.0630 C   0  0  0  0  0  0  0  0  0  0  0  0
    7.2810   -1.6020   28.3550 C   0  0  0  0  0  0  0  0  0  0  0  0
    7.1300   -0.5890   29.2820 C   0  0  0  0  0  0  0  0  0  0  0  0
    6.3490    0.6530   28.9050 C   0  0  0  0  0  0  0  0  0  0  0  0
    5.7460    0.7500   27.5080 C   0  0  0  0  0  0  0  0  0  0  0  0
    6.0410   -2.9180   21.4150 N   0  0  0  0  0  0  0  0  0  0  0  0
    7.1830   -2.2760   22.0240 C   0  0  2  0  0  0  0  0  0  0  0  0
    7.0900   -2.2860   23.5180 C   0  0  0  0  0  0  0  0  0  0  0  0
    6.1140   -3.2960   23.9440 C   0  0  1  0  0  0  0  0  0  0  0  0
    6.3430   -4.6260   23.1980 C   0  0  2  0  0  0  0  0  0  0  0  0
    6.0310   -4.3580   21.6800 C   0  0  1  0  0  0  0  0  0  0  0  0
  4  2  1  6
  3  4  1  0
  7  1  1  1
  4  7  1  0
  1  9  1  0
  6  9  2  0
  9 10  1  0
  5 11  1  0
  7 11  1  0
  8 11  2  0
 12 13  2  3
 14 17  1  0
 15 18  1  0
 16 18  2  0
 17 18  1  6
 19 20  1  0
 22 23  1  0
 22 24  1  0
 22 25  1  0
 26 29  1  0
 28 29  2  0
 30 31  2  0
 31 32  1  0
 32 33  2  0
 17 34  1  0
 33 34  1  0
 30 35  1  0
 34 35  2  0
 36 37  1  0
 14 38  1  0
 37 38  2  0
 38 39  1  0
 22 40  1  0
 36 40  1  0
 39 40  2  0
 19 41  1  0
 41 42  2  0
 42 43  1  0
 43 44  2  0
 21 45  1  0
 44 45  1  0
 15 46  1  0
 41 46  1  0
 45 46  2  0
 27 47  1  0
 26 48  1  0
 47 48  2  0
 48 49  1  0
 49 50  2  0
 50 51  1  0
 47 52  1  0
 51 52  2  0
 54 14  1  6
 53 54  1  0
 54 55  1  0
 56 29  1  1
 55 56  1  0
 57  8  1  1
 56 57  1  0
  5 58  1  0
 58 12  1  6
 53 58  1  0
 57 58  1  0
M  END
