x0981-x3124-x2754
     RDKit          3D

 51 55  0  0  0  0  0  0  0  0999 V2000
    1.2100   -8.6890   21.3870 C   0  0  0  0  0  0  0  0  0  0  0  0
    2.6880   -7.2600   22.9050 N   0  0  0  0  0  0  0  0  0  0  0  0
    0.6260   -6.5840   22.2050 O   0  0  0  0  0  0  0  0  0  0  0  0
    1.5140   -7.4440   22.2120 C   0  0  0  0  0  0  0  0  0  0  0  0
    2.6810   -8.1210   26.4830 N   0  0  0  0  0  0  0  0  0  0  0  0
    3.9000   -8.2780   24.5730 O   0  0  0  0  0  0  0  0  0  0  0  0
    3.1960   -6.0000   23.5700 C   0  0  1  0  0  0  0  0  0  0  0  0
    4.7770   -5.4660   21.6100 N   0  0  0  0  0  0  0  0  0  0  0  0
    3.2510   -6.1410   25.1260 C   0  0  0  0  0  0  0  0  0  0  0  0
    3.3030   -7.6040   25.3810 C   0  0  0  0  0  0  0  0  0  0  0  0
    4.4120   -5.3170   22.8770 C   0  0  0  0  0  0  0  0  0  0  0  0
    6.7000   -5.1500   20.5020 C   0  0  0  0  0  0  0  0  0  0  0  0
    5.9520   -6.0530   19.9350 C   0  0  0  0  0  0  0  0  0  0  0  0
    7.3420   -1.3180   21.7700 N   0  0  0  0  0  0  0  0  0  0  0  0
    7.8700    1.6610   23.3640 N   0  0  0  0  0  0  0  0  0  0  0  0
    8.6630    1.5180   21.0970 O   0  0  0  0  0  0  0  0  0  0  0  0
    6.8130   -0.0180   21.7040 C   0  0  1  0  0  0  0  0  0  0  0  0
    7.8850    1.0990   21.9810 C   0  0  0  0  0  0  0  0  0  0  0  0
    8.1590    3.0510   23.5350 C   0  0  0  0  0  0  0  0  0  0  0  0
   12.5190   -1.8990   24.3240 C   0  0  0  0  0  0  0  0  0  0  0  0
   12.7330   -0.6320   25.0060 C   0  0  0  0  0  0  0  0  0  0  0  0
   13.4720   -2.0660   23.1700 C   0  0  0  0  0  0  0  0  0  0  0  0
   12.8560   -3.0380   25.2960 C   0  0  0  0  0  0  0  0  0  0  0  0
    5.0000   -3.3420   25.2290 C   0  0  0  0  0  0  0  0  0  0  0  0
    3.7880   -3.1960   25.0560 O   0  0  0  0  0  0  0  0  0  0  0  0
    5.5520   -3.2340   26.5110 N   0  0  0  0  0  0  0  0  0  0  0  0
    5.0920   -2.1560   27.3860 C   0  0  0  0  0  0  0  0  0  0  0  0
    6.3170    0.2870   17.8580 N   0  0  0  0  0  0  0  0  0  0  0  0
    5.2170    1.0520   17.8700 C   0  0  0  0  0  0  0  0  0  0  0  0
    4.5960    1.4720   19.0100 C   0  0  0  0  0  0  0  0  0  0  0  0
    5.0590    1.1480   20.2690 C   0  0  0  0  0  0  0  0  0  0  0  0
    6.2150    0.3580   20.3240 C   0  0  0  0  0  0  0  0  0  0  0  0
    6.7730   -0.0310   19.0970 C   0  0  0  0  0  0  0  0  0  0  0  0
    9.5480   -1.9940   21.7260 C   0  0  0  0  0  0  0  0  0  0  0  0
   10.9570   -2.2120   22.2680 C   0  0  0  0  0  0  0  0  0  0  0  0
   11.1580   -1.7560   23.7030 C   0  0  0  0  0  0  0  0  0  0  0  0
   10.1100   -1.1940   24.4300 C   0  0  0  0  0  0  0  0  0  0  0  0
    8.7490   -1.0210   23.7750 C   0  0  0  0  0  0  0  0  0  0  0  0
    8.5390   -1.4210   22.4700 C   0  0  0  0  0  0  0  0  0  0  0  0
    5.5920   -3.1360   21.3280 N   0  0  0  0  0  0  0  0  0  0  0  0
    6.5480   -2.4810   22.1980 C   0  0  2  0  0  0  0  0  0  0  0  0
    6.2010   -2.3490   23.5200 C   0  0  0  0  0  0  0  0  0  0  0  0
    5.9820   -3.6260   24.0660 C   0  0  2  0  0  0  0  0  0  0  0  0
    5.4230   -4.4580   23.0700 C   0  0  0  0  0  0  0  0  0  0  0  0
    5.8390   -4.4940   21.6360 C   0  0  1  0  0  0  0  0  0  0  0  0
    7.3490   -4.7770   27.4900 C   0  0  0  0  0  0  0  0  0  0  0  0
    8.5580   -5.3400   27.7880 C   0  0  0  0  0  0  0  0  0  0  0  0
    9.6030   -4.6720   27.1910 C   0  0  0  0  0  0  0  0  0  0  0  0
    9.2770   -3.5630   26.4060 C   0  0  0  0  0  0  0  0  0  0  0  0
    7.9760   -3.0600   26.1660 C   0  0  0  0  0  0  0  0  0  0  0  0
    6.9220   -3.6650   26.7120 C   0  0  0  0  0  0  0  0  0  0  0  0
  1  4  1  0
  2  4  1  0
  3  4  2  0
  2  7  1  0
  7  9  1  1
  5 10  1  0
  6 10  2  0
  9 10  1  0
  7 11  1  0
  8 11  1  0
 12 13  2  3
 14 17  1  0
 15 18  1  0
 16 18  2  0
 17 18  1  6
 15 19  1  0
 20 21  1  0
 20 22  1  0
 20 23  1  0
 24 25  2  0
 24 26  1  0
 26 27  1  0
 28 29  2  0
 29 30  1  0
 30 31  2  0
 17 32  1  0
 31 32  1  0
 28 33  1  0
 32 33  2  0
 34 35  2  0
 20 36  1  0
 35 36  1  0
 36 37  2  0
 37 38  1  0
 14 39  1  0
 34 39  1  0
 38 39  2  0
 41 14  1  6
 40 41  1  0
 41 42  1  0
 43 24  1  1
 42 43  1  0
 11 44  2  0
 43 44  1  0
  8 45  1  0
 45 12  1  1
 40 45  1  0
 44 45  1  0
 46 47  2  0
 47 48  1  0
 48 49  2  0
 49 50  1  0
 26 51  1  0
 46 51  1  0
 50 51  2  0
M  END
