x0981-x1493-x2705
     RDKit          3D

 52 55  0  0  0  0  0  0  0  0999 V2000
    1.3290   -8.5510   21.6350 C   0  0  0  0  0  0  0  0  0  0  0  0
    2.9870   -6.9310   22.7490 N   0  0  0  0  0  0  0  0  0  0  0  0
    0.5180   -6.2820   22.4120 O   0  0  0  0  0  0  0  0  0  0  0  0
    1.5990   -7.2000   22.2990 C   0  0  0  0  0  0  0  0  0  0  0  0
    2.3790   -8.2280   26.5190 N   0  0  0  0  0  0  0  0  0  0  0  0
    3.9690   -8.2840   24.5330 O   0  0  0  0  0  0  0  0  0  0  0  0
    3.3460   -5.8560   23.7020 C   0  0  1  0  0  0  0  0  0  0  0  0
    4.6060   -3.7780   23.8070 O   0  0  0  0  0  0  0  0  0  0  0  0
    2.8290   -6.2710   25.0840 C   0  0  0  0  0  0  0  0  0  0  0  0
    3.0670   -7.6050   25.3720 C   0  0  0  0  0  0  0  0  0  0  0  0
    6.7300   -5.0970   20.3090 C   0  0  0  0  0  0  0  0  0  0  0  0
    5.7770   -6.1730   19.8430 C   0  0  0  0  0  0  0  0  0  0  0  0
    7.5400   -0.9330   21.9840 N   0  0  0  0  0  0  0  0  0  0  0  0
    7.4760    2.3620   22.9170 N   0  0  0  0  0  0  0  0  0  0  0  0
    8.7340    1.5730   21.0810 O   0  0  0  0  0  0  0  0  0  0  0  0
    6.9990    0.2810   21.7450 C   0  0  1  0  0  0  0  0  0  0  0  0
    7.7950    1.4060   21.8610 C   0  0  0  0  0  0  0  0  0  0  0  0
   10.1530    2.2030   23.9950 C   0  0  0  0  0  0  0  0  0  0  0  0
    9.2640    1.5220   24.8370 C   0  0  0  0  0  0  0  0  0  0  0  0
    6.2600    4.7690   21.9590 C   0  0  0  0  0  0  0  0  0  0  0  0
   12.3560   -1.3990   23.2630 C   0  0  0  0  0  0  0  0  0  0  0  0
   12.8470   -0.1850   23.7420 C   0  0  0  0  0  0  0  0  0  0  0  0
   12.7810   -2.4820   24.2750 C   0  0  0  0  0  0  0  0  0  0  0  0
   12.8470   -1.8770   21.8820 C   0  0  0  0  0  0  0  0  0  0  0  0
    6.1980   -3.0550   21.7610 C   0  0  0  0  0  0  0  0  0  0  0  0
    7.1940   -2.1680   21.3250 C   0  0  0  0  0  0  0  0  0  0  0  0
    4.9040   -6.1740   26.5100 C   0  0  0  0  0  0  0  0  0  0  0  0
    7.3010   -5.5260   26.5330 O   0  0  0  0  0  0  0  0  0  0  0  0
    6.1170   -5.6700   25.7680 C   0  0  0  0  0  0  0  0  0  0  0  0
    6.3740    0.0510   17.9210 N   0  0  0  0  0  0  0  0  0  0  0  0
    5.2740    0.8000   17.9160 C   0  0  0  0  0  0  0  0  0  0  0  0
    4.5730    1.4600   19.0740 C   0  0  0  0  0  0  0  0  0  0  0  0
    5.2010    1.2420   20.3500 C   0  0  0  0  0  0  0  0  0  0  0  0
    6.3570    0.4660   20.3780 C   0  0  0  0  0  0  0  0  0  0  0  0
    6.9340   -0.1370   19.1190 C   0  0  0  0  0  0  0  0  0  0  0  0
   10.0390   -1.1270   24.5090 N   0  0  0  0  0  0  0  0  0  0  0  0
    8.7550   -1.0100   24.0480 N   0  0  0  0  0  0  0  0  0  0  0  0
    8.7100   -1.0430   22.7140 C   0  0  0  0  0  0  0  0  0  0  0  0
   10.0750   -1.2080   22.1410 C   0  0  0  0  0  0  0  0  0  0  0  0
   10.8940   -1.2580   23.2480 C   0  0  0  0  0  0  0  0  0  0  0  0
    9.5230    3.4940   23.5180 C   0  0  0  0  0  0  0  0  0  0  0  0
   10.2520    4.6920   23.5980 C   0  0  0  0  0  0  0  0  0  0  0  0
    9.6770    5.8970   23.1480 C   0  0  0  0  0  0  0  0  0  0  0  0
    8.3850    5.9000   22.6220 C   0  0  0  0  0  0  0  0  0  0  0  0
    7.6540    4.7130   22.5410 C   0  0  0  0  0  0  0  0  0  0  0  0
    8.2260    3.5410   22.9910 C   0  0  0  0  0  0  0  0  0  0  0  0
    6.0570   -5.4120   24.4210 N   0  0  0  0  0  0  0  0  0  0  0  0
    7.2530   -4.6910   23.8850 C   0  0  0  0  0  0  0  0  0  0  0  0
    7.5690   -4.9510   22.5530 C   0  0  0  0  0  0  0  0  0  0  0  0
    6.4980   -4.6100   21.7750 C   0  0  2  0  0  0  0  0  0  0  0  0
    5.3580   -5.2960   22.1520 C   0  0  0  0  0  0  0  0  0  0  0  0
    4.8250   -5.1510   23.5580 C   0  0  1  0  0  0  0  0  0  0  0  0
  1  4  1  0
  2  4  1  0
  3  4  2  0
  2  7  1  0
  7  9  1  1
  5 10  1  0
  6 10  2  0
  9 10  1  0
 11 12  2  3
 13 16  1  0
 14 17  1  0
 15 17  2  0
 16 17  1  6
 18 19  1  0
 21 22  1  0
 21 23  1  0
 21 24  1  0
 13 26  1  0
 25 26  1  0
 27 29  1  0
 28 29  2  0
 30 31  2  0
 31 32  1  0
 32 33  2  0
 16 34  1  0
 33 34  1  0
 30 35  1  0
 34 35  2  0
 36 37  1  0
 13 38  1  0
 37 38  1  0
 38 39  2  0
 21 40  1  0
 36 40  2  0
 39 40  1  0
 18 41  1  0
 41 42  2  0
 42 43  1  0
 43 44  2  0
 20 45  1  0
 44 45  1  0
 14 46  1  0
 41 46  1  0
 45 46  2  0
 29 47  1  0
 47 48  1  0
 48 49  1  0
 50 11  1  6
 25 50  1  0
 49 50  1  0
 50 51  1  0
  7 52  1  0
 52  8  1  6
 47 52  1  0
 51 52  1  0
M  END
