x0981-x3077
     RDKit          3D

 30 32  0  0  0  0  0  0  0  0999 V2000
    1.2180   -8.6910   21.4330 C   0  0  0  0  0  0  0  0  0  0  0  0
    2.8000   -7.0710   22.7430 N   0  0  0  0  0  0  0  0  0  0  0  0
    0.3010   -6.5300   22.2010 O   0  0  0  0  0  0  0  0  0  0  0  0
    1.4590   -7.3680   22.1790 C   0  0  0  0  0  0  0  0  0  0  0  0
    2.5020   -8.2330   26.4420 N   0  0  0  0  0  0  0  0  0  0  0  0
    3.9810   -8.2160   24.5890 O   0  0  0  0  0  0  0  0  0  0  0  0
    3.0410   -5.8530   23.5460 C   0  0  1  0  0  0  0  0  0  0  0  0
    4.8860   -4.8800   22.1590 N   0  0  0  0  0  0  0  0  0  0  0  0
    5.2420   -5.2300   24.3460 O   0  0  0  0  0  0  0  0  0  0  0  0
    2.7700   -6.1890   24.8710 C   0  0  0  0  0  0  0  0  0  0  0  0
    3.1610   -7.6190   25.2480 C   0  0  0  0  0  0  0  0  0  0  0  0
    4.4950   -5.3070   23.3790 C   0  0  0  0  0  0  0  0  0  0  0  0
    6.3170   -5.1560   21.7460 C   0  0  1  0  0  0  0  0  0  0  0  0
    6.3570   -5.2180   20.2620 C   0  0  0  0  0  0  0  0  0  0  0  0
    5.7020   -6.2490   19.7880 C   0  0  0  0  0  0  0  0  0  0  0  0
   13.2530   -1.9490   21.1870 Cl  0  0  0  0  0  0  0  0  0  0  0  0
    9.2960   -1.7070   24.5900 C   0  0  0  0  0  0  0  0  0  0  0  0
    7.2470   -4.1470   22.2090 N   0  0  0  0  0  0  0  0  0  0  0  0
    7.6370   -4.4220   23.4710 C   0  0  0  0  0  0  0  0  0  0  0  0
    7.4390   -3.3290   24.2580 C   0  0  2  0  0  0  0  0  0  0  0  0
    6.3470   -2.6810   23.7720 C   0  0  0  0  0  0  0  0  0  0  0  0
    6.7740   -2.7450   22.4840 C   0  0  1  0  0  0  0  0  0  0  0  0
    8.5430   -2.5010   23.7480 N   0  0  0  0  0  0  0  0  0  0  0  0
    7.9750   -2.0100   22.4470 C   0  0  0  0  0  0  0  0  0  0  0  0
   10.8720    0.2010   24.3530 C   0  0  0  0  0  0  0  0  0  0  0  0
   12.0850    0.8630   23.7280 C   0  0  0  0  0  0  0  0  0  0  0  0
   12.7470    0.1350   22.7860 C   0  0  0  0  0  0  0  0  0  0  0  0
   12.3710   -1.1270   22.3840 C   0  0  0  0  0  0  0  0  0  0  0  0
   11.2620   -1.7630   22.9390 C   0  0  0  0  0  0  0  0  0  0  0  0
   10.5150   -1.0830   23.9340 C   0  0  0  0  0  0  0  0  0  0  0  0
  1  4  1  0
  2  4  1  0
  3  4  2  0
  2  7  1  0
  7 10  1  1
  5 11  1  0
  6 11  2  0
 10 11  1  0
  7 12  1  0
  8 12  1  0
  9 12  2  0
  8 13  1  0
 13 14  1  6
 14 15  2  3
 13 18  1  0
 18 19  1  0
 20 19  1  6
 20 21  1  0
 18 22  1  0
 21 22  1  0
 17 23  1  0
 20 23  1  0
 22 24  1  1
 23 24  1  0
 25 26  2  0
 26 27  1  0
 16 28  1  0
 27 28  2  0
 28 29  1  0
 17 30  1  0
 25 30  1  0
 29 30  2  0
M  END
