x0981-x3110-x2052
     RDKit          3D

 59 63  0  0  0  0  0  0  0  0999 V2000
    8.1740    0.8710   23.1290 N   0  0  0  0  0  0  0  0  0  0  0  0
   13.3960    5.1610   22.8520 C   0  0  0  0  0  0  0  0  0  0  0  0
   12.0250    3.3620   22.4420 O   0  0  0  0  0  0  0  0  0  0  0  0
   12.3200    4.4610   21.9760 C   0  0  0  0  0  0  0  0  0  0  0  0
   10.8830    4.3510   24.1660 O   0  0  0  0  0  0  0  0  0  0  0  0
   11.1140    3.3850   23.4510 C   0  0  0  0  0  0  0  0  0  0  0  0
    8.6800    1.4690   21.0160 O   0  0  0  0  0  0  0  0  0  0  0  0
   10.4170    1.9960   23.5420 C   0  0  0  0  0  0  0  0  0  0  0  0
    8.9030    2.0120   23.6860 C   0  0  0  0  0  0  0  0  0  0  0  0
    8.1290    0.6480   21.7730 C   0  0  0  0  0  0  0  0  0  0  0  0
    7.3690   -0.5980   21.1780 C   0  0  2  0  0  0  0  0  0  0  0  0
   12.5470   -1.8840   24.2720 C   0  0  0  0  0  0  0  0  0  0  0  0
   12.6850   -0.5310   24.9360 C   0  0  0  0  0  0  0  0  0  0  0  0
   13.4930   -2.0370   23.0860 C   0  0  0  0  0  0  0  0  0  0  0  0
   12.9450   -2.9350   25.2470 C   0  0  0  0  0  0  0  0  0  0  0  0
    1.2940   -8.5120   21.6430 C   0  0  0  0  0  0  0  0  0  0  0  0
    2.7660   -6.8790   22.7670 N   0  0  0  0  0  0  0  0  0  0  0  0
    0.5680   -6.3570   22.3690 O   0  0  0  0  0  0  0  0  0  0  0  0
    1.4890   -7.1620   22.2910 C   0  0  0  0  0  0  0  0  0  0  0  0
    2.4960   -8.2270   26.3990 N   0  0  0  0  0  0  0  0  0  0  0  0
    4.0360   -8.1880   24.5630 O   0  0  0  0  0  0  0  0  0  0  0  0
    3.0630   -5.6890   23.6200 C   0  0  1  0  0  0  0  0  0  0  0  0
    4.8790   -5.0020   21.9940 N   0  0  0  0  0  0  0  0  0  0  0  0
    5.0880   -4.4300   24.2930 N   0  0  0  0  0  0  0  0  0  0  0  0
    2.9360   -6.0940   25.0800 C   0  0  0  0  0  0  0  0  0  0  0  0
    3.2480   -7.6080   25.2740 C   0  0  0  0  0  0  0  0  0  0  0  0
    4.4700   -4.9760   23.3000 C   0  0  0  0  0  0  0  0  0  0  0  0
    6.1780   -4.5020   21.5140 C   0  0  1  0  0  0  0  0  0  0  0  0
    6.3240   -4.8480   20.0630 C   0  0  0  0  0  0  0  0  0  0  0  0
    5.8160   -6.0630   19.8380 C   0  0  0  0  0  0  0  0  0  0  0  0
    5.5510   -1.6530   25.4520 C   0  0  0  0  0  0  0  0  0  0  0  0
    4.3530   -1.8290   25.6100 O   0  0  0  0  0  0  0  0  0  0  0  0
    6.3840   -0.8850   26.2020 N   0  0  0  0  0  0  0  0  0  0  0  0
    5.4190    2.3210   30.7210 O   0  0  0  0  0  0  0  0  0  0  0  0
    6.3030    3.4350   30.7180 C   0  0  0  0  0  0  0  0  0  0  0  0
    6.2260    0.3600   17.7140 N   0  0  0  0  0  0  0  0  0  0  0  0
    5.1290    1.0740   17.9590 C   0  0  0  0  0  0  0  0  0  0  0  0
    4.6400    1.2980   19.2250 C   0  0  0  0  0  0  0  0  0  0  0  0
    5.3450    0.7520   20.2920 C   0  0  0  0  0  0  0  0  0  0  0  0
    6.5150    0.0010   20.0670 C   0  0  0  0  0  0  0  0  0  0  0  0
    6.8870   -0.1570   18.7590 C   0  0  0  0  0  0  0  0  0  0  0  0
    9.5920   -2.0530   21.9710 C   0  0  0  0  0  0  0  0  0  0  0  0
   10.9130   -2.0660   22.3940 C   0  0  0  0  0  0  0  0  0  0  0  0
   11.1430   -1.8850   23.7530 C   0  0  0  0  0  0  0  0  0  0  0  0
   10.1000   -1.6930   24.6330 C   0  0  0  0  0  0  0  0  0  0  0  0
    8.8000   -1.6820   24.1820 C   0  0  0  0  0  0  0  0  0  0  0  0
    8.5150   -1.8670   22.8330 C   0  0  0  0  0  0  0  0  0  0  0  0
    7.0960   -3.4640   22.0510 N   0  0  0  0  0  0  0  0  0  0  0  0
    7.0640   -1.9050   22.1990 C   0  0  2  0  0  0  0  0  0  0  0  0
    6.1300   -1.6230   23.1410 C   0  0  0  0  0  0  0  0  0  0  0  0
    6.2880   -2.3010   24.3190 C   0  0  2  0  0  0  0  0  0  0  0  0
    6.3900   -3.7010   24.3590 C   0  0  2  0  0  0  0  0  0  0  0  0
    7.2820   -4.1360   23.3750 C   0  0  0  0  0  0  0  0  0  0  0  0
    6.2030    1.9700   28.5140 N   0  0  0  0  0  0  0  0  0  0  0  0
    6.4090    1.1430   27.4460 C   0  0  0  0  0  0  0  0  0  0  0  0
    6.0900   -0.2030   27.3740 C   0  0  0  0  0  0  0  0  0  0  0  0
    5.4480   -0.7690   28.6240 C   0  0  0  0  0  0  0  0  0  0  0  0
    5.2140    0.1630   29.8220 C   0  0  0  0  0  0  0  0  0  0  0  0
    5.6250    1.4780   29.6490 C   0  0  0  0  0  0  0  0  0  0  0  0
  2  4  1  0
  3  4  1  0
  3  6  1  0
  5  6  2  0
  6  8  1  0
  1  9  1  0
  8  9  1  0
  1 10  1  0
  7 10  2  0
 11 10  1  1
 12 13  1  0
 12 14  1  0
 12 15  1  0
 16 19  1  0
 17 19  1  0
 18 19  2  0
 17 22  1  0
 22 25  1  1
 20 26  1  0
 21 26  2  0
 25 26  1  0
 22 27  1  0
 23 27  1  0
 24 27  2  0
 23 28  1  0
 28 29  1  6
 29 30  2  3
 31 32  2  0
 31 33  1  0
 34 35  1  0
 36 37  2  0
 37 38  1  0
 38 39  2  0
 11 40  1  0
 39 40  1  0
 36 41  1  0
 40 41  2  0
 42 43  2  0
 12 44  1  0
 43 44  1  0
 44 45  2  0
 45 46  1  0
 42 47  1  0
 46 47  2  0
 28 48  1  0
 11 49  1  0
 49 47  1  1
 48 49  1  0
 49 50  1  0
 51 31  1  1
 50 51  1  0
 52 24  1  6
 51 52  1  0
 48 53  1  0
 52 53  1  0
 54 55  2  0
 33 56  1  0
 55 56  1  0
 56 57  2  0
 57 58  1  0
 34 59  1  0
 54 59  1  0
 58 59  2  0
M  END
