x0981-x1493-x3115-x3110-x1077
     RDKit          3D

 60 65  0  0  0  0  0  0  0  0999 V2000
    7.9590    1.5530   23.3260 N   0  0  0  0  0  0  0  0  0  0  0  0
   13.4670    5.2270   22.6610 C   0  0  0  0  0  0  0  0  0  0  0  0
   12.0280    3.4610   22.4430 O   0  0  0  0  0  0  0  0  0  0  0  0
   12.3240    4.5130   21.8930 C   0  0  0  0  0  0  0  0  0  0  0  0
    7.4360   -1.4850   22.1020 N   0  0  0  0  0  0  0  0  0  0  0  0
   11.2190    4.5750   24.2650 O   0  0  0  0  0  0  0  0  0  0  0  0
   11.2130    3.6100   23.5120 C   0  0  0  0  0  0  0  0  0  0  0  0
    8.6430    1.4740   21.1410 O   0  0  0  0  0  0  0  0  0  0  0  0
   10.2830    2.3790   23.6100 C   0  0  0  0  0  0  0  0  0  0  0  0
    8.7970    2.6940   23.6230 C   0  0  1  0  0  0  0  0  0  0  0  0
    7.9210    1.0370   22.0590 C   0  0  0  0  0  0  0  0  0  0  0  0
    6.9110   -0.1050   21.7990 C   0  0  1  0  0  0  0  0  0  0  0  0
   12.6820   -1.9220   24.2790 C   0  0  0  0  0  0  0  0  0  0  0  0
   12.7880   -0.5660   24.9310 C   0  0  0  0  0  0  0  0  0  0  0  0
   13.5630   -2.0830   23.0670 C   0  0  0  0  0  0  0  0  0  0  0  0
   13.0410   -2.9720   25.2700 C   0  0  0  0  0  0  0  0  0  0  0  0
    8.6260    5.1690   23.1170 O   0  0  0  0  0  0  0  0  0  0  0  0
    8.4480    3.8310   22.6180 C   0  0  0  0  0  0  0  0  0  0  0  0
    8.2730    6.0750   22.3540 C   0  0  0  0  0  0  0  0  0  0  0  0
    6.3630    0.1650   17.8960 N   0  0  0  0  0  0  0  0  0  0  0  0
    5.2960    0.9810   17.8550 C   0  0  0  0  0  0  0  0  0  0  0  0
    4.5530    1.5710   19.0020 C   0  0  0  0  0  0  0  0  0  0  0  0
    5.1330    1.1650   20.3740 C   0  0  0  0  0  0  0  0  0  0  0  0
    6.3400    0.2540   20.4520 C   0  0  0  0  0  0  0  0  0  0  0  0
    6.9680   -0.2660   19.1780 C   0  0  0  0  0  0  0  0  0  0  0  0
    9.7610   -1.2160   21.9250 C   0  0  0  0  0  0  0  0  0  0  0  0
   11.1460   -1.3260   22.4780 C   0  0  0  0  0  0  0  0  0  0  0  0
   11.3240   -1.8520   23.7220 C   0  0  0  0  0  0  0  0  0  0  0  0
   10.3060   -2.2790   24.4280 C   0  0  0  0  0  0  0  0  0  0  0  0
    9.0180   -2.2180   23.9760 C   0  0  0  0  0  0  0  0  0  0  0  0
    8.6910   -1.6550   22.6840 C   0  0  0  0  0  0  0  0  0  0  0  0
    1.2810   -8.5480   21.6120 C   0  0  0  0  0  0  0  0  0  0  0  0
    2.8160   -7.1440   22.7530 N   0  0  0  0  0  0  0  0  0  0  0  0
    0.6630   -6.4530   22.3430 O   0  0  0  0  0  0  0  0  0  0  0  0
    1.5320   -7.3160   22.2570 C   0  0  0  0  0  0  0  0  0  0  0  0
    2.5350   -8.1970   26.2610 N   0  0  0  0  0  0  0  0  0  0  0  0
    4.0160   -8.2520   24.5530 O   0  0  0  0  0  0  0  0  0  0  0  0
    3.1720   -6.0510   23.5020 C   0  0  1  0  0  0  0  0  0  0  0  0
    4.1030   -4.1480   22.6060 O   0  0  0  0  0  0  0  0  0  0  0  0
    2.9420   -6.3220   24.8350 C   0  0  0  0  0  0  0  0  0  0  0  0
    3.2010   -7.6490   25.2000 C   0  0  0  0  0  0  0  0  0  0  0  0
    6.8130   -5.4270   20.4220 C   0  0  0  0  0  0  0  0  0  0  0  0
    5.8970   -6.1740   19.8490 C   0  0  0  0  0  0  0  0  0  0  0  0
    7.0090   -5.6930   23.1070 C   0  0  1  0  0  0  0  0  0  0  0  0
    4.8780   -5.6560   26.5090 C   0  0  0  0  0  0  0  0  0  0  0  0
    5.8630   -5.4260   25.2690 C   0  0  0  0  0  0  0  0  0  0  0  0
    7.1600   -5.4170   25.5290 C   0  0  0  0  0  0  0  0  0  0  0  0
    7.7970   -5.2310   24.3530 C   0  0  1  0  0  0  0  0  0  0  0  0
    9.1390   -5.3840   24.3480 C   0  0  0  0  0  0  0  0  0  0  0  0
    9.8590   -4.6380   25.2270 C   0  0  0  0  0  0  0  0  0  0  0  0
    8.9750   -3.6780   25.9180 N   0  0  0  0  0  0  0  0  0  0  0  0
    8.3740   -4.2920   27.1030 C   0  0  0  0  0  0  0  0  0  0  0  0
    7.8560   -5.5370   26.7590 C   0  0  0  0  0  0  0  0  0  0  0  0
    5.6380   -5.1610   23.8080 C   0  0  1  0  0  0  0  0  0  0  0  0
    6.0390   -3.7270   23.4470 C   0  0  0  0  0  0  0  0  0  0  0  0
    6.5370   -3.5910   22.1450 C   0  0  0  0  0  0  0  0  0  0  0  0
    6.4110   -5.0930   21.8390 C   0  0  1  0  0  0  0  0  0  0  0  0
    5.2260   -5.8270   21.9820 C   0  0  0  0  0  0  0  0  0  0  0  0
    4.5890   -5.4420   23.0520 C   0  0  1  0  0  0  0  0  0  0  0  0
    8.1140   -2.8070   25.0140 C   0  0  0  0  0  0  0  0  0  0  0  0
  2  4  1  0
  3  4  1  0
  3  7  1  0
  6  7  2  0
  7  9  1  0
  1 10  1  0
 10  9  1  6
  1 11  1  0
  8 11  2  0
 12  5  1  6
 11 12  1  0
 13 14  1  0
 13 15  1  0
 13 16  1  0
 10 18  1  0
 17 18  1  0
 17 19  1  0
 20 21  2  0
 21 22  1  0
 22 23  2  0
 12 24  1  0
 23 24  1  0
 20 25  1  0
 24 25  2  0
 26 27  2  0
 13 28  1  0
 27 28  1  0
 28 29  2  0
 29 30  1  0
  5 31  1  0
 26 31  1  0
 30 31  2  0
 32 35  1  0
 33 35  1  0
 34 35  2  0
 33 38  1  0
 38 40  1  1
 36 41  1  0
 37 41  2  0
 40 41  1  0
 42 43  2  3
 45 46  1  0
 46 47  2  0
 44 48  1  1
 47 48  1  0
 48 49  1  1
 49 50  1  0
 50 51  1  0
 51 52  1  0
 47 53  1  0
 52 53  1  0
 44 54  1  0
 54 46  1  0
 54 55  1  1
 55 56  1  0
 57 42  1  6
 44 57  1  0
 56 57  1  0
 57 58  1  0
 38 59  1  0
 59 39  1  6
 54 59  1  0
 58 59  1  0
 30 60  1  0
 51 60  1  0
M  END
