x0981-x0978-x3110-x1351-x1077
     RDKit          3D

 76 84  0  0  0  0  0  0  0  0999 V2000
    8.2840    1.1040   23.4720 N   0  0  0  0  0  0  0  0  0  0  0  0
   13.4480    5.3140   22.4290 C   0  0  0  0  0  0  0  0  0  0  0  0
   12.1110    3.4580   22.4480 O   0  0  0  0  0  0  0  0  0  0  0  0
   12.2330    4.5400   21.8890 C   0  0  0  0  0  0  0  0  0  0  0  0
    7.0990   -1.3700   22.1510 N   0  0  0  0  0  0  0  0  0  0  0  0
   10.8970    4.3760   24.1440 O   0  0  0  0  0  0  0  0  0  0  0  0
   11.1910    3.4210   23.4330 C   0  0  0  0  0  0  0  0  0  0  0  0
    8.7660    1.5010   21.2550 O   0  0  0  0  0  0  0  0  0  0  0  0
   10.5440    2.0510   23.5810 C   0  0  0  0  0  0  0  0  0  0  0  0
    9.0460    2.1300   23.9790 C   0  0  0  0  0  0  0  0  0  0  0  0
    8.0640    0.9380   22.1200 C   0  0  0  0  0  0  0  0  0  0  0  0
    6.8560    0.0490   21.8000 C   0  0  1  0  0  0  0  0  0  0  0  0
   12.4400   -1.8000   24.1190 C   0  0  0  0  0  0  0  0  0  0  0  0
   12.6350   -0.4230   24.7290 C   0  0  0  0  0  0  0  0  0  0  0  0
   13.4530   -1.8770   22.9880 C   0  0  0  0  0  0  0  0  0  0  0  0
   12.8430   -2.8710   25.1470 C   0  0  0  0  0  0  0  0  0  0  0  0
    1.3040   -8.8680   21.3970 C   0  0  0  0  0  0  0  0  0  0  0  0
    2.8990   -7.6930   22.9170 N   0  0  0  0  0  0  0  0  0  0  0  0
    0.6160   -6.7940   21.9140 O   0  0  0  0  0  0  0  0  0  0  0  0
    1.6580   -7.7550   22.1370 C   0  0  0  0  0  0  0  0  0  0  0  0
    2.5000   -8.0320   27.0220 N   0  0  0  0  0  0  0  0  0  0  0  0
    2.6360   -9.3620   25.0680 O   0  0  0  0  0  0  0  0  0  0  0  0
    3.3170   -6.7780   24.0010 C   0  0  1  0  0  0  0  0  0  0  0  0
    4.8300   -6.2910   22.1190 N   0  0  0  0  0  0  0  0  0  0  0  0
    3.8960   -7.5020   25.1620 C   0  0  0  0  0  0  0  0  0  0  0  0
    2.9810   -8.3760   25.6970 C   0  0  0  0  0  0  0  0  0  0  0  0
    4.4390   -5.9150   23.3650 C   0  0  2  0  0  0  0  0  0  0  0  0
    6.8880   -5.4240   20.3730 C   0  0  0  0  0  0  0  0  0  0  0  0
    5.9720   -6.3050   19.6340 C   0  0  0  0  0  0  0  0  0  0  0  0
    7.6330   -4.7670   22.9070 C   0  0  0  0  0  0  0  0  0  0  0  0
    1.4890   -5.3850   22.8070 N   0  0  0  0  0  0  0  0  0  0  0  0
    1.3580   -5.5210   25.5850 C   0  0  0  0  0  0  0  0  0  0  0  0
    3.4650   -5.2350   25.6550 O   0  0  0  0  0  0  0  0  0  0  0  0
    2.3330   -4.7440   24.9350 C   0  0  1  0  0  0  0  0  0  0  0  0
    4.0500   -3.5020   22.5730 N   0  0  0  0  0  0  0  0  0  0  0  0
    0.0300   -6.7840   23.7730 O   0  0  0  0  0  0  0  0  0  0  0  0
    2.5360   -5.1410   23.6130 C   0  0  2  0  0  0  0  0  0  0  0  0
    0.2300   -5.7590   23.1130 C   0  0  0  0  0  0  0  0  0  0  0  0
   -0.9040   -5.0490   22.6910 C   0  0  0  0  0  0  0  0  0  0  0  0
    3.8780   -4.7180   23.2010 C   0  0  1  0  0  0  0  0  0  0  0  0
    5.2600   -2.4960   20.7620 C   0  0  0  0  0  0  0  0  0  0  0  0
    5.1120   -3.1790   19.4140 C   0  0  0  0  0  0  0  0  0  0  0  0
    5.4670   -3.6100   25.9300 N   0  0  0  0  0  0  0  0  0  0  0  0
    7.5400   -3.3650   26.9270 N   0  0  0  0  0  0  0  0  0  0  0  0
    6.4450   -2.8580   26.6990 C   0  0  0  0  0  0  0  0  0  0  0  0
    6.2900    0.3830   17.8880 N   0  0  0  0  0  0  0  0  0  0  0  0
    5.2400    1.1960   17.7940 C   0  0  0  0  0  0  0  0  0  0  0  0
    4.5420    1.7480   19.0130 C   0  0  0  0  0  0  0  0  0  0  0  0
    5.1280    1.3210   20.3900 C   0  0  0  0  0  0  0  0  0  0  0  0
    6.3490    0.3880   20.5110 C   0  0  0  0  0  0  0  0  0  0  0  0
    6.8230   -0.0100   19.0600 C   0  0  0  0  0  0  0  0  0  0  0  0
    9.5280   -1.1430   21.7000 C   0  0  0  0  0  0  0  0  0  0  0  0
   10.9730   -1.2520   22.1880 C   0  0  0  0  0  0  0  0  0  0  0  0
   11.0760   -1.7190   23.6210 C   0  0  0  0  0  0  0  0  0  0  0  0
    9.9630   -2.0230   24.3760 C   0  0  0  0  0  0  0  0  0  0  0  0
    8.7210   -1.8720   23.7990 C   0  0  0  0  0  0  0  0  0  0  0  0
    8.4640   -1.4470   22.5100 C   0  0  0  0  0  0  0  0  0  0  0  0
    7.2720   -5.6700   25.0220 O   0  0  0  0  0  0  0  0  0  0  0  0
    8.0280   -5.8180   23.8240 C   0  0  2  0  0  0  0  0  0  0  0  0
    9.3200   -5.7800   24.3640 C   0  0  0  0  0  0  0  0  0  0  0  0
    9.8250   -4.5290   24.8100 C   0  0  0  0  0  0  0  0  0  0  0  0
    9.6740   -4.3060   26.2150 N   0  0  0  0  0  0  0  0  0  0  0  0
    8.3570   -4.4800   26.7560 C   0  0  2  0  0  0  0  0  0  0  0  0
    7.7690   -5.6510   26.2620 C   0  0  0  0  0  0  0  0  0  0  0  0
    5.3070   -3.1740   22.0090 C   0  0  1  0  0  0  0  0  0  0  0  0
    6.1320   -2.2060   22.8780 C   0  0  1  0  0  0  0  0  0  0  0  0
    6.5730   -2.7930   24.2080 C   0  0  0  0  0  0  0  0  0  0  0  0
    5.5500   -3.6250   24.5040 C   0  0  1  0  0  0  0  0  0  0  0  0
    5.2630   -4.8050   23.5500 C   0  0  1  0  0  0  0  0  0  0  0  0
    6.1630   -4.8930   22.0660 S   0  0  0  0  0  0  0  0  0  0  0  0
    6.0590   -1.1430   28.4630 C   0  0  0  0  0  0  0  0  0  0  0  0
    5.7370    0.1170   28.9470 C   0  0  0  0  0  0  0  0  0  0  0  0
    5.3800    1.1170   27.9910 C   0  0  0  0  0  0  0  0  0  0  0  0
    5.3720    0.7720   26.6480 C   0  0  0  0  0  0  0  0  0  0  0  0
    5.7060   -0.5050   26.2350 C   0  0  0  0  0  0  0  0  0  0  0  0
    6.0620   -1.4930   27.1390 C   0  0  0  0  0  0  0  0  0  0  0  0
  2  4  1  0
  3  4  1  0
  3  7  1  0
  6  7  2  0
  7  9  1  0
  1 10  1  0
  9 10  1  0
  1 11  1  0
  8 11  2  0
  5 12  1  0
 12 11  1  6
 13 14  1  0
 13 15  1  0
 13 16  1  0
 17 20  1  0
 18 20  1  0
 19 20  2  0
 18 23  1  0
 23 25  1  1
 21 26  1  0
 22 26  2  0
 25 26  1  0
 23 27  1  0
 27 24  1  6
 28 29  2  3
 34 32  1  1
 33 34  1  0
 37 31  1  6
 34 37  1  0
 31 38  1  0
 36 38  2  0
 38 39  1  0
 27 40  1  0
 40 35  1  6
 37 40  1  0
 41 42  2  3
 43 45  1  0
 44 45  2  0
 46 47  2  0
 47 48  1  0
 48 49  2  0
 12 50  1  0
 49 50  1  0
 46 51  1  0
 50 51  2  0
 52 53  2  0
 13 54  1  0
 53 54  1  0
 54 55  2  0
 55 56  1  0
  5 57  1  0
 52 57  1  0
 56 57  2  0
 59 30  1  6
 58 59  1  0
 59 60  1  0
 60 61  1  0
 61 62  1  0
 63 44  1  6
 62 63  1  0
 58 64  1  0
 63 64  1  0
 35 65  1  0
 65 41  1  6
 66  5  1  6
 65 66  1  0
 66 67  1  0
 43 68  1  0
 68 67  1  1
 27 69  1  0
 40 69  1  0
 68 69  1  0
 24 70  1  0
 28 70  1  0
 30 70  1  0
 65 70  1  0
 69 70  1  6
 71 72  2  0
 72 73  1  0
 73 74  2  0
 74 75  1  0
 45 76  1  0
 71 76  1  0
 75 76  2  0
M  END
