x0981-x0978-x2776
     RDKit          3D

 48 50  0  0  0  0  0  0  0  0999 V2000
    1.0500   -8.4770   21.4190 C   0  0  0  0  0  0  0  0  0  0  0  0
    2.6170   -6.8800   22.6140 N   0  0  0  0  0  0  0  0  0  0  0  0
    0.8030   -7.7790   23.6240 O   0  0  0  0  0  0  0  0  0  0  0  0
    1.2260   -7.3020   22.3860 C   0  0  0  0  0  0  0  0  0  0  0  0
    2.4900   -8.3450   26.2270 N   0  0  0  0  0  0  0  0  0  0  0  0
    4.0100   -8.1700   24.5710 O   0  0  0  0  0  0  0  0  0  0  0  0
    2.9690   -5.7840   23.5600 C   0  0  1  0  0  0  0  0  0  0  0  0
    5.1730   -5.6600   22.3120 N   0  0  0  0  0  0  0  0  0  0  0  0
    4.9340   -4.4290   24.1860 O   0  0  0  0  0  0  0  0  0  0  0  0
    2.7270   -6.2320   25.0310 C   0  0  0  0  0  0  0  0  0  0  0  0
    3.1430   -7.6610   25.2350 C   0  0  0  0  0  0  0  0  0  0  0  0
    4.4340   -5.2280   23.3970 C   0  0  0  0  0  0  0  0  0  0  0  0
    6.4680   -5.0710   21.8750 C   0  0  1  0  0  0  0  0  0  0  0  0
    6.4350   -5.0760   20.3460 C   0  0  0  0  0  0  0  0  0  0  0  0
    5.7380   -6.1120   19.8930 C   0  0  0  0  0  0  0  0  0  0  0  0
    0.2080   -6.1670   22.1480 C   0  0  0  0  0  0  0  0  0  0  0  0
    7.3620   -1.3520   21.6150 N   0  0  0  0  0  0  0  0  0  0  0  0
    7.7870    2.0490   22.8830 N   0  0  0  0  0  0  0  0  0  0  0  0
    8.8620    1.3560   20.9940 O   0  0  0  0  0  0  0  0  0  0  0  0
   10.7570    6.7130   23.8520 O   0  0  0  0  0  0  0  0  0  0  0  0
    6.8580    0.0990   21.5750 C   0  0  1  0  0  0  0  0  0  0  0  0
   12.8110   -3.0220   24.5110 O   0  0  0  0  0  0  0  0  0  0  0  0
    7.9470    1.2250   21.7900 C   0  0  0  0  0  0  0  0  0  0  0  0
   10.5280    1.7730   23.8450 C   0  0  0  0  0  0  0  0  0  0  0  0
   11.8130    6.6390   24.8060 C   0  0  0  0  0  0  0  0  0  0  0  0
   12.2800   -1.6960   24.4510 C   0  0  1  0  0  0  0  0  0  0  0  0
   13.1530   -0.8940   23.5170 C   0  0  0  0  0  0  0  0  0  0  0  0
   13.2890   -3.3710   25.7930 C   0  0  0  0  0  0  0  0  0  0  0  0
    6.9130   -3.7180   22.5200 C   0  0  0  0  0  0  0  0  0  0  0  0
    6.3260   -2.4060   21.9530 C   0  0  0  0  0  0  0  0  0  0  0  0
    6.3320    0.3940   17.8380 N   0  0  0  0  0  0  0  0  0  0  0  0
    5.2240    1.1560   17.8190 C   0  0  0  0  0  0  0  0  0  0  0  0
    4.5710    1.6030   18.9380 C   0  0  0  0  0  0  0  0  0  0  0  0
    5.0890    1.2590   20.1710 C   0  0  0  0  0  0  0  0  0  0  0  0
    6.2420    0.4770   20.2480 C   0  0  0  0  0  0  0  0  0  0  0  0
    6.8170    0.0690   19.0500 C   0  0  0  0  0  0  0  0  0  0  0  0
    9.8730    3.1060   23.5880 C   0  0  0  0  0  0  0  0  0  0  0  0
   10.6200    4.2790   23.8260 C   0  0  0  0  0  0  0  0  0  0  0  0
   10.0950    5.5390   23.6240 C   0  0  0  0  0  0  0  0  0  0  0  0
    8.7870    5.6550   23.1570 C   0  0  0  0  0  0  0  0  0  0  0  0
    8.0200    4.5090   22.9060 C   0  0  0  0  0  0  0  0  0  0  0  0
    8.5440    3.2250   23.1210 C   0  0  0  0  0  0  0  0  0  0  0  0
    9.6320   -2.0110   21.8360 C   0  0  0  0  0  0  0  0  0  0  0  0
   10.8350   -2.1050   22.4900 C   0  0  0  0  0  0  0  0  0  0  0  0
   10.9530   -1.6170   23.7910 C   0  0  0  0  0  0  0  0  0  0  0  0
    9.8380   -1.0590   24.4180 C   0  0  0  0  0  0  0  0  0  0  0  0
    8.6240   -0.9660   23.7390 C   0  0  0  0  0  0  0  0  0  0  0  0
    8.5230   -1.4370   22.4210 C   0  0  0  0  0  0  0  0  0  0  0  0
  1  4  1  0
  2  4  1  0
  4  3  1  0
  2  7  1  0
  7 10  1  1
  5 11  1  0
  6 11  2  0
 10 11  1  0
  7 12  1  0
  8 12  1  0
  9 12  2  0
  8 13  1  0
 13 14  1  6
 14 15  2  3
  4 16  1  0
 17 21  1  0
 18 23  1  0
 19 23  2  0
 21 23  1  6
 20 25  1  0
 22 26  1  0
 26 27  1  6
 22 28  1  0
 13 29  1  0
 17 30  1  0
 29 30  1  0
 31 32  2  0
 32 33  1  0
 33 34  2  0
 21 35  1  0
 34 35  1  0
 31 36  1  0
 35 36  2  0
 24 37  1  0
 37 38  2  0
 20 39  1  0
 38 39  1  0
 39 40  2  0
 40 41  1  0
 18 42  1  0
 37 42  1  0
 41 42  2  0
 43 44  2  0
 26 45  1  0
 44 45  1  0
 45 46  2  0
 46 47  1  0
 17 48  1  0
 43 48  1  0
 47 48  2  0
M  END
