x0981-x3124
     RDKit          3D

 39 40  0  0  0  0  0  0  0  0999 V2000
    1.2140   -8.7020   21.4170 C   0  0  0  0  0  0  0  0  0  0  0  0
    2.7870   -7.0880   22.7470 N   0  0  0  0  0  0  0  0  0  0  0  0
    0.2890   -6.5520   22.2070 O   0  0  0  0  0  0  0  0  0  0  0  0
    1.4490   -7.3860   22.1760 C   0  0  0  0  0  0  0  0  0  0  0  0
    2.4460   -8.2600   26.4070 N   0  0  0  0  0  0  0  0  0  0  0  0
    4.0210   -8.2060   24.6270 O   0  0  0  0  0  0  0  0  0  0  0  0
    3.0140   -5.8670   23.5470 C   0  0  1  0  0  0  0  0  0  0  0  0
    5.1540   -5.6450   22.2570 N   0  0  0  0  0  0  0  0  0  0  0  0
    4.9060   -4.4850   24.1580 O   0  0  0  0  0  0  0  0  0  0  0  0
    2.7840   -6.1960   24.8810 C   0  0  0  0  0  0  0  0  0  0  0  0
    3.1650   -7.6270   25.2550 C   0  0  0  0  0  0  0  0  0  0  0  0
    4.4430   -5.2790   23.3420 C   0  0  0  0  0  0  0  0  0  0  0  0
    6.1270   -4.5930   21.7150 C   0  0  1  0  0  0  0  0  0  0  0  0
    6.4470   -5.0100   20.2960 C   0  0  0  0  0  0  0  0  0  0  0  0
    5.8270   -6.1070   19.8750 C   0  0  0  0  0  0  0  0  0  0  0  0
    7.1430   -1.3930   21.9110 N   0  0  0  0  0  0  0  0  0  0  0  0
    7.7670    1.6420   23.2810 N   0  0  0  0  0  0  0  0  0  0  0  0
    8.5310    1.4790   21.0410 O   0  0  0  0  0  0  0  0  0  0  0  0
    6.7280   -0.0870   21.7520 C   0  0  1  0  0  0  0  0  0  0  0  0
    7.7130    1.0570   22.0660 C   0  0  0  0  0  0  0  0  0  0  0  0
    8.7340    2.5470   23.5630 C   0  0  0  0  0  0  0  0  0  0  0  0
   12.4870   -1.8520   24.2450 C   0  0  0  0  0  0  0  0  0  0  0  0
   12.6900   -0.6990   24.9590 C   0  0  0  0  0  0  0  0  0  0  0  0
   13.4500   -1.9290   23.0670 C   0  0  0  0  0  0  0  0  0  0  0  0
   12.8690   -3.0330   25.1240 C   0  0  0  0  0  0  0  0  0  0  0  0
    5.6200   -3.2590   21.7280 C   0  0  0  0  0  0  0  0  0  0  0  0
    6.2450   -2.3550   22.5890 C   0  0  0  0  0  0  0  0  0  0  0  0
    6.3550    0.1560   17.9850 N   0  0  0  0  0  0  0  0  0  0  0  0
    5.2300    0.8920   17.9040 C   0  0  0  0  0  0  0  0  0  0  0  0
    4.5090    1.3400   18.9980 C   0  0  0  0  0  0  0  0  0  0  0  0
    4.9710    1.0210   20.2840 C   0  0  0  0  0  0  0  0  0  0  0  0
    6.1620    0.2530   20.3820 C   0  0  0  0  0  0  0  0  0  0  0  0
    6.8040   -0.1540   19.2180 C   0  0  0  0  0  0  0  0  0  0  0  0
    9.6530   -2.1720   21.7760 C   0  0  0  0  0  0  0  0  0  0  0  0
   10.8940   -2.2510   22.3730 C   0  0  0  0  0  0  0  0  0  0  0  0
   11.0960   -1.7690   23.6640 C   0  0  0  0  0  0  0  0  0  0  0  0
   10.0190   -1.2270   24.3270 C   0  0  0  0  0  0  0  0  0  0  0  0
    8.7820   -1.1330   23.7530 C   0  0  0  0  0  0  0  0  0  0  0  0
    8.5180   -1.5760   22.4620 C   0  0  0  0  0  0  0  0  0  0  0  0
  1  4  1  0
  2  4  1  0
  3  4  2  0
  2  7  1  0
  7 10  1  1
  5 11  1  0
  6 11  2  0
 10 11  1  0
  7 12  1  0
  8 12  1  0
  9 12  2  0
  8 13  1  0
 13 14  1  6
 14 15  2  3
 16 19  1  0
 17 20  1  0
 18 20  2  0
 19 20  1  6
 17 21  1  0
 22 23  1  0
 22 24  1  0
 22 25  1  0
 13 26  1  0
 16 27  1  0
 26 27  1  0
 28 29  2  0
 29 30  1  0
 30 31  2  0
 19 32  1  0
 31 32  1  0
 28 33  1  0
 32 33  2  0
 34 35  2  0
 22 36  1  0
 35 36  1  0
 36 37  2  0
 37 38  1  0
 16 39  1  0
 34 39  1  0
 38 39  2  0
M  END
