x0981-x0946-x3110-x2754-x3113-x0426
     RDKit          3D

 75 81  0  0  0  0  0  0  0  0999 V2000
    7.9730    1.5280   23.5290 N   0  0  0  0  0  0  0  0  0  0  0  0
   13.5150    5.3170   23.2000 C   0  0  0  0  0  0  0  0  0  0  0  0
   13.0220    4.4210   22.1530 C   0  0  0  0  0  0  0  0  0  0  0  0
    7.4340   -1.3070   21.9100 N   0  0  0  0  0  0  0  0  0  0  0  0
   10.2860    4.8490   23.3820 C   0  0  0  0  0  0  0  0  0  0  0  0
    8.6920    1.7250   21.3210 O   0  0  0  0  0  0  0  0  0  0  0  0
    8.9310    2.4170   24.2000 C   0  0  0  0  0  0  0  0  0  0  0  0
    7.9390    1.1930   22.1730 C   0  0  0  0  0  0  0  0  0  0  0  0
    6.8960    0.1160   21.7450 C   0  0  1  0  0  0  0  0  0  0  0  0
   12.5460   -1.9520   24.3360 C   0  0  0  0  0  0  0  0  0  0  0  0
   12.7790   -0.6680   25.0580 C   0  0  0  0  0  0  0  0  0  0  0  0
   13.5260   -2.1290   23.1830 C   0  0  0  0  0  0  0  0  0  0  0  0
   12.8400   -3.1080   25.2760 C   0  0  0  0  0  0  0  0  0  0  0  0
    2.2940    1.7920   23.8750 C   0  0  0  0  0  0  0  0  0  0  0  0
    2.1290    0.5840   23.7450 O   0  0  0  0  0  0  0  0  0  0  0  0
    3.4180    2.4360   23.3980 N   0  0  0  0  0  0  0  0  0  0  0  0
    4.3630    1.7980   22.6360 C   0  0  0  0  0  0  0  0  0  0  0  0
    3.9010    1.5800   21.1870 C   0  0  0  0  0  0  0  0  0  0  0  0
    2.8020    4.2480   25.1860 F   0  0  0  0  0  0  0  0  0  0  0  0
    9.0920    4.9840   22.6330 N   0  0  0  0  0  0  0  0  0  0  0  0
    9.9730    5.1950   24.6990 O   0  0  0  0  0  0  0  0  0  0  0  0
   11.1470    5.8810   22.9600 O   0  0  0  0  0  0  0  0  0  0  0  0
    1.2620   -8.5890   21.5260 C   0  0  0  0  0  0  0  0  0  0  0  0
    2.8150   -7.2860   22.7890 N   0  0  0  0  0  0  0  0  0  0  0  0
    0.6150   -6.6390   22.2890 O   0  0  0  0  0  0  0  0  0  0  0  0
    1.5740   -7.4380   22.2480 C   0  0  0  0  0  0  0  0  0  0  0  0
    2.5970   -8.0950   26.3880 N   0  0  0  0  0  0  0  0  0  0  0  0
    4.1110   -8.2610   24.5780 O   0  0  0  0  0  0  0  0  0  0  0  0
    3.1390   -6.1550   23.4160 C   0  0  1  0  0  0  0  0  0  0  0  0
    4.8840   -5.4340   21.5350 N   0  0  0  0  0  0  0  0  0  0  0  0
    3.1280   -6.3100   24.7980 C   0  0  0  0  0  0  0  0  0  0  0  0
    3.3220   -7.6050   25.2270 C   0  0  0  0  0  0  0  0  0  0  0  0
    4.3950   -5.4290   22.7770 C   0  0  0  0  0  0  0  0  0  0  0  0
    6.7740   -5.0650   20.5190 C   0  0  0  0  0  0  0  0  0  0  0  0
    5.9470   -6.1060   19.9100 C   0  0  0  0  0  0  0  0  0  0  0  0
    5.0890   -3.5090   25.4120 C   0  0  0  0  0  0  0  0  0  0  0  0
    3.8680   -3.6210   25.3140 O   0  0  0  0  0  0  0  0  0  0  0  0
    5.7170   -3.2130   26.6250 N   0  0  0  0  0  0  0  0  0  0  0  0
    5.2150   -2.1990   27.5600 C   0  0  0  0  0  0  0  0  0  0  0  0
    6.4600    0.3990   17.9040 N   0  0  0  0  0  0  0  0  0  0  0  0
    5.2760    1.0120   17.8300 C   0  0  0  0  0  0  0  0  0  0  0  0
    4.5090    1.3620   18.8790 C   0  0  0  0  0  0  0  0  0  0  0  0
    4.9230    1.1090   20.1720 C   0  0  0  0  0  0  0  0  0  0  0  0
    6.2280    0.4550   20.4280 C   0  0  0  0  0  0  0  0  0  0  0  0
    6.8820    0.1470   19.1430 C   0  0  0  0  0  0  0  0  0  0  0  0
    9.7810   -1.2580   21.7380 C   0  0  0  0  0  0  0  0  0  0  0  0
   11.1460   -1.4400   22.3730 C   0  0  0  0  0  0  0  0  0  0  0  0
   11.1900   -1.7960   23.7210 C   0  0  0  0  0  0  0  0  0  0  0  0
   10.0280   -1.9700   24.4180 C   0  0  0  0  0  0  0  0  0  0  0  0
    8.8150   -1.8050   23.8150 C   0  0  0  0  0  0  0  0  0  0  0  0
    8.6840   -1.4550   22.4930 C   0  0  0  0  0  0  0  0  0  0  0  0
    1.5450    3.7820   25.1960 C   0  0  0  0  0  0  0  0  0  0  0  0
    1.2520    2.5990   24.5740 C   0  0  0  0  0  0  0  0  0  0  0  0
   -0.1680    2.0290   24.5580 C   0  0  0  0  0  0  0  0  0  0  0  0
   -1.2080    2.8780   25.2840 C   0  0  0  0  0  0  0  0  0  0  0  0
   -0.7800    4.0230   25.8550 C   0  0  0  0  0  0  0  0  0  0  0  0
    0.5290    4.4820   25.8290 C   0  0  0  0  0  0  0  0  0  0  0  0
   12.2860    0.8120   23.1880 C   0  0  0  0  0  0  0  0  0  0  0  0
   12.8660    1.9700   22.7430 C   0  0  0  0  0  0  0  0  0  0  0  0
   12.2340    3.3030   22.7450 C   0  0  0  0  0  0  0  0  0  0  0  0
   10.9280    3.4510   23.2910 C   0  0  0  0  0  0  0  0  0  0  0  0
   10.3480    2.3120   23.6960 C   0  0  0  0  0  0  0  0  0  0  0  0
   10.7960    0.9680   23.7410 C   0  0  0  0  0  0  0  0  0  0  0  0
    5.6160   -3.0710   21.4770 N   0  0  0  0  0  0  0  0  0  0  0  0
    6.6330   -2.4670   22.3310 C   0  0  2  0  0  0  0  0  0  0  0  0
    6.2240   -2.4140   23.6370 C   0  0  0  0  0  0  0  0  0  0  0  0
    6.0010   -3.6850   24.1810 C   0  0  2  0  0  0  0  0  0  0  0  0
    5.3940   -4.5680   23.0560 C   0  0  0  0  0  0  0  0  0  0  0  0
    5.9100   -4.4530   21.6680 C   0  0  1  0  0  0  0  0  0  0  0  0
    7.2160   -4.8140   27.7140 C   0  0  0  0  0  0  0  0  0  0  0  0
    8.4940   -5.3340   27.9100 C   0  0  0  0  0  0  0  0  0  0  0  0
    9.5710   -4.7810   27.2360 C   0  0  0  0  0  0  0  0  0  0  0  0
    9.3790   -3.7260   26.3770 C   0  0  0  0  0  0  0  0  0  0  0  0
    8.1250   -3.1990   26.1730 C   0  0  0  0  0  0  0  0  0  0  0  0
    7.0230   -3.7310   26.8330 C   0  0  0  0  0  0  0  0  0  0  0  0
  2  3  1  0
  1  7  1  0
  1  8  1  0
  6  8  2  0
  4  9  1  0
  9  8  1  6
 10 11  1  0
 10 12  1  0
 10 13  1  0
 14 15  2  0
 14 16  1  0
 16 17  1  0
 17 18  1  0
  5 20  1  0
  5 21  1  0
  5 22  1  0
 23 26  1  0
 24 26  1  0
 25 26  2  0
 24 29  1  0
 29 31  1  1
 27 32  1  0
 28 32  2  0
 31 32  1  0
 29 33  1  0
 30 33  1  0
 34 35  2  3
 36 37  2  0
 36 38  1  0
 38 39  1  0
 40 41  2  0
 41 42  1  0
 18 43  1  0
 42 43  2  0
  9 44  1  0
 43 44  1  0
 40 45  1  0
 44 45  2  0
 46 47  2  0
 10 48  1  0
 47 48  1  0
 48 49  2  0
 49 50  1  0
  4 51  1  0
 46 51  1  0
 50 51  2  0
 19 52  1  0
 14 53  1  0
 52 53  2  0
 53 54  1  0
 54 55  2  0
 55 56  1  0
 52 57  1  0
 56 57  2  0
 58 59  2  0
  3 60  1  0
 59 60  1  0
  5 61  1  0
 60 61  2  0
  7 62  1  0
 61 62  1  0
 58 63  1  0
 62 63  2  0
 65  4  1  6
 64 65  1  0
 65 66  1  0
 67 36  1  1
 66 67  1  0
 33 68  2  0
 67 68  1  0
 30 69  1  0
 69 34  1  1
 64 69  1  0
 68 69  1  0
 70 71  2  0
 71 72  1  0
 72 73  2  0
 73 74  1  0
 38 75  1  0
 70 75  1  0
 74 75  2  0
M  END
