x0981-x1093
     RDKit          3D

 37 39  0  0  0  0  0  0  0  0999 V2000
    1.2010   -8.7000   21.4190 C   0  0  0  0  0  0  0  0  0  0  0  0
    2.7830   -7.1090   22.7590 N   0  0  0  0  0  0  0  0  0  0  0  0
    0.2920   -6.5430   22.2110 O   0  0  0  0  0  0  0  0  0  0  0  0
    1.4440   -7.3890   22.1810 C   0  0  0  0  0  0  0  0  0  0  0  0
    2.4690   -8.2230   26.4150 N   0  0  0  0  0  0  0  0  0  0  0  0
    4.0340   -8.2130   24.6250 O   0  0  0  0  0  0  0  0  0  0  0  0
    3.0380   -5.8740   23.5290 C   0  0  1  0  0  0  0  0  0  0  0  0
    5.2190   -5.9210   22.3170 N   0  0  0  0  0  0  0  0  0  0  0  0
    4.8680   -4.3210   23.8650 O   0  0  0  0  0  0  0  0  0  0  0  0
    2.8470   -6.1770   24.8740 C   0  0  0  0  0  0  0  0  0  0  0  0
    3.1950   -7.6150   25.2550 C   0  0  0  0  0  0  0  0  0  0  0  0
    4.4650   -5.3050   23.2480 C   0  0  0  0  0  0  0  0  0  0  0  0
    6.5150   -5.2370   21.8370 C   0  0  1  0  0  0  0  0  0  0  0  0
    6.4630   -5.1690   20.3270 C   0  0  0  0  0  0  0  0  0  0  0  0
    5.7290   -6.1610   19.8400 C   0  0  0  0  0  0  0  0  0  0  0  0
   13.3220   -1.7170   23.8200 C   0  0  0  0  0  0  0  0  0  0  0  0
    8.7810    1.3890   21.1320 O   0  0  0  0  0  0  0  0  0  0  0  0
    8.8940    0.0770   21.5480 C   0  0  0  0  0  0  0  0  0  0  0  0
    7.9950   -0.9190   21.0980 C   0  0  1  0  0  0  0  0  0  0  0  0
    6.9730   -3.9260   22.5220 C   0  0  0  0  0  0  0  0  0  0  0  0
    6.4870   -2.7140   22.0100 C   0  0  0  0  0  0  0  0  0  0  0  0
    7.2730   -1.5670   22.2220 C   0  0  0  0  0  0  0  0  0  0  0  0
   12.3040   -1.2680   23.2010 N   0  0  0  0  0  0  0  0  0  0  0  0
   12.1780    0.1960   23.3780 C   0  0  0  0  0  0  0  0  0  0  0  0
   10.6850    0.6070   23.2930 C   0  0  0  0  0  0  0  0  0  0  0  0
    9.9220   -0.3750   22.4560 N   0  0  0  0  0  0  0  0  0  0  0  0
   10.0240   -1.6190   22.9090 C   0  0  0  0  0  0  0  0  0  0  0  0
   11.2140   -2.0010   23.4390 C   0  0  0  0  0  0  0  0  0  0  0  0
    6.3170    0.0500   17.9220 N   0  0  0  0  0  0  0  0  0  0  0  0
    7.2620   -0.6120   18.6450 C   0  0  0  0  0  0  0  0  0  0  0  0
    7.1040   -0.3760   20.0200 C   0  0  0  0  0  0  0  0  0  0  0  0
    5.9810    0.4330   20.1480 C   0  0  0  0  0  0  0  0  0  0  0  0
    5.5630    0.6780   18.8470 C   0  0  0  0  0  0  0  0  0  0  0  0
    4.4880    1.4840   18.5950 N   0  0  0  0  0  0  0  0  0  0  0  0
    3.7920    1.9770   19.6230 C   0  0  0  0  0  0  0  0  0  0  0  0
    4.1560    1.7430   20.9220 C   0  0  0  0  0  0  0  0  0  0  0  0
    5.2850    0.9640   21.1700 C   0  0  0  0  0  0  0  0  0  0  0  0
  1  4  1  0
  2  4  1  0
  3  4  2  0
  2  7  1  0
  7 10  1  1
  5 11  1  0
  6 11  2  0
 10 11  1  0
  7 12  1  0
  8 12  1  0
  9 12  2  0
  8 13  1  0
 13 14  1  6
 14 15  2  3
 17 18  2  0
 18 19  1  0
 13 20  1  0
 20 21  1  0
 19 22  1  1
 21 22  1  0
 16 23  1  0
 23 24  1  0
 24 25  1  0
 18 26  1  0
 25 26  1  0
 26 27  1  0
 23 28  1  0
 27 28  1  0
 29 30  1  0
 19 31  1  0
 30 31  2  0
 31 32  1  0
 29 33  2  0
 32 33  1  0
 33 34  1  0
 34 35  1  0
 35 36  2  0
 32 37  2  0
 36 37  1  0
M  END
