x0981-x1311
     RDKit          3D

 23 27  0  0  0  0  0  0  0  0999 V2000
    1.4770   -8.4990   21.5650 C   0  0  0  0  0  0  0  0  0  0  0  0
    2.8940   -6.5310   22.7660 N   0  0  0  0  0  0  0  0  0  0  0  0
    0.3720   -6.4100   22.1300 O   0  0  0  0  0  0  0  0  0  0  0  0
    1.6200   -7.1010   22.1920 C   0  0  0  0  0  0  0  0  0  0  0  0
    2.2520   -8.2790   26.5050 N   0  0  0  0  0  0  0  0  0  0  0  0
    4.0140   -8.0050   24.9320 N   0  0  0  0  0  0  0  0  0  0  0  0
    2.8370   -5.5400   23.8360 C   0  0  1  0  0  0  0  0  0  0  0  0
    2.3470   -6.0830   25.0180 C   0  0  0  0  0  0  0  0  0  0  0  0
    2.9130   -7.4540   25.4520 C   0  0  0  0  0  0  0  0  0  0  0  0
    5.5840   -4.5120   21.5960 C   0  0  2  0  0  0  0  0  0  0  0  0
    6.0000   -5.0380   20.1690 C   0  0  0  0  0  0  0  0  0  0  0  0
    5.6300   -6.2420   19.8690 C   0  0  0  0  0  0  0  0  0  0  0  0
    7.2320   -5.3780   23.0470 C   0  0  0  0  0  0  0  0  0  0  0  0
    8.2870   -5.2650   23.7810 C   0  0  0  0  0  0  0  0  0  0  0  0
    9.0460   -3.9360   23.9400 C   0  0  0  0  0  0  0  0  0  0  0  0
    8.5110   -2.8640   23.3010 C   0  0  0  0  0  0  0  0  0  0  0  0
    7.3800   -3.0470   22.5530 C   0  0  0  0  0  0  0  0  0  0  0  0
    6.7740   -4.2770   22.4230 C   0  0  0  0  0  0  0  0  0  0  0  0
    4.6280   -5.1460   22.5080 C   0  0  1  0  0  0  0  0  0  0  0  0
    5.3460   -4.5450   23.6040 C   0  0  0  0  0  0  0  0  0  0  0  0
    4.3070   -5.4600   24.0050 C   0  0  1  0  0  0  0  0  0  0  0  0
    4.7490   -7.0880   23.7650 S   0  0  2  0  0  0  0  0  0  0  0  0
    4.3660   -6.4760   22.2990 C   0  0  1  0  0  0  0  0  0  0  0  0
  1  4  1  0
  2  4  1  0
  3  4  2  0
  2  7  1  0
  7  8  1  1
  5  9  1  0
  6  9  2  0
  8  9  1  0
 10 11  1  6
 11 12  2  3
 13 14  2  0
 14 15  1  0
 15 16  2  0
 16 17  1  0
 10 18  1  0
 13 18  1  0
 17 18  2  0
 10 19  1  0
 19 20  1  6
  7 21  1  0
 19 21  1  0
 21 20  1  1
 22  6  1  1
 21 22  1  0
 23  2  1  1
 19 23  1  0
 22 23  1  0
M  END
