x0981-x2910
     RDKit          3D

 42 44  0  0  0  0  0  0  0  0999 V2000
    1.1550   -8.7490   21.3330 C   0  0  0  0  0  0  0  0  0  0  0  0
    2.6900   -7.2210   22.7600 N   0  0  0  0  0  0  0  0  0  0  0  0
    0.2420   -6.5870   22.1250 O   0  0  0  0  0  0  0  0  0  0  0  0
    1.3770   -7.4560   22.1270 C   0  0  0  0  0  0  0  0  0  0  0  0
    2.4580   -8.2570   26.5020 N   0  0  0  0  0  0  0  0  0  0  0  0
    3.9390   -8.2550   24.6490 O   0  0  0  0  0  0  0  0  0  0  0  0
    2.9560   -5.9960   23.5280 C   0  0  1  0  0  0  0  0  0  0  0  0
    5.1080   -6.0930   22.2990 N   0  0  0  0  0  0  0  0  0  0  0  0
    4.9740   -4.8450   24.1780 O   0  0  0  0  0  0  0  0  0  0  0  0
    2.6590   -6.2720   24.8560 C   0  0  0  0  0  0  0  0  0  0  0  0
    3.0990   -7.6660   25.2880 C   0  0  0  0  0  0  0  0  0  0  0  0
    4.4390   -5.5930   23.3580 C   0  0  0  0  0  0  0  0  0  0  0  0
    6.3130   -5.2750   21.8620 C   0  0  1  0  0  0  0  0  0  0  0  0
    6.4320   -5.3390   20.3480 C   0  0  0  0  0  0  0  0  0  0  0  0
    5.7010   -6.2820   19.8050 C   0  0  0  0  0  0  0  0  0  0  0  0
    7.4980   -1.5850   20.8280 N   0  0  0  0  0  0  0  0  0  0  0  0
   10.3680    2.7160   23.5650 C   0  0  0  0  0  0  0  0  0  0  0  0
   10.1670    1.5480   23.8670 O   0  0  0  0  0  0  0  0  0  0  0  0
    9.6190   -1.2640   23.0740 O   0  0  0  0  0  0  0  0  0  0  0  0
    5.2190   -2.1740   21.1390 O   0  0  0  0  0  0  0  0  0  0  0  0
    6.2550    1.3080   16.7080 O   0  0  0  0  0  0  0  0  0  0  0  0
    9.2370   -1.9550   22.1760 C   0  0  0  0  0  0  0  0  0  0  0  0
    7.8650   -2.0250   22.1510 C   0  0  2  0  0  0  0  0  0  0  0  0
    6.0670   -1.4230   20.6800 C   0  0  0  0  0  0  0  0  0  0  0  0
    6.2360   -3.8410   22.3720 C   0  0  0  0  0  0  0  0  0  0  0  0
    7.4850   -3.3430   22.6640 C   0  0  0  0  0  0  0  0  0  0  0  0
   11.1930    0.7210   23.3170 C   0  0  0  0  0  0  0  0  0  0  0  0
   10.8830   -0.7090   22.9190 C   0  0  0  0  0  0  0  0  0  0  0  0
   11.8770   -1.4950   22.3900 C   0  0  0  0  0  0  0  0  0  0  0  0
   13.1350   -1.0200   22.2150 C   0  0  0  0  0  0  0  0  0  0  0  0
   13.4350    0.2960   22.5780 C   0  0  0  0  0  0  0  0  0  0  0  0
   12.4900    1.1730   23.1250 C   0  0  0  0  0  0  0  0  0  0  0  0
    4.8740    1.9030   18.3180 N   0  0  0  0  0  0  0  0  0  0  0  0
    4.3540    1.7220   19.5140 C   0  0  0  0  0  0  0  0  0  0  0  0
    4.7190    0.6600   20.3350 C   0  0  0  0  0  0  0  0  0  0  0  0
    5.6340   -0.2420   19.8770 C   0  0  0  0  0  0  0  0  0  0  0  0
    6.1910   -0.0750   18.6380 C   0  0  0  0  0  0  0  0  0  0  0  0
    5.7710    1.0250   17.9140 C   0  0  0  0  0  0  0  0  0  0  0  0
    3.4110    2.6790   19.9050 C   0  0  0  0  0  0  0  0  0  0  0  0
    2.8190    2.5980   21.1450 C   0  0  0  0  0  0  0  0  0  0  0  0
    3.1860    1.5570   21.9830 C   0  0  0  0  0  0  0  0  0  0  0  0
    4.1230    0.5850   21.5910 C   0  0  0  0  0  0  0  0  0  0  0  0
  1  4  1  0
  2  4  1  0
  3  4  2  0
  2  7  1  0
  7 10  1  1
  5 11  1  0
  6 11  2  0
 10 11  1  0
  7 12  1  0
  8 12  1  0
  9 12  2  0
  8 13  1  0
 13 14  1  6
 14 15  2  3
 17 18  1  0
 19 22  1  0
 16 23  1  0
 23 22  1  6
 16 24  1  0
 20 24  2  0
 13 25  1  0
 23 26  1  0
 25 26  1  0
 18 27  1  0
 19 28  1  0
 27 28  2  0
 28 29  1  0
 29 30  2  0
 30 31  1  0
 27 32  1  0
 31 32  2  0
 33 34  2  0
 34 35  1  0
 24 36  1  0
 35 36  2  0
 36 37  1  0
 21 38  1  0
 33 38  1  0
 37 38  2  0
 34 39  1  0
 39 40  2  0
 40 41  1  0
 35 42  1  0
 41 42  2  0
M  END
