x0981-x1351-x3110-x1077
     RDKit          3D

 64 70  0  0  0  0  0  0  0  0999 V2000
    8.1210    1.3560   23.2630 N   0  0  0  0  0  0  0  0  0  0  0  0
   13.0630    5.3660   23.0060 C   0  0  0  0  0  0  0  0  0  0  0  0
   11.8080    3.5740   22.2070 O   0  0  0  0  0  0  0  0  0  0  0  0
   12.9200    4.1040   22.1460 C   0  0  0  0  0  0  0  0  0  0  0  0
    7.3640   -1.2500   21.8550 N   0  0  0  0  0  0  0  0  0  0  0  0
   11.2200    4.3580   24.2680 O   0  0  0  0  0  0  0  0  0  0  0  0
   11.1940    3.4860   23.4090 C   0  0  0  0  0  0  0  0  0  0  0  0
    8.7150    1.6360   21.0690 O   0  0  0  0  0  0  0  0  0  0  0  0
   10.4360    2.1690   23.5850 C   0  0  0  0  0  0  0  0  0  0  0  0
    8.9050    2.3750   23.7640 C   0  0  0  0  0  0  0  0  0  0  0  0
    7.9870    1.0940   21.9090 C   0  0  0  0  0  0  0  0  0  0  0  0
    6.8640    0.0940   21.5750 C   0  0  1  0  0  0  0  0  0  0  0  0
   12.6050   -2.0090   24.3490 C   0  0  0  0  0  0  0  0  0  0  0  0
   12.8440   -0.6330   24.9200 C   0  0  0  0  0  0  0  0  0  0  0  0
   13.4950   -2.1620   23.1310 C   0  0  0  0  0  0  0  0  0  0  0  0
   12.9840   -3.0860   25.3740 C   0  0  0  0  0  0  0  0  0  0  0  0
    1.1750   -8.5410   21.5900 C   0  0  0  0  0  0  0  0  0  0  0  0
    2.6310   -6.9350   22.8200 N   0  0  0  0  0  0  0  0  0  0  0  0
    0.1910   -6.5140   22.0600 O   0  0  0  0  0  0  0  0  0  0  0  0
    1.3800   -7.3060   22.1970 C   0  0  0  0  0  0  0  0  0  0  0  0
    2.4090   -8.0890   26.2870 N   0  0  0  0  0  0  0  0  0  0  0  0
    4.0090   -8.0750   24.5310 O   0  0  0  0  0  0  0  0  0  0  0  0
    2.8500   -5.6970   23.6240 C   0  0  1  0  0  0  0  0  0  0  0  0
    4.8780   -6.0670   22.3690 N   0  0  0  0  0  0  0  0  0  0  0  0
    3.0230   -6.1100   25.0850 C   0  0  0  0  0  0  0  0  0  0  0  0
    3.2140   -7.4760   25.2380 C   0  0  0  0  0  0  0  0  0  0  0  0
    4.2460   -5.2420   23.1630 C   0  0  0  0  0  0  0  0  0  0  0  0
    6.5120   -5.3710   20.4320 C   0  0  0  0  0  0  0  0  0  0  0  0
    5.6880   -6.3960   19.7700 C   0  0  0  0  0  0  0  0  0  0  0  0
    8.0090   -5.1430   22.5830 C   0  0  0  0  0  0  0  0  0  0  0  0
    5.1810   -2.9180   25.1160 N   0  0  0  0  0  0  0  0  0  0  0  0
    6.9070   -3.1480   26.6820 N   0  0  0  0  0  0  0  0  0  0  0  0
    5.9810   -2.5570   26.1840 C   0  0  0  0  0  0  0  0  0  0  0  0
    6.3220    0.4110   17.8440 N   0  0  0  0  0  0  0  0  0  0  0  0
    5.2840    1.2490   17.7840 C   0  0  0  0  0  0  0  0  0  0  0  0
    4.7310    1.7190   18.9660 C   0  0  0  0  0  0  0  0  0  0  0  0
    5.2660    1.3210   20.1800 C   0  0  0  0  0  0  0  0  0  0  0  0
    6.3580    0.4480   20.2420 C   0  0  0  0  0  0  0  0  0  0  0  0
    6.8640    0.0030   19.0330 C   0  0  0  0  0  0  0  0  0  0  0  0
    9.7360   -1.1740   21.8160 C   0  0  0  0  0  0  0  0  0  0  0  0
   11.1380   -1.3520   22.3970 C   0  0  0  0  0  0  0  0  0  0  0  0
   11.2450   -1.9010   23.8010 C   0  0  0  0  0  0  0  0  0  0  0  0
    9.9710   -2.2520   24.5110 C   0  0  0  0  0  0  0  0  0  0  0  0
    8.6110   -2.0630   23.9180 C   0  0  0  0  0  0  0  0  0  0  0  0
    8.6180   -1.4740   22.4730 C   0  0  0  0  0  0  0  0  0  0  0  0
    7.4980   -5.6920   24.8620 O   0  0  0  0  0  0  0  0  0  0  0  0
    8.4340   -5.7900   23.9280 C   0  0  2  0  0  0  0  0  0  0  0  0
    9.7820   -5.3270   24.6160 C   0  0  0  0  0  0  0  0  0  0  0  0
    9.8130   -5.1430   26.1100 C   0  0  0  0  0  0  0  0  0  0  0  0
    8.9920   -4.2850   26.7600 N   0  0  0  0  0  0  0  0  0  0  0  0
    7.6250   -4.2680   26.5560 C   0  0  2  0  0  0  0  0  0  0  0  0
    7.6090   -4.3200   25.0510 C   0  0  0  0  0  0  0  0  0  0  0  0
    6.4260   -3.4280   22.8780 N   0  0  0  0  0  0  0  0  0  0  0  0
    6.6050   -2.3640   22.2830 C   0  0  1  0  0  0  0  0  0  0  0  0
    5.5490   -2.0400   23.0040 C   0  0  0  0  0  0  0  0  0  0  0  0
    5.4690   -3.1530   23.7620 C   0  0  2  0  0  0  0  0  0  0  0  0
    5.3640   -4.4400   23.0430 C   0  0  0  0  0  0  0  0  0  0  0  0
    6.4010   -4.9340   22.3110 S   0  0  0  0  0  0  0  0  0  0  0  0
    6.0710   -1.0250   28.3000 C   0  0  0  0  0  0  0  0  0  0  0  0
    5.9280    0.2500   28.9390 C   0  0  0  0  0  0  0  0  0  0  0  0
    5.4930    1.4000   28.1760 C   0  0  0  0  0  0  0  0  0  0  0  0
    5.1790    1.3780   26.7880 C   0  0  0  0  0  0  0  0  0  0  0  0
    5.3130    0.0850   26.0720 C   0  0  0  0  0  0  0  0  0  0  0  0
    5.7760   -1.1830   26.8170 C   0  0  0  0  0  0  0  0  0  0  0  0
  2  4  1  0
  3  4  1  0
  3  7  1  0
  6  7  2  0
  7  9  1  0
  1 10  1  0
  9 10  1  0
  1 11  1  0
  8 11  2  0
  5 12  1  0
 12 11  1  6
 13 14  1  0
 13 15  1  0
 13 16  1  0
 17 20  1  0
 18 20  1  0
 19 20  2  0
 18 23  1  0
 23 25  1  1
 21 26  1  0
 22 26  2  0
 25 26  1  0
 23 27  1  0
 24 27  1  0
 28 29  2  3
 31 33  1  0
 32 33  2  0
 34 35  2  0
 35 36  1  0
 36 37  2  0
 12 38  1  0
 37 38  1  0
 34 39  1  0
 38 39  2  0
 40 41  2  0
 13 42  1  0
 41 42  1  0
 42 43  2  0
 43 44  1  0
  5 45  1  0
 40 45  1  0
 44 45  2  0
 47 30  1  6
 46 47  1  0
 47 48  1  0
 48 49  1  0
 49 50  1  0
 51 32  1  6
 50 51  1  0
 46 52  1  0
 51 52  1  0
 54  5  1  1
 53 54  1  0
 54 55  1  0
 31 56  1  0
 56 55  1  6
 27 57  2  0
 56 57  1  0
 24 58  1  0
 28 58  1  0
 30 58  1  0
 53 58  1  0
 57 58  1  0
 59 60  2  0
 60 61  1  0
 61 62  2  0
 62 63  1  0
 33 64  1  0
 59 64  1  0
 63 64  2  0
M  END
