x0981-x0769-x3110-x1077
     RDKit          3D

 64 69  0  0  0  0  0  0  0  0999 V2000
    8.1420    1.4480   23.2830 N   0  0  0  0  0  0  0  0  0  0  0  0
   13.2680    5.3520   21.8820 C   0  0  0  0  0  0  0  0  0  0  0  0
   12.0260    3.5580   22.4380 O   0  0  0  0  0  0  0  0  0  0  0  0
   13.0960    4.1460   22.6810 C   0  0  0  0  0  0  0  0  0  0  0  0
    7.6020   -1.3430   21.6750 N   0  0  0  0  0  0  0  0  0  0  0  0
   10.9670    4.5470   24.1860 O   0  0  0  0  0  0  0  0  0  0  0  0
   11.1260    3.5880   23.4490 C   0  0  0  0  0  0  0  0  0  0  0  0
    8.7340    1.7320   21.0840 O   0  0  0  0  0  0  0  0  0  0  0  0
   10.3450    2.3330   23.5720 C   0  0  0  0  0  0  0  0  0  0  0  0
    8.8900    2.5100   23.7430 C   0  0  0  0  0  0  0  0  0  0  0  0
    8.0510    1.1460   21.9300 C   0  0  0  0  0  0  0  0  0  0  0  0
    7.0400    0.0500   21.6320 C   0  0  1  0  0  0  0  0  0  0  0  0
   12.3740   -1.9150   24.3160 C   0  0  0  0  0  0  0  0  0  0  0  0
   12.6280   -0.6720   25.1350 C   0  0  0  0  0  0  0  0  0  0  0  0
   13.4690   -2.1020   23.2790 C   0  0  0  0  0  0  0  0  0  0  0  0
   12.2570   -3.1830   25.1590 C   0  0  0  0  0  0  0  0  0  0  0  0
    6.3350    0.2180   17.8720 N   0  0  0  0  0  0  0  0  0  0  0  0
    5.2720    1.0380   17.8450 C   0  0  0  0  0  0  0  0  0  0  0  0
    4.6300    1.6300   19.0010 C   0  0  0  0  0  0  0  0  0  0  0  0
    5.2240    1.2940   20.3450 C   0  0  0  0  0  0  0  0  0  0  0  0
    6.4010    0.3910   20.3040 C   0  0  0  0  0  0  0  0  0  0  0  0
    6.8620   -0.0800   19.0860 C   0  0  0  0  0  0  0  0  0  0  0  0
    9.9210   -1.1950   21.7450 C   0  0  0  0  0  0  0  0  0  0  0  0
   11.1250   -1.2940   22.2780 C   0  0  0  0  0  0  0  0  0  0  0  0
   11.0910   -1.7760   23.5730 C   0  0  0  0  0  0  0  0  0  0  0  0
    9.9360   -2.1280   24.2180 C   0  0  0  0  0  0  0  0  0  0  0  0
    8.6020   -2.0700   23.7250 C   0  0  0  0  0  0  0  0  0  0  0  0
    8.7760   -1.5450   22.4020 C   0  0  0  0  0  0  0  0  0  0  0  0
    1.2530   -8.7340   21.3100 C   0  0  0  0  0  0  0  0  0  0  0  0
    2.5780   -7.3580   22.6320 N   0  0  0  0  0  0  0  0  0  0  0  0
    0.4380   -6.7720   22.1960 O   0  0  0  0  0  0  0  0  0  0  0  0
    1.3670   -7.5680   22.0670 C   0  0  0  0  0  0  0  0  0  0  0  0
    2.2060   -8.2380   26.0260 N   0  0  0  0  0  0  0  0  0  0  0  0
    3.9010   -8.2040   24.5310 O   0  0  0  0  0  0  0  0  0  0  0  0
    2.8370   -6.2600   23.3280 C   0  0  1  0  0  0  0  0  0  0  0  0
    4.0850   -4.4970   22.3000 O   0  0  0  0  0  0  0  0  0  0  0  0
    2.4630   -6.4470   24.6410 C   0  0  0  0  0  0  0  0  0  0  0  0
    2.9270   -7.6830   25.0340 C   0  0  0  0  0  0  0  0  0  0  0  0
    6.4360   -5.2760   20.5020 C   0  0  0  0  0  0  0  0  0  0  0  0
    5.7220   -6.0730   19.9580 C   0  0  0  0  0  0  0  0  0  0  0  0
    6.1090   -4.6500   26.3370 N   0  0  0  0  0  0  0  0  0  0  0  0
    3.9130   -6.1600   26.2980 O   0  0  0  0  0  0  0  0  0  0  0  0
    5.4240   -2.0890   26.3560 F   0  0  0  0  0  0  0  0  0  0  0  0
    4.6600   -4.9100   25.8990 S   0  0  1  0  0  0  0  0  0  0  0  0
    7.2660   -5.3490   25.6130 N   0  0  0  0  0  0  0  0  0  0  0  0
    7.7460   -4.8040   24.2850 C   0  0  1  0  0  0  0  0  0  0  0  0
    8.8400   -5.3190   23.8360 C   0  0  0  0  0  0  0  0  0  0  0  0
    9.9280   -4.7630   24.5040 C   0  0  0  0  0  0  0  0  0  0  0  0
    9.5910   -3.7710   25.5130 N   0  0  0  0  0  0  0  0  0  0  0  0
    9.1040   -4.4060   26.7490 C   0  0  0  0  0  0  0  0  0  0  0  0
    8.3710   -5.5590   26.5610 C   0  0  0  0  0  0  0  0  0  0  0  0
    4.0990   -2.2830   26.2620 C   0  0  0  0  0  0  0  0  0  0  0  0
    3.5700   -3.5040   26.0640 C   0  0  0  0  0  0  0  0  0  0  0  0
    2.2170   -3.7380   25.9630 C   0  0  0  0  0  0  0  0  0  0  0  0
    1.3680   -2.6700   26.0670 C   0  0  0  0  0  0  0  0  0  0  0  0
    1.9230   -1.4030   26.2700 C   0  0  0  0  0  0  0  0  0  0  0  0
    3.2460   -1.1850   26.3690 C   0  0  0  0  0  0  0  0  0  0  0  0
    6.4410   -5.5190   21.9150 N   0  0  0  0  0  0  0  0  0  0  0  0
    5.3030   -6.4180   22.3780 C   0  0  0  0  0  0  0  0  0  0  0  0
    4.3300   -5.6840   23.1120 C   0  0  2  0  0  0  0  0  0  0  0  0
    4.9470   -4.9800   24.2280 N   0  0  0  0  0  0  0  0  0  0  0  0
    5.7030   -3.9160   23.5980 C   0  0  0  0  0  0  0  0  0  0  0  0
    6.6860   -4.6990   23.1630 C   0  0  1  0  0  0  0  0  0  0  0  0
    8.6970   -2.6110   25.1470 C   0  0  0  0  0  0  0  0  0  0  0  0
  2  4  1  0
  3  4  1  0
  3  7  1  0
  6  7  2  0
  7  9  1  0
  1 10  1  0
  9 10  1  0
  1 11  1  0
  8 11  2  0
 12  5  1  6
 11 12  1  0
 13 14  1  0
 13 15  1  0
 13 16  1  0
 17 18  2  0
 18 19  1  0
 19 20  2  0
 12 21  1  0
 20 21  1  0
 17 22  1  0
 21 22  2  0
 23 24  2  0
 13 25  1  0
 24 25  1  0
 25 26  2  0
 26 27  1  0
  5 28  1  0
 23 28  1  0
 27 28  2  0
 29 32  1  0
 30 32  1  0
 31 32  2  0
 30 35  1  0
 35 37  1  1
 33 38  1  0
 34 38  2  0
 37 38  1  0
 39 40  2  3
 41 44  2  0
 42 44  2  0
 41 45  1  0
 45 46  1  0
 46 47  1  6
 47 48  1  0
 48 49  1  0
 49 50  1  0
 45 51  1  0
 50 51  1  0
 43 52  1  0
 44 53  1  6
 52 53  2  0
 53 54  1  0
 54 55  2  0
 55 56  1  0
 52 57  1  0
 56 57  2  0
 39 58  1  0
 58 59  1  0
 35 60  1  0
 60 36  1  6
 59 60  1  0
 44 61  1  0
 60 61  1  0
 61 62  1  0
 46 63  1  0
 63 58  1  1
 62 63  1  0
 27 64  1  0
 49 64  1  0
M  END
