x0981-x1380-x2776-x1351
     RDKit          3D

 66 75  0  0  0  0  0  0  0  0999 V2000
    1.2380   -8.7340   21.3910 C   0  0  0  0  0  0  0  0  0  0  0  0
    2.7960   -7.2390   22.6750 N   0  0  0  0  0  0  0  0  0  0  0  0
    0.4080   -6.6180   22.2290 O   0  0  0  0  0  0  0  0  0  0  0  0
    1.5340   -7.4750   22.1590 C   0  0  0  0  0  0  0  0  0  0  0  0
    2.4060   -8.4930   26.2940 N   0  0  0  0  0  0  0  0  0  0  0  0
    3.9570   -8.2680   24.6460 O   0  0  0  0  0  0  0  0  0  0  0  0
    3.0250   -6.1440   23.6490 C   0  0  1  0  0  0  0  0  0  0  0  0
    4.2670   -5.1240   22.2070 N   0  0  0  0  0  0  0  0  0  0  0  0
    2.6530   -6.3910   25.0760 C   0  0  0  0  0  0  0  0  0  0  0  0
    3.0630   -7.8050   25.3200 C   0  0  0  0  0  0  0  0  0  0  0  0
    4.3380   -5.2130   23.5660 C   0  0  0  0  0  0  0  0  0  0  0  0
    6.7390   -4.8550   20.4590 C   0  0  0  0  0  0  0  0  0  0  0  0
    5.9890   -5.8340   20.0240 C   0  0  0  0  0  0  0  0  0  0  0  0
    7.4010   -1.4130   21.6890 N   0  0  0  0  0  0  0  0  0  0  0  0
    7.8360    1.9550   23.0030 N   0  0  0  0  0  0  0  0  0  0  0  0
    9.0610    1.3880   21.0500 O   0  0  0  0  0  0  0  0  0  0  0  0
   10.7870    6.7090   23.9870 O   0  0  0  0  0  0  0  0  0  0  0  0
    6.8850    0.0390   21.5210 C   0  0  1  0  0  0  0  0  0  0  0  0
   12.8550   -2.7770   24.4110 O   0  0  0  0  0  0  0  0  0  0  0  0
    7.9430    1.1190   21.8710 C   0  0  0  0  0  0  0  0  0  0  0  0
   10.4870    1.7990   23.8920 C   0  0  0  0  0  0  0  0  0  0  0  0
   11.8790    6.7750   24.8960 C   0  0  0  0  0  0  0  0  0  0  0  0
   12.4090   -1.4320   24.3720 C   0  0  1  0  0  0  0  0  0  0  0  0
   13.2070   -0.6870   23.3150 C   0  0  0  0  0  0  0  0  0  0  0  0
   13.2170   -3.2620   25.6890 C   0  0  0  0  0  0  0  0  0  0  0  0
    6.3090   -3.2270   25.3330 N   0  0  0  0  0  0  0  0  0  0  0  0
    7.9200   -3.0140   26.9030 N   0  0  0  0  0  0  0  0  0  0  0  0
    6.8270   -2.2620   26.2290 C   0  0  0  0  0  0  0  0  0  0  0  0
    4.2110   -4.6650   25.4080 O   0  0  0  0  0  0  0  0  0  0  0  0
    5.2700   -5.1000   25.8550 C   0  0  0  0  0  0  0  0  0  0  0  0
    6.3420    0.4110   17.8160 N   0  0  0  0  0  0  0  0  0  0  0  0
    5.2400    1.2260   17.7600 C   0  0  0  0  0  0  0  0  0  0  0  0
    4.6500    1.6470   18.9290 C   0  0  0  0  0  0  0  0  0  0  0  0
    5.1710    1.2620   20.1590 C   0  0  0  0  0  0  0  0  0  0  0  0
    6.2950    0.4420   20.2550 C   0  0  0  0  0  0  0  0  0  0  0  0
    6.8890    0.0010   18.9530 C   0  0  0  0  0  0  0  0  0  0  0  0
    9.8840    3.1330   23.6800 C   0  0  0  0  0  0  0  0  0  0  0  0
   10.5970    4.3140   23.9180 C   0  0  0  0  0  0  0  0  0  0  0  0
   10.0520    5.5830   23.7260 C   0  0  0  0  0  0  0  0  0  0  0  0
    8.7340    5.6210   23.2650 C   0  0  0  0  0  0  0  0  0  0  0  0
    8.0010    4.4460   23.0200 C   0  0  0  0  0  0  0  0  0  0  0  0
    8.5580    3.1890   23.2280 C   0  0  0  0  0  0  0  0  0  0  0  0
    9.7400   -2.0010   21.8620 C   0  0  0  0  0  0  0  0  0  0  0  0
   10.9130   -1.9900   22.5300 C   0  0  0  0  0  0  0  0  0  0  0  0
   11.0750   -1.4130   23.7460 C   0  0  0  0  0  0  0  0  0  0  0  0
    9.9690   -0.8230   24.3170 C   0  0  0  0  0  0  0  0  0  0  0  0
    8.7490   -0.8190   23.6360 C   0  0  0  0  0  0  0  0  0  0  0  0
    8.5980   -1.3930   22.4030 C   0  0  0  0  0  0  0  0  0  0  0  0
    5.9630   -2.8290   23.0210 N   0  0  0  0  0  0  0  0  0  0  0  0
    6.7960   -2.4990   22.1760 C   0  0  2  0  0  0  0  0  0  0  0  0
    7.5330   -3.1410   23.0990 C   0  0  0  0  0  0  0  0  0  0  0  0
    6.5850   -3.6780   23.8980 C   0  0  1  0  0  0  0  0  0  0  0  0
    5.3710   -4.4640   23.4110 C   0  0  0  0  0  0  0  0  0  0  0  0
    5.5530   -3.8830   21.6780 S   0  0  0  0  0  0  0  0  0  0  0  0
    5.8390   -0.7650   28.0790 C   0  0  0  0  0  0  0  0  0  0  0  0
    5.3480    0.4960   28.5840 C   0  0  0  0  0  0  0  0  0  0  0  0
    5.4320    1.5770   27.5370 C   0  0  0  0  0  0  0  0  0  0  0  0
    5.8750    1.4820   26.2910 C   0  0  0  0  0  0  0  0  0  0  0  0
    6.3750    0.1310   25.8150 C   0  0  0  0  0  0  0  0  0  0  0  0
    6.3760   -0.9430   26.6230 C   0  0  0  0  0  0  0  0  0  0  0  0
    7.7900   -4.3070   26.4030 C   0  0  1  0  0  0  0  0  0  0  0  0
    8.0840   -5.3240   27.2700 C   0  0  0  0  0  0  0  0  0  0  0  0
    7.4400   -5.2920   28.4800 C   0  0  0  0  0  0  0  0  0  0  0  0
    6.1130   -4.8580   28.4940 C   0  0  0  0  0  0  0  0  0  0  0  0
    5.9150   -3.5810   27.6980 C   0  0  0  0  0  0  0  0  0  0  0  0
    6.2620   -4.1080   26.4410 C   0  0  1  0  0  0  0  0  0  0  0  0
  1  4  1  0
  2  4  1  0
  3  4  2  0
  2  7  1  0
  7  9  1  1
  5 10  1  0
  6 10  2  0
  9 10  1  0
  7 11  1  0
  8 11  1  0
 12 13  2  3
 14 18  1  0
 15 20  1  0
 16 20  2  0
 18 20  1  6
 17 22  1  0
 19 23  1  0
 23 24  1  6
 19 25  1  0
 26 28  1  0
 27 28  2  0
 29 30  2  0
 31 32  2  0
 32 33  1  0
 33 34  2  0
 18 35  1  0
 34 35  1  0
 31 36  1  0
 35 36  2  0
 21 37  1  0
 37 38  2  0
 17 39  1  0
 38 39  1  0
 39 40  2  0
 40 41  1  0
 15 42  1  0
 37 42  1  0
 41 42  2  0
 43 44  2  0
 23 45  1  0
 44 45  1  0
 45 46  2  0
 46 47  1  0
 14 48  1  0
 43 48  1  0
 47 48  2  0
 50 14  1  6
 49 50  1  0
 50 51  1  0
 52 26  1  1
 49 52  1  0
 51 52  1  0
 11 53  2  0
 52 53  1  0
  8 54  1  0
 12 54  1  0
 49 54  1  0
 50 54  1  0
 53 54  1  0
 55 56  2  0
 56 57  1  0
 57 58  2  0
 58 59  1  0
 28 60  1  0
 55 60  1  0
 59 60  2  0
 27 61  1  0
 61 62  1  1
 62 63  1  0
 63 64  1  0
 64 65  1  0
 26 66  1  0
 66 30  1  6
 61 66  1  0
 65 66  1  0
M  END
