x0981-x0978-x0755-x3110-x3113
     RDKit          3D

 68 71  0  0  0  0  0  0  0  0999 V2000
    8.0170    2.0850   23.4240 N   0  0  0  0  0  0  0  0  0  0  0  0
   13.3420    5.2650   22.9630 C   0  0  0  0  0  0  0  0  0  0  0  0
   12.0460    3.5340   22.2080 O   0  0  0  0  0  0  0  0  0  0  0  0
   12.4960    4.6150   21.8400 C   0  0  0  0  0  0  0  0  0  0  0  0
    6.7790   -0.6230   22.3840 N   0  0  0  0  0  0  0  0  0  0  0  0
   10.8230    4.5680   23.8720 O   0  0  0  0  0  0  0  0  0  0  0  0
   11.1400    3.5730   23.2250 C   0  0  0  0  0  0  0  0  0  0  0  0
    8.7330    2.0080   21.2440 O   0  0  0  0  0  0  0  0  0  0  0  0
   10.5670    2.1420   23.4330 C   0  0  0  0  0  0  0  0  0  0  0  0
    9.2550    2.0510   24.1940 C   0  0  0  0  0  0  0  0  0  0  0  0
    7.9200    1.6640   22.1180 C   0  0  0  0  0  0  0  0  0  0  0  0
    6.7250    0.7380   21.7940 C   0  0  1  0  0  0  0  0  0  0  0  0
   12.3280   -1.7850   23.7920 C   0  0  0  0  0  0  0  0  0  0  0  0
   12.7940   -0.5160   24.4900 C   0  0  0  0  0  0  0  0  0  0  0  0
   13.2660   -2.1030   22.6260 C   0  0  0  0  0  0  0  0  0  0  0  0
   12.5310   -2.8820   24.7580 C   0  0  0  0  0  0  0  0  0  0  0  0
   -0.4210   -6.5300   21.4320 C   0  0  0  0  0  0  0  0  0  0  0  0
    1.5660   -5.6640   22.7480 N   0  0  0  0  0  0  0  0  0  0  0  0
   -0.5960   -4.9420   23.1280 O   0  0  0  0  0  0  0  0  0  0  0  0
    0.1800   -5.6500   22.5050 C   0  0  0  0  0  0  0  0  0  0  0  0
    1.0520   -6.6710   26.7940 N   0  0  0  0  0  0  0  0  0  0  0  0
    3.2700   -6.5020   26.4240 O   0  0  0  0  0  0  0  0  0  0  0  0
    2.4680   -5.1620   23.6470 C   0  0  1  0  0  0  0  0  0  0  0  0
    1.9240   -4.9500   25.0450 C   0  0  0  0  0  0  0  0  0  0  0  0
    2.1450   -6.0900   26.1250 C   0  0  0  0  0  0  0  0  0  0  0  0
    6.3060   -5.0520   20.2760 C   0  0  0  0  0  0  0  0  0  0  0  0
    5.7170   -6.1590   19.8520 C   0  0  0  0  0  0  0  0  0  0  0  0
    5.9320   -1.5840   21.7150 C   0  0  0  0  0  0  0  0  0  0  0  0
    5.6850   -2.8450   22.5490 C   0  0  0  0  0  0  0  0  0  0  0  0
    2.6230   -7.6570   22.7450 N   0  0  0  0  0  0  0  0  0  0  0  0
    1.7970   -8.8880   24.7280 C   0  0  0  0  0  0  0  0  0  0  0  0
    3.4790   -8.6510   25.6680 O   0  0  0  0  0  0  0  0  0  0  0  0
    2.7790   -7.9580   24.8720 C   0  0  1  0  0  0  0  0  0  0  0  0
    0.7130   -8.6470   21.7670 O   0  0  0  0  0  0  0  0  0  0  0  0
    3.2960   -7.2240   23.8180 C   0  0  2  0  0  0  0  0  0  0  0  0
    1.2300   -7.9580   22.7090 C   0  0  0  0  0  0  0  0  0  0  0  0
    0.2590   -7.5810   23.6430 C   0  0  0  0  0  0  0  0  0  0  0  0
    7.5620   -4.1100   23.4850 C   0  0  0  0  0  0  0  0  0  0  0  0
    8.5240   -3.3520   22.8620 C   0  0  0  0  0  0  0  0  0  0  0  0
    4.3160   -4.9880   27.4190 O   0  0  0  0  0  0  0  0  0  0  0  0
    5.9120   -3.7660   26.6780 O   0  0  0  0  0  0  0  0  0  0  0  0
    1.6760   -4.2430   27.2540 F   0  0  0  0  0  0  0  0  0  0  0  0
    5.1620   -1.3040   25.5060 F   0  0  0  0  0  0  0  0  0  0  0  0
    4.5530   -4.3030   26.1700 S   0  0  0  0  0  0  0  0  0  0  0  0
    6.2270    0.3950   18.0560 N   0  0  0  0  0  0  0  0  0  0  0  0
    5.2260    1.2570   17.8580 C   0  0  0  0  0  0  0  0  0  0  0  0
    4.6380    1.9980   18.8930 C   0  0  0  0  0  0  0  0  0  0  0  0
    5.1420    1.8110   20.1660 C   0  0  0  0  0  0  0  0  0  0  0  0
    6.1820    0.9260   20.3890 C   0  0  0  0  0  0  0  0  0  0  0  0
    6.7010    0.2300   19.3010 C   0  0  0  0  0  0  0  0  0  0  0  0
    9.0500   -1.3020   21.7150 C   0  0  0  0  0  0  0  0  0  0  0  0
   10.5870   -1.6400   22.0300 C   0  0  0  0  0  0  0  0  0  0  0  0
   10.9390   -1.5300   23.3760 C   0  0  0  0  0  0  0  0  0  0  0  0
   10.0180   -1.1690   24.3460 C   0  0  0  0  0  0  0  0  0  0  0  0
    8.7030   -0.8940   24.0060 C   0  0  0  0  0  0  0  0  0  0  0  0
    8.1800   -0.9390   22.7310 C   0  0  0  0  0  0  0  0  0  0  0  0
    2.1860   -3.0180   26.8640 C   0  0  0  0  0  0  0  0  0  0  0  0
    3.4650   -2.9450   26.3770 C   0  0  0  0  0  0  0  0  0  0  0  0
    3.9000   -1.5580   26.0060 C   0  0  0  0  0  0  0  0  0  0  0  0
    2.8890   -0.3980   26.1940 C   0  0  0  0  0  0  0  0  0  0  0  0
    1.5710   -0.4860   26.6900 C   0  0  0  0  0  0  0  0  0  0  0  0
    1.3000   -1.9710   27.0250 C   0  0  0  0  0  0  0  0  0  0  0  0
    6.1450   -4.7700   22.2150 S   0  0  0  0  0  0  0  0  0  0  0  0
    6.2370   -6.0410   23.4870 C   0  0  0  0  0  0  0  0  0  0  0  0
    5.6370   -5.8590   24.7050 C   0  0  0  0  0  0  0  0  0  0  0  0
    4.4270   -5.3070   24.9770 N   0  0  0  0  0  0  0  0  0  0  0  0
    3.8210   -5.8140   23.8470 C   0  0  2  0  0  0  0  0  0  0  0  0
    4.5930   -5.5090   22.6720 C   0  0  0  0  0  0  0  0  0  0  0  0
  2  4  1  0
  3  4  1  0
  3  7  1  0
  6  7  2  0
  7  9  1  0
  1 10  1  0
  9 10  1  0
  1 11  1  0
  8 11  2  0
  5 12  1  0
 12 11  1  6
 13 14  1  0
 13 15  1  0
 13 16  1  0
 17 20  1  0
 18 20  1  0
 19 20  2  0
 18 23  1  0
 23 24  1  1
 21 25  1  0
 22 25  2  0
 24 25  1  0
 26 27  2  3
  5 28  1  0
 28 29  1  0
 33 31  1  6
 32 33  1  0
 35 30  1  6
 33 35  1  0
 30 36  1  0
 34 36  2  0
 36 37  1  0
 38 39  2  3
 40 44  2  0
 41 44  2  0
 45 46  2  0
 46 47  1  0
 47 48  2  0
 12 49  1  0
 48 49  1  0
 45 50  1  0
 49 50  2  0
 51 52  2  0
 13 53  1  0
 52 53  1  0
 53 54  2  0
 54 55  1  0
  5 56  1  0
 51 56  1  0
 55 56  2  0
 42 57  1  0
 44 58  1  0
 57 58  2  0
 43 59  1  0
 58 59  1  0
 59 60  2  0
 60 61  1  0
 57 62  1  0
 61 62  2  0
 26 63  1  0
 29 63  1  0
 38 63  1  0
 63 64  1  0
 64 65  1  0
 44 66  1  0
 65 66  1  0
 23 67  1  0
 35 67  1  0
 67 66  1  0
 63 68  1  0
 67 68  1  6
M  END
