x0981-x2119
     RDKit          3D

 20 20  0  0  0  0  0  0  0  0999 V2000
    1.1790   -8.7210   21.3900 C   0  0  0  0  0  0  0  0  0  0  0  0
    2.7630   -7.1630   22.7550 N   0  0  0  0  0  0  0  0  0  0  0  0
    0.2900   -6.5520   22.1780 O   0  0  0  0  0  0  0  0  0  0  0  0
    1.4310   -7.4170   22.1590 C   0  0  0  0  0  0  0  0  0  0  0  0
    2.4440   -8.2400   26.4540 N   0  0  0  0  0  0  0  0  0  0  0  0
    3.9980   -8.2370   24.6510 O   0  0  0  0  0  0  0  0  0  0  0  0
    3.0340   -5.9340   23.5260 C   0  0  1  0  0  0  0  0  0  0  0  0
    5.2050   -5.9460   22.2870 N   0  0  0  0  0  0  0  0  0  0  0  0
    4.9990   -4.6460   24.1100 O   0  0  0  0  0  0  0  0  0  0  0  0
    2.7670   -6.2270   24.8610 C   0  0  0  0  0  0  0  0  0  0  0  0
    3.1490   -7.6440   25.2760 C   0  0  0  0  0  0  0  0  0  0  0  0
    4.5040   -5.4580   23.3270 C   0  0  0  0  0  0  0  0  0  0  0  0
    6.4240   -5.1210   21.8460 C   0  0  1  0  0  0  0  0  0  0  0  0
    6.6310   -5.3680   20.3710 C   0  0  0  0  0  0  0  0  0  0  0  0
    5.7880   -6.2190   19.8390 C   0  0  0  0  0  0  0  0  0  0  0  0
    6.2950   -3.5910   22.1520 C   0  0  0  0  0  0  0  0  0  0  0  0
    5.1950   -3.0060   22.4930 N   0  0  0  0  0  0  0  0  0  0  0  0
    5.3740   -1.6960   22.7000 C   0  0  0  0  0  0  0  0  0  0  0  0
    6.6860   -1.3460   22.4890 C   0  0  0  0  0  0  0  0  0  0  0  0
    7.3260   -2.6160   22.1180 N   0  0  0  0  0  0  0  0  0  0  0  0
  1  4  1  0
  2  4  1  0
  3  4  2  0
  2  7  1  0
  7 10  1  1
  5 11  1  0
  6 11  2  0
 10 11  1  0
  7 12  1  0
  8 12  1  0
  9 12  2  0
  8 13  1  0
 13 14  1  6
 14 15  2  3
 13 16  1  0
 16 17  1  0
 17 18  1  0
 18 19  2  0
 16 20  2  0
 19 20  1  0
M  END
