x0981-x0072
     RDKit          3D

 30 30  0  0  0  0  0  0  0  0999 V2000
    1.2010   -8.8280   21.1650 C   0  0  0  0  0  0  0  0  0  0  0  0
    2.6120   -7.2870   22.6670 N   0  0  0  0  0  0  0  0  0  0  0  0
    0.1410   -6.7740   22.0540 O   0  0  0  0  0  0  0  0  0  0  0  0
    1.3280   -7.5670   22.0170 C   0  0  0  0  0  0  0  0  0  0  0  0
    2.2850   -8.2050   26.4510 N   0  0  0  0  0  0  0  0  0  0  0  0
    3.8600   -8.2300   24.6730 O   0  0  0  0  0  0  0  0  0  0  0  0
    2.7930   -6.0360   23.3920 C   0  0  1  0  0  0  0  0  0  0  0  0
    5.0850   -5.9790   22.3370 N   0  0  0  0  0  0  0  0  0  0  0  0
    4.5940   -4.7270   24.4280 N   0  0  0  0  0  0  0  0  0  0  0  0
    2.4520   -6.2960   24.7150 C   0  0  0  0  0  0  0  0  0  0  0  0
    2.9560   -7.6470   25.2350 C   0  0  0  0  0  0  0  0  0  0  0  0
    4.2510   -5.5750   23.3240 C   0  0  0  0  0  0  0  0  0  0  0  0
    6.1430   -4.9770   21.8590 C   0  0  0  0  0  0  0  0  0  0  0  0
    6.3400   -5.1470   20.3550 C   0  0  0  0  0  0  0  0  0  0  0  0
    5.7240   -6.2010   19.8610 C   0  0  0  0  0  0  0  0  0  0  0  0
    6.9600   -5.0470   26.6150 C   0  0  0  0  0  0  0  0  0  0  0  0
    8.5840   -4.6730   26.3110 S   0  0  0  0  0  0  0  0  0  0  0  0
    9.2950   -5.8590   25.9350 O   0  0  0  0  0  0  0  0  0  0  0  0
    9.0340   -3.8270   27.3760 O   0  0  0  0  0  0  0  0  0  0  0  0
    8.4130   -3.7270   24.9080 N   0  0  0  0  0  0  0  0  0  0  0  0
    9.4760   -2.9900   24.5330 C   0  0  0  0  0  0  0  0  0  0  0  0
    9.3520   -2.1380   23.4380 C   0  0  0  0  0  0  0  0  0  0  0  0
    5.8940   -4.1810   24.6800 C   0  0  0  0  0  0  0  0  0  0  0  0
    5.9830   -4.2120   26.0620 C   0  0  0  0  0  0  0  0  0  0  0  0
   10.6230   -1.3990   23.2920 C   0  0  0  0  0  0  0  0  0  0  0  0
   11.6040   -1.8920   22.4170 C   0  0  0  0  0  0  0  0  0  0  0  0
   12.9360   -1.1580   22.2380 C   0  0  0  0  0  0  0  0  0  0  0  0
   13.0840    0.0020   22.9860 C   0  0  0  0  0  0  0  0  0  0  0  0
   12.1020    0.4550   23.8330 C   0  0  0  0  0  0  0  0  0  0  0  0
   10.8980   -0.2190   23.9940 C   0  0  0  0  0  0  0  0  0  0  0  0
  1  4  1  0
  2  4  1  0
  3  4  2  0
  2  7  1  0
  7 10  1  1
  5 11  1  0
  6 11  2  0
 10 11  1  0
  7 12  1  0
  8 12  1  0
  9 12  2  3
  8 13  1  0
 13 14  1  0
 14 15  2  3
 16 17  1  0
 17 18  2  0
 17 19  2  0
 17 20  1  0
 20 21  1  0
 21 22  1  0
  9 23  1  0
 16 24  1  0
 23 24  1  0
 22 25  1  0
 25 26  2  0
 26 27  1  0
 27 28  2  0
 28 29  1  0
 25 30  1  0
 29 30  2  0
M  END
