x0981-x0978
     RDKit          3D

 16 15  0  0  0  0  0  0  0  0999 V2000
    0.9230   -8.5370   21.7580 C   0  0  0  0  0  0  0  0  0  0  0  0
    2.5510   -6.9100   22.7350 N   0  0  0  0  0  0  0  0  0  0  0  0
    0.3560   -6.2580   21.5560 O   0  0  0  0  0  0  0  0  0  0  0  0
    1.1200   -7.1360   22.3620 C   0  0  0  0  0  0  0  0  0  0  0  0
    2.4400   -8.3320   26.3680 N   0  0  0  0  0  0  0  0  0  0  0  0
    4.0270   -8.1930   24.6050 O   0  0  0  0  0  0  0  0  0  0  0  0
    2.9460   -5.8090   23.6290 C   0  0  1  0  0  0  0  0  0  0  0  0
    5.0550   -5.8490   22.2890 N   0  0  0  0  0  0  0  0  0  0  0  0
    4.9070   -4.4420   24.0260 O   0  0  0  0  0  0  0  0  0  0  0  0
    2.7870   -6.1960   24.9560 C   0  0  0  0  0  0  0  0  0  0  0  0
    3.1660   -7.6470   25.2550 C   0  0  0  0  0  0  0  0  0  0  0  0
    4.3890   -5.3160   23.3250 C   0  0  0  0  0  0  0  0  0  0  0  0
    6.2680   -5.0290   21.8610 C   0  0  0  0  0  0  0  0  0  0  0  0
    6.3930   -5.1620   20.3530 C   0  0  0  0  0  0  0  0  0  0  0  0
    5.7330   -6.1950   19.8580 C   0  0  0  0  0  0  0  0  0  0  0  0
    0.3730   -6.8510   23.6620 C   0  0  0  0  0  0  0  0  0  0  0  0
  1  4  1  0
  2  4  1  0
  4  3  1  0
  2  7  1  0
  7 10  1  1
  5 11  1  0
  6 11  2  0
 10 11  1  0
  7 12  1  0
  8 12  1  0
  9 12  2  0
  8 13  1  0
 13 14  1  0
 14 15  2  3
  4 16  1  0
M  END
