x0981-x0830
     RDKit          3D

 33 35  0  0  0  0  0  0  0  0999 V2000
    1.1840   -8.7370   21.3590 C   0  0  0  0  0  0  0  0  0  0  0  0
    2.7250   -7.1640   22.7530 N   0  0  0  0  0  0  0  0  0  0  0  0
    0.2500   -6.5920   22.1600 O   0  0  0  0  0  0  0  0  0  0  0  0
    1.4030   -7.4380   22.1430 C   0  0  0  0  0  0  0  0  0  0  0  0
    2.4780   -8.2690   26.4510 N   0  0  0  0  0  0  0  0  0  0  0  0
    3.9880   -8.2320   24.6210 O   0  0  0  0  0  0  0  0  0  0  0  0
    2.9540   -5.9340   23.5300 C   0  0  1  0  0  0  0  0  0  0  0  0
    5.0440   -5.7450   22.1820 N   0  0  0  0  0  0  0  0  0  0  0  0
    4.8940   -4.6120   24.1150 O   0  0  0  0  0  0  0  0  0  0  0  0
    2.7330   -6.2360   24.8700 C   0  0  0  0  0  0  0  0  0  0  0  0
    3.1460   -7.6530   25.2620 C   0  0  0  0  0  0  0  0  0  0  0  0
    4.3860   -5.3770   23.2960 C   0  0  0  0  0  0  0  0  0  0  0  0
    5.8090   -4.6070   21.5210 C   0  0  2  0  0  0  0  0  0  0  0  0
    6.2890   -5.0420   20.1530 C   0  0  0  0  0  0  0  0  0  0  0  0
    5.7890   -6.2000   19.7940 C   0  0  0  0  0  0  0  0  0  0  0  0
   10.0040   -2.5280   23.7780 C   0  0  0  0  0  0  0  0  0  0  0  0
    6.8780   -4.0600   22.4580 C   0  0  0  0  0  0  0  0  0  0  0  0
    6.6770   -2.1280   21.4480 N   0  0  0  0  0  0  0  0  0  0  0  0
    6.6990   -2.7170   22.7730 C   0  0  2  0  0  0  0  0  0  0  0  0
    7.6930   -2.3050   23.5910 C   0  0  0  0  0  0  0  0  0  0  0  0
    8.9750   -2.4830   22.8690 N   0  0  0  0  0  0  0  0  0  0  0  0
    9.0660   -1.5410   21.8910 C   0  0  0  0  0  0  0  0  0  0  0  0
    7.8920   -1.3720   21.1340 C   0  0  0  0  0  0  0  0  0  0  0  0
   12.2080   -1.9610   22.7590 C   0  0  0  0  0  0  0  0  0  0  0  0
   13.2260   -0.9200   22.4030 C   0  0  0  0  0  0  0  0  0  0  0  0
   12.9530    0.3760   22.7490 C   0  0  0  0  0  0  0  0  0  0  0  0
   11.8120    0.7680   23.3850 C   0  0  0  0  0  0  0  0  0  0  0  0
   10.8630   -0.1770   23.7390 C   0  0  0  0  0  0  0  0  0  0  0  0
   11.0660   -1.5300   23.4170 C   0  0  0  0  0  0  0  0  0  0  0  0
   11.5670    2.1950   23.6910 C   0  0  0  0  0  0  0  0  0  0  0  0
   10.3920    2.5430   24.3340 C   0  0  0  0  0  0  0  0  0  0  0  0
    9.4880    1.5790   24.6920 C   0  0  0  0  0  0  0  0  0  0  0  0
    9.7110    0.2450   24.4040 C   0  0  0  0  0  0  0  0  0  0  0  0
  1  4  1  0
  2  4  1  0
  3  4  2  0
  2  7  1  0
  7 10  1  1
  5 11  1  0
  6 11  2  0
 10 11  1  0
  7 12  1  0
  8 12  1  0
  9 12  2  0
  8 13  1  0
 13 14  1  6
 14 15  2  3
 13 17  1  0
 19 17  1  6
 18 19  1  0
 19 20  1  0
 16 21  1  0
 20 21  1  0
 21 22  1  0
 18 23  1  0
 22 23  1  0
 24 25  2  0
 25 26  1  0
 26 27  2  0
 27 28  1  0
 16 29  1  0
 24 29  1  0
 28 29  2  0
 27 30  1  0
 30 31  2  0
 31 32  1  0
 28 33  1  0
 32 33  2  0
M  END
