x0981-x0755-x0731-x3113
     RDKit          3D

 56 59  0  0  0  0  0  0  0  0999 V2000
    1.2890   -8.6080   21.5190 C   0  0  0  0  0  0  0  0  0  0  0  0
    2.7740   -7.0180   22.7110 N   0  0  0  0  0  0  0  0  0  0  0  0
    0.5730   -6.4850   22.3320 O   0  0  0  0  0  0  0  0  0  0  0  0
    1.4970   -7.2880   22.2260 C   0  0  0  0  0  0  0  0  0  0  0  0
    2.3670   -8.5050   26.2380 N   0  0  0  0  0  0  0  0  0  0  0  0
    3.9290   -8.2440   24.5600 O   0  0  0  0  0  0  0  0  0  0  0  0
    3.0310   -5.8450   23.5970 C   0  0  1  0  0  0  0  0  0  0  0  0
    2.6340   -6.3320   24.9990 C   0  0  0  0  0  0  0  0  0  0  0  0
    3.0360   -7.7950   25.2510 C   0  0  0  0  0  0  0  0  0  0  0  0
    6.6540   -5.1090   20.3890 C   0  0  0  0  0  0  0  0  0  0  0  0
    5.7640   -6.1980   19.8530 C   0  0  0  0  0  0  0  0  0  0  0  0
    4.5670   -6.2690   26.6840 O   0  0  0  0  0  0  0  0  0  0  0  0
    6.3510   -4.5380   26.7250 O   0  0  0  0  0  0  0  0  0  0  0  0
    5.5570   -2.0810   26.1300 F   0  0  0  0  0  0  0  0  0  0  0  0
    5.1660   -5.0850   26.1200 S   0  0  0  0  0  0  0  0  0  0  0  0
    0.8540   -0.7100   26.0510 C   0  0  0  0  0  0  0  0  0  0  0  0
    7.4570   -1.2680   21.8180 N   0  0  0  0  0  0  0  0  0  0  0  0
    8.3480    1.7160   23.2050 N   0  0  0  0  0  0  0  0  0  0  0  0
    8.8780    1.6990   21.0860 O   0  0  0  0  0  0  0  0  0  0  0  0
   11.7950    4.1110   23.3250 O   0  0  0  0  0  0  0  0  0  0  0  0
    7.0410    0.1580   21.6920 C   0  0  1  0  0  0  0  0  0  0  0  0
    8.1480    1.2140   21.9530 C   0  0  0  0  0  0  0  0  0  0  0  0
    9.4050    2.6590   23.5200 C   0  0  0  0  0  0  0  0  0  0  0  0
   10.7280    1.9060   23.5610 C   0  0  0  0  0  0  0  0  0  0  0  0
   11.9010    2.7230   23.0450 C   0  0  0  0  0  0  0  0  0  0  0  0
   12.9660    4.8090   22.8940 C   0  0  0  0  0  0  0  0  0  0  0  0
   12.5730   -2.1010   24.3720 C   0  0  0  0  0  0  0  0  0  0  0  0
   13.4950   -2.3190   23.1820 C   0  0  0  0  0  0  0  0  0  0  0  0
   12.9610   -3.1470   25.4260 C   0  0  0  0  0  0  0  0  0  0  0  0
   12.8050   -0.7140   24.9850 C   0  0  0  0  0  0  0  0  0  0  0  0
    6.9870   -3.4090   22.3250 C   0  0  0  0  0  0  0  0  0  0  0  0
    6.4050   -2.2880   21.8160 C   0  0  0  0  0  0  0  0  0  0  0  0
    2.5630   -4.1190   26.0500 C   0  0  0  0  0  0  0  0  0  0  0  0
    3.9310   -3.8090   26.0850 C   0  0  0  0  0  0  0  0  0  0  0  0
    4.2790   -2.4700   26.0970 C   0  0  0  0  0  0  0  0  0  0  0  0
    3.3030   -1.4760   26.0800 C   0  0  0  0  0  0  0  0  0  0  0  0
    1.9090   -1.7690   26.0530 C   0  0  0  0  0  0  0  0  0  0  0  0
    1.5950   -3.1180   26.0340 C   0  0  0  0  0  0  0  0  0  0  0  0
    6.4990   -4.8250   21.9000 C   0  0  2  0  0  0  0  0  0  0  0  0
    7.1060   -5.6750   22.8000 C   0  0  0  0  0  0  0  0  0  0  0  0
    6.9220   -5.3250   24.1250 C   0  0  0  0  0  0  0  0  0  0  0  0
    5.4900   -5.4720   24.5030 N   0  0  0  0  0  0  0  0  0  0  0  0
    4.4430   -5.0830   23.4830 C   0  0  1  0  0  0  0  0  0  0  0  0
    4.9710   -4.9440   22.1910 C   0  0  0  0  0  0  0  0  0  0  0  0
    6.3140    0.2240   17.8770 N   0  0  0  0  0  0  0  0  0  0  0  0
    5.2260    1.0210   17.8820 C   0  0  0  0  0  0  0  0  0  0  0  0
    4.6360    1.5700   18.9950 C   0  0  0  0  0  0  0  0  0  0  0  0
    5.2550    1.2700   20.3370 C   0  0  0  0  0  0  0  0  0  0  0  0
    6.3820    0.4590   20.3800 C   0  0  0  0  0  0  0  0  0  0  0  0
    6.8950   -0.0710   19.0500 C   0  0  0  0  0  0  0  0  0  0  0  0
    9.8560   -1.2750   21.7980 C   0  0  0  0  0  0  0  0  0  0  0  0
   11.0860   -1.4700   22.3760 C   0  0  0  0  0  0  0  0  0  0  0  0
   11.1800   -1.9620   23.8070 C   0  0  0  0  0  0  0  0  0  0  0  0
    9.9690   -2.2060   24.4440 C   0  0  0  0  0  0  0  0  0  0  0  0
    8.7420   -1.9860   23.7870 C   0  0  0  0  0  0  0  0  0  0  0  0
    8.6720   -1.5130   22.4640 C   0  0  0  0  0  0  0  0  0  0  0  0
  1  4  1  0
  2  4  1  0
  3  4  2  0
  2  7  1  0
  7  8  1  1
  5  9  1  0
  6  9  2  0
  8  9  1  0
 10 11  2  3
 12 15  2  0
 13 15  2  0
 17 21  1  0
 18 22  1  0
 19 22  2  0
 21 22  1  6
 18 23  1  0
 23 24  1  0
 20 25  1  0
 24 25  1  0
 20 26  1  0
 27 28  1  0
 27 29  1  0
 27 30  1  0
 17 32  1  0
 31 32  1  0
 15 34  1  0
 33 34  2  0
 14 35  1  0
 34 35  1  0
 35 36  2  0
 16 37  1  0
 36 37  1  0
 33 38  1  0
 37 38  2  0
 39 10  1  6
 31 39  1  0
 39 40  1  0
 40 41  1  0
 15 42  1  0
 41 42  1  0
  7 43  1  0
 42 43  1  0
 39 44  1  0
 43 44  1  6
 45 46  2  0
 46 47  1  0
 47 48  2  0
 21 49  1  0
 48 49  1  0
 45 50  1  0
 49 50  2  0
 51 52  2  0
 27 53  1  0
 52 53  1  0
 53 54  2  0
 54 55  1  0
 17 56  1  0
 51 56  1  0
 55 56  2  0
M  END
