x0981-x3124-x1402
     RDKit          3D

 50 54  0  0  0  0  0  0  0  0999 V2000
    1.2890   -8.6920   21.4620 C   0  0  0  0  0  0  0  0  0  0  0  0
    2.9700   -7.1840   22.6460 N   0  0  0  0  0  0  0  0  0  0  0  0
    0.6890   -6.6440   22.3750 O   0  0  0  0  0  0  0  0  0  0  0  0
    1.6540   -7.3970   22.2320 C   0  0  0  0  0  0  0  0  0  0  0  0
    2.6970   -8.3900   26.6140 N   0  0  0  0  0  0  0  0  0  0  0  0
    3.0140   -9.0500   24.4890 O   0  0  0  0  0  0  0  0  0  0  0  0
    3.2760   -6.1980   23.6510 C   0  0  1  0  0  0  0  0  0  0  0  0
    3.3870   -3.9170   23.4270 O   0  0  0  0  0  0  0  0  0  0  0  0
    3.5850   -6.8100   24.9990 C   0  0  0  0  0  0  0  0  0  0  0  0
    3.0820   -8.2050   25.3330 C   0  0  0  0  0  0  0  0  0  0  0  0
    6.7130   -5.1920   20.4920 C   0  0  0  0  0  0  0  0  0  0  0  0
    5.7920   -6.2040   19.9060 C   0  0  0  0  0  0  0  0  0  0  0  0
    2.1360   -0.6420   26.0940 Cl  0  0  0  0  0  0  0  0  0  0  0  0
    4.8420   -5.7810   27.3850 O   0  0  0  0  0  0  0  0  0  0  0  0
    4.4040   -5.5620   26.0320 S   0  0  1  0  0  0  0  0  0  0  0  0
    7.2370   -1.2850   21.6420 N   0  0  0  0  0  0  0  0  0  0  0  0
    8.0060    1.5260   23.3020 N   0  0  0  0  0  0  0  0  0  0  0  0
    8.7470    1.6210   21.1470 O   0  0  0  0  0  0  0  0  0  0  0  0
    6.8170    0.1590   21.6300 C   0  0  1  0  0  0  0  0  0  0  0  0
    7.9540    1.1480   21.9730 C   0  0  0  0  0  0  0  0  0  0  0  0
    8.8820    2.5990   23.7000 C   0  0  0  0  0  0  0  0  0  0  0  0
   12.5470   -1.9970   24.3210 C   0  0  0  0  0  0  0  0  0  0  0  0
   12.7570   -0.6160   24.9520 C   0  0  0  0  0  0  0  0  0  0  0  0
   13.4420   -2.1970   23.1240 C   0  0  0  0  0  0  0  0  0  0  0  0
   12.9740   -3.0510   25.3490 C   0  0  0  0  0  0  0  0  0  0  0  0
    6.8910   -3.4080   22.3480 C   0  0  0  0  0  0  0  0  0  0  0  0
    6.3710   -2.2860   21.7730 C   0  0  0  0  0  0  0  0  0  0  0  0
    6.3670   -4.8250   22.0160 C   0  0  2  0  0  0  0  0  0  0  0  0
    6.7710   -5.6660   23.0330 C   0  0  0  0  0  0  0  0  0  0  0  0
    6.4110   -4.9580   24.2320 C   0  0  0  0  0  0  0  0  0  0  0  0
    4.9320   -4.8500   24.5100 N   0  0  0  0  0  0  0  0  0  0  0  0
    4.2030   -5.0520   23.3910 C   0  0  1  0  0  0  0  0  0  0  0  0
    4.8430   -4.9180   22.1450 C   0  0  0  0  0  0  0  0  0  0  0  0
    3.0570   -3.3910   26.0870 S   0  0  0  0  0  0  0  0  0  0  0  0
    4.7020   -3.9140   25.9130 C   0  0  0  0  0  0  0  0  0  0  0  0
    5.5370   -2.8170   25.7580 C   0  0  0  0  0  0  0  0  0  0  0  0
    4.8100   -1.6010   25.7940 C   0  0  0  0  0  0  0  0  0  0  0  0
    3.4220   -1.7740   25.9750 C   0  0  0  0  0  0  0  0  0  0  0  0
    6.2930    0.5710   17.7900 N   0  0  0  0  0  0  0  0  0  0  0  0
    5.1920    1.3500   17.7500 C   0  0  0  0  0  0  0  0  0  0  0  0
    4.3980    1.8720   18.9640 C   0  0  0  0  0  0  0  0  0  0  0  0
    4.9570    1.4520   20.3260 C   0  0  0  0  0  0  0  0  0  0  0  0
    6.1990    0.5910   20.3480 C   0  0  0  0  0  0  0  0  0  0  0  0
    6.7550    0.2200   18.9930 C   0  0  0  0  0  0  0  0  0  0  0  0
    9.5980   -1.2690   21.7390 C   0  0  0  0  0  0  0  0  0  0  0  0
   10.9780   -1.4470   22.3760 C   0  0  0  0  0  0  0  0  0  0  0  0
   11.1970   -1.8900   23.8200 C   0  0  0  0  0  0  0  0  0  0  0  0
    9.8290   -2.1510   24.5760 C   0  0  0  0  0  0  0  0  0  0  0  0
    8.4910   -1.9450   23.8430 C   0  0  0  0  0  0  0  0  0  0  0  0
    8.4260   -1.4900   22.3820 C   0  0  0  0  0  0  0  0  0  0  0  0
  1  4  1  0
  2  4  1  0
  3  4  2  0
  7  2  1  6
  7  9  1  0
  5 10  1  0
  6 10  2  0
  9 10  1  0
 11 12  2  3
  9 15  2  0
 14 15  2  0
 16 19  1  0
 17 20  1  0
 18 20  2  0
 19 20  1  6
 17 21  1  0
 22 23  1  0
 22 24  1  0
 22 25  1  0
 16 27  1  0
 26 27  1  0
 28 11  1  6
 26 28  1  0
 28 29  1  0
 29 30  1  0
 15 31  1  0
 30 31  1  0
  7 32  1  0
 32  8  1  6
 31 32  1  0
 28 33  1  0
 32 33  1  0
 15 35  1  1
 34 35  1  0
 35 36  2  0
 36 37  1  0
 13 38  1  0
 34 38  1  0
 37 38  2  0
 39 40  2  0
 40 41  1  0
 41 42  2  0
 19 43  1  0
 42 43  1  0
 39 44  1  0
 43 44  2  0
 45 46  2  0
 22 47  1  0
 46 47  1  0
 47 48  2  0
 48 49  1  0
 16 50  1  0
 45 50  1  0
 49 50  2  0
M  END
