x0981-x1493-x0978-x2776-x1458
     RDKit          3D

 62 67  0  0  0  0  0  0  0  0999 V2000
    0.6850   -8.4920   21.5710 C   0  0  0  0  0  0  0  0  0  0  0  0
    2.3710   -7.0640   22.7060 N   0  0  0  0  0  0  0  0  0  0  0  0
    0.5530   -6.1330   21.6530 O   0  0  0  0  0  0  0  0  0  0  0  0
    0.9610   -7.2420   22.4010 C   0  0  0  0  0  0  0  0  0  0  0  0
    2.3830   -8.0980   26.2120 N   0  0  0  0  0  0  0  0  0  0  0  0
    3.9110   -8.0780   24.5580 O   0  0  0  0  0  0  0  0  0  0  0  0
    2.7900   -5.8060   23.3340 C   0  0  1  0  0  0  0  0  0  0  0  0
    4.8490   -4.7810   22.0360 N   0  0  0  0  0  0  0  0  0  0  0  0
    5.0800   -5.8800   23.9190 N   0  0  0  0  0  0  0  0  0  0  0  0
    2.6310   -6.0650   24.8610 C   0  0  0  0  0  0  0  0  0  0  0  0
    3.0420   -7.4940   25.1760 C   0  0  0  0  0  0  0  0  0  0  0  0
    4.2900   -5.4770   23.0850 C   0  0  0  0  0  0  0  0  0  0  0  0
    6.6440   -5.2470   20.6120 C   0  0  0  0  0  0  0  0  0  0  0  0
    5.7360   -6.0560   20.0710 C   0  0  0  0  0  0  0  0  0  0  0  0
    0.0320   -7.0380   23.5860 C   0  0  0  0  0  0  0  0  0  0  0  0
    7.2390   -1.1810   21.6140 N   0  0  0  0  0  0  0  0  0  0  0  0
    7.8720    2.0960   22.9510 N   0  0  0  0  0  0  0  0  0  0  0  0
    8.9910    1.3690   21.0350 O   0  0  0  0  0  0  0  0  0  0  0  0
   10.8410    6.7970   23.9940 O   0  0  0  0  0  0  0  0  0  0  0  0
    6.8670    0.3060   21.5140 C   0  0  1  0  0  0  0  0  0  0  0  0
   12.1670   -2.7370   25.1180 O   0  0  0  0  0  0  0  0  0  0  0  0
    8.0340    1.2850   21.7860 C   0  0  0  0  0  0  0  0  0  0  0  0
   10.6740    1.8930   23.7550 C   0  0  0  0  0  0  0  0  0  0  0  0
   11.8040    6.7400   24.7960 C   0  0  0  0  0  0  0  0  0  0  0  0
   12.0400   -1.4140   24.6280 C   0  0  1  0  0  0  0  0  0  0  0  0
   13.2080   -1.0610   23.7520 C   0  0  0  0  0  0  0  0  0  0  0  0
   13.4810   -3.0920   25.4980 C   0  0  0  0  0  0  0  0  0  0  0  0
    6.1920   -2.1660   21.8930 C   0  0  0  0  0  0  0  0  0  0  0  0
    6.8650   -3.0110   26.1180 N   0  0  0  0  0  0  0  0  0  0  0  0
    8.6910   -4.5270   26.9840 C   0  0  0  0  0  0  0  0  0  0  0  0
    4.7260   -3.3060   25.3330 O   0  0  0  0  0  0  0  0  0  0  0  0
    7.3080   -3.8970   27.2550 C   0  0  0  0  0  0  0  0  0  0  0  0
    6.2930   -4.7260   27.7100 C   0  0  0  0  0  0  0  0  0  0  0  0
    6.7210   -1.7070   26.3910 C   0  0  0  0  0  0  0  0  0  0  0  0
    5.9300   -3.4010   25.1140 C   0  0  0  0  0  0  0  0  0  0  0  0
    6.3700   -5.8330   25.8860 C   0  0  0  0  0  0  0  0  0  0  0  0
    8.4040   -5.8880   24.8900 O   0  0  0  0  0  0  0  0  0  0  0  0
    7.2000   -5.7400   24.7430 C   0  0  0  0  0  0  0  0  0  0  0  0
    6.3160    0.5140   17.7780 N   0  0  0  0  0  0  0  0  0  0  0  0
    5.2360    1.3020   17.7690 C   0  0  0  0  0  0  0  0  0  0  0  0
    4.6390    1.7810   18.9290 C   0  0  0  0  0  0  0  0  0  0  0  0
    5.1370    1.4750   20.1670 C   0  0  0  0  0  0  0  0  0  0  0  0
    6.2560    0.6680   20.1920 C   0  0  0  0  0  0  0  0  0  0  0  0
    6.7970    0.2150   18.9980 C   0  0  0  0  0  0  0  0  0  0  0  0
    9.9730    3.2140   23.5980 C   0  0  0  0  0  0  0  0  0  0  0  0
   10.7310    4.3590   23.8590 C   0  0  0  0  0  0  0  0  0  0  0  0
   10.1830    5.6240   23.7470 C   0  0  0  0  0  0  0  0  0  0  0  0
    8.8430    5.7570   23.3530 C   0  0  0  0  0  0  0  0  0  0  0  0
    8.0890    4.5980   23.0900 C   0  0  0  0  0  0  0  0  0  0  0  0
    8.6380    3.3110   23.2130 C   0  0  0  0  0  0  0  0  0  0  0  0
    9.6690   -1.9960   21.7950 C   0  0  0  0  0  0  0  0  0  0  0  0
   10.7580   -1.9670   22.6380 C   0  0  0  0  0  0  0  0  0  0  0  0
   10.7360   -1.3320   23.9000 C   0  0  0  0  0  0  0  0  0  0  0  0
    9.6230   -0.6560   24.4810 C   0  0  0  0  0  0  0  0  0  0  0  0
    8.3850   -0.6590   23.5620 C   0  0  0  0  0  0  0  0  0  0  0  0
    8.5320   -1.3750   22.1980 C   0  0  0  0  0  0  0  0  0  0  0  0
    6.7650   -3.4510   22.4460 C   0  0  2  0  0  0  0  0  0  0  0  0
    8.2130   -3.5010   22.5760 C   0  0  0  0  0  0  0  0  0  0  0  0
    8.2190   -3.6590   23.9170 C   0  0  0  0  0  0  0  0  0  0  0  0
    6.3980   -5.4400   23.4390 C   0  0  1  0  0  0  0  0  0  0  0  0
    6.3270   -4.7640   22.1380 C   0  0  1  0  0  0  0  0  0  0  0  0
    6.6210   -3.9160   23.7970 C   0  0  1  0  0  0  0  0  0  0  0  0
  1  4  1  0
  2  4  1  0
  4  3  1  0
  2  7  1  0
  7 10  1  1
  5 11  1  0
  6 11  2  0
 10 11  1  0
  7 12  1  0
  8 12  1  0
  9 12  2  0
 13 14  2  3
  4 15  1  0
 16 20  1  0
 17 22  1  0
 18 22  2  0
 20 22  1  6
 19 24  1  0
 21 25  1  0
 25 26  1  6
 21 27  1  0
 16 28  1  0
 29 32  1  0
 30 32  1  0
 32 33  1  0
 29 34  1  0
 29 35  1  0
 31 35  2  0
 36 38  1  0
 37 38  2  0
 39 40  2  0
 40 41  1  0
 41 42  2  0
 20 43  1  0
 42 43  1  0
 39 44  1  0
 43 44  2  0
 23 45  1  0
 45 46  2  0
 19 47  1  0
 46 47  1  0
 47 48  2  0
 48 49  1  0
 17 50  1  0
 45 50  1  0
 49 50  2  0
 51 52  2  0
 25 53  1  0
 52 53  1  0
 53 54  2  0
 54 55  1  0
 16 56  1  0
 51 56  1  0
 55 56  2  0
 57 28  1  1
 57 58  1  0
 58 59  1  0
  9 60  1  0
 60 38  1  1
  8 61  1  0
 61 13  1  6
 57 61  1  0
 60 61  1  0
 62 35  1  1
 57 62  1  0
 59 62  1  0
 60 62  1  0
M  END
