x0981-x2776
     RDKit          3D

 47 49  0  0  0  0  0  0  0  0999 V2000
    1.2200   -8.6750   21.4530 C   0  0  0  0  0  0  0  0  0  0  0  0
    2.8070   -7.0530   22.7640 N   0  0  0  0  0  0  0  0  0  0  0  0
    0.3050   -6.5190   22.2310 O   0  0  0  0  0  0  0  0  0  0  0  0
    1.4630   -7.3540   22.2010 C   0  0  0  0  0  0  0  0  0  0  0  0
    2.4540   -8.2600   26.4050 N   0  0  0  0  0  0  0  0  0  0  0  0
    4.0300   -8.2030   24.6250 O   0  0  0  0  0  0  0  0  0  0  0  0
    3.0360   -5.8370   23.5750 C   0  0  1  0  0  0  0  0  0  0  0  0
    5.1350   -5.6170   22.2510 N   0  0  0  0  0  0  0  0  0  0  0  0
    4.9430   -4.4630   24.1740 O   0  0  0  0  0  0  0  0  0  0  0  0
    2.8110   -6.1830   24.9060 C   0  0  0  0  0  0  0  0  0  0  0  0
    3.1800   -7.6230   25.2610 C   0  0  0  0  0  0  0  0  0  0  0  0
    4.4660   -5.2430   23.3560 C   0  0  0  0  0  0  0  0  0  0  0  0
    6.4000   -4.8470   21.8240 C   0  0  1  0  0  0  0  0  0  0  0  0
    6.4430   -4.9880   20.3070 C   0  0  0  0  0  0  0  0  0  0  0  0
    5.7790   -6.0750   19.8940 C   0  0  0  0  0  0  0  0  0  0  0  0
    7.1900   -1.2660   21.7130 N   0  0  0  0  0  0  0  0  0  0  0  0
    7.7790    2.0350   22.9420 N   0  0  0  0  0  0  0  0  0  0  0  0
    8.8680    1.3780   20.9890 O   0  0  0  0  0  0  0  0  0  0  0  0
   10.8230    6.7250   23.8350 O   0  0  0  0  0  0  0  0  0  0  0  0
    6.8480    0.0670   21.6130 C   0  0  1  0  0  0  0  0  0  0  0  0
   12.7400   -3.0270   24.5120 O   0  0  0  0  0  0  0  0  0  0  0  0
    7.8640    1.2040   21.8880 C   0  0  0  0  0  0  0  0  0  0  0  0
   10.5800    1.7740   23.8710 C   0  0  0  0  0  0  0  0  0  0  0  0
   11.8340    6.6340   24.8320 C   0  0  0  0  0  0  0  0  0  0  0  0
   12.2070   -1.6980   24.4810 C   0  0  1  0  0  0  0  0  0  0  0  0
   13.1210   -0.9120   23.8120 C   0  0  0  0  0  0  0  0  0  0  0  0
   13.2660   -3.3760   25.7750 C   0  0  0  0  0  0  0  0  0  0  0  0
    6.6500   -3.5130   22.3190 C   0  0  0  0  0  0  0  0  0  0  0  0
    6.1680   -2.3590   21.6570 C   0  0  0  0  0  0  0  0  0  0  0  0
    6.3520    0.2860   17.8830 N   0  0  0  0  0  0  0  0  0  0  0  0
    5.2330    1.0250   17.8470 C   0  0  0  0  0  0  0  0  0  0  0  0
    4.5450    1.4890   18.9530 C   0  0  0  0  0  0  0  0  0  0  0  0
    5.0390    1.1880   20.2380 C   0  0  0  0  0  0  0  0  0  0  0  0
    6.2270    0.4150   20.2760 C   0  0  0  0  0  0  0  0  0  0  0  0
    6.8260   -0.0040   19.1000 C   0  0  0  0  0  0  0  0  0  0  0  0
    9.8980    3.0940   23.6050 C   0  0  0  0  0  0  0  0  0  0  0  0
   10.6410    4.2660   23.8180 C   0  0  0  0  0  0  0  0  0  0  0  0
   10.0720    5.5220   23.6010 C   0  0  0  0  0  0  0  0  0  0  0  0
    8.7700    5.6000   23.1590 C   0  0  0  0  0  0  0  0  0  0  0  0
    8.0100    4.4660   22.9360 C   0  0  0  0  0  0  0  0  0  0  0  0
    8.4920    3.1670   23.1380 C   0  0  0  0  0  0  0  0  0  0  0  0
    9.5690   -2.0710   21.7960 C   0  0  0  0  0  0  0  0  0  0  0  0
   10.7660   -2.1510   22.4910 C   0  0  0  0  0  0  0  0  0  0  0  0
   10.9050   -1.6330   23.7610 C   0  0  0  0  0  0  0  0  0  0  0  0
    9.8010   -1.0460   24.3200 C   0  0  0  0  0  0  0  0  0  0  0  0
    8.5880   -0.9380   23.6630 C   0  0  0  0  0  0  0  0  0  0  0  0
    8.4810   -1.4470   22.3830 C   0  0  0  0  0  0  0  0  0  0  0  0
  1  4  1  0
  2  4  1  0
  3  4  2  0
  2  7  1  0
  7 10  1  1
  5 11  1  0
  6 11  2  0
 10 11  1  0
  7 12  1  0
  8 12  1  0
  9 12  2  0
  8 13  1  0
 13 14  1  6
 14 15  2  3
 16 20  1  0
 17 22  1  0
 18 22  2  0
 20 22  1  6
 19 24  1  0
 21 25  1  0
 25 26  1  6
 21 27  1  0
 13 28  1  0
 16 29  1  0
 28 29  1  0
 30 31  2  0
 31 32  1  0
 32 33  2  0
 20 34  1  0
 33 34  1  0
 30 35  1  0
 34 35  2  0
 23 36  1  0
 36 37  2  0
 19 38  1  0
 37 38  1  0
 38 39  2  0
 39 40  1  0
 17 41  1  0
 36 41  1  0
 40 41  2  0
 42 43  2  0
 25 44  1  0
 43 44  1  0
 44 45  2  0
 45 46  1  0
 16 47  1  0
 42 47  1  0
 46 47  2  0
M  END
