x0981-x0755-x0978-x2776-x2694
     RDKit          3D

 72 78  0  0  0  0  0  0  0  0999 V2000
    1.1900   -8.4000   21.6300 C   0  0  0  0  0  0  0  0  0  0  0  0
    2.7170   -6.8400   22.7330 N   0  0  0  0  0  0  0  0  0  0  0  0
    0.5000   -6.1840   22.2190 O   0  0  0  0  0  0  0  0  0  0  0  0
    1.3150   -7.2760   22.6670 C   0  0  0  0  0  0  0  0  0  0  0  0
    2.3720   -8.6700   26.1870 N   0  0  0  0  0  0  0  0  0  0  0  0
    3.9360   -8.2520   24.6970 O   0  0  0  0  0  0  0  0  0  0  0  0
    3.2550   -5.9150   23.7680 C   0  0  1  0  0  0  0  0  0  0  0  0
    2.8070   -6.2560   25.1680 C   0  0  0  0  0  0  0  0  0  0  0  0
    3.0470   -7.7550   25.3570 C   0  0  0  0  0  0  0  0  0  0  0  0
    6.3760   -4.8720   20.2880 C   0  0  0  0  0  0  0  0  0  0  0  0
    5.6920   -6.1620   19.8820 C   0  0  0  0  0  0  0  0  0  0  0  0
    0.7440   -7.8020   23.9840 C   0  0  0  0  0  0  0  0  0  0  0  0
    4.7440   -5.8160   26.5630 O   0  0  0  0  0  0  0  0  0  0  0  0
    6.2360   -3.8060   26.7670 O   0  0  0  0  0  0  0  0  0  0  0  0
    5.2820   -1.5790   26.8890 F   0  0  0  0  0  0  0  0  0  0  0  0
    5.2160   -4.5490   26.0610 S   0  0  0  0  0  0  0  0  0  0  0  0
    6.7310   -1.0380   22.1790 N   0  0  0  0  0  0  0  0  0  0  0  0
    7.7280    2.7800   22.5130 N   0  0  0  0  0  0  0  0  0  0  0  0
    8.7980    0.6950   22.1110 O   0  0  0  0  0  0  0  0  0  0  0  0
   10.6890    7.3060   23.8460 O   0  0  0  0  0  0  0  0  0  0  0  0
    6.4600    0.4240   21.8710 C   0  0  1  0  0  0  0  0  0  0  0  0
   13.4300   -2.3080   24.2160 N   0  0  0  0  0  0  0  0  0  0  0  0
    7.6730    1.3660   22.1840 C   0  0  0  0  0  0  0  0  0  0  0  0
   10.9080    2.4990   22.8400 C   0  0  0  0  0  0  0  0  0  0  0  0
   11.9810    7.1860   24.4260 C   0  0  0  0  0  0  0  0  0  0  0  0
   12.6470   -1.1310   24.1460 C   0  0  2  0  0  0  0  0  0  0  0  0
   12.5080   -0.3880   25.3420 C   0  0  0  0  0  0  0  0  0  0  0  0
   13.3040   -3.0530   25.4230 C   0  0  0  0  0  0  0  0  0  0  0  0
    5.4320   -3.1860   22.1130 C   0  0  0  0  0  0  0  0  0  0  0  0
    5.8800   -1.9100   21.3770 C   0  0  0  0  0  0  0  0  0  0  0  0
    5.3020    2.6280   23.1610 N   0  0  0  0  0  0  0  0  0  0  0  0
    7.9460    3.8190   22.7540 N   0  0  0  0  0  0  0  0  0  0  0  0
    9.0420    1.9870   22.4270 O   0  0  0  0  0  0  0  0  0  0  0  0
    6.3050    2.0640   22.2250 C   0  0  0  0  0  0  0  0  0  0  0  0
    7.7070    2.6080   22.4640 C   0  0  0  0  0  0  0  0  0  0  0  0
    2.5940   -3.7220   25.6180 C   0  0  0  0  0  0  0  0  0  0  0  0
    3.8790   -3.3620   26.0400 C   0  0  0  0  0  0  0  0  0  0  0  0
    4.0930   -2.0210   26.4650 C   0  0  0  0  0  0  0  0  0  0  0  0
    3.0200   -1.1100   26.4480 C   0  0  0  0  0  0  0  0  0  0  0  0
    1.7540   -1.4990   26.0250 C   0  0  0  0  0  0  0  0  0  0  0  0
    1.5330   -2.8150   25.6040 C   0  0  0  0  0  0  0  0  0  0  0  0
    6.1510   -4.5640   21.8090 C   0  0  2  0  0  0  0  0  0  0  0  0
    7.3710   -4.6800   22.7150 C   0  0  0  0  0  0  0  0  0  0  0  0
    7.0230   -4.7450   24.0670 C   0  0  0  0  0  0  0  0  0  0  0  0
    5.6060   -4.8060   24.4360 N   0  0  0  0  0  0  0  0  0  0  0  0
    4.8630   -5.8050   23.6460 C   0  0  2  0  0  0  0  0  0  0  0  0
    5.2040   -5.7310   22.2950 C   0  0  0  0  0  0  0  0  0  0  0  0
    6.1920    0.3160   18.0730 N   0  0  0  0  0  0  0  0  0  0  0  0
    4.9790    0.8860   17.9250 C   0  0  0  0  0  0  0  0  0  0  0  0
    4.1510    1.3260   18.9720 C   0  0  0  0  0  0  0  0  0  0  0  0
    4.6560    1.1520   20.2250 C   0  0  0  0  0  0  0  0  0  0  0  0
    5.8950    0.5870   20.4700 C   0  0  0  0  0  0  0  0  0  0  0  0
    6.6270    0.1760   19.3470 C   0  0  0  0  0  0  0  0  0  0  0  0
   10.1220    3.7920   23.0190 C   0  0  0  0  0  0  0  0  0  0  0  0
   10.7990    4.9330   23.3470 C   0  0  0  0  0  0  0  0  0  0  0  0
   10.0990    6.1180   23.5170 C   0  0  0  0  0  0  0  0  0  0  0  0
    8.6930    6.1480   23.3530 C   0  0  0  0  0  0  0  0  0  0  0  0
    7.7920    5.0830   23.0150 C   0  0  0  0  0  0  0  0  0  0  0  0
    8.7080    3.8630   22.8620 C   0  0  0  0  0  0  0  0  0  0  0  0
    9.0470   -1.8410   21.7940 C   0  0  0  0  0  0  0  0  0  0  0  0
   10.4380   -1.7050   22.4920 C   0  0  0  0  0  0  0  0  0  0  0  0
   11.2910   -1.2510   23.6230 C   0  0  0  0  0  0  0  0  0  0  0  0
    9.9940   -0.9710   23.8430 C   0  0  0  0  0  0  0  0  0  0  0  0
    8.6400   -0.8720   23.6270 C   0  0  0  0  0  0  0  0  0  0  0  0
    8.0670   -1.2770   22.4830 C   0  0  0  0  0  0  0  0  0  0  0  0
   10.4810    7.2660   26.3300 O   0  0  0  0  0  0  0  0  0  0  0  0
   11.8420    7.0680   25.9330 C   0  0  0  0  0  0  0  0  0  0  0  0
   12.5570   -1.7760   22.0950 C   0  0  0  0  0  0  0  0  0  0  0  0
   13.0900   -0.5130   22.4330 C   0  0  0  0  0  0  0  0  0  0  0  0
   13.0780   -2.1890   20.7940 C   0  0  0  0  0  0  0  0  0  0  0  0
   12.9350   -2.8580   23.0810 C   0  0  0  0  0  0  0  0  0  0  0  0
   10.7930    1.6060   24.0430 C   0  0  0  0  0  0  0  0  0  0  0  0
  1  4  1  0
  2  4  1  0
  4  3  1  0
  2  7  1  0
  7  8  1  1
  5  9  1  0
  6  9  2  0
  8  9  1  0
 10 11  2  3
  4 12  1  0
 13 16  2  0
 14 16  2  0
 21 17  1  6
 18 23  2  0
 19 23  1  0
 21 23  1  0
 20 25  1  0
 22 26  1  0
 26 27  1  1
 22 28  1  0
 17 30  1  0
 29 30  1  0
 19 33  1  0
 31 34  1  0
 32 35  2  0
 33 35  1  0
 34 35  1  0
 16 37  1  0
 36 37  2  0
 15 38  1  0
 37 38  1  0
 38 39  2  0
 39 40  1  0
 36 41  1  0
 40 41  2  0
 42 10  1  6
 29 42  1  0
 42 43  1  0
 43 44  1  0
 16 45  1  0
 44 45  1  0
  7 46  1  0
 45 46  1  0
 42 47  1  0
 46 47  1  6
 48 49  2  0
 49 50  1  0
 50 51  2  0
 21 52  1  0
 51 52  1  0
 48 53  1  0
 52 53  2  0
 24 54  1  0
 54 55  1  0
 20 56  1  0
 55 56  2  0
 56 57  1  0
 32 58  1  0
 57 58  2  0
 18 59  1  0
 54 59  2  0
 58 59  1  0
 60 61  2  0
 26 62  1  0
 61 62  1  0
 61 63  1  0
 62 63  2  0
 63 64  1  0
 17 65  1  0
 60 65  1  0
 64 65  2  0
 25 67  1  0
 66 67  1  0
 68 69  1  0
 68 70  1  0
 22 71  1  0
 68 71  1  0
 24 72  1  0
M  END
