x0981-x3124-x3117-x2754
     RDKit          3D

 65 71  0  0  0  0  0  0  0  0999 V2000
    1.2250   -8.5920   21.5680 C   0  0  0  0  0  0  0  0  0  0  0  0
    2.9470   -7.2510   23.0260 N   0  0  0  0  0  0  0  0  0  0  0  0
    0.7310   -6.2710   22.4320 O   0  0  0  0  0  0  0  0  0  0  0  0
    1.6460   -7.3700   22.3560 C   0  0  0  0  0  0  0  0  0  0  0  0
    2.8040   -8.0030   26.6080 N   0  0  0  0  0  0  0  0  0  0  0  0
    3.9300   -8.2580   24.6250 O   0  0  0  0  0  0  0  0  0  0  0  0
    3.3420   -5.9160   23.5990 C   0  0  1  0  0  0  0  0  0  0  0  0
    4.7520   -5.2470   21.5610 N   0  0  0  0  0  0  0  0  0  0  0  0
    3.5680   -6.0430   25.1040 C   0  0  0  0  0  0  0  0  0  0  0  0
    3.4350   -7.5150   25.4620 C   0  0  0  0  0  0  0  0  0  0  0  0
    4.5370   -5.2450   22.8560 C   0  0  0  0  0  0  0  0  0  0  0  0
    6.7230   -5.0560   20.4520 C   0  0  0  0  0  0  0  0  0  0  0  0
    5.9430   -5.9870   19.9590 C   0  0  0  0  0  0  0  0  0  0  0  0
    6.7740   -0.9060   22.9220 N   0  0  0  0  0  0  0  0  0  0  0  0
    7.4290    2.0150   23.5910 N   0  0  0  0  0  0  0  0  0  0  0  0
    6.8680    2.2420   21.3780 O   0  0  0  0  0  0  0  0  0  0  0  0
    6.0870    0.2840   22.2250 C   0  0  1  0  0  0  0  0  0  0  0  0
    6.7570    1.5010   22.3640 C   0  0  0  0  0  0  0  0  0  0  0  0
   12.6630   -1.3660   22.9910 C   0  0  0  0  0  0  0  0  0  0  0  0
   13.1770   -0.1380   23.3680 C   0  0  0  0  0  0  0  0  0  0  0  0
   13.0650   -1.6770   21.5710 C   0  0  0  0  0  0  0  0  0  0  0  0
   13.2190   -2.5730   23.8040 C   0  0  0  0  0  0  0  0  0  0  0  0
    7.7840   -1.6270   21.2150 N   0  0  0  0  0  0  0  0  0  0  0  0
    8.7870    2.0790   21.7640 N   0  0  0  0  0  0  0  0  0  0  0  0
    9.9790    0.2700   21.7850 O   0  0  0  0  0  0  0  0  0  0  0  0
    7.8280   -0.1200   20.9830 C   0  0  0  0  0  0  0  0  0  0  0  0
    8.8860    0.7150   21.5190 C   0  0  0  0  0  0  0  0  0  0  0  0
   11.3860   -2.2620   25.2400 C   0  0  0  0  0  0  0  0  0  0  0  0
   11.3930   -0.8570   25.1490 C   0  0  0  0  0  0  0  0  0  0  0  0
   10.6920   -2.8800   24.0530 C   0  0  0  0  0  0  0  0  0  0  0  0
   12.7700   -2.7270   25.2170 C   0  0  0  0  0  0  0  0  0  0  0  0
    5.6280   -3.0290   24.9150 C   0  0  0  0  0  0  0  0  0  0  0  0
    4.4920   -2.7280   24.5330 O   0  0  0  0  0  0  0  0  0  0  0  0
    6.0560   -2.7460   26.2150 N   0  0  0  0  0  0  0  0  0  0  0  0
    5.2010   -2.1570   27.2540 C   0  0  0  0  0  0  0  0  0  0  0  0
    6.1160   -0.0180   18.1910 N   0  0  0  0  0  0  0  0  0  0  0  0
    5.0410    0.7120   17.9540 C   0  0  0  0  0  0  0  0  0  0  0  0
    4.2320    1.3160   19.0320 C   0  0  0  0  0  0  0  0  0  0  0  0
    4.4550    1.2310   20.3740 C   0  0  0  0  0  0  0  0  0  0  0  0
    5.6950    0.4080   20.7140 C   0  0  0  0  0  0  0  0  0  0  0  0
    6.4330   -0.1680   19.5070 C   0  0  0  0  0  0  0  0  0  0  0  0
    9.0590   -1.7390   22.0450 C   0  0  0  0  0  0  0  0  0  0  0  0
   10.4290   -1.8230   22.1070 C   0  0  0  0  0  0  0  0  0  0  0  0
   11.1460   -1.1840   23.0880 C   0  0  0  0  0  0  0  0  0  0  0  0
   10.4440   -0.3280   24.1970 C   0  0  0  0  0  0  0  0  0  0  0  0
    8.9200   -0.1970   24.1900 C   0  0  0  0  0  0  0  0  0  0  0  0
    8.2860   -0.9560   23.0360 C   0  0  0  0  0  0  0  0  0  0  0  0
    9.8660    4.9520   24.0490 O   0  0  0  0  0  0  0  0  0  0  0  0
   10.5350    3.7660   23.6560 C   0  0  0  0  0  0  0  0  0  0  0  0
    9.6820    2.6650   23.7610 C   0  0  0  0  0  0  0  0  0  0  0  0
    8.5240    2.8140   23.0140 C   0  0  0  0  0  0  0  0  0  0  0  0
    8.0990    4.1320   22.6890 C   0  0  0  0  0  0  0  0  0  0  0  0
    8.7540    5.2600   23.2130 C   0  0  0  0  0  0  0  0  0  0  0  0
    5.7270   -2.8640   21.4270 N   0  0  0  0  0  0  0  0  0  0  0  0
    6.7820   -2.1490   22.1910 C   0  0  2  0  0  0  0  0  0  0  0  0
    7.4120   -2.9370   23.1760 C   0  0  0  0  0  0  0  0  0  0  0  0
    6.5720   -3.7770   23.9240 C   0  0  2  0  0  0  0  0  0  0  0  0
    5.6430   -4.5120   22.9890 C   0  0  0  0  0  0  0  0  0  0  0  0
    5.8890   -4.3710   21.5650 C   0  0  1  0  0  0  0  0  0  0  0  0
    6.9450   -4.4670   27.7070 C   0  0  0  0  0  0  0  0  0  0  0  0
    8.0360   -5.3060   28.2340 C   0  0  0  0  0  0  0  0  0  0  0  0
    9.4720   -5.1750   27.6780 C   0  0  0  0  0  0  0  0  0  0  0  0
    9.6000   -4.1630   26.6050 C   0  0  0  0  0  0  0  0  0  0  0  0
    8.3920   -3.3470   26.1340 C   0  0  0  0  0  0  0  0  0  0  0  0
    7.1420   -3.5310   26.6970 C   0  0  0  0  0  0  0  0  0  0  0  0
  1  4  1  0
  2  4  1  0
  3  4  2  0
  2  7  1  0
  7  9  1  1
  5 10  1  0
  6 10  2  0
  9 10  1  0
  7 11  1  0
  8 11  1  0
 12 13  2  3
 14 17  1  0
 15 18  1  0
 16 18  2  0
 17 18  1  0
 19 20  1  0
 19 21  1  0
 19 22  1  0
 23 26  1  0
 24 27  1  0
 25 27  2  0
 26 27  1  0
 28 29  1  0
 28 30  1  0
 22 31  1  0
 28 31  1  0
 32 33  2  0
 32 34  1  0
 34 35  1  0
 36 37  2  0
 37 38  1  0
 38 39  2  0
 17 40  1  6
 39 40  1  0
 36 41  1  0
 40 41  2  0
 42 43  2  0
 19 44  1  0
 43 44  1  0
 44 45  2  0
 45 46  1  0
 14 47  1  0
 42 47  1  0
 46 47  2  0
 48 49  1  0
 49 50  1  0
 51 15  1  0
 24 51  1  0
 50 51  1  0
 51 52  1  0
 48 53  1  0
 52 53  1  0
 55 14  1  0
 23 55  1  0
 54 55  1  0
 55 56  1  1
 57 32  1  1
 56 57  1  0
 11 58  2  0
 57 58  1  0
  8 59  1  0
 59 12  1  1
 54 59  1  0
 58 59  1  0
 60 61  2  0
 61 62  1  0
 62 63  2  0
 63 64  1  0
 34 65  1  0
 60 65  1  0
 64 65  2  0
M  END
