x0981-x3298
     RDKit          3D

 46 48  0  0  0  0  0  0  0  0999 V2000
    1.1950   -8.8060   21.2410 C   0  0  0  0  0  0  0  0  0  0  0  0
    2.6390   -7.2860   22.7610 N   0  0  0  0  0  0  0  0  0  0  0  0
    0.2040   -6.6920   22.0640 O   0  0  0  0  0  0  0  0  0  0  0  0
    1.3600   -7.5360   22.0770 C   0  0  0  0  0  0  0  0  0  0  0  0
    2.2440   -8.3170   26.3800 N   0  0  0  0  0  0  0  0  0  0  0  0
    3.9820   -8.2380   24.7450 O   0  0  0  0  0  0  0  0  0  0  0  0
    2.8260   -6.0380   23.5020 C   0  0  1  0  0  0  0  0  0  0  0  0
    5.0360   -5.9430   22.2860 N   0  0  0  0  0  0  0  0  0  0  0  0
    4.5380   -4.2910   24.0340 N   0  0  0  0  0  0  0  0  0  0  0  0
    2.6330   -6.2920   24.8510 C   0  0  0  0  0  0  0  0  0  0  0  0
    3.0470   -7.6910   25.2840 C   0  0  0  0  0  0  0  0  0  0  0  0
    4.2160   -5.4330   23.2250 C   0  0  0  0  0  0  0  0  0  0  0  0
    6.1760   -5.0320   21.8390 C   0  0  0  0  0  0  0  0  0  0  0  0
    6.3660   -5.1720   20.3450 C   0  0  0  0  0  0  0  0  0  0  0  0
    5.7320   -6.2090   19.8330 C   0  0  0  0  0  0  0  0  0  0  0  0
    7.2090    2.3190   22.1880 N   0  0  0  0  0  0  0  0  0  0  0  0
    7.4350   -0.0440   21.2940 C   0  0  2  0  0  0  0  0  0  0  0  0
    6.4540   -0.5210   22.1970 O   0  0  0  0  0  0  0  0  0  0  0  0
    7.8850    1.3610   21.5750 C   0  0  0  0  0  0  0  0  0  0  0  0
    8.5860    1.3190   24.1690 N   0  0  0  0  0  0  0  0  0  0  0  0
    9.1840    1.5590   21.0430 O   0  0  0  0  0  0  0  0  0  0  0  0
   10.8470    1.9250   24.4970 O   0  0  0  0  0  0  0  0  0  0  0  0
    9.9460   -0.0910   25.8420 O   0  0  0  0  0  0  0  0  0  0  0  0
   13.6410   -1.9330   20.8550 F   0  0  0  0  0  0  0  0  0  0  0  0
   10.0930    0.7060   24.6340 S   0  0  0  0  0  0  0  0  0  0  0  0
    5.7350   -3.5070   23.9670 C   0  0  0  0  0  0  0  0  0  0  0  0
    5.6400   -2.2450   23.4370 C   0  0  0  0  0  0  0  0  0  0  0  0
    6.5220   -1.9140   22.4420 C   0  0  0  0  0  0  0  0  0  0  0  0
    6.2140    0.2020   17.6480 N   0  0  0  0  0  0  0  0  0  0  0  0
    6.9560   -0.1430   18.7160 C   0  0  0  0  0  0  0  0  0  0  0  0
    6.6900    0.2280   20.0160 C   0  0  0  0  0  0  0  0  0  0  0  0
    5.4520    1.0790   20.2550 C   0  0  0  0  0  0  0  0  0  0  0  0
    4.7490    1.3860   19.1210 C   0  0  0  0  0  0  0  0  0  0  0  0
    5.1270    0.9650   17.8760 C   0  0  0  0  0  0  0  0  0  0  0  0
    7.9190    4.5480   22.6100 C   0  0  0  0  0  0  0  0  0  0  0  0
    8.6890    5.4340   23.3810 C   0  0  0  0  0  0  0  0  0  0  0  0
    9.4290    4.8760   24.4400 C   0  0  0  0  0  0  0  0  0  0  0  0
    9.3840    3.5040   24.6920 C   0  0  0  0  0  0  0  0  0  0  0  0
    8.6240    2.6710   23.9220 C   0  0  0  0  0  0  0  0  0  0  0  0
    7.8950    3.1760   22.8870 C   0  0  0  0  0  0  0  0  0  0  0  0
   12.3250    0.3180   23.3040 C   0  0  0  0  0  0  0  0  0  0  0  0
   13.1820   -0.2730   22.4340 C   0  0  0  0  0  0  0  0  0  0  0  0
   12.8100   -1.3770   21.7090 C   0  0  0  0  0  0  0  0  0  0  0  0
   11.5370   -1.9070   21.8670 C   0  0  0  0  0  0  0  0  0  0  0  0
   10.6330   -1.3160   22.7560 C   0  0  0  0  0  0  0  0  0  0  0  0
   11.0380   -0.1970   23.4720 C   0  0  0  0  0  0  0  0  0  0  0  0
  1  4  1  0
  2  4  1  0
  3  4  2  0
  2  7  1  0
  7 10  1  1
  5 11  1  0
  6 11  2  0
 10 11  1  0
  7 12  1  0
  8 12  1  0
  9 12  2  3
  8 13  1  0
 13 14  1  0
 14 15  2  3
 17 18  1  1
 16 19  1  0
 17 19  1  0
 19 21  2  0
 25 20  1  0
 22 25  2  0
 23 25  2  0
  9 26  1  0
 26 27  1  0
 18 28  1  0
 27 28  1  0
 29 30  2  0
 17 31  1  0
 30 31  1  0
 31 32  2  0
 32 33  1  0
 29 34  1  0
 33 34  2  0
 35 36  2  0
 36 37  1  0
 37 38  2  0
 20 39  1  0
 38 39  1  0
 16 40  1  0
 35 40  1  0
 39 40  2  0
 41 42  2  0
 24 43  1  0
 42 43  1  0
 43 44  2  0
 44 45  1  0
 25 46  1  0
 41 46  1  0
 45 46  2  0
M  END
