x0981-x1493-x2705-x2776
     RDKit          3D

 65 69  0  0  0  0  0  0  0  0999 V2000
    1.3070   -8.5310   21.6390 C   0  0  0  0  0  0  0  0  0  0  0  0
    2.9200   -7.0280   22.8650 N   0  0  0  0  0  0  0  0  0  0  0  0
    0.5750   -6.2720   22.3520 O   0  0  0  0  0  0  0  0  0  0  0  0
    1.6390   -7.2120   22.3400 C   0  0  0  0  0  0  0  0  0  0  0  0
    2.4840   -8.3060   26.4200 N   0  0  0  0  0  0  0  0  0  0  0  0
    3.8400   -8.3080   24.6120 O   0  0  0  0  0  0  0  0  0  0  0  0
    3.2390   -5.8880   23.7440 C   0  0  1  0  0  0  0  0  0  0  0  0
    4.5490   -3.8730   23.6750 O   0  0  0  0  0  0  0  0  0  0  0  0
    2.8500   -6.2290   25.1720 C   0  0  0  0  0  0  0  0  0  0  0  0
    3.1110   -7.6990   25.3640 C   0  0  0  0  0  0  0  0  0  0  0  0
    6.5150   -4.9700   20.2620 C   0  0  0  0  0  0  0  0  0  0  0  0
    5.8470   -6.0540   19.8740 C   0  0  0  0  0  0  0  0  0  0  0  0
    6.9940   -1.0470   22.4020 N   0  0  0  0  0  0  0  0  0  0  0  0
    6.9970    2.2660   23.3080 N   0  0  0  0  0  0  0  0  0  0  0  0
    8.0350    2.2340   21.1450 O   0  0  0  0  0  0  0  0  0  0  0  0
    6.7700    0.2760   21.5800 C   0  0  2  0  0  0  0  0  0  0  0  0
    7.3240    1.6440   21.9840 C   0  0  0  0  0  0  0  0  0  0  0  0
    9.8340    1.9480   24.0950 C   0  0  0  0  0  0  0  0  0  0  0  0
    9.3780    1.0960   25.2910 C   0  0  0  0  0  0  0  0  0  0  0  0
   12.1000   -1.6880   22.8930 C   0  0  0  0  0  0  0  0  0  0  0  0
   12.8580   -0.4170   23.2030 C   0  0  0  0  0  0  0  0  0  0  0  0
   12.5160   -2.8330   23.8410 C   0  0  0  0  0  0  0  0  0  0  0  0
   12.6100   -2.0350   21.4900 C   0  0  0  0  0  0  0  0  0  0  0  0
    5.8810   -3.1260   22.0230 C   0  0  0  0  0  0  0  0  0  0  0  0
    6.7430   -2.1930   21.5100 C   0  0  0  0  0  0  0  0  0  0  0  0
    8.4290   -1.2400   20.5720 N   0  0  0  0  0  0  0  0  0  0  0  0
    9.0830    2.2960   21.7100 N   0  0  0  0  0  0  0  0  0  0  0  0
   10.2490    0.5210   21.9620 O   0  0  0  0  0  0  0  0  0  0  0  0
   11.1980    4.9470   24.2120 O   0  0  0  0  0  0  0  0  0  0  0  0
    8.0950    0.1760   20.9050 C   0  0  2  0  0  0  0  0  0  0  0  0
    9.2190    1.0100   21.5720 C   0  0  0  0  0  0  0  0  0  0  0  0
   11.4430    6.0690   24.7040 C   0  0  0  0  0  0  0  0  0  0  0  0
    5.0450   -6.2760   26.6310 C   0  0  0  0  0  0  0  0  0  0  0  0
    7.0930   -5.3980   26.4450 O   0  0  0  0  0  0  0  0  0  0  0  0
    6.0510   -5.6890   25.8660 C   0  0  0  0  0  0  0  0  0  0  0  0
    6.1560    0.0990   17.8780 N   0  0  0  0  0  0  0  0  0  0  0  0
    4.8980    0.7850   17.8800 C   0  0  0  0  0  0  0  0  0  0  0  0
    4.2140    1.2680   18.9740 C   0  0  0  0  0  0  0  0  0  0  0  0
    4.7890    1.0950   20.2170 C   0  0  0  0  0  0  0  0  0  0  0  0
    6.0250    0.4480   20.2750 C   0  0  0  0  0  0  0  0  0  0  0  0
    6.6610   -0.0330   19.1220 C   0  0  0  0  0  0  0  0  0  0  0  0
   10.0290   -1.5340   24.3610 N   0  0  0  0  0  0  0  0  0  0  0  0
    8.6790   -1.3630   24.1790 N   0  0  0  0  0  0  0  0  0  0  0  0
    8.3030   -1.2370   22.8550 C   0  0  0  0  0  0  0  0  0  0  0  0
    9.5650   -1.3570   22.2410 C   0  0  0  0  0  0  0  0  0  0  0  0
   10.5910   -1.5260   23.1230 C   0  0  0  0  0  0  0  0  0  0  0  0
    9.1980    3.2600   23.7600 C   0  0  0  0  0  0  0  0  0  0  0  0
    9.9190    4.7040   23.7550 C   0  0  0  0  0  0  0  0  0  0  0  0
    9.0660    5.9130   23.1880 C   0  0  0  0  0  0  0  0  0  0  0  0
    7.5960    5.8210   22.6100 C   0  0  0  0  0  0  0  0  0  0  0  0
    7.8840    4.6070   23.0480 C   0  0  0  0  0  0  0  0  0  0  0  0
    7.9180    3.3540   23.3810 C   0  0  0  0  0  0  0  0  0  0  0  0
    5.9360   -5.4600   24.4890 N   0  0  0  0  0  0  0  0  0  0  0  0
    7.1880   -4.7580   24.0860 C   0  0  0  0  0  0  0  0  0  0  0  0
    7.5820   -4.8540   22.5900 C   0  0  0  0  0  0  0  0  0  0  0  0
    6.3360   -4.6370   21.7550 C   0  0  2  0  0  0  0  0  0  0  0  0
    5.2710   -5.6010   22.2490 C   0  0  0  0  0  0  0  0  0  0  0  0
    4.7510   -5.2710   23.6100 C   0  0  1  0  0  0  0  0  0  0  0  0
   12.5570   -2.5790   25.2500 N   0  0  0  0  0  0  0  0  0  0  0  0
   13.0500   -1.2230   25.1880 C   0  0  0  0  0  0  0  0  0  0  0  0
   12.1060   -0.3150   24.6910 C   0  0  0  0  0  0  0  0  0  0  0  0
   13.5210   -3.4040   25.9420 C   0  0  0  0  0  0  0  0  0  0  0  0
   11.3270    2.0070   23.8050 C   0  0  0  0  0  0  0  0  0  0  0  0
    5.5930    5.4900   21.6240 C   0  0  0  0  0  0  0  0  0  0  0  0
    6.5210    6.4940   21.9540 C   0  0  0  0  0  0  0  0  0  0  0  0
  1  4  1  0
  2  4  1  0
  3  4  2  0
  2  7  1  0
  7  9  1  1
  5 10  1  0
  6 10  2  0
  9 10  1  0
 11 12  2  3
 13 16  1  0
 14 17  1  0
 15 17  2  0
 16 17  1  1
 18 19  1  0
 20 21  1  0
 20 22  1  0
 20 23  1  0
 13 25  1  0
 24 25  1  0
 16 30  1  0
 30 26  1  1
 27 31  1  0
 28 31  2  0
 30 31  1  0
 29 32  1  0
 33 35  1  0
 34 35  2  0
 36 37  2  0
 37 38  1  0
 38 39  2  0
 16 40  1  0
 39 40  1  0
 36 41  1  0
 40 41  2  0
 42 43  1  0
 13 44  1  0
 43 44  1  0
 44 45  2  0
 20 46  1  0
 42 46  2  0
 45 46  1  0
 18 47  1  0
 29 48  1  0
 47 48  2  0
 48 49  1  0
 49 50  2  0
 49 51  1  0
 50 51  1  0
 14 52  1  0
 47 52  1  0
 51 52  2  0
 35 53  1  0
 53 54  1  0
 54 55  1  0
 56 11  1  6
 24 56  1  0
 55 56  1  0
 56 57  1  0
  7 58  1  0
 58  8  1  6
 53 58  1  0
 57 58  1  0
 22 59  1  0
 59 60  1  0
 60 61  1  0
 59 62  1  0
 18 63  1  0
 50 65  1  0
 64 65  1  0
M  END
