x0981-x3115
     RDKit          3D

 42 43  0  0  0  0  0  0  0  0999 V2000
    1.2220   -8.6820   21.4500 C   0  0  0  0  0  0  0  0  0  0  0  0
    2.8040   -7.0580   22.7590 N   0  0  0  0  0  0  0  0  0  0  0  0
    0.2980   -6.5330   22.2370 O   0  0  0  0  0  0  0  0  0  0  0  0
    1.4600   -7.3620   22.2010 C   0  0  0  0  0  0  0  0  0  0  0  0
    2.4580   -8.2530   26.4020 N   0  0  0  0  0  0  0  0  0  0  0  0
    4.0330   -8.2020   24.6230 O   0  0  0  0  0  0  0  0  0  0  0  0
    3.0320   -5.8370   23.5660 C   0  0  1  0  0  0  0  0  0  0  0  0
    5.1870   -5.7020   22.3150 N   0  0  0  0  0  0  0  0  0  0  0  0
    4.8510   -4.3090   24.0480 O   0  0  0  0  0  0  0  0  0  0  0  0
    2.8280   -6.1760   24.9020 C   0  0  0  0  0  0  0  0  0  0  0  0
    3.1870   -7.6180   25.2560 C   0  0  0  0  0  0  0  0  0  0  0  0
    4.4450   -5.2170   23.3260 C   0  0  0  0  0  0  0  0  0  0  0  0
    6.4290   -4.9270   21.8350 C   0  0  1  0  0  0  0  0  0  0  0  0
    6.4450   -5.0160   20.3190 C   0  0  0  0  0  0  0  0  0  0  0  0
    5.7730   -6.0910   19.8900 C   0  0  0  0  0  0  0  0  0  0  0  0
    7.2130   -1.4660   21.8210 N   0  0  0  0  0  0  0  0  0  0  0  0
    7.8130    1.6010   23.2040 N   0  0  0  0  0  0  0  0  0  0  0  0
    8.5820    1.4280   20.9810 O   0  0  0  0  0  0  0  0  0  0  0  0
    8.6260    5.1060   23.0540 O   0  0  0  0  0  0  0  0  0  0  0  0
    6.7930   -0.1600   21.6640 C   0  0  1  0  0  0  0  0  0  0  0  0
    7.7660    0.9980   21.9960 C   0  0  0  0  0  0  0  0  0  0  0  0
    8.4330    2.8050   23.3300 C   0  0  0  0  0  0  0  0  0  0  0  0
    8.0720    3.8980   22.5370 C   0  0  0  0  0  0  0  0  0  0  0  0
    8.2570    6.2330   22.2570 C   0  0  0  0  0  0  0  0  0  0  0  0
   12.5550   -1.9060   24.1310 C   0  0  0  0  0  0  0  0  0  0  0  0
   13.3990   -1.9390   23.0320 C   0  0  0  0  0  0  0  0  0  0  0  0
   12.7970   -3.0150   25.0830 C   0  0  0  0  0  0  0  0  0  0  0  0
   12.6360   -0.7900   24.8670 C   0  0  0  0  0  0  0  0  0  0  0  0
    6.7860   -3.6460   22.4170 C   0  0  0  0  0  0  0  0  0  0  0  0
    6.2530   -2.4470   21.8760 C   0  0  0  0  0  0  0  0  0  0  0  0
    6.3250    0.1820   17.9310 N   0  0  0  0  0  0  0  0  0  0  0  0
    5.2140    0.9410   17.9140 C   0  0  0  0  0  0  0  0  0  0  0  0
    4.5750    1.3490   19.0880 C   0  0  0  0  0  0  0  0  0  0  0  0
    5.0700    0.9910   20.3240 C   0  0  0  0  0  0  0  0  0  0  0  0
    6.2080    0.2240   20.3540 C   0  0  0  0  0  0  0  0  0  0  0  0
    6.8040   -0.1660   19.1510 C   0  0  0  0  0  0  0  0  0  0  0  0
    9.7130   -1.2480   21.7460 C   0  0  0  0  0  0  0  0  0  0  0  0
   10.9860   -1.3530   22.2920 C   0  0  0  0  0  0  0  0  0  0  0  0
   11.1390   -1.8430   23.5610 C   0  0  0  0  0  0  0  0  0  0  0  0
    9.9860   -2.2230   24.2150 C   0  0  0  0  0  0  0  0  0  0  0  0
    8.6910   -2.1300   23.6880 C   0  0  0  0  0  0  0  0  0  0  0  0
    8.5470   -1.6160   22.4060 C   0  0  0  0  0  0  0  0  0  0  0  0
  1  4  1  0
  2  4  1  0
  3  4  2  0
  2  7  1  0
  7 10  1  1
  5 11  1  0
  6 11  2  0
 10 11  1  0
  7 12  1  0
  8 12  1  0
  9 12  2  0
  8 13  1  0
 13 14  1  6
 14 15  2  3
 16 20  1  0
 17 21  1  0
 18 21  2  0
 20 21  1  6
 17 22  1  0
 19 23  1  0
 22 23  1  0
 19 24  1  0
 25 26  1  0
 25 27  1  0
 25 28  1  0
 13 29  1  0
 16 30  1  0
 29 30  1  0
 31 32  2  0
 32 33  1  0
 33 34  2  0
 20 35  1  0
 34 35  1  0
 31 36  1  0
 35 36  2  0
 37 38  2  0
 25 39  1  0
 38 39  1  0
 39 40  2  0
 40 41  1  0
 16 42  1  0
 37 42  1  0
 41 42  2  0
M  END
