x0981-x3115-x3117-x2754
     RDKit          3D

 66 72  0  0  0  0  0  0  0  0999 V2000
    1.1700   -8.7920   21.3260 C   0  0  0  0  0  0  0  0  0  0  0  0
    2.7490   -7.4080   22.8550 N   0  0  0  0  0  0  0  0  0  0  0  0
    0.4650   -6.6700   22.2500 O   0  0  0  0  0  0  0  0  0  0  0  0
    1.5480   -7.6110   22.2020 C   0  0  0  0  0  0  0  0  0  0  0  0
    2.6460   -8.1960   26.5900 N   0  0  0  0  0  0  0  0  0  0  0  0
    3.8930   -8.3180   24.6050 O   0  0  0  0  0  0  0  0  0  0  0  0
    3.1070   -6.1570   23.5610 C   0  0  1  0  0  0  0  0  0  0  0  0
    5.5220   -5.9620   22.3570 N   0  0  0  0  0  0  0  0  0  0  0  0
    3.1240   -6.1780   25.0640 C   0  0  0  0  0  0  0  0  0  0  0  0
    3.2220   -7.6180   25.4460 C   0  0  0  0  0  0  0  0  0  0  0  0
    4.3930   -5.4770   22.9660 C   0  0  0  0  0  0  0  0  0  0  0  0
    6.2640   -4.7830   20.4270 C   0  0  0  0  0  0  0  0  0  0  0  0
    5.6740   -5.9320   20.0270 C   0  0  0  0  0  0  0  0  0  0  0  0
    7.1760   -1.5170   21.8910 N   0  0  0  0  0  0  0  0  0  0  0  0
    7.0500    2.1690   22.8810 N   0  0  0  0  0  0  0  0  0  0  0  0
    8.6370    1.5180   21.1410 O   0  0  0  0  0  0  0  0  0  0  0  0
    6.6380   -0.1470   21.7120 C   0  0  1  0  0  0  0  0  0  0  0  0
    7.4760    1.1800   21.9180 C   0  0  0  0  0  0  0  0  0  0  0  0
    7.5580    4.3650   21.5760 C   0  0  0  0  0  0  0  0  0  0  0  0
   12.6350   -2.0310   22.8390 C   0  0  0  0  0  0  0  0  0  0  0  0
   13.1610   -2.4740   21.6750 C   0  0  0  0  0  0  0  0  0  0  0  0
   13.1100   -2.7290   24.0950 C   0  0  0  0  0  0  0  0  0  0  0  0
   13.1280   -0.5710   22.9070 C   0  0  0  0  0  0  0  0  0  0  0  0
    7.5500   -1.5840   23.9750 N   0  0  0  0  0  0  0  0  0  0  0  0
    9.1020    2.0960   23.3630 N   0  0  0  0  0  0  0  0  0  0  0  0
    9.7670    0.1880   22.5390 O   0  0  0  0  0  0  0  0  0  0  0  0
    7.8060   -0.1090   24.0460 C   0  0  0  0  0  0  0  0  0  0  0  0
    8.9450    0.7190   23.2790 C   0  0  0  0  0  0  0  0  0  0  0  0
   11.6300   -0.9000   24.4340 C   0  0  0  0  0  0  0  0  0  0  0  0
   10.6880   -0.3480   25.2600 C   0  0  0  0  0  0  0  0  0  0  0  0
   12.4910    0.2270   23.8790 C   0  0  0  0  0  0  0  0  0  0  0  0
   12.5370   -1.9070   25.1530 C   0  0  0  0  0  0  0  0  0  0  0  0
    4.4890   -2.9260   25.0870 C   0  0  0  0  0  0  0  0  0  0  0  0
    3.4190   -3.3360   25.5500 O   0  0  0  0  0  0  0  0  0  0  0  0
    5.6220   -2.5400   26.0040 N   0  0  0  0  0  0  0  0  0  0  0  0
    5.2010   -1.5850   27.0360 C   0  0  0  0  0  0  0  0  0  0  0  0
    6.2770    0.2500   17.8770 N   0  0  0  0  0  0  0  0  0  0  0  0
    5.1250    0.9310   17.8410 C   0  0  0  0  0  0  0  0  0  0  0  0
    4.2520    1.3560   18.9980 C   0  0  0  0  0  0  0  0  0  0  0  0
    4.7990    0.9480   20.3560 C   0  0  0  0  0  0  0  0  0  0  0  0
    5.9900    0.2570   20.4220 C   0  0  0  0  0  0  0  0  0  0  0  0
    6.7270   -0.0930   19.0990 C   0  0  0  0  0  0  0  0  0  0  0  0
    9.3540   -1.4080   21.3360 C   0  0  0  0  0  0  0  0  0  0  0  0
   10.6710   -1.5450   21.5450 C   0  0  0  0  0  0  0  0  0  0  0  0
   11.1640   -1.9890   22.7960 C   0  0  0  0  0  0  0  0  0  0  0  0
   10.2500   -2.3100   23.7880 C   0  0  0  0  0  0  0  0  0  0  0  0
    8.7020   -2.2310   23.7150 C   0  0  0  0  0  0  0  0  0  0  0  0
    8.4870   -1.7010   22.2740 C   0  0  0  0  0  0  0  0  0  0  0  0
    9.4940    5.0990   24.4540 O   0  0  0  0  0  0  0  0  0  0  0  0
    9.0170    4.0010   25.2580 C   0  0  0  0  0  0  0  0  0  0  0  0
    7.9380    3.1670   24.8700 C   0  0  0  0  0  0  0  0  0  0  0  0
    8.0120    3.0180   23.5370 C   0  0  2  0  0  0  0  0  0  0  0  0
    8.0400    4.2660   22.9670 C   0  0  1  0  0  0  0  0  0  0  0  0
    9.1970    4.9910   23.0770 C   0  0  0  0  0  0  0  0  0  0  0  0
    7.0300   -3.7280   22.7720 N   0  0  0  0  0  0  0  0  0  0  0  0
    6.7050   -2.2180   22.9050 C   0  0  2  0  0  0  0  0  0  0  0  0
    5.3990   -1.8650   23.1100 C   0  0  0  0  0  0  0  0  0  0  0  0
    4.5520   -2.8290   23.5400 C   0  0  1  0  0  0  0  0  0  0  0  0
    4.8570   -4.2900   22.9570 C   0  0  0  0  0  0  0  0  0  0  0  0
    6.0810   -4.5810   22.0100 C   0  0  2  0  0  0  0  0  0  0  0  0
    6.5410   -4.5530   27.2170 C   0  0  0  0  0  0  0  0  0  0  0  0
    7.6170   -5.3440   27.6270 C   0  0  0  0  0  0  0  0  0  0  0  0
    9.0180   -4.9430   27.2190 C   0  0  0  0  0  0  0  0  0  0  0  0
    9.1740   -3.8020   26.4520 C   0  0  0  0  0  0  0  0  0  0  0  0
    8.0810   -3.0250   26.0550 C   0  0  0  0  0  0  0  0  0  0  0  0
    6.7480   -3.3990   26.4380 C   0  0  0  0  0  0  0  0  0  0  0  0
  1  4  1  0
  2  4  1  0
  3  4  2  0
  2  7  1  0
  7  9  1  1
  5 10  1  0
  6 10  2  0
  9 10  1  0
  7 11  1  0
  8 11  1  0
 12 13  2  3
 14 17  1  0
 15 18  1  0
 16 18  2  0
 17 18  1  0
 20 21  1  0
 20 22  1  0
 20 23  1  0
 24 27  1  0
 25 28  1  0
 26 28  2  0
 27 28  1  0
 29 30  1  0
 29 31  1  0
 22 32  1  0
 29 32  1  0
 33 34  2  0
 33 35  1  0
 35 36  1  0
 37 38  2  0
 38 39  1  0
 39 40  2  0
 17 41  1  6
 40 41  1  0
 37 42  1  0
 41 42  2  0
 43 44  2  0
 20 45  1  0
 44 45  1  0
 45 46  2  0
 46 47  1  0
 14 48  1  0
 43 48  1  0
 47 48  2  0
 49 50  1  0
 50 51  1  0
 52 15  1  0
 25 52  1  0
 52 51  1  1
 53 19  1  6
 52 53  1  0
 49 54  1  0
 53 54  1  0
 56 14  1  0
 24 56  1  0
 55 56  1  0
 56 57  1  1
 58 33  1  1
 57 58  1  0
 11 59  2  0
 58 59  1  0
  8 60  1  0
 60 12  1  6
 55 60  1  0
 59 60  1  0
 61 62  2  0
 62 63  1  0
 63 64  2  0
 64 65  1  0
 35 66  1  0
 61 66  1  0
 65 66  2  0
M  END
