x0981-x0755-x3110-x3115
     RDKit          3D

 61 64  0  0  0  0  0  0  0  0999 V2000
    7.9300    2.0590   22.9080 N   0  0  0  0  0  0  0  0  0  0  0  0
   13.3920    5.1530   22.7600 C   0  0  0  0  0  0  0  0  0  0  0  0
   11.8540    3.5620   22.5140 O   0  0  0  0  0  0  0  0  0  0  0  0
   12.3300    4.5560   21.9400 C   0  0  0  0  0  0  0  0  0  0  0  0
    7.0740   -1.1680   22.2200 N   0  0  0  0  0  0  0  0  0  0  0  0
   11.3520    4.7020   24.4360 O   0  0  0  0  0  0  0  0  0  0  0  0
   11.0970    3.8430   23.6040 C   0  0  0  0  0  0  0  0  0  0  0  0
    8.8470    1.2960   21.0120 O   0  0  0  0  0  0  0  0  0  0  0  0
    9.9100    2.9760   23.7130 C   0  0  0  0  0  0  0  0  0  0  0  0
    8.7690    3.1390   22.8180 C   0  0  2  0  0  0  0  0  0  0  0  0
    7.9530    1.2080   21.8400 C   0  0  0  0  0  0  0  0  0  0  0  0
    6.7930    0.2420   21.7680 C   0  0  1  0  0  0  0  0  0  0  0  0
   12.4930   -1.9140   23.7940 C   0  0  0  0  0  0  0  0  0  0  0  0
   12.9870   -0.5300   24.0950 C   0  0  0  0  0  0  0  0  0  0  0  0
   13.2730   -2.3790   22.5860 C   0  0  0  0  0  0  0  0  0  0  0  0
   12.8560   -2.8730   24.9440 C   0  0  0  0  0  0  0  0  0  0  0  0
    8.7750    5.5400   23.0770 O   0  0  0  0  0  0  0  0  0  0  0  0
    7.9220    4.3910   23.0860 C   0  0  0  0  0  0  0  0  0  0  0  0
    8.3030    6.5410   22.1470 C   0  0  0  0  0  0  0  0  0  0  0  0
    1.3010   -8.5560   21.6030 C   0  0  0  0  0  0  0  0  0  0  0  0
    2.8050   -7.0330   22.7400 N   0  0  0  0  0  0  0  0  0  0  0  0
    0.6480   -6.4090   22.3560 O   0  0  0  0  0  0  0  0  0  0  0  0
    1.5400   -7.2450   22.2690 C   0  0  0  0  0  0  0  0  0  0  0  0
    2.4330   -8.4170   26.1090 N   0  0  0  0  0  0  0  0  0  0  0  0
    4.0360   -8.2410   24.5390 O   0  0  0  0  0  0  0  0  0  0  0  0
    3.0850   -5.9870   23.5910 C   0  0  1  0  0  0  0  0  0  0  0  0
    2.7800   -6.4340   24.8760 C   0  0  0  0  0  0  0  0  0  0  0  0
    3.1280   -7.7490   25.1560 C   0  0  0  0  0  0  0  0  0  0  0  0
    6.6170   -5.1840   20.3110 C   0  0  0  0  0  0  0  0  0  0  0  0
    5.8840   -6.0410   19.9220 C   0  0  0  0  0  0  0  0  0  0  0  0
    6.5850   -2.2150   21.3330 C   0  0  0  0  0  0  0  0  0  0  0  0
    5.8320   -3.2220   21.9660 C   0  0  0  0  0  0  0  0  0  0  0  0
    4.5640   -6.3580   26.5490 O   0  0  0  0  0  0  0  0  0  0  0  0
    6.2660   -4.5140   26.7940 O   0  0  0  0  0  0  0  0  0  0  0  0
    1.9280   -5.2660   26.0550 F   0  0  0  0  0  0  0  0  0  0  0  0
    5.5610   -2.1410   26.0070 F   0  0  0  0  0  0  0  0  0  0  0  0
    5.1330   -5.0420   26.0720 S   0  0  0  0  0  0  0  0  0  0  0  0
    6.3040    0.1400   18.0030 N   0  0  0  0  0  0  0  0  0  0  0  0
    5.2090    0.9020   17.9060 C   0  0  0  0  0  0  0  0  0  0  0  0
    4.5780    1.4540   18.9780 C   0  0  0  0  0  0  0  0  0  0  0  0
    5.1190    1.2050   20.1900 C   0  0  0  0  0  0  0  0  0  0  0  0
    6.2520    0.4320   20.3660 C   0  0  0  0  0  0  0  0  0  0  0  0
    6.8350   -0.1050   19.2140 C   0  0  0  0  0  0  0  0  0  0  0  0
    9.3700   -1.8050   21.7110 C   0  0  0  0  0  0  0  0  0  0  0  0
   10.6720   -1.9810   22.1040 C   0  0  0  0  0  0  0  0  0  0  0  0
   11.0360   -1.7420   23.4050 C   0  0  0  0  0  0  0  0  0  0  0  0
   10.1300   -1.3520   24.2940 C   0  0  0  0  0  0  0  0  0  0  0  0
    8.8190   -1.1800   23.8840 C   0  0  0  0  0  0  0  0  0  0  0  0
    8.3900   -1.3820   22.6050 C   0  0  0  0  0  0  0  0  0  0  0  0
    2.4410   -4.0280   26.0240 C   0  0  0  0  0  0  0  0  0  0  0  0
    3.8200   -3.7560   26.0280 C   0  0  0  0  0  0  0  0  0  0  0  0
    4.2630   -2.4580   26.0000 C   0  0  0  0  0  0  0  0  0  0  0  0
    3.3350   -1.4130   25.9660 C   0  0  0  0  0  0  0  0  0  0  0  0
    1.9850   -1.6420   25.9610 C   0  0  0  0  0  0  0  0  0  0  0  0
    1.5590   -2.9520   25.9890 C   0  0  0  0  0  0  0  0  0  0  0  0
    6.3170   -4.7240   21.8060 C   0  0  2  0  0  0  0  0  0  0  0  0
    7.3380   -4.9790   22.7250 C   0  0  0  0  0  0  0  0  0  0  0  0
    6.9540   -4.8290   24.0820 C   0  0  0  0  0  0  0  0  0  0  0  0
    5.5630   -5.2400   24.4440 N   0  0  0  0  0  0  0  0  0  0  0  0
    4.5110   -5.2320   23.3640 C   0  0  1  0  0  0  0  0  0  0  0  0
    5.2120   -5.7120   22.2820 C   0  0  0  0  0  0  0  0  0  0  0  0
  2  4  1  0
  3  4  1  0
  3  7  1  0
  6  7  2  0
  7  9  1  0
  1 10  1  0
 10  9  1  1
  1 11  1  0
  8 11  2  0
  5 12  1  0
 12 11  1  6
 13 14  1  0
 13 15  1  0
 13 16  1  0
 10 18  1  0
 17 18  1  0
 17 19  1  0
 20 23  1  0
 21 23  1  0
 22 23  2  0
 21 26  1  0
 26 27  1  1
 24 28  1  0
 25 28  2  0
 27 28  1  0
 29 30  2  3
  5 31  1  0
 31 32  1  0
 33 37  2  0
 34 37  2  0
 38 39  2  0
 39 40  1  0
 40 41  2  0
 12 42  1  0
 41 42  1  0
 38 43  1  0
 42 43  2  0
 44 45  2  0
 13 46  1  0
 45 46  1  0
 46 47  2  0
 47 48  1  0
  5 49  1  0
 44 49  1  0
 48 49  2  0
 35 50  1  0
 37 51  1  0
 50 51  2  0
 36 52  1  0
 51 52  1  0
 52 53  2  0
 53 54  1  0
 50 55  1  0
 54 55  2  0
 56 29  1  6
 32 56  1  0
 56 57  1  0
 57 58  1  0
 37 59  1  0
 58 59  1  0
 26 60  1  0
 59 60  1  0
 56 61  1  0
 60 61  1  6
M  END
