x0981-x1351
     RDKit          3D

 28 30  0  0  0  0  0  0  0  0999 V2000
    1.2410   -8.5540   21.6130 C   0  0  0  0  0  0  0  0  0  0  0  0
    3.0240   -7.1250   22.8980 N   0  0  0  0  0  0  0  0  0  0  0  0
    0.5850   -6.2920   22.3540 O   0  0  0  0  0  0  0  0  0  0  0  0
    1.6440   -7.2550   22.3410 C   0  0  0  0  0  0  0  0  0  0  0  0
    2.5680   -7.8480   26.7370 N   0  0  0  0  0  0  0  0  0  0  0  0
    3.2290   -8.6660   24.6370 O   0  0  0  0  0  0  0  0  0  0  0  0
    3.4970   -5.9510   23.6830 C   0  0  1  0  0  0  0  0  0  0  0  0
    4.7720   -5.2710   21.6170 N   0  0  0  0  0  0  0  0  0  0  0  0
    3.7280   -6.3410   24.9950 C   0  0  0  0  0  0  0  0  0  0  0  0
    3.1820   -7.7170   25.3850 C   0  0  0  0  0  0  0  0  0  0  0  0
    4.7130   -5.2720   22.9640 C   0  0  0  0  0  0  0  0  0  0  0  0
    6.7820   -5.1150   20.5020 C   0  0  0  0  0  0  0  0  0  0  0  0
    5.9590   -5.9950   19.9720 C   0  0  0  0  0  0  0  0  0  0  0  0
    6.1670   -3.0790   25.0430 N   0  0  0  0  0  0  0  0  0  0  0  0
    8.1500   -3.0680   26.5220 O   0  0  0  0  0  0  0  0  0  0  0  0
    7.0090   -2.4800   26.1070 C   0  0  0  0  0  0  0  0  0  0  0  0
    5.9410   -3.1480   21.3920 N   0  0  0  0  0  0  0  0  0  0  0  0
    6.8400   -2.4000   22.1240 C   0  0  0  0  0  0  0  0  0  0  0  0
    7.6210   -2.9860   23.3280 C   0  0  0  0  0  0  0  0  0  0  0  0
    6.8170   -3.9190   24.0080 C   0  0  2  0  0  0  0  0  0  0  0  0
    6.0100   -4.4950   23.0530 C   0  0  0  0  0  0  0  0  0  0  0  0
    6.0140   -4.4370   21.6890 C   0  0  1  0  0  0  0  0  0  0  0  0
    7.2100   -0.7350   27.9430 C   0  0  0  0  0  0  0  0  0  0  0  0
    6.8640    0.4570   28.5890 C   0  0  0  0  0  0  0  0  0  0  0  0
    5.7700    1.3490   28.0240 C   0  0  0  0  0  0  0  0  0  0  0  0
    5.1790    0.8780   26.8550 C   0  0  0  0  0  0  0  0  0  0  0  0
    5.5570   -0.3270   26.2400 C   0  0  0  0  0  0  0  0  0  0  0  0
    6.5750   -1.1620   26.7610 C   0  0  0  0  0  0  0  0  0  0  0  0
  1  4  1  0
  2  4  1  0
  3  4  2  0
  2  7  1  0
  7  9  1  1
  5 10  1  0
  6 10  2  0
  9 10  1  0
  7 11  1  0
  8 11  1  0
 12 13  2  3
 14 16  1  0
 15 16  2  0
 17 18  1  0
 18 19  1  0
 20 14  1  1
 19 20  1  0
 11 21  2  0
 20 21  1  0
  8 22  1  0
 22 12  1  6
 17 22  1  0
 21 22  1  0
 23 24  2  0
 24 25  1  0
 25 26  2  0
 26 27  1  0
 16 28  1  0
 23 28  1  0
 27 28  2  0
M  END
