x0981-x0689-x3117-x3110
     RDKit          3D

 60 65  0  0  0  0  0  0  0  0999 V2000
    8.2510    1.6970   23.4510 N   0  0  0  0  0  0  0  0  0  0  0  0
   13.5930    5.4380   22.1600 C   0  0  0  0  0  0  0  0  0  0  0  0
   12.2310    4.1280   23.6790 O   0  0  0  0  0  0  0  0  0  0  0  0
   12.8540    4.1590   22.4160 C   0  0  0  0  0  0  0  0  0  0  0  0
    7.0210   -1.1890   22.2920 N   0  0  0  0  0  0  0  0  0  0  0  0
   11.1070    3.6050   23.6330 C   0  0  0  0  0  0  0  0  0  0  0  0
    8.8420    1.3090   21.2690 O   0  0  0  0  0  0  0  0  0  0  0  0
   10.7910    2.2080   23.1390 C   0  0  0  0  0  0  0  0  0  0  0  0
    8.0210    1.1060   22.1880 C   0  0  0  0  0  0  0  0  0  0  0  0
    6.7470    0.2590   21.9480 C   0  0  1  0  0  0  0  0  0  0  0  0
   12.4490   -1.8500   24.0980 C   0  0  0  0  0  0  0  0  0  0  0  0
   12.7320   -0.5500   24.8240 C   0  0  0  0  0  0  0  0  0  0  0  0
   13.4150   -1.9610   22.9240 C   0  0  0  0  0  0  0  0  0  0  0  0
   12.7580   -3.0080   25.0230 C   0  0  0  0  0  0  0  0  0  0  0  0
    1.2410   -8.7270   21.3570 C   0  0  0  0  0  0  0  0  0  0  0  0
    2.6750   -7.2490   22.6900 N   0  0  0  0  0  0  0  0  0  0  0  0
    0.5170   -6.6240   22.2360 O   0  0  0  0  0  0  0  0  0  0  0  0
    1.4240   -7.4460   22.1330 C   0  0  0  0  0  0  0  0  0  0  0  0
    2.3250   -8.5330   26.2460 N   0  0  0  0  0  0  0  0  0  0  0  0
    3.9080   -8.2800   24.6270 O   0  0  0  0  0  0  0  0  0  0  0  0
    2.9610   -6.0590   23.5490 C   0  0  1  0  0  0  0  0  0  0  0  0
    4.0700   -4.0950   22.8690 O   0  0  0  0  0  0  0  0  0  0  0  0
    2.5150   -6.4530   24.9630 C   0  0  0  0  0  0  0  0  0  0  0  0
    2.9800   -7.8410   25.2630 C   0  0  0  0  0  0  0  0  0  0  0  0
    6.7600   -5.2980   20.2850 C   0  0  0  0  0  0  0  0  0  0  0  0
    5.9390   -6.1680   19.7720 C   0  0  0  0  0  0  0  0  0  0  0  0
    6.5410   -2.1050   21.2870 C   0  0  0  0  0  0  0  0  0  0  0  0
    5.7590   -3.3730   21.7420 C   0  0  0  0  0  0  0  0  0  0  0  0
    4.1650   -6.0390   26.5450 O   0  0  0  0  0  0  0  0  0  0  0  0
    5.7500   -4.1270   26.7430 O   0  0  0  0  0  0  0  0  0  0  0  0
    4.7420   -4.8380   25.9990 S   0  0  0  0  0  0  0  0  0  0  0  0
    6.4130    0.2180   18.1250 N   0  0  0  0  0  0  0  0  0  0  0  0
    5.2990    0.9350   17.9460 C   0  0  0  0  0  0  0  0  0  0  0  0
    4.5730    1.4650   18.9740 C   0  0  0  0  0  0  0  0  0  0  0  0
    5.0150    1.2550   20.2770 C   0  0  0  0  0  0  0  0  0  0  0  0
    6.1730    0.5220   20.5510 C   0  0  0  0  0  0  0  0  0  0  0  0
    6.8270    0.0240   19.4100 C   0  0  0  0  0  0  0  0  0  0  0  0
    9.3740   -1.7220   21.8680 C   0  0  0  0  0  0  0  0  0  0  0  0
   10.6900   -1.8870   22.3020 C   0  0  0  0  0  0  0  0  0  0  0  0
   11.0130   -1.7120   23.6460 C   0  0  0  0  0  0  0  0  0  0  0  0
    9.9930   -1.3890   24.5210 C   0  0  0  0  0  0  0  0  0  0  0  0
    8.6780   -1.2280   24.0740 C   0  0  0  0  0  0  0  0  0  0  0  0
    8.3370   -1.3810   22.7340 C   0  0  0  0  0  0  0  0  0  0  0  0
    9.1830    4.8150   24.5300 O   0  0  0  0  0  0  0  0  0  0  0  0
    9.8280    3.8780   23.9740 C   0  0  0  0  0  0  0  0  0  0  0  0
    9.3440    2.6410   23.2140 C   0  0  2  0  0  0  0  0  0  0  0  0
    8.7930    3.3140   22.0000 C   0  0  0  0  0  0  0  0  0  0  0  0
    7.9170    4.5440   22.3800 C   0  0  0  0  0  0  0  0  0  0  0  0
    8.5030    5.4830   23.4660 C   0  0  0  0  0  0  0  0  0  0  0  0
    6.3190   -4.8440   21.6720 C   0  0  1  0  0  0  0  0  0  0  0  0
    5.2880   -5.8730   22.2060 C   0  0  0  0  0  0  0  0  0  0  0  0
    4.4090   -5.3870   23.3370 C   0  0  2  0  0  0  0  0  0  0  0  0
    5.3400   -5.1930   24.4500 N   0  0  0  0  0  0  0  0  0  0  0  0
    6.7610   -4.7440   24.1930 C   0  0  0  0  0  0  0  0  0  0  0  0
    7.3720   -4.9730   22.7860 C   0  0  0  0  0  0  0  0  0  0  0  0
    3.8040   -2.0180   26.1500 S   0  0  0  0  0  0  0  0  0  0  0  0
    3.4180   -3.6490   25.8540 C   0  0  0  0  0  0  0  0  0  0  0  0
    2.0780   -3.7980   25.5340 C   0  0  0  0  0  0  0  0  0  0  0  0
    1.3730   -2.5700   25.5380 C   0  0  0  0  0  0  0  0  0  0  0  0
    2.1900   -1.5110   25.8590 C   0  0  0  0  0  0  0  0  0  0  0  0
  2  4  1  0
  3  4  1  0
  3  6  1  0
  6  8  1  0
  1  9  1  0
  7  9  2  0
  5 10  1  0
 10  9  1  6
 11 12  1  0
 11 13  1  0
 11 14  1  0
 15 18  1  0
 16 18  1  0
 17 18  2  0
 16 21  1  0
 21 23  1  1
 19 24  1  0
 20 24  2  0
 23 24  1  0
 25 26  2  3
  5 27  1  0
 27 28  1  0
 29 31  2  0
 30 31  2  0
 32 33  2  0
 33 34  1  0
 34 35  2  0
 10 36  1  0
 35 36  1  0
 32 37  1  0
 36 37  2  0
 38 39  2  0
 11 40  1  0
 39 40  1  0
 40 41  2  0
 41 42  1  0
  5 43  1  0
 38 43  1  0
 42 43  2  0
  6 45  2  0
 44 45  1  0
 46  1  1  1
  8 46  1  0
 45 46  1  0
 46 47  1  0
 47 48  1  0
 44 49  1  0
 48 49  1  0
 50 25  1  6
 28 50  1  0
 50 51  1  0
 21 52  1  0
 52 22  1  6
 51 52  1  0
 31 53  1  0
 52 53  1  0
 53 54  1  0
 50 55  1  0
 54 55  1  0
 31 57  1  0
 56 57  1  0
 57 58  2  0
 58 59  1  0
 56 60  1  0
 59 60  2  0
M  END
