x0981-x1249
     RDKit          3D

 36 37  0  0  0  0  0  0  0  0999 V2000
    1.1930   -8.7840   21.2930 C   0  0  0  0  0  0  0  0  0  0  0  0
    2.6620   -7.2230   22.7690 N   0  0  0  0  0  0  0  0  0  0  0  0
    0.2150   -6.6550   22.0890 O   0  0  0  0  0  0  0  0  0  0  0  0
    1.3730   -7.4940   22.1050 C   0  0  0  0  0  0  0  0  0  0  0  0
    2.4360   -8.3070   26.4320 N   0  0  0  0  0  0  0  0  0  0  0  0
    4.0090   -8.2370   24.6470 O   0  0  0  0  0  0  0  0  0  0  0  0
    2.8420   -5.9770   23.5310 C   0  0  1  0  0  0  0  0  0  0  0  0
    5.0840   -5.8710   22.3680 N   0  0  0  0  0  0  0  0  0  0  0  0
    4.3130   -3.9530   23.7810 N   0  0  0  0  0  0  0  0  0  0  0  0
    2.7310   -6.2610   24.8870 C   0  0  0  0  0  0  0  0  0  0  0  0
    3.1430   -7.6740   25.2710 C   0  0  0  0  0  0  0  0  0  0  0  0
    4.1730   -5.2740   23.1780 C   0  0  0  0  0  0  0  0  0  0  0  0
    6.2450   -5.0140   21.8710 C   0  0  0  0  0  0  0  0  0  0  0  0
    6.3890   -5.1680   20.3660 C   0  0  0  0  0  0  0  0  0  0  0  0
    5.7320   -6.1980   19.8620 C   0  0  0  0  0  0  0  0  0  0  0  0
    5.3790   -3.1460   23.5930 C   0  0  0  0  0  0  0  0  0  0  0  0
    5.1210   -1.6500   23.3960 C   0  0  0  0  0  0  0  0  0  0  0  0
    8.5310    1.0890   23.8610 N   0  0  0  0  0  0  0  0  0  0  0  0
    7.5660    1.9740   23.9830 C   0  0  0  0  0  0  0  0  0  0  0  0
    7.8570    3.1410   24.1900 O   0  0  0  0  0  0  0  0  0  0  0  0
    9.5530    1.7490   23.3590 C   0  0  0  0  0  0  0  0  0  0  0  0
   13.5540   -3.4180   20.8400 N   0  0  0  0  0  0  0  0  0  0  0  0
   13.0040   -2.3200   21.5970 C   0  0  0  0  0  0  0  0  0  0  0  0
    3.6890    0.9980   23.7030 O   0  0  0  0  0  0  0  0  0  0  0  0
    4.3640    1.2230   22.5350 C   0  0  0  0  0  0  0  0  0  0  0  0
    5.4540    2.0350   22.7490 C   0  0  0  0  0  0  0  0  0  0  0  0
    6.3070    1.5240   23.8310 N   0  0  0  0  0  0  0  0  0  0  0  0
    5.6990    0.9700   24.8970 C   0  0  0  0  0  0  0  0  0  0  0  0
    4.4150    0.4600   24.7390 C   0  0  2  0  0  0  0  0  0  0  0  0
   11.9460    0.9750   22.9660 C   0  0  0  0  0  0  0  0  0  0  0  0
   12.7980   -0.0200   22.5390 C   0  0  0  0  0  0  0  0  0  0  0  0
   12.2910   -1.2600   22.1140 C   0  0  0  0  0  0  0  0  0  0  0  0
   10.9120   -1.4440   22.1830 C   0  0  0  0  0  0  0  0  0  0  0  0
   10.0490   -0.4750   22.6080 C   0  0  0  0  0  0  0  0  0  0  0  0
   10.5690    0.7270   22.9750 C   0  0  0  0  0  0  0  0  0  0  0  0
    4.4190   -1.0680   24.5830 C   0  0  0  0  0  0  0  0  0  0  0  0
  1  4  1  0
  2  4  1  0
  3  4  2  0
  2  7  1  0
  7 10  1  1
  5 11  1  0
  6 11  2  0
 10 11  1  0
  7 12  1  0
  8 12  1  0
  9 12  2  3
  8 13  1  0
 13 14  1  0
 14 15  2  3
  9 16  1  0
 16 17  1  0
 18 19  1  0
 19 20  2  0
 18 21  1  0
 22 23  3  0
 24 25  1  0
 25 26  1  0
 19 27  1  0
 26 27  1  0
 27 28  1  0
 24 29  1  0
 28 29  1  0
 30 31  2  0
 23 32  1  0
 31 32  1  0
 32 33  2  0
 33 34  1  0
 21 35  1  0
 30 35  1  0
 34 35  2  0
 17 36  1  0
 29 36  1  6
M  END
