x0981-x0978-x2052-x3113
     RDKit          3D

 58 62  0  0  0  0  0  0  0  0999 V2000
    1.0490   -8.4770   21.7830 C   0  0  0  0  0  0  0  0  0  0  0  0
    2.5680   -6.9590   22.7760 N   0  0  0  0  0  0  0  0  0  0  0  0
    0.7160   -6.1920   21.7880 O   0  0  0  0  0  0  0  0  0  0  0  0
    1.2350   -7.1060   22.3970 C   0  0  0  0  0  0  0  0  0  0  0  0
    2.5720   -8.3000   26.3480 N   0  0  0  0  0  0  0  0  0  0  0  0
    4.0280   -8.2340   24.5640 O   0  0  0  0  0  0  0  0  0  0  0  0
    3.0040   -5.8050   23.5990 C   0  0  1  0  0  0  0  0  0  0  0  0
    5.4780   -5.2610   22.4360 N   0  0  0  0  0  0  0  0  0  0  0  0
    4.0400   -3.7000   23.4810 N   0  0  0  0  0  0  0  0  0  0  0  0
    3.0710   -6.1790   25.0880 C   0  0  0  0  0  0  0  0  0  0  0  0
    3.2610   -7.6810   25.3180 C   0  0  0  0  0  0  0  0  0  0  0  0
    4.2930   -4.9270   23.1270 C   0  0  0  0  0  0  0  0  0  0  0  0
    6.6120   -4.4390   21.8160 C   0  0  1  0  0  0  0  0  0  0  0  0
    6.7450   -4.9300   20.3540 C   0  0  0  0  0  0  0  0  0  0  0  0
    5.8340   -6.0590   19.9000 C   0  0  0  0  0  0  0  0  0  0  0  0
    0.3240   -7.0310   23.6160 C   0  0  0  0  0  0  0  0  0  0  0  0
    8.4880    0.9290   23.1070 N   0  0  0  0  0  0  0  0  0  0  0  0
    8.8430    1.7630   20.9190 O   0  0  0  0  0  0  0  0  0  0  0  0
   11.7730    4.0220   23.4000 O   0  0  0  0  0  0  0  0  0  0  0  0
    7.6180   -0.5380   21.1950 C   0  0  2  0  0  0  0  0  0  0  0  0
    8.3340    0.7280   21.7540 C   0  0  0  0  0  0  0  0  0  0  0  0
    9.1970    2.0000   23.5450 C   0  0  0  0  0  0  0  0  0  0  0  0
   10.7300    1.9890   23.5880 C   0  0  0  0  0  0  0  0  0  0  0  0
   11.4520    3.0500   22.7300 C   0  0  0  0  0  0  0  0  0  0  0  0
   12.7860    4.5610   22.9380 C   0  0  0  0  0  0  0  0  0  0  0  0
   12.6960   -2.1790   24.3470 C   0  0  0  0  0  0  0  0  0  0  0  0
   13.5320   -2.3840   23.2700 C   0  0  0  0  0  0  0  0  0  0  0  0
   13.0250   -3.1660   25.4730 C   0  0  0  0  0  0  0  0  0  0  0  0
   12.8970   -0.7770   24.9150 C   0  0  0  0  0  0  0  0  0  0  0  0
    5.4080   -1.6650   25.3700 C   0  0  0  0  0  0  0  0  0  0  0  0
    4.6880   -2.4860   25.9000 O   0  0  0  0  0  0  0  0  0  0  0  0
    6.3400   -0.8940   26.0380 N   0  0  0  0  0  0  0  0  0  0  0  0
    5.5200    2.0950   30.6160 O   0  0  0  0  0  0  0  0  0  0  0  0
    6.2720    3.3030   30.6510 C   0  0  0  0  0  0  0  0  0  0  0  0
    6.2090    0.2600   17.7940 N   0  0  0  0  0  0  0  0  0  0  0  0
    5.0960    0.9080   18.0820 C   0  0  0  0  0  0  0  0  0  0  0  0
    4.6710    1.1340   19.3740 C   0  0  0  0  0  0  0  0  0  0  0  0
    5.4350    0.6760   20.4970 C   0  0  0  0  0  0  0  0  0  0  0  0
    6.6270   -0.0040   20.1980 C   0  0  0  0  0  0  0  0  0  0  0  0
    6.9280   -0.1710   18.8330 C   0  0  0  0  0  0  0  0  0  0  0  0
    9.8700   -1.6900   21.9930 C   0  0  0  0  0  0  0  0  0  0  0  0
   11.1350   -1.8160   22.4970 C   0  0  0  0  0  0  0  0  0  0  0  0
   11.2960   -2.1200   23.8330 C   0  0  0  0  0  0  0  0  0  0  0  0
   10.1960   -2.3180   24.6320 C   0  0  0  0  0  0  0  0  0  0  0  0
    8.8930   -2.2000   24.1510 C   0  0  0  0  0  0  0  0  0  0  0  0
    8.7490   -1.8710   22.8250 C   0  0  0  0  0  0  0  0  0  0  0  0
    6.5550   -2.9340   21.8770 N   0  0  0  0  0  0  0  0  0  0  0  0
    7.3830   -1.6500   22.2720 C   0  0  2  0  0  0  0  0  0  0  0  0
    6.6070   -0.8880   23.2310 C   0  0  0  0  0  0  0  0  0  0  0  0
    5.2820   -1.4020   23.8760 C   0  0  1  0  0  0  0  0  0  0  0  0
    4.9430   -2.6440   23.1210 C   0  0  1  0  0  0  0  0  0  0  0  0
    6.0940   -3.2300   23.1210 C   0  0  0  0  0  0  0  0  0  0  0  0
    6.2620    1.9410   28.3730 N   0  0  0  0  0  0  0  0  0  0  0  0
    6.4320    1.1440   27.2860 C   0  0  0  0  0  0  0  0  0  0  0  0
    6.1040   -0.2070   27.2360 C   0  0  0  0  0  0  0  0  0  0  0  0
    5.5570   -0.7890   28.3840 C   0  0  0  0  0  0  0  0  0  0  0  0
    5.3660   -0.0040   29.5150 C   0  0  0  0  0  0  0  0  0  0  0  0
    5.7300    1.3540   29.4700 C   0  0  0  0  0  0  0  0  0  0  0  0
  1  4  1  0
  2  4  1  0
  4  3  1  0
  2  7  1  0
  7 10  1  1
  5 11  1  0
  6 11  2  0
 10 11  1  0
  7 12  1  0
  8 12  1  0
  9 12  2  0
  8 13  1  0
 13 14  1  6
 14 15  2  3
  4 16  1  0
 17 21  1  0
 18 21  2  0
 20 21  1  1
 17 22  1  0
 22 23  1  0
 19 24  1  0
 23 24  1  0
 19 25  1  0
 26 27  1  0
 26 28  1  0
 26 29  1  0
 30 31  2  0
 30 32  1  0
 33 34  1  0
 35 36  2  0
 36 37  1  0
 37 38  2  0
 20 39  1  0
 38 39  1  0
 35 40  1  0
 39 40  2  0
 41 42  2  0
 26 43  1  0
 42 43  1  0
 43 44  2  0
 44 45  1  0
 41 46  1  0
 45 46  2  0
 13 47  1  0
 20 48  1  0
 48 46  1  1
 47 48  1  0
 48 49  1  0
 50 30  1  1
 49 50  1  0
 51  9  1  1
 50 51  1  0
 47 52  1  0
 51 52  1  0
 53 54  2  0
 32 55  1  0
 54 55  1  0
 55 56  2  0
 56 57  1  0
 33 58  1  0
 53 58  1  0
 57 58  2  0
M  END
