x0981-x2776-x0689-x2694-x1425
     RDKit          3D

 72 78  0  0  0  0  0  0  0  0999 V2000
    1.2290   -8.4010   21.9090 C   0  0  0  0  0  0  0  0  0  0  0  0
    2.9770   -6.8280   23.0460 N   0  0  0  0  0  0  0  0  0  0  0  0
    0.6510   -6.1380   22.5250 O   0  0  0  0  0  0  0  0  0  0  0  0
    1.7130   -7.1030   22.5400 C   0  0  0  0  0  0  0  0  0  0  0  0
    2.1830   -8.3010   26.3440 N   0  0  0  0  0  0  0  0  0  0  0  0
    3.7210   -8.2570   24.6060 O   0  0  0  0  0  0  0  0  0  0  0  0
    3.2890   -5.6820   23.9640 C   0  0  1  0  0  0  0  0  0  0  0  0
    4.4890   -3.5220   24.3010 C   0  0  0  0  0  0  0  0  0  0  0  0
    3.0710   -6.1880   25.4270 C   0  0  2  0  0  0  0  0  0  0  0  0
    3.0340   -7.6420   25.4040 C   0  0  0  0  0  0  0  0  0  0  0  0
    6.3980   -4.9290   20.3260 C   0  0  0  0  0  0  0  0  0  0  0  0
    5.7650   -6.0470   19.9350 C   0  0  0  0  0  0  0  0  0  0  0  0
    5.3340   -3.8920   25.1250 O   0  0  0  0  0  0  0  0  0  0  0  0
    6.6890   -0.8610   22.3520 N   0  0  0  0  0  0  0  0  0  0  0  0
    7.8990    2.3290   22.6800 N   0  0  0  0  0  0  0  0  0  0  0  0
    5.3100    2.6090   22.0210 O   0  0  0  0  0  0  0  0  0  0  0  0
   11.7210    6.2990   23.6640 O   0  0  0  0  0  0  0  0  0  0  0  0
    5.9760    0.4200   22.0690 C   0  0  1  0  0  0  0  0  0  0  0  0
   12.7020   -2.7620   24.4500 N   0  0  0  0  0  0  0  0  0  0  0  0
    6.4170    1.9550   22.2850 C   0  0  0  0  0  0  0  0  0  0  0  0
   10.4550    1.7010   23.4340 C   0  0  0  0  0  0  0  0  0  0  0  0
   11.9720    6.6240   25.0210 C   0  0  0  0  0  0  0  0  0  0  0  0
   12.0970   -1.4500   24.2830 C   0  0  2  0  0  0  0  0  0  0  0  0
   12.3190   -0.5570   25.2590 C   0  0  0  0  0  0  0  0  0  0  0  0
   13.6140   -2.8280   25.4320 C   0  0  0  0  0  0  0  0  0  0  0  0
    6.8320   -3.2960   22.3110 C   0  0  0  0  0  0  0  0  0  0  0  0
    6.0540   -2.0720   21.7880 C   0  0  0  0  0  0  0  0  0  0  0  0
    7.5600    1.2870   21.3680 N   0  0  0  0  0  0  0  0  0  0  0  0
    7.8190    3.7500   22.6390 N   0  0  0  0  0  0  0  0  0  0  0  0
    5.6640    3.9070   22.1430 O   0  0  0  0  0  0  0  0  0  0  0  0
    6.7600    1.8670   22.3140 C   0  0  0  0  0  0  0  0  0  0  0  0
    6.7620    3.2770   22.3750 C   0  0  0  0  0  0  0  0  0  0  0  0
    6.2780   -4.7210   21.8680 C   0  0  1  0  0  0  0  0  0  0  0  0
    4.9340   -4.8710   22.2970 C   0  0  0  0  0  0  0  0  0  0  0  0
    4.6840   -4.9320   23.6950 C   0  0  2  0  0  0  0  0  0  0  0  0
    5.7510   -5.5650   24.5080 N   0  0  0  0  0  0  0  0  0  0  0  0
    7.0890   -5.4780   23.9370 C   0  0  0  0  0  0  0  0  0  0  0  0
    7.0190   -5.8230   22.6340 C   0  0  0  0  0  0  0  0  0  0  0  0
    6.1410    0.0150   18.1480 N   0  0  0  0  0  0  0  0  0  0  0  0
    4.9850    0.6610   17.9090 C   0  0  0  0  0  0  0  0  0  0  0  0
    4.0100    1.2700   18.9100 C   0  0  0  0  0  0  0  0  0  0  0  0
    4.2680    1.2030   20.2230 C   0  0  0  0  0  0  0  0  0  0  0  0
    5.5790    0.4930   20.6050 C   0  0  0  0  0  0  0  0  0  0  0  0
    6.4580   -0.0820   19.4710 C   0  0  0  0  0  0  0  0  0  0  0  0
   10.0310    3.1390   23.2710 C   0  0  0  0  0  0  0  0  0  0  0  0
   11.0090    4.1810   23.5150 C   0  0  0  0  0  0  0  0  0  0  0  0
   10.6640    5.4810   23.3950 C   0  0  0  0  0  0  0  0  0  0  0  0
    9.3000    6.0700   23.0160 C   0  0  0  0  0  0  0  0  0  0  0  0
    8.2830    4.9060   22.7530 C   0  0  0  0  0  0  0  0  0  0  0  0
    8.7710    3.5380   22.9110 C   0  0  0  0  0  0  0  0  0  0  0  0
    9.1650   -0.9720   21.9130 C   0  0  0  0  0  0  0  0  0  0  0  0
   10.3550   -1.1370   22.5730 C   0  0  0  0  0  0  0  0  0  0  0  0
   10.7680   -1.3370   23.7480 C   0  0  0  0  0  0  0  0  0  0  0  0
    9.6400   -1.3830   24.3240 C   0  0  0  0  0  0  0  0  0  0  0  0
    8.3100   -1.2470   23.9640 C   0  0  0  0  0  0  0  0  0  0  0  0
    8.0680   -1.0120   22.6660 C   0  0  0  0  0  0  0  0  0  0  0  0
   10.2050    8.2270   25.4640 O   0  0  0  0  0  0  0  0  0  0  0  0
   10.7040    6.9280   25.8010 C   0  0  0  0  0  0  0  0  0  0  0  0
   12.6410   -1.7010   22.2680 C   0  0  0  0  0  0  0  0  0  0  0  0
   13.0910   -0.2490   22.5390 C   0  0  0  0  0  0  0  0  0  0  0  0
   13.1290   -2.0740   20.9060 C   0  0  0  0  0  0  0  0  0  0  0  0
   13.3710   -2.6600   23.1930 C   0  0  0  0  0  0  0  0  0  0  0  0
    9.6200    1.1180   24.5600 C   0  0  0  0  0  0  0  0  0  0  0  0
    2.9330   -2.1000   27.1370 S   0  0  0  0  0  0  0  0  0  0  0  0
    3.2860   -3.8370   27.2370 C   0  0  0  0  0  0  0  0  0  0  0  0
    2.1750   -4.1680   26.5090 C   0  0  0  0  0  0  0  0  0  0  0  0
    1.3020   -3.1600   26.0290 C   0  0  0  0  0  0  0  0  0  0  0  0
    1.4860   -1.8020   26.2500 C   0  0  0  0  0  0  0  0  0  0  0  0
    1.8760   -5.6250   26.2120 C   0  0  0  0  0  0  0  0  0  0  0  0
    0.9710   -1.0290   28.6950 C   0  0  0  0  0  0  0  0  0  0  0  0
    2.0370   -0.3380   28.0440 O   0  0  0  0  0  0  0  0  0  0  0  0
    1.9100   -0.4180   26.6230 C   0  0  0  0  0  0  0  0  0  0  0  0
  1  4  1  0
  2  4  1  0
  3  4  2  0
  7  2  1  6
  7  9  1  0
  5 10  1  0
  6 10  2  0
  9 10  1  0
 11 12  2  3
  8 13  2  0
 18 14  1  6
 15 20  2  0
 16 20  1  0
 18 20  1  0
 17 22  1  0
 19 23  1  0
 23 24  1  1
 19 25  1  0
 14 27  1  0
 26 27  1  0
 16 30  1  0
 28 31  1  0
 29 32  2  0
 30 32  1  0
 31 32  1  0
 33 11  1  6
 26 33  1  0
 33 34  1  0
  7 35  1  0
 35  8  1  1
 34 35  1  0
 35 36  1  0
 36 37  1  0
 33 38  1  0
 37 38  1  0
 39 40  2  0
 40 41  1  0
 41 42  2  0
 18 43  1  0
 42 43  1  0
 39 44  1  0
 43 44  2  0
 21 45  1  0
 45 46  1  0
 17 47  1  0
 46 47  2  0
 47 48  1  0
 29 49  1  0
 48 49  2  0
 15 50  1  0
 45 50  2  0
 49 50  1  0
 51 52  2  0
 23 53  1  0
 52 53  1  0
 52 54  1  0
 53 54  2  0
 54 55  1  0
 14 56  1  0
 51 56  1  0
 55 56  2  0
 22 58  1  0
 57 58  1  0
 59 60  1  0
 59 61  1  0
 19 62  1  0
 59 62  1  0
 21 63  1  0
 64 65  1  0
 65 66  2  0
 66 67  1  0
 64 68  1  0
 67 68  2  0
  9 69  1  6
 66 69  1  0
 70 71  1  0
 68 72  1  0
 71 72  1  0
M  END
