x0981-x3117-x2776-x2754
     RDKit          3D

 68 74  0  0  0  0  0  0  0  0999 V2000
    1.2360   -8.7240   21.3470 C   0  0  0  0  0  0  0  0  0  0  0  0
    2.6860   -7.3250   22.7800 N   0  0  0  0  0  0  0  0  0  0  0  0
    0.5700   -6.6110   22.2670 O   0  0  0  0  0  0  0  0  0  0  0  0
    1.4510   -7.4590   22.1760 C   0  0  0  0  0  0  0  0  0  0  0  0
    2.5290   -8.2100   26.4000 N   0  0  0  0  0  0  0  0  0  0  0  0
    3.9450   -8.3180   24.6470 O   0  0  0  0  0  0  0  0  0  0  0  0
    3.0730   -6.0700   23.4690 C   0  0  1  0  0  0  0  0  0  0  0  0
    5.4480   -6.0280   22.1970 N   0  0  0  0  0  0  0  0  0  0  0  0
    2.9750   -6.2450   24.9970 C   0  0  0  0  0  0  0  0  0  0  0  0
    3.1940   -7.6760   25.3320 C   0  0  0  0  0  0  0  0  0  0  0  0
    4.4520   -5.4470   22.9240 C   0  0  0  0  0  0  0  0  0  0  0  0
    6.2330   -4.8010   20.3500 C   0  0  0  0  0  0  0  0  0  0  0  0
    5.6640   -5.9680   19.9950 C   0  0  0  0  0  0  0  0  0  0  0  0
    7.3810   -1.3330   21.4690 N   0  0  0  0  0  0  0  0  0  0  0  0
    7.7110    2.2420   22.5120 N   0  0  0  0  0  0  0  0  0  0  0  0
    9.0280    1.4080   20.9480 O   0  0  0  0  0  0  0  0  0  0  0  0
   10.9210    6.7140   23.8270 O   0  0  0  0  0  0  0  0  0  0  0  0
    6.9840    0.0590   21.3720 C   0  0  1  0  0  0  0  0  0  0  0  0
   13.2730   -3.1930   23.8510 O   0  0  0  0  0  0  0  0  0  0  0  0
    8.0040    1.2850   21.5820 C   0  0  0  0  0  0  0  0  0  0  0  0
   10.4720    1.9030   23.7700 C   0  0  0  0  0  0  0  0  0  0  0  0
   11.8070    6.5040   24.9450 C   0  0  0  0  0  0  0  0  0  0  0  0
   12.5930   -1.9910   23.5850 C   0  0  1  0  0  0  0  0  0  0  0  0
   13.3450   -0.8240   22.9320 C   0  0  0  0  0  0  0  0  0  0  0  0
   13.2860   -3.2950   25.0990 C   0  0  0  0  0  0  0  0  0  0  0  0
    7.3020   -2.0020   23.5560 N   0  0  0  0  0  0  0  0  0  0  0  0
    7.3900    1.6450   23.6330 N   0  0  0  0  0  0  0  0  0  0  0  0
    8.9900    0.2200   23.1060 O   0  0  0  0  0  0  0  0  0  0  0  0
    6.9010   -0.6980   24.0520 C   0  0  0  0  0  0  0  0  0  0  0  0
    7.8550    0.4010   23.5700 C   0  0  0  0  0  0  0  0  0  0  0  0
    4.6450   -2.9660   25.0070 C   0  0  0  0  0  0  0  0  0  0  0  0
    3.4130   -2.8660   25.0130 O   0  0  0  0  0  0  0  0  0  0  0  0
    5.3790   -2.9020   26.2460 N   0  0  0  0  0  0  0  0  0  0  0  0
    4.8510   -2.1560   27.2630 C   0  0  0  0  0  0  0  0  0  0  0  0
    6.3260    0.4820   17.7260 N   0  0  0  0  0  0  0  0  0  0  0  0
    5.2150    1.2350   17.7710 C   0  0  0  0  0  0  0  0  0  0  0  0
    4.6220    1.6200   18.9570 C   0  0  0  0  0  0  0  0  0  0  0  0
    5.1440    1.2630   20.1850 C   0  0  0  0  0  0  0  0  0  0  0  0
    6.3050    0.4890   20.1620 C   0  0  0  0  0  0  0  0  0  0  0  0
    6.8220    0.1390   18.9250 C   0  0  0  0  0  0  0  0  0  0  0  0
    9.8410    3.2270   23.4310 C   0  0  0  0  0  0  0  0  0  0  0  0
   10.5980    4.3740   23.7440 C   0  0  0  0  0  0  0  0  0  0  0  0
   10.1100    5.6570   23.4790 C   0  0  0  0  0  0  0  0  0  0  0  0
    8.7130    5.8210   22.8180 C   0  0  0  0  0  0  0  0  0  0  0  0
    8.0260    4.6480   22.5380 C   0  0  0  0  0  0  0  0  0  0  0  0
    8.5490    3.3590   22.8300 C   0  0  0  0  0  0  0  0  0  0  0  0
    9.7160   -1.1700   21.4750 C   0  0  0  0  0  0  0  0  0  0  0  0
   10.9770   -1.3610   22.0130 C   0  0  0  0  0  0  0  0  0  0  0  0
   11.1750   -1.9450   23.2170 C   0  0  0  0  0  0  0  0  0  0  0  0
   10.1220   -2.4060   23.9890 C   0  0  0  0  0  0  0  0  0  0  0  0
    8.7240   -2.2210   23.4190 C   0  0  0  0  0  0  0  0  0  0  0  0
    8.6040   -1.5440   22.0670 C   0  0  0  0  0  0  0  0  0  0  0  0
    7.1500   -3.7750   22.4120 N   0  0  0  0  0  0  0  0  0  0  0  0
    6.7600   -2.3790   22.2890 C   0  0  2  0  0  0  0  0  0  0  0  0
    5.3030   -2.2530   22.6390 C   0  0  0  0  0  0  0  0  0  0  0  0
    5.3850   -3.1840   23.6540 C   0  0  2  0  0  0  0  0  0  0  0  0
    5.1880   -4.3900   23.0330 C   0  0  0  0  0  0  0  0  0  0  0  0
    6.1680   -4.7290   21.9210 C   0  0  2  0  0  0  0  0  0  0  0  0
    6.8090   -4.7780   27.4140 C   0  0  0  0  0  0  0  0  0  0  0  0
    7.9950   -5.4340   27.7700 C   0  0  0  0  0  0  0  0  0  0  0  0
    8.8820   -4.6920   27.1870 C   0  0  0  0  0  0  0  0  0  0  0  0
    9.0230   -3.5440   26.3830 C   0  0  0  0  0  0  0  0  0  0  0  0
    7.8710   -2.9090   26.0460 C   0  0  0  0  0  0  0  0  0  0  0  0
    6.6640   -3.6090   26.6230 C   0  0  0  0  0  0  0  0  0  0  0  0
   12.4780   -1.8320   25.0390 C   0  0  0  0  0  0  0  0  0  0  0  0
   12.1930   -0.5340   25.3260 C   0  0  0  0  0  0  0  0  0  0  0  0
   13.7660   -2.3640   25.6870 C   0  0  0  0  0  0  0  0  0  0  0  0
   11.3260   -2.7900   25.4110 C   0  0  0  0  0  0  0  0  0  0  0  0
  1  4  1  0
  2  4  1  0
  3  4  2  0
  2  7  1  0
  7  9  1  1
  5 10  1  0
  6 10  2  0
  9 10  1  0
  7 11  1  0
  8 11  1  0
 12 13  2  3
 14 18  1  0
 15 20  1  0
 16 20  2  0
 18 20  1  0
 17 22  1  0
 23 19  1  0
 23 24  1  6
 19 25  1  0
 15 27  1  0
 26 29  1  0
 27 30  1  0
 28 30  2  0
 29 30  1  0
 31 32  2  0
 31 33  1  0
 33 34  1  0
 35 36  2  0
 36 37  1  0
 37 38  2  0
 18 39  1  6
 38 39  1  0
 35 40  1  0
 39 40  2  0
 21 41  1  0
 41 42  2  0
 17 43  1  0
 42 43  1  0
 43 44  2  0
 44 45  1  0
 15 46  1  0
 41 46  1  0
 45 46  2  0
 47 48  2  0
 23 49  1  0
 48 49  1  0
 49 50  2  0
 50 51  1  0
 14 52  1  0
 47 52  1  0
 51 52  2  0
 54 14  1  0
 26 54  1  0
 53 54  1  0
 54 55  1  1
 56 31  1  1
 55 56  1  0
 11 57  2  0
 56 57  1  0
  8 58  1  0
 58 12  1  6
 53 58  1  0
 57 58  1  0
 59 60  2  0
 60 61  1  0
 61 62  2  0
 62 63  1  0
 33 64  1  0
 59 64  1  0
 63 64  2  0
 23 65  1  0
 65 66  1  0
 65 67  1  0
 65 68  1  0
M  END
