x0981-x0978-x1351-x3110
     RDKit          3D

 68 74  0  0  0  0  0  0  0  0999 V2000
    7.8730    1.7290   23.2760 N   0  0  0  0  0  0  0  0  0  0  0  0
   13.3620    5.2830   22.9580 C   0  0  0  0  0  0  0  0  0  0  0  0
   12.1380    3.3830   22.2950 O   0  0  0  0  0  0  0  0  0  0  0  0
   12.6470    4.6170   21.8290 C   0  0  0  0  0  0  0  0  0  0  0  0
    7.2700   -1.4810   21.8980 N   0  0  0  0  0  0  0  0  0  0  0  0
   11.1680    4.3660   24.0580 O   0  0  0  0  0  0  0  0  0  0  0  0
   11.2180    3.3630   23.2940 C   0  0  0  0  0  0  0  0  0  0  0  0
    8.3140    1.4720   21.0830 O   0  0  0  0  0  0  0  0  0  0  0  0
   10.2910    2.2130   23.4790 C   0  0  0  0  0  0  0  0  0  0  0  0
    8.8940    2.7780   23.3400 C   0  0  0  0  0  0  0  0  0  0  0  0
    7.6150    0.9940   22.1420 C   0  0  0  0  0  0  0  0  0  0  0  0
    6.8050   -0.1280   21.7850 C   0  0  1  0  0  0  0  0  0  0  0  0
   12.4650   -1.6030   24.0860 C   0  0  0  0  0  0  0  0  0  0  0  0
   12.4990   -0.5040   25.0790 C   0  0  0  0  0  0  0  0  0  0  0  0
   13.3770   -1.2830   22.9670 C   0  0  0  0  0  0  0  0  0  0  0  0
   12.8850   -2.8950   24.7060 C   0  0  0  0  0  0  0  0  0  0  0  0
    1.2790   -8.8260   21.1410 C   0  0  0  0  0  0  0  0  0  0  0  0
    2.8570   -7.5660   22.5750 N   0  0  0  0  0  0  0  0  0  0  0  0
    0.5700   -7.5060   22.9240 O   0  0  0  0  0  0  0  0  0  0  0  0
    1.5510   -7.9190   22.2710 C   0  0  0  0  0  0  0  0  0  0  0  0
    2.8420   -8.1670   26.7150 N   0  0  0  0  0  0  0  0  0  0  0  0
    2.4050   -9.1950   24.7530 O   0  0  0  0  0  0  0  0  0  0  0  0
    3.4490   -6.6070   23.4930 C   0  0  1  0  0  0  0  0  0  0  0  0
    5.1570   -5.8710   21.7850 N   0  0  0  0  0  0  0  0  0  0  0  0
    3.9890   -7.4260   24.5940 C   0  0  0  0  0  0  0  0  0  0  0  0
    3.0570   -8.2990   25.2890 C   0  0  0  0  0  0  0  0  0  0  0  0
    4.4040   -5.6300   22.8740 C   0  0  1  0  0  0  0  0  0  0  0  0
    6.6170   -5.0360   20.4280 C   0  0  0  0  0  0  0  0  0  0  0  0
    5.9150   -6.0180   19.9440 C   0  0  0  0  0  0  0  0  0  0  0  0
    1.5730   -4.4310   24.3830 N   0  0  0  0  0  0  0  0  0  0  0  0
    2.3310   -5.7490   26.4660 C   0  0  0  0  0  0  0  0  0  0  0  0
    4.3680   -5.7290   25.9060 O   0  0  0  0  0  0  0  0  0  0  0  0
    3.3580   -5.0180   25.8510 C   0  0  1  0  0  0  0  0  0  0  0  0
    4.1160   -3.1280   22.6420 N   0  0  0  0  0  0  0  0  0  0  0  0
    1.3230   -5.8010   22.6230 O   0  0  0  0  0  0  0  0  0  0  0  0
    2.9960   -4.7440   24.4140 C   0  0  2  0  0  0  0  0  0  0  0  0
    0.7910   -5.1840   23.5430 C   0  0  0  0  0  0  0  0  0  0  0  0
   -0.6030   -5.2240   23.6780 C   0  0  0  0  0  0  0  0  0  0  0  0
    4.1630   -4.2450   23.4610 C   0  0  1  0  0  0  0  0  0  0  0  0
    5.3570   -2.2740   20.5210 C   0  0  0  0  0  0  0  0  0  0  0  0
    5.0730   -2.6780   19.2350 C   0  0  0  0  0  0  0  0  0  0  0  0
    6.3840   -4.1530   25.2220 N   0  0  0  0  0  0  0  0  0  0  0  0
    6.8350   -4.1170   27.4860 O   0  0  0  0  0  0  0  0  0  0  0  0
    6.5150   -3.5200   26.4570 C   0  0  0  0  0  0  0  0  0  0  0  0
    6.3310    0.1560   17.9800 N   0  0  0  0  0  0  0  0  0  0  0  0
    5.2090    0.8970   17.9880 C   0  0  0  0  0  0  0  0  0  0  0  0
    4.5640    1.3150   19.1090 C   0  0  0  0  0  0  0  0  0  0  0  0
    5.0710    0.9800   20.3330 C   0  0  0  0  0  0  0  0  0  0  0  0
    6.2330    0.2200   20.4020 C   0  0  0  0  0  0  0  0  0  0  0  0
    6.8260   -0.1720   19.1930 C   0  0  0  0  0  0  0  0  0  0  0  0
    9.5540   -2.1130   21.8030 C   0  0  0  0  0  0  0  0  0  0  0  0
   10.8080   -2.1600   22.3130 C   0  0  0  0  0  0  0  0  0  0  0  0
   11.0830   -1.5870   23.5220 C   0  0  0  0  0  0  0  0  0  0  0  0
   10.0870   -0.9560   24.2510 C   0  0  0  0  0  0  0  0  0  0  0  0
    8.7080   -0.9100   23.6760 C   0  0  0  0  0  0  0  0  0  0  0  0
    8.4960   -1.5050   22.4360 C   0  0  0  0  0  0  0  0  0  0  0  0
    5.4100   -3.1900   21.7340 C   0  0  1  0  0  0  0  0  0  0  0  0
    6.4740   -2.5240   22.4960 C   0  0  2  0  0  0  0  0  0  0  0  0
    6.0860   -2.3240   23.6820 C   0  0  0  0  0  0  0  0  0  0  0  0
    5.6920   -3.7180   24.1600 C   0  0  1  0  0  0  0  0  0  0  0  0
    5.6180   -4.8350   23.1880 C   0  0  1  0  0  0  0  0  0  0  0  0
    5.8400   -4.5020   21.7500 C   0  0  1  0  0  0  0  0  0  0  0  0
    7.0280   -1.4360   27.7250 C   0  0  0  0  0  0  0  0  0  0  0  0
    6.8760   -0.1000   28.0160 C   0  0  0  0  0  0  0  0  0  0  0  0
    5.9920    0.7360   27.3190 C   0  0  0  0  0  0  0  0  0  0  0  0
    5.1140    0.2290   26.1680 C   0  0  0  0  0  0  0  0  0  0  0  0
    5.3050   -1.1410   25.9100 C   0  0  0  0  0  0  0  0  0  0  0  0
    6.2840   -2.0480   26.6860 C   0  0  0  0  0  0  0  0  0  0  0  0
  2  4  1  0
  3  4  1  0
  3  7  1  0
  6  7  2  0
  7  9  1  0
  1 10  1  0
  9 10  1  0
  1 11  1  0
  8 11  2  0
  5 12  1  0
 12 11  1  6
 13 14  1  0
 13 15  1  0
 13 16  1  0
 17 20  1  0
 18 20  1  0
 19 20  2  0
 18 23  1  0
 23 25  1  1
 21 26  1  0
 22 26  2  0
 25 26  1  0
 23 27  1  0
 27 24  1  6
 28 29  2  3
 33 31  1  6
 32 33  1  0
 36 30  1  1
 33 36  1  0
 30 37  1  0
 35 37  2  0
 37 38  1  0
 27 39  1  0
 39 34  1  6
 36 39  1  0
 40 41  2  3
 42 44  1  0
 43 44  2  0
 45 46  2  0
 46 47  1  0
 47 48  2  0
 12 49  1  0
 48 49  1  0
 45 50  1  0
 49 50  2  0
 51 52  2  0
 13 53  1  0
 52 53  1  0
 53 54  2  0
 54 55  1  0
  5 56  1  0
 51 56  1  0
 55 56  2  0
 34 57  1  0
 57 40  1  6
 58  5  1  6
 57 58  1  0
 58 59  1  0
 60 42  1  1
 59 60  1  0
 27 61  1  0
 39 61  1  0
 61 60  1  1
 24 62  1  0
 62 28  1  1
 57 62  1  0
 61 62  1  0
 63 64  2  0
 64 65  1  0
 65 66  2  0
 66 67  1  0
 44 68  1  0
 63 68  1  0
 67 68  2  0
M  END
