x0981-x1458-x3113
     RDKit          3D

 54 58  0  0  0  0  0  0  0  0999 V2000
    1.2000   -8.7660   21.3260 C   0  0  0  0  0  0  0  0  0  0  0  0
    2.7030   -7.0710   22.6210 N   0  0  0  0  0  0  0  0  0  0  0  0
    0.1680   -6.6830   22.1720 O   0  0  0  0  0  0  0  0  0  0  0  0
    1.3720   -7.4470   22.0920 C   0  0  0  0  0  0  0  0  0  0  0  0
    2.5010   -8.0950   26.3240 N   0  0  0  0  0  0  0  0  0  0  0  0
    3.9850   -8.1390   24.4840 O   0  0  0  0  0  0  0  0  0  0  0  0
    2.8810   -5.7790   23.3040 C   0  0  1  0  0  0  0  0  0  0  0  0
    4.9490   -5.1570   21.8310 N   0  0  0  0  0  0  0  0  0  0  0  0
    4.8170   -4.4100   24.1050 N   0  0  0  0  0  0  0  0  0  0  0  0
    2.7450   -6.0800   24.6710 C   0  0  0  0  0  0  0  0  0  0  0  0
    3.1560   -7.5090   25.1060 C   0  0  0  0  0  0  0  0  0  0  0  0
    4.2670   -5.1020   23.0010 C   0  0  0  0  0  0  0  0  0  0  0  0
    6.8410   -5.4560   20.4040 C   0  0  0  0  0  0  0  0  0  0  0  0
    5.8610   -6.1530   19.9100 C   0  0  0  0  0  0  0  0  0  0  0  0
    7.0410   -1.4800   22.3370 C   0  0  1  0  0  0  0  0  0  0  0  0
    8.2460    1.4820   23.4010 N   0  0  0  0  0  0  0  0  0  0  0  0
    8.6930    1.2710   21.0730 O   0  0  0  0  0  0  0  0  0  0  0  0
   11.7910    3.9180   22.3910 O   0  0  0  0  0  0  0  0  0  0  0  0
    6.7650   -0.1120   22.0660 C   0  0  1  0  0  0  0  0  0  0  0  0
    7.9300    0.8910   22.2390 C   0  0  0  0  0  0  0  0  0  0  0  0
    9.2190    2.4170   23.3930 C   0  0  0  0  0  0  0  0  0  0  0  0
   10.5320    1.9890   23.2950 C   0  0  0  0  0  0  0  0  0  0  0  0
   11.5330    2.9310   23.4060 C   0  0  0  0  0  0  0  0  0  0  0  0
   12.9830    4.5650   22.5700 C   0  0  0  0  0  0  0  0  0  0  0  0
   12.5560   -1.8100   24.1540 C   0  0  0  0  0  0  0  0  0  0  0  0
   13.4520   -2.1610   22.9830 C   0  0  0  0  0  0  0  0  0  0  0  0
   12.8950   -2.9010   25.1870 C   0  0  0  0  0  0  0  0  0  0  0  0
   12.7360   -0.6380   24.7540 C   0  0  0  0  0  0  0  0  0  0  0  0
    6.3880   -2.3440   21.3390 C   0  0  0  0  0  0  0  0  0  0  0  0
    7.4250   -3.6040   26.2680 N   0  0  0  0  0  0  0  0  0  0  0  0
    9.2780   -4.7990   27.1070 C   0  0  0  0  0  0  0  0  0  0  0  0
    5.2910   -4.4260   26.2420 O   0  0  0  0  0  0  0  0  0  0  0  0
    7.9330   -4.3780   27.2820 C   0  0  0  0  0  0  0  0  0  0  0  0
    7.1330   -5.4730   27.6070 C   0  0  0  0  0  0  0  0  0  0  0  0
    7.1500   -2.3350   26.6070 C   0  0  0  0  0  0  0  0  0  0  0  0
    6.3850   -3.9940   25.5460 C   0  0  0  0  0  0  0  0  0  0  0  0
    6.5130    0.1190   18.1930 N   0  0  0  0  0  0  0  0  0  0  0  0
    5.3660    0.8160   18.0650 C   0  0  0  0  0  0  0  0  0  0  0  0
    4.6020    1.2400   19.1420 C   0  0  0  0  0  0  0  0  0  0  0  0
    5.0250    0.9450   20.4350 C   0  0  0  0  0  0  0  0  0  0  0  0
    6.2100    0.2300   20.6310 C   0  0  0  0  0  0  0  0  0  0  0  0
    6.9150   -0.1630   19.4670 C   0  0  0  0  0  0  0  0  0  0  0  0
    9.5550   -1.9450   21.7980 C   0  0  0  0  0  0  0  0  0  0  0  0
   10.8810   -2.0310   22.2450 C   0  0  0  0  0  0  0  0  0  0  0  0
   11.1480   -1.7520   23.5770 C   0  0  0  0  0  0  0  0  0  0  0  0
   10.1690   -1.3940   24.4690 C   0  0  0  0  0  0  0  0  0  0  0  0
    8.8750   -1.3080   24.0210 C   0  0  0  0  0  0  0  0  0  0  0  0
    8.5510   -1.5840   22.6810 C   0  0  0  0  0  0  0  0  0  0  0  0
    7.1070   -3.5390   21.7060 N   0  0  0  0  0  0  0  0  0  0  0  0
    7.8000   -3.1140   22.9480 C   0  0  0  0  0  0  0  0  0  0  0  0
    6.5690   -2.4240   23.5920 C   0  0  2  0  0  0  0  0  0  0  0  0
    6.1840   -3.9040   24.0020 C   0  0  2  0  0  0  0  0  0  0  0  0
    6.9400   -5.0610   23.2140 C   0  0  0  0  0  0  0  0  0  0  0  0
    6.3880   -4.8490   21.8180 C   0  0  1  0  0  0  0  0  0  0  0  0
  1  4  1  0
  2  4  1  0
  3  4  2  0
  2  7  1  0
  7 10  1  1
  5 11  1  0
  6 11  2  0
 10 11  1  0
  7 12  1  0
  8 12  1  0
  9 12  2  0
 13 14  2  3
 15 19  1  0
 16 20  1  0
 17 20  2  0
 19 20  1  6
 16 21  1  0
 21 22  1  0
 18 23  1  0
 22 23  1  0
 18 24  1  0
 25 26  1  0
 25 27  1  0
 25 28  1  0
 15 29  1  0
 30 33  1  0
 31 33  1  0
 33 34  1  0
 30 35  1  0
 30 36  1  0
 32 36  2  0
 37 38  2  0
 38 39  1  0
 39 40  2  0
 19 41  1  0
 40 41  1  0
 37 42  1  0
 41 42  2  0
 43 44  2  0
 25 45  1  0
 44 45  1  0
 45 46  2  0
 46 47  1  0
 15 48  1  6
 43 48  1  0
 47 48  2  0
 29 49  1  0
 49 50  1  0
 15 51  1  0
 51 50  1  1
  9 52  1  0
 52 36  1  1
 51 52  1  0
 52 53  1  0
  8 54  1  0
 54 13  1  6
 49 54  1  0
 53 54  1  0
M  END
