x0981-x2540-x3110-x0734
     RDKit          3D

 60 66  0  0  0  0  0  0  0  0999 V2000
    7.9320    1.6200   23.3180 N   0  0  0  0  0  0  0  0  0  0  0  0
   13.3730    5.2120   22.8840 C   0  0  0  0  0  0  0  0  0  0  0  0
   12.0440    3.4310   22.4520 O   0  0  0  0  0  0  0  0  0  0  0  0
   12.3970    4.5090   21.9700 C   0  0  0  0  0  0  0  0  0  0  0  0
    7.6670   -1.3590   21.8030 N   0  0  0  0  0  0  0  0  0  0  0  0
   11.1210    4.3510   24.3030 O   0  0  0  0  0  0  0  0  0  0  0  0
   11.1730    3.3870   23.5170 C   0  0  0  0  0  0  0  0  0  0  0  0
    8.7300    1.6890   21.0320 O   0  0  0  0  0  0  0  0  0  0  0  0
   10.2570    2.1430   23.7230 C   0  0  0  0  0  0  0  0  0  0  0  0
    8.8420    2.6090   23.5900 C   0  0  0  0  0  0  0  0  0  0  0  0
    7.8960    1.0750   22.0100 C   0  0  0  0  0  0  0  0  0  0  0  0
    6.9780   -0.0860   21.7110 C   0  0  1  0  0  0  0  0  0  0  0  0
   13.5240   -1.7240   24.4210 C   0  0  2  0  0  0  0  0  0  0  0  0
   12.4280   -0.8300   24.8690 C   0  0  0  0  0  0  0  0  0  0  0  0
   13.1060   -2.4780   23.2240 C   0  0  0  0  0  0  0  0  0  0  0  0
   13.2830   -2.8980   25.3530 C   0  0  0  0  0  0  0  0  0  0  0  0
   12.6060   -1.0610   23.3550 C   0  0  1  0  0  0  0  0  0  0  0  0
    8.3710    3.2470   24.8950 C   0  0  0  0  0  0  0  0  0  0  0  0
    8.7710    3.7540   22.5560 C   0  0  0  0  0  0  0  0  0  0  0  0
    1.0820   -8.7580   21.3030 C   0  0  0  0  0  0  0  0  0  0  0  0
    2.6640   -7.2770   22.8140 N   0  0  0  0  0  0  0  0  0  0  0  0
    0.4340   -6.7260   22.1030 O   0  0  0  0  0  0  0  0  0  0  0  0
    1.3800   -7.5050   22.1220 C   0  0  0  0  0  0  0  0  0  0  0  0
    2.4610   -8.1700   26.3160 N   0  0  0  0  0  0  0  0  0  0  0  0
    3.9060   -8.2520   24.5500 O   0  0  0  0  0  0  0  0  0  0  0  0
    2.9700   -6.1120   23.4720 C   0  0  1  0  0  0  0  0  0  0  0  0
    4.8250   -5.3960   21.7650 N   0  0  0  0  0  0  0  0  0  0  0  0
    5.3850   -5.5840   23.8900 N   0  0  0  0  0  0  0  0  0  0  0  0
    2.8250   -6.3040   24.8640 C   0  0  0  0  0  0  0  0  0  0  0  0
    3.1090   -7.6210   25.2170 C   0  0  0  0  0  0  0  0  0  0  0  0
    4.4170   -5.6960   23.0820 C   0  0  0  0  0  0  0  0  0  0  0  0
    6.7050   -5.2090   20.4010 C   0  0  0  0  0  0  0  0  0  0  0  0
    5.9320   -6.1190   19.8660 C   0  0  0  0  0  0  0  0  0  0  0  0
    5.5320   -4.7180   26.1770 N   0  0  0  0  0  0  0  0  0  0  0  0
    4.8920   -5.7530   25.9830 O   0  0  0  0  0  0  0  0  0  0  0  0
    5.0520   -3.7120   26.7350 O   0  0  0  0  0  0  0  0  0  0  0  0
    6.3360    0.1900   17.8560 N   0  0  0  0  0  0  0  0  0  0  0  0
    5.2360    0.9720   17.8570 C   0  0  0  0  0  0  0  0  0  0  0  0
    4.5260    1.5080   19.1140 C   0  0  0  0  0  0  0  0  0  0  0  0
    5.2030    1.0730   20.4150 C   0  0  0  0  0  0  0  0  0  0  0  0
    6.3480    0.2690   20.3870 C   0  0  0  0  0  0  0  0  0  0  0  0
    6.8860   -0.1630   19.0350 C   0  0  0  0  0  0  0  0  0  0  0  0
   10.0680   -1.0490   22.0060 C   0  0  0  0  0  0  0  0  0  0  0  0
   11.3740   -1.0070   22.5400 C   0  0  0  0  0  0  0  0  0  0  0  0
   11.0810   -1.4620   23.8690 C   0  0  0  0  0  0  0  0  0  0  0  0
    9.9130   -1.8400   24.5110 C   0  0  0  0  0  0  0  0  0  0  0  0
    8.7760   -1.8030   23.8350 C   0  0  0  0  0  0  0  0  0  0  0  0
    8.8490   -1.3990   22.5480 C   0  0  0  0  0  0  0  0  0  0  0  0
    6.9510   -4.8760   26.2440 C   0  0  0  0  0  0  0  0  0  0  0  0
    7.6670   -4.5730   25.1010 C   0  0  0  0  0  0  0  0  0  0  0  0
    8.9910   -4.7660   25.3730 C   0  0  0  0  0  0  0  0  0  0  0  0
    9.4920   -5.2050   26.5940 C   0  0  0  0  0  0  0  0  0  0  0  0
    8.6380   -5.4990   27.7020 C   0  0  0  0  0  0  0  0  0  0  0  0
    7.3040   -5.3310   27.5490 C   0  0  0  0  0  0  0  0  0  0  0  0
    5.9420   -3.2110   21.5970 N   0  0  0  0  0  0  0  0  0  0  0  0
    6.0660   -4.6720   21.7500 C   0  0  1  0  0  0  0  0  0  0  0  0
    6.5440   -5.1860   23.0280 C   0  0  1  0  0  0  0  0  0  0  0  0
    7.2140   -4.1470   23.8420 N   0  0  0  0  0  0  0  0  0  0  0  0
    6.8060   -2.7580   23.5780 C   0  0  0  0  0  0  0  0  0  0  0  0
    7.0850   -2.6110   22.2380 C   0  0  2  0  0  0  0  0  0  0  0  0
  2  4  1  0
  3  4  1  0
  3  7  1  0
  6  7  2  0
  7  9  1  0
 10  1  1  0
  9 10  1  0
  1 11  1  0
  8 11  2  0
  5 12  1  0
 12 11  1  6
 13 14  1  0
 13 15  1  0
 13 16  1  6
 13 17  1  0
 14 17  1  0
 15 17  1  0
 10 18  1  0
 10 19  1  0
 20 23  1  0
 21 23  1  0
 22 23  2  0
 21 26  1  0
 26 29  1  1
 24 30  1  0
 25 30  2  0
 29 30  1  0
 26 31  1  0
 27 31  1  0
 28 31  2  0
 32 33  2  3
 34 35  2  0
 34 36  1  0
 37 38  2  0
 38 39  1  0
 39 40  2  0
 12 41  1  0
 40 41  1  0
 37 42  1  0
 41 42  2  0
 17 44  1  6
 43 44  2  0
 44 45  1  0
 45 46  2  0
 46 47  1  0
  5 48  1  0
 43 48  1  0
 47 48  2  0
 34 49  1  0
 49 50  2  0
 50 51  1  0
 51 52  2  0
 52 53  1  0
 49 54  1  0
 53 54  2  0
 27 56  1  0
 56 32  1  6
 55 56  1  0
 57 28  1  1
 56 57  1  0
 50 58  1  0
 57 58  1  0
 58 59  1  0
 60  5  1  1
 55 60  1  0
 59 60  1  0
M  CHG  2  34   1  36  -1
M  END
