x0981-x1392
     RDKit          3D

 32 34  0  0  0  0  0  0  0  0999 V2000
    1.1470   -8.7870   21.2760 C   0  0  0  0  0  0  0  0  0  0  0  0
    2.6960   -7.3070   22.7170 N   0  0  0  0  0  0  0  0  0  0  0  0
    0.2490   -6.6360   22.1190 O   0  0  0  0  0  0  0  0  0  0  0  0
    1.3790   -7.5150   22.0940 C   0  0  0  0  0  0  0  0  0  0  0  0
    2.4810   -8.1890   26.4790 N   0  0  0  0  0  0  0  0  0  0  0  0
    3.9840   -8.2580   24.6520 O   0  0  0  0  0  0  0  0  0  0  0  0
    3.0080   -6.0550   23.4090 C   0  0  1  0  0  0  0  0  0  0  0  0
    5.1960   -6.2770   22.1650 N   0  0  0  0  0  0  0  0  0  0  0  0
    4.9830   -4.8270   23.9200 O   0  0  0  0  0  0  0  0  0  0  0  0
    2.7390   -6.2540   24.7600 C   0  0  0  0  0  0  0  0  0  0  0  0
    3.1450   -7.6410   25.2540 C   0  0  0  0  0  0  0  0  0  0  0  0
    4.4890   -5.6750   23.1760 C   0  0  0  0  0  0  0  0  0  0  0  0
    6.3300   -5.4510   21.5430 C   0  0  1  0  0  0  0  0  0  0  0  0
    6.4120   -5.6190   20.0020 C   0  0  0  0  0  0  0  0  0  0  0  0
    5.4950   -6.3560   19.7700 C   0  0  0  0  0  0  0  0  0  0  0  0
    6.0360   -4.0180   21.9920 C   0  0  0  0  0  0  0  0  0  0  0  0
    7.4400   -2.2780   21.2810 N   0  0  0  0  0  0  0  0  0  0  0  0
    8.6060   -1.6880   21.6490 C   0  0  0  0  0  0  0  0  0  0  0  0
    9.4910   -1.9560   22.7170 C   0  0  0  0  0  0  0  0  0  0  0  0
    9.1870   -2.9820   23.5700 C   0  0  0  0  0  0  0  0  0  0  0  0
    8.0600   -3.5740   23.2520 C   0  0  0  0  0  0  0  0  0  0  0  0
    7.1640   -3.3410   22.2240 C   0  0  0  0  0  0  0  0  0  0  0  0
    7.3050   -4.7400   23.8890 C   0  0  0  0  0  0  0  0  0  0  0  0
    8.1390   -5.1930   25.1080 C   0  0  0  0  0  0  0  0  0  0  0  0
    9.3550   -4.5920   25.4830 C   0  0  0  0  0  0  0  0  0  0  0  0
    9.9070   -3.5170   24.7700 C   0  0  0  0  0  0  0  0  0  0  0  0
   11.8670   -1.4560   22.2980 C   0  0  0  0  0  0  0  0  0  0  0  0
   12.9350   -0.5800   22.4630 C   0  0  0  0  0  0  0  0  0  0  0  0
   12.7010    0.6020   23.1820 C   0  0  0  0  0  0  0  0  0  0  0  0
   11.4820    0.9330   23.7340 C   0  0  0  0  0  0  0  0  0  0  0  0
   10.4620    0.0560   23.5570 C   0  0  0  0  0  0  0  0  0  0  0  0
   10.6380   -1.1240   22.8470 C   0  0  0  0  0  0  0  0  0  0  0  0
  1  4  1  0
  2  4  1  0
  3  4  2  0
  2  7  1  0
  7 10  1  1
  5 11  1  0
  6 11  2  0
 10 11  1  0
  7 12  1  0
  8 12  1  0
  9 12  2  0
  8 13  1  0
 13 14  1  6
 14 15  2  3
 13 16  1  0
 17 18  2  0
 18 19  1  0
 19 20  2  0
 20 21  1  0
 16 22  1  0
 17 22  1  0
 21 22  2  0
 21 23  1  0
 23 24  2  0
 24 25  1  0
 20 26  1  0
 25 26  2  0
 27 28  2  0
 28 29  1  0
 29 30  2  0
 30 31  1  0
 19 32  1  0
 27 32  1  0
 31 32  2  0
M  END
