x0981-x2705-x1458
     RDKit          3D

 57 61  0  0  0  0  0  0  0  0999 V2000
    1.1710   -8.7350   21.3230 C   0  0  0  0  0  0  0  0  0  0  0  0
    2.5640   -7.2570   22.7110 N   0  0  0  0  0  0  0  0  0  0  0  0
    0.3580   -6.7470   22.1070 O   0  0  0  0  0  0  0  0  0  0  0  0
    1.3520   -7.4950   22.1010 C   0  0  0  0  0  0  0  0  0  0  0  0
    2.2830   -8.1150   26.3850 N   0  0  0  0  0  0  0  0  0  0  0  0
    3.9560   -8.1900   24.5730 O   0  0  0  0  0  0  0  0  0  0  0  0
    2.8200   -5.9810   23.3860 C   0  0  1  0  0  0  0  0  0  0  0  0
    4.9660   -5.9410   21.9710 N   0  0  0  0  0  0  0  0  0  0  0  0
    4.8650   -4.7600   23.9540 N   0  0  0  0  0  0  0  0  0  0  0  0
    2.6260   -6.2070   24.8460 C   0  0  0  0  0  0  0  0  0  0  0  0
    2.9650   -7.5720   25.2950 C   0  0  0  0  0  0  0  0  0  0  0  0
    4.2680   -5.5460   23.0870 C   0  0  0  0  0  0  0  0  0  0  0  0
    6.6690   -5.6020   20.3640 C   0  0  0  0  0  0  0  0  0  0  0  0
    5.8580   -6.2470   19.8470 C   0  0  0  0  0  0  0  0  0  0  0  0
    7.6510   -0.9060   21.5730 N   0  0  0  0  0  0  0  0  0  0  0  0
    7.6430    2.4460   22.7500 N   0  0  0  0  0  0  0  0  0  0  0  0
    8.9620    1.6380   21.0930 O   0  0  0  0  0  0  0  0  0  0  0  0
    7.0000    0.4350   21.5380 C   0  0  1  0  0  0  0  0  0  0  0  0
    7.9520    1.5580   21.7830 C   0  0  0  0  0  0  0  0  0  0  0  0
   10.2820    2.2830   23.9240 C   0  0  0  0  0  0  0  0  0  0  0  0
    9.4040    1.3710   24.8160 C   0  0  0  0  0  0  0  0  0  0  0  0
    6.3470    4.8100   21.9190 C   0  0  0  0  0  0  0  0  0  0  0  0
   12.3000   -1.4380   23.2860 C   0  0  0  0  0  0  0  0  0  0  0  0
   12.7780   -0.1340   23.7750 C   0  0  0  0  0  0  0  0  0  0  0  0
   12.7050   -2.4950   24.3350 C   0  0  0  0  0  0  0  0  0  0  0  0
   12.8740   -1.9360   21.8840 C   0  0  0  0  0  0  0  0  0  0  0  0
    6.5870   -1.7250   21.5650 C   0  0  0  0  0  0  0  0  0  0  0  0
    7.5930   -4.2890   26.0370 N   0  0  0  0  0  0  0  0  0  0  0  0
    9.2440   -4.8700   27.6160 C   0  0  0  0  0  0  0  0  0  0  0  0
    5.3670   -4.4150   26.1310 O   0  0  0  0  0  0  0  0  0  0  0  0
    8.0990   -5.2520   26.9550 C   0  0  0  0  0  0  0  0  0  0  0  0
    7.1260   -5.5310   27.8920 C   0  0  0  0  0  0  0  0  0  0  0  0
    7.7980   -2.9240   26.3880 C   0  0  0  0  0  0  0  0  0  0  0  0
    6.3860   -4.3780   25.4300 C   0  0  0  0  0  0  0  0  0  0  0  0
    6.2780    0.3650   17.7610 N   0  0  0  0  0  0  0  0  0  0  0  0
    5.2140    1.1720   17.8040 C   0  0  0  0  0  0  0  0  0  0  0  0
    4.7290    1.7050   18.9460 C   0  0  0  0  0  0  0  0  0  0  0  0
    5.2440    1.5130   20.1950 C   0  0  0  0  0  0  0  0  0  0  0  0
    6.3480    0.6960   20.2100 C   0  0  0  0  0  0  0  0  0  0  0  0
    6.8570    0.1310   19.0670 C   0  0  0  0  0  0  0  0  0  0  0  0
    9.9190   -1.4580   24.2740 N   0  0  0  0  0  0  0  0  0  0  0  0
    8.6090   -1.3280   23.9230 N   0  0  0  0  0  0  0  0  0  0  0  0
    8.6610   -1.1350   22.6020 C   0  0  0  0  0  0  0  0  0  0  0  0
    9.9510   -1.1560   22.1930 C   0  0  0  0  0  0  0  0  0  0  0  0
   10.7960   -1.3520   23.2070 C   0  0  0  0  0  0  0  0  0  0  0  0
    9.6370    3.6040   23.5170 C   0  0  0  0  0  0  0  0  0  0  0  0
   10.3320    4.7950   23.7080 C   0  0  0  0  0  0  0  0  0  0  0  0
    9.6830    5.9600   23.3030 C   0  0  0  0  0  0  0  0  0  0  0  0
    8.4110    5.9490   22.7340 C   0  0  0  0  0  0  0  0  0  0  0  0
    7.7340    4.7930   22.5480 C   0  0  0  0  0  0  0  0  0  0  0  0
    8.3620    3.6210   22.9500 C   0  0  0  0  0  0  0  0  0  0  0  0
    5.8510   -3.8910   21.5880 N   0  0  0  0  0  0  0  0  0  0  0  0
    6.7520   -3.0270   22.2780 C   0  0  2  0  0  0  0  0  0  0  0  0
    6.2720   -3.0630   23.5430 C   0  0  0  0  0  0  0  0  0  0  0  0
    6.1700   -4.3260   23.9160 C   0  0  2  0  0  0  0  0  0  0  0  0
    6.8220   -5.2650   23.0510 C   0  0  0  0  0  0  0  0  0  0  0  0
    6.1530   -5.2720   21.8070 C   0  0  1  0  0  0  0  0  0  0  0  0
  1  4  1  0
  2  4  1  0
  3  4  2  0
  2  7  1  0
  7 10  1  1
  5 11  1  0
  6 11  2  0
 10 11  1  0
  7 12  1  0
  8 12  1  0
  9 12  2  0
 13 14  2  3
 15 18  1  0
 16 19  1  0
 17 19  2  0
 18 19  1  6
 20 21  1  0
 23 24  1  0
 23 25  1  0
 23 26  1  0
 15 27  1  0
 28 31  1  0
 29 31  1  0
 31 32  1  0
 28 33  1  0
 28 34  1  0
 30 34  2  0
 35 36  2  0
 36 37  1  0
 37 38  2  0
 18 39  1  0
 38 39  1  0
 35 40  1  0
 39 40  2  0
 41 42  1  0
 15 43  1  0
 42 43  2  0
 43 44  1  0
 23 45  1  0
 41 45  1  0
 44 45  2  0
 20 46  1  0
 46 47  2  0
 47 48  1  0
 48 49  2  0
 22 50  1  0
 49 50  1  0
 16 51  1  0
 46 51  1  0
 50 51  2  0
 53 27  1  6
 52 53  1  0
 53 54  1  0
  9 55  1  0
 55 34  1  1
 54 55  1  0
 55 56  1  0
  8 57  1  0
 57 13  1  6
 52 57  1  0
 56 57  1  0
M  END
