x0981-x0978-x1458-x2754-x3113
     RDKit          3D

 63 70  0  0  0  0  0  0  0  0999 V2000
    1.0920   -8.4030   21.4940 C   0  0  0  0  0  0  0  0  0  0  0  0
    2.5670   -6.8350   22.6150 N   0  0  0  0  0  0  0  0  0  0  0  0
    0.5830   -7.7460   23.6910 O   0  0  0  0  0  0  0  0  0  0  0  0
    1.2490   -7.2850   22.5340 C   0  0  0  0  0  0  0  0  0  0  0  0
    2.4490   -8.3490   26.2370 N   0  0  0  0  0  0  0  0  0  0  0  0
    3.9890   -8.1320   24.5590 O   0  0  0  0  0  0  0  0  0  0  0  0
    2.9860   -5.7110   23.4830 C   0  0  1  0  0  0  0  0  0  0  0  0
    5.0960   -5.3840   21.9530 N   0  0  0  0  0  0  0  0  0  0  0  0
    5.0110   -4.0940   23.9550 N   0  0  0  0  0  0  0  0  0  0  0  0
    2.9270   -6.1420   24.9620 C   0  0  0  0  0  0  0  0  0  0  0  0
    3.1000   -7.5540   25.2760 C   0  0  0  0  0  0  0  0  0  0  0  0
    4.4300   -5.0430   23.0770 C   0  0  0  0  0  0  0  0  0  0  0  0
    6.8220   -5.3540   20.3840 C   0  0  0  0  0  0  0  0  0  0  0  0
    5.7720   -6.1360   19.8730 C   0  0  0  0  0  0  0  0  0  0  0  0
    0.3130   -6.1160   22.1880 C   0  0  0  0  0  0  0  0  0  0  0  0
    7.2850   -1.4230   22.3450 C   0  0  1  0  0  0  0  0  0  0  0  0
    8.4040    1.3020   23.4190 N   0  0  0  0  0  0  0  0  0  0  0  0
    8.9200    1.6530   21.0900 O   0  0  0  0  0  0  0  0  0  0  0  0
   12.4240    3.7340   22.5320 O   0  0  0  0  0  0  0  0  0  0  0  0
    7.0930    0.0160   21.7910 C   0  0  1  0  0  0  0  0  0  0  0  0
    8.1710    1.0010   22.1100 C   0  0  0  0  0  0  0  0  0  0  0  0
    9.0860    2.5410   23.7250 C   0  0  0  0  0  0  0  0  0  0  0  0
   10.5970    2.4650   23.4980 C   0  0  0  0  0  0  0  0  0  0  0  0
   11.2310    3.8090   23.3530 C   0  0  0  0  0  0  0  0  0  0  0  0
   13.1400    4.7310   22.6210 C   0  0  0  0  0  0  0  0  0  0  0  0
   12.7020   -2.0290   24.3550 C   0  0  0  0  0  0  0  0  0  0  0  0
   13.5300   -2.2870   23.1600 C   0  0  0  0  0  0  0  0  0  0  0  0
   13.1040   -3.0530   25.4270 C   0  0  0  0  0  0  0  0  0  0  0  0
   12.9050   -0.6660   24.9060 C   0  0  0  0  0  0  0  0  0  0  0  0
    7.3060   -2.4220   21.2460 C   0  0  0  0  0  0  0  0  0  0  0  0
    5.2700   -3.9700   25.4880 C   0  0  0  0  0  0  0  0  0  0  0  0
    6.1440   -5.6390   27.5150 C   0  0  0  0  0  0  0  0  0  0  0  0
    6.5130   -3.9920   25.1460 C   0  0  0  0  0  0  0  0  0  0  0  0
    3.8190   -3.8950   25.5470 C   0  0  0  0  0  0  0  0  0  0  0  0
    2.7080   -3.6530   25.9730 O   0  0  0  0  0  0  0  0  0  0  0  0
    4.2670   -3.3760   26.7610 N   0  0  0  0  0  0  0  0  0  0  0  0
    4.8140   -2.0440   26.8860 C   0  0  0  0  0  0  0  0  0  0  0  0
    6.4490    0.2130   18.0350 N   0  0  0  0  0  0  0  0  0  0  0  0
    5.3500    0.9830   18.0150 C   0  0  0  0  0  0  0  0  0  0  0  0
    4.7420    1.4770   19.1720 C   0  0  0  0  0  0  0  0  0  0  0  0
    5.2870    1.1700   20.3940 C   0  0  0  0  0  0  0  0  0  0  0  0
    6.4310    0.3780   20.4640 C   0  0  0  0  0  0  0  0  0  0  0  0
    6.9470   -0.0630   19.2660 C   0  0  0  0  0  0  0  0  0  0  0  0
    9.7490   -1.8330   22.0240 C   0  0  0  0  0  0  0  0  0  0  0  0
   10.9850   -1.9830   22.4800 C   0  0  0  0  0  0  0  0  0  0  0  0
   11.3080   -1.8840   23.8780 C   0  0  0  0  0  0  0  0  0  0  0  0
   10.3330   -1.6290   24.7710 C   0  0  0  0  0  0  0  0  0  0  0  0
    8.9430   -1.4580   24.2590 C   0  0  0  0  0  0  0  0  0  0  0  0
    8.7290   -1.5700   22.9040 C   0  0  0  0  0  0  0  0  0  0  0  0
    6.0300   -3.1800   21.2990 N   0  0  0  0  0  0  0  0  0  0  0  0
    5.6120   -2.6640   22.5540 C   0  0  2  0  0  0  0  0  0  0  0  0
    6.4390   -2.2780   23.3850 C   0  0  1  0  0  0  0  0  0  0  0  0
    6.3580   -3.6150   23.7750 C   0  0  2  0  0  0  0  0  0  0  0  0
    6.3800   -4.6940   23.0270 C   0  0  2  0  0  0  0  0  0  0  0  0
    6.2550   -4.6080   21.6080 C   0  0  1  0  0  0  0  0  0  0  0  0
    4.4570   -2.9440   23.1050 C   0  0  0  0  0  0  0  0  0  0  0  0
    5.0140   -4.1920   23.8560 C   0  0  2  0  0  0  0  0  0  0  0  0
    7.4380   -5.0210   27.1140 C   0  0  0  0  0  0  0  0  0  0  0  0
    8.5010   -5.2990   27.9130 C   0  0  0  0  0  0  0  0  0  0  0  0
    9.8760   -4.7720   27.6310 C   0  0  0  0  0  0  0  0  0  0  0  0
   10.1530   -3.8650   26.4110 C   0  0  0  0  0  0  0  0  0  0  0  0
    8.8920   -3.6380   25.6260 C   0  0  0  0  0  0  0  0  0  0  0  0
    7.5930   -4.2250   25.9950 C   0  0  0  0  0  0  0  0  0  0  0  0
  1  4  1  0
  2  4  1  0
  4  3  1  0
  2  7  1  0
  7 10  1  1
  5 11  1  0
  6 11  2  0
 10 11  1  0
  7 12  1  0
  8 12  1  0
  9 12  2  0
 13 14  2  3
  4 15  1  0
 16 20  1  0
 17 21  1  0
 18 21  2  0
 20 21  1  6
 17 22  1  0
 22 23  1  0
 19 24  1  0
 23 24  1  0
 19 25  1  0
 26 27  1  0
 26 28  1  0
 26 29  1  0
 16 30  1  0
 31 33  2  0
 31 34  1  0
 34 35  2  0
 34 36  1  0
 36 37  1  0
 38 39  2  0
 39 40  1  0
 40 41  2  0
 20 42  1  0
 41 42  1  0
 38 43  1  0
 42 43  2  0
 44 45  2  0
 26 46  1  0
 45 46  1  0
 46 47  2  0
 47 48  1  0
 16 49  1  1
 44 49  1  0
 48 49  2  0
 30 50  1  0
 50 51  1  0
 16 52  1  0
 52 51  1  6
 53  9  1  1
 33 53  1  0
 52 53  1  0
 53 54  1  0
  8 55  1  0
 55 13  1  6
 50 55  1  0
 54 55  1  0
 51 56  1  1
 57 31  1  1
 54 57  1  1
 56 57  1  0
 32 58  1  0
 58 59  2  0
 59 60  1  0
 60 61  2  0
 61 62  1  0
 33 63  1  0
 58 63  1  0
 62 63  2  0
M  END
