x0981-x0978-x3117-x2694-x2705-x0734
     RDKit          3D

 82 87  0  0  0  0  0  0  0  0999 V2000
    1.2380   -8.6810   21.3630 C   0  0  0  0  0  0  0  0  0  0  0  0
    2.6540   -7.3430   22.7670 N   0  0  0  0  0  0  0  0  0  0  0  0
    0.3690   -6.7060   22.3050 O   0  0  0  0  0  0  0  0  0  0  0  0
    1.3460   -7.7130   22.5300 C   0  0  0  0  0  0  0  0  0  0  0  0
    2.4430   -8.2410   26.3970 N   0  0  0  0  0  0  0  0  0  0  0  0
    3.9610   -8.1990   24.7020 O   0  0  0  0  0  0  0  0  0  0  0  0
    3.0090   -6.1100   23.4650 C   0  0  1  0  0  0  0  0  0  0  0  0
    4.5480   -5.3080   21.9210 N   0  0  0  0  0  0  0  0  0  0  0  0
    5.2170   -5.6250   23.9660 N   0  0  0  0  0  0  0  0  0  0  0  0
    2.6900   -6.2250   24.9700 C   0  0  0  0  0  0  0  0  0  0  0  0
    3.0890   -7.6570   25.3510 C   0  0  0  0  0  0  0  0  0  0  0  0
    4.2710   -5.6920   23.1630 C   0  0  0  0  0  0  0  0  0  0  0  0
    6.2810   -4.9320   20.4390 C   0  0  0  0  0  0  0  0  0  0  0  0
    5.7440   -6.0680   20.0030 C   0  0  0  0  0  0  0  0  0  0  0  0
    0.8030   -8.4370   23.7610 C   0  0  0  0  0  0  0  0  0  0  0  0
    6.1580    0.5290   23.1510 N   0  0  0  0  0  0  0  0  0  0  0  0
    6.9870    4.1250   22.1670 N   0  0  0  0  0  0  0  0  0  0  0  0
    7.8190    2.1590   21.2260 O   0  0  0  0  0  0  0  0  0  0  0  0
   11.6590    6.6580   23.5250 O   0  0  0  0  0  0  0  0  0  0  0  0
    5.8300    2.0040   22.7380 C   0  0  1  0  0  0  0  0  0  0  0  0
    6.9790    2.7380   21.9610 C   0  0  0  0  0  0  0  0  0  0  0  0
    9.3200    2.5700   23.0040 C   0  0  0  0  0  0  0  0  0  0  0  0
   12.8300    6.3070   22.8000 C   0  0  0  0  0  0  0  0  0  0  0  0
   10.6110   -1.1280   22.7560 C   0  0  1  0  0  0  0  0  0  0  0  0
   11.8960   -0.3320   22.9190 C   0  0  0  0  0  0  0  0  0  0  0  0
   10.2720   -1.2280   21.5180 C   0  0  0  0  0  0  0  0  0  0  0  0
   10.6450   -2.5130   23.3450 C   0  0  0  0  0  0  0  0  0  0  0  0
    5.3170   -0.5560   22.9700 C   0  0  0  0  0  0  0  0  0  0  0  0
    6.6170   -1.6560   21.2840 N   0  0  0  0  0  0  0  0  0  0  0  0
    3.9480    0.1500   20.0060 N   0  0  0  0  0  0  0  0  0  0  0  0
    5.7070    0.8710   21.1550 O   0  0  0  0  0  0  0  0  0  0  0  0
    5.9170   -1.1090   20.1110 C   0  0  1  0  0  0  0  0  0  0  0  0
    5.2130   -0.0020   20.4630 C   0  0  0  0  0  0  0  0  0  0  0  0
   10.6760    3.0540   23.4590 C   0  0  0  0  0  0  0  0  0  0  0  0
    9.6910    2.5030   24.2850 C   0  0  0  0  0  0  0  0  0  0  0  0
   12.9260   -2.0030   24.3240 C   0  0  0  0  0  0  0  0  0  0  0  0
   12.8020   -0.6490   24.1040 C   0  0  0  0  0  0  0  0  0  0  0  0
   13.7770   -2.4330   25.5220 C   0  0  0  0  0  0  0  0  0  0  0  0
   13.4760   -2.5380   23.0300 C   0  0  0  0  0  0  0  0  0  0  0  0
    7.4820   -1.4320   18.2780 N   0  0  0  0  0  0  0  0  0  0  0  0
    6.2700    0.8330   17.5840 N   0  0  0  0  0  0  0  0  0  0  0  0
    7.1010    1.7340   19.4510 O   0  0  0  0  0  0  0  0  0  0  0  0
    7.0320   -0.5340   19.3290 C   0  0  1  0  0  0  0  0  0  0  0  0
    6.8130    0.7380   18.8170 C   0  0  0  0  0  0  0  0  0  0  0  0
    5.4200   -4.0750   27.0730 N   0  0  0  0  0  0  0  0  0  0  0  0
    4.7620   -4.8010   27.8360 O   0  0  0  0  0  0  0  0  0  0  0  0
    5.1740   -2.8720   26.9030 O   0  0  0  0  0  0  0  0  0  0  0  0
    2.9840    2.9090   20.1170 N   0  0  0  0  0  0  0  0  0  0  0  0
    1.9370    3.0500   20.9510 C   0  0  0  0  0  0  0  0  0  0  0  0
    2.0020    2.8870   22.3400 C   0  0  0  0  0  0  0  0  0  0  0  0
    3.2080    2.5480   22.9870 C   0  0  0  0  0  0  0  0  0  0  0  0
    4.4630    2.3610   22.1400 C   0  0  0  0  0  0  0  0  0  0  0  0
    4.1940    2.5840   20.6480 C   0  0  0  0  0  0  0  0  0  0  0  0
    7.9870    0.5180   24.8100 N   0  0  0  0  0  0  0  0  0  0  0  0
    9.3280    0.0370   24.7210 O   0  0  0  0  0  0  0  0  0  0  0  0
    9.4910   -0.4760   23.4740 C   0  0  0  0  0  0  0  0  0  0  0  0
    8.2270   -0.3160   22.7280 C   0  0  0  0  0  0  0  0  0  0  0  0
    7.3770    0.2890   23.6130 C   0  0  0  0  0  0  0  0  0  0  0  0
    9.4290    4.0600   22.9640 C   0  0  0  0  0  0  0  0  0  0  0  0
   10.7150    4.5750   23.3630 C   0  0  0  0  0  0  0  0  0  0  0  0
   10.5030    6.0050   23.1910 C   0  0  0  0  0  0  0  0  0  0  0  0
    9.4260    6.8110   22.7790 C   0  0  0  0  0  0  0  0  0  0  0  0
    8.2210    6.3180   22.4190 C   0  0  0  0  0  0  0  0  0  0  0  0
    8.1940    4.8110   22.5110 C   0  0  0  0  0  0  0  0  0  0  0  0
    6.7460   -4.5330   26.6960 C   0  0  0  0  0  0  0  0  0  0  0  0
    7.2880   -4.4170   25.2160 C   0  0  0  0  0  0  0  0  0  0  0  0
    8.7050   -4.9630   25.0970 C   0  0  0  0  0  0  0  0  0  0  0  0
    9.4420   -5.5320   26.2750 C   0  0  0  0  0  0  0  0  0  0  0  0
    8.8360   -5.5740   27.5200 C   0  0  0  0  0  0  0  0  0  0  0  0
    7.5350   -5.0920   27.7210 C   0  0  0  0  0  0  0  0  0  0  0  0
    5.1850   -3.0580   21.9970 N   0  0  0  0  0  0  0  0  0  0  0  0
    5.7290   -4.4630   21.9080 C   0  0  1  0  0  0  0  0  0  0  0  0
    6.2920   -4.9770   23.1010 C   0  0  1  0  0  0  0  0  0  0  0  0
    6.5860   -3.8950   24.1010 N   0  0  0  0  0  0  0  0  0  0  0  0
    6.9710   -2.5370   23.6110 C   0  0  0  0  0  0  0  0  0  0  0  0
    6.0240   -1.9760   22.5690 C   0  0  2  0  0  0  0  0  0  0  0  0
   10.5410   -2.4870   24.8480 C   0  0  0  0  0  0  0  0  0  0  0  0
   11.2080   -1.3160   25.1270 C   0  0  0  0  0  0  0  0  0  0  0  0
   11.1930   -3.7460   25.4750 C   0  0  0  0  0  0  0  0  0  0  0  0
    9.0730   -2.4940   25.2760 C   0  0  0  0  0  0  0  0  0  0  0  0
    5.2410    5.7470   21.4940 C   0  0  0  0  0  0  0  0  0  0  0  0
    5.7860    4.8690   22.5990 C   0  0  0  0  0  0  0  0  0  0  0  0
  1  4  1  0
  2  4  1  0
  4  3  1  0
  2  7  1  0
  7 10  1  1
  5 11  1  0
  6 11  2  0
 10 11  1  0
  7 12  1  0
  8 12  1  0
  9 12  2  0
 13 14  2  3
  4 15  1  0
 16 20  1  0
 17 21  1  0
 18 21  2  0
 20 21  1  6
 19 23  1  0
 24 25  1  0
 24 26  1  6
 24 27  1  0
 16 28  1  0
 32 29  1  1
 30 33  1  0
 31 33  2  0
 32 33  1  0
 34 35  1  0
 25 37  1  0
 36 37  1  0
 36 38  1  0
 36 39  1  0
 32 43  1  0
 43 40  1  6
 41 44  1  0
 42 44  2  0
 43 44  1  0
 45 46  2  0
 45 47  1  0
 48 49  2  0
 49 50  1  0
 50 51  2  0
 20 52  1  0
 51 52  1  0
 48 53  1  0
 52 53  2  0
 54 55  1  0
 24 56  1  0
 55 56  1  0
 56 57  2  0
 16 58  1  0
 54 58  2  0
 57 58  1  0
 22 59  1  0
 34 60  1  0
 59 60  2  0
 19 61  1  0
 60 61  1  0
 61 62  2  0
 62 63  1  0
 17 64  1  0
 59 64  1  0
 63 64  2  0
 45 65  1  0
 65 66  2  0
 66 67  1  0
 67 68  2  0
 68 69  1  0
 65 70  1  0
 69 70  2  0
  8 72  1  0
 72 13  1  6
 71 72  1  0
 73  9  1  1
 72 73  1  0
 66 74  1  0
 73 74  1  0
 74 75  1  0
 76 28  1  1
 76 29  1  0
 71 76  1  0
 75 76  1  0
 77 27  1  0
 77 78  1  0
 77 79  1  0
 77 80  1  0
 17 82  1  0
 81 82  1  0
M  CHG  2  45   1  47  -1
M  END
