x0981-x0978-x2776-x0734
     RDKit          3D

 61 66  0  0  0  0  0  0  0  0999 V2000
    0.8410   -8.6610   21.6870 C   0  0  0  0  0  0  0  0  0  0  0  0
    2.3980   -7.0030   22.5190 N   0  0  0  0  0  0  0  0  0  0  0  0
    0.4840   -6.4800   21.6130 O   0  0  0  0  0  0  0  0  0  0  0  0
    1.0730   -7.2930   22.3080 C   0  0  0  0  0  0  0  0  0  0  0  0
    2.4210   -8.3200   26.1940 N   0  0  0  0  0  0  0  0  0  0  0  0
    3.9600   -8.1760   24.5210 O   0  0  0  0  0  0  0  0  0  0  0  0
    2.9420   -5.9230   23.3720 C   0  0  1  0  0  0  0  0  0  0  0  0
    4.7750   -4.6420   21.9020 N   0  0  0  0  0  0  0  0  0  0  0  0
    5.2740   -5.5220   23.8700 N   0  0  0  0  0  0  0  0  0  0  0  0
    2.7070   -6.2320   24.9020 C   0  0  0  0  0  0  0  0  0  0  0  0
    3.0830   -7.6590   25.1870 C   0  0  0  0  0  0  0  0  0  0  0  0
    4.3560   -5.3630   23.0270 C   0  0  0  0  0  0  0  0  0  0  0  0
    6.6850   -5.2500   20.4870 C   0  0  0  0  0  0  0  0  0  0  0  0
    5.8190   -6.0800   19.9930 C   0  0  0  0  0  0  0  0  0  0  0  0
    0.2240   -7.0330   23.5500 C   0  0  0  0  0  0  0  0  0  0  0  0
    7.1020   -0.8270   22.0630 N   0  0  0  0  0  0  0  0  0  0  0  0
    7.8870    2.2310   22.9130 N   0  0  0  0  0  0  0  0  0  0  0  0
    8.9440    1.4890   21.0200 O   0  0  0  0  0  0  0  0  0  0  0  0
   10.8490    6.9760   23.8970 O   0  0  0  0  0  0  0  0  0  0  0  0
    6.7810    0.5460   21.6000 C   0  0  1  0  0  0  0  0  0  0  0  0
   12.4940   -2.7430   24.7380 O   0  0  0  0  0  0  0  0  0  0  0  0
    8.0000    1.4540   21.7920 C   0  0  0  0  0  0  0  0  0  0  0  0
   10.5940    1.8230   23.7650 C   0  0  0  0  0  0  0  0  0  0  0  0
   11.8220    6.9160   24.6910 C   0  0  0  0  0  0  0  0  0  0  0  0
   12.2560   -1.3800   24.3860 C   0  0  1  0  0  0  0  0  0  0  0  0
   13.2800   -0.9200   23.3420 C   0  0  0  0  0  0  0  0  0  0  0  0
   13.5700   -2.8990   25.2790 C   0  0  0  0  0  0  0  0  0  0  0  0
    6.2460   -1.9720   21.7590 C   0  0  0  0  0  0  0  0  0  0  0  0
    5.4100   -4.4630   25.9700 N   0  0  0  0  0  0  0  0  0  0  0  0
    4.5340   -5.3030   25.7620 O   0  0  0  0  0  0  0  0  0  0  0  0
    5.1840   -3.4340   26.6330 O   0  0  0  0  0  0  0  0  0  0  0  0
    6.2840    0.3990   17.8140 N   0  0  0  0  0  0  0  0  0  0  0  0
    5.1930    1.1880   17.7590 C   0  0  0  0  0  0  0  0  0  0  0  0
    4.5770    1.7660   18.8490 C   0  0  0  0  0  0  0  0  0  0  0  0
    5.1110    1.5370   20.0980 C   0  0  0  0  0  0  0  0  0  0  0  0
    6.2350    0.7420   20.2190 C   0  0  0  0  0  0  0  0  0  0  0  0
    6.7520    0.2140   19.0540 C   0  0  0  0  0  0  0  0  0  0  0  0
    9.9460    3.1670   23.5650 C   0  0  0  0  0  0  0  0  0  0  0  0
   10.8100    4.4150   23.8390 C   0  0  0  0  0  0  0  0  0  0  0  0
   10.2050    5.8000   23.6690 C   0  0  0  0  0  0  0  0  0  0  0  0
    8.8790    5.8660   23.2470 C   0  0  0  0  0  0  0  0  0  0  0  0
    8.0580    4.6050   22.9750 C   0  0  0  0  0  0  0  0  0  0  0  0
    8.6030    3.3330   23.1440 C   0  0  0  0  0  0  0  0  0  0  0  0
    9.4150   -1.4920   21.8950 C   0  0  0  0  0  0  0  0  0  0  0  0
   10.6790   -1.6430   22.4320 C   0  0  0  0  0  0  0  0  0  0  0  0
   10.9160   -1.2660   23.7580 C   0  0  0  0  0  0  0  0  0  0  0  0
    9.8680   -0.7570   24.5070 C   0  0  0  0  0  0  0  0  0  0  0  0
    8.6020   -0.6100   23.9710 C   0  0  0  0  0  0  0  0  0  0  0  0
    8.3500   -0.9730   22.6390 C   0  0  0  0  0  0  0  0  0  0  0  0
    6.7250   -5.0350   26.1650 C   0  0  0  0  0  0  0  0  0  0  0  0
    7.7210   -5.2140   25.1840 C   0  0  0  0  0  0  0  0  0  0  0  0
    8.8920   -5.7910   25.6130 C   0  0  0  0  0  0  0  0  0  0  0  0
    9.1150   -6.1800   26.9250 C   0  0  0  0  0  0  0  0  0  0  0  0
    8.1560   -5.9880   27.8190 C   0  0  0  0  0  0  0  0  0  0  0  0
    6.9370   -5.4180   27.4790 C   0  0  0  0  0  0  0  0  0  0  0  0
    6.9640   -3.2070   21.6730 N   0  0  0  0  0  0  0  0  0  0  0  0
    6.2500   -4.4830   21.8640 C   0  0  1  0  0  0  0  0  0  0  0  0
    6.3690   -4.7380   23.2760 C   0  0  2  0  0  0  0  0  0  0  0  0
    7.6690   -4.8700   23.8330 N   0  0  0  0  0  0  0  0  0  0  0  0
    8.4130   -3.6110   23.6070 C   0  0  0  0  0  0  0  0  0  0  0  0
    8.2810   -3.1160   22.3300 C   0  0  0  0  0  0  0  0  0  0  0  0
  1  4  1  0
  2  4  1  0
  4  3  1  0
  2  7  1  0
  7 10  1  1
  5 11  1  0
  6 11  2  0
 10 11  1  0
  7 12  1  0
  8 12  1  0
  9 12  2  0
 13 14  2  3
  4 15  1  0
 16 20  1  0
 17 22  1  0
 18 22  2  0
 20 22  1  6
 19 24  1  0
 21 25  1  0
 25 26  1  6
 21 27  1  0
 16 28  1  0
 29 30  2  0
 29 31  1  0
 32 33  2  0
 33 34  1  0
 34 35  2  0
 20 36  1  0
 35 36  1  0
 32 37  1  0
 36 37  2  0
 23 38  1  0
 38 39  2  0
 19 40  1  0
 39 40  1  0
 40 41  2  0
 41 42  1  0
 17 43  1  0
 38 43  1  0
 42 43  2  0
 44 45  2  0
 25 46  1  0
 45 46  1  0
 46 47  2  0
 47 48  1  0
 16 49  1  0
 44 49  1  0
 48 49  2  0
 29 50  1  0
 50 51  2  0
 51 52  1  0
 52 53  2  0
 53 54  1  0
 50 55  1  0
 54 55  2  0
 28 56  1  0
  8 57  1  0
 57 13  1  6
 56 57  1  0
 58  9  1  6
 57 58  1  0
 51 59  1  0
 58 59  1  0
 59 60  1  0
 56 61  1  0
 60 61  1  0
M  CHG  2  29   1  31  -1
M  END
