x0981-x1458
     RDKit          3D

 27 28  0  0  0  0  0  0  0  0999 V2000
    1.1860   -8.7460   21.3480 C   0  0  0  0  0  0  0  0  0  0  0  0
    2.7090   -7.1290   22.7090 N   0  0  0  0  0  0  0  0  0  0  0  0
    0.2220   -6.6090   22.1320 O   0  0  0  0  0  0  0  0  0  0  0  0
    1.3880   -7.4340   22.1180 C   0  0  0  0  0  0  0  0  0  0  0  0
    2.4350   -8.2180   26.3950 N   0  0  0  0  0  0  0  0  0  0  0  0
    3.9850   -8.2010   24.5940 O   0  0  0  0  0  0  0  0  0  0  0  0
    2.9280   -5.8790   23.4590 C   0  0  1  0  0  0  0  0  0  0  0  0
    5.0740   -5.6340   22.1550 N   0  0  0  0  0  0  0  0  0  0  0  0
    4.8530   -4.3800   24.2300 N   0  0  0  0  0  0  0  0  0  0  0  0
    2.7200   -6.1870   24.8040 C   0  0  0  0  0  0  0  0  0  0  0  0
    3.1320   -7.6090   25.2140 C   0  0  0  0  0  0  0  0  0  0  0  0
    4.3520   -5.3010   23.2180 C   0  0  0  0  0  0  0  0  0  0  0  0
    6.7630   -5.3320   20.4480 C   0  0  0  0  0  0  0  0  0  0  0  0
    5.8980   -6.1420   19.9010 C   0  0  0  0  0  0  0  0  0  0  0  0
    7.7900   -3.7720   26.1350 N   0  0  0  0  0  0  0  0  0  0  0  0
    8.8960   -5.2870   26.4680 C   0  0  0  0  0  0  0  0  0  0  0  0
    5.4960   -3.8510   26.3500 O   0  0  0  0  0  0  0  0  0  0  0  0
    7.9130   -4.6480   27.1840 C   0  0  0  0  0  0  0  0  0  0  0  0
    6.8200   -5.6350   27.5890 C   0  0  0  0  0  0  0  0  0  0  0  0
    8.0160   -2.4450   26.3450 C   0  0  0  0  0  0  0  0  0  0  0  0
    6.5950   -3.8690   25.5410 C   0  0  0  0  0  0  0  0  0  0  0  0
    5.9970   -3.5270   21.6410 N   0  0  0  0  0  0  0  0  0  0  0  0
    6.8930   -2.5960   22.2890 C   0  0  0  0  0  0  0  0  0  0  0  0
    6.4110   -2.5990   23.5860 C   0  0  0  0  0  0  0  0  0  0  0  0
    6.2570   -3.9210   24.0220 C   0  0  2  0  0  0  0  0  0  0  0  0
    6.9850   -4.9600   23.0990 C   0  0  0  0  0  0  0  0  0  0  0  0
    6.2750   -4.8160   21.8720 C   0  0  1  0  0  0  0  0  0  0  0  0
  1  4  1  0
  2  4  1  0
  3  4  2  0
  2  7  1  0
  7 10  1  1
  5 11  1  0
  6 11  2  0
 10 11  1  0
  7 12  1  0
  8 12  1  0
  9 12  2  0
 13 14  2  3
 15 18  1  0
 16 18  1  0
 18 19  1  0
 15 20  1  0
 15 21  1  0
 17 21  2  0
 22 23  1  0
 23 24  1  0
  9 25  1  0
 25 21  1  1
 24 25  1  0
 25 26  1  0
  8 27  1  0
 27 13  1  6
 22 27  1  0
 26 27  1  0
M  END
