x0981-x2754-x3110-x3113-x0426
     RDKit          3D

 69 74  0  0  0  0  0  0  0  0999 V2000
    8.0100    1.4110   23.3300 N   0  0  0  0  0  0  0  0  0  0  0  0
   13.4110    5.2120   22.9190 C   0  0  0  0  0  0  0  0  0  0  0  0
   12.0320    3.3010   22.3820 O   0  0  0  0  0  0  0  0  0  0  0  0
   12.5360    4.5450   21.8830 C   0  0  0  0  0  0  0  0  0  0  0  0
    7.3140   -1.3290   21.8540 N   0  0  0  0  0  0  0  0  0  0  0  0
   11.0990    4.4190   24.1500 O   0  0  0  0  0  0  0  0  0  0  0  0
   11.1940    3.4380   23.4370 C   0  0  0  0  0  0  0  0  0  0  0  0
    8.6790    1.5810   21.0790 O   0  0  0  0  0  0  0  0  0  0  0  0
   10.3580    2.1820   23.6230 C   0  0  0  0  0  0  0  0  0  0  0  0
    8.9210    2.3290   23.7200 C   0  0  0  0  0  0  0  0  0  0  0  0
    7.9240    1.0690   21.9220 C   0  0  0  0  0  0  0  0  0  0  0  0
    6.8220    0.0670   21.6440 C   0  0  1  0  0  0  0  0  0  0  0  0
   12.4700   -1.8840   24.2450 C   0  0  0  0  0  0  0  0  0  0  0  0
   12.7140   -0.6110   24.9530 C   0  0  0  0  0  0  0  0  0  0  0  0
   13.4230   -2.0900   23.0650 C   0  0  0  0  0  0  0  0  0  0  0  0
   12.8680   -3.0160   25.2270 C   0  0  0  0  0  0  0  0  0  0  0  0
    2.2590    1.8810   23.8440 C   0  0  0  0  0  0  0  0  0  0  0  0
    2.1250    0.6680   23.6920 O   0  0  0  0  0  0  0  0  0  0  0  0
    3.3450    2.5810   23.3620 N   0  0  0  0  0  0  0  0  0  0  0  0
    4.4150    1.9680   22.5890 C   0  0  0  0  0  0  0  0  0  0  0  0
    3.8940    1.2210   21.3670 C   0  0  0  0  0  0  0  0  0  0  0  0
    2.7690    4.3530   25.2460 F   0  0  0  0  0  0  0  0  0  0  0  0
    1.2560   -8.6380   21.4730 C   0  0  0  0  0  0  0  0  0  0  0  0
    2.9070   -7.2320   22.7710 N   0  0  0  0  0  0  0  0  0  0  0  0
    0.6740   -6.4890   22.3960 O   0  0  0  0  0  0  0  0  0  0  0  0
    1.5430   -7.3430   22.2560 C   0  0  0  0  0  0  0  0  0  0  0  0
    2.8210   -7.9330   26.6580 N   0  0  0  0  0  0  0  0  0  0  0  0
    3.1640   -8.6990   24.6220 O   0  0  0  0  0  0  0  0  0  0  0  0
    3.3270   -6.2450   23.5970 C   0  0  1  0  0  0  0  0  0  0  0  0
    4.8340   -5.4410   21.5290 N   0  0  0  0  0  0  0  0  0  0  0  0
    3.6680   -6.5270   25.0210 C   0  0  0  0  0  0  0  0  0  0  0  0
    3.2190   -7.7680   25.3860 C   0  0  0  0  0  0  0  0  0  0  0  0
    4.4910   -5.5300   22.8780 C   0  0  0  0  0  0  0  0  0  0  0  0
    6.7940   -5.1210   20.5430 C   0  0  0  0  0  0  0  0  0  0  0  0
    5.9510   -6.0770   19.9230 C   0  0  0  0  0  0  0  0  0  0  0  0
    5.3540   -3.2980   25.3080 C   0  0  0  0  0  0  0  0  0  0  0  0
    4.3280   -2.7540   24.9640 O   0  0  0  0  0  0  0  0  0  0  0  0
    5.7810   -3.2900   26.6300 N   0  0  0  0  0  0  0  0  0  0  0  0
    5.3110   -2.2790   27.5900 C   0  0  0  0  0  0  0  0  0  0  0  0
    6.4220    0.5220   17.8570 N   0  0  0  0  0  0  0  0  0  0  0  0
    5.2040    1.0550   17.7900 C   0  0  0  0  0  0  0  0  0  0  0  0
    4.4090    1.2780   18.8610 C   0  0  0  0  0  0  0  0  0  0  0  0
    4.8680    0.9440   20.2410 C   0  0  0  0  0  0  0  0  0  0  0  0
    6.1750    0.4090   20.2770 C   0  0  0  0  0  0  0  0  0  0  0  0
    6.8220    0.2360   19.1000 C   0  0  0  0  0  0  0  0  0  0  0  0
    9.6360   -1.9730   21.8290 C   0  0  0  0  0  0  0  0  0  0  0  0
   10.8760   -2.1110   22.3970 C   0  0  0  0  0  0  0  0  0  0  0  0
   11.0940   -1.7390   23.7070 C   0  0  0  0  0  0  0  0  0  0  0  0
   10.0470   -1.2510   24.3920 C   0  0  0  0  0  0  0  0  0  0  0  0
    8.7310   -1.0880   23.8220 C   0  0  0  0  0  0  0  0  0  0  0  0
    8.5590   -1.4580   22.5200 C   0  0  0  0  0  0  0  0  0  0  0  0
    1.5280    3.8400   25.2350 C   0  0  0  0  0  0  0  0  0  0  0  0
    1.2180    2.6530   24.5780 C   0  0  0  0  0  0  0  0  0  0  0  0
   -0.0400    2.1630   24.5860 C   0  0  0  0  0  0  0  0  0  0  0  0
   -1.0990    2.7390   25.2030 C   0  0  0  0  0  0  0  0  0  0  0  0
   -0.9050    3.9140   25.8810 C   0  0  0  0  0  0  0  0  0  0  0  0
    0.5050    4.5170   25.9050 C   0  0  0  0  0  0  0  0  0  0  0  0
    5.6620   -3.1360   21.4800 N   0  0  0  0  0  0  0  0  0  0  0  0
    6.3400   -2.2640   22.4780 C   0  0  1  0  0  0  0  0  0  0  0  0
    7.0370   -2.9540   23.4800 C   0  0  0  0  0  0  0  0  0  0  0  0
    6.2970   -4.0310   24.2820 C   0  0  2  0  0  0  0  0  0  0  0  0
    5.5520   -4.7390   23.1360 C   0  0  0  0  0  0  0  0  0  0  0  0
    5.9290   -4.5450   21.7070 C   0  0  1  0  0  0  0  0  0  0  0  0
    7.3890   -4.8510   27.6530 C   0  0  0  0  0  0  0  0  0  0  0  0
    8.7940   -5.4330   27.8620 C   0  0  0  0  0  0  0  0  0  0  0  0
    9.8060   -4.6580   27.0080 C   0  0  0  0  0  0  0  0  0  0  0  0
    9.4950   -3.5030   26.1040 C   0  0  0  0  0  0  0  0  0  0  0  0
    8.1890   -3.0880   26.0170 C   0  0  0  0  0  0  0  0  0  0  0  0
    7.0960   -3.7740   26.8060 C   0  0  0  0  0  0  0  0  0  0  0  0
  2  4  1  0
  3  4  1  0
  3  7  1  0
  6  7  2  0
  7  9  1  0
  1 10  1  0
  9 10  1  0
  1 11  1  0
  8 11  2  0
  5 12  1  0
 12 11  1  6
 13 14  1  0
 13 15  1  0
 13 16  1  0
 17 18  2  0
 17 19  1  0
 19 20  1  0
 20 21  1  0
 23 26  1  0
 24 26  1  0
 25 26  2  0
 24 29  1  0
 29 31  1  1
 27 32  1  0
 28 32  2  0
 31 32  1  0
 29 33  1  0
 30 33  1  0
 34 35  2  3
 36 37  2  0
 36 38  1  0
 38 39  1  0
 40 41  2  0
 41 42  1  0
 21 43  1  0
 42 43  2  0
 12 44  1  0
 43 44  1  0
 40 45  1  0
 44 45  2  0
 46 47  2  0
 13 48  1  0
 47 48  1  0
 48 49  2  0
 49 50  1  0
  5 51  1  0
 46 51  1  0
 50 51  2  0
 22 52  1  0
 17 53  1  0
 52 53  2  0
 53 54  1  0
 54 55  2  0
 55 56  1  0
 52 57  1  0
 56 57  2  0
 59  5  1  6
 58 59  1  0
 59 60  1  0
 61 36  1  1
 60 61  1  0
 33 62  2  0
 61 62  1  0
 30 63  1  0
 63 34  1  1
 58 63  1  0
 62 63  1  0
 64 65  2  0
 65 66  1  0
 66 67  2  0
 67 68  1  0
 38 69  1  0
 64 69  1  0
 68 69  2  0
M  END
