x0981-x1386
     RDKit          3D

 28 29  0  0  0  0  0  0  0  0999 V2000
    1.2080   -8.7160   21.3870 C   0  0  0  0  0  0  0  0  0  0  0  0
    2.7830   -7.1300   22.7380 N   0  0  0  0  0  0  0  0  0  0  0  0
    0.2940   -6.5660   22.1880 O   0  0  0  0  0  0  0  0  0  0  0  0
    1.4490   -7.4090   22.1590 C   0  0  0  0  0  0  0  0  0  0  0  0
    2.4760   -8.2650   26.4440 N   0  0  0  0  0  0  0  0  0  0  0  0
    3.9840   -8.2380   24.6110 O   0  0  0  0  0  0  0  0  0  0  0  0
    3.0190   -5.9120   23.5400 C   0  0  1  0  0  0  0  0  0  0  0  0
    5.2600   -5.8070   22.3820 N   0  0  0  0  0  0  0  0  0  0  0  0
    4.8800   -4.5090   24.1600 O   0  0  0  0  0  0  0  0  0  0  0  0
    2.7420   -6.2340   24.8630 C   0  0  0  0  0  0  0  0  0  0  0  0
    3.1470   -7.6520   25.2560 C   0  0  0  0  0  0  0  0  0  0  0  0
    4.4650   -5.3640   23.3760 C   0  0  0  0  0  0  0  0  0  0  0  0
    6.1030   -4.7150   21.7340 C   0  0  2  0  0  0  0  0  0  0  0  0
    6.4490   -5.1170   20.3120 C   0  0  0  0  0  0  0  0  0  0  0  0
    5.8030   -6.1700   19.8600 C   0  0  0  0  0  0  0  0  0  0  0  0
    9.6280   -2.7220   23.5310 C   0  0  0  0  0  0  0  0  0  0  0  0
    7.3060   -4.2840   22.6160 C   0  0  0  0  0  0  0  0  0  0  0  0
    6.5060   -1.5190   21.1020 N   0  0  0  0  0  0  0  0  0  0  0  0
    7.8630   -1.1490   20.7990 C   0  0  0  0  0  0  0  0  0  0  0  0
    8.8950   -1.7690   21.4960 C   0  0  0  0  0  0  0  0  0  0  0  0
    8.5440   -2.1560   22.8990 N   0  0  0  0  0  0  0  0  0  0  0  0
    7.3400   -2.7960   23.0260 C   0  0  1  0  0  0  0  0  0  0  0  0
    6.3480   -2.0080   22.4540 C   0  0  0  0  0  0  0  0  0  0  0  0
   11.7800   -1.7650   22.0980 C   0  0  0  0  0  0  0  0  0  0  0  0
   10.8880   -1.9360   23.3290 C   0  0  0  0  0  0  0  0  0  0  0  0
   11.3390   -1.2470   24.4010 C   0  0  0  0  0  0  0  0  0  0  0  0
   12.8110   -0.4220   23.8430 S   0  0  0  0  0  0  0  0  0  0  0  0
   12.8440   -0.9660   22.2760 C   0  0  0  0  0  0  0  0  0  0  0  0
  1  4  1  0
  2  4  1  0
  3  4  2  0
  2  7  1  0
  7 10  1  1
  5 11  1  0
  6 11  2  0
 10 11  1  0
  7 12  1  0
  8 12  1  0
  9 12  2  0
  8 13  1  0
 13 14  1  6
 14 15  2  3
 13 17  1  0
 18 19  1  0
 19 20  1  0
 16 21  1  0
 20 21  1  0
 22 17  1  6
 21 22  1  0
 18 23  1  0
 22 23  1  0
 16 25  1  0
 24 25  1  0
 25 26  2  0
 26 27  1  0
 24 28  2  0
 27 28  1  0
M  END
