x0981-x2193
     RDKit          3D

 33 34  0  0  0  0  0  0  0  0999 V2000
    1.1780   -8.7280   21.3680 C   0  0  0  0  0  0  0  0  0  0  0  0
    2.7370   -7.1790   22.7620 N   0  0  0  0  0  0  0  0  0  0  0  0
    0.2710   -6.5680   22.1640 O   0  0  0  0  0  0  0  0  0  0  0  0
    1.4130   -7.4290   22.1520 C   0  0  0  0  0  0  0  0  0  0  0  0
    2.5290   -8.1900   26.4820 N   0  0  0  0  0  0  0  0  0  0  0  0
    3.9700   -8.2490   24.6000 O   0  0  0  0  0  0  0  0  0  0  0  0
    3.0100   -5.9280   23.4950 C   0  0  1  0  0  0  0  0  0  0  0  0
    5.2100   -6.1350   22.3290 N   0  0  0  0  0  0  0  0  0  0  0  0
    4.8150   -4.3290   23.6400 O   0  0  0  0  0  0  0  0  0  0  0  0
    2.8380   -6.1890   24.8530 C   0  0  0  0  0  0  0  0  0  0  0  0
    3.1860   -7.6180   25.2620 C   0  0  0  0  0  0  0  0  0  0  0  0
    4.4350   -5.3950   23.1590 C   0  0  0  0  0  0  0  0  0  0  0  0
    6.5890   -5.6040   21.9160 C   0  0  1  0  0  0  0  0  0  0  0  0
    6.5490   -5.2430   20.4370 C   0  0  0  0  0  0  0  0  0  0  0  0
    5.7460   -6.1460   19.8730 C   0  0  0  0  0  0  0  0  0  0  0  0
   10.8550    2.5530   22.9970 C   0  0  0  0  0  0  0  0  0  0  0  0
    9.2590    1.7380   21.0920 O   0  0  0  0  0  0  0  0  0  0  0  0
    8.2840    2.5020   23.2260 O   0  0  0  0  0  0  0  0  0  0  0  0
    9.3610    1.8600   22.5120 S   0  0  0  0  0  0  0  0  0  0  0  0
    7.1850   -4.5730   22.8730 C   0  0  0  0  0  0  0  0  0  0  0  0
    7.2960   -5.1440   24.1350 C   0  0  0  0  0  0  0  0  0  0  0  0
    9.4670    0.1930   23.1180 C   0  0  0  0  0  0  0  0  0  0  0  0
    8.9690   -0.0270   24.3810 C   0  0  0  0  0  0  0  0  0  0  0  0
    8.9750   -1.2640   24.9840 C   0  0  0  0  0  0  0  0  0  0  0  0
    9.5050   -2.3630   24.3360 C   0  0  0  0  0  0  0  0  0  0  0  0
   10.0660   -2.1650   22.9220 C   0  0  0  0  0  0  0  0  0  0  0  0
   10.0240   -0.8850   22.3620 C   0  0  0  0  0  0  0  0  0  0  0  0
    8.6300   -6.1060   25.8460 N   0  0  0  0  0  0  0  0  0  0  0  0
    8.3430   -5.0760   26.6400 C   0  0  0  0  0  0  0  0  0  0  0  0
    8.8920   -3.8180   26.4080 C   0  0  0  0  0  0  0  0  0  0  0  0
    9.4910   -3.6410   25.0590 N   0  0  0  0  0  0  0  0  0  0  0  0
    9.6900   -4.7370   24.3930 C   0  0  0  0  0  0  0  0  0  0  0  0
    8.6690   -5.6570   24.4630 C   0  0  2  0  0  0  0  0  0  0  0  0
  1  4  1  0
  2  4  1  0
  3  4  2  0
  2  7  1  0
  7 10  1  1
  5 11  1  0
  6 11  2  0
 10 11  1  0
  7 12  1  0
  8 12  1  0
  9 12  2  0
  8 13  1  0
 13 14  1  6
 14 15  2  3
 19 16  1  0
 17 19  2  0
 18 19  2  0
 13 20  1  0
 20 21  1  0
 19 22  1  0
 22 23  2  0
 23 24  1  0
 24 25  2  0
 25 26  1  0
 22 27  1  0
 26 27  2  0
 28 29  1  0
 29 30  1  0
 25 31  1  0
 30 31  1  0
 31 32  1  0
 33 21  1  1
 28 33  1  0
 32 33  1  0
M  END
