x0981-x2776-x1351
     RDKit          3D

 58 63  0  0  0  0  0  0  0  0999 V2000
    1.2500   -8.5600   21.5950 C   0  0  0  0  0  0  0  0  0  0  0  0
    2.8000   -7.1510   22.9840 N   0  0  0  0  0  0  0  0  0  0  0  0
    0.5070   -6.3190   22.2640 O   0  0  0  0  0  0  0  0  0  0  0  0
    1.5710   -7.2740   22.3480 C   0  0  0  0  0  0  0  0  0  0  0  0
    2.6260   -8.0260   26.4640 N   0  0  0  0  0  0  0  0  0  0  0  0
    3.7860   -8.3590   24.5540 O   0  0  0  0  0  0  0  0  0  0  0  0
    3.2020   -5.8600   23.6920 C   0  0  1  0  0  0  0  0  0  0  0  0
    4.7500   -5.3060   21.6550 N   0  0  0  0  0  0  0  0  0  0  0  0
    3.4370   -6.1210   25.1480 C   0  0  0  0  0  0  0  0  0  0  0  0
    3.3070   -7.6050   25.3550 C   0  0  0  0  0  0  0  0  0  0  0  0
    4.4800   -5.2390   22.9150 C   0  0  0  0  0  0  0  0  0  0  0  0
    6.7760   -5.0700   20.4650 C   0  0  0  0  0  0  0  0  0  0  0  0
    5.9350   -6.1440   19.8510 C   0  0  0  0  0  0  0  0  0  0  0  0
    7.6180   -1.2400   21.8040 N   0  0  0  0  0  0  0  0  0  0  0  0
    7.8240    2.1360   22.8930 N   0  0  0  0  0  0  0  0  0  0  0  0
    8.9830    1.4550   21.0490 O   0  0  0  0  0  0  0  0  0  0  0  0
   10.7520    6.8000   23.9170 O   0  0  0  0  0  0  0  0  0  0  0  0
    7.0350    0.1500   21.6050 C   0  0  1  0  0  0  0  0  0  0  0  0
   13.3180   -2.4770   24.1550 O   0  0  0  0  0  0  0  0  0  0  0  0
    8.0470    1.3030   21.8250 C   0  0  0  0  0  0  0  0  0  0  0  0
   10.5440    1.8810   23.8330 C   0  0  0  0  0  0  0  0  0  0  0  0
   11.8380    6.7390   24.8600 C   0  0  0  0  0  0  0  0  0  0  0  0
   12.6190   -1.2460   24.2400 C   0  0  1  0  0  0  0  0  0  0  0  0
   13.2260   -0.3050   23.1930 C   0  0  0  0  0  0  0  0  0  0  0  0
   13.3000   -3.1260   25.3940 C   0  0  0  0  0  0  0  0  0  0  0  0
    5.6210   -3.2500   25.3070 N   0  0  0  0  0  0  0  0  0  0  0  0
    6.9860   -3.4850   27.1120 O   0  0  0  0  0  0  0  0  0  0  0  0
    6.2760   -2.7620   26.4410 C   0  0  0  0  0  0  0  0  0  0  0  0
    6.3300    0.2440   17.8530 N   0  0  0  0  0  0  0  0  0  0  0  0
    5.2300    1.0050   17.8460 C   0  0  0  0  0  0  0  0  0  0  0  0
    4.5970    1.5530   19.1060 C   0  0  0  0  0  0  0  0  0  0  0  0
    5.2110    1.2410   20.2960 C   0  0  0  0  0  0  0  0  0  0  0  0
    6.3570    0.4560   20.2780 C   0  0  0  0  0  0  0  0  0  0  0  0
    6.8730   -0.0190   19.0540 C   0  0  0  0  0  0  0  0  0  0  0  0
    9.8810    3.2070   23.6000 C   0  0  0  0  0  0  0  0  0  0  0  0
   10.6460    4.3500   23.8620 C   0  0  0  0  0  0  0  0  0  0  0  0
   10.1030    5.6220   23.6800 C   0  0  0  0  0  0  0  0  0  0  0  0
    8.7890    5.7360   23.2180 C   0  0  0  0  0  0  0  0  0  0  0  0
    8.0060    4.5940   22.9440 C   0  0  0  0  0  0  0  0  0  0  0  0
    8.5560    3.3220   23.1410 C   0  0  0  0  0  0  0  0  0  0  0  0
    9.8910   -1.8580   21.8680 C   0  0  0  0  0  0  0  0  0  0  0  0
   11.1260   -1.8790   22.4520 C   0  0  0  0  0  0  0  0  0  0  0  0
   11.2540   -1.2570   23.6860 C   0  0  0  0  0  0  0  0  0  0  0  0
   10.1920   -0.6560   24.3400 C   0  0  0  0  0  0  0  0  0  0  0  0
    8.9640   -0.6590   23.6970 C   0  0  0  0  0  0  0  0  0  0  0  0
    8.8090   -1.2460   22.4500 C   0  0  0  0  0  0  0  0  0  0  0  0
    5.8190   -3.0140   21.4320 N   0  0  0  0  0  0  0  0  0  0  0  0
    6.9320   -2.4570   22.2050 C   0  0  2  0  0  0  0  0  0  0  0  0
    7.1350   -2.6430   23.5730 C   0  0  0  0  0  0  0  0  0  0  0  0
    6.4180   -3.8010   24.2280 C   0  0  2  0  0  0  0  0  0  0  0  0
    5.6180   -4.5050   23.1380 C   0  0  0  0  0  0  0  0  0  0  0  0
    5.8790   -4.4490   21.5980 C   0  0  1  0  0  0  0  0  0  0  0  0
    6.8570   -0.9800   28.0180 C   0  0  0  0  0  0  0  0  0  0  0  0
    6.7910    0.4200   28.6110 C   0  0  0  0  0  0  0  0  0  0  0  0
    5.8750    1.4140   27.9120 C   0  0  0  0  0  0  0  0  0  0  0  0
    5.1050    0.9310   26.6790 C   0  0  0  0  0  0  0  0  0  0  0  0
    5.2760   -0.4120   26.2530 C   0  0  0  0  0  0  0  0  0  0  0  0
    6.1120   -1.3360   26.8910 C   0  0  0  0  0  0  0  0  0  0  0  0
  1  4  1  0
  2  4  1  0
  3  4  2  0
  2  7  1  0
  7  9  1  1
  5 10  1  0
  6 10  2  0
  9 10  1  0
  7 11  1  0
  8 11  1  0
 12 13  2  3
 14 18  1  0
 15 20  1  0
 16 20  2  0
 18 20  1  6
 17 22  1  0
 19 23  1  0
 23 24  1  6
 19 25  1  0
 26 28  1  0
 27 28  2  0
 29 30  2  0
 30 31  1  0
 31 32  2  0
 18 33  1  0
 32 33  1  0
 29 34  1  0
 33 34  2  0
 21 35  1  0
 35 36  2  0
 17 37  1  0
 36 37  1  0
 37 38  2  0
 38 39  1  0
 15 40  1  0
 35 40  1  0
 39 40  2  0
 41 42  2  0
 23 43  1  0
 42 43  1  0
 43 44  2  0
 44 45  1  0
 14 46  1  0
 41 46  1  0
 45 46  2  0
 48 14  1  1
 47 48  1  0
 48 49  1  0
 50 26  1  1
 49 50  1  0
 11 51  2  0
 50 51  1  0
  8 52  1  0
 52 12  1  1
 47 52  1  0
 51 52  1  0
 53 54  2  0
 54 55  1  0
 55 56  2  0
 56 57  1  0
 28 58  1  0
 53 58  1  0
 57 58  2  0
M  END
