x0981-x2705-x1402
     RDKit          3D

 57 62  0  0  0  0  0  0  0  0999 V2000
    1.3080   -8.7680   21.4020 C   0  0  0  0  0  0  0  0  0  0  0  0
    3.0180   -7.1350   22.6190 N   0  0  0  0  0  0  0  0  0  0  0  0
    0.6440   -6.5350   22.4140 O   0  0  0  0  0  0  0  0  0  0  0  0
    1.6760   -7.4980   22.1680 C   0  0  0  0  0  0  0  0  0  0  0  0
    2.7760   -8.2490   26.5220 N   0  0  0  0  0  0  0  0  0  0  0  0
    3.1770   -8.8050   24.2820 O   0  0  0  0  0  0  0  0  0  0  0  0
    3.3010   -6.0540   23.6190 C   0  0  1  0  0  0  0  0  0  0  0  0
    3.5640   -3.6350   23.4870 O   0  0  0  0  0  0  0  0  0  0  0  0
    3.6680   -6.6710   24.9540 C   0  0  0  0  0  0  0  0  0  0  0  0
    3.2000   -7.9760   25.2570 C   0  0  0  0  0  0  0  0  0  0  0  0
    6.7940   -5.1590   20.5000 C   0  0  0  0  0  0  0  0  0  0  0  0
    5.8560   -6.1530   19.9450 C   0  0  0  0  0  0  0  0  0  0  0  0
    2.1160   -0.6410   26.0870 Cl  0  0  0  0  0  0  0  0  0  0  0  0
    4.9580   -5.8700   27.3200 O   0  0  0  0  0  0  0  0  0  0  0  0
    4.4960   -5.5580   25.9900 S   0  0  1  0  0  0  0  0  0  0  0  0
    7.5270   -1.2520   21.5840 N   0  0  0  0  0  0  0  0  0  0  0  0
    7.6570    2.1490   22.8000 N   0  0  0  0  0  0  0  0  0  0  0  0
    8.9150    1.3780   21.0470 O   0  0  0  0  0  0  0  0  0  0  0  0
    6.9360    0.1480   21.6150 C   0  0  1  0  0  0  0  0  0  0  0  0
    7.9520    1.2830   21.7930 C   0  0  0  0  0  0  0  0  0  0  0  0
   10.2170    2.2050   23.9280 C   0  0  0  0  0  0  0  0  0  0  0  0
    9.3620    1.2750   24.7610 C   0  0  0  0  0  0  0  0  0  0  0  0
    6.2630    4.8330   21.9010 C   0  0  0  0  0  0  0  0  0  0  0  0
   12.3090   -1.5630   23.3610 C   0  0  0  0  0  0  0  0  0  0  0  0
   12.8150   -0.2030   23.8250 C   0  0  0  0  0  0  0  0  0  0  0  0
   12.7000   -2.4980   24.2580 C   0  0  0  0  0  0  0  0  0  0  0  0
   12.9000   -1.9520   22.0080 C   0  0  0  0  0  0  0  0  0  0  0  0
    7.1420   -3.2920   22.3700 C   0  0  0  0  0  0  0  0  0  0  0  0
    6.5750   -2.1560   21.8010 C   0  0  0  0  0  0  0  0  0  0  0  0
    6.4420   -4.6590   21.9780 C   0  0  2  0  0  0  0  0  0  0  0  0
    6.8080   -5.5100   23.0310 C   0  0  0  0  0  0  0  0  0  0  0  0
    6.4860   -4.9410   24.2380 C   0  0  0  0  0  0  0  0  0  0  0  0
    5.0270   -4.7550   24.5430 N   0  0  0  0  0  0  0  0  0  0  0  0
    4.3230   -4.8070   23.4270 C   0  0  1  0  0  0  0  0  0  0  0  0
    4.8810   -4.6740   22.1290 C   0  0  0  0  0  0  0  0  0  0  0  0
    3.0950   -3.4020   26.0480 S   0  0  0  0  0  0  0  0  0  0  0  0
    4.7650   -3.9000   25.9150 C   0  0  0  0  0  0  0  0  0  0  0  0
    5.5500   -2.8110   25.8170 C   0  0  0  0  0  0  0  0  0  0  0  0
    4.8650   -1.6000   25.8480 C   0  0  0  0  0  0  0  0  0  0  0  0
    3.4130   -1.7610   25.9850 C   0  0  0  0  0  0  0  0  0  0  0  0
    6.3080    0.3800   17.8490 N   0  0  0  0  0  0  0  0  0  0  0  0
    5.1820    1.1200   17.7820 C   0  0  0  0  0  0  0  0  0  0  0  0
    4.4430    1.6410   18.9440 C   0  0  0  0  0  0  0  0  0  0  0  0
    5.0770    1.2760   20.2650 C   0  0  0  0  0  0  0  0  0  0  0  0
    6.2420    0.5220   20.3530 C   0  0  0  0  0  0  0  0  0  0  0  0
    6.8270    0.0870   19.1790 C   0  0  0  0  0  0  0  0  0  0  0  0
    9.8810   -1.5470   24.3770 N   0  0  0  0  0  0  0  0  0  0  0  0
    8.6400   -1.4570   23.7900 N   0  0  0  0  0  0  0  0  0  0  0  0
    8.6520   -1.3650   22.3980 C   0  0  0  0  0  0  0  0  0  0  0  0
    9.9850   -1.4070   22.1890 C   0  0  0  0  0  0  0  0  0  0  0  0
   10.8050   -1.5080   23.2510 C   0  0  0  0  0  0  0  0  0  0  0  0
    9.5080    3.4750   23.5020 C   0  0  0  0  0  0  0  0  0  0  0  0
   10.2230    4.7970   23.6980 C   0  0  0  0  0  0  0  0  0  0  0  0
    9.5370    6.0900   23.2650 C   0  0  0  0  0  0  0  0  0  0  0  0
    8.2920    5.9650   22.7150 C   0  0  0  0  0  0  0  0  0  0  0  0
    7.6280    4.7440   22.5340 C   0  0  0  0  0  0  0  0  0  0  0  0
    8.2610    3.4610   22.9470 C   0  0  0  0  0  0  0  0  0  0  0  0
  1  4  1  0
  2  4  1  0
  3  4  2  0
  7  2  1  6
  7  9  1  0
  5 10  1  0
  6 10  2  0
  9 10  1  0
 11 12  2  3
  9 15  2  0
 14 15  2  0
 16 19  1  0
 17 20  1  0
 18 20  2  0
 19 20  1  6
 21 22  1  0
 24 25  1  0
 24 26  1  0
 24 27  1  0
 16 29  1  0
 28 29  1  0
 30 11  1  6
 28 30  1  0
 30 31  1  0
 31 32  1  0
 15 33  1  0
 32 33  1  0
  7 34  1  0
 34  8  1  1
 33 34  1  0
 30 35  1  0
 34 35  1  0
 15 37  1  1
 36 37  1  0
 37 38  2  0
 38 39  1  0
 13 40  1  0
 36 40  1  0
 39 40  2  0
 41 42  2  0
 42 43  1  0
 43 44  2  0
 19 45  1  0
 44 45  1  0
 41 46  1  0
 45 46  2  0
 47 48  1  0
 16 49  1  0
 48 49  1  0
 49 50  2  0
 24 51  1  0
 47 51  2  0
 50 51  1  0
 21 52  1  0
 52 53  2  0
 53 54  1  0
 54 55  2  0
 23 56  1  0
 55 56  1  0
 17 57  1  0
 52 57  1  0
 56 57  2  0
M  END
