x0981-x0387
     RDKit          3D

 30 31  0  0  0  0  0  0  0  0999 V2000
    1.1690   -8.7200   21.3750 C   0  0  0  0  0  0  0  0  0  0  0  0
    2.7080   -7.1640   22.7840 N   0  0  0  0  0  0  0  0  0  0  0  0
    0.2540   -6.5530   22.1420 O   0  0  0  0  0  0  0  0  0  0  0  0
    1.3940   -7.4160   22.1530 C   0  0  0  0  0  0  0  0  0  0  0  0
    2.4230   -8.3000   26.4730 N   0  0  0  0  0  0  0  0  0  0  0  0
    3.9690   -8.2440   24.6680 O   0  0  0  0  0  0  0  0  0  0  0  0
    2.9550   -5.9490   23.5830 C   0  0  1  0  0  0  0  0  0  0  0  0
    5.0800   -5.8800   22.2820 N   0  0  0  0  0  0  0  0  0  0  0  0
    5.0150   -4.6000   24.3730 N   0  0  0  0  0  0  0  0  0  0  0  0
    2.6990   -6.2600   24.9130 C   0  0  0  0  0  0  0  0  0  0  0  0
    3.1140   -7.6750   25.3030 C   0  0  0  0  0  0  0  0  0  0  0  0
    4.4150   -5.4750   23.3740 C   0  0  0  0  0  0  0  0  0  0  0  0
    6.1760   -4.9320   21.8100 C   0  0  0  0  0  0  0  0  0  0  0  0
    6.3630   -5.1140   20.3230 C   0  0  0  0  0  0  0  0  0  0  0  0
    5.7450   -6.1860   19.8540 C   0  0  0  0  0  0  0  0  0  0  0  0
    8.2870   -4.3540   27.0220 O   0  0  0  0  0  0  0  0  0  0  0  0
    9.2770   -2.1790   23.3360 C   0  0  0  0  0  0  0  0  0  0  0  0
    6.2870   -4.1250   24.2730 C   0  0  0  0  0  0  0  0  0  0  0  0
    7.2080   -4.2830   25.3210 C   0  0  0  0  0  0  0  0  0  0  0  0
    8.7820   -4.8490   25.8510 C   0  0  1  0  0  0  0  0  0  0  0  0
    8.6070   -4.1040   24.6690 C   0  0  2  0  0  0  0  0  0  0  0  0
    8.9790   -2.7470   24.5920 C   0  0  1  0  0  0  0  0  0  0  0  0
   10.1640   -2.6140   25.4350 N   0  0  0  0  0  0  0  0  0  0  0  0
   10.9230   -3.7030   25.3710 C   0  0  0  0  0  0  0  0  0  0  0  0
   10.3110   -4.9430   26.0450 C   0  0  0  0  0  0  0  0  0  0  0  0
   11.4390   -1.0650   24.0230 C   0  0  0  0  0  0  0  0  0  0  0  0
   10.7030   -1.7500   23.1320 C   0  0  0  0  0  0  0  0  0  0  0  0
   11.4210   -2.0170   21.9800 C   0  0  0  0  0  0  0  0  0  0  0  0
   13.0370   -1.4220   21.9760 S   0  0  0  0  0  0  0  0  0  0  0  0
   12.8300   -0.7640   23.5470 C   0  0  0  0  0  0  0  0  0  0  0  0
  1  4  1  0
  2  4  1  0
  3  4  2  0
  2  7  1  0
  7 10  1  1
  5 11  1  0
  6 11  2  0
 10 11  1  0
  7 12  1  0
  8 12  1  0
  9 12  2  3
  8 13  1  0
 13 14  1  0
 14 15  2  3
  9 18  1  0
 18 19  1  0
 20 16  1  1
 21 19  1  1
 20 21  1  0
 22 17  1  6
 21 22  1  0
 22 23  1  0
 23 24  1  0
 20 25  1  0
 24 25  1  0
 17 27  1  0
 26 27  1  0
 27 28  2  0
 28 29  1  0
 26 30  2  0
 29 30  1  0
M  END
