x0981-x1334
     RDKit          3D

 28 29  0  0  0  0  0  0  0  0999 V2000
    1.2030   -8.6940   21.4240 C   0  0  0  0  0  0  0  0  0  0  0  0
    2.7760   -7.0830   22.7570 N   0  0  0  0  0  0  0  0  0  0  0  0
    0.2820   -6.5390   22.2010 O   0  0  0  0  0  0  0  0  0  0  0  0
    1.4390   -7.3780   22.1800 C   0  0  0  0  0  0  0  0  0  0  0  0
    2.4890   -8.2610   26.4260 N   0  0  0  0  0  0  0  0  0  0  0  0
    4.0020   -8.2150   24.5990 O   0  0  0  0  0  0  0  0  0  0  0  0
    3.0030   -5.8630   23.5580 C   0  0  1  0  0  0  0  0  0  0  0  0
    5.1250   -5.6990   22.2630 N   0  0  0  0  0  0  0  0  0  0  0  0
    4.8860   -4.4580   24.1260 O   0  0  0  0  0  0  0  0  0  0  0  0
    2.7840   -6.1990   24.8940 C   0  0  0  0  0  0  0  0  0  0  0  0
    3.1700   -7.6320   25.2530 C   0  0  0  0  0  0  0  0  0  0  0  0
    4.4310   -5.2770   23.3360 C   0  0  0  0  0  0  0  0  0  0  0  0
    6.3710   -4.9140   21.8220 C   0  0  1  0  0  0  0  0  0  0  0  0
    6.4410   -5.0800   20.3100 C   0  0  0  0  0  0  0  0  0  0  0  0
    5.7500   -6.1360   19.8800 C   0  0  0  0  0  0  0  0  0  0  0  0
    7.3630   -5.9570   28.4250 Cl  0  0  0  0  0  0  0  0  0  0  0  0
    9.6540   -2.7840   24.0810 C   0  0  0  0  0  0  0  0  0  0  0  0
    6.4710   -2.3600   21.3490 N   0  0  0  0  0  0  0  0  0  0  0  0
    7.5710   -1.5450   21.4670 C   0  0  0  0  0  0  0  0  0  0  0  0
    8.8300   -2.0200   21.8530 C   0  0  0  0  0  0  0  0  0  0  0  0
    8.5930   -2.5340   23.2100 N   0  0  0  0  0  0  0  0  0  0  0  0
    7.7420   -3.5700   23.1400 C   0  0  0  0  0  0  0  0  0  0  0  0
    6.5820   -3.4560   22.3750 C   0  0  2  0  0  0  0  0  0  0  0  0
    9.8840   -5.1060   25.6350 C   0  0  0  0  0  0  0  0  0  0  0  0
    9.3480   -3.8490   25.1510 C   0  0  0  0  0  0  0  0  0  0  0  0
    7.9840   -3.8910   26.3550 S   0  0  0  0  0  0  0  0  0  0  0  0
    8.3460   -5.3800   27.1550 C   0  0  0  0  0  0  0  0  0  0  0  0
    9.4320   -5.8920   26.6030 C   0  0  0  0  0  0  0  0  0  0  0  0
  1  4  1  0
  2  4  1  0
  3  4  2  0
  2  7  1  0
  7 10  1  1
  5 11  1  0
  6 11  2  0
 10 11  1  0
  7 12  1  0
  8 12  1  0
  9 12  2  0
  8 13  1  0
 13 14  1  6
 14 15  2  3
 18 19  1  0
 19 20  1  0
 17 21  1  0
 20 21  1  0
 21 22  1  0
 13 23  1  0
 18 23  1  0
 23 22  1  6
 17 25  1  0
 24 25  2  0
 25 26  1  0
 16 27  1  0
 26 27  1  0
 24 28  1  0
 27 28  2  0
M  END
