x0981-x2540-x0755-x3110-x0691
     RDKit          3D

 64 71  0  0  0  0  0  0  0  0999 V2000
    7.7930    1.7880   23.1670 N   0  0  0  0  0  0  0  0  0  0  0  0
   13.4010    5.2180   22.9390 C   0  0  0  0  0  0  0  0  0  0  0  0
   12.1230    3.3090   22.4460 O   0  0  0  0  0  0  0  0  0  0  0  0
   12.5370    4.5530   21.9210 C   0  0  0  0  0  0  0  0  0  0  0  0
    7.5180   -1.1870   21.4530 N   0  0  0  0  0  0  0  0  0  0  0  0
   11.1250    4.2640   24.1970 O   0  0  0  0  0  0  0  0  0  0  0  0
   11.1740    3.2790   23.4140 C   0  0  0  0  0  0  0  0  0  0  0  0
    8.5150    1.7510   21.0330 O   0  0  0  0  0  0  0  0  0  0  0  0
   10.2180    2.1430   23.5360 C   0  0  0  0  0  0  0  0  0  0  0  0
    8.8200    2.7370   23.5620 C   0  0  0  0  0  0  0  0  0  0  0  0
    7.7100    1.1820   21.9470 C   0  0  0  0  0  0  0  0  0  0  0  0
    6.9700    0.0940   21.4490 C   0  0  1  0  0  0  0  0  0  0  0  0
   13.1510   -1.7560   24.3260 C   0  0  1  0  0  0  0  0  0  0  0  0
   12.3730   -0.4930   24.6700 C   0  0  0  0  0  0  0  0  0  0  0  0
   13.4350   -2.0210   22.8780 C   0  0  0  0  0  0  0  0  0  0  0  0
   13.1940   -2.9200   25.2470 C   0  0  0  0  0  0  0  0  0  0  0  0
   12.1660   -1.4270   23.4690 C   0  0  1  0  0  0  0  0  0  0  0  0
    8.5820    3.2070   24.9500 C   0  0  0  0  0  0  0  0  0  0  0  0
    8.9160    4.0150   22.7140 C   0  0  0  0  0  0  0  0  0  0  0  0
    1.2980   -8.6220   21.5560 C   0  0  0  0  0  0  0  0  0  0  0  0
    2.7560   -7.0620   22.8370 N   0  0  0  0  0  0  0  0  0  0  0  0
    0.4400   -6.4610   22.1730 O   0  0  0  0  0  0  0  0  0  0  0  0
    1.5500   -7.3540   22.2340 C   0  0  0  0  0  0  0  0  0  0  0  0
    2.1840   -8.1620   26.3510 N   0  0  0  0  0  0  0  0  0  0  0  0
    3.0060   -8.4060   24.2970 O   0  0  0  0  0  0  0  0  0  0  0  0
    2.9000   -5.8780   23.4300 C   0  0  1  0  0  0  0  0  0  0  0  0
    2.7450   -6.2320   24.9100 C   0  0  2  0  0  0  0  0  0  0  0  0
    2.6280   -7.6110   25.1780 C   0  0  0  0  0  0  0  0  0  0  0  0
    6.8870   -5.5150   20.2900 C   0  0  0  0  0  0  0  0  0  0  0  0
    5.8270   -6.1020   19.8550 C   0  0  0  0  0  0  0  0  0  0  0  0
    6.4630   -2.1850   21.6560 C   0  0  0  0  0  0  0  0  0  0  0  0
    6.8680   -3.1450   22.6780 C   0  0  0  0  0  0  0  0  0  0  0  0
    4.7140   -4.5900   26.7240 O   0  0  0  0  0  0  0  0  0  0  0  0
    6.6400   -3.6230   25.8960 O   0  0  0  0  0  0  0  0  0  0  0  0
    5.3640   -4.1340   25.5050 S   0  0  0  0  0  0  0  0  0  0  0  0
    4.4630   -7.7890   25.3330 O   0  0  0  0  0  0  0  0  0  0  0  0
    5.8480   -6.3440   26.7520 O   0  0  0  0  0  0  0  0  0  0  0  0
    4.7150   -6.4380   25.7700 S   0  0  0  0  0  0  0  0  0  0  0  0
    6.3320    0.5010   17.7320 N   0  0  0  0  0  0  0  0  0  0  0  0
    5.2730    1.3390   17.7260 C   0  0  0  0  0  0  0  0  0  0  0  0
    4.7150    1.7950   18.9240 C   0  0  0  0  0  0  0  0  0  0  0  0
    5.2460    1.4010   20.1540 C   0  0  0  0  0  0  0  0  0  0  0  0
    6.3470    0.5400   20.1630 C   0  0  0  0  0  0  0  0  0  0  0  0
    6.8650    0.1010   18.9860 C   0  0  0  0  0  0  0  0  0  0  0  0
    9.8620   -1.3310   21.9690 C   0  0  0  0  0  0  0  0  0  0  0  0
   11.0860   -1.3840   22.6370 C   0  0  0  0  0  0  0  0  0  0  0  0
   10.6400   -1.3510   23.9590 C   0  0  0  0  0  0  0  0  0  0  0  0
    9.3750   -1.2790   24.4990 C   0  0  0  0  0  0  0  0  0  0  0  0
    8.2960   -1.2330   23.7030 C   0  0  0  0  0  0  0  0  0  0  0  0
    8.5340   -1.2560   22.4140 C   0  0  0  0  0  0  0  0  0  0  0  0
    6.4640   -4.9880   22.2350 S   0  0  0  0  0  0  0  0  0  0  0  0
    7.2100   -6.3780   22.8430 C   0  0  0  0  0  0  0  0  0  0  0  0
    6.5200   -5.6220   23.7590 C   0  0  2  0  0  0  0  0  0  0  0  0
    5.2760   -5.5250   24.3690 C   0  0  0  0  0  0  0  0  0  0  0  0
    4.3860   -5.3140   23.2430 C   0  0  1  0  0  0  0  0  0  0  0  0
    5.0640   -6.2010   22.4900 C   0  0  0  0  0  0  0  0  0  0  0  0
    1.8900   -5.4620   25.6970 O   0  0  0  0  0  0  0  0  0  0  0  0
    5.2120   -1.6670   26.2460 F   0  0  0  0  0  0  0  0  0  0  0  0
    2.0760   -4.1030   25.8510 C   0  0  0  0  0  0  0  0  0  0  0  0
    3.3210   -3.2450   25.9970 C   0  0  0  0  0  0  0  0  0  0  0  0
    3.9910   -2.2130   26.1320 C   0  0  0  0  0  0  0  0  0  0  0  0
    2.7150   -1.7100   26.1220 C   0  0  0  0  0  0  0  0  0  0  0  0
    1.3850   -2.0510   26.0260 C   0  0  0  0  0  0  0  0  0  0  0  0
    1.0010   -3.3190   25.8780 C   0  0  0  0  0  0  0  0  0  0  0  0
  2  4  1  0
  3  4  1  0
  3  7  1  0
  6  7  2  0
  7  9  1  0
 10  1  1  0
  9 10  1  0
  1 11  1  0
  8 11  2  0
  5 12  1  0
 12 11  1  6
 13 14  1  0
 13 15  1  0
 13 16  1  6
 13 17  1  0
 14 17  1  0
 15 17  1  0
 10 18  1  0
 10 19  1  0
 20 23  1  0
 21 23  1  0
 22 23  2  0
 26 21  1  6
 26 27  1  0
 24 28  1  0
 25 28  2  0
 27 28  1  0
 29 30  2  3
  5 31  1  0
 31 32  1  0
 33 35  2  0
 34 35  2  0
 36 38  2  0
 37 38  2  0
 39 40  2  0
 40 41  1  0
 41 42  2  0
 12 43  1  0
 42 43  1  0
 39 44  1  0
 43 44  2  0
 17 46  1  1
 45 46  2  0
 46 47  1  0
 47 48  2  0
 48 49  1  0
  5 50  1  0
 45 50  1  0
 49 50  2  0
 29 51  1  0
 32 51  1  0
 51 52  1  0
 51 53  1  0
 53 52  1  6
 54 35  1  0
 38 54  1  0
 53 54  1  0
 26 55  1  0
 54 55  1  0
 51 56  1  0
 55 56  1  6
 27 57  1  6
 57 59  1  0
 59 60  1  0
 58 61  1  0
 60 61  2  0
 60 62  1  0
 61 62  1  0
 62 63  2  0
 59 64  2  0
 63 64  1  0
M  END
