x0981-x1493-x0755-x3110-x1077
     RDKit          3D

 66 72  0  0  0  0  0  0  0  0999 V2000
    8.1130    1.4380   23.3150 N   0  0  0  0  0  0  0  0  0  0  0  0
   13.4630    5.1950   22.5810 C   0  0  0  0  0  0  0  0  0  0  0  0
   12.1240    3.3480   22.4940 O   0  0  0  0  0  0  0  0  0  0  0  0
   12.2620    4.4590   21.9850 C   0  0  0  0  0  0  0  0  0  0  0  0
    7.4960   -1.3320   21.6790 N   0  0  0  0  0  0  0  0  0  0  0  0
   11.0880    4.2700   24.0950 O   0  0  0  0  0  0  0  0  0  0  0  0
   11.2220    3.2870   23.3890 C   0  0  0  0  0  0  0  0  0  0  0  0
    8.6980    1.5950   21.1150 O   0  0  0  0  0  0  0  0  0  0  0  0
   10.3820    2.2060   23.6190 C   0  0  0  0  0  0  0  0  0  0  0  0
    8.9140    2.5150   23.6840 C   0  0  0  0  0  0  0  0  0  0  0  0
    7.9900    1.0720   21.9940 C   0  0  0  0  0  0  0  0  0  0  0  0
    7.0110    0.0960   21.7070 C   0  0  1  0  0  0  0  0  0  0  0  0
   12.3560   -1.9430   24.2750 C   0  0  0  0  0  0  0  0  0  0  0  0
   12.5840   -0.6870   25.0770 C   0  0  0  0  0  0  0  0  0  0  0  0
   13.5100   -2.1550   23.3270 C   0  0  0  0  0  0  0  0  0  0  0  0
   12.1810   -3.1340   25.2000 C   0  0  0  0  0  0  0  0  0  0  0  0
    6.3840    0.2850   17.8890 N   0  0  0  0  0  0  0  0  0  0  0  0
    5.2450    1.1710   17.7750 C   0  0  0  0  0  0  0  0  0  0  0  0
    4.6030    1.7470   19.0000 C   0  0  0  0  0  0  0  0  0  0  0  0
    5.1560    1.4080   20.3660 C   0  0  0  0  0  0  0  0  0  0  0  0
    6.3550    0.4860   20.4150 C   0  0  0  0  0  0  0  0  0  0  0  0
    6.8650   -0.0120   19.0560 C   0  0  0  0  0  0  0  0  0  0  0  0
    9.8110   -1.2280   21.7550 C   0  0  0  0  0  0  0  0  0  0  0  0
   11.1520   -1.3440   22.3140 C   0  0  0  0  0  0  0  0  0  0  0  0
   11.1130   -1.7770   23.5500 C   0  0  0  0  0  0  0  0  0  0  0  0
    9.9050   -2.0820   24.1810 C   0  0  0  0  0  0  0  0  0  0  0  0
    8.5230   -2.0400   23.7880 C   0  0  0  0  0  0  0  0  0  0  0  0
    8.6640   -1.5470   22.4390 C   0  0  0  0  0  0  0  0  0  0  0  0
    1.2030   -8.7280   21.3630 C   0  0  0  0  0  0  0  0  0  0  0  0
    2.5700   -7.2580   22.5460 N   0  0  0  0  0  0  0  0  0  0  0  0
    0.3870   -6.7420   22.1690 O   0  0  0  0  0  0  0  0  0  0  0  0
    1.3340   -7.5170   22.0520 C   0  0  0  0  0  0  0  0  0  0  0  0
    2.2940   -8.3550   26.3310 N   0  0  0  0  0  0  0  0  0  0  0  0
    3.7120   -8.3670   24.5740 O   0  0  0  0  0  0  0  0  0  0  0  0
    2.8280   -6.0440   23.3460 C   0  0  1  0  0  0  0  0  0  0  0  0
    2.3220   -6.4130   24.7740 C   0  0  0  0  0  0  0  0  0  0  0  0
    2.8520   -7.8010   25.2050 C   0  0  0  0  0  0  0  0  0  0  0  0
    6.7830   -5.3620   20.5350 C   0  0  0  0  0  0  0  0  0  0  0  0
    5.9070   -6.1340   19.9350 C   0  0  0  0  0  0  0  0  0  0  0  0
    4.1500   -5.6710   26.3610 O   0  0  0  0  0  0  0  0  0  0  0  0
    6.4230   -4.2270   25.8400 N   0  0  0  0  0  0  0  0  0  0  0  0
    1.9230   -4.7890   25.9170 F   0  0  0  0  0  0  0  0  0  0  0  0
    5.4630   -1.5810   26.2110 F   0  0  0  0  0  0  0  0  0  0  0  0
    4.8290   -4.4830   25.8550 S   0  0  2  0  0  0  0  0  0  0  0  0
    5.1310   -6.6940   25.1380 C   0  0  0  0  0  0  0  0  0  0  0  0
    5.9710   -5.6360   25.4560 C   0  0  1  0  0  0  0  0  0  0  0  0
    7.2670   -5.4200   25.3840 C   0  0  1  0  0  0  0  0  0  0  0  0
    7.8870   -5.5240   24.0450 C   0  0  2  0  0  0  0  0  0  0  0  0
    8.8040   -4.5840   23.7560 C   0  0  0  0  0  0  0  0  0  0  0  0
    9.9080   -4.5920   24.5770 C   0  0  0  0  0  0  0  0  0  0  0  0
    9.5160   -3.7540   25.6790 N   0  0  0  0  0  0  0  0  0  0  0  0
    8.9190   -4.5020   26.8160 C   0  0  0  0  0  0  0  0  0  0  0  0
    8.0660   -5.5790   26.5020 C   0  0  0  0  0  0  0  0  0  0  0  0
    2.3660   -3.5340   26.0540 C   0  0  0  0  0  0  0  0  0  0  0  0
    3.7280   -3.1920   26.0610 C   0  0  0  0  0  0  0  0  0  0  0  0
    4.1660   -1.8980   26.2020 C   0  0  0  0  0  0  0  0  0  0  0  0
    3.2200   -0.8970   26.3360 C   0  0  0  0  0  0  0  0  0  0  0  0
    1.8560   -1.2160   26.3270 C   0  0  0  0  0  0  0  0  0  0  0  0
    1.4130   -2.5300   26.1870 C   0  0  0  0  0  0  0  0  0  0  0  0
    6.3960   -4.9230   21.8300 N   0  0  0  0  0  0  0  0  0  0  0  0
    6.6710   -5.5590   23.1410 C   0  0  2  0  0  0  0  0  0  0  0  0
    6.0370   -4.7330   24.2070 C   0  0  1  0  0  0  0  0  0  0  0  0
    4.7140   -4.4550   24.1850 N   0  0  0  0  0  0  0  0  0  0  0  0
    4.3190   -5.4780   23.2280 C   0  0  2  0  0  0  0  0  0  0  0  0
    4.9300   -4.9380   21.9030 C   0  0  0  0  0  0  0  0  0  0  0  0
    8.6800   -2.5700   25.2970 C   0  0  0  0  0  0  0  0  0  0  0  0
  2  4  1  0
  3  4  1  0
  3  7  1  0
  6  7  2  0
  7  9  1  0
  1 10  1  0
  9 10  1  0
  1 11  1  0
  8 11  2  0
 12  5  1  6
 11 12  1  0
 13 14  1  0
 13 15  1  0
 13 16  1  0
 17 18  2  0
 18 19  1  0
 19 20  2  0
 12 21  1  0
 20 21  1  0
 17 22  1  0
 21 22  2  0
 23 24  2  0
 13 25  1  0
 24 25  1  0
 25 26  2  0
 26 27  1  0
  5 28  1  0
 23 28  1  0
 27 28  2  0
 29 32  1  0
 30 32  1  0
 31 32  2  0
 30 35  1  0
 35 36  1  1
 33 37  1  0
 34 37  2  0
 36 37  1  0
 38 39  2  3
 40 44  2  0
 41 44  2  0
 46 45  1  6
 47 41  1  0
 46 47  1  0
 47 48  1  0
 48 49  1  6
 49 50  1  0
 50 51  1  0
 51 52  1  0
 47 53  1  1
 52 53  1  0
 42 54  1  0
 44 55  1  1
 54 55  2  0
 43 56  1  0
 55 56  1  0
 56 57  2  0
 57 58  1  0
 54 59  1  0
 58 59  2  0
 38 60  1  0
 48 61  1  0
 61 60  1  6
 46 62  1  0
 61 62  1  0
 44 63  1  0
 62 63  1  6
 35 64  1  0
 63 64  1  0
 60 65  1  0
 64 65  1  6
 27 66  1  0
 51 66  1  0
M  END
