x0981-x0755-x2776-x3117-x0731
     RDKit          3D

 69 73  0  0  0  0  0  0  0  0999 V2000
    1.1220   -8.3400   21.9500 C   0  0  0  0  0  0  0  0  0  0  0  0
    2.9020   -6.8550   22.8580 N   0  0  0  0  0  0  0  0  0  0  0  0
    0.4950   -6.1180   22.7180 O   0  0  0  0  0  0  0  0  0  0  0  0
    1.5640   -7.0330   22.5560 C   0  0  0  0  0  0  0  0  0  0  0  0
    2.5000   -8.3460   26.3470 N   0  0  0  0  0  0  0  0  0  0  0  0
    4.0260   -8.1990   24.6680 O   0  0  0  0  0  0  0  0  0  0  0  0
    3.4010   -5.8810   23.8820 C   0  0  1  0  0  0  0  0  0  0  0  0
    3.0110   -6.1820   25.3010 C   0  0  0  0  0  0  0  0  0  0  0  0
    3.2270   -7.6640   25.4120 C   0  0  0  0  0  0  0  0  0  0  0  0
    6.4560   -4.8410   20.3150 C   0  0  0  0  0  0  0  0  0  0  0  0
    5.8160   -5.9390   19.9480 C   0  0  0  0  0  0  0  0  0  0  0  0
    4.9810   -5.4880   26.6810 O   0  0  0  0  0  0  0  0  0  0  0  0
    6.2940   -3.3920   26.5690 O   0  0  0  0  0  0  0  0  0  0  0  0
    4.8840   -1.3860   27.3270 F   0  0  0  0  0  0  0  0  0  0  0  0
    5.2450   -4.2260   26.0310 S   0  0  0  0  0  0  0  0  0  0  0  0
    0.1270   -0.8570   26.0880 C   0  0  0  0  0  0  0  0  0  0  0  0
    6.4690   -0.8320   22.0550 N   0  0  0  0  0  0  0  0  0  0  0  0
    7.5400    2.4260   22.8820 N   0  0  0  0  0  0  0  0  0  0  0  0
    8.4380    1.5120   20.9430 O   0  0  0  0  0  0  0  0  0  0  0  0
   10.8650    7.0240   23.2700 O   0  0  0  0  0  0  0  0  0  0  0  0
    6.2610    0.6090   21.6430 C   0  0  1  0  0  0  0  0  0  0  0  0
   12.5860   -2.0380   22.1980 O   0  0  0  0  0  0  0  0  0  0  0  0
    7.5250    1.5450   21.7930 C   0  0  0  0  0  0  0  0  0  0  0  0
   10.6070    2.1700   23.3570 C   0  0  0  0  0  0  0  0  0  0  0  0
   12.2040    6.7490   23.6760 C   0  0  0  0  0  0  0  0  0  0  0  0
   12.0240   -1.1990   23.1580 C   0  0  1  0  0  0  0  0  0  0  0  0
   12.6800    0.1870   23.0610 C   0  0  0  0  0  0  0  0  0  0  0  0
   13.4540   -2.8850   22.8190 C   0  0  0  0  0  0  0  0  0  0  0  0
    5.4990   -2.9720   21.9930 C   0  0  0  0  0  0  0  0  0  0  0  0
    6.0050   -1.8240   21.3130 C   0  0  0  0  0  0  0  0  0  0  0  0
    8.7830    0.7320   23.6990 N   0  0  0  0  0  0  0  0  0  0  0  0
    6.6490    2.2800   23.9550 N   0  0  0  0  0  0  0  0  0  0  0  0
    6.4900    1.1510   26.1280 O   0  0  0  0  0  0  0  0  0  0  0  0
    8.4870    1.1710   25.0510 C   0  0  0  0  0  0  0  0  0  0  0  0
    7.1540    1.4850   25.1590 C   0  0  0  0  0  0  0  0  0  0  0  0
    2.5720   -3.6820   25.4590 C   0  0  0  0  0  0  0  0  0  0  0  0
    3.7720   -3.2500   26.0490 C   0  0  0  0  0  0  0  0  0  0  0  0
    3.7990   -1.8920   26.7320 C   0  0  0  0  0  0  0  0  0  0  0  0
    2.5300   -1.1290   26.7100 C   0  0  0  0  0  0  0  0  0  0  0  0
    1.3920   -1.6540   26.0930 C   0  0  0  0  0  0  0  0  0  0  0  0
    1.4150   -2.9070   25.4810 C   0  0  0  0  0  0  0  0  0  0  0  0
    6.1690   -4.4110   21.8110 C   0  0  2  0  0  0  0  0  0  0  0  0
    7.2730   -4.4410   22.6700 C   0  0  0  0  0  0  0  0  0  0  0  0
    7.0420   -4.3010   24.0340 C   0  0  0  0  0  0  0  0  0  0  0  0
    5.6120   -4.5530   24.3910 N   0  0  0  0  0  0  0  0  0  0  0  0
    4.9640   -5.7030   23.6770 C   0  0  2  0  0  0  0  0  0  0  0  0
    5.2300   -5.5620   22.3500 C   0  0  0  0  0  0  0  0  0  0  0  0
    6.1210    0.6940   17.8690 N   0  0  0  0  0  0  0  0  0  0  0  0
    5.0540    1.4960   17.7320 C   0  0  0  0  0  0  0  0  0  0  0  0
    4.3200    2.0190   18.7720 C   0  0  0  0  0  0  0  0  0  0  0  0
    4.7200    1.7080   20.0620 C   0  0  0  0  0  0  0  0  0  0  0  0
    5.8060    0.9100   20.2450 C   0  0  0  0  0  0  0  0  0  0  0  0
    6.4600    0.4290   19.1430 C   0  0  0  0  0  0  0  0  0  0  0  0
    9.8460    3.4400   23.2030 C   0  0  0  0  0  0  0  0  0  0  0  0
   10.6010    4.5960   23.2920 C   0  0  0  0  0  0  0  0  0  0  0  0
   10.0120    5.9600   23.1600 C   0  0  0  0  0  0  0  0  0  0  0  0
    8.6390    5.9770   22.9350 C   0  0  0  0  0  0  0  0  0  0  0  0
    7.6790    4.8970   22.8120 C   0  0  0  0  0  0  0  0  0  0  0  0
    8.4290    3.5560   22.9760 C   0  0  0  0  0  0  0  0  0  0  0  0
    8.6820   -1.0330   21.3450 C   0  0  0  0  0  0  0  0  0  0  0  0
   10.1240   -1.1230   21.6690 C   0  0  0  0  0  0  0  0  0  0  0  0
   10.5160   -1.1560   22.9040 C   0  0  0  0  0  0  0  0  0  0  0  0
    9.5840   -1.1440   23.9310 C   0  0  0  0  0  0  0  0  0  0  0  0
    8.2360   -1.0640   23.6880 C   0  0  0  0  0  0  0  0  0  0  0  0
    7.7820   -0.9880   22.3930 C   0  0  0  0  0  0  0  0  0  0  0  0
   12.0390   -1.8180   24.5650 C   0  0  0  0  0  0  0  0  0  0  0  0
   11.5350   -0.6690   25.3640 C   0  0  0  0  0  0  0  0  0  0  0  0
   13.3860   -2.3070   25.1530 C   0  0  0  0  0  0  0  0  0  0  0  0
   11.0900   -3.0300   24.5440 C   0  0  0  0  0  0  0  0  0  0  0  0
  1  4  1  0
  2  4  1  0
  3  4  2  0
  2  7  1  0
  7  8  1  1
  5  9  1  0
  6  9  2  0
  8  9  1  0
 10 11  2  3
 12 15  2  0
 13 15  2  0
 17 21  1  0
 18 23  1  0
 19 23  2  0
 21 23  1  6
 20 25  1  0
 26 22  1  0
 26 27  1  1
 22 28  1  0
 17 30  1  0
 29 30  1  0
 18 32  1  0
 31 34  1  0
 32 35  1  0
 33 35  2  0
 34 35  1  0
 15 37  1  0
 36 37  2  0
 14 38  1  0
 37 38  1  0
 38 39  2  0
 16 40  1  0
 39 40  1  0
 36 41  1  0
 40 41  2  0
 42 10  1  6
 29 42  1  0
 42 43  1  0
 43 44  1  0
 15 45  1  0
 44 45  1  0
  7 46  1  0
 45 46  1  0
 42 47  1  0
 46 47  1  6
 48 49  2  0
 49 50  1  0
 50 51  2  0
 21 52  1  0
 51 52  1  0
 48 53  1  0
 52 53  2  0
 24 54  1  0
 54 55  2  0
 20 56  1  0
 55 56  1  0
 56 57  2  0
 57 58  1  0
 18 59  1  0
 54 59  1  0
 58 59  2  0
 60 61  2  0
 26 62  1  0
 61 62  1  0
 62 63  2  0
 63 64  1  0
 17 65  1  0
 60 65  1  0
 64 65  2  0
 26 66  1  0
 66 67  1  0
 66 68  1  0
 66 69  1  0
M  END
