x0981-x3117-x2052
     RDKit          3D

 58 63  0  0  0  0  0  0  0  0999 V2000
    1.2730   -8.6000   21.5450 C   0  0  0  0  0  0  0  0  0  0  0  0
    2.8830   -7.0580   22.9050 N   0  0  0  0  0  0  0  0  0  0  0  0
    0.4260   -6.4180   22.2560 O   0  0  0  0  0  0  0  0  0  0  0  0
    1.5550   -7.2960   22.2870 C   0  0  0  0  0  0  0  0  0  0  0  0
    2.5440   -8.6780   25.8360 N   0  0  0  0  0  0  0  0  0  0  0  0
    3.8850   -8.1580   24.6720 O   0  0  0  0  0  0  0  0  0  0  0  0
    3.1740   -5.8420   23.7020 C   0  0  1  0  0  0  0  0  0  0  0  0
    4.8570   -4.6620   21.9710 N   0  0  0  0  0  0  0  0  0  0  0  0
    5.2240   -4.3070   24.2610 N   0  0  0  0  0  0  0  0  0  0  0  0
    3.1660   -6.2100   25.1660 C   0  0  0  0  0  0  0  0  0  0  0  0
    3.0030   -7.7010   25.3900 C   0  0  0  0  0  0  0  0  0  0  0  0
    4.4560   -4.9300   23.3690 C   0  0  0  0  0  0  0  0  0  0  0  0
    6.2300   -4.2620   21.4620 C   0  0  1  0  0  0  0  0  0  0  0  0
    6.3550   -4.7310   20.0580 C   0  0  0  0  0  0  0  0  0  0  0  0
    5.7610   -6.1110   19.8440 C   0  0  0  0  0  0  0  0  0  0  0  0
    7.6150    1.6760   22.7910 N   0  0  0  0  0  0  0  0  0  0  0  0
    9.0040    1.3790   21.0460 O   0  0  0  0  0  0  0  0  0  0  0  0
    7.4410   -0.4030   21.1910 C   0  0  2  0  0  0  0  0  0  0  0  0
    8.0670    0.9660   21.7180 C   0  0  0  0  0  0  0  0  0  0  0  0
   12.6030   -1.8520   24.3980 C   0  0  0  0  0  0  0  0  0  0  0  0
   12.7600   -0.5810   25.1620 C   0  0  0  0  0  0  0  0  0  0  0  0
   13.4660   -1.8700   23.1490 C   0  0  0  0  0  0  0  0  0  0  0  0
   13.0070   -3.0560   25.2390 C   0  0  0  0  0  0  0  0  0  0  0  0
    5.4790   -1.7700   25.4870 C   0  0  0  0  0  0  0  0  0  0  0  0
    4.2600   -1.7790   25.5630 O   0  0  0  0  0  0  0  0  0  0  0  0
    6.4010   -1.3080   26.5440 N   0  0  0  0  0  0  0  0  0  0  0  0
    5.3360    2.3940   30.5280 O   0  0  0  0  0  0  0  0  0  0  0  0
    6.1540    3.3070   30.6510 C   0  0  0  0  0  0  0  0  0  0  0  0
    6.1560    0.2310   17.7590 N   0  0  0  0  0  0  0  0  0  0  0  0
    5.0280    0.9050   17.9970 C   0  0  0  0  0  0  0  0  0  0  0  0
    4.5390    1.2060   19.2630 C   0  0  0  0  0  0  0  0  0  0  0  0
    5.2910    0.7820   20.3570 C   0  0  0  0  0  0  0  0  0  0  0  0
    6.4790    0.0870   20.1190 C   0  0  0  0  0  0  0  0  0  0  0  0
    6.8570   -0.1660   18.8150 C   0  0  0  0  0  0  0  0  0  0  0  0
    9.7150    4.9630   24.0780 O   0  0  0  0  0  0  0  0  0  0  0  0
   10.4980    3.8630   23.6080 C   0  0  0  0  0  0  0  0  0  0  0  0
    9.7650    2.6660   23.6590 C   0  0  0  0  0  0  0  0  0  0  0  0
    8.3930    2.8240   23.4390 C   0  0  0  0  0  0  0  0  0  0  0  0
    8.1010    3.9980   22.7170 C   0  0  0  0  0  0  0  0  0  0  0  0
    8.6400    5.2120   23.1820 C   0  0  0  0  0  0  0  0  0  0  0  0
    9.6440   -2.1740   22.0500 C   0  0  0  0  0  0  0  0  0  0  0  0
   10.8920   -2.2150   22.5780 C   0  0  0  0  0  0  0  0  0  0  0  0
   11.1340   -1.7800   23.8780 C   0  0  0  0  0  0  0  0  0  0  0  0
   10.1470   -1.2610   24.7550 C   0  0  0  0  0  0  0  0  0  0  0  0
    8.7660   -1.2070   24.1980 C   0  0  0  0  0  0  0  0  0  0  0  0
    8.6170   -1.6980   22.8130 C   0  0  0  0  0  0  0  0  0  0  0  0
    7.1760   -3.1810   21.8690 N   0  0  0  0  0  0  0  0  0  0  0  0
    7.2300   -1.6510   22.2820 C   0  0  2  0  0  0  0  0  0  0  0  0
    6.2740   -1.3150   23.2310 C   0  0  0  0  0  0  0  0  0  0  0  0
    6.2370   -2.2340   24.2620 C   0  0  2  0  0  0  0  0  0  0  0  0
    6.3210   -3.4770   23.7170 C   0  0  1  0  0  0  0  0  0  0  0  0
    7.4440   -3.9160   23.0930 C   0  0  0  0  0  0  0  0  0  0  0  0
    6.2540    2.0310   28.3780 N   0  0  0  0  0  0  0  0  0  0  0  0
    6.5190    1.1350   27.3920 C   0  0  0  0  0  0  0  0  0  0  0  0
    6.1520   -0.3350   27.5080 C   0  0  0  0  0  0  0  0  0  0  0  0
    5.5220   -0.7460   28.6660 C   0  0  0  0  0  0  0  0  0  0  0  0
    5.2590    0.1980   29.6650 C   0  0  0  0  0  0  0  0  0  0  0  0
    5.6350    1.5430   29.4840 C   0  0  0  0  0  0  0  0  0  0  0  0
  1  4  1  0
  2  4  1  0
  3  4  2  0
  2  7  1  0
  7 10  1  1
  5 11  1  0
  6 11  2  0
 10 11  1  0
  7 12  1  0
  8 12  1  0
  9 12  2  0
  8 13  1  0
 13 14  1  6
 14 15  2  3
 16 19  1  0
 17 19  2  0
 18 19  1  1
 20 21  1  0
 20 22  1  0
 20 23  1  0
 24 25  2  0
 24 26  1  0
 27 28  1  0
 29 30  2  0
 30 31  1  0
 31 32  2  0
 18 33  1  0
 32 33  1  0
 29 34  1  0
 33 34  2  0
 35 36  1  0
 36 37  1  0
 16 38  1  0
 37 38  1  0
 38 39  1  0
 35 40  1  0
 39 40  1  0
 41 42  2  0
 20 43  1  0
 42 43  1  0
 43 44  2  0
 44 45  1  0
 41 46  1  0
 45 46  2  0
 13 47  1  0
 18 48  1  0
 48 46  1  1
 47 48  1  0
 48 49  1  0
 50 24  1  6
 49 50  1  0
 51  9  1  1
 50 51  1  0
 47 52  1  0
 51 52  1  0
 53 54  2  0
 26 55  1  0
 54 55  1  0
 55 56  2  0
 56 57  1  0
 27 58  1  0
 53 58  1  0
 57 58  2  0
M  END
