x0981-x3115-x2705
     RDKit          3D

 56 59  0  0  0  0  0  0  0  0999 V2000
    1.1300   -8.6440   21.5170 C   0  0  0  0  0  0  0  0  0  0  0  0
    2.6050   -7.0750   22.8340 N   0  0  0  0  0  0  0  0  0  0  0  0
    0.1660   -6.4300   22.3320 O   0  0  0  0  0  0  0  0  0  0  0  0
    1.2760   -7.3190   22.2600 C   0  0  0  0  0  0  0  0  0  0  0  0
    2.5510   -8.0720   26.7080 N   0  0  0  0  0  0  0  0  0  0  0  0
    4.0280   -8.2030   24.6350 O   0  0  0  0  0  0  0  0  0  0  0  0
    2.9750   -5.9010   23.6410 C   0  0  1  0  0  0  0  0  0  0  0  0
    5.0290   -5.6400   22.1900 N   0  0  0  0  0  0  0  0  0  0  0  0
    5.1460   -5.0740   24.3740 O   0  0  0  0  0  0  0  0  0  0  0  0
    2.8100   -6.1980   25.1400 C   0  0  0  0  0  0  0  0  0  0  0  0
    3.1430   -7.5010   25.4840 C   0  0  0  0  0  0  0  0  0  0  0  0
    4.4600   -5.5010   23.4460 C   0  0  0  0  0  0  0  0  0  0  0  0
    6.2690   -4.9060   21.8480 C   0  0  1  0  0  0  0  0  0  0  0  0
    6.4000   -4.9890   20.3330 C   0  0  0  0  0  0  0  0  0  0  0  0
    5.6800   -6.2250   19.8430 C   0  0  0  0  0  0  0  0  0  0  0  0
    6.5170   -1.4970   21.5270 N   0  0  0  0  0  0  0  0  0  0  0  0
    7.2200    1.7970   21.6190 N   0  0  0  0  0  0  0  0  0  0  0  0
    7.5110    0.2470   23.4080 N   0  0  0  0  0  0  0  0  0  0  0  0
    6.0030   -0.2150   21.5690 C   0  0  1  0  0  0  0  0  0  0  0  0
    6.9370    0.5830   22.2450 C   0  0  0  0  0  0  0  0  0  0  0  0
   11.6960   -1.1630   24.2080 C   0  0  0  0  0  0  0  0  0  0  0  0
   12.6360   -0.3800   23.3810 C   0  0  0  0  0  0  0  0  0  0  0  0
   12.3550   -2.5040   24.5040 C   0  0  0  0  0  0  0  0  0  0  0  0
   11.3870   -0.5170   25.3220 C   0  0  0  0  0  0  0  0  0  0  0  0
    6.3230   -3.6380   22.4510 C   0  0  0  0  0  0  0  0  0  0  0  0
    5.6720   -2.6220   21.7710 C   0  0  0  0  0  0  0  0  0  0  0  0
    5.6220    0.6820   24.5550 N   0  0  0  0  0  0  0  0  0  0  0  0
    7.8300    3.4540   24.5850 N   0  0  0  0  0  0  0  0  0  0  0  0
    8.3040    1.2580   23.8490 N   0  0  0  0  0  0  0  0  0  0  0  0
    5.9820    1.9660   23.9250 C   0  0  0  0  0  0  0  0  0  0  0  0
    7.4780    2.2170   24.1250 C   0  0  0  0  0  0  0  0  0  0  0  0
   10.3610    1.8740   22.7210 C   0  0  0  0  0  0  0  0  0  0  0  0
   10.5430    1.5540   24.1780 C   0  0  0  0  0  0  0  0  0  0  0  0
    5.7000    3.9740   21.4860 C   0  0  0  0  0  0  0  0  0  0  0  0
    6.1920    0.7290   17.7220 N   0  0  0  0  0  0  0  0  0  0  0  0
    5.1470    1.5810   17.6450 C   0  0  0  0  0  0  0  0  0  0  0  0
    4.3030    1.9310   18.6670 C   0  0  0  0  0  0  0  0  0  0  0  0
    4.5350    1.3420   20.0170 C   0  0  0  0  0  0  0  0  0  0  0  0
    5.6940    0.3920   20.1800 C   0  0  0  0  0  0  0  0  0  0  0  0
    6.4760    0.1490   18.9060 C   0  0  0  0  0  0  0  0  0  0  0  0
    8.8780   -1.1110   21.4610 C   0  0  0  0  0  0  0  0  0  0  0  0
   10.1140   -1.0730   22.3100 C   0  0  0  0  0  0  0  0  0  0  0  0
   10.4430   -1.3000   23.5090 C   0  0  0  0  0  0  0  0  0  0  0  0
    9.2850   -1.6720   23.9100 C   0  0  0  0  0  0  0  0  0  0  0  0
    8.0030   -1.7970   23.3820 C   0  0  0  0  0  0  0  0  0  0  0  0
    7.7710   -1.4720   22.0810 C   0  0  0  0  0  0  0  0  0  0  0  0
    9.3770    3.0050   22.5860 C   0  0  0  0  0  0  0  0  0  0  0  0
    9.7720    4.2860   22.9610 C   0  0  0  0  0  0  0  0  0  0  0  0
    8.9310    5.4200   22.8770 C   0  0  0  0  0  0  0  0  0  0  0  0
    7.6140    5.3040   22.3970 C   0  0  0  0  0  0  0  0  0  0  0  0
    7.1130    4.0660   21.9950 C   0  0  0  0  0  0  0  0  0  0  0  0
    8.0600    2.8830   22.1080 C   0  0  0  0  0  0  0  0  0  0  0  0
   13.0240   -2.3560   22.0840 C   0  0  0  0  0  0  0  0  0  0  0  0
   13.3770   -1.0540   21.7840 C   0  0  0  0  0  0  0  0  0  0  0  0
   13.4750   -2.6250   23.5300 C   0  0  0  0  0  0  0  0  0  0  0  0
   11.5390   -2.4200   21.8370 C   0  0  0  0  0  0  0  0  0  0  0  0
  1  4  1  0
  2  4  1  0
  3  4  2  0
  2  7  1  0
  7 10  1  1
  5 11  1  0
  6 11  2  0
 10 11  1  0
  7 12  1  0
  8 12  1  0
  9 12  2  0
  8 13  1  0
 13 14  1  6
 14 15  2  3
 16 19  1  0
 17 20  1  0
 18 20  2  3
 19 20  1  6
 21 22  1  0
 21 23  1  0
 21 24  1  0
 13 25  1  0
 16 26  1  0
 25 26  1  0
 18 29  1  0
 27 30  1  0
 28 31  1  0
 29 31  2  3
 30 31  1  0
 32 33  1  0
 35 36  2  0
 36 37  1  0
 37 38  2  0
 19 39  1  0
 38 39  1  0
 35 40  1  0
 39 40  2  0
 41 42  2  0
 21 43  1  0
 42 43  1  0
 42 44  1  0
 43 44  2  0
 44 45  1  0
 16 46  1  0
 41 46  1  0
 45 46  2  0
 32 47  1  0
 47 48  2  0
 48 49  1  0
 49 50  2  0
 34 51  1  0
 50 51  1  0
 17 52  1  0
 47 52  1  0
 51 52  2  0
 53 54  1  0
 23 55  1  0
 53 55  1  0
 53 56  1  0
M  END
