x0981-x0978-x2694-x2754-x2705
     RDKit          3D

 72 77  0  0  0  0  0  0  0  0999 V2000
    1.2250   -8.4720   21.6600 C   0  0  0  0  0  0  0  0  0  0  0  0
    2.8160   -7.0030   22.7420 N   0  0  0  0  0  0  0  0  0  0  0  0
    0.6350   -6.2210   22.0350 O   0  0  0  0  0  0  0  0  0  0  0  0
    1.4660   -7.2520   22.5440 C   0  0  0  0  0  0  0  0  0  0  0  0
    2.6670   -7.9980   26.2480 N   0  0  0  0  0  0  0  0  0  0  0  0
    4.1540   -8.1150   24.5370 O   0  0  0  0  0  0  0  0  0  0  0  0
    3.2670   -5.7870   23.4250 C   0  0  1  0  0  0  0  0  0  0  0  0
    4.7870   -5.0890   21.6420 N   0  0  0  0  0  0  0  0  0  0  0  0
    3.2700   -5.9660   24.9620 C   0  0  0  0  0  0  0  0  0  0  0  0
    3.4010   -7.4690   25.2320 C   0  0  0  0  0  0  0  0  0  0  0  0
    4.3790   -5.1770   22.8990 C   0  0  0  0  0  0  0  0  0  0  0  0
    6.6310   -4.9910   20.4840 C   0  0  0  0  0  0  0  0  0  0  0  0
    5.9420   -5.9930   19.9710 C   0  0  0  0  0  0  0  0  0  0  0  0
    0.7990   -7.5080   23.8910 C   0  0  0  0  0  0  0  0  0  0  0  0
    7.4720   -0.9070   21.9830 N   0  0  0  0  0  0  0  0  0  0  0  0
    7.5410    2.8050   22.2890 N   0  0  0  0  0  0  0  0  0  0  0  0
    9.0600    1.6620   21.0890 O   0  0  0  0  0  0  0  0  0  0  0  0
   11.5930    6.1260   23.9070 O   0  0  0  0  0  0  0  0  0  0  0  0
    7.0400    0.4140   21.6930 C   0  0  1  0  0  0  0  0  0  0  0  0
    7.9750    1.6460   21.6650 C   0  0  0  0  0  0  0  0  0  0  0  0
    9.9050    1.7750   23.2590 C   0  0  0  0  0  0  0  0  0  0  0  0
   11.6720    6.5320   25.2690 C   0  0  0  0  0  0  0  0  0  0  0  0
   12.5520   -1.5730   22.5740 C   0  0  0  0  0  0  0  0  0  0  0  0
   12.9150   -0.3120   23.2370 C   0  0  0  0  0  0  0  0  0  0  0  0
   12.9380   -1.7530   21.3010 C   0  0  0  0  0  0  0  0  0  0  0  0
   13.2150   -2.6400   23.4350 C   0  0  0  0  0  0  0  0  0  0  0  0
    5.3640   -1.2580   23.1230 N   0  0  0  0  0  0  0  0  0  0  0  0
    6.3360    2.1210   24.6330 N   0  0  0  0  0  0  0  0  0  0  0  0
    7.6150    0.2540   23.9740 O   0  0  0  0  0  0  0  0  0  0  0  0
    5.2630    0.2060   23.2990 C   0  0  0  0  0  0  0  0  0  0  0  0
    6.5210    0.8050   23.9690 C   0  0  0  0  0  0  0  0  0  0  0  0
   10.9890    2.3750   23.7180 C   0  0  0  0  0  0  0  0  0  0  0  0
    9.9170    1.8130   24.4110 C   0  0  0  0  0  0  0  0  0  0  0  0
   12.3150   -1.9640   24.8370 C   0  0  0  0  0  0  0  0  0  0  0  0
   12.5320   -0.5770   24.6880 C   0  0  0  0  0  0  0  0  0  0  0  0
   13.5410   -2.6590   25.4300 C   0  0  0  0  0  0  0  0  0  0  0  0
   12.0090   -2.6260   23.4730 C   0  0  0  0  0  0  0  0  0  0  0  0
    5.3840   -3.3540   25.5340 C   0  0  0  0  0  0  0  0  0  0  0  0
    4.2530   -2.8680   25.4170 O   0  0  0  0  0  0  0  0  0  0  0  0
    5.9690   -3.5350   26.7950 N   0  0  0  0  0  0  0  0  0  0  0  0
    5.6160   -2.5140   27.7940 C   0  0  0  0  0  0  0  0  0  0  0  0
    6.2170    0.0630   17.9170 N   0  0  0  0  0  0  0  0  0  0  0  0
    5.0920    0.8030   17.9160 C   0  0  0  0  0  0  0  0  0  0  0  0
    4.5300    1.4190   19.0290 C   0  0  0  0  0  0  0  0  0  0  0  0
    5.1460    1.2950   20.2610 C   0  0  0  0  0  0  0  0  0  0  0  0
    6.3270    0.5510   20.3720 C   0  0  0  0  0  0  0  0  0  0  0  0
    6.8420   -0.0810   19.0980 C   0  0  0  0  0  0  0  0  0  0  0  0
    9.1400   -1.5430   23.8380 N   0  0  0  0  0  0  0  0  0  0  0  0
   10.3940   -1.7040   23.9390 O   0  0  0  0  0  0  0  0  0  0  0  0
   11.0680   -1.4690   22.7560 C   0  0  0  0  0  0  0  0  0  0  0  0
   10.0250   -1.0800   21.7470 C   0  0  0  0  0  0  0  0  0  0  0  0
    8.8000   -1.1800   22.5860 C   0  0  0  0  0  0  0  0  0  0  0  0
    9.7720    3.2880   23.1990 C   0  0  0  0  0  0  0  0  0  0  0  0
   10.9460    3.8930   23.6780 C   0  0  0  0  0  0  0  0  0  0  0  0
   10.5820    5.2900   23.5080 C   0  0  0  0  0  0  0  0  0  0  0  0
    9.4070    5.8710   23.0150 C   0  0  0  0  0  0  0  0  0  0  0  0
    8.3760    5.1060   22.6030 C   0  0  0  0  0  0  0  0  0  0  0  0
    8.5730    3.7680   22.7020 C   0  0  0  0  0  0  0  0  0  0  0  0
    5.8180   -2.7900   21.4750 N   0  0  0  0  0  0  0  0  0  0  0  0
    6.4630   -1.8980   22.4580 C   0  0  1  0  0  0  0  0  0  0  0  0
    7.1110   -2.7160   23.6450 C   0  0  0  0  0  0  0  0  0  0  0  0
    6.2280   -3.8150   24.3260 C   0  0  2  0  0  0  0  0  0  0  0  0
    5.4520   -4.4630   23.2110 C   0  0  0  0  0  0  0  0  0  0  0  0
    5.9450   -4.2150   21.7180 C   0  0  1  0  0  0  0  0  0  0  0  0
    7.8150   -4.8570   27.7410 C   0  0  0  0  0  0  0  0  0  0  0  0
    9.1460   -5.2250   27.7110 C   0  0  0  0  0  0  0  0  0  0  0  0
   10.0330   -4.7070   26.7710 C   0  0  0  0  0  0  0  0  0  0  0  0
    9.7040   -3.8220   25.8220 C   0  0  0  0  0  0  0  0  0  0  0  0
    8.2560   -3.3500   25.7720 C   0  0  0  0  0  0  0  0  0  0  0  0
    7.3350   -3.9420   26.8110 C   0  0  0  0  0  0  0  0  0  0  0  0
    6.0410    4.6800   21.8490 C   0  0  0  0  0  0  0  0  0  0  0  0
    6.2460    3.3210   21.8040 C   0  0  0  0  0  0  0  0  0  0  0  0
  1  4  1  0
  2  4  1  0
  4  3  1  0
  2  7  1  0
  7  9  1  1
  5 10  1  0
  6 10  2  0
  9 10  1  0
  7 11  1  0
  8 11  1  0
 12 13  2  3
  4 14  1  0
 15 19  1  0
 16 20  1  0
 17 20  2  0
 19 20  1  6
 18 22  1  0
 23 24  1  0
 23 25  1  0
 23 26  1  0
 27 30  1  0
 28 31  1  0
 29 31  2  0
 30 31  1  0
 32 33  1  0
 24 35  1  0
 34 35  1  0
 34 36  1  0
 34 37  1  0
 38 39  2  0
 38 40  1  0
 40 41  1  0
 42 43  2  0
 43 44  1  0
 44 45  2  0
 19 46  1  0
 45 46  1  0
 42 47  1  0
 46 47  2  0
 48 49  1  0
 23 50  1  0
 49 50  1  0
 50 51  2  0
 15 52  1  0
 48 52  2  0
 51 52  1  0
 21 53  1  0
 32 54  1  0
 53 54  2  0
 18 55  1  0
 54 55  1  0
 55 56  2  0
 56 57  1  0
 16 58  1  0
 53 58  1  0
 57 58  2  0
 60 15  1  0
 60 27  1  1
 59 60  1  0
 60 61  1  0
 62 38  1  1
 61 62  1  0
 11 63  2  0
 62 63  1  0
  8 64  1  0
 64 12  1  1
 59 64  1  0
 63 64  1  0
 65 66  2  0
 66 67  1  0
 67 68  2  0
 68 69  1  0
 40 70  1  0
 65 70  1  0
 69 70  2  0
 16 72  1  0
 71 72  1  0
M  END
