x0981-x0689-x2776
     RDKit          3D

 57 61  0  0  0  0  0  0  0  0999 V2000
    1.2670   -8.5900   21.5970 C   0  0  0  0  0  0  0  0  0  0  0  0
    2.9870   -7.0080   22.8070 N   0  0  0  0  0  0  0  0  0  0  0  0
    0.5030   -6.3680   22.3430 O   0  0  0  0  0  0  0  0  0  0  0  0
    1.6260   -7.2530   22.3060 C   0  0  0  0  0  0  0  0  0  0  0  0
    2.4760   -8.0910   26.5400 N   0  0  0  0  0  0  0  0  0  0  0  0
    3.4320   -8.4830   24.4710 O   0  0  0  0  0  0  0  0  0  0  0  0
    3.3640   -5.8110   23.6210 C   0  0  1  0  0  0  0  0  0  0  0  0
    4.8170   -4.1460   24.4860 C   0  0  0  0  0  0  0  0  0  0  0  0
    3.0770   -6.2160   25.0690 C   0  0  2  0  0  0  0  0  0  0  0  0
    3.0150   -7.7310   25.3200 C   0  0  0  0  0  0  0  0  0  0  0  0
    6.6090   -4.9610   20.3430 C   0  0  0  0  0  0  0  0  0  0  0  0
    5.7740   -6.1260   19.8890 C   0  0  0  0  0  0  0  0  0  0  0  0
    5.3840   -4.3210   25.5830 O   0  0  0  0  0  0  0  0  0  0  0  0
    7.2760   -1.1350   21.7840 N   0  0  0  0  0  0  0  0  0  0  0  0
    7.8290    2.0280   22.9870 N   0  0  0  0  0  0  0  0  0  0  0  0
    8.9450    1.4200   21.0040 O   0  0  0  0  0  0  0  0  0  0  0  0
   10.8560    6.7220   23.8040 O   0  0  0  0  0  0  0  0  0  0  0  0
    6.7620    0.1950   21.5980 C   0  0  1  0  0  0  0  0  0  0  0  0
   12.9750   -2.6950   24.2680 O   0  0  0  0  0  0  0  0  0  0  0  0
    7.8740    1.2440   21.9010 C   0  0  0  0  0  0  0  0  0  0  0  0
   10.6420    1.7800   23.8590 C   0  0  0  0  0  0  0  0  0  0  0  0
   11.8750    6.6330   24.7940 C   0  0  0  0  0  0  0  0  0  0  0  0
   12.2670   -1.4650   24.4080 C   0  0  1  0  0  0  0  0  0  0  0  0
   12.9830   -0.5510   23.6850 C   0  0  0  0  0  0  0  0  0  0  0  0
   13.2730   -3.1540   25.3710 C   0  0  0  0  0  0  0  0  0  0  0  0
    7.1040   -3.2930   22.2630 C   0  0  0  0  0  0  0  0  0  0  0  0
    6.3900   -2.3060   21.7340 C   0  0  0  0  0  0  0  0  0  0  0  0
    6.5230   -4.6620   21.8670 C   0  0  1  0  0  0  0  0  0  0  0  0
    4.9860   -4.7170   22.1220 C   0  0  0  0  0  0  0  0  0  0  0  0
    4.7360   -5.1800   23.4070 C   0  0  2  0  0  0  0  0  0  0  0  0
    5.5960   -6.0480   23.9290 N   0  0  0  0  0  0  0  0  0  0  0  0
    6.8460   -5.5700   23.8490 C   0  0  0  0  0  0  0  0  0  0  0  0
    7.3580   -5.4960   22.5960 C   0  0  0  0  0  0  0  0  0  0  0  0
    6.3570    0.4620   17.7340 N   0  0  0  0  0  0  0  0  0  0  0  0
    5.2040    1.3430   17.7620 C   0  0  0  0  0  0  0  0  0  0  0  0
    4.5930    1.8010   18.9220 C   0  0  0  0  0  0  0  0  0  0  0  0
    5.1380    1.3900   20.1470 C   0  0  0  0  0  0  0  0  0  0  0  0
    6.2490    0.5520   20.2230 C   0  0  0  0  0  0  0  0  0  0  0  0
    6.8400    0.0940   19.0520 C   0  0  0  0  0  0  0  0  0  0  0  0
    9.9030    3.1300   23.5900 C   0  0  0  0  0  0  0  0  0  0  0  0
   10.6690    4.2840   23.7940 C   0  0  0  0  0  0  0  0  0  0  0  0
   10.0840    5.5270   23.5830 C   0  0  0  0  0  0  0  0  0  0  0  0
    8.7590    5.6110   23.1630 C   0  0  0  0  0  0  0  0  0  0  0  0
    7.9830    4.4850   22.9510 C   0  0  0  0  0  0  0  0  0  0  0  0
    8.5590    3.2300   23.1710 C   0  0  0  0  0  0  0  0  0  0  0  0
    9.5880   -1.8850   21.8200 C   0  0  0  0  0  0  0  0  0  0  0  0
   10.8190   -1.9720   22.4570 C   0  0  0  0  0  0  0  0  0  0  0  0
   10.9540   -1.4420   23.7160 C   0  0  0  0  0  0  0  0  0  0  0  0
    9.8560   -0.8590   24.3290 C   0  0  0  0  0  0  0  0  0  0  0  0
    8.6230   -0.7580   23.7180 C   0  0  0  0  0  0  0  0  0  0  0  0
    8.5010   -1.2730   22.4280 C   0  0  0  0  0  0  0  0  0  0  0  0
    3.6580   -1.9910   26.3780 S   0  0  0  0  0  0  0  0  0  0  0  0
    3.4250   -3.6720   26.2210 C   0  0  0  0  0  0  0  0  0  0  0  0
    2.0690   -3.9720   25.6950 C   0  0  0  0  0  0  0  0  0  0  0  0
    1.3250   -2.8310   25.4680 C   0  0  0  0  0  0  0  0  0  0  0  0
    2.0530   -1.6550   25.7960 C   0  0  0  0  0  0  0  0  0  0  0  0
    1.7950   -5.4880   25.5200 C   0  0  0  0  0  0  0  0  0  0  0  0
  1  4  1  0
  2  4  1  0
  3  4  2  0
  7  2  1  6
  7  9  1  0
  5 10  1  0
  6 10  2  0
  9 10  1  0
 11 12  2  3
  8 13  2  0
 14 18  1  0
 15 20  1  0
 16 20  2  0
 18 20  1  6
 17 22  1  0
 19 23  1  0
 23 24  1  6
 19 25  1  0
 14 27  1  0
 26 27  1  0
 28 11  1  6
 26 28  1  0
 28 29  1  0
  7 30  1  0
 30  8  1  1
 29 30  1  0
 30 31  1  0
 31 32  1  0
 28 33  1  0
 32 33  1  0
 34 35  2  0
 35 36  1  0
 36 37  2  0
 18 38  1  0
 37 38  1  0
 34 39  1  0
 38 39  2  0
 21 40  1  0
 40 41  2  0
 17 42  1  0
 41 42  1  0
 42 43  2  0
 43 44  1  0
 15 45  1  0
 40 45  1  0
 44 45  2  0
 46 47  2  0
 23 48  1  0
 47 48  1  0
 48 49  2  0
 49 50  1  0
 14 51  1  0
 46 51  1  0
 50 51  2  0
 52 53  1  0
 53 54  2  0
 54 55  1  0
 52 56  1  0
 55 56  2  0
  9 57  1  6
 54 57  1  0
M  END
