x0981-x0831
     RDKit          3D

 30 31  0  0  0  0  0  0  0  0999 V2000
    1.2340   -8.6930   21.4340 C   0  0  0  0  0  0  0  0  0  0  0  0
    2.8580   -7.0810   22.7190 N   0  0  0  0  0  0  0  0  0  0  0  0
    0.3410   -6.5480   22.2600 O   0  0  0  0  0  0  0  0  0  0  0  0
    1.5000   -7.3800   22.1900 C   0  0  0  0  0  0  0  0  0  0  0  0
    2.4830   -8.2450   26.4360 N   0  0  0  0  0  0  0  0  0  0  0  0
    3.9930   -8.2240   24.6050 O   0  0  0  0  0  0  0  0  0  0  0  0
    3.0980   -5.8750   23.5380 C   0  0  1  0  0  0  0  0  0  0  0  0
    5.4010   -5.6800   22.4530 N   0  0  0  0  0  0  0  0  0  0  0  0
    4.9420   -4.5290   24.3090 O   0  0  0  0  0  0  0  0  0  0  0  0
    2.7730   -6.2090   24.8510 C   0  0  0  0  0  0  0  0  0  0  0  0
    3.1600   -7.6320   25.2480 C   0  0  0  0  0  0  0  0  0  0  0  0
    4.5600   -5.3200   23.4510 C   0  0  0  0  0  0  0  0  0  0  0  0
    5.8920   -4.5070   21.6020 C   0  0  2  0  0  0  0  0  0  0  0  0
    6.3810   -5.0180   20.2530 C   0  0  0  0  0  0  0  0  0  0  0  0
    5.8190   -6.1390   19.8630 C   0  0  0  0  0  0  0  0  0  0  0  0
   12.5280   -2.2030   22.3010 C   0  0  0  0  0  0  0  0  0  0  0  0
    9.8750   -2.2670   23.5740 C   0  0  0  0  0  0  0  0  0  0  0  0
   12.0220   -0.9500   22.9300 C   0  0  0  0  0  0  0  0  0  0  0  0
   10.7470   -0.9810   23.5480 C   0  0  0  0  0  0  0  0  0  0  0  0
   10.2380    0.1810   24.1420 C   0  0  0  0  0  0  0  0  0  0  0  0
   10.9590    1.3650   24.1240 C   0  0  0  0  0  0  0  0  0  0  0  0
   12.2040    1.4380   23.5310 C   0  0  0  0  0  0  0  0  0  0  0  0
   12.8030    0.2150   22.8890 C   0  0  0  0  0  0  0  0  0  0  0  0
    6.3580   -2.2560   21.3710 N   0  0  0  0  0  0  0  0  0  0  0  0
    6.4400   -0.9270   21.9540 C   0  0  0  0  0  0  0  0  0  0  0  0
    7.6600   -0.4070   21.5720 C   0  0  0  0  0  0  0  0  0  0  0  0
    8.6330   -1.4010   21.5520 C   0  0  0  0  0  0  0  0  0  0  0  0
    8.6310   -2.1550   22.8350 N   0  0  0  0  0  0  0  0  0  0  0  0
    7.9030   -3.3040   22.8470 C   0  0  0  0  0  0  0  0  0  0  0  0
    6.5640   -3.3470   22.3240 C   0  0  2  0  0  0  0  0  0  0  0  0
  1  4  1  0
  2  4  1  0
  3  4  2  0
  2  7  1  0
  7 10  1  1
  5 11  1  0
  6 11  2  0
 10 11  1  0
  7 12  1  0
  8 12  1  0
  9 12  2  0
  8 13  1  0
 13 14  1  6
 14 15  2  3
 16 18  1  0
 17 19  1  0
 18 19  2  0
 19 20  1  0
 20 21  2  0
 21 22  1  0
 18 23  1  0
 22 23  2  0
 24 25  1  0
 25 26  1  0
 26 27  1  0
 17 28  1  0
 27 28  1  0
 28 29  1  0
 13 30  1  0
 24 30  1  0
 30 29  1  6
M  END
