x0981-x1493-x2705-x0769
     RDKit          3D

 59 64  0  0  0  0  0  0  0  0999 V2000
    1.3820   -8.7320   21.4740 C   0  0  0  0  0  0  0  0  0  0  0  0
    2.9650   -7.4970   22.9980 N   0  0  0  0  0  0  0  0  0  0  0  0
    0.8150   -6.7280   22.3560 O   0  0  0  0  0  0  0  0  0  0  0  0
    1.7270   -7.5770   22.3360 C   0  0  0  0  0  0  0  0  0  0  0  0
    1.7080   -6.5550   25.9920 N   0  0  0  0  0  0  0  0  0  0  0  0
    1.2710   -4.6350   24.5130 O   0  0  0  0  0  0  0  0  0  0  0  0
    3.4320   -6.1320   23.2550 C   0  0  1  0  0  0  0  0  0  0  0  0
    4.6400   -4.1170   23.2510 O   0  0  0  0  0  0  0  0  0  0  0  0
    3.4230   -5.6200   24.6190 C   0  0  0  0  0  0  0  0  0  0  0  0
    2.0690   -5.5460   25.0650 C   0  0  0  0  0  0  0  0  0  0  0  0
    6.8250   -5.2560   20.2320 C   0  0  0  0  0  0  0  0  0  0  0  0
    6.0010   -6.0350   19.8470 C   0  0  0  0  0  0  0  0  0  0  0  0
    5.7370   -4.5850   26.9160 C   0  0  0  0  0  0  0  0  0  0  0  0
    4.8550   -2.6880   25.6390 F   0  0  0  0  0  0  0  0  0  0  0  0
    4.9260   -5.2140   25.5170 S   0  0  1  0  0  0  0  0  0  0  0  0
    6.4240   -4.2070   27.7770 O   0  0  0  0  0  0  0  0  0  0  0  0
    7.5480   -1.1460   22.0460 N   0  0  0  0  0  0  0  0  0  0  0  0
    7.6580    2.2580   22.7950 N   0  0  0  0  0  0  0  0  0  0  0  0
    8.9600    1.4720   21.0820 O   0  0  0  0  0  0  0  0  0  0  0  0
    6.9930    0.2100   21.6790 C   0  0  1  0  0  0  0  0  0  0  0  0
    7.9810    1.3540   21.8110 C   0  0  0  0  0  0  0  0  0  0  0  0
   10.2060    2.2440   23.9550 C   0  0  0  0  0  0  0  0  0  0  0  0
    9.3150    1.3710   24.8670 C   0  0  0  0  0  0  0  0  0  0  0  0
    6.2620    4.7520   21.8920 C   0  0  0  0  0  0  0  0  0  0  0  0
   12.3720   -1.4470   23.2590 C   0  0  0  0  0  0  0  0  0  0  0  0
   12.8340   -0.1240   23.7080 C   0  0  0  0  0  0  0  0  0  0  0  0
   12.8870   -2.4840   24.2790 C   0  0  0  0  0  0  0  0  0  0  0  0
   12.8480   -1.9290   21.8170 C   0  0  0  0  0  0  0  0  0  0  0  0
    6.1900   -3.2090   21.6660 C   0  0  0  0  0  0  0  0  0  0  0  0
    7.2330   -2.2180   21.3280 C   0  0  0  0  0  0  0  0  0  0  0  0
    3.6970   -3.1720   26.1270 C   0  0  0  0  0  0  0  0  0  0  0  0
    3.4980   -4.5710   26.1970 C   0  0  0  0  0  0  0  0  0  0  0  0
    2.3130   -5.0350   26.7160 C   0  0  0  0  0  0  0  0  0  0  0  0
    1.3830   -4.0870   27.1150 C   0  0  0  0  0  0  0  0  0  0  0  0
    1.5800   -2.6910   27.0310 C   0  0  0  0  0  0  0  0  0  0  0  0
    2.7510   -2.2330   26.5370 C   0  0  0  0  0  0  0  0  0  0  0  0
    6.5230   -4.7750   21.6560 C   0  0  1  0  0  0  0  0  0  0  0  0
    5.4740   -5.5970   21.8820 C   0  0  0  0  0  0  0  0  0  0  0  0
    4.8730   -5.5030   23.0500 C   0  0  2  0  0  0  0  0  0  0  0  0
    5.7300   -5.7910   24.1620 N   0  0  0  0  0  0  0  0  0  0  0  0
    7.0810   -5.2540   23.9960 C   0  0  0  0  0  0  0  0  0  0  0  0
    7.5630   -5.1720   22.7110 C   0  0  0  0  0  0  0  0  0  0  0  0
    6.3300    0.1020   17.9380 N   0  0  0  0  0  0  0  0  0  0  0  0
    5.1880    0.8090   17.8920 C   0  0  0  0  0  0  0  0  0  0  0  0
    4.5570    1.3370   19.0040 C   0  0  0  0  0  0  0  0  0  0  0  0
    5.1360    1.1330   20.2300 C   0  0  0  0  0  0  0  0  0  0  0  0
    6.3210    0.4160   20.3350 C   0  0  0  0  0  0  0  0  0  0  0  0
    6.8840   -0.0900   19.1580 C   0  0  0  0  0  0  0  0  0  0  0  0
   10.0060   -1.3440   24.4690 N   0  0  0  0  0  0  0  0  0  0  0  0
    8.7060   -1.2630   24.1280 N   0  0  0  0  0  0  0  0  0  0  0  0
    8.6770   -1.2310   22.7930 C   0  0  0  0  0  0  0  0  0  0  0  0
    9.9790   -1.3010   22.3270 C   0  0  0  0  0  0  0  0  0  0  0  0
   10.8190   -1.3690   23.3860 C   0  0  0  0  0  0  0  0  0  0  0  0
    9.5110    3.5280   23.5170 C   0  0  0  0  0  0  0  0  0  0  0  0
   10.1530    4.6940   23.6950 C   0  0  0  0  0  0  0  0  0  0  0  0
    9.5610    5.9090   23.3010 C   0  0  0  0  0  0  0  0  0  0  0  0
    8.2930    5.9170   22.7150 C   0  0  0  0  0  0  0  0  0  0  0  0
    7.6260    4.6990   22.5310 C   0  0  0  0  0  0  0  0  0  0  0  0
    8.2430    3.5190   22.9380 C   0  0  0  0  0  0  0  0  0  0  0  0
  1  4  1  0
  2  4  1  0
  3  4  2  0
  7  2  1  1
  7  9  1  0
  5 10  1  0
  6 10  2  0
  9 10  1  0
 11 12  2  3
  9 15  2  0
 13 15  2  0
 13 16  2  0
 17 20  1  0
 18 21  1  0
 19 21  2  0
 20 21  1  6
 22 23  1  0
 25 26  1  0
 25 27  1  0
 25 28  1  0
 17 30  1  0
 29 30  1  0
 14 31  1  0
 15 32  1  6
 31 32  2  0
 32 33  1  0
 33 34  2  0
 34 35  1  0
 31 36  1  0
 35 36  2  0
 37 11  1  6
 29 37  1  0
 37 38  1  0
  7 39  1  0
 39  8  1  1
 38 39  1  0
 15 40  1  0
 39 40  1  0
 40 41  1  0
 37 42  1  0
 41 42  1  0
 43 44  2  0
 44 45  1  0
 45 46  2  0
 20 47  1  0
 46 47  1  0
 43 48  1  0
 47 48  2  0
 49 50  1  0
 17 51  1  0
 50 51  2  0
 51 52  1  0
 25 53  1  0
 49 53  1  0
 52 53  2  0
 22 54  1  0
 54 55  2  0
 55 56  1  0
 56 57  2  0
 24 58  1  0
 57 58  1  0
 18 59  1  0
 54 59  1  0
 58 59  2  0
M  END
