x0981-x3124-x3113-x0734
     RDKit          3D

 65 69  0  0  0  0  0  0  0  0999 V2000
    1.1930   -8.7620   21.2380 C   0  0  0  0  0  0  0  0  0  0  0  0
    2.7050   -7.4240   22.9640 N   0  0  0  0  0  0  0  0  0  0  0  0
    0.5130   -6.5860   22.3160 O   0  0  0  0  0  0  0  0  0  0  0  0
    1.4940   -7.6060   22.1810 C   0  0  0  0  0  0  0  0  0  0  0  0
    2.6290   -8.0860   26.5440 N   0  0  0  0  0  0  0  0  0  0  0  0
    3.8730   -8.2580   24.6760 O   0  0  0  0  0  0  0  0  0  0  0  0
    3.0610   -6.0780   23.4780 C   0  0  1  0  0  0  0  0  0  0  0  0
    4.6960   -4.9870   21.9020 N   0  0  0  0  0  0  0  0  0  0  0  0
    5.5400   -5.5760   23.8510 N   0  0  0  0  0  0  0  0  0  0  0  0
    2.8520   -6.1670   25.0080 C   0  0  0  0  0  0  0  0  0  0  0  0
    3.1690   -7.5880   25.3900 C   0  0  0  0  0  0  0  0  0  0  0  0
    4.5000   -5.5470   23.1030 C   0  0  0  0  0  0  0  0  0  0  0  0
    6.6500   -5.1450   20.4570 C   0  0  0  0  0  0  0  0  0  0  0  0
    5.8770   -6.0630   19.9390 C   0  0  0  0  0  0  0  0  0  0  0  0
    7.4650   -1.2870   22.3120 N   0  0  0  0  0  0  0  0  0  0  0  0
    8.8930    1.6700   22.9810 N   0  0  0  0  0  0  0  0  0  0  0  0
    8.6180    1.7180   20.7060 O   0  0  0  0  0  0  0  0  0  0  0  0
   11.9590    4.7510   23.0300 O   0  0  0  0  0  0  0  0  0  0  0  0
    7.2060    0.1540   21.8320 C   0  0  1  0  0  0  0  0  0  0  0  0
    8.3180    1.2230   21.8150 C   0  0  0  0  0  0  0  0  0  0  0  0
    9.6300    2.9160   22.9750 C   0  0  0  0  0  0  0  0  0  0  0  0
   11.1560    2.6540   23.0590 C   0  0  0  0  0  0  0  0  0  0  0  0
   12.0800    3.6600   22.4490 C   0  0  0  0  0  0  0  0  0  0  0  0
   13.1340    5.5160   22.7920 C   0  0  0  0  0  0  0  0  0  0  0  0
   12.7520   -2.6620   24.2520 C   0  0  0  0  0  0  0  0  0  0  0  0
   13.6410   -2.8140   23.0880 C   0  0  0  0  0  0  0  0  0  0  0  0
   13.0550   -3.4880   25.5180 C   0  0  0  0  0  0  0  0  0  0  0  0
   13.2390   -1.3870   24.7670 C   0  0  0  0  0  0  0  0  0  0  0  0
    6.9140   -1.2710   24.5240 N   0  0  0  0  0  0  0  0  0  0  0  0
    7.1400    1.7830   24.6780 N   0  0  0  0  0  0  0  0  0  0  0  0
    5.8150    1.4030   22.9570 O   0  0  0  0  0  0  0  0  0  0  0  0
    5.8700   -0.2320   24.6190 C   0  0  0  0  0  0  0  0  0  0  0  0
    6.2530    0.9770   24.0290 C   0  0  0  0  0  0  0  0  0  0  0  0
    7.3500    3.1760   24.3620 C   0  0  0  0  0  0  0  0  0  0  0  0
   11.9200    0.4430   24.2480 C   0  0  0  0  0  0  0  0  0  0  0  0
   12.2390   -0.4500   25.2270 C   0  0  0  0  0  0  0  0  0  0  0  0
   12.5240    0.0540   22.9080 C   0  0  0  0  0  0  0  0  0  0  0  0
   10.4080    0.3530   24.1980 C   0  0  0  0  0  0  0  0  0  0  0  0
    5.5110   -4.5570   26.1960 N   0  0  0  0  0  0  0  0  0  0  0  0
    4.8600   -5.6060   26.2290 O   0  0  0  0  0  0  0  0  0  0  0  0
    5.1270   -3.5210   26.7650 O   0  0  0  0  0  0  0  0  0  0  0  0
    6.2450   -0.1190   18.1450 N   0  0  0  0  0  0  0  0  0  0  0  0
    5.0720    0.5510   18.1400 C   0  0  0  0  0  0  0  0  0  0  0  0
    4.5030    1.1150   19.2650 C   0  0  0  0  0  0  0  0  0  0  0  0
    5.1980    0.9740   20.4520 C   0  0  0  0  0  0  0  0  0  0  0  0
    6.4130    0.3000   20.5280 C   0  0  0  0  0  0  0  0  0  0  0  0
    6.8950   -0.2370   19.3340 C   0  0  0  0  0  0  0  0  0  0  0  0
    9.8430   -1.6490   22.0240 C   0  0  0  0  0  0  0  0  0  0  0  0
   11.1180   -1.9830   22.4720 C   0  0  0  0  0  0  0  0  0  0  0  0
   11.3420   -2.3480   23.8110 C   0  0  0  0  0  0  0  0  0  0  0  0
   10.2570   -2.3820   24.6700 C   0  0  0  0  0  0  0  0  0  0  0  0
    8.9750   -2.0460   24.2100 C   0  0  0  0  0  0  0  0  0  0  0  0
    8.7370   -1.6620   22.8680 C   0  0  0  0  0  0  0  0  0  0  0  0
    6.9470   -4.7480   26.1330 C   0  0  0  0  0  0  0  0  0  0  0  0
    7.7390   -4.3680   24.9880 C   0  0  0  0  0  0  0  0  0  0  0  0
    9.1390   -4.5380   24.9130 C   0  0  0  0  0  0  0  0  0  0  0  0
    9.8010   -5.1840   26.1420 C   0  0  0  0  0  0  0  0  0  0  0  0
    8.9610   -5.6120   27.3830 C   0  0  0  0  0  0  0  0  0  0  0  0
    7.4570   -5.3440   27.3050 C   0  0  0  0  0  0  0  0  0  0  0  0
    5.9580   -3.0600   21.3950 N   0  0  0  0  0  0  0  0  0  0  0  0
    6.0490   -4.4790   21.7510 C   0  0  1  0  0  0  0  0  0  0  0  0
    6.6100   -4.8940   23.0010 C   0  0  1  0  0  0  0  0  0  0  0  0
    7.1900   -3.8010   23.7940 N   0  0  0  0  0  0  0  0  0  0  0  0
    6.5000   -2.4500   23.7240 C   0  0  2  0  0  0  0  0  0  0  0  0
    6.2360   -2.0590   22.4080 C   0  0  1  0  0  0  0  0  0  0  0  0
  1  4  1  0
  2  4  1  0
  3  4  2  0
  2  7  1  0
  7 10  1  1
  5 11  1  0
  6 11  2  0
 10 11  1  0
  7 12  1  0
  8 12  1  0
  9 12  2  0
 13 14  2  3
 15 19  1  0
 16 20  1  0
 17 20  2  0
 19 20  1  6
 16 21  1  0
 21 22  1  0
 18 23  1  0
 22 23  1  0
 18 24  1  0
 25 26  1  0
 25 27  1  0
 25 28  1  0
 29 32  1  0
 30 33  1  0
 31 33  2  0
 32 33  1  0
 30 34  1  0
 28 36  1  0
 35 36  1  0
 35 37  1  0
 35 38  1  0
 39 40  2  0
 39 41  1  0
 42 43  2  0
 43 44  1  0
 44 45  2  0
 19 46  1  0
 45 46  1  0
 42 47  1  0
 46 47  2  0
 48 49  2  0
 25 50  1  0
 49 50  1  0
 50 51  2  0
 51 52  1  0
 15 53  1  0
 48 53  1  0
 52 53  2  0
 39 54  1  0
 54 55  2  0
 55 56  1  0
 56 57  2  0
 57 58  1  0
 54 59  1  0
 58 59  2  0
  8 61  1  0
 61 13  1  6
 60 61  1  0
 62  9  1  1
 61 62  1  0
 55 63  1  0
 62 63  1  0
 64 29  1  6
 63 64  1  0
 65 15  1  6
 60 65  1  0
 64 65  1  0
M  CHG  2  39   1  41  -1
M  END
