x0981-x2912
     RDKit          3D

 38 39  0  0  0  0  0  0  0  0999 V2000
    1.1770   -8.7490   21.3340 C   0  0  0  0  0  0  0  0  0  0  0  0
    2.6700   -7.1890   22.7830 N   0  0  0  0  0  0  0  0  0  0  0  0
    0.2260   -6.5930   22.0960 O   0  0  0  0  0  0  0  0  0  0  0  0
    1.3720   -7.4480   22.1240 C   0  0  0  0  0  0  0  0  0  0  0  0
    2.4770   -8.2840   26.4620 N   0  0  0  0  0  0  0  0  0  0  0  0
    3.9810   -8.2320   24.6300 O   0  0  0  0  0  0  0  0  0  0  0  0
    2.9000   -5.9510   23.5490 C   0  0  1  0  0  0  0  0  0  0  0  0
    5.0610   -5.9360   22.2740 N   0  0  0  0  0  0  0  0  0  0  0  0
    4.8330   -4.3180   24.0700 N   0  0  0  0  0  0  0  0  0  0  0  0
    2.7170   -6.2460   24.8930 C   0  0  0  0  0  0  0  0  0  0  0  0
    3.1390   -7.6610   25.2780 C   0  0  0  0  0  0  0  0  0  0  0  0
    4.3220   -5.4080   23.2580 C   0  0  0  0  0  0  0  0  0  0  0  0
    6.2280   -5.0550   21.8360 C   0  0  0  0  0  0  0  0  0  0  0  0
    6.3860   -5.1730   20.3420 C   0  0  0  0  0  0  0  0  0  0  0  0
    5.7390   -6.2040   19.8280 C   0  0  0  0  0  0  0  0  0  0  0  0
    7.0710   -0.8090   21.0640 N   0  0  0  0  0  0  0  0  0  0  0  0
    8.1870   -0.9830   24.0660 C   0  0  0  0  0  0  0  0  0  0  0  0
    8.7630    0.5210   21.4740 O   0  0  0  0  0  0  0  0  0  0  0  0
    8.7360   -1.4210   22.7230 C   0  0  1  0  0  0  0  0  0  0  0  0
    8.2050   -0.5470   21.7460 C   0  0  0  0  0  0  0  0  0  0  0  0
   14.3190   -1.2980   20.0580 N   0  0  0  0  0  0  0  0  0  0  0  0
    4.9450    1.1610   21.7760 C   0  0  0  0  0  0  0  0  0  0  0  0
   13.3830   -1.5780   21.0450 C   0  0  0  0  0  0  0  0  0  0  0  0
    6.1470   -3.7030   23.9060 C   0  0  0  0  0  0  0  0  0  0  0  0
    6.3260   -2.6500   24.8040 C   0  0  0  0  0  0  0  0  0  0  0  0
    6.7360   -1.3330   24.1420 C   0  0  0  0  0  0  0  0  0  0  0  0
    6.2830    0.4440   17.7140 N   0  0  0  0  0  0  0  0  0  0  0  0
    5.2360    1.4060   18.0030 C   0  0  0  0  0  0  0  0  0  0  0  0
    4.8840    1.5580   19.3190 C   0  0  0  0  0  0  0  0  0  0  0  0
    5.4450    0.8670   20.3930 C   0  0  0  0  0  0  0  0  0  0  0  0
    6.4660   -0.0800   20.1140 C   0  0  0  0  0  0  0  0  0  0  0  0
    6.8250   -0.2300   18.7580 C   0  0  0  0  0  0  0  0  0  0  0  0
   10.6700   -0.1270   23.6410 C   0  0  0  0  0  0  0  0  0  0  0  0
   11.9990    0.2320   23.6370 C   0  0  0  0  0  0  0  0  0  0  0  0
   12.7340   -0.3570   22.7490 C   0  0  0  0  0  0  0  0  0  0  0  0
   12.2990   -1.2670   21.8670 C   0  0  0  0  0  0  0  0  0  0  0  0
   11.0000   -1.6540   21.8650 C   0  0  0  0  0  0  0  0  0  0  0  0
   10.1690   -1.0650   22.7540 C   0  0  0  0  0  0  0  0  0  0  0  0
  1  4  1  0
  2  4  1  0
  3  4  2  0
  2  7  1  0
  7 10  1  1
  5 11  1  0
  6 11  2  0
 10 11  1  0
  7 12  1  0
  8 12  1  0
  9 12  2  3
  8 13  1  0
 13 14  1  0
 14 15  2  3
 19 17  1  1
 16 20  1  0
 18 20  2  0
 19 20  1  0
 21 23  3  0
  9 24  1  0
 24 25  1  0
 17 26  1  0
 25 26  1  0
 27 28  2  0
 28 29  1  0
 22 30  1  0
 29 30  2  0
 16 31  1  0
 30 31  1  0
 27 32  1  0
 31 32  2  0
 33 34  2  0
 34 35  1  0
 23 36  1  0
 35 36  2  0
 36 37  1  0
 19 38  1  0
 33 38  1  0
 37 38  2  0
M  END
