x0981-x3110-x3113-x1380-x1351
     RDKit          3D

 64 72  0  0  0  0  0  0  0  0999 V2000
    7.9310    1.5790   23.2850 N   0  0  0  0  0  0  0  0  0  0  0  0
   13.3820    5.2330   22.9520 C   0  0  0  0  0  0  0  0  0  0  0  0
   12.1300    3.3140   22.4320 O   0  0  0  0  0  0  0  0  0  0  0  0
   12.5370    4.5650   21.9190 C   0  0  0  0  0  0  0  0  0  0  0  0
    7.6520   -1.5560   21.6950 N   0  0  0  0  0  0  0  0  0  0  0  0
   11.1420    4.2460   24.2110 O   0  0  0  0  0  0  0  0  0  0  0  0
   11.2150    3.2580   23.4290 C   0  0  0  0  0  0  0  0  0  0  0  0
    8.5080    1.5240   21.1090 O   0  0  0  0  0  0  0  0  0  0  0  0
   10.3180    2.0840   23.5930 C   0  0  0  0  0  0  0  0  0  0  0  0
    8.9150    2.6340   23.5180 C   0  0  0  0  0  0  0  0  0  0  0  0
    7.7970    0.9140   22.0860 C   0  0  0  0  0  0  0  0  0  0  0  0
    7.0940   -0.2300   21.6050 C   0  0  1  0  0  0  0  0  0  0  0  0
   12.5920   -1.9200   24.2720 C   0  0  0  0  0  0  0  0  0  0  0  0
   12.7960   -0.5390   24.7870 C   0  0  0  0  0  0  0  0  0  0  0  0
   13.5030   -2.1580   23.1250 C   0  0  0  0  0  0  0  0  0  0  0  0
   12.9390   -2.9470   25.3060 C   0  0  0  0  0  0  0  0  0  0  0  0
    1.2840   -8.6930   21.4150 C   0  0  0  0  0  0  0  0  0  0  0  0
    2.6970   -7.0940   22.7930 N   0  0  0  0  0  0  0  0  0  0  0  0
    0.5440   -6.6270   22.2180 O   0  0  0  0  0  0  0  0  0  0  0  0
    1.5000   -7.4340   22.1700 C   0  0  0  0  0  0  0  0  0  0  0  0
    2.4060   -8.5660   26.3540 N   0  0  0  0  0  0  0  0  0  0  0  0
    3.9400   -8.2780   24.6630 O   0  0  0  0  0  0  0  0  0  0  0  0
    2.8700   -5.9370   23.6940 C   0  0  1  0  0  0  0  0  0  0  0  0
    4.3200   -5.1570   22.1900 N   0  0  0  0  0  0  0  0  0  0  0  0
    2.5490   -6.4610   25.0540 C   0  0  0  0  0  0  0  0  0  0  0  0
    3.0180   -7.7800   25.3050 C   0  0  0  0  0  0  0  0  0  0  0  0
    4.0790   -5.0550   23.6460 C   0  0  0  0  0  0  0  0  0  0  0  0
    6.7200   -4.8560   20.3910 C   0  0  0  0  0  0  0  0  0  0  0  0
    6.0060   -5.8610   19.9660 C   0  0  0  0  0  0  0  0  0  0  0  0
    5.9120   -3.0830   25.3650 N   0  0  0  0  0  0  0  0  0  0  0  0
    7.4750   -3.0180   26.7640 N   0  0  0  0  0  0  0  0  0  0  0  0
    6.5180   -2.3090   26.2530 C   0  0  0  0  0  0  0  0  0  0  0  0
    4.1560   -4.7470   25.2880 O   0  0  0  0  0  0  0  0  0  0  0  0
    5.2080   -5.1790   25.7600 C   0  0  0  0  0  0  0  0  0  0  0  0
    6.3470    0.2710   17.8510 N   0  0  0  0  0  0  0  0  0  0  0  0
    5.2750    1.0750   17.8380 C   0  0  0  0  0  0  0  0  0  0  0  0
    4.7190    1.4880   19.1360 C   0  0  0  0  0  0  0  0  0  0  0  0
    5.3170    1.0480   20.3230 C   0  0  0  0  0  0  0  0  0  0  0  0
    6.4460    0.2100   20.3020 C   0  0  0  0  0  0  0  0  0  0  0  0
    6.9500   -0.1780   19.0650 C   0  0  0  0  0  0  0  0  0  0  0  0
   10.0310   -1.2810   21.8020 C   0  0  0  0  0  0  0  0  0  0  0  0
   11.1980   -1.4080   22.4950 C   0  0  0  0  0  0  0  0  0  0  0  0
   11.2140   -1.9130   23.7670 C   0  0  0  0  0  0  0  0  0  0  0  0
   10.0850   -2.3110   24.3970 C   0  0  0  0  0  0  0  0  0  0  0  0
    8.9300   -2.1840   23.7050 C   0  0  0  0  0  0  0  0  0  0  0  0
    8.8550   -1.6820   22.4130 C   0  0  0  0  0  0  0  0  0  0  0  0
    5.8400   -2.6520   22.8870 N   0  0  0  0  0  0  0  0  0  0  0  0
    6.9450   -2.6500   22.2770 C   0  0  2  0  0  0  0  0  0  0  0  0
    7.3530   -3.1890   23.4520 C   0  0  0  0  0  0  0  0  0  0  0  0
    6.1440   -3.4830   23.9680 C   0  0  1  0  0  0  0  0  0  0  0  0
    5.2480   -4.2230   23.3170 C   0  0  0  0  0  0  0  0  0  0  0  0
    5.5640   -3.9750   21.6690 S   0  0  0  0  0  0  0  0  0  0  0  0
    6.1810   -0.7200   28.1100 C   0  0  0  0  0  0  0  0  0  0  0  0
    5.8450    0.6560   28.6050 C   0  0  0  0  0  0  0  0  0  0  0  0
    5.5340    1.5870   27.6470 C   0  0  0  0  0  0  0  0  0  0  0  0
    5.4720    1.4780   26.2270 C   0  0  0  0  0  0  0  0  0  0  0  0
    5.8470    0.0320   25.9060 C   0  0  0  0  0  0  0  0  0  0  0  0
    6.1760   -0.9840   26.7180 C   0  0  0  0  0  0  0  0  0  0  0  0
    7.3700   -4.3640   26.2230 C   0  0  1  0  0  0  0  0  0  0  0  0
    7.8470   -5.2110   27.1760 C   0  0  0  0  0  0  0  0  0  0  0  0
    7.4410   -4.9530   28.4740 C   0  0  0  0  0  0  0  0  0  0  0  0
    6.1400   -4.4960   28.6200 C   0  0  0  0  0  0  0  0  0  0  0  0
    5.5320   -3.8340   27.5700 C   0  0  0  0  0  0  0  0  0  0  0  0
    6.0040   -4.1640   26.2960 C   0  0  1  0  0  0  0  0  0  0  0  0
  2  4  1  0
  3  4  1  0
  3  7  1  0
  6  7  2  0
  7  9  1  0
  1 10  1  0
  9 10  1  0
  1 11  1  0
  8 11  2  0
  5 12  1  0
 12 11  1  6
 13 14  1  0
 13 15  1  0
 13 16  1  0
 17 20  1  0
 18 20  1  0
 19 20  2  0
 18 23  1  0
 23 25  1  1
 21 26  1  0
 22 26  2  0
 25 26  1  0
 23 27  1  0
 24 27  1  0
 28 29  2  3
 30 32  1  0
 31 32  2  0
 33 34  2  0
 35 36  2  0
 36 37  1  0
 37 38  2  0
 12 39  1  0
 38 39  1  0
 35 40  1  0
 39 40  2  0
 41 42  2  0
 13 43  1  0
 42 43  1  0
 43 44  2  0
 44 45  1  0
  5 46  1  0
 41 46  1  0
 45 46  2  0
 48  5  1  6
 47 48  1  0
 48 49  1  0
 50 30  1  1
 47 50  1  0
 49 50  1  0
 27 51  2  0
 50 51  1  0
 24 52  1  0
 28 52  1  0
 47 52  1  0
 48 52  1  0
 51 52  1  0
 53 54  2  0
 54 55  1  0
 55 56  2  0
 56 57  1  0
 32 58  1  0
 53 58  1  0
 57 58  2  0
 31 59  1  0
 59 60  1  1
 60 61  1  0
 61 62  1  0
 62 63  1  0
 30 64  1  0
 64 34  1  6
 59 64  1  0
 63 64  1  0
M  END
