x0981-x0820-x3113
     RDKit          3D

 51 55  0  0  0  0  0  0  0  0999 V2000
    1.2950   -8.8590   21.1660 C   0  0  0  0  0  0  0  0  0  0  0  0
    2.8280   -7.5370   22.7580 N   0  0  0  0  0  0  0  0  0  0  0  0
    0.4140   -6.7750   22.1210 O   0  0  0  0  0  0  0  0  0  0  0  0
    1.5340   -7.6700   22.0750 C   0  0  0  0  0  0  0  0  0  0  0  0
    2.4690   -8.8820   25.8110 N   0  0  0  0  0  0  0  0  0  0  0  0
    3.8250   -8.3030   24.6790 O   0  0  0  0  0  0  0  0  0  0  0  0
    3.1120   -6.2980   23.4290 C   0  0  1  0  0  0  0  0  0  0  0  0
    4.9370   -5.1460   21.8720 N   0  0  0  0  0  0  0  0  0  0  0  0
    2.8630   -6.4630   24.9100 C   0  0  0  0  0  0  0  0  0  0  0  0
    2.8470   -7.9110   25.2920 C   0  0  0  0  0  0  0  0  0  0  0  0
    4.3480   -5.3360   23.1470 C   0  0  0  0  0  0  0  0  0  0  0  0
    5.9950   -4.1250   21.6150 C   0  0  0  0  0  0  0  0  0  0  0  0
    6.2650   -4.4400   20.1250 C   0  0  0  0  0  0  0  0  0  0  0  0
    5.6930   -5.8560   19.9380 C   0  0  0  0  0  0  0  0  0  0  0  0
    7.3310   -1.8660   22.7990 C   0  0  2  0  0  0  0  0  0  0  0  0
    6.4100   -3.2100   22.7030 C   0  0  0  0  0  0  0  0  0  0  0  0
    8.4950    0.9380   23.2370 N   0  0  0  0  0  0  0  0  0  0  0  0
    8.7550    1.2730   21.0680 O   0  0  0  0  0  0  0  0  0  0  0  0
   11.6800    4.0180   22.6630 O   0  0  0  0  0  0  0  0  0  0  0  0
    7.7460   -0.9040   21.5450 C   0  0  2  0  0  0  0  0  0  0  0  0
    8.3760    0.4910   21.9640 C   0  0  0  0  0  0  0  0  0  0  0  0
    9.3040    1.9820   23.5750 C   0  0  0  0  0  0  0  0  0  0  0  0
   10.3910    2.1740   22.7430 C   0  0  0  0  0  0  0  0  0  0  0  0
   11.4220    2.8080   23.4030 C   0  0  0  0  0  0  0  0  0  0  0  0
   12.9770    4.4280   22.7360 C   0  0  0  0  0  0  0  0  0  0  0  0
   12.5650   -1.8330   24.2800 C   0  0  0  0  0  0  0  0  0  0  0  0
   13.4430   -1.7340   23.2360 C   0  0  0  0  0  0  0  0  0  0  0  0
   12.9960   -2.9980   25.1290 C   0  0  0  0  0  0  0  0  0  0  0  0
   12.6090   -0.5720   25.0930 C   0  0  0  0  0  0  0  0  0  0  0  0
    5.8090   -3.6270   24.1300 C   0  0  0  0  0  0  0  0  0  0  0  0
    6.1600   -3.0610   25.3970 C   0  0  0  0  0  0  0  0  0  0  0  0
    5.5530   -3.5410   26.5860 C   0  0  0  0  0  0  0  0  0  0  0  0
    4.6110   -4.5040   26.5660 C   0  0  0  0  0  0  0  0  0  0  0  0
    4.2650   -5.0260   25.3780 C   0  0  0  0  0  0  0  0  0  0  0  0
    4.8400   -4.6360   24.2010 C   0  0  0  0  0  0  0  0  0  0  0  0
    5.8700   -3.0710   27.8410 C   0  0  0  0  0  0  0  0  0  0  0  0
    6.7840   -2.0890   28.0210 C   0  0  0  0  0  0  0  0  0  0  0  0
    7.4100   -1.5420   26.9000 C   0  0  0  0  0  0  0  0  0  0  0  0
    7.1460   -1.9940   25.5670 C   0  0  0  0  0  0  0  0  0  0  0  0
    6.3200    0.0200   18.0090 N   0  0  0  0  0  0  0  0  0  0  0  0
    5.0630    0.7640   18.2150 C   0  0  0  0  0  0  0  0  0  0  0  0
    4.6630    0.9340   19.6590 C   0  0  0  0  0  0  0  0  0  0  0  0
    5.5750    0.3470   20.7620 C   0  0  0  0  0  0  0  0  0  0  0  0
    6.7570   -0.3360   20.4750 C   0  0  0  0  0  0  0  0  0  0  0  0
    7.1150   -0.5020   19.1310 C   0  0  0  0  0  0  0  0  0  0  0  0
    9.9950   -2.5450   21.7170 C   0  0  0  0  0  0  0  0  0  0  0  0
   11.1860   -2.4510   22.2720 C   0  0  0  0  0  0  0  0  0  0  0  0
   11.2270   -1.9590   23.6230 C   0  0  0  0  0  0  0  0  0  0  0  0
    9.8690   -1.6130   24.1990 C   0  0  0  0  0  0  0  0  0  0  0  0
    8.5550   -1.6850   23.6410 C   0  0  0  0  0  0  0  0  0  0  0  0
    8.8470   -2.1930   22.3560 C   0  0  0  0  0  0  0  0  0  0  0  0
  1  4  1  0
  2  4  1  0
  3  4  2  0
  2  7  1  0
  7  9  1  1
  5 10  1  0
  6 10  2  0
  9 10  1  0
  7 11  1  0
  8 11  2  0
  8 12  1  0
 12 13  1  0
 13 14  2  3
 12 16  2  0
 15 16  1  6
 15 20  1  0
 17 21  1  0
 18 21  2  0
 20 21  1  1
 17 22  1  0
 22 23  1  0
 19 24  1  0
 23 24  1  0
 19 25  1  0
 26 27  1  0
 26 28  1  0
 26 29  1  0
 16 30  1  0
 30 31  1  0
 31 32  2  0
 32 33  1  0
 33 34  2  0
 11 35  1  0
 30 35  2  0
 34 35  1  0
 32 36  1  0
 36 37  2  0
 37 38  1  0
 31 39  1  0
 38 39  2  0
 40 41  2  0
 41 42  1  0
 42 43  2  0
 20 44  1  0
 43 44  1  0
 40 45  1  0
 44 45  2  0
 46 47  2  0
 26 48  1  0
 47 48  1  0
 48 49  2  0
 15 50  1  0
 49 50  1  0
 46 51  1  0
 50 51  2  0
M  END
