x0981-x2776-x1358
     RDKit          3D

 60 65  0  0  0  0  0  0  0  0999 V2000
    1.2250   -8.7040   21.3960 C   0  0  0  0  0  0  0  0  0  0  0  0
    2.6130   -7.1040   22.6350 N   0  0  0  0  0  0  0  0  0  0  0  0
    0.4070   -6.6300   22.2610 O   0  0  0  0  0  0  0  0  0  0  0  0
    1.3570   -7.3960   22.1360 C   0  0  0  0  0  0  0  0  0  0  0  0
    2.5130   -8.2190   26.2670 N   0  0  0  0  0  0  0  0  0  0  0  0
    3.9820   -8.1650   24.5540 O   0  0  0  0  0  0  0  0  0  0  0  0
    2.8220   -5.9780   23.5350 C   0  0  1  0  0  0  0  0  0  0  0  0
    4.9780   -5.4810   22.0590 N   0  0  0  0  0  0  0  0  0  0  0  0
    4.5890   -4.3810   24.0950 N   0  0  0  0  0  0  0  0  0  0  0  0
    2.7520   -6.2860   24.9120 C   0  0  0  0  0  0  0  0  0  0  0  0
    3.1300   -7.6060   25.2120 C   0  0  0  0  0  0  0  0  0  0  0  0
    4.1760   -5.2670   23.1950 C   0  0  0  0  0  0  0  0  0  0  0  0
    6.7650   -5.1670   20.4160 C   0  0  0  0  0  0  0  0  0  0  0  0
    5.8800   -6.1970   19.8240 C   0  0  0  0  0  0  0  0  0  0  0  0
    7.4400   -1.2220   21.7180 N   0  0  0  0  0  0  0  0  0  0  0  0
    7.6130    2.0910   22.9320 N   0  0  0  0  0  0  0  0  0  0  0  0
    9.0120    1.3890   20.9010 O   0  0  0  0  0  0  0  0  0  0  0  0
   10.7950    6.7700   23.9560 O   0  0  0  0  0  0  0  0  0  0  0  0
    6.8780    0.1310   21.6830 C   0  0  1  0  0  0  0  0  0  0  0  0
   12.5060   -2.8000   25.0380 O   0  0  0  0  0  0  0  0  0  0  0  0
    7.9450    1.2600   21.7970 C   0  0  0  0  0  0  0  0  0  0  0  0
   10.4530    1.8190   23.9230 C   0  0  0  0  0  0  0  0  0  0  0  0
   11.8350    6.5980   24.8350 C   0  0  0  0  0  0  0  0  0  0  0  0
   12.3050   -1.4480   24.6360 C   0  0  1  0  0  0  0  0  0  0  0  0
   13.2600   -1.1380   23.7180 C   0  0  0  0  0  0  0  0  0  0  0  0
   13.6280   -2.9990   25.4240 C   0  0  0  0  0  0  0  0  0  0  0  0
    7.0700   -2.4000   25.8840 N   0  0  0  0  0  0  0  0  0  0  0  0
    5.4640   -0.0690   25.2810 O   0  0  0  0  0  0  0  0  0  0  0  0
    5.7500   -4.1230   26.3400 O   0  0  0  0  0  0  0  0  0  0  0  0
    6.2550   -3.4160   25.4620 C   0  0  0  0  0  0  0  0  0  0  0  0
    6.3460    0.3910   17.8510 N   0  0  0  0  0  0  0  0  0  0  0  0
    5.2490    1.1700   17.8550 C   0  0  0  0  0  0  0  0  0  0  0  0
    4.6200    1.6370   19.0080 C   0  0  0  0  0  0  0  0  0  0  0  0
    5.1380    1.3000   20.2490 C   0  0  0  0  0  0  0  0  0  0  0  0
    6.2750    0.5010   20.3130 C   0  0  0  0  0  0  0  0  0  0  0  0
    6.8290    0.0750   19.0890 C   0  0  0  0  0  0  0  0  0  0  0  0
    9.8030    3.1890   23.6720 C   0  0  0  0  0  0  0  0  0  0  0  0
   10.5220    4.3710   23.8930 C   0  0  0  0  0  0  0  0  0  0  0  0
    9.9720    5.6320   23.6830 C   0  0  0  0  0  0  0  0  0  0  0  0
    8.6690    5.8020   23.2250 C   0  0  0  0  0  0  0  0  0  0  0  0
    7.8830    4.6730   22.9750 C   0  0  0  0  0  0  0  0  0  0  0  0
    8.4830    3.2840   23.2160 C   0  0  0  0  0  0  0  0  0  0  0  0
    9.5290   -1.9930   21.7660 C   0  0  0  0  0  0  0  0  0  0  0  0
   10.8490   -2.0670   22.5360 C   0  0  0  0  0  0  0  0  0  0  0  0
   11.0190   -1.4100   23.9000 C   0  0  0  0  0  0  0  0  0  0  0  0
    9.7910   -0.6950   24.4540 C   0  0  0  0  0  0  0  0  0  0  0  0
    8.5120   -0.6430   23.6540 C   0  0  0  0  0  0  0  0  0  0  0  0
    8.4300   -1.3070   22.2880 C   0  0  0  0  0  0  0  0  0  0  0  0
    5.9810   -0.2460   26.5320 C   0  0  0  0  0  0  0  0  0  0  0  0
    6.7600   -1.3890   26.8390 C   0  0  0  0  0  0  0  0  0  0  0  0
    7.2570   -1.5250   28.1460 C   0  0  0  0  0  0  0  0  0  0  0  0
    7.0440   -0.6040   29.1530 C   0  0  0  0  0  0  0  0  0  0  0  0
    6.2960    0.5300   28.9000 C   0  0  0  0  0  0  0  0  0  0  0  0
    5.7170    0.7410   27.5090 C   0  0  0  0  0  0  0  0  0  0  0  0
    5.7720   -3.2240   21.3250 N   0  0  0  0  0  0  0  0  0  0  0  0
    6.6170   -2.4000   22.1170 C   0  0  2  0  0  0  0  0  0  0  0  0
    5.8360   -2.2760   23.3710 C   0  0  0  0  0  0  0  0  0  0  0  0
    5.8910   -3.6600   23.9830 C   0  0  2  0  0  0  0  0  0  0  0  0
    6.8040   -4.5660   23.0930 C   0  0  0  0  0  0  0  0  0  0  0  0
    6.0930   -4.5920   21.7180 C   0  0  1  0  0  0  0  0  0  0  0  0
  1  4  1  0
  2  4  1  0
  3  4  2  0
  2  7  1  0
  7 10  1  1
  5 11  1  0
  6 11  2  0
 10 11  1  0
  7 12  1  0
  8 12  1  0
  9 12  2  0
 13 14  2  3
 15 19  1  0
 16 21  1  0
 17 21  2  0
 19 21  1  6
 18 23  1  0
 20 24  1  0
 24 25  1  6
 20 26  1  0
 27 30  1  0
 29 30  2  0
 31 32  2  0
 32 33  1  0
 33 34  2  0
 19 35  1  0
 34 35  1  0
 31 36  1  0
 35 36  2  0
 22 37  1  0
 37 38  2  0
 18 39  1  0
 38 39  1  0
 39 40  2  0
 40 41  1  0
 16 42  1  0
 37 42  1  0
 41 42  2  0
 43 44  2  0
 24 45  1  0
 44 45  1  0
 45 46  2  0
 46 47  1  0
 15 48  1  0
 43 48  1  0
 47 48  2  0
 28 49  1  0
 27 50  1  0
 49 50  2  0
 50 51  1  0
 51 52  2  0
 52 53  1  0
 49 54  1  0
 53 54  2  0
 56 15  1  6
 55 56  1  0
 56 57  1  0
  9 58  1  0
 58 30  1  1
 57 58  1  0
 58 59  1  0
  8 60  1  0
 60 13  1  6
 55 60  1  0
 59 60  1  0
M  END
