x0981-x2540-x0978-x3110-x1351
     RDKit          3D

 71 79  0  0  0  0  0  0  0  0999 V2000
    8.0290    1.5820   23.2410 N   0  0  0  0  0  0  0  0  0  0  0  0
   13.3790    5.2870   22.9360 C   0  0  0  0  0  0  0  0  0  0  0  0
   11.9580    3.4730   22.3360 O   0  0  0  0  0  0  0  0  0  0  0  0
   12.5540    4.6750   21.8470 C   0  0  0  0  0  0  0  0  0  0  0  0
    7.4920   -1.2790   21.7980 N   0  0  0  0  0  0  0  0  0  0  0  0
   11.1270    4.5600   24.1770 O   0  0  0  0  0  0  0  0  0  0  0  0
   11.1800    3.6000   23.4350 C   0  0  0  0  0  0  0  0  0  0  0  0
    8.6070    1.6490   21.0770 O   0  0  0  0  0  0  0  0  0  0  0  0
   10.3420    2.3430   23.6350 C   0  0  0  0  0  0  0  0  0  0  0  0
    8.8510    2.6860   23.6910 C   0  0  0  0  0  0  0  0  0  0  0  0
    7.8900    1.1380   21.9680 C   0  0  0  0  0  0  0  0  0  0  0  0
    6.8400    0.0390   21.6880 C   0  0  1  0  0  0  0  0  0  0  0  0
   13.4200   -1.6750   23.5290 C   0  0  1  0  0  0  0  0  0  0  0  0
   13.2190   -0.1650   23.5430 C   0  0  0  0  0  0  0  0  0  0  0  0
   13.0140   -2.2150   22.1710 C   0  0  0  0  0  0  0  0  0  0  0  0
   12.9830   -2.4800   24.7690 C   0  0  0  0  0  0  0  0  0  0  0  0
   12.2450   -1.0010   22.7400 C   0  0  1  0  0  0  0  0  0  0  0  0
    8.3930    2.9720   25.1230 C   0  0  0  0  0  0  0  0  0  0  0  0
    8.5720    3.9510   22.8460 C   0  0  0  0  0  0  0  0  0  0  0  0
    1.3070   -8.8110   21.2360 C   0  0  0  0  0  0  0  0  0  0  0  0
    2.8820   -7.5620   22.3670 N   0  0  0  0  0  0  0  0  0  0  0  0
    0.7160   -7.7250   23.1640 O   0  0  0  0  0  0  0  0  0  0  0  0
    1.5830   -7.9930   22.3420 C   0  0  0  0  0  0  0  0  0  0  0  0
    2.9990   -8.2600   26.4500 N   0  0  0  0  0  0  0  0  0  0  0  0
    2.2140   -8.9270   24.4840 O   0  0  0  0  0  0  0  0  0  0  0  0
    3.5980   -6.7430   23.3520 C   0  0  1  0  0  0  0  0  0  0  0  0
    4.9080   -5.4890   21.3050 N   0  0  0  0  0  0  0  0  0  0  0  0
    3.9660   -7.4440   24.5000 C   0  0  0  0  0  0  0  0  0  0  0  0
    3.0090   -8.2510   25.1080 C   0  0  0  0  0  0  0  0  0  0  0  0
    4.6240   -5.7680   22.7710 C   0  0  1  0  0  0  0  0  0  0  0  0
    6.7710   -5.1680   20.4300 C   0  0  0  0  0  0  0  0  0  0  0  0
    6.0290   -6.0940   19.8820 C   0  0  0  0  0  0  0  0  0  0  0  0
    1.6950   -4.6630   24.1860 N   0  0  0  0  0  0  0  0  0  0  0  0
    2.3710   -5.8490   26.5450 C   0  0  0  0  0  0  0  0  0  0  0  0
    4.5530   -5.8600   25.8280 O   0  0  0  0  0  0  0  0  0  0  0  0
    3.3980   -5.1400   25.7080 C   0  0  1  0  0  0  0  0  0  0  0  0
    4.3370   -3.2760   22.8620 N   0  0  0  0  0  0  0  0  0  0  0  0
    1.3330   -6.0780   22.3980 O   0  0  0  0  0  0  0  0  0  0  0  0
    3.1110   -4.9870   24.3800 C   0  0  2  0  0  0  0  0  0  0  0  0
    0.8920   -5.3600   23.2740 C   0  0  0  0  0  0  0  0  0  0  0  0
   -0.5800   -5.1450   23.4160 C   0  0  0  0  0  0  0  0  0  0  0  0
    4.3050   -4.4810   23.4670 C   0  0  1  0  0  0  0  0  0  0  0  0
    5.2410   -2.3970   20.5360 C   0  0  0  0  0  0  0  0  0  0  0  0
    5.0050   -2.9270   19.3180 C   0  0  0  0  0  0  0  0  0  0  0  0
    5.7600   -3.7640   25.5340 N   0  0  0  0  0  0  0  0  0  0  0  0
    6.7440   -3.7760   27.5960 O   0  0  0  0  0  0  0  0  0  0  0  0
    6.2760   -3.1270   26.6760 C   0  0  0  0  0  0  0  0  0  0  0  0
    6.2950    0.2880   17.9250 N   0  0  0  0  0  0  0  0  0  0  0  0
    5.1740    1.0240   17.8650 C   0  0  0  0  0  0  0  0  0  0  0  0
    4.3960    1.5430   19.0690 C   0  0  0  0  0  0  0  0  0  0  0  0
    5.0390    1.1440   20.3750 C   0  0  0  0  0  0  0  0  0  0  0  0
    6.2130    0.3840   20.3530 C   0  0  0  0  0  0  0  0  0  0  0  0
    6.7800   -0.0110   19.1530 C   0  0  0  0  0  0  0  0  0  0  0  0
    9.8690   -1.1520   22.2300 C   0  0  0  0  0  0  0  0  0  0  0  0
   10.8750   -0.9610   23.1310 C   0  0  0  0  0  0  0  0  0  0  0  0
   10.6410   -0.7010   24.4880 C   0  0  0  0  0  0  0  0  0  0  0  0
    9.3570   -0.6160   24.9900 C   0  0  0  0  0  0  0  0  0  0  0  0
    8.2920   -0.7960   24.1300 C   0  0  0  0  0  0  0  0  0  0  0  0
    8.5670   -1.0870   22.6380 C   0  0  0  0  0  0  0  0  0  0  0  0
    5.5360   -3.1330   21.8230 C   0  0  1  0  0  0  0  0  0  0  0  0
    6.9320   -2.5940   22.2980 C   0  0  2  0  0  0  0  0  0  0  0  0
    6.6140   -2.6100   23.6940 C   0  0  0  0  0  0  0  0  0  0  0  0
    6.4720   -4.0090   24.2830 C   0  0  2  0  0  0  0  0  0  0  0  0
    5.7870   -4.8830   23.2310 C   0  0  1  0  0  0  0  0  0  0  0  0
    5.9500   -4.6090   21.6490 C   0  0  1  0  0  0  0  0  0  0  0  0
    6.9190   -1.1340   27.9890 C   0  0  0  0  0  0  0  0  0  0  0  0
    6.8760    0.3550   28.2710 C   0  0  0  0  0  0  0  0  0  0  0  0
    6.1460    1.1660   27.4460 C   0  0  0  0  0  0  0  0  0  0  0  0
    5.4560    0.6020   26.3640 C   0  0  0  0  0  0  0  0  0  0  0  0
    5.4940   -0.7680   26.1050 C   0  0  0  0  0  0  0  0  0  0  0  0
    6.2060   -1.6420   26.8910 C   0  0  0  0  0  0  0  0  0  0  0  0
  2  4  1  0
  3  4  1  0
  3  7  1  0
  6  7  2  0
  7  9  1  0
 10  1  1  0
  9 10  1  0
  1 11  1  0
  8 11  2  0
  5 12  1  0
 12 11  1  6
 13 14  1  0
 13 15  1  0
 13 16  1  6
 13 17  1  0
 14 17  1  0
 15 17  1  0
 10 18  1  0
 10 19  1  0
 20 23  1  0
 21 23  1  0
 22 23  2  0
 21 26  1  0
 26 28  1  1
 24 29  1  0
 25 29  2  0
 28 29  1  0
 26 30  1  0
 30 27  1  6
 31 32  2  3
 36 34  1  1
 35 36  1  0
 39 33  1  1
 36 39  1  0
 33 40  1  0
 38 40  2  0
 40 41  1  0
 30 42  1  0
 42 37  1  6
 39 42  1  0
 43 44  2  3
 45 47  1  0
 46 47  2  0
 48 49  2  0
 49 50  1  0
 50 51  2  0
 12 52  1  0
 51 52  1  0
 48 53  1  0
 52 53  2  0
 17 55  1  1
 54 55  2  0
 55 56  1  0
 56 57  2  0
 57 58  1  0
  5 59  1  0
 54 59  1  0
 58 59  2  0
 37 60  1  0
 60 43  1  6
 61  5  1  6
 60 61  1  0
 61 62  1  0
 63 45  1  1
 62 63  1  0
 30 64  1  0
 42 64  1  0
 64 63  1  1
 27 65  1  0
 65 31  1  6
 60 65  1  0
 64 65  1  0
 66 67  2  0
 67 68  1  0
 68 69  2  0
 69 70  1  0
 47 71  1  0
 66 71  1  0
 70 71  2  0
M  END
