x0981-x2703
     RDKit          3D

 46 48  0  0  0  0  0  0  0  0999 V2000
    1.1940   -8.7420   21.3570 C   0  0  0  0  0  0  0  0  0  0  0  0
    2.7550   -7.1650   22.7230 N   0  0  0  0  0  0  0  0  0  0  0  0
    0.2650   -6.6040   22.1810 O   0  0  0  0  0  0  0  0  0  0  0  0
    1.4220   -7.4420   22.1400 C   0  0  0  0  0  0  0  0  0  0  0  0
    2.4530   -8.2150   26.4250 N   0  0  0  0  0  0  0  0  0  0  0  0
    4.0080   -8.2160   24.6310 O   0  0  0  0  0  0  0  0  0  0  0  0
    3.0040   -5.9210   23.4680 C   0  0  1  0  0  0  0  0  0  0  0  0
    5.1060   -5.6690   22.0820 N   0  0  0  0  0  0  0  0  0  0  0  0
    4.9760   -4.6750   24.0880 O   0  0  0  0  0  0  0  0  0  0  0  0
    2.7700   -6.1990   24.8160 C   0  0  0  0  0  0  0  0  0  0  0  0
    3.1570   -7.6160   25.2430 C   0  0  0  0  0  0  0  0  0  0  0  0
    4.4470   -5.3800   23.2300 C   0  0  0  0  0  0  0  0  0  0  0  0
    6.3370   -4.7750   21.9460 C   0  0  1  0  0  0  0  0  0  0  0  0
    6.5070   -5.0300   20.4010 C   0  0  0  0  0  0  0  0  0  0  0  0
    5.7790   -6.0610   19.9520 C   0  0  0  0  0  0  0  0  0  0  0  0
    7.4270   -1.3550   21.6130 N   0  0  0  0  0  0  0  0  0  0  0  0
    7.4330    1.9850   22.8730 N   0  0  0  0  0  0  0  0  0  0  0  0
    8.7150    1.3960   21.0030 O   0  0  0  0  0  0  0  0  0  0  0  0
    6.8480   -0.1200   21.5970 C   0  0  1  0  0  0  0  0  0  0  0  0
    7.6860    1.1370   21.8660 C   0  0  0  0  0  0  0  0  0  0  0  0
   10.0440    1.9950   24.0370 C   0  0  0  0  0  0  0  0  0  0  0  0
    9.1920    1.3520   24.9330 C   0  0  0  0  0  0  0  0  0  0  0  0
    6.1760    4.5420   21.8580 C   0  0  0  0  0  0  0  0  0  0  0  0
   11.8790   -1.8230   24.7340 C   0  0  0  0  0  0  0  0  0  0  0  0
   12.4810   -3.0610   24.6730 C   0  0  0  0  0  0  0  0  0  0  0  0
   12.7310   -0.6060   24.6740 C   0  0  0  0  0  0  0  0  0  0  0  0
    7.2870   -3.6250   22.2980 C   0  0  0  0  0  0  0  0  0  0  0  0
    6.6490   -2.4290   21.9380 C   0  0  0  0  0  0  0  0  0  0  0  0
    6.3050    0.3110   17.8800 N   0  0  0  0  0  0  0  0  0  0  0  0
    5.1740    1.0390   17.8290 C   0  0  0  0  0  0  0  0  0  0  0  0
    4.5250    1.4020   19.0270 C   0  0  0  0  0  0  0  0  0  0  0  0
    5.1130    0.9860   20.2320 C   0  0  0  0  0  0  0  0  0  0  0  0
    6.2780    0.2500   20.2710 C   0  0  0  0  0  0  0  0  0  0  0  0
    6.8160   -0.0590   19.0700 C   0  0  0  0  0  0  0  0  0  0  0  0
   10.9680   -1.3480   22.5770 N   0  0  0  0  0  0  0  0  0  0  0  0
   10.7220   -1.6900   23.8130 C   0  0  0  0  0  0  0  0  0  0  0  0
    9.4230   -1.8820   24.1570 C   0  0  0  0  0  0  0  0  0  0  0  0
    8.3820   -1.7370   23.3000 C   0  0  0  0  0  0  0  0  0  0  0  0
    8.5350   -1.3680   21.9640 C   0  0  0  0  0  0  0  0  0  0  0  0
    9.9320   -1.1980   21.7410 C   0  0  0  0  0  0  0  0  0  0  0  0
    9.3940    3.2960   23.5330 C   0  0  0  0  0  0  0  0  0  0  0  0
   10.0890    4.5100   23.6440 C   0  0  0  0  0  0  0  0  0  0  0  0
    9.5130    5.6980   23.1840 C   0  0  0  0  0  0  0  0  0  0  0  0
    8.2510    5.6570   22.6170 C   0  0  0  0  0  0  0  0  0  0  0  0
    7.5400    4.4630   22.4960 C   0  0  0  0  0  0  0  0  0  0  0  0
    8.1200    3.2900   22.9610 C   0  0  0  0  0  0  0  0  0  0  0  0
  1  4  1  0
  2  4  1  0
  3  4  2  0
  2  7  1  0
  7 10  1  1
  5 11  1  0
  6 11  2  0
 10 11  1  0
  7 12  1  0
  8 12  1  0
  9 12  2  0
  8 13  1  0
 13 14  1  6
 14 15  2  3
 16 19  1  0
 17 20  1  0
 18 20  2  0
 19 20  1  6
 21 22  1  0
 24 25  1  0
 24 26  1  0
 13 27  1  0
 16 28  1  0
 27 28  1  0
 29 30  2  0
 30 31  1  0
 31 32  2  0
 19 33  1  0
 32 33  1  0
 29 34  1  0
 33 34  2  0
 24 36  1  0
 35 36  2  0
 36 37  1  0
 37 38  2  0
 16 39  1  0
 38 39  1  0
 35 40  1  0
 39 40  2  0
 21 41  1  0
 41 42  2  0
 42 43  1  0
 43 44  2  0
 23 45  1  0
 44 45  1  0
 17 46  1  0
 41 46  1  0
 45 46  2  0
M  END
