x0981-x1311-x3117-x2776
     RDKit          3D

 65 72  0  0  0  0  0  0  0  0999 V2000
    1.3880   -8.2290   22.0300 C   0  0  0  0  0  0  0  0  0  0  0  0
    3.0040   -6.2990   22.8820 N   0  0  0  0  0  0  0  0  0  0  0  0
    0.7360   -6.0070   22.5790 O   0  0  0  0  0  0  0  0  0  0  0  0
    1.6770   -6.7960   22.5130 C   0  0  0  0  0  0  0  0  0  0  0  0
    2.3170   -8.0870   26.5400 N   0  0  0  0  0  0  0  0  0  0  0  0
    4.1000   -7.5220   25.0170 N   0  0  0  0  0  0  0  0  0  0  0  0
    3.1410   -5.4440   24.0290 C   0  0  1  0  0  0  0  0  0  0  0  0
    2.5660   -5.9560   25.2120 C   0  0  0  0  0  0  0  0  0  0  0  0
    3.0490   -7.3180   25.6230 C   0  0  0  0  0  0  0  0  0  0  0  0
    6.5060   -5.3180   21.8310 C   0  0  1  0  0  0  0  0  0  0  0  0
    6.8100   -5.5130   20.4400 C   0  0  0  0  0  0  0  0  0  0  0  0
    5.9270   -6.2360   19.8030 C   0  0  0  0  0  0  0  0  0  0  0  0
    6.3010   -0.7300   22.5250 N   0  0  0  0  0  0  0  0  0  0  0  0
    7.7500    2.0770   23.3110 N   0  0  0  0  0  0  0  0  0  0  0  0
    5.7170    3.0750   22.2740 O   0  0  0  0  0  0  0  0  0  0  0  0
   10.6810    6.9680   23.5720 O   0  0  0  0  0  0  0  0  0  0  0  0
    5.6900    0.5200   22.1660 C   0  0  1  0  0  0  0  0  0  0  0  0
   11.9940   -3.1550   23.6730 O   0  0  0  0  0  0  0  0  0  0  0  0
    6.4070    1.8770   22.6110 C   0  0  0  0  0  0  0  0  0  0  0  0
   10.4510    2.1170   23.9590 C   0  0  0  0  0  0  0  0  0  0  0  0
   11.9570    7.0130   24.2330 C   0  0  0  0  0  0  0  0  0  0  0  0
   11.8670   -2.0470   23.2280 C   0  0  1  0  0  0  0  0  0  0  0  0
   12.5450   -1.7690   21.8770 C   0  0  0  0  0  0  0  0  0  0  0  0
   11.6780   -3.4710   24.9970 C   0  0  0  0  0  0  0  0  0  0  0  0
    4.5900   -3.1190   25.0250 C   0  0  0  0  0  0  0  0  0  0  0  0
    5.0810   -1.8010   24.3380 C   0  0  0  0  0  0  0  0  0  0  0  0
    5.4680   -1.8020   22.8260 C   0  0  0  0  0  0  0  0  0  0  0  0
    7.9340   -0.8260   20.3650 N   0  0  0  0  0  0  0  0  0  0  0  0
    8.5840    1.0280   23.1340 N   0  0  0  0  0  0  0  0  0  0  0  0
   10.0840    0.1620   21.6690 O   0  0  0  0  0  0  0  0  0  0  0  0
    7.9840    0.5280   20.9700 C   0  0  0  0  0  0  0  0  0  0  0  0
    8.9740    0.5590   21.9540 C   0  0  0  0  0  0  0  0  0  0  0  0
    8.1990   -6.1010   23.4240 C   0  0  0  0  0  0  0  0  0  0  0  0
    9.1650   -5.8110   24.3450 C   0  0  0  0  0  0  0  0  0  0  0  0
    9.5810   -4.5720   24.7440 C   0  0  0  0  0  0  0  0  0  0  0  0
    9.0150   -3.4130   24.2320 C   0  0  0  0  0  0  0  0  0  0  0  0
    8.0060   -3.6420   23.2750 C   0  0  0  0  0  0  0  0  0  0  0  0
    7.5650   -5.0480   22.8320 C   0  0  0  0  0  0  0  0  0  0  0  0
    5.1630   -5.0350   22.3220 C   0  0  2  0  0  0  0  0  0  0  0  0
    4.8930   -3.7310   22.2850 C   0  0  0  0  0  0  0  0  0  0  0  0
    4.7500   -4.6990   23.9400 S   0  0  0  0  0  0  0  0  0  0  0  0
    4.9430   -6.6620   23.9960 S   0  0  2  0  0  0  0  0  0  0  0  0
    4.3330   -6.2350   22.3040 C   0  0  1  0  0  0  0  0  0  0  0  0
    5.9240    0.0400   18.2900 N   0  0  0  0  0  0  0  0  0  0  0  0
    5.2200    1.1210   17.9070 C   0  0  0  0  0  0  0  0  0  0  0  0
    4.6660    1.9860   18.8200 C   0  0  0  0  0  0  0  0  0  0  0  0
    4.8310    1.7570   20.1720 C   0  0  0  0  0  0  0  0  0  0  0  0
    5.5600    0.6430   20.6350 C   0  0  0  0  0  0  0  0  0  0  0  0
    6.0830   -0.1970   19.6400 C   0  0  0  0  0  0  0  0  0  0  0  0
    9.7720    3.3930   23.6760 C   0  0  0  0  0  0  0  0  0  0  0  0
   10.5440    4.5460   23.7580 C   0  0  0  0  0  0  0  0  0  0  0  0
    9.9330    5.8050   23.4930 C   0  0  0  0  0  0  0  0  0  0  0  0
    8.4390    5.7840   23.1270 C   0  0  0  0  0  0  0  0  0  0  0  0
    7.7560    4.5660   23.0730 C   0  0  0  0  0  0  0  0  0  0  0  0
    8.4090    3.3780   23.3460 C   0  0  0  0  0  0  0  0  0  0  0  0
    8.3950   -1.7520   21.7420 C   0  0  0  0  0  0  0  0  0  0  0  0
    9.7530   -2.0760   21.9180 C   0  0  0  0  0  0  0  0  0  0  0  0
   10.4120   -1.7300   23.0850 C   0  0  0  0  0  0  0  0  0  0  0  0
    9.6950   -1.0850   24.0770 C   0  0  0  0  0  0  0  0  0  0  0  0
    8.2530   -0.7390   23.9050 C   0  0  0  0  0  0  0  0  0  0  0  0
    7.6380   -1.0740   22.7220 C   0  0  0  0  0  0  0  0  0  0  0  0
   12.3440   -1.0490   24.0860 C   0  0  0  0  0  0  0  0  0  0  0  0
   12.8640    0.3950   23.6470 C   0  0  0  0  0  0  0  0  0  0  0  0
   13.2790   -1.7250   25.0030 C   0  0  0  0  0  0  0  0  0  0  0  0
   11.2030   -0.7290   25.0410 C   0  0  0  0  0  0  0  0  0  0  0  0
  1  4  1  0
  2  4  1  0
  3  4  2  0
  2  7  1  0
  7  8  1  1
  5  9  1  0
  6  9  2  0
  8  9  1  0
 10 11  1  6
 11 12  2  3
 13 17  1  0
 14 19  1  0
 15 19  2  0
 17 19  1  6
 16 21  1  0
 22 18  1  0
 22 23  1  6
 18 24  1  0
 25 26  1  0
 13 27  1  0
 26 27  1  0
 14 29  1  0
 28 31  1  0
 29 32  1  0
 30 32  2  0
 31 32  1  0
 33 34  2  0
 34 35  1  0
 35 36  2  0
 36 37  1  0
 10 38  1  0
 33 38  1  0
 37 38  2  0
 10 39  1  0
 39 40  1  6
  7 41  1  0
 25 41  1  0
 39 41  1  0
 40 41  1  0
 42  6  1  1
 41 42  1  0
 43  2  1  1
 39 43  1  0
 42 43  1  0
 44 45  2  0
 45 46  1  0
 46 47  2  0
 17 48  1  0
 47 48  1  0
 44 49  1  0
 48 49  2  0
 20 50  1  0
 50 51  2  0
 16 52  1  0
 51 52  1  0
 52 53  2  0
 53 54  1  0
 14 55  1  0
 50 55  1  0
 54 55  2  0
 56 57  2  0
 22 58  1  0
 57 58  1  0
 58 59  2  0
 59 60  1  0
 13 61  1  0
 56 61  1  0
 60 61  2  0
 22 62  1  0
 62 63  1  0
 62 64  1  0
 62 65  1  0
M  END
