x0981-x1493
     RDKit          3D

 21 21  0  0  0  0  0  0  0  0999 V2000
    1.2180   -8.6110   21.5330 C   0  0  0  0  0  0  0  0  0  0  0  0
    2.9330   -7.0870   22.7980 N   0  0  0  0  0  0  0  0  0  0  0  0
    0.4440   -6.4060   22.3210 O   0  0  0  0  0  0  0  0  0  0  0  0
    1.5540   -7.3020   22.2690 C   0  0  0  0  0  0  0  0  0  0  0  0
    2.5080   -8.1740   26.4550 N   0  0  0  0  0  0  0  0  0  0  0  0
    3.9550   -8.2970   24.5800 O   0  0  0  0  0  0  0  0  0  0  0  0
    3.3270   -5.8750   23.5620 C   0  0  1  0  0  0  0  0  0  0  0  0
    4.5360   -4.2280   22.4930 O   0  0  0  0  0  0  0  0  0  0  0  0
    3.0180   -6.1660   24.8860 C   0  0  0  0  0  0  0  0  0  0  0  0
    3.2270   -7.6270   25.2600 C   0  0  0  0  0  0  0  0  0  0  0  0
    6.5780   -5.3020   20.4010 C   0  0  0  0  0  0  0  0  0  0  0  0
    5.7550   -6.1840   19.8510 C   0  0  0  0  0  0  0  0  0  0  0  0
    4.4170   -5.0780   26.4020 C   0  0  0  0  0  0  0  0  0  0  0  0
    6.5090   -6.0160   26.0920 O   0  0  0  0  0  0  0  0  0  0  0  0
    5.4960   -5.3120   25.5720 C   0  0  0  0  0  0  0  0  0  0  0  0
    5.3420   -4.7310   24.3050 N   0  0  0  0  0  0  0  0  0  0  0  0
    6.4430   -3.9740   23.9810 C   0  0  0  0  0  0  0  0  0  0  0  0
    7.3010   -4.3110   22.7270 C   0  0  0  0  0  0  0  0  0  0  0  0
    6.5690   -5.2460   21.7880 N   0  0  0  0  0  0  0  0  0  0  0  0
    5.5660   -6.0710   22.4210 C   0  0  0  0  0  0  0  0  0  0  0  0
    4.7610   -5.3480   23.2500 C   0  0  1  0  0  0  0  0  0  0  0  0
  1  4  1  0
  2  4  1  0
  3  4  2  0
  2  7  1  0
  7  9  1  1
  5 10  1  0
  6 10  2  0
  9 10  1  0
 11 12  2  3
 13 15  1  0
 14 15  2  0
 15 16  1  0
 16 17  1  0
 17 18  1  0
 11 19  1  0
 18 19  1  0
 19 20  1  0
  7 21  1  0
 21  8  1  6
 16 21  1  0
 20 21  1  0
M  END
