x0981-x0755-x3110-x3113-x1077
     RDKit          3D

 64 69  0  0  0  0  0  0  0  0999 V2000
    8.0870    1.4350   23.2870 N   0  0  0  0  0  0  0  0  0  0  0  0
   13.4070    5.2290   22.9330 C   0  0  0  0  0  0  0  0  0  0  0  0
   12.0390    3.3600   22.3790 O   0  0  0  0  0  0  0  0  0  0  0  0
   12.5280    4.6110   21.8920 C   0  0  0  0  0  0  0  0  0  0  0  0
    7.5660   -1.3400   21.6820 N   0  0  0  0  0  0  0  0  0  0  0  0
   11.0740    4.3960   24.1660 O   0  0  0  0  0  0  0  0  0  0  0  0
   11.2130    3.4360   23.4400 C   0  0  0  0  0  0  0  0  0  0  0  0
    8.7590    1.6680   21.1520 O   0  0  0  0  0  0  0  0  0  0  0  0
   10.4460    2.1340   23.6170 C   0  0  0  0  0  0  0  0  0  0  0  0
    8.9700    2.4380   23.8670 C   0  0  0  0  0  0  0  0  0  0  0  0
    8.0090    1.0890   21.9680 C   0  0  0  0  0  0  0  0  0  0  0  0
    6.9850    0.0160   21.5300 C   0  0  1  0  0  0  0  0  0  0  0  0
   12.4930   -1.8780   24.2550 C   0  0  0  0  0  0  0  0  0  0  0  0
   12.5850   -0.5640   25.0310 C   0  0  0  0  0  0  0  0  0  0  0  0
   13.5090   -1.8680   23.1470 C   0  0  0  0  0  0  0  0  0  0  0  0
   12.8220   -3.0500   25.1760 C   0  0  0  0  0  0  0  0  0  0  0  0
    6.2960    0.2730   17.8150 N   0  0  0  0  0  0  0  0  0  0  0  0
    5.2020    1.0670   17.8460 C   0  0  0  0  0  0  0  0  0  0  0  0
    4.6150    1.5440   18.9840 C   0  0  0  0  0  0  0  0  0  0  0  0
    5.1940    1.1920   20.1950 C   0  0  0  0  0  0  0  0  0  0  0  0
    6.3400    0.3720   20.2200 C   0  0  0  0  0  0  0  0  0  0  0  0
    6.8400   -0.0600   18.9970 C   0  0  0  0  0  0  0  0  0  0  0  0
    9.8660   -1.2480   21.8110 C   0  0  0  0  0  0  0  0  0  0  0  0
   11.0940   -1.3510   22.3510 C   0  0  0  0  0  0  0  0  0  0  0  0
   11.1410   -1.7860   23.6090 C   0  0  0  0  0  0  0  0  0  0  0  0
    9.9500   -2.1010   24.2290 C   0  0  0  0  0  0  0  0  0  0  0  0
    8.5650   -2.0680   23.8150 C   0  0  0  0  0  0  0  0  0  0  0  0
    8.6980   -1.5640   22.4560 C   0  0  0  0  0  0  0  0  0  0  0  0
    1.2350   -8.8500   21.1540 C   0  0  0  0  0  0  0  0  0  0  0  0
    2.4990   -7.3940   22.5820 N   0  0  0  0  0  0  0  0  0  0  0  0
    0.3450   -6.8410   22.1120 O   0  0  0  0  0  0  0  0  0  0  0  0
    1.2920   -7.6070   21.9890 C   0  0  0  0  0  0  0  0  0  0  0  0
    2.2210   -8.4990   26.1110 N   0  0  0  0  0  0  0  0  0  0  0  0
    3.9840   -8.2640   24.6770 O   0  0  0  0  0  0  0  0  0  0  0  0
    2.8430   -6.1870   23.3450 C   0  0  1  0  0  0  0  0  0  0  0  0
    2.4240   -6.4650   24.7730 C   0  0  0  0  0  0  0  0  0  0  0  0
    2.9570   -7.7920   25.1540 C   0  0  0  0  0  0  0  0  0  0  0  0
    6.5240   -5.1870   20.4910 C   0  0  0  0  0  0  0  0  0  0  0  0
    5.7480   -6.1180   19.9280 C   0  0  0  0  0  0  0  0  0  0  0  0
    4.2070   -6.0830   26.2320 O   0  0  0  0  0  0  0  0  0  0  0  0
    6.0090   -4.2480   26.2970 N   0  0  0  0  0  0  0  0  0  0  0  0
    1.7340   -5.0520   25.9570 F   0  0  0  0  0  0  0  0  0  0  0  0
    5.2640   -1.8190   26.0390 F   0  0  0  0  0  0  0  0  0  0  0  0
    4.7110   -4.7690   25.8470 S   0  0  2  0  0  0  0  0  0  0  0  0
    7.2850   -4.7300   25.6880 N   0  0  0  0  0  0  0  0  0  0  0  0
    7.4240   -5.2820   24.2850 C   0  0  2  0  0  0  0  0  0  0  0  0
    8.8390   -5.7330   24.2250 C   0  0  0  0  0  0  0  0  0  0  0  0
    9.7920   -4.5690   24.3070 C   0  0  0  0  0  0  0  0  0  0  0  0
    9.6370   -3.7220   25.4670 N   0  0  0  0  0  0  0  0  0  0  0  0
    9.4540   -4.4840   26.6840 C   0  0  0  0  0  0  0  0  0  0  0  0
    8.1710   -5.2710   26.6980 C   0  0  0  0  0  0  0  0  0  0  0  0
    2.1920   -3.7980   26.0170 C   0  0  0  0  0  0  0  0  0  0  0  0
    3.5410   -3.4990   25.9880 C   0  0  0  0  0  0  0  0  0  0  0  0
    3.9690   -2.1710   26.0580 C   0  0  0  0  0  0  0  0  0  0  0  0
    3.0430   -1.1470   26.1520 C   0  0  0  0  0  0  0  0  0  0  0  0
    1.6770   -1.4590   26.1760 C   0  0  0  0  0  0  0  0  0  0  0  0
    1.2570   -2.7860   26.1090 C   0  0  0  0  0  0  0  0  0  0  0  0
    6.5420   -5.3870   21.8910 N   0  0  0  0  0  0  0  0  0  0  0  0
    6.9790   -4.4580   23.0240 C   0  0  1  0  0  0  0  0  0  0  0  0
    5.7550   -3.6890   23.5310 C   0  0  0  0  0  0  0  0  0  0  0  0
    4.8970   -4.7050   24.1680 N   0  0  0  0  0  0  0  0  0  0  0  0
    4.2770   -5.5170   23.1280 C   0  0  1  0  0  0  0  0  0  0  0  0
    5.3970   -6.2840   22.3190 C   0  0  0  0  0  0  0  0  0  0  0  0
    8.7120   -2.5760   25.2430 C   0  0  0  0  0  0  0  0  0  0  0  0
  2  4  1  0
  3  4  1  0
  3  7  1  0
  6  7  2  0
  7  9  1  0
  1 10  1  0
  9 10  1  0
  1 11  1  0
  8 11  2  0
 12  5  1  6
 11 12  1  0
 13 14  1  0
 13 15  1  0
 13 16  1  0
 17 18  2  0
 18 19  1  0
 19 20  2  0
 12 21  1  0
 20 21  1  0
 17 22  1  0
 21 22  2  0
 23 24  2  0
 13 25  1  0
 24 25  1  0
 25 26  2  0
 26 27  1  0
  5 28  1  0
 23 28  1  0
 27 28  2  0
 29 32  1  0
 30 32  1  0
 31 32  2  0
 30 35  1  0
 35 36  1  1
 33 37  1  0
 34 37  2  0
 36 37  1  0
 38 39  2  3
 40 44  2  0
 41 44  2  0
 41 45  1  0
 45 46  1  0
 46 47  1  6
 47 48  1  0
 48 49  1  0
 49 50  1  0
 45 51  1  0
 50 51  1  0
 42 52  1  0
 44 53  1  6
 52 53  2  0
 43 54  1  0
 53 54  1  0
 54 55  2  0
 55 56  1  0
 52 57  1  0
 56 57  2  0
 38 58  1  0
 46 59  1  0
 59 58  1  6
 59 60  1  0
 44 61  1  0
 60 61  1  0
 35 62  1  0
 61 62  1  0
 58 63  1  0
 62 63  1  1
 27 64  1  0
 49 64  1  0
M  END
