x0981-x1458-x2705
     RDKit          3D

 57 61  0  0  0  0  0  0  0  0999 V2000
    1.1330   -8.7240   21.3820 C   0  0  0  0  0  0  0  0  0  0  0  0
    2.5860   -7.2780   22.6810 N   0  0  0  0  0  0  0  0  0  0  0  0
    0.4100   -6.5910   22.1610 O   0  0  0  0  0  0  0  0  0  0  0  0
    1.3840   -7.5410   22.0890 C   0  0  0  0  0  0  0  0  0  0  0  0
    2.4300   -8.2210   26.3770 N   0  0  0  0  0  0  0  0  0  0  0  0
    3.9810   -8.1880   24.6370 O   0  0  0  0  0  0  0  0  0  0  0  0
    2.8380   -6.0310   23.4190 C   0  0  1  0  0  0  0  0  0  0  0  0
    5.0500   -5.9800   22.0800 N   0  0  0  0  0  0  0  0  0  0  0  0
    4.7120   -4.5560   24.0380 N   0  0  0  0  0  0  0  0  0  0  0  0
    2.7610   -6.2820   24.7970 C   0  0  0  0  0  0  0  0  0  0  0  0
    3.1070   -7.5740   25.2240 C   0  0  0  0  0  0  0  0  0  0  0  0
    4.2750   -5.4830   23.1770 C   0  0  0  0  0  0  0  0  0  0  0  0
    6.7880   -5.4900   20.3740 C   0  0  0  0  0  0  0  0  0  0  0  0
    5.8150   -6.3660   19.7300 C   0  0  0  0  0  0  0  0  0  0  0  0
    7.6060   -0.7390   21.9270 N   0  0  0  0  0  0  0  0  0  0  0  0
    7.4830    2.4900   22.5340 N   0  0  0  0  0  0  0  0  0  0  0  0
    8.8370    1.4680   21.0800 O   0  0  0  0  0  0  0  0  0  0  0  0
    6.9550    0.4060   21.7210 C   0  0  1  0  0  0  0  0  0  0  0  0
    7.8170    1.4720   21.7580 C   0  0  0  0  0  0  0  0  0  0  0  0
   10.4040    2.3340   23.8390 C   0  0  0  0  0  0  0  0  0  0  0  0
    9.4720    1.4830   24.4330 C   0  0  0  0  0  0  0  0  0  0  0  0
    6.2780    4.7910   21.8750 C   0  0  0  0  0  0  0  0  0  0  0  0
   12.4660   -1.3880   23.2530 C   0  0  0  0  0  0  0  0  0  0  0  0
   12.8760   -0.0660   23.3750 C   0  0  0  0  0  0  0  0  0  0  0  0
   12.8130   -2.4470   24.2330 C   0  0  0  0  0  0  0  0  0  0  0  0
   12.8780   -1.8730   22.0280 C   0  0  0  0  0  0  0  0  0  0  0  0
    7.2410   -1.7630   21.2540 C   0  0  0  0  0  0  0  0  0  0  0  0
    7.7030   -4.1670   25.9820 N   0  0  0  0  0  0  0  0  0  0  0  0
    9.3030   -4.8990   27.6560 C   0  0  0  0  0  0  0  0  0  0  0  0
    5.5210   -3.6040   26.1480 O   0  0  0  0  0  0  0  0  0  0  0  0
    8.0560   -5.1100   27.0700 C   0  0  0  0  0  0  0  0  0  0  0  0
    6.9750   -5.5130   27.8600 C   0  0  0  0  0  0  0  0  0  0  0  0
    8.6020   -3.0520   25.7530 C   0  0  0  0  0  0  0  0  0  0  0  0
    6.4800   -3.9610   25.4140 C   0  0  0  0  0  0  0  0  0  0  0  0
    6.3500    0.2030   17.9770 N   0  0  0  0  0  0  0  0  0  0  0  0
    5.2250    0.9280   17.8750 C   0  0  0  0  0  0  0  0  0  0  0  0
    4.5670    1.5180   18.9430 C   0  0  0  0  0  0  0  0  0  0  0  0
    5.1150    1.3560   20.2250 C   0  0  0  0  0  0  0  0  0  0  0  0
    6.2950    0.6050   20.3550 C   0  0  0  0  0  0  0  0  0  0  0  0
    6.8670    0.0480   19.2070 C   0  0  0  0  0  0  0  0  0  0  0  0
   10.1680   -1.2790   24.3500 N   0  0  0  0  0  0  0  0  0  0  0  0
    8.8550   -1.1100   24.0930 N   0  0  0  0  0  0  0  0  0  0  0  0
    8.7720   -0.9600   22.7740 C   0  0  0  0  0  0  0  0  0  0  0  0
   10.0280   -1.0440   22.2260 C   0  0  0  0  0  0  0  0  0  0  0  0
   10.9620   -1.2450   23.2330 C   0  0  0  0  0  0  0  0  0  0  0  0
    9.6700    3.5920   23.4580 C   0  0  0  0  0  0  0  0  0  0  0  0
   10.3870    4.9190   23.7140 C   0  0  0  0  0  0  0  0  0  0  0  0
    9.6710    6.2480   23.3270 C   0  0  0  0  0  0  0  0  0  0  0  0
    8.2800    6.1680   22.7060 C   0  0  0  0  0  0  0  0  0  0  0  0
    7.7090    4.7590   22.5210 C   0  0  0  0  0  0  0  0  0  0  0  0
    8.2480    3.6210   22.8220 C   0  0  0  0  0  0  0  0  0  0  0  0
    5.8010   -3.7410   21.5680 N   0  0  0  0  0  0  0  0  0  0  0  0
    6.7900   -2.9120   22.1740 C   0  0  2  0  0  0  0  0  0  0  0  0
    6.3510   -2.7060   23.4210 C   0  0  0  0  0  0  0  0  0  0  0  0
    6.1060   -4.0800   23.9130 C   0  0  2  0  0  0  0  0  0  0  0  0
    6.9130   -5.0900   23.0230 C   0  0  0  0  0  0  0  0  0  0  0  0
    6.1860   -5.1090   21.7970 C   0  0  1  0  0  0  0  0  0  0  0  0
  1  4  1  0
  2  4  1  0
  3  4  2  0
  2  7  1  0
  7 10  1  1
  5 11  1  0
  6 11  2  0
 10 11  1  0
  7 12  1  0
  8 12  1  0
  9 12  2  0
 13 14  2  3
 15 18  1  0
 16 19  1  0
 17 19  2  0
 18 19  1  6
 20 21  1  0
 23 24  1  0
 23 25  1  0
 23 26  1  0
 15 27  1  0
 28 31  1  0
 29 31  1  0
 31 32  1  0
 28 33  1  0
 28 34  1  0
 30 34  2  0
 35 36  2  0
 36 37  1  0
 37 38  2  0
 18 39  1  0
 38 39  1  0
 35 40  1  0
 39 40  2  0
 41 42  1  0
 15 43  1  0
 42 43  1  0
 43 44  2  0
 23 45  1  0
 41 45  2  0
 44 45  1  0
 20 46  1  0
 46 47  2  0
 47 48  1  0
 48 49  2  0
 22 50  1  0
 49 50  1  0
 16 51  1  0
 46 51  1  0
 50 51  2  0
 53 27  1  6
 52 53  1  0
 53 54  1  0
  9 55  1  0
 55 34  1  1
 54 55  1  0
 55 56  1  0
  8 57  1  0
 57 13  1  6
 52 57  1  0
 56 57  1  0
M  END
