x0981-x3110-x3113-x1358
     RDKit          3D

 58 62  0  0  0  0  0  0  0  0999 V2000
    8.0860    1.5150   23.3000 N   0  0  0  0  0  0  0  0  0  0  0  0
   13.3990    5.2510   22.9290 C   0  0  0  0  0  0  0  0  0  0  0  0
   12.0700    3.2860   22.3800 O   0  0  0  0  0  0  0  0  0  0  0  0
   12.4570    4.5820   21.9570 C   0  0  0  0  0  0  0  0  0  0  0  0
    7.5870   -1.3820   21.7980 N   0  0  0  0  0  0  0  0  0  0  0  0
   11.1490    4.2560   24.0590 O   0  0  0  0  0  0  0  0  0  0  0  0
   11.2510    3.2630   23.3490 C   0  0  0  0  0  0  0  0  0  0  0  0
    8.7620    1.7130   21.1360 O   0  0  0  0  0  0  0  0  0  0  0  0
   10.3980    2.0380   23.6390 C   0  0  0  0  0  0  0  0  0  0  0  0
    8.9530    2.4730   23.7950 C   0  0  0  0  0  0  0  0  0  0  0  0
    8.0420    1.1550   21.9730 C   0  0  0  0  0  0  0  0  0  0  0  0
    7.0140    0.0220   21.6250 C   0  0  1  0  0  0  0  0  0  0  0  0
   12.5560   -1.7900   24.2360 C   0  0  0  0  0  0  0  0  0  0  0  0
   12.6570   -0.5560   25.0960 C   0  0  0  0  0  0  0  0  0  0  0  0
   13.5320   -1.7460   23.0960 C   0  0  0  0  0  0  0  0  0  0  0  0
   12.8980   -3.0230   25.0500 C   0  0  0  0  0  0  0  0  0  0  0  0
    1.2470   -8.7700   21.2680 C   0  0  0  0  0  0  0  0  0  0  0  0
    2.6310   -7.3180   22.8140 N   0  0  0  0  0  0  0  0  0  0  0  0
    0.4310   -6.6820   22.1020 O   0  0  0  0  0  0  0  0  0  0  0  0
    1.3450   -7.5050   22.0750 C   0  0  0  0  0  0  0  0  0  0  0  0
    2.4410   -8.3780   26.3190 N   0  0  0  0  0  0  0  0  0  0  0  0
    3.9630   -8.2230   24.6470 O   0  0  0  0  0  0  0  0  0  0  0  0
    2.8330   -6.0740   23.5730 C   0  0  1  0  0  0  0  0  0  0  0  0
    5.3690   -5.7330   22.7850 N   0  0  0  0  0  0  0  0  0  0  0  0
    3.9620   -3.9900   23.7970 N   0  0  0  0  0  0  0  0  0  0  0  0
    2.6870   -6.3060   25.0570 C   0  0  0  0  0  0  0  0  0  0  0  0
    3.0900   -7.7190   25.3180 C   0  0  0  0  0  0  0  0  0  0  0  0
    4.1330   -5.2410   23.3640 C   0  0  0  0  0  0  0  0  0  0  0  0
    6.4460   -5.1710   20.4660 C   0  0  0  0  0  0  0  0  0  0  0  0
    5.7420   -6.1530   19.9580 C   0  0  0  0  0  0  0  0  0  0  0  0
    6.7270   -2.5460   25.4020 N   0  0  0  0  0  0  0  0  0  0  0  0
    5.5600    0.0530   25.1030 O   0  0  0  0  0  0  0  0  0  0  0  0
    5.8750   -4.7130   25.4790 O   0  0  0  0  0  0  0  0  0  0  0  0
    5.9910   -3.6450   24.9030 C   0  0  0  0  0  0  0  0  0  0  0  0
    6.3200    0.1930   17.8690 N   0  0  0  0  0  0  0  0  0  0  0  0
    5.2370    0.9850   17.8880 C   0  0  0  0  0  0  0  0  0  0  0  0
    4.6740    1.4810   19.0480 C   0  0  0  0  0  0  0  0  0  0  0  0
    5.2460    1.1600   20.2760 C   0  0  0  0  0  0  0  0  0  0  0  0
    6.3820    0.3410   20.2820 C   0  0  0  0  0  0  0  0  0  0  0  0
    6.8640   -0.1120   19.0610 C   0  0  0  0  0  0  0  0  0  0  0  0
    9.8160   -2.1040   21.7860 C   0  0  0  0  0  0  0  0  0  0  0  0
   11.0530   -2.2330   22.3530 C   0  0  0  0  0  0  0  0  0  0  0  0
   11.2280   -1.7010   23.6060 C   0  0  0  0  0  0  0  0  0  0  0  0
   10.1960   -1.0630   24.2800 C   0  0  0  0  0  0  0  0  0  0  0  0
    8.9770   -0.9510   23.6710 C   0  0  0  0  0  0  0  0  0  0  0  0
    8.7810   -1.4690   22.4050 C   0  0  0  0  0  0  0  0  0  0  0  0
    5.9680   -0.2820   26.3570 C   0  0  0  0  0  0  0  0  0  0  0  0
    6.5850   -1.6800   26.5480 C   0  0  0  0  0  0  0  0  0  0  0  0
    6.9990   -1.9690   28.0200 C   0  0  0  0  0  0  0  0  0  0  0  0
    6.7920   -0.8820   29.1080 C   0  0  0  0  0  0  0  0  0  0  0  0
    6.2350    0.3460   28.8110 C   0  0  0  0  0  0  0  0  0  0  0  0
    5.7980    0.6590   27.3690 C   0  0  0  0  0  0  0  0  0  0  0  0
    7.2790   -3.8710   22.4730 N   0  0  0  0  0  0  0  0  0  0  0  0
    6.9340   -2.4020   22.6070 C   0  0  2  0  0  0  0  0  0  0  0  0
    5.5350   -2.0170   23.0930 C   0  0  0  0  0  0  0  0  0  0  0  0
    5.2310   -3.3650   23.5440 C   0  0  2  0  0  0  0  0  0  0  0  0
    5.2870   -3.9500   22.1360 C   0  0  0  0  0  0  0  0  0  0  0  0
    6.2410   -4.7940   22.0110 C   0  0  2  0  0  0  0  0  0  0  0  0
  2  4  1  0
  3  4  1  0
  3  7  1  0
  6  7  2  0
  7  9  1  0
  1 10  1  0
  9 10  1  0
  1 11  1  0
  8 11  2  0
  5 12  1  0
 12 11  1  6
 13 14  1  0
 13 15  1  0
 13 16  1  0
 17 20  1  0
 18 20  1  0
 19 20  2  0
 18 23  1  0
 23 26  1  1
 21 27  1  0
 22 27  2  0
 26 27  1  0
 23 28  1  0
 24 28  1  0
 25 28  2  0
 29 30  2  3
 31 34  1  0
 33 34  2  0
 35 36  2  0
 36 37  1  0
 37 38  2  0
 12 39  1  0
 38 39  1  0
 35 40  1  0
 39 40  2  0
 41 42  2  0
 13 43  1  0
 42 43  1  0
 43 44  2  0
 44 45  1  0
  5 46  1  0
 41 46  1  0
 45 46  2  0
 32 47  1  0
 31 48  1  0
 47 48  2  0
 48 49  1  0
 49 50  2  0
 50 51  1  0
 47 52  1  0
 51 52  2  0
 54  5  1  6
 53 54  1  0
 54 55  1  0
 25 56  1  0
 56 34  1  1
 55 56  1  0
 56 57  1  0
 24 58  1  0
 58 29  1  6
 53 58  1  0
 57 58  1  0
M  END
