x0981-x0755-x2776-x0691
     RDKit          3D

 59 63  0  0  0  0  0  0  0  0999 V2000
    1.0960   -8.6450   21.5940 C   0  0  0  0  0  0  0  0  0  0  0  0
    2.8430   -6.9560   22.5910 N   0  0  0  0  0  0  0  0  0  0  0  0
    0.5760   -6.5010   22.5120 O   0  0  0  0  0  0  0  0  0  0  0  0
    1.4650   -7.3140   22.2750 C   0  0  0  0  0  0  0  0  0  0  0  0
    2.4040   -8.2870   26.3510 N   0  0  0  0  0  0  0  0  0  0  0  0
    3.8830   -8.3480   24.5640 O   0  0  0  0  0  0  0  0  0  0  0  0
    3.2930   -5.9800   23.6310 C   0  0  1  0  0  0  0  0  0  0  0  0
    2.7610   -6.3580   24.8630 C   0  0  0  0  0  0  0  0  0  0  0  0
    3.0780   -7.7630   25.2380 C   0  0  0  0  0  0  0  0  0  0  0  0
    6.6370   -5.1040   20.3360 C   0  0  0  0  0  0  0  0  0  0  0  0
    5.8410   -6.0700   19.8770 C   0  0  0  0  0  0  0  0  0  0  0  0
    4.5970   -6.1410   26.3420 O   0  0  0  0  0  0  0  0  0  0  0  0
    6.0810   -4.2620   27.1070 O   0  0  0  0  0  0  0  0  0  0  0  0
    5.3870   -1.9160   26.1300 F   0  0  0  0  0  0  0  0  0  0  0  0
    5.0950   -4.8340   26.0000 S   0  0  0  0  0  0  0  0  0  0  0  0
    7.1440   -1.1210   22.1520 N   0  0  0  0  0  0  0  0  0  0  0  0
    7.8840    2.0600   22.9630 N   0  0  0  0  0  0  0  0  0  0  0  0
    8.9450    1.3870   21.0520 O   0  0  0  0  0  0  0  0  0  0  0  0
   10.8210    6.7180   23.8760 O   0  0  0  0  0  0  0  0  0  0  0  0
    6.8810    0.2680   21.6390 C   0  0  1  0  0  0  0  0  0  0  0  0
   12.4430   -2.8780   25.0050 O   0  0  0  0  0  0  0  0  0  0  0  0
    8.0170    1.2710   21.8380 C   0  0  0  0  0  0  0  0  0  0  0  0
   10.6130    1.8520   23.8650 C   0  0  0  0  0  0  0  0  0  0  0  0
   11.8450    6.6060   24.8650 C   0  0  0  0  0  0  0  0  0  0  0  0
   12.1820   -1.5490   24.5920 C   0  0  1  0  0  0  0  0  0  0  0  0
   13.2100   -1.1360   23.5530 C   0  0  0  0  0  0  0  0  0  0  0  0
   13.7250   -2.9760   25.5440 C   0  0  0  0  0  0  0  0  0  0  0  0
    5.8110   -3.2340   21.9210 C   0  0  0  0  0  0  0  0  0  0  0  0
    6.8040   -2.1440   21.4560 C   0  0  0  0  0  0  0  0  0  0  0  0
    2.3150   -3.9980   25.8850 C   0  0  0  0  0  0  0  0  0  0  0  0
    3.7980   -3.6490   25.9770 C   0  0  0  0  0  0  0  0  0  0  0  0
    4.1130   -2.3130   26.0450 C   0  0  0  0  0  0  0  0  0  0  0  0
    3.1120   -1.3240   26.0290 C   0  0  0  0  0  0  0  0  0  0  0  0
    1.7420   -1.6320   25.9450 C   0  0  0  0  0  0  0  0  0  0  0  0
    1.3760   -2.9770   25.8740 C   0  0  0  0  0  0  0  0  0  0  0  0
    6.3570   -4.7030   21.8120 C   0  0  2  0  0  0  0  0  0  0  0  0
    7.4060   -4.9170   22.7030 C   0  0  0  0  0  0  0  0  0  0  0  0
    6.9740   -4.7180   24.0510 C   0  0  0  0  0  0  0  0  0  0  0  0
    5.5200   -4.9110   24.3590 N   0  0  0  0  0  0  0  0  0  0  0  0
    4.8250   -5.9840   23.5800 C   0  0  2  0  0  0  0  0  0  0  0  0
    5.3410   -5.8180   22.1600 C   0  0  0  0  0  0  0  0  0  0  0  0
    6.2630    0.2330   17.8460 N   0  0  0  0  0  0  0  0  0  0  0  0
    5.1740    1.0030   17.8130 C   0  0  0  0  0  0  0  0  0  0  0  0
    4.5460    1.5740   19.0390 C   0  0  0  0  0  0  0  0  0  0  0  0
    5.1660    1.2690   20.2230 C   0  0  0  0  0  0  0  0  0  0  0  0
    6.3070    0.4730   20.2640 C   0  0  0  0  0  0  0  0  0  0  0  0
    6.9030   -0.0820   19.1270 C   0  0  0  0  0  0  0  0  0  0  0  0
    9.9400    3.1590   23.6220 C   0  0  0  0  0  0  0  0  0  0  0  0
   10.6220    4.3280   23.8280 C   0  0  0  0  0  0  0  0  0  0  0  0
   10.0840    5.5810   23.6360 C   0  0  0  0  0  0  0  0  0  0  0  0
    8.7980    5.8130   23.2020 C   0  0  0  0  0  0  0  0  0  0  0  0
    7.9730    4.6680   22.9430 C   0  0  0  0  0  0  0  0  0  0  0  0
    8.6120    3.2800   23.1820 C   0  0  0  0  0  0  0  0  0  0  0  0
    9.5520   -1.9370   21.9270 C   0  0  0  0  0  0  0  0  0  0  0  0
   10.7520   -1.9850   22.6280 C   0  0  0  0  0  0  0  0  0  0  0  0
   10.8700   -1.4850   23.9180 C   0  0  0  0  0  0  0  0  0  0  0  0
    9.8090   -0.9220   24.5910 C   0  0  0  0  0  0  0  0  0  0  0  0
    8.5760   -0.8200   23.9910 C   0  0  0  0  0  0  0  0  0  0  0  0
    8.3990   -1.2860   22.7000 C   0  0  0  0  0  0  0  0  0  0  0  0
  1  4  1  0
  2  4  1  0
  3  4  2  0
  2  7  1  0
  7  8  1  1
  5  9  1  0
  6  9  2  0
  8  9  1  0
 10 11  2  3
 12 15  2  0
 13 15  2  0
 16 20  1  0
 17 22  1  0
 18 22  2  0
 20 22  1  6
 19 24  1  0
 21 25  1  0
 25 26  1  6
 21 27  1  0
 16 29  1  0
 28 29  1  0
 15 31  1  0
 30 31  2  0
 14 32  1  0
 31 32  1  0
 32 33  2  0
 33 34  1  0
 30 35  1  0
 34 35  2  0
 36 10  1  6
 28 36  1  0
 36 37  1  0
 37 38  1  0
 15 39  1  0
 38 39  1  0
  7 40  1  0
 39 40  1  0
 36 41  1  0
 40 41  1  6
 42 43  2  0
 43 44  1  0
 44 45  2  0
 20 46  1  0
 45 46  1  0
 42 47  1  0
 46 47  2  0
 23 48  1  0
 48 49  2  0
 19 50  1  0
 49 50  1  0
 50 51  2  0
 51 52  1  0
 17 53  1  0
 48 53  1  0
 52 53  2  0
 54 55  2  0
 25 56  1  0
 55 56  1  0
 56 57  2  0
 57 58  1  0
 16 59  1  0
 54 59  1  0
 58 59  2  0
M  END
