x0981-x0755-x3110-x3113-x0426
     RDKit          3D

 70 74  0  0  0  0  0  0  0  0999 V2000
    7.6450    2.0670   23.1900 N   0  0  0  0  0  0  0  0  0  0  0  0
   13.5170    5.3210   22.6980 C   0  0  0  0  0  0  0  0  0  0  0  0
   12.2290    3.3880   22.6380 O   0  0  0  0  0  0  0  0  0  0  0  0
   12.4640    4.5860   21.9480 C   0  0  0  0  0  0  0  0  0  0  0  0
    7.0930   -1.2190   22.2940 N   0  0  0  0  0  0  0  0  0  0  0  0
   10.9910    4.0230   24.3940 O   0  0  0  0  0  0  0  0  0  0  0  0
   11.1080    3.2860   23.3710 C   0  0  0  0  0  0  0  0  0  0  0  0
    8.3990    1.5340   21.1130 O   0  0  0  0  0  0  0  0  0  0  0  0
   10.0410    2.3420   22.9680 C   0  0  0  0  0  0  0  0  0  0  0  0
    8.7550    2.9840   23.3820 C   0  0  0  0  0  0  0  0  0  0  0  0
    7.5480    1.2130   22.1180 C   0  0  0  0  0  0  0  0  0  0  0  0
    6.7450    0.0830   21.8280 C   0  0  1  0  0  0  0  0  0  0  0  0
   12.5170   -1.9210   23.8230 C   0  0  0  0  0  0  0  0  0  0  0  0
   12.9750   -0.5400   24.0890 C   0  0  0  0  0  0  0  0  0  0  0  0
   13.3020   -2.3810   22.6570 C   0  0  0  0  0  0  0  0  0  0  0  0
   12.8230   -2.8330   24.9720 C   0  0  0  0  0  0  0  0  0  0  0  0
    2.2770    1.8670   23.7890 C   0  0  0  0  0  0  0  0  0  0  0  0
    2.1700    0.6560   23.6560 O   0  0  0  0  0  0  0  0  0  0  0  0
    3.3330    2.5950   23.2750 N   0  0  0  0  0  0  0  0  0  0  0  0
    4.3830    2.0090   22.5890 C   0  0  0  0  0  0  0  0  0  0  0  0
    3.9310    1.2890   21.3150 C   0  0  0  0  0  0  0  0  0  0  0  0
    2.7520    4.3160   25.2100 F   0  0  0  0  0  0  0  0  0  0  0  0
    1.1970   -8.7550   21.2710 C   0  0  0  0  0  0  0  0  0  0  0  0
    2.7350   -7.5360   22.7570 N   0  0  0  0  0  0  0  0  0  0  0  0
    0.6200   -6.6680   22.2870 O   0  0  0  0  0  0  0  0  0  0  0  0
    1.4360   -7.5940   22.1090 C   0  0  0  0  0  0  0  0  0  0  0  0
    2.3370   -8.4210   26.3200 N   0  0  0  0  0  0  0  0  0  0  0  0
    3.9160   -8.3180   24.6930 O   0  0  0  0  0  0  0  0  0  0  0  0
    3.2130   -6.3900   23.5290 C   0  0  1  0  0  0  0  0  0  0  0  0
    2.6250   -6.5520   24.9240 C   0  0  0  0  0  0  0  0  0  0  0  0
    3.0040   -7.8080   25.2960 C   0  0  0  0  0  0  0  0  0  0  0  0
    6.6810   -5.1780   20.2990 C   0  0  0  0  0  0  0  0  0  0  0  0
    5.8760   -6.1070   19.8570 C   0  0  0  0  0  0  0  0  0  0  0  0
    6.8230   -2.3100   21.3940 C   0  0  0  0  0  0  0  0  0  0  0  0
    5.8380   -3.3070   21.8940 C   0  0  0  0  0  0  0  0  0  0  0  0
    4.1920   -6.2090   26.4280 O   0  0  0  0  0  0  0  0  0  0  0  0
    6.0710   -4.7160   26.8560 O   0  0  0  0  0  0  0  0  0  0  0  0
    2.4460   -5.3340   26.3060 F   0  0  0  0  0  0  0  0  0  0  0  0
    5.4080   -1.5060   25.8310 F   0  0  0  0  0  0  0  0  0  0  0  0
    4.9270   -5.0280   26.0450 S   0  0  0  0  0  0  0  0  0  0  0  0
    6.5500    0.2780   18.0450 N   0  0  0  0  0  0  0  0  0  0  0  0
    5.3490    0.8380   17.8790 C   0  0  0  0  0  0  0  0  0  0  0  0
    4.4800    1.1770   18.9010 C   0  0  0  0  0  0  0  0  0  0  0  0
    4.9030    0.9240   20.2000 C   0  0  0  0  0  0  0  0  0  0  0  0
    6.1750    0.3530   20.4260 C   0  0  0  0  0  0  0  0  0  0  0  0
    6.9330    0.0460   19.3180 C   0  0  0  0  0  0  0  0  0  0  0  0
    9.4080   -1.6050   21.7800 C   0  0  0  0  0  0  0  0  0  0  0  0
   10.7140   -1.7810   22.1350 C   0  0  0  0  0  0  0  0  0  0  0  0
   11.0650   -1.7480   23.4470 C   0  0  0  0  0  0  0  0  0  0  0  0
   10.1100   -1.5450   24.4080 C   0  0  0  0  0  0  0  0  0  0  0  0
    8.7700   -1.3700   24.0550 C   0  0  0  0  0  0  0  0  0  0  0  0
    8.4100   -1.3930   22.7500 C   0  0  0  0  0  0  0  0  0  0  0  0
    1.5110    3.8030   25.2110 C   0  0  0  0  0  0  0  0  0  0  0  0
    1.2260    2.6160   24.5370 C   0  0  0  0  0  0  0  0  0  0  0  0
   -0.0710    2.0690   24.5320 C   0  0  0  0  0  0  0  0  0  0  0  0
   -1.1800    2.7950   25.2780 C   0  0  0  0  0  0  0  0  0  0  0  0
   -0.7990    3.9680   25.9160 C   0  0  0  0  0  0  0  0  0  0  0  0
    0.5210    4.5070   25.9110 C   0  0  0  0  0  0  0  0  0  0  0  0
    2.7260   -4.0350   26.2090 C   0  0  0  0  0  0  0  0  0  0  0  0
    3.9300   -3.4890   26.0630 C   0  0  0  0  0  0  0  0  0  0  0  0
    4.1850   -2.0250   25.9660 C   0  0  0  0  0  0  0  0  0  0  0  0
    3.0930   -1.2250   26.0260 C   0  0  0  0  0  0  0  0  0  0  0  0
    1.8270   -1.7740   26.1750 C   0  0  0  0  0  0  0  0  0  0  0  0
    1.6390   -3.1390   26.2670 C   0  0  0  0  0  0  0  0  0  0  0  0
    6.3170   -4.7940   21.7610 C   0  0  2  0  0  0  0  0  0  0  0  0
    7.3260   -5.0360   22.6780 C   0  0  0  0  0  0  0  0  0  0  0  0
    6.8890   -4.9370   24.1480 C   0  0  0  0  0  0  0  0  0  0  0  0
    5.4320   -5.1520   24.4030 N   0  0  0  0  0  0  0  0  0  0  0  0
    4.7980   -6.1630   23.4930 C   0  0  2  0  0  0  0  0  0  0  0  0
    5.1590   -5.7990   22.0660 C   0  0  0  0  0  0  0  0  0  0  0  0
  2  4  1  0
  3  4  1  0
  3  7  1  0
  6  7  2  0
  7  9  1  0
  1 10  1  0
  9 10  1  0
  1 11  1  0
  8 11  2  0
  5 12  1  0
 12 11  1  6
 13 14  1  0
 13 15  1  0
 13 16  1  0
 17 18  2  0
 17 19  1  0
 19 20  1  0
 20 21  1  0
 23 26  1  0
 24 26  1  0
 25 26  2  0
 24 29  1  0
 29 30  1  1
 27 31  1  0
 28 31  2  0
 30 31  1  0
 32 33  2  3
  5 34  1  0
 34 35  1  0
 36 40  2  0
 37 40  2  0
 41 42  2  0
 42 43  1  0
 21 44  1  0
 43 44  2  0
 12 45  1  0
 44 45  1  0
 41 46  1  0
 45 46  2  0
 47 48  2  0
 13 49  1  0
 48 49  1  0
 49 50  2  0
 50 51  1  0
  5 52  1  0
 47 52  1  0
 51 52  2  0
 22 53  1  0
 17 54  1  0
 53 54  2  0
 54 55  1  0
 55 56  2  0
 56 57  1  0
 53 58  1  0
 57 58  2  0
 38 59  1  0
 40 60  1  0
 59 60  2  0
 39 61  1  0
 60 61  1  0
 61 62  2  0
 62 63  1  0
 59 64  1  0
 63 64  2  0
 65 32  1  6
 35 65  1  0
 65 66  1  0
 66 67  1  0
 40 68  1  0
 67 68  1  0
 29 69  1  0
 68 69  1  0
 65 70  1  0
 69 70  1  6
M  END
