x0981-x3113-x3110-x0734
     RDKit          3D

 57 61  0  0  0  0  0  0  0  0999 V2000
    8.0630    1.5300   23.3120 N   0  0  0  0  0  0  0  0  0  0  0  0
   13.3750    5.2480   22.9160 C   0  0  0  0  0  0  0  0  0  0  0  0
   12.0820    3.2500   22.3960 O   0  0  0  0  0  0  0  0  0  0  0  0
   12.4740    4.5320   21.9370 C   0  0  0  0  0  0  0  0  0  0  0  0
    7.5670   -1.3530   21.8800 N   0  0  0  0  0  0  0  0  0  0  0  0
   11.1450    4.2830   24.0220 O   0  0  0  0  0  0  0  0  0  0  0  0
   11.2460    3.2660   23.3480 C   0  0  0  0  0  0  0  0  0  0  0  0
    8.6880    1.6970   21.1330 O   0  0  0  0  0  0  0  0  0  0  0  0
   10.3680    2.0630   23.6600 C   0  0  0  0  0  0  0  0  0  0  0  0
    8.9240    2.5280   23.7130 C   0  0  0  0  0  0  0  0  0  0  0  0
    7.9820    1.1520   21.9960 C   0  0  0  0  0  0  0  0  0  0  0  0
    6.9430    0.0200   21.6930 C   0  0  1  0  0  0  0  0  0  0  0  0
   12.6230   -1.9560   24.3420 C   0  0  0  0  0  0  0  0  0  0  0  0
   12.7890   -0.6060   25.0010 C   0  0  0  0  0  0  0  0  0  0  0  0
   13.5550   -2.1250   23.1640 C   0  0  0  0  0  0  0  0  0  0  0  0
   12.9590   -3.0790   25.3250 C   0  0  0  0  0  0  0  0  0  0  0  0
    1.1500   -8.7630   21.2390 C   0  0  0  0  0  0  0  0  0  0  0  0
    2.5290   -7.3880   22.7970 N   0  0  0  0  0  0  0  0  0  0  0  0
    0.3670   -6.6520   22.0700 O   0  0  0  0  0  0  0  0  0  0  0  0
    1.2530   -7.5030   22.0490 C   0  0  0  0  0  0  0  0  0  0  0  0
    2.5030   -8.1990   26.3560 N   0  0  0  0  0  0  0  0  0  0  0  0
    3.8750   -8.2600   24.5660 O   0  0  0  0  0  0  0  0  0  0  0  0
    2.9150   -6.1090   23.4010 C   0  0  1  0  0  0  0  0  0  0  0  0
    4.7410   -5.5120   21.7410 N   0  0  0  0  0  0  0  0  0  0  0  0
    5.2450   -5.5180   23.9090 N   0  0  0  0  0  0  0  0  0  0  0  0
    2.7560   -6.2200   24.9010 C   0  0  0  0  0  0  0  0  0  0  0  0
    3.0950   -7.6420   25.2570 C   0  0  0  0  0  0  0  0  0  0  0  0
    4.3720   -5.6920   23.0240 C   0  0  0  0  0  0  0  0  0  0  0  0
    6.6560   -5.2170   20.3710 C   0  0  0  0  0  0  0  0  0  0  0  0
    5.9460   -6.1480   19.8220 C   0  0  0  0  0  0  0  0  0  0  0  0
    5.3080   -4.7820   26.3640 N   0  0  0  0  0  0  0  0  0  0  0  0
    4.6310   -5.7680   26.0790 O   0  0  0  0  0  0  0  0  0  0  0  0
    4.8730   -3.7470   26.8920 O   0  0  0  0  0  0  0  0  0  0  0  0
    6.3140    0.1950   17.9490 N   0  0  0  0  0  0  0  0  0  0  0  0
    5.2210    0.9780   17.9130 C   0  0  0  0  0  0  0  0  0  0  0  0
    4.6110    1.4800   19.0180 C   0  0  0  0  0  0  0  0  0  0  0  0
    5.1580    1.1670   20.2580 C   0  0  0  0  0  0  0  0  0  0  0  0
    6.3000    0.3610   20.3590 C   0  0  0  0  0  0  0  0  0  0  0  0
    6.8260   -0.0960   19.1590 C   0  0  0  0  0  0  0  0  0  0  0  0
    9.9650   -1.2290   21.8320 C   0  0  0  0  0  0  0  0  0  0  0  0
   11.1750   -1.3950   22.4530 C   0  0  0  0  0  0  0  0  0  0  0  0
   11.2620   -1.8350   23.7700 C   0  0  0  0  0  0  0  0  0  0  0  0
   10.1080   -2.1090   24.4600 C   0  0  0  0  0  0  0  0  0  0  0  0
    8.8970   -1.9340   23.8080 C   0  0  0  0  0  0  0  0  0  0  0  0
    8.7910   -1.4920   22.4800 C   0  0  0  0  0  0  0  0  0  0  0  0
    6.7420   -4.9430   26.3590 C   0  0  0  0  0  0  0  0  0  0  0  0
    7.5940   -4.6050   25.1270 C   0  0  0  0  0  0  0  0  0  0  0  0
    9.0930   -4.8050   25.2700 C   0  0  0  0  0  0  0  0  0  0  0  0
    9.6130   -5.3370   26.5960 C   0  0  0  0  0  0  0  0  0  0  0  0
    8.6150   -5.6410   27.7250 C   0  0  0  0  0  0  0  0  0  0  0  0
    7.2710   -5.4280   27.5470 C   0  0  0  0  0  0  0  0  0  0  0  0
    5.7730   -3.2320   21.5000 N   0  0  0  0  0  0  0  0  0  0  0  0
    5.9310   -4.6780   21.6690 C   0  0  1  0  0  0  0  0  0  0  0  0
    6.4530   -5.1460   23.0870 C   0  0  1  0  0  0  0  0  0  0  0  0
    7.1240   -4.1600   23.9300 N   0  0  0  0  0  0  0  0  0  0  0  0
    6.6780   -2.7870   23.6780 C   0  0  0  0  0  0  0  0  0  0  0  0
    6.8810   -2.6190   22.2000 C   0  0  2  0  0  0  0  0  0  0  0  0
  2  4  1  0
  3  4  1  0
  3  7  1  0
  6  7  2  0
  7  9  1  0
  1 10  1  0
  9 10  1  0
  1 11  1  0
  8 11  2  0
  5 12  1  0
 12 11  1  6
 13 14  1  0
 13 15  1  0
 13 16  1  0
 17 20  1  0
 18 20  1  0
 19 20  2  0
 18 23  1  0
 23 26  1  1
 21 27  1  0
 22 27  2  0
 26 27  1  0
 23 28  1  0
 24 28  1  0
 25 28  2  0
 29 30  2  3
 31 32  2  0
 31 33  1  0
 34 35  2  0
 35 36  1  0
 36 37  2  0
 12 38  1  0
 37 38  1  0
 34 39  1  0
 38 39  2  0
 40 41  2  0
 13 42  1  0
 41 42  1  0
 42 43  2  0
 43 44  1  0
  5 45  1  0
 40 45  1  0
 44 45  2  0
 31 46  1  0
 46 47  2  0
 47 48  1  0
 48 49  2  0
 49 50  1  0
 46 51  1  0
 50 51  2  0
 24 53  1  0
 53 29  1  6
 52 53  1  0
 54 25  1  1
 53 54  1  0
 47 55  1  0
 54 55  1  0
 55 56  1  0
 57  5  1  1
 52 57  1  0
 56 57  1  0
M  CHG  2  31   1  33  -1
M  END
