x0981-x0689-x0978-x3110
     RDKit          3D

 67 70  0  0  0  0  0  0  0  0999 V2000
    8.0390    1.7680   23.2400 N   0  0  0  0  0  0  0  0  0  0  0  0
   13.3620    5.2850   22.9360 C   0  0  0  0  0  0  0  0  0  0  0  0
   12.0930    3.3630   22.2740 O   0  0  0  0  0  0  0  0  0  0  0  0
   12.5850    4.6250   21.8110 C   0  0  0  0  0  0  0  0  0  0  0  0
    6.9350   -0.9210   22.1350 N   0  0  0  0  0  0  0  0  0  0  0  0
   11.2150    4.4520   24.0820 O   0  0  0  0  0  0  0  0  0  0  0  0
   11.2680    3.4830   23.3390 C   0  0  0  0  0  0  0  0  0  0  0  0
    8.6220    1.8360   21.0320 O   0  0  0  0  0  0  0  0  0  0  0  0
   10.4110    2.2630   23.4840 C   0  0  0  0  0  0  0  0  0  0  0  0
    8.9550    2.7480   23.5820 C   0  0  0  0  0  0  0  0  0  0  0  0
    7.8690    1.4070   21.9140 C   0  0  0  0  0  0  0  0  0  0  0  0
    6.6890    0.4660   21.7100 C   0  0  1  0  0  0  0  0  0  0  0  0
   12.2030   -2.0100   24.1600 C   0  0  0  0  0  0  0  0  0  0  0  0
   12.6970   -0.7940   24.9380 C   0  0  0  0  0  0  0  0  0  0  0  0
   13.2520   -2.3210   23.0740 C   0  0  0  0  0  0  0  0  0  0  0  0
   12.0520   -3.1980   25.1110 C   0  0  0  0  0  0  0  0  0  0  0  0
    1.6720   -9.1430   19.9900 C   0  0  0  0  0  0  0  0  0  0  0  0
    2.3350   -7.8710   22.0310 N   0  0  0  0  0  0  0  0  0  0  0  0
    0.0770   -8.3090   21.6140 O   0  0  0  0  0  0  0  0  0  0  0  0
    1.2470   -8.4270   21.2750 C   0  0  0  0  0  0  0  0  0  0  0  0
    1.3500   -9.2840   25.2290 N   0  0  0  0  0  0  0  0  0  0  0  0
    3.3780   -8.5960   24.5290 O   0  0  0  0  0  0  0  0  0  0  0  0
    2.2540   -6.6970   22.6880 C   0  0  1  0  0  0  0  0  0  0  0  0
    4.5010   -7.6010   23.4830 O   0  0  0  0  0  0  0  0  0  0  0  0
    1.5120   -7.1910   23.9320 C   0  0  0  0  0  0  0  0  0  0  0  0
    2.1750   -8.4100   24.5750 C   0  0  0  0  0  0  0  0  0  0  0  0
    6.6480   -4.8710   20.1530 C   0  0  0  0  0  0  0  0  0  0  0  0
    5.7880   -6.0970   19.8760 C   0  0  0  0  0  0  0  0  0  0  0  0
    5.8120   -1.6190   22.7300 C   0  0  0  0  0  0  0  0  0  0  0  0
    6.1160   -2.8760   23.2050 C   0  0  0  0  0  0  0  0  0  0  0  0
    1.8130   -5.3170   25.1970 N   0  0  0  0  0  0  0  0  0  0  0  0
    2.9350   -7.8520   26.7150 C   0  0  0  0  0  0  0  0  0  0  0  0
    4.5310   -7.6980   25.4240 O   0  0  0  0  0  0  0  0  0  0  0  0
    3.6250   -6.9110   25.9090 C   0  0  1  0  0  0  0  0  0  0  0  0
    0.8330   -5.6040   23.1080 O   0  0  0  0  0  0  0  0  0  0  0  0
    2.8770   -6.2350   24.9920 C   0  0  2  0  0  0  0  0  0  0  0  0
    3.2340   -4.3530   22.8420 O   0  0  0  0  0  0  0  0  0  0  0  0
    0.8030   -5.1050   24.2690 C   0  0  0  0  0  0  0  0  0  0  0  0
   -0.3450   -4.3380   24.4980 C   0  0  0  0  0  0  0  0  0  0  0  0
    7.6280   -3.1260   21.4700 C   0  0  0  0  0  0  0  0  0  0  0  0
    7.0620   -1.9330   20.6370 C   0  0  0  0  0  0  0  0  0  0  0  0
    4.0010   -5.2620   26.9500 O   0  0  0  0  0  0  0  0  0  0  0  0
    5.7970   -3.6230   26.5690 O   0  0  0  0  0  0  0  0  0  0  0  0
    4.6310   -4.3890   25.9670 S   0  0  0  0  0  0  0  0  0  0  0  0
    6.3340    0.4900   17.9420 N   0  0  0  0  0  0  0  0  0  0  0  0
    5.2830    1.3140   17.8170 C   0  0  0  0  0  0  0  0  0  0  0  0
    4.6480    1.8830   18.9050 C   0  0  0  0  0  0  0  0  0  0  0  0
    5.0910    1.6160   20.1770 C   0  0  0  0  0  0  0  0  0  0  0  0
    6.1880    0.7640   20.3310 C   0  0  0  0  0  0  0  0  0  0  0  0
    6.7840    0.2150   19.1760 C   0  0  0  0  0  0  0  0  0  0  0  0
    9.3590   -1.3510   21.8340 C   0  0  0  0  0  0  0  0  0  0  0  0
   10.6510   -1.6140   22.2870 C   0  0  0  0  0  0  0  0  0  0  0  0
   10.8250   -1.7500   23.6630 C   0  0  0  0  0  0  0  0  0  0  0  0
    9.7480   -1.6390   24.5260 C   0  0  0  0  0  0  0  0  0  0  0  0
    8.4680   -1.3790   24.0640 C   0  0  0  0  0  0  0  0  0  0  0  0
    8.2680   -1.2280   22.7010 C   0  0  0  0  0  0  0  0  0  0  0  0
    6.2830   -4.3840   22.0390 S   0  0  0  0  0  0  0  0  0  0  0  0
    5.4270   -5.7250   22.6050 C   0  0  0  0  0  0  0  0  0  0  0  0
    3.9170   -5.8920   23.3580 S   0  0  0  0  0  0  0  0  0  0  0  0
    4.9710   -4.8500   24.3910 N   0  0  0  0  0  0  0  0  0  0  0  0
    6.2930   -5.1950   24.3600 C   0  0  0  0  0  0  0  0  0  0  0  0
    7.0930   -5.4590   23.1000 C   0  0  0  0  0  0  0  0  0  0  0  0
    3.7160   -1.4070   25.9010 S   0  0  0  0  0  0  0  0  0  0  0  0
    3.4570   -3.0520   25.9920 C   0  0  0  0  0  0  0  0  0  0  0  0
    1.9460   -3.0920   26.1070 C   0  0  0  0  0  0  0  0  0  0  0  0
    1.0610   -1.8320   26.1180 C   0  0  0  0  0  0  0  0  0  0  0  0
    2.1100   -0.8120   25.9970 C   0  0  0  0  0  0  0  0  0  0  0  0
  2  4  1  0
  3  4  1  0
  3  7  1  0
  6  7  2  0
  7  9  1  0
  1 10  1  0
  9 10  1  0
  1 11  1  0
  8 11  2  0
  5 12  1  0
 12 11  1  6
 13 14  1  0
 13 15  1  0
 13 16  1  0
 17 20  1  0
 18 20  1  0
 19 20  2  0
 18 23  1  0
 23 25  1  1
 21 26  1  0
 22 26  2  0
 25 26  1  0
 27 28  2  3
  5 29  1  0
 29 30  1  0
 34 32  1  6
 33 34  1  0
 36 31  1  1
 34 36  1  0
 31 38  1  0
 35 38  2  0
 38 39  1  0
 40 41  2  3
 42 44  2  0
 43 44  2  0
 45 46  2  0
 46 47  1  0
 47 48  2  0
 12 49  1  0
 48 49  1  0
 45 50  1  0
 49 50  2  0
 51 52  2  0
 13 53  1  0
 52 53  1  0
 53 54  2  0
 54 55  1  0
  5 56  1  0
 51 56  1  0
 55 56  2  0
 27 57  1  0
 30 57  1  0
 40 57  1  0
 57 58  1  0
 23 59  1  0
 24 59  1  0
 36 59  1  0
 37 59  1  0
 58 59  1  0
 44 60  1  0
 59 60  1  0
 60 61  1  0
 57 62  1  0
 61 62  1  0
 44 64  1  0
 63 64  1  0
 64 65  2  0
 65 66  1  0
 63 67  1  0
 66 67  2  0
M  END
