x0981-x0755-x1351-x3110
     RDKit          3D

 69 75  0  0  0  0  0  0  0  0999 V2000
    8.1060    1.4940   23.3620 N   0  0  0  0  0  0  0  0  0  0  0  0
   13.4070    5.2360   22.8720 C   0  0  0  0  0  0  0  0  0  0  0  0
   12.0520    3.3950   22.3230 O   0  0  0  0  0  0  0  0  0  0  0  0
   12.5030    4.4730   21.9560 C   0  0  0  0  0  0  0  0  0  0  0  0
    7.4590   -1.3340   22.1560 N   0  0  0  0  0  0  0  0  0  0  0  0
   11.1800    4.4240   24.1640 O   0  0  0  0  0  0  0  0  0  0  0  0
   11.2540    3.4600   23.4130 C   0  0  0  0  0  0  0  0  0  0  0  0
    8.7470    1.6920   21.1650 O   0  0  0  0  0  0  0  0  0  0  0  0
   10.4440    2.1720   23.5870 C   0  0  0  0  0  0  0  0  0  0  0  0
    8.9530    2.4570   23.8900 C   0  0  0  0  0  0  0  0  0  0  0  0
    8.0370    1.1560   22.0290 C   0  0  0  0  0  0  0  0  0  0  0  0
    7.0050    0.0820   21.7190 C   0  0  1  0  0  0  0  0  0  0  0  0
   12.5730   -1.6720   24.2270 C   0  0  0  0  0  0  0  0  0  0  0  0
   12.6080   -0.4830   25.0610 C   0  0  0  0  0  0  0  0  0  0  0  0
   13.3550   -1.1530   23.1070 C   0  0  0  0  0  0  0  0  0  0  0  0
   12.8390   -2.9800   24.7910 C   0  0  0  0  0  0  0  0  0  0  0  0
    1.2160   -8.6920   21.4380 C   0  0  0  0  0  0  0  0  0  0  0  0
    2.8010   -7.1430   22.7030 N   0  0  0  0  0  0  0  0  0  0  0  0
    0.5180   -6.5460   22.2900 O   0  0  0  0  0  0  0  0  0  0  0  0
    1.4210   -7.3690   22.1720 C   0  0  0  0  0  0  0  0  0  0  0  0
    2.3220   -8.5940   26.3580 N   0  0  0  0  0  0  0  0  0  0  0  0
    3.9120   -8.3790   24.7370 O   0  0  0  0  0  0  0  0  0  0  0  0
    3.1420   -6.1200   23.5770 C   0  0  1  0  0  0  0  0  0  0  0  0
    2.5680   -6.5150   24.9260 C   0  0  0  0  0  0  0  0  0  0  0  0
    2.9820   -7.9040   25.3390 C   0  0  0  0  0  0  0  0  0  0  0  0
    6.4120   -5.0540   20.0090 C   0  0  0  0  0  0  0  0  0  0  0  0
    5.6970   -6.3040   19.6050 C   0  0  0  0  0  0  0  0  0  0  0  0
    3.9900   -5.9560   26.4650 O   0  0  0  0  0  0  0  0  0  0  0  0
    5.8440   -4.4050   26.7980 O   0  0  0  0  0  0  0  0  0  0  0  0
    1.9020   -5.2450   26.1650 F   0  0  0  0  0  0  0  0  0  0  0  0
    4.8740   -1.4000   25.8500 O   0  0  0  0  0  0  0  0  0  0  0  0
    4.6670   -4.7550   26.0460 S   0  0  0  0  0  0  0  0  0  0  0  0
    6.4700   -2.8780   25.8490 N   0  0  0  0  0  0  0  0  0  0  0  0
    7.1380   -3.1940   27.9600 O   0  0  0  0  0  0  0  0  0  0  0  0
    6.7060   -2.4400   27.0870 C   0  0  0  0  0  0  0  0  0  0  0  0
    6.3380    0.1460   17.9590 N   0  0  0  0  0  0  0  0  0  0  0  0
    5.2590    0.9550   17.8770 C   0  0  0  0  0  0  0  0  0  0  0  0
    4.7230    1.4730   19.0310 C   0  0  0  0  0  0  0  0  0  0  0  0
    5.2830    1.1830   20.2800 C   0  0  0  0  0  0  0  0  0  0  0  0
    6.3980    0.3530   20.3300 C   0  0  0  0  0  0  0  0  0  0  0  0
    6.9140   -0.1660   19.1440 C   0  0  0  0  0  0  0  0  0  0  0  0
    9.7580   -1.9660   21.9360 C   0  0  0  0  0  0  0  0  0  0  0  0
   11.0570   -2.0970   22.3720 C   0  0  0  0  0  0  0  0  0  0  0  0
   11.2560   -1.6110   23.6850 C   0  0  0  0  0  0  0  0  0  0  0  0
   10.2200   -1.0620   24.4380 C   0  0  0  0  0  0  0  0  0  0  0  0
    8.9670   -0.9620   23.9480 C   0  0  0  0  0  0  0  0  0  0  0  0
    8.7410   -1.4140   22.6870 C   0  0  0  0  0  0  0  0  0  0  0  0
    2.1640   -3.9320   26.0810 C   0  0  0  0  0  0  0  0  0  0  0  0
    3.5060   -3.4750   26.0110 C   0  0  0  0  0  0  0  0  0  0  0  0
    3.7470   -2.1120   25.9250 C   0  0  0  0  0  0  0  0  0  0  0  0
    2.5890   -1.1510   25.9160 C   0  0  0  0  0  0  0  0  0  0  0  0
    1.2800   -1.5980   25.9890 C   0  0  0  0  0  0  0  0  0  0  0  0
    1.0470   -3.0990   26.0750 C   0  0  0  0  0  0  0  0  0  0  0  0
    6.5510   -4.9970   21.8350 S   0  0  0  0  0  0  0  0  0  0  0  0
    7.2070   -4.8560   23.3340 C   0  0  0  0  0  0  0  0  0  0  0  0
    6.0770   -4.1530   23.7650 C   0  0  0  0  0  0  0  0  0  0  0  0
    5.3240   -5.0800   24.5060 N   0  0  0  0  0  0  0  0  0  0  0  0
    4.5540   -5.5480   23.3860 C   0  0  1  0  0  0  0  0  0  0  0  0
    5.4340   -6.2230   22.5360 C   0  0  0  0  0  0  0  0  0  0  0  0
    7.3500   -3.4330   21.9340 N   0  0  0  0  0  0  0  0  0  0  0  0
    6.6800   -2.4860   22.5190 C   0  0  1  0  0  0  0  0  0  0  0  0
    6.4460   -2.6890   23.8900 C   0  0  0  0  0  0  0  0  0  0  0  0
    5.5670   -4.1800   22.4650 C   0  0  0  0  0  0  0  0  0  0  0  0
    7.1510   -0.4150   28.3920 C   0  0  0  0  0  0  0  0  0  0  0  0
    6.8540    0.9030   28.7040 C   0  0  0  0  0  0  0  0  0  0  0  0
    5.8340    1.5880   28.0450 C   0  0  0  0  0  0  0  0  0  0  0  0
    5.0630    0.9690   27.0420 C   0  0  0  0  0  0  0  0  0  0  0  0
    5.4000   -0.5230   26.7030 C   0  0  0  0  0  0  0  0  0  0  0  0
    6.4350   -1.0720   27.4280 C   0  0  0  0  0  0  0  0  0  0  0  0
  2  4  1  0
  3  4  1  0
  3  7  1  0
  6  7  2  0
  7  9  1  0
  1 10  1  0
  9 10  1  0
  1 11  1  0
  8 11  2  0
  5 12  1  0
 12 11  1  6
 13 14  1  0
 13 15  1  0
 13 16  1  0
 17 20  1  0
 18 20  1  0
 19 20  2  0
 18 23  1  0
 23 24  1  1
 21 25  1  0
 22 25  2  0
 24 25  1  0
 26 27  2  3
 28 32  2  0
 29 32  2  0
 33 35  1  0
 34 35  2  0
 36 37  2  0
 37 38  1  0
 38 39  2  0
 12 40  1  0
 39 40  1  0
 36 41  1  0
 40 41  2  0
 42 43  2  0
 13 44  1  0
 43 44  1  0
 44 45  2  0
 45 46  1  0
  5 47  1  0
 42 47  1  0
 46 47  2  0
 30 48  1  0
 32 49  1  0
 48 49  2  0
 31 50  1  0
 49 50  1  0
 50 51  2  0
 51 52  1  0
 48 53  1  0
 52 53  2  0
 26 54  1  0
 54 55  1  0
 55 56  1  0
 32 57  1  0
 56 57  1  0
 23 58  1  0
 57 58  1  0
 54 59  1  0
 58 59  1  1
 54 60  1  0
 61  5  1  1
 60 61  1  0
 56 62  1  0
 61 62  1  0
 54 63  1  0
 56 63  1  0
 64 65  2  0
 65 66  1  0
 66 67  2  0
 31 68  1  0
 67 68  1  0
 35 69  1  0
 64 69  1  0
 68 69  2  0
M  END
