x0981-x0755-x0689-x3110-x3113
     RDKit          3D

 62 68  0  0  0  0  0  0  0  0999 V2000
    8.0030    2.0280   23.1100 N   0  0  0  0  0  0  0  0  0  0  0  0
   13.6340    4.8130   21.0860 C   0  0  0  0  0  0  0  0  0  0  0  0
   12.1570    4.0210   22.6790 O   0  0  0  0  0  0  0  0  0  0  0  0
   12.4720    5.1800   21.9390 C   0  0  0  0  0  0  0  0  0  0  0  0
    7.7110   -1.3080   21.8020 N   0  0  0  0  0  0  0  0  0  0  0  0
   10.9800    5.0570   24.3030 O   0  0  0  0  0  0  0  0  0  0  0  0
   11.1490    4.0240   23.5910 C   0  0  0  0  0  0  0  0  0  0  0  0
    8.4300    1.7290   20.9240 O   0  0  0  0  0  0  0  0  0  0  0  0
   10.2630    2.8220   23.7310 C   0  0  0  0  0  0  0  0  0  0  0  0
    8.9180    3.1730   23.1160 C   0  0  0  0  0  0  0  0  0  0  0  0
    7.8200    1.2160   22.0030 C   0  0  0  0  0  0  0  0  0  0  0  0
    7.1540    0.0030   21.7060 C   0  0  1  0  0  0  0  0  0  0  0  0
   12.6390   -2.0580   24.6090 C   0  0  0  0  0  0  0  0  0  0  0  0
   12.9450   -0.7990   25.4060 C   0  0  0  0  0  0  0  0  0  0  0  0
   13.7590   -2.2340   23.6390 C   0  0  0  0  0  0  0  0  0  0  0  0
   12.6710   -3.2570   25.5210 C   0  0  0  0  0  0  0  0  0  0  0  0
    2.0280   -8.9320   20.6570 C   0  0  0  0  0  0  0  0  0  0  0  0
    2.8710   -7.4030   22.4750 N   0  0  0  0  0  0  0  0  0  0  0  0
    0.7220   -7.3010   21.6970 O   0  0  0  0  0  0  0  0  0  0  0  0
    1.8480   -7.8400   21.6500 C   0  0  0  0  0  0  0  0  0  0  0  0
    0.1980   -5.4690   24.9390 N   0  0  0  0  0  0  0  0  0  0  0  0
    0.7460   -7.3650   23.7720 O   0  0  0  0  0  0  0  0  0  0  0  0
    3.2350   -5.9710   22.6200 C   0  0  1  0  0  0  0  0  0  0  0  0
    1.9350   -5.3450   23.0990 C   0  0  0  0  0  0  0  0  0  0  0  0
    0.9880   -6.1400   23.8960 C   0  0  0  0  0  0  0  0  0  0  0  0
    6.0620   -5.1960   20.3340 C   0  0  0  0  0  0  0  0  0  0  0  0
    5.4720   -6.2940   19.8690 C   0  0  0  0  0  0  0  0  0  0  0  0
    6.8920   -2.3680   21.7190 C   0  0  0  0  0  0  0  0  0  0  0  0
    7.4030   -3.5490   22.2750 C   0  0  0  0  0  0  0  0  0  0  0  0
    5.0070   -5.3900   27.1210 O   0  0  0  0  0  0  0  0  0  0  0  0
    6.6880   -4.4080   25.8090 O   0  0  0  0  0  0  0  0  0  0  0  0
    2.2590   -4.6530   25.7180 F   0  0  0  0  0  0  0  0  0  0  0  0
    5.2970   -4.8380   25.8170 S   0  0  0  0  0  0  0  0  0  0  0  0
    2.7010   -7.2700   25.1410 O   0  0  0  0  0  0  0  0  0  0  0  0
    4.6860   -7.6600   26.4380 O   0  0  0  0  0  0  0  0  0  0  0  0
    4.1640   -7.3280   25.0720 S   0  0  0  0  0  0  0  0  0  0  0  0
    6.2800    0.1270   17.9730 N   0  0  0  0  0  0  0  0  0  0  0  0
    5.0250    0.6390   17.9250 C   0  0  0  0  0  0  0  0  0  0  0  0
    4.3320    0.9900   19.2130 C   0  0  0  0  0  0  0  0  0  0  0  0
    5.0820    0.7550   20.4620 C   0  0  0  0  0  0  0  0  0  0  0  0
    6.3920    0.2250   20.4110 C   0  0  0  0  0  0  0  0  0  0  0  0
    6.9630   -0.0890   19.1600 C   0  0  0  0  0  0  0  0  0  0  0  0
   10.2160   -1.4340   21.7910 C   0  0  0  0  0  0  0  0  0  0  0  0
   11.4040   -1.6250   22.5140 C   0  0  0  0  0  0  0  0  0  0  0  0
   11.3620   -1.8670   23.8650 C   0  0  0  0  0  0  0  0  0  0  0  0
   10.1380   -1.9160   24.4880 C   0  0  0  0  0  0  0  0  0  0  0  0
    8.9630   -1.7340   23.7910 C   0  0  0  0  0  0  0  0  0  0  0  0
    8.9630   -1.4880   22.4360 C   0  0  0  0  0  0  0  0  0  0  0  0
    2.9850   -3.4840   25.6910 C   0  0  0  0  0  0  0  0  0  0  0  0
    4.3160   -3.3540   25.7360 C   0  0  0  0  0  0  0  0  0  0  0  0
    4.7730   -2.0150   25.7120 C   0  0  0  0  0  0  0  0  0  0  0  0
    4.5350   -0.7180   25.6670 C   0  0  0  0  0  0  0  0  0  0  0  0
    3.3430   -1.2210   25.6250 C   0  0  0  0  0  0  0  0  0  0  0  0
    2.4630   -2.3180   25.6140 C   0  0  0  0  0  0  0  0  0  0  0  0
    6.1290   -4.9060   22.4200 S   0  0  0  0  0  0  0  0  0  0  0  0
    6.8640   -6.7010   22.6430 C   0  0  0  0  0  0  0  0  0  0  0  0
    6.2920   -6.1680   23.7540 C   0  0  2  0  0  0  0  0  0  0  0  0
    5.0350   -5.9150   24.4150 C   0  0  2  0  0  0  0  0  0  0  0  0
    4.5030   -5.2880   23.1730 C   0  0  2  0  0  0  0  0  0  0  0  0
    4.5240   -3.9870   22.9730 C   0  0  0  0  0  0  0  0  0  0  0  0
    6.5760   -0.7630   26.7890 F   0  0  0  0  0  0  0  0  0  0  0  0
    5.9150   -0.1370   25.7170 C   0  0  0  0  0  0  0  0  0  0  0  0
  2  4  1  0
  3  4  1  0
  3  7  1  0
  6  7  2  0
  7  9  1  0
  1 10  1  0
  9 10  1  0
  1 11  1  0
  8 11  2  0
  5 12  1  0
 12 11  1  6
 13 14  1  0
 13 15  1  0
 13 16  1  0
 17 20  1  0
 18 20  1  0
 19 20  2  0
 18 23  1  0
 23 24  1  1
 21 25  1  0
 22 25  2  0
 24 25  1  0
 26 27  2  3
  5 28  1  0
 28 29  1  0
 30 33  2  0
 31 33  2  0
 34 36  2  0
 35 36  2  0
 37 38  2  0
 38 39  1  0
 39 40  2  0
 12 41  1  0
 40 41  1  0
 37 42  1  0
 41 42  2  0
 43 44  2  0
 13 45  1  0
 44 45  1  0
 45 46  2  0
 46 47  1  0
  5 48  1  0
 43 48  1  0
 47 48  2  0
 32 49  1  0
 33 50  1  0
 49 50  2  0
 50 51  1  0
 51 52  2  0
 51 53  1  0
 52 53  1  0
 49 54  1  0
 53 54  2  0
 26 55  1  0
 29 55  1  0
 55 56  1  0
 55 57  1  0
 57 56  1  6
 58 33  1  0
 58 36  1  1
 57 58  1  0
 23 59  1  0
 55 59  1  0
 58 59  1  0
 55 60  1  0
 59 60  1  1
 52 62  1  0
 61 62  1  0
M  END
