x0981-x3115-x3117-x1458
     RDKit          3D

 65 70  0  0  0  0  0  0  0  0999 V2000
    1.1550   -8.7160   21.4380 C   0  0  0  0  0  0  0  0  0  0  0  0
    2.6560   -7.0890   22.6080 N   0  0  0  0  0  0  0  0  0  0  0  0
    0.2020   -6.6570   22.3030 O   0  0  0  0  0  0  0  0  0  0  0  0
    1.3860   -7.4240   22.1730 C   0  0  0  0  0  0  0  0  0  0  0  0
    2.3600   -8.0520   26.2050 N   0  0  0  0  0  0  0  0  0  0  0  0
    3.9500   -8.0510   24.5830 O   0  0  0  0  0  0  0  0  0  0  0  0
    2.9220   -5.8560   23.4020 C   0  0  1  0  0  0  0  0  0  0  0  0
    4.9230   -4.9370   21.9290 N   0  0  0  0  0  0  0  0  0  0  0  0
    4.8440   -4.5610   24.2310 N   0  0  0  0  0  0  0  0  0  0  0  0
    2.7250   -6.0160   24.8790 C   0  0  0  0  0  0  0  0  0  0  0  0
    3.0700   -7.4600   25.2000 C   0  0  0  0  0  0  0  0  0  0  0  0
    4.3130   -5.0660   23.1820 C   0  0  0  0  0  0  0  0  0  0  0  0
    6.8320   -5.4190   20.4030 C   0  0  0  0  0  0  0  0  0  0  0  0
    5.8650   -6.1260   19.9600 C   0  0  0  0  0  0  0  0  0  0  0  0
    6.9870   -1.5700   22.5210 C   0  0  1  0  0  0  0  0  0  0  0  0
    7.8210    2.0280   23.1980 N   0  0  0  0  0  0  0  0  0  0  0  0
    9.1530    0.7310   21.9040 O   0  0  0  0  0  0  0  0  0  0  0  0
    6.9150   -0.1520   21.9260 C   0  0  1  0  0  0  0  0  0  0  0  0
    8.0220    0.9050   22.3610 C   0  0  0  0  0  0  0  0  0  0  0  0
    6.8770    5.1310   22.4850 C   0  0  0  0  0  0  0  0  0  0  0  0
   12.7880   -1.4880   22.8530 C   0  0  0  0  0  0  0  0  0  0  0  0
   13.2130   -1.8090   21.4260 C   0  0  0  0  0  0  0  0  0  0  0  0
   13.3570   -2.5970   23.7420 C   0  0  0  0  0  0  0  0  0  0  0  0
   13.1700   -0.0870   23.2890 C   0  0  0  0  0  0  0  0  0  0  0  0
    6.4820   -2.3100   21.2880 C   0  0  0  0  0  0  0  0  0  0  0  0
    5.8120    1.6090   22.4410 N   0  0  0  0  0  0  0  0  0  0  0  0
    8.3240    3.0860   21.3940 N   0  0  0  0  0  0  0  0  0  0  0  0
    7.7880    1.3840   20.0070 O   0  0  0  0  0  0  0  0  0  0  0  0
    6.1430    2.4000   21.2180 C   0  0  0  0  0  0  0  0  0  0  0  0
    7.4560    2.2220   20.8100 C   0  0  0  0  0  0  0  0  0  0  0  0
   11.5450   -2.1310   25.1790 C   0  0  0  0  0  0  0  0  0  0  0  0
   11.5240   -0.7240   25.1720 C   0  0  0  0  0  0  0  0  0  0  0  0
   11.0150   -2.6570   23.8560 C   0  0  0  0  0  0  0  0  0  0  0  0
   12.9830   -2.5880   25.1940 C   0  0  0  0  0  0  0  0  0  0  0  0
    7.9370   -4.1180   25.9200 N   0  0  0  0  0  0  0  0  0  0  0  0
    9.2210   -5.0130   27.5530 C   0  0  0  0  0  0  0  0  0  0  0  0
    5.9280   -3.2780   26.2940 O   0  0  0  0  0  0  0  0  0  0  0  0
    8.1280   -5.2060   26.6940 C   0  0  0  0  0  0  0  0  0  0  0  0
    6.9620   -5.3810   27.4540 C   0  0  0  0  0  0  0  0  0  0  0  0
    8.9510   -3.2590   25.8780 C   0  0  0  0  0  0  0  0  0  0  0  0
    6.7180   -3.7770   25.4760 C   0  0  0  0  0  0  0  0  0  0  0  0
    6.1650    0.1210   18.1700 N   0  0  0  0  0  0  0  0  0  0  0  0
    4.9370    0.6520   18.1810 C   0  0  0  0  0  0  0  0  0  0  0  0
    4.2300    0.9550   19.3150 C   0  0  0  0  0  0  0  0  0  0  0  0
    4.7870    0.7200   20.5520 C   0  0  0  0  0  0  0  0  0  0  0  0
    6.0720    0.1780   20.6310 C   0  0  0  0  0  0  0  0  0  0  0  0
    6.7030   -0.1050   19.3870 C   0  0  0  0  0  0  0  0  0  0  0  0
    9.3020   -2.0500   21.6920 C   0  0  0  0  0  0  0  0  0  0  0  0
   10.6510   -2.0150   21.8050 C   0  0  0  0  0  0  0  0  0  0  0  0
   11.2700   -1.4690   22.8830 C   0  0  0  0  0  0  0  0  0  0  0  0
   10.5210   -0.9250   23.9290 C   0  0  0  0  0  0  0  0  0  0  0  0
    9.0290   -0.9590   23.8230 C   0  0  0  0  0  0  0  0  0  0  0  0
    8.4870   -1.5320   22.6780 C   0  0  0  0  0  0  0  0  0  0  0  0
   10.2560    5.3520   23.7000 O   0  0  0  0  0  0  0  0  0  0  0  0
   10.8410    4.2000   23.0700 C   0  0  0  0  0  0  0  0  0  0  0  0
    9.8590    3.0540   22.9410 C   0  0  0  0  0  0  0  0  0  0  0  0
    8.5450    3.2230   22.8000 C   0  0  2  0  0  0  0  0  0  0  0  0
    8.0610    4.5880   23.3030 C   0  0  1  0  0  0  0  0  0  0  0  0
    8.9290    5.6450   23.2550 C   0  0  0  0  0  0  0  0  0  0  0  0
    7.1440   -3.4870   21.7120 N   0  0  0  0  0  0  0  0  0  0  0  0
    7.4180   -3.0350   23.0610 C   0  0  0  0  0  0  0  0  0  0  0  0
    6.1610   -2.6250   23.4360 C   0  0  2  0  0  0  0  0  0  0  0  0
    6.1570   -3.9350   24.0010 C   0  0  2  0  0  0  0  0  0  0  0  0
    6.7790   -5.0440   23.2490 C   0  0  0  0  0  0  0  0  0  0  0  0
    6.3850   -4.7260   21.7820 C   0  0  1  0  0  0  0  0  0  0  0  0
  1  4  1  0
  2  4  1  0
  3  4  2  0
  2  7  1  0
  7 10  1  1
  5 11  1  0
  6 11  2  0
 10 11  1  0
  7 12  1  0
  8 12  1  0
  9 12  2  0
 13 14  2  3
 15 18  1  0
 16 19  1  0
 17 19  2  0
 18 19  1  6
 21 22  1  0
 21 23  1  0
 21 24  1  0
 15 25  1  0
 26 29  1  0
 27 30  1  0
 28 30  2  0
 29 30  1  0
 31 32  1  0
 31 33  1  0
 23 34  1  0
 31 34  1  0
 35 38  1  0
 36 38  1  0
 38 39  1  0
 35 40  1  0
 35 41  1  0
 37 41  2  0
 42 43  2  0
 43 44  1  0
 44 45  2  0
 18 46  1  0
 45 46  1  0
 42 47  1  0
 46 47  2  0
 48 49  2  0
 21 50  1  0
 49 50  1  0
 50 51  2  0
 51 52  1  0
 15 53  1  1
 48 53  1  0
 52 53  2  0
 54 55  1  0
 55 56  1  0
 57 16  1  1
 27 57  1  0
 56 57  1  0
 58 20  1  6
 57 58  1  0
 54 59  1  0
 58 59  1  0
 25 60  1  0
 60 61  1  0
 15 62  1  0
 62 61  1  1
  9 63  1  0
 63 41  1  1
 62 63  1  0
 63 64  1  0
  8 65  1  0
 65 13  1  6
 60 65  1  0
 64 65  1  0
M  END
