x0981-x2649
     RDKit          3D

 37 38  0  0  0  0  0  0  0  0999 V2000
    1.2450   -8.7800   21.2300 C   0  0  0  0  0  0  0  0  0  0  0  0
    2.7100   -7.2940   22.7750 N   0  0  0  0  0  0  0  0  0  0  0  0
    0.3200   -6.6210   22.0210 O   0  0  0  0  0  0  0  0  0  0  0  0
    1.4380   -7.5090   22.0660 C   0  0  0  0  0  0  0  0  0  0  0  0
    2.4240   -8.2960   26.4190 N   0  0  0  0  0  0  0  0  0  0  0  0
    3.9700   -8.2890   24.6160 O   0  0  0  0  0  0  0  0  0  0  0  0
    2.9300   -6.0340   23.4930 C   0  0  1  0  0  0  0  0  0  0  0  0
    5.2070   -6.0980   22.3950 N   0  0  0  0  0  0  0  0  0  0  0  0
    4.5040   -4.0690   23.5830 N   0  0  0  0  0  0  0  0  0  0  0  0
    2.7880   -6.2760   24.8520 C   0  0  0  0  0  0  0  0  0  0  0  0
    3.1380   -7.6960   25.2500 C   0  0  0  0  0  0  0  0  0  0  0  0
    4.2970   -5.4180   23.1210 C   0  0  0  0  0  0  0  0  0  0  0  0
    6.4300   -5.3150   21.9230 C   0  0  0  0  0  0  0  0  0  0  0  0
    6.4390   -5.2540   20.4060 C   0  0  0  0  0  0  0  0  0  0  0  0
    5.6910   -6.1990   19.8660 C   0  0  0  0  0  0  0  0  0  0  0  0
    7.0180   -0.7590   20.8110 N   0  0  0  0  0  0  0  0  0  0  0  0
    7.7630   -0.9800   23.5640 C   0  0  0  0  0  0  0  0  0  0  0  0
    8.6140    0.7280   21.1850 O   0  0  0  0  0  0  0  0  0  0  0  0
   13.2330   -2.4780   21.1360 Cl  0  0  0  0  0  0  0  0  0  0  0  0
    8.6830   -1.1980   22.3890 C   0  0  1  0  0  0  0  0  0  0  0  0
    8.1280   -0.3760   21.4410 C   0  0  0  0  0  0  0  0  0  0  0  0
    4.8160    1.0490   21.5580 C   0  0  0  0  0  0  0  0  0  0  0  0
    5.7020   -3.2540   23.3140 C   0  0  0  0  0  0  0  0  0  0  0  0
    6.4450   -3.0410   24.4520 C   0  0  0  0  0  0  0  0  0  0  0  0
    7.6140   -2.2910   24.3330 C   0  0  0  0  0  0  0  0  0  0  0  0
    6.3080    0.6740   17.5790 N   0  0  0  0  0  0  0  0  0  0  0  0
    5.2900    1.4990   17.8630 C   0  0  0  0  0  0  0  0  0  0  0  0
    4.8250    1.6070   19.1460 C   0  0  0  0  0  0  0  0  0  0  0  0
    5.3620    0.8830   20.1870 C   0  0  0  0  0  0  0  0  0  0  0  0
    6.4150    0.0140   19.9170 C   0  0  0  0  0  0  0  0  0  0  0  0
    6.8340   -0.0390   18.5970 C   0  0  0  0  0  0  0  0  0  0  0  0
   10.6430    0.2200   23.3320 C   0  0  0  0  0  0  0  0  0  0  0  0
   12.0420    0.4550   23.4180 C   0  0  0  0  0  0  0  0  0  0  0  0
   12.8850   -0.3540   22.7580 C   0  0  0  0  0  0  0  0  0  0  0  0
   12.3490   -1.3860   22.0350 C   0  0  0  0  0  0  0  0  0  0  0  0
   11.0200   -1.5830   21.9740 C   0  0  0  0  0  0  0  0  0  0  0  0
   10.1070   -0.8330   22.5960 C   0  0  0  0  0  0  0  0  0  0  0  0
  1  4  1  0
  2  4  1  0
  3  4  2  0
  2  7  1  0
  7 10  1  1
  5 11  1  0
  6 11  2  0
 10 11  1  0
  7 12  1  0
  8 12  1  0
  9 12  2  3
  8 13  1  0
 13 14  1  0
 14 15  2  3
 20 17  1  1
 16 21  1  0
 18 21  2  0
 20 21  1  0
  9 23  1  0
 23 24  1  0
 17 25  1  0
 24 25  1  0
 26 27  2  0
 27 28  1  0
 22 29  1  0
 28 29  2  0
 16 30  1  0
 29 30  1  0
 26 31  1  0
 30 31  2  0
 32 33  2  0
 33 34  1  0
 19 35  1  0
 34 35  2  0
 35 36  1  0
 20 37  1  0
 32 37  1  0
 36 37  2  0
M  END
