x0981-x3117-x1351
     RDKit          3D

 55 60  0  0  0  0  0  0  0  0999 V2000
    1.2400   -8.6170   21.5080 C   0  0  0  0  0  0  0  0  0  0  0  0
    2.7080   -7.1660   22.8560 N   0  0  0  0  0  0  0  0  0  0  0  0
    0.5980   -6.4570   22.2940 O   0  0  0  0  0  0  0  0  0  0  0  0
    1.4690   -7.3220   22.2530 C   0  0  0  0  0  0  0  0  0  0  0  0
    2.6520   -8.1550   26.4590 N   0  0  0  0  0  0  0  0  0  0  0  0
    3.9350   -8.2780   24.5540 O   0  0  0  0  0  0  0  0  0  0  0  0
    3.1150   -5.8940   23.5310 C   0  0  1  0  0  0  0  0  0  0  0  0
    4.7940   -5.2250   21.6570 N   0  0  0  0  0  0  0  0  0  0  0  0
    3.1980   -6.1320   25.0450 C   0  0  0  0  0  0  0  0  0  0  0  0
    3.2890   -7.6330   25.3470 C   0  0  0  0  0  0  0  0  0  0  0  0
    4.4520   -5.1900   22.9110 C   0  0  0  0  0  0  0  0  0  0  0  0
    6.7470   -5.0310   20.4820 C   0  0  0  0  0  0  0  0  0  0  0  0
    5.9040   -6.1030   19.9090 C   0  0  0  0  0  0  0  0  0  0  0  0
    7.6640   -1.2250   21.7910 N   0  0  0  0  0  0  0  0  0  0  0  0
    7.8810    2.1480   22.8840 N   0  0  0  0  0  0  0  0  0  0  0  0
    8.9920    1.4680   21.0620 O   0  0  0  0  0  0  0  0  0  0  0  0
    7.0140    0.1230   21.6300 C   0  0  1  0  0  0  0  0  0  0  0  0
    8.0500    1.2780   21.8210 C   0  0  0  0  0  0  0  0  0  0  0  0
   12.5500   -1.7180   24.3230 C   0  0  0  0  0  0  0  0  0  0  0  0
   12.6250   -0.5440   25.2230 C   0  0  0  0  0  0  0  0  0  0  0  0
   13.4760   -1.5750   23.1620 C   0  0  0  0  0  0  0  0  0  0  0  0
   12.9910   -2.9870   25.0520 C   0  0  0  0  0  0  0  0  0  0  0  0
    5.6670   -3.2400   25.3290 N   0  0  0  0  0  0  0  0  0  0  0  0
    6.9700   -3.5090   27.1810 O   0  0  0  0  0  0  0  0  0  0  0  0
    6.3020   -2.7880   26.4710 C   0  0  0  0  0  0  0  0  0  0  0  0
    6.2420    0.1640   17.9190 N   0  0  0  0  0  0  0  0  0  0  0  0
    5.1240    0.9020   17.8860 C   0  0  0  0  0  0  0  0  0  0  0  0
    4.4500    1.4760   19.0800 C   0  0  0  0  0  0  0  0  0  0  0  0
    5.0270    1.2360   20.3130 C   0  0  0  0  0  0  0  0  0  0  0  0
    6.3100    0.3980   20.3220 C   0  0  0  0  0  0  0  0  0  0  0  0
    6.7980   -0.0670   19.1200 C   0  0  0  0  0  0  0  0  0  0  0  0
    9.7620    5.3860   24.2040 O   0  0  0  0  0  0  0  0  0  0  0  0
   10.5900    4.2920   23.8290 C   0  0  0  0  0  0  0  0  0  0  0  0
    9.8200    3.1210   23.8670 C   0  0  0  0  0  0  0  0  0  0  0  0
    8.7530    3.1890   22.9870 C   0  0  0  0  0  0  0  0  0  0  0  0
    8.0340    4.3880   23.0260 C   0  0  0  0  0  0  0  0  0  0  0  0
    8.7560    5.6130   23.2070 C   0  0  0  0  0  0  0  0  0  0  0  0
    9.8260   -2.0630   21.8290 C   0  0  0  0  0  0  0  0  0  0  0  0
   11.0410   -2.1930   22.4640 C   0  0  0  0  0  0  0  0  0  0  0  0
   11.2150   -1.5900   23.6930 C   0  0  0  0  0  0  0  0  0  0  0  0
   10.2220   -0.8710   24.3210 C   0  0  0  0  0  0  0  0  0  0  0  0
    9.0240   -0.7380   23.6920 C   0  0  0  0  0  0  0  0  0  0  0  0
    8.8300   -1.3260   22.4470 C   0  0  0  0  0  0  0  0  0  0  0  0
    5.7650   -2.9540   21.4800 N   0  0  0  0  0  0  0  0  0  0  0  0
    6.9680   -2.4430   22.1610 C   0  0  2  0  0  0  0  0  0  0  0  0
    7.0380   -2.5490   23.5220 C   0  0  0  0  0  0  0  0  0  0  0  0
    6.3200   -3.7140   24.1240 C   0  0  2  0  0  0  0  0  0  0  0  0
    5.5400   -4.4310   23.1990 C   0  0  0  0  0  0  0  0  0  0  0  0
    5.9260   -4.3730   21.6540 C   0  0  1  0  0  0  0  0  0  0  0  0
    6.9110   -0.9390   28.0270 C   0  0  0  0  0  0  0  0  0  0  0  0
    6.8410    0.3680   28.5230 C   0  0  0  0  0  0  0  0  0  0  0  0
    5.9210    1.3910   27.8380 C   0  0  0  0  0  0  0  0  0  0  0  0
    5.2010    0.9290   26.7330 C   0  0  0  0  0  0  0  0  0  0  0  0
    5.3170   -0.4070   26.2820 C   0  0  0  0  0  0  0  0  0  0  0  0
    6.1580   -1.3460   26.9120 C   0  0  0  0  0  0  0  0  0  0  0  0
  1  4  1  0
  2  4  1  0
  3  4  2  0
  2  7  1  0
  7  9  1  1
  5 10  1  0
  6 10  2  0
  9 10  1  0
  7 11  1  0
  8 11  1  0
 12 13  2  3
 14 17  1  0
 15 18  1  0
 16 18  2  0
 17 18  1  6
 19 20  1  0
 19 21  1  0
 19 22  1  0
 23 25  1  0
 24 25  2  0
 26 27  2  0
 27 28  1  0
 28 29  2  0
 17 30  1  0
 29 30  1  0
 26 31  1  0
 30 31  2  0
 32 33  1  0
 33 34  1  0
 15 35  1  0
 34 35  1  0
 35 36  1  0
 32 37  1  0
 36 37  1  0
 38 39  2  0
 19 40  1  0
 39 40  1  0
 40 41  2  0
 41 42  1  0
 14 43  1  0
 38 43  1  0
 42 43  2  0
 45 14  1  1
 44 45  1  0
 45 46  1  0
 47 23  1  1
 46 47  1  0
 11 48  2  0
 47 48  1  0
  8 49  1  0
 49 12  1  1
 44 49  1  0
 48 49  1  0
 50 51  2  0
 51 52  1  0
 52 53  2  0
 53 54  1  0
 25 55  1  0
 50 55  1  0
 54 55  2  0
M  END
