x0981-x2563
     RDKit          3D

 38 40  0  0  0  0  0  0  0  0999 V2000
    1.1930   -8.7080   21.4040 C   0  0  0  0  0  0  0  0  0  0  0  0
    2.7800   -7.1230   22.7410 N   0  0  0  0  0  0  0  0  0  0  0  0
    0.2860   -6.5560   22.2080 O   0  0  0  0  0  0  0  0  0  0  0  0
    1.4390   -7.4000   22.1690 C   0  0  0  0  0  0  0  0  0  0  0  0
    2.4510   -8.2330   26.4430 N   0  0  0  0  0  0  0  0  0  0  0  0
    4.0020   -8.2180   24.6410 O   0  0  0  0  0  0  0  0  0  0  0  0
    3.0370   -5.8970   23.5230 C   0  0  1  0  0  0  0  0  0  0  0  0
    5.1900   -5.8130   22.2510 N   0  0  0  0  0  0  0  0  0  0  0  0
    4.9960   -4.6200   24.1480 O   0  0  0  0  0  0  0  0  0  0  0  0
    2.7730   -6.2000   24.8580 C   0  0  0  0  0  0  0  0  0  0  0  0
    3.1540   -7.6260   25.2670 C   0  0  0  0  0  0  0  0  0  0  0  0
    4.4980   -5.3910   23.3290 C   0  0  0  0  0  0  0  0  0  0  0  0
    6.2830   -4.8780   21.7310 C   0  0  1  0  0  0  0  0  0  0  0  0
    6.4800   -5.2190   20.2670 C   0  0  0  0  0  0  0  0  0  0  0  0
    5.7520   -6.2200   19.8270 C   0  0  0  0  0  0  0  0  0  0  0  0
    8.5390    0.2420   21.2780 C   0  0  0  0  0  0  0  0  0  0  0  0
    8.7100    1.4510   21.0750 O   0  0  0  0  0  0  0  0  0  0  0  0
    7.1930   -0.4200   21.1640 C   0  0  2  0  0  0  0  0  0  0  0  0
    9.4410   -0.5990   21.5800 N   0  0  0  0  0  0  0  0  0  0  0  0
    6.0100   -3.5270   21.9130 C   0  0  0  0  0  0  0  0  0  0  0  0
    7.1240   -2.6970   21.9510 C   0  0  0  0  0  0  0  0  0  0  0  0
    7.3590   -1.8770   20.8600 C   0  0  0  0  0  0  0  0  0  0  0  0
    6.3240    0.7150   17.5850 N   0  0  0  0  0  0  0  0  0  0  0  0
    5.0880    1.4590   17.8220 C   0  0  0  0  0  0  0  0  0  0  0  0
    4.5890    1.5220   19.1160 C   0  0  0  0  0  0  0  0  0  0  0  0
    5.2810    0.8730   20.2990 C   0  0  0  0  0  0  0  0  0  0  0  0
    6.4360    0.2120   20.0430 C   0  0  0  0  0  0  0  0  0  0  0  0
    6.9410    0.1120   18.7640 C   0  0  0  0  0  0  0  0  0  0  0  0
    3.2770    2.2610   19.5010 C   0  0  0  0  0  0  0  0  0  0  0  0
    2.7980    2.3070   20.8250 C   0  0  0  0  0  0  0  0  0  0  0  0
    3.5540    1.6550   21.8180 C   0  0  0  0  0  0  0  0  0  0  0  0
    4.7280    0.9740   21.5890 C   0  0  0  0  0  0  0  0  0  0  0  0
   11.8110   -0.6130   22.6720 C   0  0  0  0  0  0  0  0  0  0  0  0
   12.5750   -0.5060   23.7950 C   0  0  0  0  0  0  0  0  0  0  0  0
   11.9520   -0.2970   24.9990 C   0  0  0  0  0  0  0  0  0  0  0  0
   10.5650   -0.1820   25.0890 C   0  0  0  0  0  0  0  0  0  0  0  0
    9.7560   -0.2740   23.9950 C   0  0  0  0  0  0  0  0  0  0  0  0
   10.3440   -0.4960   22.7490 C   0  0  0  0  0  0  0  0  0  0  0  0
  1  4  1  0
  2  4  1  0
  3  4  2  0
  2  7  1  0
  7 10  1  1
  5 11  1  0
  6 11  2  0
 10 11  1  0
  7 12  1  0
  8 12  1  0
  9 12  2  0
  8 13  1  0
 13 14  1  6
 14 15  2  3
 16 17  2  0
 16 18  1  0
 16 19  1  0
 13 20  1  0
 20 21  1  0
 18 22  1  6
 21 22  1  0
 23 24  2  0
 24 25  1  0
 25 26  2  0
 18 27  1  0
 26 27  1  0
 23 28  1  0
 27 28  2  0
 25 29  1  0
 29 30  2  0
 30 31  1  0
 26 32  1  0
 31 32  2  0
 33 34  2  0
 34 35  1  0
 35 36  2  0
 36 37  1  0
 19 38  1  0
 33 38  1  0
 37 38  2  0
M  END
