x0981-x0705
     RDKit          3D

 30 32  0  0  0  0  0  0  0  0999 V2000
    1.2040   -8.8030   21.2470 C   0  0  0  0  0  0  0  0  0  0  0  0
    2.7220   -7.2780   22.6970 N   0  0  0  0  0  0  0  0  0  0  0  0
    0.2500   -6.6960   22.1260 O   0  0  0  0  0  0  0  0  0  0  0  0
    1.4070   -7.5350   22.0800 C   0  0  0  0  0  0  0  0  0  0  0  0
    2.4590   -8.1800   26.4220 N   0  0  0  0  0  0  0  0  0  0  0  0
    4.0280   -8.2340   24.6440 O   0  0  0  0  0  0  0  0  0  0  0  0
    2.9620   -6.0080   23.3810 C   0  0  1  0  0  0  0  0  0  0  0  0
    5.3720   -6.0610   22.4360 N   0  0  0  0  0  0  0  0  0  0  0  0
    4.5330   -4.0750   23.4950 N   0  0  0  0  0  0  0  0  0  0  0  0
    2.7830   -6.2210   24.7510 C   0  0  0  0  0  0  0  0  0  0  0  0
    3.1720   -7.6180   25.2280 C   0  0  0  0  0  0  0  0  0  0  0  0
    4.3620   -5.4110   23.0580 C   0  0  0  0  0  0  0  0  0  0  0  0
    6.5640   -5.1900   21.9360 C   0  0  1  0  0  0  0  0  0  0  0  0
    6.5990   -5.3220   20.4160 C   0  0  0  0  0  0  0  0  0  0  0  0
    5.7460   -6.1890   19.8900 C   0  0  0  0  0  0  0  0  0  0  0  0
    1.2720   -2.5920   27.6540 C   0  0  0  0  0  0  0  0  0  0  0  0
    7.7230   -1.1340   26.2730 O   0  0  0  0  0  0  0  0  0  0  0  0
    6.6690   -1.5810   25.4270 C   0  0  0  0  0  0  0  0  0  0  0  0
    2.6850   -2.4390   27.1700 C   0  0  0  0  0  0  0  0  0  0  0  0
    2.9390   -1.4670   26.2030 C   0  0  0  0  0  0  0  0  0  0  0  0
    4.1960   -1.1930   25.6520 C   0  0  0  0  0  0  0  0  0  0  0  0
    5.3050   -1.9400   26.0880 C   0  0  0  0  0  0  0  0  0  0  0  0
    5.1180   -2.9350   27.0600 C   0  0  0  0  0  0  0  0  0  0  0  0
    3.7400   -3.2280   27.6570 C   0  0  0  0  0  0  0  0  0  0  0  0
    6.6800   -3.7860   22.3820 N   0  0  0  0  0  0  0  0  0  0  0  0
    5.8140   -3.4440   23.2910 C   0  0  1  0  0  0  0  0  0  0  0  0
    5.6000   -2.1350   23.3190 C   0  0  0  0  0  0  0  0  0  0  0  0
    6.7530   -1.6940   24.0420 N   0  0  0  0  0  0  0  0  0  0  0  0
    7.9570   -2.0120   23.4590 C   0  0  0  0  0  0  0  0  0  0  0  0
    7.8930   -3.3360   22.8390 C   0  0  0  0  0  0  0  0  0  0  0  0
  1  4  1  0
  2  4  1  0
  3  4  2  0
  2  7  1  0
  7 10  1  1
  5 11  1  0
  6 11  2  0
 10 11  1  0
  7 12  1  0
  8 12  1  0
  9 12  2  0
  8 13  1  0
 13 14  1  6
 14 15  2  3
 17 18  2  0
 16 19  1  0
 19 20  2  0
 20 21  1  0
 18 22  1  0
 21 22  2  0
 22 23  1  0
 19 24  1  0
 23 24  2  0
 13 25  1  0
  9 26  1  0
 25 26  1  0
 26 27  1  6
 18 28  1  0
 27 28  1  0
 28 29  1  0
 25 30  1  0
 29 30  1  0
M  END
