x0981-x1380
     RDKit          3D

 28 30  0  0  0  0  0  0  0  0999 V2000
    1.2200   -8.8830   21.0850 C   0  0  0  0  0  0  0  0  0  0  0  0
    2.6880   -7.4650   22.6370 N   0  0  0  0  0  0  0  0  0  0  0  0
    0.2220   -6.8500   22.0890 O   0  0  0  0  0  0  0  0  0  0  0  0
    1.3860   -7.6760   21.9960 C   0  0  0  0  0  0  0  0  0  0  0  0
    2.4060   -8.1580   26.4330 N   0  0  0  0  0  0  0  0  0  0  0  0
    4.0090   -8.2590   24.7040 O   0  0  0  0  0  0  0  0  0  0  0  0
    2.9570   -6.1890   23.2470 C   0  0  1  0  0  0  0  0  0  0  0  0
    5.5360   -6.2080   22.4090 N   0  0  0  0  0  0  0  0  0  0  0  0
    4.6740   -4.4720   23.6160 N   0  0  0  0  0  0  0  0  0  0  0  0
    2.6680   -6.3160   24.6090 C   0  0  0  0  0  0  0  0  0  0  0  0
    3.1090   -7.6480   25.2130 C   0  0  0  0  0  0  0  0  0  0  0  0
    4.4150   -5.7000   23.0400 C   0  0  0  0  0  0  0  0  0  0  0  0
    6.3090   -4.9610   20.5830 C   0  0  0  0  0  0  0  0  0  0  0  0
    5.6270   -5.9870   20.0500 C   0  0  0  0  0  0  0  0  0  0  0  0
    4.9930   -1.9050   25.2360 O   0  0  0  0  0  0  0  0  0  0  0  0
    5.9840   -2.7870   24.9640 C   0  0  0  0  0  0  0  0  0  0  0  0
    7.7520   -5.1770   22.4270 N   0  0  0  0  0  0  0  0  0  0  0  0
    6.4170   -5.1300   22.2510 C   0  0  2  0  0  0  0  0  0  0  0  0
    5.9440   -4.2280   23.4510 C   0  0  1  0  0  0  0  0  0  0  0  0
    6.3580   -2.9580   23.4610 C   0  0  2  0  0  0  0  0  0  0  0  0
    7.7140   -2.8740   23.3600 C   0  0  0  0  0  0  0  0  0  0  0  0
    8.3630   -4.0590   23.0040 C   0  0  0  0  0  0  0  0  0  0  0  0
    7.8260   -3.9700   26.0610 C   0  0  0  0  0  0  0  0  0  0  0  0
    7.9930   -5.0620   26.9540 C   0  0  0  0  0  0  0  0  0  0  0  0
    7.4870   -4.9000   28.3820 C   0  0  0  0  0  0  0  0  0  0  0  0
    6.1950   -4.3820   28.3240 C   0  0  0  0  0  0  0  0  0  0  0  0
    5.9970   -3.3140   27.4440 C   0  0  0  0  0  0  0  0  0  0  0  0
    6.5450   -3.4970   26.0800 N   0  0  0  0  0  0  0  0  0  0  0  0
  1  4  1  0
  2  4  1  0
  3  4  2  0
  2  7  1  0
  7 10  1  1
  5 11  1  0
  6 11  2  0
 10 11  1  0
  7 12  1  0
  8 12  1  0
  9 12  2  0
 13 14  2  3
 15 16  2  0
  8 18  1  0
 18 13  1  6
 17 18  1  0
 19  9  1  6
 18 19  1  0
 20 16  1  1
 19 20  1  0
 20 21  1  0
 17 22  1  0
 21 22  1  0
 23 24  1  0
 24 25  1  0
 25 26  1  0
 26 27  1  0
 16 28  1  0
 23 28  1  0
 27 28  1  0
M  END
