x0981-x2581
     RDKit          3D

 40 42  0  0  0  0  0  0  0  0999 V2000
    1.2050   -8.7150   21.3720 C   0  0  0  0  0  0  0  0  0  0  0  0
    2.7540   -7.1440   22.7580 N   0  0  0  0  0  0  0  0  0  0  0  0
    0.2750   -6.5720   22.1730 O   0  0  0  0  0  0  0  0  0  0  0  0
    1.4290   -7.4160   22.1560 C   0  0  0  0  0  0  0  0  0  0  0  0
    2.5030   -8.2310   26.4440 N   0  0  0  0  0  0  0  0  0  0  0  0
    3.9990   -8.2290   24.6030 O   0  0  0  0  0  0  0  0  0  0  0  0
    2.9970   -5.9050   23.5180 C   0  0  1  0  0  0  0  0  0  0  0  0
    5.2440   -6.0150   22.4090 N   0  0  0  0  0  0  0  0  0  0  0  0
    4.7400   -4.2550   23.7300 O   0  0  0  0  0  0  0  0  0  0  0  0
    2.8100   -6.1970   24.8680 C   0  0  0  0  0  0  0  0  0  0  0  0
    3.1810   -7.6250   25.2550 C   0  0  0  0  0  0  0  0  0  0  0  0
    4.4120   -5.3260   23.2250 C   0  0  0  0  0  0  0  0  0  0  0  0
    6.5430   -5.3280   21.9510 C   0  0  1  0  0  0  0  0  0  0  0  0
    6.4810   -5.2220   20.4230 C   0  0  0  0  0  0  0  0  0  0  0  0
    5.7010   -6.1580   19.8980 C   0  0  0  0  0  0  0  0  0  0  0  0
   10.0930   -2.4500   23.5570 C   0  0  0  0  0  0  0  0  0  0  0  0
   10.2240   -1.2600   23.8650 O   0  0  0  0  0  0  0  0  0  0  0  0
   10.6250    3.2710   22.0750 N   0  0  0  0  0  0  0  0  0  0  0  0
   10.9370    3.7020   24.2730 O   0  0  0  0  0  0  0  0  0  0  0  0
   11.1180    3.9810   23.1120 C   0  0  0  0  0  0  0  0  0  0  0  0
   11.8600    5.1410   22.8880 C   0  0  0  0  0  0  0  0  0  0  0  0
    6.8800   -4.0030   22.6810 C   0  0  0  0  0  0  0  0  0  0  0  0
    8.2360   -3.8770   22.9580 C   0  0  0  0  0  0  0  0  0  0  0  0
    8.7320   -2.7850   23.6610 C   0  0  0  0  0  0  0  0  0  0  0  0
    8.8510    1.7990   21.2350 N   0  0  0  0  0  0  0  0  0  0  0  0
    9.8900    1.9960   22.0490 C   0  0  0  0  0  0  0  0  0  0  0  0
   10.4130    0.9110   22.9840 C   0  0  0  0  0  0  0  0  0  0  0  0
    9.7520   -0.3180   22.9880 C   0  0  0  0  0  0  0  0  0  0  0  0
    8.6780   -0.4860   22.1190 C   0  0  0  0  0  0  0  0  0  0  0  0
    8.2970    0.5780   21.3020 C   0  0  0  0  0  0  0  0  0  0  0  0
    9.8860    6.7050   22.8840 C   0  0  0  0  0  0  0  0  0  0  0  0
    9.1580    7.8010   23.3880 C   0  0  0  0  0  0  0  0  0  0  0  0
    9.6780    8.5200   24.4640 C   0  0  0  0  0  0  0  0  0  0  0  0
   10.8930    8.1460   25.0170 C   0  0  0  0  0  0  0  0  0  0  0  0
   11.6010    7.0620   24.5140 C   0  0  0  0  0  0  0  0  0  0  0  0
   11.1110    6.3260   23.4410 C   0  0  0  0  0  0  0  0  0  0  0  0
    8.9720    9.6190   24.9710 C   0  0  0  0  0  0  0  0  0  0  0  0
    9.4720   10.3550   26.0320 C   0  0  0  0  0  0  0  0  0  0  0  0
   10.6930    9.9810   26.5920 C   0  0  0  0  0  0  0  0  0  0  0  0
   11.4080    8.8810   26.0940 C   0  0  0  0  0  0  0  0  0  0  0  0
  1  4  1  0
  2  4  1  0
  3  4  2  0
  2  7  1  0
  7 10  1  1
  5 11  1  0
  6 11  2  0
 10 11  1  0
  7 12  1  0
  8 12  1  0
  9 12  2  0
  8 13  1  0
 13 14  1  6
 14 15  2  3
 16 17  1  0
 18 20  1  0
 19 20  2  0
 20 21  1  0
 13 22  1  0
 22 23  1  0
 16 24  1  0
 23 24  1  0
 18 26  1  0
 25 26  2  0
 26 27  1  0
 17 28  1  0
 27 28  2  0
 28 29  1  0
 25 30  1  0
 29 30  2  0
 31 32  2  0
 32 33  1  0
 33 34  2  0
 34 35  1  0
 21 36  1  0
 31 36  1  0
 35 36  2  0
 33 37  1  0
 37 38  2  0
 38 39  1  0
 34 40  1  0
 39 40  2  0
M  END
