x0981-x1458-x3115-x3110-x3113
     RDKit          3D

 59 62  0  0  0  0  0  0  0  0999 V2000
    8.0160    1.8320   23.0080 N   0  0  0  0  0  0  0  0  0  0  0  0
   13.4130    5.2580   22.8570 C   0  0  0  0  0  0  0  0  0  0  0  0
   11.9890    3.3180   22.5020 O   0  0  0  0  0  0  0  0  0  0  0  0
   12.4690    4.5220   21.9330 C   0  0  0  0  0  0  0  0  0  0  0  0
    6.9310   -1.0570   22.0160 N   0  0  0  0  0  0  0  0  0  0  0  0
   11.3740    4.4880   24.1930 O   0  0  0  0  0  0  0  0  0  0  0  0
   11.2190    3.4950   23.4970 C   0  0  0  0  0  0  0  0  0  0  0  0
    8.6140    1.4830   20.8840 O   0  0  0  0  0  0  0  0  0  0  0  0
   10.1120    2.5180   23.8420 C   0  0  0  0  0  0  0  0  0  0  0  0
    8.8740    2.9030   23.0570 C   0  0  2  0  0  0  0  0  0  0  0  0
    7.8300    1.2500   21.7970 C   0  0  0  0  0  0  0  0  0  0  0  0
    6.5840    0.3290   21.6510 C   0  0  1  0  0  0  0  0  0  0  0  0
   12.3280   -2.0040   24.2910 C   0  0  0  0  0  0  0  0  0  0  0  0
   12.7600   -0.7850   25.0860 C   0  0  0  0  0  0  0  0  0  0  0  0
   13.3720   -2.3080   23.2140 C   0  0  0  0  0  0  0  0  0  0  0  0
   12.1390   -3.2080   25.2110 C   0  0  0  0  0  0  0  0  0  0  0  0
    8.9090    5.3410   23.0210 O   0  0  0  0  0  0  0  0  0  0  0  0
    8.1830    4.2050   23.5060 C   0  0  0  0  0  0  0  0  0  0  0  0
    8.2180    6.0810   22.3130 C   0  0  0  0  0  0  0  0  0  0  0  0
    1.2540   -8.7840   21.2840 C   0  0  0  0  0  0  0  0  0  0  0  0
    2.5700   -7.1800   22.6030 N   0  0  0  0  0  0  0  0  0  0  0  0
    0.2170   -6.6320   22.1860 O   0  0  0  0  0  0  0  0  0  0  0  0
    1.3410   -7.4890   22.0610 C   0  0  0  0  0  0  0  0  0  0  0  0
    2.4410   -8.1180   26.2650 N   0  0  0  0  0  0  0  0  0  0  0  0
    3.9050   -8.1780   24.5520 O   0  0  0  0  0  0  0  0  0  0  0  0
    2.7850   -5.9250   23.3210 C   0  0  1  0  0  0  0  0  0  0  0  0
    4.8860   -4.9570   21.9600 N   0  0  0  0  0  0  0  0  0  0  0  0
    4.8310   -5.1940   24.2500 N   0  0  0  0  0  0  0  0  0  0  0  0
    2.5750   -6.1880   24.6700 C   0  0  0  0  0  0  0  0  0  0  0  0
    3.0350   -7.5800   25.1510 C   0  0  0  0  0  0  0  0  0  0  0  0
    4.2710   -5.3200   23.1540 C   0  0  0  0  0  0  0  0  0  0  0  0
    6.7600   -5.3580   20.4230 C   0  0  0  0  0  0  0  0  0  0  0  0
    5.8420   -6.1260   19.9300 C   0  0  0  0  0  0  0  0  0  0  0  0
    6.3630   -2.1910   21.4250 C   0  0  0  0  0  0  0  0  0  0  0  0
    7.7580   -4.5300   26.1620 N   0  0  0  0  0  0  0  0  0  0  0  0
    9.3400   -4.9380   27.7250 C   0  0  0  0  0  0  0  0  0  0  0  0
    5.5790   -4.1970   26.2980 O   0  0  0  0  0  0  0  0  0  0  0  0
    8.2040   -5.4380   27.1160 C   0  0  0  0  0  0  0  0  0  0  0  0
    7.1770   -5.6280   28.0390 C   0  0  0  0  0  0  0  0  0  0  0  0
    8.0860   -3.1910   26.5150 C   0  0  0  0  0  0  0  0  0  0  0  0
    6.5590   -4.5130   25.5850 C   0  0  0  0  0  0  0  0  0  0  0  0
    6.3030    0.4730   17.7830 N   0  0  0  0  0  0  0  0  0  0  0  0
    5.2340    1.2910   17.7440 C   0  0  0  0  0  0  0  0  0  0  0  0
    4.5680    1.7970   18.8550 C   0  0  0  0  0  0  0  0  0  0  0  0
    5.0050    1.4730   20.1180 C   0  0  0  0  0  0  0  0  0  0  0  0
    6.0990    0.6520   20.2860 C   0  0  0  0  0  0  0  0  0  0  0  0
    6.7440    0.1440   19.0070 C   0  0  0  0  0  0  0  0  0  0  0  0
    9.3840   -1.4320   21.6780 C   0  0  0  0  0  0  0  0  0  0  0  0
   10.8150   -1.6790   22.1630 C   0  0  0  0  0  0  0  0  0  0  0  0
   10.9820   -1.7720   23.6910 C   0  0  0  0  0  0  0  0  0  0  0  0
    9.9230   -1.6480   24.5580 C   0  0  0  0  0  0  0  0  0  0  0  0
    8.5050   -1.4010   24.0450 C   0  0  0  0  0  0  0  0  0  0  0  0
    8.3040   -1.3010   22.5210 C   0  0  0  0  0  0  0  0  0  0  0  0
    7.0680   -3.4210   21.7810 N   0  0  0  0  0  0  0  0  0  0  0  0
    7.5600   -3.1680   23.0710 C   0  0  0  0  0  0  0  0  0  0  0  0
    6.2960   -3.2720   23.8620 C   0  0  0  0  0  0  0  0  0  0  0  0
    6.1830   -4.7180   24.1930 C   0  0  2  0  0  0  0  0  0  0  0  0
    6.8060   -5.3810   23.0810 C   0  0  0  0  0  0  0  0  0  0  0  0
    6.3610   -4.7400   21.8360 C   0  0  1  0  0  0  0  0  0  0  0  0
  2  4  1  0
  3  4  1  0
  3  7  1  0
  6  7  2  0
  7  9  1  0
  1 10  1  0
 10  9  1  1
  1 11  1  0
  8 11  2  0
  5 12  1  0
 12 11  1  6
 13 14  1  0
 13 15  1  0
 13 16  1  0
 10 18  1  0
 17 18  1  0
 17 19  1  0
 20 23  1  0
 21 23  1  0
 22 23  2  0
 21 26  1  0
 26 29  1  1
 24 30  1  0
 25 30  2  0
 29 30  1  0
 26 31  1  0
 27 31  1  0
 28 31  2  0
 32 33  2  3
  5 34  1  0
 35 38  1  0
 36 38  1  0
 38 39  1  0
 35 40  1  0
 35 41  1  0
 37 41  2  0
 42 43  2  0
 43 44  1  0
 44 45  2  0
 12 46  1  0
 45 46  1  0
 42 47  1  0
 46 47  2  0
 48 49  2  0
 13 50  1  0
 49 50  1  0
 50 51  2  0
 51 52  1  0
  5 53  1  0
 48 53  1  0
 52 53  2  0
 34 54  1  0
 54 55  1  0
 55 56  1  0
 28 57  1  0
 57 41  1  1
 56 57  1  0
 57 58  1  0
 27 59  1  0
 59 32  1  6
 54 59  1  0
 58 59  1  0
M  END
