x0981-x0755-x2776-x2705
     RDKit          3D

 71 76  0  0  0  0  0  0  0  0999 V2000
    1.0810   -8.5930   21.6620 C   0  0  0  0  0  0  0  0  0  0  0  0
    2.8440   -6.9030   22.6360 N   0  0  0  0  0  0  0  0  0  0  0  0
    0.5650   -6.5100   22.7140 O   0  0  0  0  0  0  0  0  0  0  0  0
    1.4590   -7.2840   22.3790 C   0  0  0  0  0  0  0  0  0  0  0  0
    2.4060   -8.4150   26.2350 N   0  0  0  0  0  0  0  0  0  0  0  0
    4.0550   -8.2780   24.5950 O   0  0  0  0  0  0  0  0  0  0  0  0
    3.2780   -5.9390   23.6950 C   0  0  1  0  0  0  0  0  0  0  0  0
    2.8090   -6.3770   24.9300 C   0  0  0  0  0  0  0  0  0  0  0  0
    3.1580   -7.7860   25.2290 C   0  0  0  0  0  0  0  0  0  0  0  0
    6.6820   -5.0730   20.3500 C   0  0  0  0  0  0  0  0  0  0  0  0
    5.8990   -6.0580   19.9290 C   0  0  0  0  0  0  0  0  0  0  0  0
    4.5940   -6.1160   26.4560 O   0  0  0  0  0  0  0  0  0  0  0  0
    6.3480   -4.3480   26.9540 O   0  0  0  0  0  0  0  0  0  0  0  0
    5.5030   -1.8990   26.3200 F   0  0  0  0  0  0  0  0  0  0  0  0
    5.1220   -4.8350   26.0640 S   0  0  0  0  0  0  0  0  0  0  0  0
    7.1520   -1.0490   21.9680 N   0  0  0  0  0  0  0  0  0  0  0  0
    7.5650    2.6000   21.9920 N   0  0  0  0  0  0  0  0  0  0  0  0
    9.0280    1.1660   21.0510 O   0  0  0  0  0  0  0  0  0  0  0  0
   10.6930    6.3850   24.2860 O   0  0  0  0  0  0  0  0  0  0  0  0
    6.8010    0.3370   21.5790 C   0  0  2  0  0  0  0  0  0  0  0  0
   13.5980   -2.2500   24.3160 N   0  0  0  0  0  0  0  0  0  0  0  0
    7.9340    1.3660   21.5150 C   0  0  0  0  0  0  0  0  0  0  0  0
   10.0270    1.6930   22.9980 C   0  0  0  0  0  0  0  0  0  0  0  0
   12.0230    6.2850   24.7740 C   0  0  0  0  0  0  0  0  0  0  0  0
   12.7560   -1.1110   24.1770 C   0  0  2  0  0  0  0  0  0  0  0  0
   12.5680   -0.3860   25.3730 C   0  0  0  0  0  0  0  0  0  0  0  0
   13.3100   -3.1040   25.4470 C   0  0  0  0  0  0  0  0  0  0  0  0
    5.8140   -3.0550   21.5370 C   0  0  0  0  0  0  0  0  0  0  0  0
    6.8750   -2.0010   21.2070 C   0  0  0  0  0  0  0  0  0  0  0  0
    5.3180   -0.2190   23.3370 N   0  0  0  0  0  0  0  0  0  0  0  0
    6.1990    3.0460   24.0630 N   0  0  0  0  0  0  0  0  0  0  0  0
    7.9200    1.4480   23.7980 O   0  0  0  0  0  0  0  0  0  0  0  0
    5.8750    0.8360   22.7380 C   0  0  1  0  0  0  0  0  0  0  0  0
    6.7680    1.7500   23.5610 C   0  0  0  0  0  0  0  0  0  0  0  0
   11.0240    2.4280   23.6380 C   0  0  0  0  0  0  0  0  0  0  0  0
   10.1230    1.6430   24.4010 C   0  0  0  0  0  0  0  0  0  0  0  0
    6.7030    5.3930   22.0890 C   0  0  0  0  0  0  0  0  0  0  0  0
    2.4980   -4.0650   25.9680 C   0  0  0  0  0  0  0  0  0  0  0  0
    3.8290   -3.6240   26.0820 C   0  0  0  0  0  0  0  0  0  0  0  0
    4.2300   -2.2780   26.2110 C   0  0  0  0  0  0  0  0  0  0  0  0
    3.1920   -1.3040   26.2240 C   0  0  0  0  0  0  0  0  0  0  0  0
    1.6990   -1.6800   26.1060 C   0  0  0  0  0  0  0  0  0  0  0  0
    1.4060   -3.1700   25.9710 C   0  0  0  0  0  0  0  0  0  0  0  0
    6.3030   -4.4610   21.7430 C   0  0  2  0  0  0  0  0  0  0  0  0
    7.3740   -4.7910   22.7940 C   0  0  0  0  0  0  0  0  0  0  0  0
    7.0540   -4.6820   24.1620 C   0  0  0  0  0  0  0  0  0  0  0  0
    5.6100   -4.9140   24.4420 N   0  0  0  0  0  0  0  0  0  0  0  0
    4.8620   -5.7730   23.4410 C   0  0  2  0  0  0  0  0  0  0  0  0
    4.9750   -5.1630   22.2070 C   0  0  0  0  0  0  0  0  0  0  0  0
    6.1890    0.4240   17.7030 N   0  0  0  0  0  0  0  0  0  0  0  0
    5.1000    1.1760   17.7200 C   0  0  0  0  0  0  0  0  0  0  0  0
    4.5060    1.6470   18.8480 C   0  0  0  0  0  0  0  0  0  0  0  0
    5.0540    1.3560   20.0730 C   0  0  0  0  0  0  0  0  0  0  0  0
    6.1980    0.5960   20.2180 C   0  0  0  0  0  0  0  0  0  0  0  0
    6.7310    0.1400   19.0060 C   0  0  0  0  0  0  0  0  0  0  0  0
    9.6590    3.1630   23.1180 C   0  0  0  0  0  0  0  0  0  0  0  0
   10.6850    3.9160   23.7740 C   0  0  0  0  0  0  0  0  0  0  0  0
   10.0570    5.2170   23.7270 C   0  0  0  0  0  0  0  0  0  0  0  0
    8.8570    5.7010   23.2260 C   0  0  0  0  0  0  0  0  0  0  0  0
    8.0010    4.8440   22.6310 C   0  0  0  0  0  0  0  0  0  0  0  0
    8.4060    3.5570   22.5830 C   0  0  0  0  0  0  0  0  0  0  0  0
    9.5070   -1.0560   21.8550 C   0  0  0  0  0  0  0  0  0  0  0  0
   10.8310   -1.0880   22.5650 C   0  0  0  0  0  0  0  0  0  0  0  0
   11.3940   -1.1840   23.7010 C   0  0  0  0  0  0  0  0  0  0  0  0
   10.1590   -1.3290   24.3360 C   0  0  0  0  0  0  0  0  0  0  0  0
    8.5770   -1.3500   24.0320 C   0  0  0  0  0  0  0  0  0  0  0  0
    8.3720   -1.1480   22.5300 C   0  0  0  0  0  0  0  0  0  0  0  0
   13.0010   -1.7850   22.0190 C   0  0  0  0  0  0  0  0  0  0  0  0
   13.1740   -0.3870   22.5430 C   0  0  0  0  0  0  0  0  0  0  0  0
   13.2850   -2.8290   23.0970 C   0  0  0  0  0  0  0  0  0  0  0  0
   11.7780   -2.2270   21.3420 C   0  0  0  0  0  0  0  0  0  0  0  0
  1  4  1  0
  2  4  1  0
  3  4  2  0
  2  7  1  0
  7  8  1  1
  5  9  1  0
  6  9  2  0
  8  9  1  0
 10 11  2  3
 12 15  2  0
 13 15  2  0
 16 20  1  0
 17 22  1  0
 18 22  2  0
 20 22  1  6
 19 24  1  0
 21 25  1  0
 25 26  1  1
 21 27  1  0
 16 29  1  0
 28 29  1  0
 20 33  1  0
 33 30  1  1
 31 34  1  0
 32 34  2  0
 33 34  1  0
 35 36  1  0
 15 39  1  0
 38 39  2  0
 14 40  1  0
 39 40  1  0
 40 41  2  0
 41 42  1  0
 38 43  1  0
 42 43  2  0
 44 10  1  6
 28 44  1  0
 44 45  1  0
 45 46  1  0
 15 47  1  0
 46 47  1  0
  7 48  1  0
 47 48  1  0
 44 49  1  0
 48 49  1  6
 50 51  2  0
 51 52  1  0
 52 53  2  0
 20 54  1  0
 53 54  1  0
 50 55  1  0
 54 55  2  0
 23 56  1  0
 35 57  1  0
 56 57  2  0
 19 58  1  0
 57 58  1  0
 58 59  2  0
 37 60  1  0
 59 60  1  0
 17 61  1  0
 56 61  1  0
 60 61  2  0
 62 63  2  0
 25 64  1  0
 63 64  1  0
 63 65  1  0
 64 65  2  0
 65 66  1  0
 16 67  1  0
 62 67  1  0
 66 67  2  0
 68 69  1  0
 21 70  1  0
 68 70  1  0
 68 71  1  0
M  END
