x0981-x1493-x0755-x0978-x2705
     RDKit          3D

 59 63  0  0  0  0  0  0  0  0999 V2000
    1.0080   -8.3790   21.8360 C   0  0  0  0  0  0  0  0  0  0  0  0
    2.6820   -6.7020   22.7520 N   0  0  0  0  0  0  0  0  0  0  0  0
    0.7550   -6.1280   21.7670 O   0  0  0  0  0  0  0  0  0  0  0  0
    1.2560   -6.9860   22.4630 C   0  0  0  0  0  0  0  0  0  0  0  0
    2.4060   -8.3700   26.1920 N   0  0  0  0  0  0  0  0  0  0  0  0
    4.0140   -8.1940   24.5200 O   0  0  0  0  0  0  0  0  0  0  0  0
    3.0220   -5.6660   23.7690 C   0  0  1  0  0  0  0  0  0  0  0  0
    2.7840   -6.2540   25.0160 C   0  0  0  0  0  0  0  0  0  0  0  0
    3.1430   -7.6980   25.2000 C   0  0  0  0  0  0  0  0  0  0  0  0
    6.4960   -5.0190   20.3640 C   0  0  0  0  0  0  0  0  0  0  0  0
    5.7910   -6.0720   19.9370 C   0  0  0  0  0  0  0  0  0  0  0  0
    0.4370   -6.7810   23.7300 C   0  0  0  0  0  0  0  0  0  0  0  0
    4.5230   -6.1470   26.6920 O   0  0  0  0  0  0  0  0  0  0  0  0
    6.2290   -4.3700   27.1870 O   0  0  0  0  0  0  0  0  0  0  0  0
    5.4850   -1.9650   26.0970 F   0  0  0  0  0  0  0  0  0  0  0  0
    5.1560   -4.9600   26.1780 S   0  0  0  0  0  0  0  0  0  0  0  0
    7.5120   -1.1610   21.8230 N   0  0  0  0  0  0  0  0  0  0  0  0
    7.5240    2.2780   22.7340 N   0  0  0  0  0  0  0  0  0  0  0  0
    9.0120    1.5260   21.1540 O   0  0  0  0  0  0  0  0  0  0  0  0
    6.9850    0.1970   21.5640 C   0  0  1  0  0  0  0  0  0  0  0  0
    7.9610    1.3730   21.7850 C   0  0  0  0  0  0  0  0  0  0  0  0
   10.3130    2.1590   23.9000 C   0  0  0  0  0  0  0  0  0  0  0  0
    9.3990    1.2760   24.7500 C   0  0  0  0  0  0  0  0  0  0  0  0
    6.2010    4.7470   21.9280 C   0  0  0  0  0  0  0  0  0  0  0  0
   12.3650   -1.4920   23.3690 C   0  0  0  0  0  0  0  0  0  0  0  0
   12.8110   -0.1240   23.8320 C   0  0  0  0  0  0  0  0  0  0  0  0
   12.7980   -2.5320   24.4160 C   0  0  0  0  0  0  0  0  0  0  0  0
   12.9650   -1.9090   21.9680 C   0  0  0  0  0  0  0  0  0  0  0  0
    7.0180   -3.3690   22.3910 C   0  0  0  0  0  0  0  0  0  0  0  0
    6.6250   -2.1780   21.8150 C   0  0  0  0  0  0  0  0  0  0  0  0
    2.5350   -4.0580   26.0000 C   0  0  0  0  0  0  0  0  0  0  0  0
    3.8830   -3.7260   26.0640 C   0  0  0  0  0  0  0  0  0  0  0  0
    4.2140   -2.3760   26.0370 C   0  0  0  0  0  0  0  0  0  0  0  0
    3.2190   -1.3870   25.9480 C   0  0  0  0  0  0  0  0  0  0  0  0
    1.8530   -1.7100   25.8840 C   0  0  0  0  0  0  0  0  0  0  0  0
    1.5580   -3.0880   25.9120 C   0  0  0  0  0  0  0  0  0  0  0  0
    6.3580   -4.7060   21.8830 C   0  0  2  0  0  0  0  0  0  0  0  0
    7.0030   -5.7400   22.7810 C   0  0  0  0  0  0  0  0  0  0  0  0
    6.9330   -5.3210   24.0920 C   0  0  0  0  0  0  0  0  0  0  0  0
    5.5110   -5.3220   24.5570 N   0  0  0  0  0  0  0  0  0  0  0  0
    4.4280   -4.8850   23.5950 C   0  0  1  0  0  0  0  0  0  0  0  0
    4.8510   -4.8180   22.2430 C   0  0  0  0  0  0  0  0  0  0  0  0
    6.2530    0.1820   17.7910 N   0  0  0  0  0  0  0  0  0  0  0  0
    5.1410    0.9210   17.8340 C   0  0  0  0  0  0  0  0  0  0  0  0
    4.5670    1.4280   18.9710 C   0  0  0  0  0  0  0  0  0  0  0  0
    5.1660    1.1820   20.2130 C   0  0  0  0  0  0  0  0  0  0  0  0
    6.3250    0.4310   20.2450 C   0  0  0  0  0  0  0  0  0  0  0  0
    6.8600   -0.0680   19.0790 C   0  0  0  0  0  0  0  0  0  0  0  0
    9.9820   -1.4990   24.2750 N   0  0  0  0  0  0  0  0  0  0  0  0
    8.6950   -1.4160   23.8980 N   0  0  0  0  0  0  0  0  0  0  0  0
    8.6550   -1.2790   22.5640 C   0  0  0  0  0  0  0  0  0  0  0  0
    9.9540   -1.2760   22.0500 C   0  0  0  0  0  0  0  0  0  0  0  0
   10.8620   -1.4280   23.2430 C   0  0  0  0  0  0  0  0  0  0  0  0
    9.6250    3.4470   23.5040 C   0  0  0  0  0  0  0  0  0  0  0  0
   10.1970    4.7250   23.6260 C   0  0  0  0  0  0  0  0  0  0  0  0
    9.5660    5.9110   23.2510 C   0  0  0  0  0  0  0  0  0  0  0  0
    8.2790    5.8830   22.7080 C   0  0  0  0  0  0  0  0  0  0  0  0
    7.6010    4.6740   22.5360 C   0  0  0  0  0  0  0  0  0  0  0  0
    8.2140    3.4850   22.9110 C   0  0  0  0  0  0  0  0  0  0  0  0
  1  4  1  0
  2  4  1  0
  4  3  1  0
  2  7  1  0
  7  8  1  1
  5  9  1  0
  6  9  2  0
  8  9  1  0
 10 11  2  3
  4 12  1  0
 13 16  2  0
 14 16  2  0
 17 20  1  0
 18 21  1  0
 19 21  2  0
 20 21  1  6
 22 23  1  0
 25 26  1  0
 25 27  1  0
 25 28  1  0
 17 30  1  0
 29 30  1  0
 16 32  1  0
 31 32  2  0
 15 33  1  0
 32 33  1  0
 33 34  2  0
 34 35  1  0
 31 36  1  0
 35 36  2  0
 37 10  1  6
 29 37  1  0
 37 38  1  0
 38 39  1  0
 16 40  1  0
 39 40  1  0
  7 41  1  0
 40 41  1  0
 37 42  1  0
 41 42  1  6
 43 44  2  0
 44 45  1  0
 45 46  2  0
 20 47  1  0
 46 47  1  0
 43 48  1  0
 47 48  2  0
 49 50  1  0
 17 51  1  0
 50 51  2  0
 51 52  1  0
 25 53  1  0
 49 53  1  0
 52 53  2  0
 22 54  1  0
 54 55  2  0
 55 56  1  0
 56 57  2  0
 24 58  1  0
 57 58  1  0
 18 59  1  0
 54 59  1  0
 58 59  2  0
M  END
