x0981-x0991-x0978-x2705
     RDKit          3D

 54 56  0  0  0  0  0  0  0  0999 V2000
    0.9720   -8.5550   21.7270 C   0  0  0  0  0  0  0  0  0  0  0  0
    2.5220   -7.0160   22.7150 N   0  0  0  0  0  0  0  0  0  0  0  0
    0.6350   -6.2390   21.7410 O   0  0  0  0  0  0  0  0  0  0  0  0
    1.1990   -7.1540   22.3010 C   0  0  0  0  0  0  0  0  0  0  0  0
    2.3940   -8.2240   26.2200 N   0  0  0  0  0  0  0  0  0  0  0  0
    3.9850   -8.1670   24.6230 O   0  0  0  0  0  0  0  0  0  0  0  0
    2.9900   -5.8320   23.4680 C   0  0  1  0  0  0  0  0  0  0  0  0
    5.2040   -6.0110   22.0800 N   0  0  0  0  0  0  0  0  0  0  0  0
    5.0920   -4.7040   23.9590 O   0  0  0  0  0  0  0  0  0  0  0  0
    2.7800   -6.1580   24.9620 C   0  0  0  0  0  0  0  0  0  0  0  0
    3.1100   -7.5970   25.2420 C   0  0  0  0  0  0  0  0  0  0  0  0
    4.5330   -5.4750   23.1830 C   0  0  0  0  0  0  0  0  0  0  0  0
    6.3780   -5.3320   21.4560 C   0  0  1  0  0  0  0  0  0  0  0  0
    6.4590   -5.6260   19.9370 C   0  0  0  0  0  0  0  0  0  0  0  0
    5.5130   -6.3490   19.7540 C   0  0  0  0  0  0  0  0  0  0  0  0
    0.3550   -7.0240   23.5800 C   0  0  0  0  0  0  0  0  0  0  0  0
    7.4350   -1.0660   22.0530 N   0  0  0  0  0  0  0  0  0  0  0  0
    7.5040    2.4420   22.7220 N   0  0  0  0  0  0  0  0  0  0  0  0
    9.0280    1.5590   21.0500 O   0  0  0  0  0  0  0  0  0  0  0  0
    6.8890    0.2920   21.7230 C   0  0  1  0  0  0  0  0  0  0  0  0
    7.8430    1.4680   21.8400 C   0  0  0  0  0  0  0  0  0  0  0  0
   10.2160    2.2490   23.9670 C   0  0  0  0  0  0  0  0  0  0  0  0
    9.2640    1.4590   24.9170 C   0  0  0  0  0  0  0  0  0  0  0  0
    6.2370    4.6670   21.9050 C   0  0  0  0  0  0  0  0  0  0  0  0
   12.3630   -1.4160   23.3360 C   0  0  0  0  0  0  0  0  0  0  0  0
   12.8710   -0.0210   23.7260 C   0  0  0  0  0  0  0  0  0  0  0  0
   12.8310   -2.4790   24.3900 C   0  0  0  0  0  0  0  0  0  0  0  0
   12.9380   -1.7400   21.9400 C   0  0  0  0  0  0  0  0  0  0  0  0
    6.4180   -3.8870   21.8450 C   0  0  0  0  0  0  0  0  0  0  0  0
    7.5200   -3.2250   21.4230 C   0  0  1  0  0  0  0  0  0  0  0  0
    7.3090   -1.9140   21.0610 C   0  0  0  0  0  0  0  0  0  0  0  0
    9.9840   -5.7530   25.2130 N   0  0  0  0  0  0  0  0  0  0  0  0
    8.3630   -3.6960   23.7580 C   0  0  0  0  0  0  0  0  0  0  0  0
    7.9350   -4.9980   24.0940 C   0  0  0  0  0  0  0  0  0  0  0  0
    7.8940   -5.8230   26.3510 N   0  0  0  0  0  0  0  0  0  0  0  0
    8.6070   -5.5280   25.2130 C   0  0  0  0  0  0  0  0  0  0  0  0
    8.5570   -3.6330   22.2430 C   0  0  0  0  0  0  0  0  0  0  0  0
    6.3320    0.2050   17.8990 N   0  0  0  0  0  0  0  0  0  0  0  0
    5.1990    0.9130   17.8580 C   0  0  0  0  0  0  0  0  0  0  0  0
    4.4800    1.4880   19.0970 C   0  0  0  0  0  0  0  0  0  0  0  0
    5.0980    1.2260   20.2930 C   0  0  0  0  0  0  0  0  0  0  0  0
    6.2970    0.4850   20.3350 C   0  0  0  0  0  0  0  0  0  0  0  0
    6.8710   -0.0090   19.1110 C   0  0  0  0  0  0  0  0  0  0  0  0
   10.1150   -1.2080   24.4380 N   0  0  0  0  0  0  0  0  0  0  0  0
    8.8150   -1.1160   24.0500 N   0  0  0  0  0  0  0  0  0  0  0  0
    8.6410   -1.1410   22.6940 C   0  0  0  0  0  0  0  0  0  0  0  0
    9.9550   -1.2610   22.2290 C   0  0  0  0  0  0  0  0  0  0  0  0
   10.8200   -1.2990   23.3000 C   0  0  0  0  0  0  0  0  0  0  0  0
    9.5640    3.5460   23.5470 C   0  0  0  0  0  0  0  0  0  0  0  0
   10.3010    4.8350   23.7520 C   0  0  0  0  0  0  0  0  0  0  0  0
    9.6680    5.9990   23.3420 C   0  0  0  0  0  0  0  0  0  0  0  0
    8.2630    6.0100   22.6970 C   0  0  0  0  0  0  0  0  0  0  0  0
    7.6100    4.7370   22.5320 C   0  0  0  0  0  0  0  0  0  0  0  0
    8.3220    3.6200   22.9750 C   0  0  0  0  0  0  0  0  0  0  0  0
  1  4  1  0
  2  4  1  0
  4  3  1  0
  2  7  1  0
  7 10  1  1
  5 11  1  0
  6 11  2  0
 10 11  1  0
  7 12  1  0
  8 12  1  0
  9 12  2  0
  8 13  1  0
 13 14  1  6
 14 15  2  3
  4 16  1  0
 17 20  1  0
 18 21  1  0
 19 21  2  0
 20 21  1  6
 22 23  1  0
 25 26  1  0
 25 27  1  0
 25 28  1  0
 13 29  1  0
 30 29  1  1
 17 31  1  0
 30 31  1  0
 33 34  1  0
 32 36  2  3
 34 36  1  0
 35 36  1  0
 30 37  1  0
 33 37  1  0
 38 39  2  0
 39 40  1  0
 40 41  2  0
 20 42  1  0
 41 42  1  0
 38 43  1  0
 42 43  2  0
 44 45  1  0
 17 46  1  0
 45 46  1  0
 46 47  2  0
 25 48  1  0
 44 48  2  0
 47 48  1  0
 22 49  1  0
 49 50  2  0
 50 51  1  0
 51 52  2  0
 24 53  1  0
 52 53  1  0
 18 54  1  0
 49 54  1  0
 53 54  2  0
M  END
