x0981-x2694
     RDKit          3D

 47 49  0  0  0  0  0  0  0  0999 V2000
    1.1760   -8.7690   21.3090 C   0  0  0  0  0  0  0  0  0  0  0  0
    2.7190   -7.2310   22.7240 N   0  0  0  0  0  0  0  0  0  0  0  0
    0.2530   -6.6250   22.1340 O   0  0  0  0  0  0  0  0  0  0  0  0
    1.3990   -7.4800   22.1110 C   0  0  0  0  0  0  0  0  0  0  0  0
    2.4500   -8.2040   26.4550 N   0  0  0  0  0  0  0  0  0  0  0  0
    3.9840   -8.2350   24.6420 O   0  0  0  0  0  0  0  0  0  0  0  0
    2.9820   -5.9830   23.4490 C   0  0  1  0  0  0  0  0  0  0  0  0
    5.1160   -5.8510   22.0980 N   0  0  0  0  0  0  0  0  0  0  0  0
    4.9780   -4.7860   24.0690 O   0  0  0  0  0  0  0  0  0  0  0  0
    2.7250   -6.2310   24.7940 C   0  0  0  0  0  0  0  0  0  0  0  0
    3.1320   -7.6290   25.2520 C   0  0  0  0  0  0  0  0  0  0  0  0
    4.4420   -5.5040   23.2230 C   0  0  0  0  0  0  0  0  0  0  0  0
    6.2270   -4.8430   21.9050 C   0  0  2  0  0  0  0  0  0  0  0  0
    6.5400   -5.2020   20.4000 C   0  0  0  0  0  0  0  0  0  0  0  0
    5.7740   -6.1620   19.9180 C   0  0  0  0  0  0  0  0  0  0  0  0
    7.7590   -0.8040   21.9270 N   0  0  0  0  0  0  0  0  0  0  0  0
    7.7300    2.5910   22.7750 N   0  0  0  0  0  0  0  0  0  0  0  0
    9.1150    1.7530   21.0950 O   0  0  0  0  0  0  0  0  0  0  0  0
   11.0440    6.9690   23.9480 O   0  0  0  0  0  0  0  0  0  0  0  0
    7.1860    0.4120   21.6940 C   0  0  1  0  0  0  0  0  0  0  0  0
    8.0270    1.6450   21.8880 C   0  0  0  0  0  0  0  0  0  0  0  0
   10.2430    2.0580   23.9600 C   0  0  0  0  0  0  0  0  0  0  0  0
   11.8870    6.8440   25.0850 C   0  0  0  0  0  0  0  0  0  0  0  0
   12.2430   -1.4890   23.4590 C   0  0  0  0  0  0  0  0  0  0  0  0
   13.0080   -0.3660   23.1570 C   0  0  0  0  0  0  0  0  0  0  0  0
   12.9860   -1.6300   22.1150 C   0  0  0  0  0  0  0  0  0  0  0  0
   12.7840   -2.4620   24.5770 C   0  0  0  0  0  0  0  0  0  0  0  0
    7.3260   -3.9120   22.3540 C   0  0  0  0  0  0  0  0  0  0  0  0
    6.6930   -2.7030   22.1340 C   0  0  0  0  0  0  0  0  0  0  0  0
    7.3390   -1.8440   21.2670 C   0  0  0  0  0  0  0  0  0  0  0  0
    6.3640    0.1530   17.9820 N   0  0  0  0  0  0  0  0  0  0  0  0
    5.2820    0.9420   17.9690 C   0  0  0  0  0  0  0  0  0  0  0  0
    4.7610    1.5700   19.0990 C   0  0  0  0  0  0  0  0  0  0  0  0
    5.3650    1.4040   20.3330 C   0  0  0  0  0  0  0  0  0  0  0  0
    6.4860    0.6010   20.3820 C   0  0  0  0  0  0  0  0  0  0  0  0
    6.9440   -0.0010   19.2000 C   0  0  0  0  0  0  0  0  0  0  0  0
    8.6100   -1.0640   23.9960 N   0  0  0  0  0  0  0  0  0  0  0  0
    9.9510   -1.2680   24.3830 O   0  0  0  0  0  0  0  0  0  0  0  0
   10.7750   -1.2930   23.2800 C   0  0  0  0  0  0  0  0  0  0  0  0
    9.9330   -1.1050   22.2150 C   0  0  0  0  0  0  0  0  0  0  0  0
    8.6600   -0.9690   22.6550 C   0  0  0  0  0  0  0  0  0  0  0  0
    9.8380    3.4760   23.6590 C   0  0  0  0  0  0  0  0  0  0  0  0
   10.6750    4.5680   23.9470 C   0  0  0  0  0  0  0  0  0  0  0  0
   10.2880    5.8710   23.6760 C   0  0  0  0  0  0  0  0  0  0  0  0
    9.0530    6.1230   23.0930 C   0  0  0  0  0  0  0  0  0  0  0  0
    8.2310    5.0510   22.8030 C   0  0  0  0  0  0  0  0  0  0  0  0
    8.6030    3.7370   23.0800 C   0  0  0  0  0  0  0  0  0  0  0  0
  1  4  1  0
  2  4  1  0
  3  4  2  0
  2  7  1  0
  7 10  1  1
  5 11  1  0
  6 11  2  0
 10 11  1  0
  7 12  1  0
  8 12  1  0
  9 12  2  0
  8 13  1  0
 13 14  1  6
 14 15  2  3
 16 20  1  0
 17 21  1  0
 18 21  2  0
 20 21  1  6
 19 23  1  0
 24 25  1  0
 24 26  1  0
 24 27  1  0
 13 28  1  0
 28 29  1  0
 16 30  1  0
 29 30  1  0
 31 32  2  0
 32 33  1  0
 33 34  2  0
 20 35  1  0
 34 35  1  0
 31 36  1  0
 35 36  2  0
 37 38  1  0
 24 39  1  0
 38 39  1  0
 39 40  2  0
 16 41  1  0
 37 41  2  0
 40 41  1  0
 22 42  1  0
 42 43  2  0
 19 44  1  0
 43 44  1  0
 44 45  2  0
 45 46  1  0
 17 47  1  0
 42 47  1  0
 46 47  2  0
M  END
