x0981-x0946-x3110-x1351-x1077
     RDKit          3D

 70 77  0  0  0  0  0  0  0  0999 V2000
    7.7650    1.8010   23.4410 N   0  0  0  0  0  0  0  0  0  0  0  0
   13.4020    5.2410   23.2800 C   0  0  0  0  0  0  0  0  0  0  0  0
   13.0100    4.2780   22.2420 C   0  0  0  0  0  0  0  0  0  0  0  0
    7.3240   -1.1300   21.7460 N   0  0  0  0  0  0  0  0  0  0  0  0
   10.3640    4.7300   23.3000 C   0  0  0  0  0  0  0  0  0  0  0  0
    8.8480    1.7560   21.3330 O   0  0  0  0  0  0  0  0  0  0  0  0
    8.7210    2.4290   24.2130 C   0  0  0  0  0  0  0  0  0  0  0  0
    7.9560    1.2950   22.0690 C   0  0  0  0  0  0  0  0  0  0  0  0
    7.0530    0.2590   21.5650 C   0  0  1  0  0  0  0  0  0  0  0  0
   12.5630   -1.9110   24.2870 C   0  0  0  0  0  0  0  0  0  0  0  0
   12.8540   -0.6490   24.9760 C   0  0  0  0  0  0  0  0  0  0  0  0
   13.4620   -2.0290   23.0990 C   0  0  0  0  0  0  0  0  0  0  0  0
   12.9640   -3.0230   25.2660 C   0  0  0  0  0  0  0  0  0  0  0  0
    9.0920    4.8120   22.6660 N   0  0  0  0  0  0  0  0  0  0  0  0
   10.1940    5.2630   24.5880 O   0  0  0  0  0  0  0  0  0  0  0  0
   11.1790    5.6600   22.6440 O   0  0  0  0  0  0  0  0  0  0  0  0
    1.1620   -8.6760   21.4740 C   0  0  0  0  0  0  0  0  0  0  0  0
    2.8700   -7.1760   22.7880 N   0  0  0  0  0  0  0  0  0  0  0  0
    0.5860   -6.3880   22.3210 O   0  0  0  0  0  0  0  0  0  0  0  0
    1.5650   -7.4240   22.2150 C   0  0  0  0  0  0  0  0  0  0  0  0
    2.6000   -8.0430   26.3510 N   0  0  0  0  0  0  0  0  0  0  0  0
    3.9650   -8.2320   24.5670 O   0  0  0  0  0  0  0  0  0  0  0  0
    3.2460   -5.9770   23.5080 C   0  0  1  0  0  0  0  0  0  0  0  0
    4.7840   -5.7400   21.7770 N   0  0  0  0  0  0  0  0  0  0  0  0
    3.1770   -6.1820   24.8910 C   0  0  0  0  0  0  0  0  0  0  0  0
    3.2520   -7.5190   25.2810 C   0  0  0  0  0  0  0  0  0  0  0  0
    4.3340   -5.3060   23.0680 C   0  0  0  0  0  0  0  0  0  0  0  0
    6.5610   -5.3510   19.9300 C   0  0  0  0  0  0  0  0  0  0  0  0
    5.7170   -6.2700   19.7010 C   0  0  0  0  0  0  0  0  0  0  0  0
    7.6220   -4.6600   22.7450 C   0  0  0  0  0  0  0  0  0  0  0  0
    5.5700   -3.4290   25.4420 N   0  0  0  0  0  0  0  0  0  0  0  0
    7.4700   -3.1760   26.8370 N   0  0  0  0  0  0  0  0  0  0  0  0
    6.3700   -2.7300   26.3780 C   0  0  0  0  0  0  0  0  0  0  0  0
    6.3220    0.4140   17.7920 N   0  0  0  0  0  0  0  0  0  0  0  0
    5.3030    1.2810   17.7930 C   0  0  0  0  0  0  0  0  0  0  0  0
    4.8330    1.8240   19.0000 C   0  0  0  0  0  0  0  0  0  0  0  0
    5.4000    1.4900   20.2040 C   0  0  0  0  0  0  0  0  0  0  0  0
    6.4480    0.6070   20.2220 C   0  0  0  0  0  0  0  0  0  0  0  0
    6.9380    0.0240   18.9150 C   0  0  0  0  0  0  0  0  0  0  0  0
    9.7710   -1.1470   21.7460 C   0  0  0  0  0  0  0  0  0  0  0  0
   11.0140   -1.3230   22.2870 C   0  0  0  0  0  0  0  0  0  0  0  0
   11.1580   -1.7690   23.7520 C   0  0  0  0  0  0  0  0  0  0  0  0
    9.9040   -2.0140   24.5620 C   0  0  0  0  0  0  0  0  0  0  0  0
    8.6720   -1.8050   23.9150 C   0  0  0  0  0  0  0  0  0  0  0  0
    8.5820   -1.3500   22.4410 C   0  0  0  0  0  0  0  0  0  0  0  0
   12.0260    1.0390   23.2980 C   0  0  0  0  0  0  0  0  0  0  0  0
   13.1180    1.8740   22.7440 C   0  0  0  0  0  0  0  0  0  0  0  0
   12.2580    3.1110   22.8120 C   0  0  0  0  0  0  0  0  0  0  0  0
   10.9410    3.2880   23.2930 C   0  0  0  0  0  0  0  0  0  0  0  0
   10.1390    2.2560   23.7610 C   0  0  0  0  0  0  0  0  0  0  0  0
   10.7160    1.0420   23.7700 C   0  0  0  0  0  0  0  0  0  0  0  0
    6.9630   -5.2760   24.9920 O   0  0  0  0  0  0  0  0  0  0  0  0
    7.5700   -5.5990   23.8420 C   0  0  2  0  0  0  0  0  0  0  0  0
    8.8150   -5.8710   24.3750 C   0  0  0  0  0  0  0  0  0  0  0  0
    9.5560   -4.7480   24.6280 C   0  0  0  0  0  0  0  0  0  0  0  0
    9.4410   -4.1470   25.9020 N   0  0  0  0  0  0  0  0  0  0  0  0
    8.2600   -4.3310   26.6760 C   0  0  2  0  0  0  0  0  0  0  0  0
    7.5150   -5.4000   26.1870 C   0  0  0  0  0  0  0  0  0  0  0  0
    5.5570   -2.7120   21.7080 N   0  0  0  0  0  0  0  0  0  0  0  0
    6.2830   -1.8610   22.4370 C   0  0  1  0  0  0  0  0  0  0  0  0
    6.7340   -2.4980   23.7140 C   0  0  0  0  0  0  0  0  0  0  0  0
    5.6090   -3.4710   24.0670 C   0  0  1  0  0  0  0  0  0  0  0  0
    5.3370   -4.4190   23.0640 C   0  0  0  0  0  0  0  0  0  0  0  0
    6.1820   -4.5120   21.6150 S   0  0  0  0  0  0  0  0  0  0  0  0
    6.1170   -1.0920   28.2430 C   0  0  0  0  0  0  0  0  0  0  0  0
    5.8420    0.1560   28.7830 C   0  0  0  0  0  0  0  0  0  0  0  0
    5.4390    1.2030   27.9740 C   0  0  0  0  0  0  0  0  0  0  0  0
    5.3170    0.9500   26.5670 C   0  0  0  0  0  0  0  0  0  0  0  0
    5.6160   -0.3270   26.1050 C   0  0  0  0  0  0  0  0  0  0  0  0
    6.0190   -1.3570   26.9020 C   0  0  0  0  0  0  0  0  0  0  0  0
  2  3  1  0
  1  7  1  0
  1  8  1  0
  6  8  2  0
  4  9  1  0
  9  8  1  6
 10 11  1  0
 10 12  1  0
 10 13  1  0
  5 14  1  0
  5 15  1  0
  5 16  1  0
 17 20  1  0
 18 20  1  0
 19 20  2  0
 18 23  1  0
 23 25  1  1
 21 26  1  0
 22 26  2  0
 25 26  1  0
 23 27  1  0
 24 27  1  0
 28 29  2  3
 31 33  1  0
 32 33  2  0
 34 35  2  0
 35 36  1  0
 36 37  2  0
  9 38  1  0
 37 38  1  0
 34 39  1  0
 38 39  2  0
 40 41  2  0
 10 42  1  0
 41 42  1  0
 42 43  2  0
 43 44  1  0
  4 45  1  0
 40 45  1  0
 44 45  2  0
 46 47  2  0
  3 48  1  0
 47 48  1  0
  5 49  1  0
 48 49  2  0
  7 50  1  0
 49 50  1  0
 46 51  1  0
 50 51  2  0
 53 30  1  6
 52 53  1  0
 53 54  1  0
 54 55  1  0
 55 56  1  0
 57 32  1  6
 56 57  1  0
 52 58  1  0
 57 58  1  0
 60  4  1  6
 59 60  1  0
 60 61  1  0
 31 62  1  0
 62 61  1  1
 27 63  2  0
 62 63  1  0
 24 64  1  0
 28 64  1  0
 30 64  1  0
 59 64  1  0
 63 64  1  0
 65 66  2  0
 66 67  1  0
 67 68  2  0
 68 69  1  0
 33 70  1  0
 65 70  1  0
 69 70  2  0
M  END
