x0981-x3110-x3113-x1458
     RDKit          3D

 56 59  0  0  0  0  0  0  0  0999 V2000
    8.0590    1.5860   23.2750 N   0  0  0  0  0  0  0  0  0  0  0  0
   13.3750    5.2010   22.8120 C   0  0  0  0  0  0  0  0  0  0  0  0
   12.1340    3.3110   22.4890 O   0  0  0  0  0  0  0  0  0  0  0  0
   12.3360    4.4220   22.0020 C   0  0  0  0  0  0  0  0  0  0  0  0
    7.0510   -1.0000   22.0530 N   0  0  0  0  0  0  0  0  0  0  0  0
   11.1280    4.2570   24.0980 O   0  0  0  0  0  0  0  0  0  0  0  0
   11.2310    3.2740   23.3870 C   0  0  0  0  0  0  0  0  0  0  0  0
    8.7020    1.7310   21.0900 O   0  0  0  0  0  0  0  0  0  0  0  0
   10.3590    2.2180   23.6150 C   0  0  0  0  0  0  0  0  0  0  0  0
    8.9110    2.6100   23.6800 C   0  0  0  0  0  0  0  0  0  0  0  0
    7.9270    1.2690   21.9410 C   0  0  0  0  0  0  0  0  0  0  0  0
    6.8640    0.4040   21.6190 C   0  0  1  0  0  0  0  0  0  0  0  0
   12.2890   -1.9990   24.2430 C   0  0  0  0  0  0  0  0  0  0  0  0
   12.7240   -0.8120   25.0570 C   0  0  0  0  0  0  0  0  0  0  0  0
   13.3520   -2.2830   23.1810 C   0  0  0  0  0  0  0  0  0  0  0  0
   12.0980   -3.1850   25.1830 C   0  0  0  0  0  0  0  0  0  0  0  0
    1.2150   -8.6930   21.3890 C   0  0  0  0  0  0  0  0  0  0  0  0
    2.5940   -7.0500   22.5920 N   0  0  0  0  0  0  0  0  0  0  0  0
    0.3670   -6.6080   22.2850 O   0  0  0  0  0  0  0  0  0  0  0  0
    1.3280   -7.3570   22.1340 C   0  0  0  0  0  0  0  0  0  0  0  0
    2.5040   -8.1450   26.2950 N   0  0  0  0  0  0  0  0  0  0  0  0
    3.9230   -8.1580   24.5510 O   0  0  0  0  0  0  0  0  0  0  0  0
    2.8350   -5.8520   23.3730 C   0  0  1  0  0  0  0  0  0  0  0  0
    4.9090   -4.8760   21.9350 N   0  0  0  0  0  0  0  0  0  0  0  0
    4.9530   -4.9460   24.1750 N   0  0  0  0  0  0  0  0  0  0  0  0
    2.6150   -6.1320   24.8610 C   0  0  0  0  0  0  0  0  0  0  0  0
    3.0870   -7.5560   25.1950 C   0  0  0  0  0  0  0  0  0  0  0  0
    4.2790   -5.1950   23.0900 C   0  0  0  0  0  0  0  0  0  0  0  0
    6.8060   -5.3560   20.4130 C   0  0  0  0  0  0  0  0  0  0  0  0
    5.8600   -6.1100   19.9290 C   0  0  0  0  0  0  0  0  0  0  0  0
    6.4410   -2.1600   21.4330 C   0  0  0  0  0  0  0  0  0  0  0  0
    7.5080   -4.3060   26.3170 N   0  0  0  0  0  0  0  0  0  0  0  0
    9.2250   -4.6510   27.6340 C   0  0  0  0  0  0  0  0  0  0  0  0
    5.6930   -5.5130   26.0900 O   0  0  0  0  0  0  0  0  0  0  0  0
    8.0400   -5.1980   27.1690 C   0  0  0  0  0  0  0  0  0  0  0  0
    7.2010   -5.5920   28.2060 C   0  0  0  0  0  0  0  0  0  0  0  0
    7.2260   -3.0110   26.8950 C   0  0  0  0  0  0  0  0  0  0  0  0
    6.5540   -4.8220   25.5640 C   0  0  0  0  0  0  0  0  0  0  0  0
    6.3090    0.3860   17.8430 N   0  0  0  0  0  0  0  0  0  0  0  0
    5.2310    1.2050   17.7640 C   0  0  0  0  0  0  0  0  0  0  0  0
    4.5520    1.8490   18.9730 C   0  0  0  0  0  0  0  0  0  0  0  0
    5.0700    1.5880   20.2130 C   0  0  0  0  0  0  0  0  0  0  0  0
    6.2810    0.6770   20.2730 C   0  0  0  0  0  0  0  0  0  0  0  0
    6.7840    0.1560   19.0820 C   0  0  0  0  0  0  0  0  0  0  0  0
    9.5020   -1.3930   21.7760 C   0  0  0  0  0  0  0  0  0  0  0  0
   10.7710   -1.6330   22.2520 C   0  0  0  0  0  0  0  0  0  0  0  0
   10.9680   -1.7540   23.6350 C   0  0  0  0  0  0  0  0  0  0  0  0
    9.8840   -1.6380   24.4830 C   0  0  0  0  0  0  0  0  0  0  0  0
    8.6090   -1.3970   23.9980 C   0  0  0  0  0  0  0  0  0  0  0  0
    8.3870   -1.2690   22.6460 C   0  0  0  0  0  0  0  0  0  0  0  0
    7.0360   -3.3440   21.8210 N   0  0  0  0  0  0  0  0  0  0  0  0
    7.7670   -3.1710   23.0210 C   0  0  0  0  0  0  0  0  0  0  0  0
    6.6400   -3.1510   24.0110 C   0  0  0  0  0  0  0  0  0  0  0  0
    6.3430   -4.4910   24.0900 C   0  0  2  0  0  0  0  0  0  0  0  0
    6.8100   -5.3160   23.0150 C   0  0  0  0  0  0  0  0  0  0  0  0
    6.3970   -4.7090   21.8050 C   0  0  1  0  0  0  0  0  0  0  0  0
  2  4  1  0
  3  4  1  0
  3  7  1  0
  6  7  2  0
  7  9  1  0
  1 10  1  0
  9 10  1  0
  1 11  1  0
  8 11  2  0
  5 12  1  0
 12 11  1  6
 13 14  1  0
 13 15  1  0
 13 16  1  0
 17 20  1  0
 18 20  1  0
 19 20  2  0
 18 23  1  0
 23 26  1  1
 21 27  1  0
 22 27  2  0
 26 27  1  0
 23 28  1  0
 24 28  1  0
 25 28  2  0
 29 30  2  3
  5 31  1  0
 32 35  1  0
 33 35  1  0
 35 36  1  0
 32 37  1  0
 32 38  1  0
 34 38  2  0
 39 40  2  0
 40 41  1  0
 41 42  2  0
 12 43  1  0
 42 43  1  0
 39 44  1  0
 43 44  2  0
 45 46  2  0
 13 47  1  0
 46 47  1  0
 47 48  2  0
 48 49  1  0
  5 50  1  0
 45 50  1  0
 49 50  2  0
 31 51  1  0
 51 52  1  0
 52 53  1  0
 25 54  1  0
 54 38  1  1
 53 54  1  0
 54 55  1  0
 24 56  1  0
 56 29  1  6
 51 56  1  0
 55 56  1  0
M  END
