x0991-x2581
     RDKit          3D

 26 28  0  0  0  0  0  0  0  0999 V2000
    9.8560   -2.8460   23.3370 C   0  0  0  0  0  0  0  0  0  0  0  0
    9.9700   -1.4970   23.8660 O   0  0  0  0  0  0  0  0  0  0  0  0
   10.6500    3.0760   22.1200 N   0  0  0  0  0  0  0  0  0  0  0  0
   10.7830    3.8510   24.5700 O   0  0  0  0  0  0  0  0  0  0  0  0
   11.0980    3.9200   23.1870 C   0  0  0  0  0  0  0  0  0  0  0  0
   11.9970    5.1680   22.9710 C   0  0  0  0  0  0  0  0  0  0  0  0
    9.7220   -5.7470   25.5070 N   0  0  0  0  0  0  0  0  0  0  0  0
    8.7830   -3.7120   24.0480 C   0  0  0  0  0  0  0  0  0  0  0  0
    8.3150   -4.6310   26.0510 N   0  0  0  0  0  0  0  0  0  0  0  0
    9.2020   -4.8400   25.0100 C   0  0  0  0  0  0  0  0  0  0  0  0
    8.8230    1.7530   21.1900 N   0  0  0  0  0  0  0  0  0  0  0  0
    9.9580    1.8370   22.1570 C   0  0  0  0  0  0  0  0  0  0  0  0
   10.3190    0.7760   23.0010 C   0  0  0  0  0  0  0  0  0  0  0  0
    9.6400   -0.4560   23.0240 C   0  0  0  0  0  0  0  0  0  0  0  0
    8.5910   -0.5770   22.1420 C   0  0  0  0  0  0  0  0  0  0  0  0
    8.1780    0.5630   21.2020 C   0  0  0  0  0  0  0  0  0  0  0  0
    9.9630    6.7170   22.9200 C   0  0  0  0  0  0  0  0  0  0  0  0
    9.2090    7.7940   23.3950 C   0  0  0  0  0  0  0  0  0  0  0  0
    9.6740    8.5500   24.4660 C   0  0  0  0  0  0  0  0  0  0  0  0
   10.8850    8.2470   25.0730 C   0  0  0  0  0  0  0  0  0  0  0  0
   11.5950    7.1690   24.5710 C   0  0  0  0  0  0  0  0  0  0  0  0
   11.2020    6.3680   23.5080 C   0  0  0  0  0  0  0  0  0  0  0  0
    8.9230    9.6270   24.9250 C   0  0  0  0  0  0  0  0  0  0  0  0
    9.3590   10.5290   26.0930 C   0  0  0  0  0  0  0  0  0  0  0  0
   10.7340   10.0920   26.7020 C   0  0  0  0  0  0  0  0  0  0  0  0
   11.3900    8.9880   26.1480 C   0  0  0  0  0  0  0  0  0  0  0  0
  1  2  1  0
  3  5  1  0
  4  5  2  0
  5  6  1  0
  1  8  1  0
  7 10  2  3
  8 10  1  0
  9 10  1  0
  3 12  1  0
 11 12  2  0
 12 13  1  0
  2 14  1  0
 13 14  2  0
 14 15  1  0
 11 16  1  0
 15 16  2  0
 17 18  2  0
 18 19  1  0
 19 20  2  0
 20 21  1  0
  6 22  1  0
 17 22  1  0
 21 22  2  0
 19 23  1  0
 23 24  2  0
 24 25  1  0
 20 26  1  0
 25 26  2  0
M  END
