x0991-x0770
     RDKit          3D

 21 22  0  0  0  0  0  0  0  0999 V2000
    7.2660   -2.9850   18.7830 C   0  0  0  0  0  0  0  0  0  0  0  0
    5.4240   -4.1390   19.7580 O   0  0  0  0  0  0  0  0  0  0  0  0
   13.3890   -1.7010   21.1740 Cl  0  0  0  0  0  0  0  0  0  0  0  0
    6.2980   -3.2680   19.9210 C   0  0  0  0  0  0  0  0  0  0  0  0
    9.3170   -2.9840   23.9080 C   0  0  1  0  0  0  0  0  0  0  0  0
    9.7490   -5.6940   25.0320 N   0  0  0  0  0  0  0  0  0  0  0  0
    8.5610   -3.4770   25.1540 C   0  0  0  0  0  0  0  0  0  0  0  0
    8.6740   -5.0400   27.1330 N   0  0  0  0  0  0  0  0  0  0  0  0
    8.9820   -4.6840   25.7390 C   0  0  0  0  0  0  0  0  0  0  0  0
    6.4530   -2.5470   21.1040 N   0  0  0  0  0  0  0  0  0  0  0  0
    7.3960   -1.5450   21.2720 C   0  0  0  0  0  0  0  0  0  0  0  0
    8.5590   -1.8810   21.9760 C   0  0  0  0  0  0  0  0  0  0  0  0
    8.2740   -2.6910   23.0220 N   0  0  0  0  0  0  0  0  0  0  0  0
    7.4890   -3.7840   22.7680 C   0  0  0  0  0  0  0  0  0  0  0  0
    6.3300   -3.2670   22.2080 C   0  0  0  0  0  0  0  0  0  0  0  0
   10.6370   -0.5350   24.4870 C   0  0  0  0  0  0  0  0  0  0  0  0
   11.6830    0.3200   24.1550 C   0  0  0  0  0  0  0  0  0  0  0  0
   12.6270    0.0930   23.1550 C   0  0  0  0  0  0  0  0  0  0  0  0
   12.3930   -1.2030   22.4400 C   0  0  0  0  0  0  0  0  0  0  0  0
   11.3290   -2.0430   22.7930 C   0  0  0  0  0  0  0  0  0  0  0  0
   10.3840   -1.8590   23.7690 C   0  0  0  0  0  0  0  0  0  0  0  0
  1  4  1  0
  2  4  2  0
  5  7  1  1
  6  9  2  3
  7  9  1  0
  8  9  1  0
  4 10  1  0
 10 11  1  0
 11 12  1  0
  5 13  1  0
 12 13  1  0
 13 14  1  0
 10 15  1  0
 14 15  1  0
 16 17  2  0
 17 18  1  0
  3 19  1  0
 18 19  2  0
 19 20  1  0
  5 21  1  0
 16 21  1  0
 20 21  2  0
M  END
