x0991-x0759
     RDKit          3D

 20 21  0  0  0  0  0  0  0  0999 V2000
    5.4340   -4.2070   19.7710 O   0  0  0  0  0  0  0  0  0  0  0  0
    6.3890   -3.4710   20.0540 C   0  0  0  0  0  0  0  0  0  0  0  0
    7.3730   -3.0910   18.9470 C   0  0  0  0  0  0  0  0  0  0  0  0
   13.0420    0.6620   23.4610 F   0  0  0  0  0  0  0  0  0  0  0  0
    9.6840   -5.8890   24.5160 N   0  0  0  0  0  0  0  0  0  0  0  0
    8.3260   -3.9230   24.8780 C   0  0  0  0  0  0  0  0  0  0  0  0
    8.8650   -5.4580   26.6730 N   0  0  0  0  0  0  0  0  0  0  0  0
    8.9600   -5.0870   25.3380 C   0  0  0  0  0  0  0  0  0  0  0  0
    6.5670   -3.0240   21.3430 N   0  0  0  0  0  0  0  0  0  0  0  0
    7.6960   -2.2500   21.5870 C   0  0  0  0  0  0  0  0  0  0  0  0
    8.3100   -2.3100   23.0030 C   0  0  1  0  0  0  0  0  0  0  0  0
    8.5650   -3.7390   23.4410 N   0  0  0  0  0  0  0  0  0  0  0  0
    7.4960   -4.5750   22.8760 C   0  0  0  0  0  0  0  0  0  0  0  0
    6.3620   -3.8670   22.4870 C   0  0  0  0  0  0  0  0  0  0  0  0
    9.5250   -0.5600   24.1000 C   0  0  0  0  0  0  0  0  0  0  0  0
   10.7490    0.3100   24.3050 C   0  0  0  0  0  0  0  0  0  0  0  0
   11.9180   -0.0310   23.3780 C   0  0  0  0  0  0  0  0  0  0  0  0
   11.8030   -1.0670   22.4460 C   0  0  0  0  0  0  0  0  0  0  0  0
   10.6250   -1.8070   22.3350 C   0  0  0  0  0  0  0  0  0  0  0  0
    9.5030   -1.5670   23.1390 C   0  0  0  0  0  0  0  0  0  0  0  0
  1  2  2  0
  2  3  1  0
  5  8  2  3
  6  8  1  0
  7  8  1  0
  2  9  1  0
  9 10  1  0
 10 11  1  0
  6 12  1  0
 11 12  1  0
 12 13  1  0
  9 14  1  0
 13 14  1  0
 15 16  2  0
  4 17  1  0
 16 17  1  0
 17 18  2  0
 18 19  1  0
 11 20  1  6
 15 20  1  0
 19 20  2  0
M  END
