x0995-x2912
     RDKit          3D

 21 22  0  0  0  0  0  0  0  0999 V2000
    7.0170   -0.6910   21.1860 N   0  0  0  0  0  0  0  0  0  0  0  0
    7.5830   -0.5790   24.1540 C   0  0  0  0  0  0  0  0  0  0  0  0
    8.8740    0.8560   21.4950 O   0  0  0  0  0  0  0  0  0  0  0  0
    8.3820   -0.9430   22.9230 C   0  0  1  0  0  0  0  0  0  0  0  0
    8.1220   -0.2210   21.8590 C   0  0  0  0  0  0  0  0  0  0  0  0
   13.6200   -2.8430   20.6420 N   0  0  0  0  0  0  0  0  0  0  0  0
    4.8260    1.2390   21.7600 C   0  0  0  0  0  0  0  0  0  0  0  0
   13.0450   -1.9470   21.4580 C   0  0  0  0  0  0  0  0  0  0  0  0
    3.7120    2.4670   19.6340 N   0  0  0  0  0  0  0  0  0  0  0  0
    6.2630    0.4170   17.7250 N   0  0  0  0  0  0  0  0  0  0  0  0
    5.2570    1.2910   17.9400 C   0  0  0  0  0  0  0  0  0  0  0  0
    4.7020    1.6210   19.3210 C   0  0  0  0  0  0  0  0  0  0  0  0
    5.2970    0.9690   20.3670 C   0  0  0  0  0  0  0  0  0  0  0  0
    6.4290   -0.0140   20.0400 C   0  0  0  0  0  0  0  0  0  0  0  0
    6.9810   -0.3610   18.7870 C   0  0  0  0  0  0  0  0  0  0  0  0
   10.5300    0.4120   23.7880 C   0  0  0  0  0  0  0  0  0  0  0  0
   12.0350    0.6870   23.8130 C   0  0  0  0  0  0  0  0  0  0  0  0
   12.8380   -0.0890   23.0450 C   0  0  0  0  0  0  0  0  0  0  0  0
   12.3000   -1.1090   22.2650 C   0  0  0  0  0  0  0  0  0  0  0  0
   10.9350   -1.3740   22.2270 C   0  0  0  0  0  0  0  0  0  0  0  0
   10.0460   -0.6220   22.9790 C   0  0  0  0  0  0  0  0  0  0  0  0
  4  2  1  1
  1  5  1  0
  3  5  2  0
  4  5  1  0
  6  8  3  0
 10 11  2  0
  9 12  1  0
 11 12  1  0
  7 13  1  0
 12 13  2  0
  1 14  1  0
 13 14  1  0
 10 15  1  0
 14 15  2  0
 16 17  2  0
 17 18  1  0
  8 19  1  0
 18 19  2  0
 19 20  1  0
  4 21  1  0
 16 21  1  0
 20 21  2  0
M  END
