x0995-x2563
     RDKit          3D

 20 22  0  0  0  0  0  0  0  0999 V2000
    8.1610   -0.3840   21.2560 C   0  0  0  0  0  0  0  0  0  0  0  0
    8.3940    0.8000   20.9870 O   0  0  0  0  0  0  0  0  0  0  0  0
    6.8650   -1.0090   20.8870 C   0  0  0  0  0  0  0  0  0  0  0  0
    9.0800   -1.2420   21.9510 N   0  0  0  0  0  0  0  0  0  0  0  0
    6.1790    0.6330   17.4870 N   0  0  0  0  0  0  0  0  0  0  0  0
    5.1260    1.4540   17.8390 C   0  0  0  0  0  0  0  0  0  0  0  0
    4.6250    1.4620   19.2370 C   0  0  0  0  0  0  0  0  0  0  0  0
    5.2610    0.5830   20.2820 C   0  0  0  0  0  0  0  0  0  0  0  0
    6.3110   -0.2370   19.9350 C   0  0  0  0  0  0  0  0  0  0  0  0
    6.8240   -0.2470   18.4950 C   0  0  0  0  0  0  0  0  0  0  0  0
    3.4940    2.3270   19.6560 C   0  0  0  0  0  0  0  0  0  0  0  0
    3.0370    2.2900   21.1120 C   0  0  0  0  0  0  0  0  0  0  0  0
    3.6860    1.4470   22.0260 C   0  0  0  0  0  0  0  0  0  0  0  0
    4.7480    0.6400   21.5910 C   0  0  0  0  0  0  0  0  0  0  0  0
   11.4120   -0.7130   22.4760 C   0  0  0  0  0  0  0  0  0  0  0  0
   12.3270   -0.0200   23.1860 C   0  0  0  0  0  0  0  0  0  0  0  0
   11.8510    0.8440   24.1440 C   0  0  0  0  0  0  0  0  0  0  0  0
   10.4750    1.0020   24.3900 C   0  0  0  0  0  0  0  0  0  0  0  0
    9.5700    0.2800   23.6480 C   0  0  0  0  0  0  0  0  0  0  0  0
   10.0490   -0.5730   22.6860 C   0  0  0  0  0  0  0  0  0  0  0  0
  1  2  2  0
  1  3  1  0
  1  4  1  0
  5  6  2  0
  6  7  1  0
  7  8  2  0
  3  9  1  0
  8  9  1  0
  5 10  1  0
  9 10  2  0
  7 11  1  0
 11 12  2  0
 12 13  1  0
  8 14  1  0
 13 14  2  0
 15 16  2  0
 16 17  1  0
 17 18  2  0
 18 19  1  0
  4 20  1  0
 15 20  1  0
 19 20  2  0
M  END
