x0991-x1380
     RDKit          3D

 22 25  0  0  0  0  0  0  0  0999 V2000
    7.2020   -3.3130   19.2940 C   0  0  0  0  0  0  0  0  0  0  0  0
    5.3930   -4.6920   19.9620 O   0  0  0  0  0  0  0  0  0  0  0  0
    6.4340   -4.1160   20.2960 C   0  0  0  0  0  0  0  0  0  0  0  0
    6.1640   -2.0970   25.6630 O   0  0  0  0  0  0  0  0  0  0  0  0
    6.3010   -3.2930   25.4780 C   0  0  0  0  0  0  0  0  0  0  0  0
    9.3810   -5.8740   24.3490 N   0  0  0  0  0  0  0  0  0  0  0  0
    8.6370   -3.3770   23.1520 C   0  0  0  0  0  0  0  0  0  0  0  0
    7.8600   -3.6870   24.4320 C   0  0  2  0  0  0  0  0  0  0  0  0
    8.1990   -5.2670   26.2790 N   0  0  0  0  0  0  0  0  0  0  0  0
    8.5080   -4.9910   24.9990 C   0  0  0  0  0  0  0  0  0  0  0  0
    6.9550   -4.2420   21.5610 N   0  0  0  0  0  0  0  0  0  0  0  0
    6.8940   -5.4890   22.3850 C   0  0  0  0  0  0  0  0  0  0  0  0
    6.2230   -5.1920   23.5900 C   0  0  0  0  0  0  0  0  0  0  0  0
    6.3480   -3.8780   24.0060 C   0  0  1  0  0  0  0  0  0  0  0  0
    6.2440   -2.7690   22.9460 C   0  0  0  0  0  0  0  0  0  0  0  0
    7.5200   -3.0730   22.2070 C   0  0  1  0  0  0  0  0  0  0  0  0
    7.5300   -4.3550   27.1700 C   0  0  2  0  0  0  0  0  0  0  0  0
    7.5410   -5.0230   28.3790 C   0  0  0  0  0  0  0  0  0  0  0  0
    6.4940   -4.6970   29.2180 C   0  0  0  0  0  0  0  0  0  0  0  0
    5.2630   -4.7460   28.6080 C   0  0  0  0  0  0  0  0  0  0  0  0
    5.2130   -3.9180   27.5100 C   0  0  0  0  0  0  0  0  0  0  0  0
    6.3160   -4.2050   26.6050 N   0  0  0  0  0  0  0  0  0  0  0  0
  1  3  1  0
  2  3  2  0
  4  5  2  0
  8  7  1  6
  6 10  2  3
  8 10  1  0
  9 10  1  0
  3 11  1  0
 11 12  1  0
 12 13  1  0
 14  5  1  0
  8 14  1  0
 14 13  1  1
 14 15  1  0
 16  7  1  1
 11 16  1  0
 15 16  1  0
  9 17  1  0
 17 18  1  1
 18 19  1  0
 19 20  1  0
 20 21  1  0
  5 22  1  0
 17 22  1  0
 21 22  1  0
M  END
