x0995-x0692
     RDKit          3D

 25 27  0  0  0  0  0  0  0  0999 V2000
   11.1240    2.4540   23.5500 C   0  0  0  0  0  0  0  0  0  0  0  0
    5.5150   -4.0270   19.7750 O   0  0  0  0  0  0  0  0  0  0  0  0
    9.3560   -2.3780   24.1580 C   0  0  0  0  0  0  0  0  0  0  0  0
    6.3660   -3.1080   19.8680 C   0  0  0  0  0  0  0  0  0  0  0  0
    7.3100   -2.9420   18.6920 C   0  0  0  0  0  0  0  0  0  0  0  0
    3.3070    1.2000   20.0460 N   0  0  0  0  0  0  0  0  0  0  0  0
    5.4080   -1.1610   21.2320 C   0  0  0  0  0  0  0  0  0  0  0  0
   11.3970    0.9870   23.5260 C   0  0  0  0  0  0  0  0  0  0  0  0
   10.2750   -0.0030   23.8710 C   0  0  0  0  0  0  0  0  0  0  0  0
   10.4480   -1.3710   23.8500 C   0  0  0  0  0  0  0  0  0  0  0  0
   11.8480   -1.8910   23.4690 C   0  0  0  0  0  0  0  0  0  0  0  0
   12.9140   -1.0130   23.1490 C   0  0  0  0  0  0  0  0  0  0  0  0
   12.7240    0.3860   23.1680 C   0  0  0  0  0  0  0  0  0  0  0  0
    6.5510   -2.1630   21.1510 C   0  0  0  0  0  0  0  0  0  0  0  0
    7.7550   -1.4800   21.0730 C   0  0  0  0  0  0  0  0  0  0  0  0
    8.8140   -2.0830   21.7280 C   0  0  0  0  0  0  0  0  0  0  0  0
    8.4550   -2.5240   23.0490 N   0  0  0  0  0  0  0  0  0  0  0  0
    7.4510   -3.5160   22.9400 C   0  0  0  0  0  0  0  0  0  0  0  0
    6.3150   -2.9710   22.2900 C   0  0  0  0  0  0  0  0  0  0  0  0
    4.5520    0.7830   19.4660 C   0  0  0  0  0  0  0  0  0  0  0  0
    5.0140    1.3770   18.2680 C   0  0  0  0  0  0  0  0  0  0  0  0
    6.2870    0.9970   17.6230 N   0  0  0  0  0  0  0  0  0  0  0  0
    6.9310    0.0510   18.3100 C   0  0  0  0  0  0  0  0  0  0  0  0
    6.5830   -0.6160   19.4870 N   0  0  0  0  0  0  0  0  0  0  0  0
    5.4720   -0.2800   20.0290 C   0  0  0  0  0  0  0  0  0  0  0  0
  2  4  2  0
  4  5  1  0
  1  8  1  0
  8  9  2  0
  3 10  1  0
  9 10  1  0
 10 11  2  0
 11 12  1  0
  8 13  1  0
 12 13  2  0
 14  4  1  0
  7 14  1  0
 14 15  1  0
 15 16  1  0
  3 17  1  0
 16 17  1  0
 17 18  1  0
 14 19  1  0
 18 19  1  0
  6 20  1  0
 20 21  2  0
 21 22  1  0
 22 23  2  0
 23 24  1  0
  7 25  1  0
 20 25  1  0
 24 25  2  0
M  END
