x0995-x2649
     RDKit          3D

 20 21  0  0  0  0  0  0  0  0999 V2000
    6.9380   -0.5630   21.2060 N   0  0  0  0  0  0  0  0  0  0  0  0
    7.9770   -1.2750   23.8200 C   0  0  0  0  0  0  0  0  0  0  0  0
    8.7920    0.9540   21.5180 O   0  0  0  0  0  0  0  0  0  0  0  0
   13.2120   -2.7480   21.1320 Cl  0  0  0  0  0  0  0  0  0  0  0  0
    8.6380   -1.1560   22.4660 C   0  0  1  0  0  0  0  0  0  0  0  0
    8.1380   -0.2220   21.7310 C   0  0  0  0  0  0  0  0  0  0  0  0
    4.7250    1.1610   21.6600 C   0  0  0  0  0  0  0  0  0  0  0  0
    3.5630    2.4810   19.0420 N   0  0  0  0  0  0  0  0  0  0  0  0
    6.2890    0.5750   17.5620 N   0  0  0  0  0  0  0  0  0  0  0  0
    5.2310    1.3770   17.8060 C   0  0  0  0  0  0  0  0  0  0  0  0
    4.6720    1.6080   19.0550 C   0  0  0  0  0  0  0  0  0  0  0  0
    5.2890    0.9170   20.3010 C   0  0  0  0  0  0  0  0  0  0  0  0
    6.3620    0.0930   20.0440 C   0  0  0  0  0  0  0  0  0  0  0  0
    6.8200   -0.0350   18.6220 C   0  0  0  0  0  0  0  0  0  0  0  0
   10.6240    0.2660   23.2640 C   0  0  0  0  0  0  0  0  0  0  0  0
   12.0130    0.4770   23.3080 C   0  0  0  0  0  0  0  0  0  0  0  0
   12.9160   -0.5270   22.6070 C   0  0  0  0  0  0  0  0  0  0  0  0
   12.3270   -1.5880   21.9610 C   0  0  0  0  0  0  0  0  0  0  0  0
   10.9670   -1.7570   21.9470 C   0  0  0  0  0  0  0  0  0  0  0  0
   10.1020   -0.8830   22.5650 C   0  0  0  0  0  0  0  0  0  0  0  0
  5  2  1  1
  1  6  1  0
  3  6  2  0
  5  6  1  0
  9 10  2  0
  8 11  1  0
 10 11  1  0
  7 12  1  0
 11 12  2  0
  1 13  1  0
 12 13  1  0
  9 14  1  0
 13 14  2  0
 15 16  2  0
 16 17  1  0
  4 18  1  0
 17 18  2  0
 18 19  1  0
  5 20  1  0
 15 20  1  0
 19 20  2  0
M  END
