x0991-x2572
     RDKit          3D

 25 26  0  0  0  0  0  0  0  0999 V2000
    4.3570    1.0340   21.5370 C   0  0  0  0  0  0  0  0  0  0  0  0
    8.8710    0.8250   21.4180 O   0  0  0  0  0  0  0  0  0  0  0  0
    6.9520   -0.8260   21.3090 N   0  0  0  0  0  0  0  0  0  0  0  0
   13.6810   -2.7540   20.6100 N   0  0  0  0  0  0  0  0  0  0  0  0
    8.0760   -0.2270   21.9810 C   0  0  0  0  0  0  0  0  0  0  0  0
    8.5840   -0.6030   23.4090 C   0  0  1  0  0  0  0  0  0  0  0  0
   13.1170   -1.8750   21.4290 C   0  0  0  0  0  0  0  0  0  0  0  0
    9.8450   -5.7210   25.3460 N   0  0  0  0  0  0  0  0  0  0  0  0
    8.8530   -3.1550   23.1910 C   0  0  0  0  0  0  0  0  0  0  0  0
    8.2650   -4.4320   23.8630 C   0  0  0  0  0  0  0  0  0  0  0  0
    7.9360   -4.3410   26.3080 N   0  0  0  0  0  0  0  0  0  0  0  0
    8.6960   -4.8370   25.1450 C   0  0  0  0  0  0  0  0  0  0  0  0
    8.2670   -1.9150   23.8790 C   0  0  0  0  0  0  0  0  0  0  0  0
    6.3640    0.6170   17.6430 N   0  0  0  0  0  0  0  0  0  0  0  0
    6.9190   -0.1190   18.8010 C   0  0  0  0  0  0  0  0  0  0  0  0
    6.3430   -0.0760   20.2020 C   0  0  0  0  0  0  0  0  0  0  0  0
    5.1050    0.8190   20.2940 C   0  0  0  0  0  0  0  0  0  0  0  0
    4.6800    1.4560   19.1250 C   0  0  0  0  0  0  0  0  0  0  0  0
    5.2740    1.3610   17.8810 C   0  0  0  0  0  0  0  0  0  0  0  0
   10.7030    0.6140   23.9620 C   0  0  0  0  0  0  0  0  0  0  0  0
   12.0820    0.8050   23.8180 C   0  0  0  0  0  0  0  0  0  0  0  0
   12.8260   -0.0220   22.9910 C   0  0  0  0  0  0  0  0  0  0  0  0
   12.3300   -1.0180   22.2930 C   0  0  0  0  0  0  0  0  0  0  0  0
   10.8560   -1.3240   22.3580 C   0  0  0  0  0  0  0  0  0  0  0  0
   10.0420   -0.4140   23.2700 C   0  0  0  0  0  0  0  0  0  0  0  0
  2  5  2  0
  3  5  1  0
  5  6  1  0
  4  7  3  0
  9 10  1  0
  8 12  2  3
 10 12  1  0
 11 12  1  0
  6 13  1  6
  9 13  1  0
 14 15  2  0
  3 16  1  0
 15 16  1  0
  1 17  1  0
 16 17  2  0
 17 18  1  0
 14 19  1  0
 18 19  2  0
 20 21  2  0
 21 22  1  0
  7 23  1  0
 22 23  2  0
 23 24  1  0
  6 25  1  0
 20 25  1  0
 24 25  2  0
M  END
