x0991-x1351
     RDKit          3D

 23 25  0  0  0  0  0  0  0  0999 V2000
    7.1490   -3.2020   19.3030 C   0  0  0  0  0  0  0  0  0  0  0  0
    5.1420   -4.3780   19.7960 O   0  0  0  0  0  0  0  0  0  0  0  0
    6.1760   -3.8840   20.2250 C   0  0  0  0  0  0  0  0  0  0  0  0
    6.1670   -3.2360   25.5900 N   0  0  0  0  0  0  0  0  0  0  0  0
    8.2660   -2.5470   26.4050 O   0  0  0  0  0  0  0  0  0  0  0  0
    7.0810   -2.3110   26.2870 C   0  0  0  0  0  0  0  0  0  0  0  0
    9.7410   -5.6980   24.9040 N   0  0  0  0  0  0  0  0  0  0  0  0
    8.6100   -3.4490   22.9400 C   0  0  0  0  0  0  0  0  0  0  0  0
    7.8600   -4.4010   23.8840 C   0  0  1  0  0  0  0  0  0  0  0  0
    8.1180   -4.7440   26.4980 N   0  0  0  0  0  0  0  0  0  0  0  0
    8.6030   -4.9530   25.1350 C   0  0  0  0  0  0  0  0  0  0  0  0
    6.4630   -4.0210   21.5540 N   0  0  0  0  0  0  0  0  0  0  0  0
    7.2360   -3.1430   22.4350 C   0  0  1  0  0  0  0  0  0  0  0  0
    6.6220   -2.5070   23.4150 C   0  0  0  0  0  0  0  0  0  0  0  0
    6.4680   -3.6460   24.1830 C   0  0  2  0  0  0  0  0  0  0  0  0
    5.5020   -4.6680   23.4910 C   0  0  0  0  0  0  0  0  0  0  0  0
    6.1610   -5.2290   22.1460 C   0  0  0  0  0  0  0  0  0  0  0  0
    7.1410   -0.5540   28.1110 C   0  0  0  0  0  0  0  0  0  0  0  0
    6.6910    0.6270   28.6920 C   0  0  0  0  0  0  0  0  0  0  0  0
    5.6800    1.3580   28.0970 C   0  0  0  0  0  0  0  0  0  0  0  0
    5.1320    0.8750   26.9110 C   0  0  0  0  0  0  0  0  0  0  0  0
    5.5690   -0.3160   26.3050 C   0  0  0  0  0  0  0  0  0  0  0  0
    6.5530   -1.0230   26.8850 C   0  0  0  0  0  0  0  0  0  0  0  0
  1  3  1  0
  2  3  2  0
  4  6  1  0
  5  6  2  0
  8  9  1  0
  7 11  2  3
  9 11  1  1
 10 11  1  0
  3 12  1  0
 13  8  1  1
 12 13  1  0
 13 14  1  0
 15  4  1  1
  9 15  1  0
 14 15  1  0
 15 16  1  0
 12 17  1  0
 16 17  1  0
 18 19  2  0
 19 20  1  0
 20 21  2  0
 21 22  1  0
  6 23  1  0
 18 23  1  0
 22 23  2  0
M  END
