x0991-x2569
     RDKit          3D

 24 25  0  0  0  0  0  0  0  0999 V2000
    8.0450    0.0550   21.6140 C   0  0  0  0  0  0  0  0  0  0  0  0
    8.8270    1.2260   21.2720 O   0  0  0  0  0  0  0  0  0  0  0  0
    8.7650   -1.0880   22.3460 C   0  0  2  0  0  0  0  0  0  0  0  0
   13.2420   -2.4780   20.8120 N   0  0  0  0  0  0  0  0  0  0  0  0
    6.6770   -0.2460   21.3390 N   0  0  0  0  0  0  0  0  0  0  0  0
   13.6730   -1.3440   21.5730 C   0  0  0  0  0  0  0  0  0  0  0  0
    9.9200   -5.8210   25.7220 N   0  0  0  0  0  0  0  0  0  0  0  0
    8.6610   -3.4370   23.3120 C   0  0  0  0  0  0  0  0  0  0  0  0
    7.8540   -4.3080   24.2740 C   0  0  0  0  0  0  0  0  0  0  0  0
    7.9090   -4.9380   26.3970 N   0  0  0  0  0  0  0  0  0  0  0  0
    8.7940   -5.0770   25.2150 C   0  0  0  0  0  0  0  0  0  0  0  0
    8.1710   -1.9720   23.4330 C   0  0  0  0  0  0  0  0  0  0  0  0
   11.5810    0.7660   24.0980 N   0  0  0  0  0  0  0  0  0  0  0  0
   12.7390    0.2160   23.3720 C   0  0  0  0  0  0  0  0  0  0  0  0
   12.5660   -0.7160   22.3930 C   0  0  0  0  0  0  0  0  0  0  0  0
   11.2300   -1.2360   21.9920 C   0  0  0  0  0  0  0  0  0  0  0  0
   10.1130   -0.6200   22.7560 C   0  0  0  0  0  0  0  0  0  0  0  0
   10.3580    0.3290   23.7550 C   0  0  0  0  0  0  0  0  0  0  0  0
    6.3740    0.6180   17.7540 N   0  0  0  0  0  0  0  0  0  0  0  0
    6.8430    0.0880   18.9040 C   0  0  0  0  0  0  0  0  0  0  0  0
    6.1920    0.2840   20.0870 C   0  0  0  0  0  0  0  0  0  0  0  0
    5.0330    1.0170   20.1200 C   0  0  0  0  0  0  0  0  0  0  0  0
    4.5240    1.5700   18.9550 C   0  0  0  0  0  0  0  0  0  0  0  0
    5.2170    1.3510   17.8290 C   0  0  0  0  0  0  0  0  0  0  0  0
  1  2  2  0
  1  3  1  0
  1  5  1  0
  4  6  3  0
  8  9  1  0
  7 11  2  3
  9 11  1  0
 10 11  1  0
  3 12  1  1
  8 12  1  0
 13 14  2  0
  6 15  1  0
 14 15  1  0
 15 16  2  0
  3 17  1  0
 16 17  1  0
 13 18  1  0
 17 18  2  0
 19 20  2  0
  5 21  1  0
 20 21  1  0
 21 22  2  0
 22 23  1  0
 19 24  1  0
 23 24  2  0
M  END
