x0995-x2703
     RDKit          3D

 34 36  0  0  0  0  0  0  0  0999 V2000
    6.9580   -1.7010   21.7480 N   0  0  0  0  0  0  0  0  0  0  0  0
    6.7010   -4.9510   20.4490 C   0  0  0  0  0  0  0  0  0  0  0  0
    4.8480   -3.0320   21.1970 O   0  0  0  0  0  0  0  0  0  0  0  0
    6.7860   -4.2190   21.7680 C   0  0  0  0  0  0  0  0  0  0  0  0
    7.3800    1.8280   22.7640 N   0  0  0  0  0  0  0  0  0  0  0  0
    8.9020    0.5770   21.5670 O   0  0  0  0  0  0  0  0  0  0  0  0
    6.1030   -2.9070   21.5490 C   0  0  0  0  0  0  0  0  0  0  0  0
    6.6220   -0.2170   21.5560 C   0  0  1  0  0  0  0  0  0  0  0  0
    7.7550    0.7490   21.9650 C   0  0  0  0  0  0  0  0  0  0  0  0
   10.0780    1.9200   24.0040 C   0  0  0  0  0  0  0  0  0  0  0  0
    9.1270    1.2050   25.0150 C   0  0  0  0  0  0  0  0  0  0  0  0
    6.1320    4.3470   21.7760 C   0  0  0  0  0  0  0  0  0  0  0  0
   11.8000   -2.1480   24.6010 C   0  0  0  0  0  0  0  0  0  0  0  0
   13.0590   -2.5040   24.1140 C   0  0  0  0  0  0  0  0  0  0  0  0
   12.7880   -0.9500   24.4760 C   0  0  0  0  0  0  0  0  0  0  0  0
    3.1820    2.1520   18.9900 N   0  0  0  0  0  0  0  0  0  0  0  0
    6.2830    0.3820   17.8780 N   0  0  0  0  0  0  0  0  0  0  0  0
    5.1490    1.0900   17.8390 C   0  0  0  0  0  0  0  0  0  0  0  0
    4.4140    1.3990   18.9420 C   0  0  0  0  0  0  0  0  0  0  0  0
    4.8170    0.9960   20.1880 C   0  0  0  0  0  0  0  0  0  0  0  0
    6.0020    0.2660   20.2780 C   0  0  0  0  0  0  0  0  0  0  0  0
    6.7130   -0.0320   19.0920 C   0  0  0  0  0  0  0  0  0  0  0  0
   10.6570   -2.2830   22.4970 N   0  0  0  0  0  0  0  0  0  0  0  0
   10.6220   -2.0540   23.8260 C   0  0  0  0  0  0  0  0  0  0  0  0
    9.4550   -1.7250   24.4990 C   0  0  0  0  0  0  0  0  0  0  0  0
    8.2220   -1.6110   23.8490 C   0  0  0  0  0  0  0  0  0  0  0  0
    8.2200   -1.8410   22.4810 C   0  0  0  0  0  0  0  0  0  0  0  0
    9.4520   -2.1710   21.8770 C   0  0  0  0  0  0  0  0  0  0  0  0
    9.3530    3.1430   23.4810 C   0  0  0  0  0  0  0  0  0  0  0  0
   10.0190    4.3760   23.6050 C   0  0  0  0  0  0  0  0  0  0  0  0
    9.4210    5.5550   23.1430 C   0  0  0  0  0  0  0  0  0  0  0  0
    8.1550    5.5020   22.5540 C   0  0  0  0  0  0  0  0  0  0  0  0
    7.4880    4.2730   22.4290 C   0  0  0  0  0  0  0  0  0  0  0  0
    8.0740    3.0770   22.8920 C   0  0  0  0  0  0  0  0  0  0  0  0
  2  4  1  0
  1  7  1  0
  3  7  2  0
  4  7  1  0
  1  8  1  0
  5  9  1  0
  6  9  2  0
  8  9  1  6
 10 11  1  0
 13 14  1  0
 13 15  1  0
 17 18  2  0
 16 19  1  0
 18 19  1  0
 19 20  2  0
  8 21  1  0
 20 21  1  0
 17 22  1  0
 21 22  2  0
 13 24  1  0
 23 24  2  0
 24 25  1  0
 25 26  2  0
  1 27  1  0
 26 27  1  0
 23 28  1  0
 27 28  2  0
 10 29  1  0
 29 30  2  0
 30 31  1  0
 31 32  2  0
 12 33  1  0
 32 33  1  0
  5 34  1  0
 29 34  1  0
 33 34  2  0
M  END
