x0991-x2643
     RDKit          3D

 22 23  0  0  0  0  0  0  0  0999 V2000
    6.5650   -1.0710   20.8750 N   0  0  0  0  0  0  0  0  0  0  0  0
    8.4750    0.4420   21.4320 O   0  0  0  0  0  0  0  0  0  0  0  0
   13.4520    0.5300   23.0290 Cl  0  0  0  0  0  0  0  0  0  0  0  0
    8.5960   -1.8750   22.2860 C   0  0  2  0  0  0  0  0  0  0  0  0
    7.8310   -0.8330   21.5120 C   0  0  0  0  0  0  0  0  0  0  0  0
    9.9880   -5.6420   25.3210 N   0  0  0  0  0  0  0  0  0  0  0  0
    8.5740   -4.0460   23.4780 C   0  0  0  0  0  0  0  0  0  0  0  0
    7.7760   -4.7960   24.5510 C   0  0  0  0  0  0  0  0  0  0  0  0
    8.0030   -5.7030   26.8550 N   0  0  0  0  0  0  0  0  0  0  0  0
    8.5790   -5.3690   25.5450 C   0  0  0  0  0  0  0  0  0  0  0  0
    7.9070   -2.6800   23.3130 C   0  0  0  0  0  0  0  0  0  0  0  0
   11.8830    0.0390   23.1570 C   0  0  0  0  0  0  0  0  0  0  0  0
   10.8880    0.5230   23.9910 C   0  0  0  0  0  0  0  0  0  0  0  0
    9.6870   -0.0700   23.8140 C   0  0  0  0  0  0  0  0  0  0  0  0
    9.6720   -1.0410   22.8360 C   0  0  0  0  0  0  0  0  0  0  0  0
   11.4030   -1.2070   22.1350 S   0  0  0  0  0  0  0  0  0  0  0  0
    6.2890    0.8630   17.5580 N   0  0  0  0  0  0  0  0  0  0  0  0
    6.7860   -0.0300   18.6170 C   0  0  0  0  0  0  0  0  0  0  0  0
    6.1230   -0.2510   19.8470 C   0  0  0  0  0  0  0  0  0  0  0  0
    4.8590    0.5310   19.9270 C   0  0  0  0  0  0  0  0  0  0  0  0
    4.4510    1.3480   18.8970 C   0  0  0  0  0  0  0  0  0  0  0  0
    5.1820    1.4770   17.7690 C   0  0  0  0  0  0  0  0  0  0  0  0
  1  5  1  0
  2  5  2  0
  4  5  1  0
  7  8  1  0
  6 10  2  3
  8 10  1  0
  9 10  1  0
  4 11  1  1
  7 11  1  0
  3 12  1  0
 12 13  2  0
 13 14  1  0
  4 15  1  0
 14 15  2  0
 12 16  1  0
 15 16  1  0
 17 18  2  0
  1 19  1  0
 18 19  1  0
 19 20  2  0
 20 21  1  0
 17 22  1  0
 21 22  2  0
M  END
