x0995-x3298
     RDKit          3D

 29 31  0  0  0  0  0  0  0  0999 V2000
    7.2590    1.9640   21.8170 N   0  0  0  0  0  0  0  0  0  0  0  0
    7.4440   -0.3620   21.2370 C   0  0  2  0  0  0  0  0  0  0  0  0
    6.7260   -0.8500   22.1050 O   0  0  0  0  0  0  0  0  0  0  0  0
    8.0940    0.9830   21.4070 C   0  0  0  0  0  0  0  0  0  0  0  0
    8.4300    1.2120   24.0170 N   0  0  0  0  0  0  0  0  0  0  0  0
    9.2390    1.2220   21.1610 O   0  0  0  0  0  0  0  0  0  0  0  0
   10.5990    2.2140   24.7680 O   0  0  0  0  0  0  0  0  0  0  0  0
    9.6380   -0.1320   25.9830 O   0  0  0  0  0  0  0  0  0  0  0  0
   13.5850   -1.8500   21.0200 F   0  0  0  0  0  0  0  0  0  0  0  0
    9.9060    0.7980   24.7120 S   0  0  0  0  0  0  0  0  0  0  0  0
    3.3450    1.9840   19.1390 N   0  0  0  0  0  0  0  0  0  0  0  0
    6.2850    0.3770   17.6330 N   0  0  0  0  0  0  0  0  0  0  0  0
    6.9800   -0.0630   18.6920 C   0  0  0  0  0  0  0  0  0  0  0  0
    6.5830    0.1160   20.1120 C   0  0  0  0  0  0  0  0  0  0  0  0
    5.2720    0.8410   20.3570 C   0  0  0  0  0  0  0  0  0  0  0  0
    4.5720    1.2820   19.2580 C   0  0  0  0  0  0  0  0  0  0  0  0
    5.1550    1.0160   17.8700 C   0  0  0  0  0  0  0  0  0  0  0  0
    7.6980    4.3360   22.2770 C   0  0  0  0  0  0  0  0  0  0  0  0
    8.3130    5.3940   23.2210 C   0  0  0  0  0  0  0  0  0  0  0  0
    8.9280    4.9840   24.4080 C   0  0  0  0  0  0  0  0  0  0  0  0
    8.9510    3.6120   24.6670 C   0  0  0  0  0  0  0  0  0  0  0  0
    8.3650    2.6110   23.7360 C   0  0  0  0  0  0  0  0  0  0  0  0
    7.7630    2.9710   22.6010 C   0  0  0  0  0  0  0  0  0  0  0  0
   12.2390    0.5220   23.4290 C   0  0  0  0  0  0  0  0  0  0  0  0
   13.1160   -0.1110   22.5490 C   0  0  0  0  0  0  0  0  0  0  0  0
   12.7400   -1.2800   21.8680 C   0  0  0  0  0  0  0  0  0  0  0  0
   11.4910   -1.7990   22.0860 C   0  0  0  0  0  0  0  0  0  0  0  0
   10.5960   -1.1950   22.9560 C   0  0  0  0  0  0  0  0  0  0  0  0
   10.9580   -0.0180   23.6370 C   0  0  0  0  0  0  0  0  0  0  0  0
  2  3  1  1
  1  4  1  0
  2  4  1  0
  4  6  2  0
 10  5  1  0
  7 10  2  0
  8 10  2  0
 12 13  2  0
  2 14  1  0
 13 14  1  0
 14 15  2  0
 11 16  1  0
 15 16  1  0
 12 17  1  0
 16 17  2  0
 18 19  2  0
 19 20  1  0
 20 21  2  0
  5 22  1  0
 21 22  1  0
  1 23  1  0
 18 23  1  0
 22 23  2  0
 24 25  2  0
  9 26  1  0
 25 26  1  0
 26 27  2  0
 27 28  1  0
 10 29  1  0
 24 29  1  0
 28 29  2  0
M  END
