x0991-x0769
     RDKit          3D

 24 25  0  0  0  0  0  0  0  0999 V2000
    5.9740   -5.0400   26.9090 O   0  0  0  0  0  0  0  0  0  0  0  0
    4.1150   -6.6360   25.9080 O   0  0  0  0  0  0  0  0  0  0  0  0
    5.2980   -4.6280   19.9090 O   0  0  0  0  0  0  0  0  0  0  0  0
    6.3310   -4.2900   20.4640 C   0  0  0  0  0  0  0  0  0  0  0  0
    7.2700   -3.3610   19.6820 C   0  0  0  0  0  0  0  0  0  0  0  0
    5.6830   -2.4520   26.3250 F   0  0  0  0  0  0  0  0  0  0  0  0
    4.9880   -5.3030   25.8860 S   0  0  0  0  0  0  0  0  0  0  0  0
    9.6980   -6.1070   24.6940 N   0  0  0  0  0  0  0  0  0  0  0  0
    8.8350   -3.6640   23.5550 C   0  0  0  0  0  0  0  0  0  0  0  0
    8.0150   -4.1170   24.6040 C   0  0  2  0  0  0  0  0  0  0  0  0
    8.2210   -5.6160   26.4120 N   0  0  0  0  0  0  0  0  0  0  0  0
    8.6110   -5.3300   25.3350 C   0  0  0  0  0  0  0  0  0  0  0  0
    4.3720   -2.6340   26.1210 C   0  0  0  0  0  0  0  0  0  0  0  0
    3.8350   -3.9180   25.8890 C   0  0  0  0  0  0  0  0  0  0  0  0
    2.4530   -4.1110   25.6760 C   0  0  0  0  0  0  0  0  0  0  0  0
    1.5870   -3.0290   25.6970 C   0  0  0  0  0  0  0  0  0  0  0  0
    2.0330   -1.5840   25.9420 C   0  0  0  0  0  0  0  0  0  0  0  0
    3.5500   -1.4800   26.1560 C   0  0  0  0  0  0  0  0  0  0  0  0
    6.5620   -4.7280   21.7420 N   0  0  0  0  0  0  0  0  0  0  0  0
    6.0900   -6.0260   22.1850 C   0  0  0  0  0  0  0  0  0  0  0  0
    5.2280   -5.9860   23.2710 C   0  0  0  0  0  0  0  0  0  0  0  0
    5.8910   -5.2940   24.4290 N   0  0  0  0  0  0  0  0  0  0  0  0
    6.5500   -4.1400   24.1180 C   0  0  2  0  0  0  0  0  0  0  0  0
    6.4710   -3.7360   22.7970 C   0  0  0  0  0  0  0  0  0  0  0  0
  3  4  2  0
  4  5  1  0
  1  7  2  0
  2  7  2  0
 10  9  1  6
  8 12  2  3
 10 12  1  0
 11 12  1  0
  6 13  1  0
  7 14  1  0
 13 14  2  0
 14 15  1  0
 15 16  2  0
 16 17  1  0
 13 18  1  0
 17 18  2  0
  4 19  1  0
 19 20  1  0
 20 21  1  0
  7 22  1  0
 21 22  1  0
 10 23  1  0
 22 23  1  0
 19 24  1  0
 23 24  1  6
M  END
