x0991-x1358
     RDKit          3D

 24 26  0  0  0  0  0  0  0  0999 V2000
    7.3440   -2.5860   25.9260 N   0  0  0  0  0  0  0  0  0  0  0  0
    5.5240   -0.4200   25.2720 O   0  0  0  0  0  0  0  0  0  0  0  0
    5.5070   -3.9690   26.1220 O   0  0  0  0  0  0  0  0  0  0  0  0
    5.2950   -4.1720   19.7350 O   0  0  0  0  0  0  0  0  0  0  0  0
    6.4290   -3.5370   25.4200 C   0  0  0  0  0  0  0  0  0  0  0  0
    6.4050   -3.8050   20.1180 C   0  0  0  0  0  0  0  0  0  0  0  0
    7.3470   -3.1460   19.1300 C   0  0  0  0  0  0  0  0  0  0  0  0
    9.6730   -5.5510   24.8540 N   0  0  0  0  0  0  0  0  0  0  0  0
    8.7150   -3.3040   22.6230 C   0  0  0  0  0  0  0  0  0  0  0  0
    8.0240   -4.3380   23.4520 C   0  0  1  0  0  0  0  0  0  0  0  0
    7.7640   -4.7080   26.1360 N   0  0  0  0  0  0  0  0  0  0  0  0
    8.4770   -4.8470   24.8690 C   0  0  0  0  0  0  0  0  0  0  0  0
    6.1240   -0.4450   26.5090 C   0  0  0  0  0  0  0  0  0  0  0  0
    7.0100   -1.5030   26.8330 C   0  0  0  0  0  0  0  0  0  0  0  0
    7.6270   -1.5500   28.0750 C   0  0  0  0  0  0  0  0  0  0  0  0
    7.4230   -0.5090   29.1760 C   0  0  0  0  0  0  0  0  0  0  0  0
    6.4500    0.5990   28.7330 C   0  0  0  0  0  0  0  0  0  0  0  0
    5.8600    0.5830   27.4570 C   0  0  0  0  0  0  0  0  0  0  0  0
    6.8100   -4.0460   21.4090 N   0  0  0  0  0  0  0  0  0  0  0  0
    7.3520   -2.9720   22.0970 C   0  0  1  0  0  0  0  0  0  0  0  0
    6.6110   -2.7260   23.1910 C   0  0  0  0  0  0  0  0  0  0  0  0
    6.6280   -3.9190   23.9570 C   0  0  2  0  0  0  0  0  0  0  0  0
    5.6770   -4.7610   23.4050 C   0  0  0  0  0  0  0  0  0  0  0  0
    6.0540   -4.9820   22.1110 C   0  0  0  0  0  0  0  0  0  0  0  0
  1  5  1  0
  3  5  2  0
  4  6  2  0
  6  7  1  0
  9 10  1  0
  8 12  2  3
 10 12  1  1
 11 12  1  0
  2 13  1  0
  1 14  1  0
 13 14  2  0
 14 15  1  0
 15 16  2  0
 16 17  1  0
 13 18  1  0
 17 18  2  0
  6 19  1  0
 20  9  1  1
 19 20  1  0
 20 21  1  0
 22  5  1  1
 10 22  1  0
 21 22  1  0
 22 23  1  0
 19 24  1  0
 23 24  1  0
M  END
