x0995-x3124
     RDKit          3D

 27 28  0  0  0  0  0  0  0  0999 V2000
    6.8050   -1.7400   22.1980 N   0  0  0  0  0  0  0  0  0  0  0  0
    6.6770   -4.8170   20.4190 C   0  0  0  0  0  0  0  0  0  0  0  0
    4.8180   -3.0830   21.3800 O   0  0  0  0  0  0  0  0  0  0  0  0
    6.8470   -4.2090   21.7910 C   0  0  0  0  0  0  0  0  0  0  0  0
    7.4590    1.5330   23.1880 N   0  0  0  0  0  0  0  0  0  0  0  0
    8.7250    0.6740   21.4810 O   0  0  0  0  0  0  0  0  0  0  0  0
    6.0610   -2.9430   21.7720 C   0  0  0  0  0  0  0  0  0  0  0  0
    6.5370   -0.2820   21.8020 C   0  0  1  0  0  0  0  0  0  0  0  0
    7.6870    0.6710   22.1400 C   0  0  0  0  0  0  0  0  0  0  0  0
    7.9890    2.8490   23.0930 C   0  0  0  0  0  0  0  0  0  0  0  0
   12.0270   -1.9310   24.2330 C   0  0  0  0  0  0  0  0  0  0  0  0
   11.9840   -0.7660   25.0080 C   0  0  0  0  0  0  0  0  0  0  0  0
   13.2510   -2.2660   23.6300 C   0  0  0  0  0  0  0  0  0  0  0  0
   11.7330   -3.0920   25.2310 C   0  0  0  0  0  0  0  0  0  0  0  0
    3.3030    2.1140   19.0880 N   0  0  0  0  0  0  0  0  0  0  0  0
    6.3880    0.3120   17.8950 N   0  0  0  0  0  0  0  0  0  0  0  0
    5.1700    1.1160   17.8140 C   0  0  0  0  0  0  0  0  0  0  0  0
    4.4240    1.3960   19.1170 C   0  0  0  0  0  0  0  0  0  0  0  0
    4.8990    0.9180   20.3140 C   0  0  0  0  0  0  0  0  0  0  0  0
    6.0770    0.1530   20.4170 C   0  0  0  0  0  0  0  0  0  0  0  0
    6.8280   -0.1720   19.2700 C   0  0  0  0  0  0  0  0  0  0  0  0
    9.2870   -1.7650   21.5930 C   0  0  0  0  0  0  0  0  0  0  0  0
   10.6360   -1.8000   21.9150 C   0  0  0  0  0  0  0  0  0  0  0  0
   11.0040   -1.8710   23.2320 C   0  0  0  0  0  0  0  0  0  0  0  0
   10.0830   -1.9200   24.3040 C   0  0  0  0  0  0  0  0  0  0  0  0
    8.6910   -1.8880   24.0130 C   0  0  0  0  0  0  0  0  0  0  0  0
    8.2020   -1.8070   22.6630 C   0  0  0  0  0  0  0  0  0  0  0  0
  2  4  1  0
  1  7  1  0
  3  7  2  0
  4  7  1  0
  1  8  1  0
  5  9  1  0
  6  9  2  0
  8  9  1  6
  5 10  1  0
 11 12  1  0
 11 13  1  0
 11 14  1  0
 16 17  2  0
 15 18  1  0
 17 18  1  0
 18 19  2  0
  8 20  1  0
 19 20  1  0
 16 21  1  0
 20 21  2  0
 22 23  2  0
 11 24  1  0
 23 24  1  0
 24 25  2  0
 25 26  1  0
  1 27  1  0
 22 27  1  0
 26 27  2  0
M  END
