x0991-x0072
     RDKit          3D

 14 14  0  0  0  0  0  0  0  0999 V2000
    8.1990   -5.1230   27.4960 C   0  0  0  0  0  0  0  0  0  0  0  0
    7.6810   -3.8130   26.2930 S   0  0  2  0  0  0  0  0  0  0  0  0
    8.8340   -5.1160   26.0870 C   0  0  0  0  0  0  0  0  0  0  0  0
    6.8680   -3.4580   27.6500 O   0  0  0  0  0  0  0  0  0  0  0  0
    7.9540   -3.3780   24.6860 N   0  0  0  0  0  0  0  0  0  0  0  0
    9.3130   -3.0860   24.2670 C   0  0  0  0  0  0  0  0  0  0  0  0
    9.3880   -1.8860   23.3210 C   0  0  0  0  0  0  0  0  0  0  0  0
    9.7790   -6.1600   25.8720 N   0  0  0  0  0  0  0  0  0  0  0  0
   10.6220   -1.2490   23.2300 C   0  0  0  0  0  0  0  0  0  0  0  0
   11.6720   -1.8370   22.3080 C   0  0  0  0  0  0  0  0  0  0  0  0
   12.9010   -1.1940   22.2180 C   0  0  0  0  0  0  0  0  0  0  0  0
   13.0860   -0.0320   22.9920 C   0  0  0  0  0  0  0  0  0  0  0  0
   12.0950    0.4840   23.8370 C   0  0  0  0  0  0  0  0  0  0  0  0
   10.8490   -0.1030   23.9820 C   0  0  0  0  0  0  0  0  0  0  0  0
  2  1  1  6
  2  3  2  0
  2  4  2  0
  2  5  1  0
  5  6  1  0
  6  7  1  0
  3  8  2  0
  7  9  1  0
  9 10  2  0
 10 11  1  0
 11 12  2  0
 12 13  1  0
  9 14  1  0
 13 14  2  0
M  END
