x0995-x2572
     RDKit          3D

 20 21  0  0  0  0  0  0  0  0999 V2000
    4.7310    1.2520   21.6900 C   0  0  0  0  0  0  0  0  0  0  0  0
    8.9010    1.4150   21.2550 O   0  0  0  0  0  0  0  0  0  0  0  0
    7.1330   -0.3630   21.1820 N   0  0  0  0  0  0  0  0  0  0  0  0
   13.5080   -3.1790   20.6870 N   0  0  0  0  0  0  0  0  0  0  0  0
    8.2410    0.2190   21.7520 C   0  0  0  0  0  0  0  0  0  0  0  0
    8.6610   -0.4250   22.8000 C   0  0  0  0  0  0  0  0  0  0  0  0
   12.9730   -2.2020   21.4430 C   0  0  0  0  0  0  0  0  0  0  0  0
    3.5280    2.3110   19.0880 N   0  0  0  0  0  0  0  0  0  0  0  0
    6.4000    0.4680   17.6880 N   0  0  0  0  0  0  0  0  0  0  0  0
    6.9870   -0.0550   18.7700 C   0  0  0  0  0  0  0  0  0  0  0  0
    6.5320    0.1440   20.0680 C   0  0  0  0  0  0  0  0  0  0  0  0
    5.2590    1.0050   20.3150 C   0  0  0  0  0  0  0  0  0  0  0  0
    4.6360    1.5390   19.2050 C   0  0  0  0  0  0  0  0  0  0  0  0
    5.1910    1.2970   17.8270 C   0  0  0  0  0  0  0  0  0  0  0  0
   10.7620    0.6670   23.7220 C   0  0  0  0  0  0  0  0  0  0  0  0
   12.1380    0.6790   23.7460 C   0  0  0  0  0  0  0  0  0  0  0  0
   12.9880   -0.3060   22.9650 C   0  0  0  0  0  0  0  0  0  0  0  0
   12.3080   -1.2310   22.2180 C   0  0  0  0  0  0  0  0  0  0  0  0
   10.9070   -1.2700   22.1700 C   0  0  0  0  0  0  0  0  0  0  0  0
   10.1440   -0.3420   22.9030 C   0  0  0  0  0  0  0  0  0  0  0  0
  2  5  2  0
  3  5  1  0
  5  6  1  0
  4  7  3  0
  9 10  2  0
  3 11  1  0
 10 11  1  0
  1 12  1  0
 11 12  2  0
  8 13  1  0
 12 13  1  0
  9 14  1  0
 13 14  2  0
 15 16  2  0
 16 17  1  0
  7 18  1  0
 17 18  2  0
 18 19  1  0
  6 20  1  0
 15 20  1  0
 19 20  2  0
M  END
