x0991-x0736
     RDKit          3D

 21 23  0  0  0  0  0  0  0  0999 V2000
    7.4280   -3.0440   18.8920 C   0  0  0  0  0  0  0  0  0  0  0  0
    5.3780   -3.9850   19.6400 O   0  0  0  0  0  0  0  0  0  0  0  0
    6.4080   -3.3730   19.9390 C   0  0  0  0  0  0  0  0  0  0  0  0
    5.7900   -2.3320   25.6230 O   0  0  0  0  0  0  0  0  0  0  0  0
    6.8570   -2.0890   25.0920 C   0  0  0  0  0  0  0  0  0  0  0  0
    9.9580   -5.8020   25.1000 N   0  0  0  0  0  0  0  0  0  0  0  0
    9.1530   -3.4880   22.8790 C   0  0  0  0  0  0  0  0  0  0  0  0
    8.3390   -4.6480   23.4570 C   0  0  1  0  0  0  0  0  0  0  0  0
    8.0500   -4.6430   25.9420 N   0  0  0  0  0  0  0  0  0  0  0  0
    8.8180   -5.0550   24.8680 C   0  0  0  0  0  0  0  0  0  0  0  0
    6.6440   -3.0740   21.2530 N   0  0  0  0  0  0  0  0  0  0  0  0
    7.6710   -2.0190   21.6350 C   0  0  0  0  0  0  0  0  0  0  0  0
    8.2350   -2.2310   22.8960 C   0  0  1  0  0  0  0  0  0  0  0  0
    7.1130   -2.5650   23.7530 N   0  0  0  0  0  0  0  0  0  0  0  0
    7.0010   -3.9710   23.6310 C   0  0  1  0  0  0  0  0  0  0  0  0
    6.4120   -4.1730   22.2290 C   0  0  0  0  0  0  0  0  0  0  0  0
    8.5490   -0.2090   25.0330 O   0  0  0  0  0  0  0  0  0  0  0  0
    7.9210   -1.3030   25.7580 C   0  0  0  0  0  0  0  0  0  0  0  0
    8.5460   -1.3030   26.9870 C   0  0  0  0  0  0  0  0  0  0  0  0
    9.4440   -0.3190   26.9890 C   0  0  0  0  0  0  0  0  0  0  0  0
    9.4010    0.3090   25.7740 C   0  0  0  0  0  0  0  0  0  0  0  0
  1  3  1  0
  2  3  2  0
  4  5  2  0
  7  8  1  0
  6 10  2  3
  8 10  1  1
  9 10  1  0
  3 11  1  0
 11 12  1  0
 13  7  1  6
 12 13  1  0
  5 14  1  0
 13 14  1  0
  8 15  1  0
 14 15  1  0
 11 16  1  0
 15 16  1  6
  5 18  1  0
 17 18  1  0
 18 19  2  0
 19 20  1  0
 17 21  1  0
 20 21  2  0
M  END
