x0995-x3080
     RDKit          3D

 27 29  0  0  0  0  0  0  0  0999 V2000
    9.9330   -0.4880   23.3170 N   0  0  0  0  0  0  0  0  0  0  0  0
   10.7410    0.6310   23.4900 C   0  0  0  0  0  0  0  0  0  0  0  0
    9.0430    1.2280   21.1970 O   0  0  0  0  0  0  0  0  0  0  0  0
    9.6080   -0.8770   22.0300 C   0  0  0  0  0  0  0  0  0  0  0  0
    7.5340   -0.6540   21.0540 N   0  0  0  0  0  0  0  0  0  0  0  0
    7.4790   -1.0900   23.9390 O   0  0  0  0  0  0  0  0  0  0  0  0
    8.7470   -0.0960   21.4350 C   0  0  0  0  0  0  0  0  0  0  0  0
    8.7990    0.3510   25.5390 O   0  0  0  0  0  0  0  0  0  0  0  0
    5.1960    0.9120   21.8670 C   0  0  0  0  0  0  0  0  0  0  0  0
    8.7800   -0.8650   24.5070 S   0  0  0  0  0  0  0  0  0  0  0  0
    3.7310    2.1470   19.8280 N   0  0  0  0  0  0  0  0  0  0  0  0
    6.2710    0.5530   17.5980 N   0  0  0  0  0  0  0  0  0  0  0  0
    5.2120    1.2780   17.9700 C   0  0  0  0  0  0  0  0  0  0  0  0
    4.8270    1.4190   19.2950 C   0  0  0  0  0  0  0  0  0  0  0  0
    5.6340    0.7350   20.4430 C   0  0  0  0  0  0  0  0  0  0  0  0
    6.7420   -0.0170   20.0870 C   0  0  0  0  0  0  0  0  0  0  0  0
    7.0860   -0.1320   18.6260 C   0  0  0  0  0  0  0  0  0  0  0  0
   11.6320   -1.4380   24.7750 N   0  0  0  0  0  0  0  0  0  0  0  0
   10.7810   -2.3960   25.2220 C   0  0  0  0  0  0  0  0  0  0  0  0
   11.2620   -3.5880   25.8000 C   0  0  0  0  0  0  0  0  0  0  0  0
   12.7990   -3.7350   25.9200 C   0  0  0  0  0  0  0  0  0  0  0  0
   13.5740   -2.7200   25.4450 C   0  0  0  0  0  0  0  0  0  0  0  0
   12.9660   -1.6010   24.8800 C   0  0  0  0  0  0  0  0  0  0  0  0
    8.4730   -3.3080   25.6300 C   0  0  0  0  0  0  0  0  0  0  0  0
    8.9930   -4.4690   26.1810 C   0  0  0  0  0  0  0  0  0  0  0  0
   10.3550   -4.5820   26.2550 C   0  0  0  0  0  0  0  0  0  0  0  0
    9.4090   -2.2510   25.1440 C   0  0  0  0  0  0  0  0  0  0  0  0
  1  2  1  0
  1  4  1  0
  3  7  2  0
  4  7  1  0
  5  7  1  0
 10  1  1  0
  6 10  2  0
  8 10  2  0
 12 13  2  0
 11 14  1  0
 13 14  1  0
  9 15  1  0
 14 15  2  0
  5 16  1  0
 15 16  1  0
 12 17  1  0
 16 17  2  0
 18 19  2  0
 19 20  1  0
 20 21  2  0
 21 22  1  0
 18 23  1  0
 22 23  2  0
 24 25  1  0
 20 26  1  0
 25 26  2  0
 10 27  1  0
 19 27  1  0
 24 27  2  0
M  END
