x0995-x3117
     RDKit          3D

 32 34  0  0  0  0  0  0  0  0999 V2000
    6.8750   -1.6250   21.9890 N   0  0  0  0  0  0  0  0  0  0  0  0
    6.6710   -4.7880   20.3830 C   0  0  0  0  0  0  0  0  0  0  0  0
    4.8200   -3.0500   21.3240 O   0  0  0  0  0  0  0  0  0  0  0  0
    6.8650   -4.1300   21.7290 C   0  0  0  0  0  0  0  0  0  0  0  0
    7.6780    1.8690   22.8140 N   0  0  0  0  0  0  0  0  0  0  0  0
    8.9480    0.5580   21.4050 O   0  0  0  0  0  0  0  0  0  0  0  0
    6.0910   -2.8600   21.6640 C   0  0  0  0  0  0  0  0  0  0  0  0
    6.6450   -0.1310   21.6600 C   0  0  1  0  0  0  0  0  0  0  0  0
    7.8710    0.7840   21.9460 C   0  0  0  0  0  0  0  0  0  0  0  0
   12.2990   -1.8180   24.2000 C   0  0  0  0  0  0  0  0  0  0  0  0
   12.4650   -0.5930   25.1120 C   0  0  0  0  0  0  0  0  0  0  0  0
   13.2400   -1.6540   23.2220 C   0  0  0  0  0  0  0  0  0  0  0  0
   12.7480   -3.0180   25.0520 C   0  0  0  0  0  0  0  0  0  0  0  0
    3.3920    2.2780   18.9160 N   0  0  0  0  0  0  0  0  0  0  0  0
    6.3490    0.1890   17.9310 N   0  0  0  0  0  0  0  0  0  0  0  0
    5.1640    1.0500   17.9010 C   0  0  0  0  0  0  0  0  0  0  0  0
    4.4720    1.4980   19.0100 C   0  0  0  0  0  0  0  0  0  0  0  0
    5.0320    1.0390   20.3490 C   0  0  0  0  0  0  0  0  0  0  0  0
    6.1500    0.2380   20.3790 C   0  0  0  0  0  0  0  0  0  0  0  0
    6.7910   -0.1810   19.1860 C   0  0  0  0  0  0  0  0  0  0  0  0
    9.6590    5.1550   24.2030 O   0  0  0  0  0  0  0  0  0  0  0  0
   10.4400    4.0230   23.8980 C   0  0  0  0  0  0  0  0  0  0  0  0
    9.5820    2.9110   23.8450 C   0  0  0  0  0  0  0  0  0  0  0  0
    8.6110    3.0380   22.8610 C   0  0  0  0  0  0  0  0  0  0  0  0
    7.9300    4.2750   22.9470 C   0  0  0  0  0  0  0  0  0  0  0  0
    8.7820    5.4000   23.1850 C   0  0  0  0  0  0  0  0  0  0  0  0
    9.3560   -2.0850   21.7830 C   0  0  0  0  0  0  0  0  0  0  0  0
   10.6570   -2.1340   22.2940 C   0  0  0  0  0  0  0  0  0  0  0  0
   10.8990   -1.8100   23.6190 C   0  0  0  0  0  0  0  0  0  0  0  0
    9.8330   -1.4440   24.4590 C   0  0  0  0  0  0  0  0  0  0  0  0
    8.5230   -1.4040   23.9200 C   0  0  0  0  0  0  0  0  0  0  0  0
    8.2660   -1.7160   22.5720 C   0  0  0  0  0  0  0  0  0  0  0  0
  2  4  1  0
  1  7  1  0
  3  7  2  0
  4  7  1  0
  1  8  1  0
  5  9  1  0
  6  9  2  0
  8  9  1  6
 10 11  1  0
 10 12  1  0
 10 13  1  0
 15 16  2  0
 14 17  1  0
 16 17  1  0
 17 18  2  0
  8 19  1  0
 18 19  1  0
 15 20  1  0
 19 20  2  0
 21 22  1  0
 22 23  1  0
  5 24  1  0
 23 24  1  0
 24 25  1  0
 21 26  1  0
 25 26  1  0
 27 28  2  0
 10 29  1  0
 28 29  1  0
 29 30  2  0
 30 31  1  0
  1 32  1  0
 27 32  1  0
 31 32  2  0
M  END
