x0995-x2705
     RDKit          3D

 34 36  0  0  0  0  0  0  0  0999 V2000
    7.0010   -1.6230   21.8600 N   0  0  0  0  0  0  0  0  0  0  0  0
    6.8310   -4.9180   20.5400 C   0  0  0  0  0  0  0  0  0  0  0  0
    4.8930   -3.1020   21.2700 O   0  0  0  0  0  0  0  0  0  0  0  0
    6.9650   -4.1390   21.8260 C   0  0  0  0  0  0  0  0  0  0  0  0
    7.3940    1.9460   22.7600 N   0  0  0  0  0  0  0  0  0  0  0  0
    8.8360    0.7520   21.4210 O   0  0  0  0  0  0  0  0  0  0  0  0
    6.1850   -2.8820   21.6310 C   0  0  0  0  0  0  0  0  0  0  0  0
    6.6070   -0.1680   21.6360 C   0  0  1  0  0  0  0  0  0  0  0  0
    7.7260    0.8720   21.9290 C   0  0  0  0  0  0  0  0  0  0  0  0
   10.1760    2.0140   23.9720 C   0  0  0  0  0  0  0  0  0  0  0  0
    9.2770    1.2120   24.9640 C   0  0  0  0  0  0  0  0  0  0  0  0
    6.1250    4.4080   21.8670 C   0  0  0  0  0  0  0  0  0  0  0  0
   11.9640   -1.6140   23.1220 C   0  0  0  0  0  0  0  0  0  0  0  0
   12.6040   -0.6990   23.9880 C   0  0  0  0  0  0  0  0  0  0  0  0
   12.6550   -2.2900   24.3600 C   0  0  0  0  0  0  0  0  0  0  0  0
   12.7830   -1.9050   21.8360 C   0  0  0  0  0  0  0  0  0  0  0  0
    3.3610    2.3170   18.8400 N   0  0  0  0  0  0  0  0  0  0  0  0
    6.3670    0.4160   17.8520 N   0  0  0  0  0  0  0  0  0  0  0  0
    5.1470    1.2540   17.7840 C   0  0  0  0  0  0  0  0  0  0  0  0
    4.4760    1.5460   18.9730 C   0  0  0  0  0  0  0  0  0  0  0  0
    4.9210    1.0930   20.1900 C   0  0  0  0  0  0  0  0  0  0  0  0
    6.0630    0.3240   20.2480 C   0  0  0  0  0  0  0  0  0  0  0  0
    6.8330   -0.0670   19.1730 C   0  0  0  0  0  0  0  0  0  0  0  0
    9.6670   -1.7600   24.2640 N   0  0  0  0  0  0  0  0  0  0  0  0
    8.3210   -1.7780   23.9590 N   0  0  0  0  0  0  0  0  0  0  0  0
    8.2720   -1.6850   22.5940 C   0  0  0  0  0  0  0  0  0  0  0  0
    9.5790   -1.6220   22.0650 C   0  0  0  0  0  0  0  0  0  0  0  0
   10.4120   -1.6690   23.1610 C   0  0  0  0  0  0  0  0  0  0  0  0
    9.3700    3.2460   23.4620 C   0  0  0  0  0  0  0  0  0  0  0  0
   10.0680    4.4530   23.6170 C   0  0  0  0  0  0  0  0  0  0  0  0
    9.4950    5.6670   23.2060 C   0  0  0  0  0  0  0  0  0  0  0  0
    8.2050    5.6220   22.6370 C   0  0  0  0  0  0  0  0  0  0  0  0
    7.5100    4.4090   22.4850 C   0  0  0  0  0  0  0  0  0  0  0  0
    8.0910    3.2010   22.9030 C   0  0  0  0  0  0  0  0  0  0  0  0
  2  4  1  0
  1  7  1  0
  3  7  2  0
  4  7  1  0
  1  8  1  0
  5  9  1  0
  6  9  2  0
  8  9  1  6
 10 11  1  0
 13 14  1  0
 13 15  1  0
 13 16  1  0
 18 19  2  0
 17 20  1  0
 19 20  1  0
 20 21  2  0
  8 22  1  0
 21 22  1  0
 18 23  1  0
 22 23  2  0
 24 25  1  0
  1 26  1  0
 25 26  2  0
 26 27  1  0
 13 28  1  0
 24 28  1  0
 27 28  2  0
 10 29  1  0
 29 30  2  0
 30 31  1  0
 31 32  2  0
 12 33  1  0
 32 33  1  0
  5 34  1  0
 29 34  1  0
 33 34  2  0
M  END
