x0995-x2776
     RDKit          3D

 35 37  0  0  0  0  0  0  0  0999 V2000
    6.6930   -1.4890   21.9360 N   0  0  0  0  0  0  0  0  0  0  0  0
    7.5940   -3.9100   20.2660 C   0  0  0  0  0  0  0  0  0  0  0  0
    4.7790   -3.1270   21.5410 O   0  0  0  0  0  0  0  0  0  0  0  0
    6.4460   -3.0180   19.9650 C   0  0  0  0  0  0  0  0  0  0  0  0
    7.5610    1.8890   22.9170 N   0  0  0  0  0  0  0  0  0  0  0  0
    8.9240    0.7670   21.4190 O   0  0  0  0  0  0  0  0  0  0  0  0
    5.9050   -2.5420   21.2340 C   0  0  0  0  0  0  0  0  0  0  0  0
   10.7930    6.6280   23.7740 O   0  0  0  0  0  0  0  0  0  0  0  0
    6.6170    0.0090   21.6140 C   0  0  1  0  0  0  0  0  0  0  0  0
   12.3430   -2.9290   24.8540 O   0  0  0  0  0  0  0  0  0  0  0  0
    7.8340    0.9070   21.9680 C   0  0  0  0  0  0  0  0  0  0  0  0
   10.5270    1.8100   23.8340 C   0  0  0  0  0  0  0  0  0  0  0  0
   11.8280    6.5980   24.7580 C   0  0  0  0  0  0  0  0  0  0  0  0
   11.9450   -1.6180   24.4590 C   0  0  1  0  0  0  0  0  0  0  0  0
   13.0130   -1.0500   23.5160 C   0  0  0  0  0  0  0  0  0  0  0  0
   13.6270   -2.9310   25.4230 C   0  0  0  0  0  0  0  0  0  0  0  0
    3.3210    2.3120   18.9880 N   0  0  0  0  0  0  0  0  0  0  0  0
    6.4170    0.5780   17.7490 N   0  0  0  0  0  0  0  0  0  0  0  0
    5.1830    1.3560   17.6950 C   0  0  0  0  0  0  0  0  0  0  0  0
    4.4540    1.6210   19.0040 C   0  0  0  0  0  0  0  0  0  0  0  0
    4.9510    1.1650   20.1870 C   0  0  0  0  0  0  0  0  0  0  0  0
    6.1380    0.4340   20.2610 C   0  0  0  0  0  0  0  0  0  0  0  0
    6.8760    0.1150   19.1130 C   0  0  0  0  0  0  0  0  0  0  0  0
    9.9230    2.9540   23.6010 C   0  0  0  0  0  0  0  0  0  0  0  0
   10.6250    4.1520   23.7790 C   0  0  0  0  0  0  0  0  0  0  0  0
   10.0580    5.4090   23.5670 C   0  0  0  0  0  0  0  0  0  0  0  0
    8.7310    5.5160   23.1390 C   0  0  0  0  0  0  0  0  0  0  0  0
    7.9490    4.3820   22.9280 C   0  0  0  0  0  0  0  0  0  0  0  0
    8.4480    3.0800   23.1360 C   0  0  0  0  0  0  0  0  0  0  0  0
    9.2080   -1.9640   21.7840 C   0  0  0  0  0  0  0  0  0  0  0  0
   10.4880   -1.9870   22.4070 C   0  0  0  0  0  0  0  0  0  0  0  0
   10.6010   -1.6280   23.7710 C   0  0  0  0  0  0  0  0  0  0  0  0
    9.4700   -1.2710   24.4910 C   0  0  0  0  0  0  0  0  0  0  0  0
    8.2560   -1.2680   23.8390 C   0  0  0  0  0  0  0  0  0  0  0  0
    8.0490   -1.5920   22.5000 C   0  0  0  0  0  0  0  0  0  0  0  0
  2  4  1  0
  1  7  1  0
  3  7  2  0
  4  7  1  0
  1  9  1  0
  5 11  1  0
  6 11  2  0
  9 11  1  6
  8 13  1  0
 10 14  1  0
 14 15  1  6
 10 16  1  0
 18 19  2  0
 17 20  1  0
 19 20  1  0
 20 21  2  0
  9 22  1  0
 21 22  1  0
 18 23  1  0
 22 23  2  0
 12 24  1  0
 24 25  2  0
  8 26  1  0
 25 26  1  0
 26 27  2  0
 27 28  1  0
  5 29  1  0
 24 29  1  0
 28 29  2  0
 30 31  2  0
 14 32  1  0
 31 32  1  0
 32 33  2  0
 33 34  1  0
  1 35  1  0
 30 35  1  0
 34 35  2  0
M  END
