x0995-x1093
     RDKit          3D

 19 21  0  0  0  0  0  0  0  0999 V2000
   13.4560   -2.0110   23.7510 C   0  0  0  0  0  0  0  0  0  0  0  0
    8.7010    1.5540   21.0500 O   0  0  0  0  0  0  0  0  0  0  0  0
    8.8490    0.2060   21.5490 C   0  0  0  0  0  0  0  0  0  0  0  0
    8.0270   -0.7670   21.2510 C   0  0  0  0  0  0  0  0  0  0  0  0
   12.1940   -1.3220   23.8540 N   0  0  0  0  0  0  0  0  0  0  0  0
   12.0640    0.0100   23.1650 C   0  0  0  0  0  0  0  0  0  0  0  0
   10.6320    0.5050   22.9760 C   0  0  0  0  0  0  0  0  0  0  0  0
    9.9140   -0.2270   22.4280 N   0  0  0  0  0  0  0  0  0  0  0  0
    9.8650   -1.5620   22.9500 C   0  0  0  0  0  0  0  0  0  0  0  0
   11.2230   -2.1810   23.3280 C   0  0  0  0  0  0  0  0  0  0  0  0
    6.3370    0.0630   18.0540 N   0  0  0  0  0  0  0  0  0  0  0  0
    7.3570   -0.5880   18.6800 C   0  0  0  0  0  0  0  0  0  0  0  0
    7.1290   -0.2700   20.1470 C   0  0  0  0  0  0  0  0  0  0  0  0
    5.9970    0.5200   20.2460 C   0  0  0  0  0  0  0  0  0  0  0  0
    5.5720    0.6850   18.9450 C   0  0  0  0  0  0  0  0  0  0  0  0
    4.4840    1.4130   18.6570 N   0  0  0  0  0  0  0  0  0  0  0  0
    3.8240    1.9660   19.6990 C   0  0  0  0  0  0  0  0  0  0  0  0
    4.1950    1.8370   21.0310 C   0  0  0  0  0  0  0  0  0  0  0  0
    5.3340    1.0820   21.3180 C   0  0  0  0  0  0  0  0  0  0  0  0
  2  3  2  0
  3  4  1  0
  1  5  1  0
  5  6  1  0
  6  7  1  0
  3  8  1  0
  7  8  1  0
  8  9  1  0
  5 10  1  0
  9 10  1  0
 11 12  1  0
  4 13  1  0
 12 13  2  0
 13 14  1  0
 11 15  1  0
 14 15  2  0
 15 16  1  0
 16 17  2  0
 17 18  1  0
 14 19  1  0
 18 19  2  0
M  END
