x0991-x0705
     RDKit          3D

 23 24  0  0  0  0  0  0  0  0999 V2000
    1.2540   -2.5030   27.8790 C   0  0  0  0  0  0  0  0  0  0  0  0
    7.5000   -1.1450   26.1080 O   0  0  0  0  0  0  0  0  0  0  0  0
    5.9830   -3.4460   19.4120 O   0  0  0  0  0  0  0  0  0  0  0  0
    6.4870   -1.8920   25.4890 C   0  0  0  0  0  0  0  0  0  0  0  0
    6.7380   -3.5240   20.3980 C   0  0  0  0  0  0  0  0  0  0  0  0
    7.9560   -4.3990   20.4390 C   0  0  0  0  0  0  0  0  0  0  0  0
   10.2650   -5.1840   25.5000 N   0  0  0  0  0  0  0  0  0  0  0  0
    8.8190   -3.5680   23.5560 C   0  0  0  0  0  0  0  0  0  0  0  0
    8.2110   -4.8070   24.2420 C   0  0  0  0  0  0  0  0  0  0  0  0
    8.1370   -5.3400   26.3810 N   0  0  0  0  0  0  0  0  0  0  0  0
    8.8140   -5.1330   25.4630 C   0  0  0  0  0  0  0  0  0  0  0  0
    2.6090   -2.3230   27.2500 C   0  0  0  0  0  0  0  0  0  0  0  0
    2.8350   -1.4500   26.2180 C   0  0  0  0  0  0  0  0  0  0  0  0
    4.0550   -1.2590   25.6100 C   0  0  0  0  0  0  0  0  0  0  0  0
    5.1340   -2.0150   26.0910 C   0  0  0  0  0  0  0  0  0  0  0  0
    5.0570   -2.9470   27.1480 C   0  0  0  0  0  0  0  0  0  0  0  0
    3.6860   -3.0760   27.7340 C   0  0  0  0  0  0  0  0  0  0  0  0
    6.4690   -2.8500   21.5360 N   0  0  0  0  0  0  0  0  0  0  0  0
    5.5000   -3.4210   22.4530 C   0  0  0  0  0  0  0  0  0  0  0  0
    5.4180   -2.5640   23.4990 C   0  0  0  0  0  0  0  0  0  0  0  0
    6.6550   -2.5390   24.2800 N   0  0  0  0  0  0  0  0  0  0  0  0
    7.8900   -2.3290   23.4700 C   0  0  2  0  0  0  0  0  0  0  0  0
    7.6020   -2.1070   22.1240 C   0  0  0  0  0  0  0  0  0  0  0  0
  2  4  2  0
  3  5  2  0
  5  6  1  0
  8  9  1  0
  7 11  2  3
  9 11  1  0
 10 11  1  0
  1 12  1  0
 12 13  2  0
 13 14  1  0
  4 15  1  0
 14 15  2  0
 15 16  1  0
 12 17  1  0
 16 17  2  0
  5 18  1  0
 18 19  1  0
 19 20  1  0
  4 21  1  0
 20 21  1  0
 22  8  1  6
 21 22  1  0
 18 23  1  0
 22 23  1  0
M  END
