x0995-x2908
     RDKit          3D

 19 20  0  0  0  0  0  0  0  0999 V2000
    4.6690    1.3040   21.6210 C   0  0  0  0  0  0  0  0  0  0  0  0
    8.7710    1.4300   21.1670 O   0  0  0  0  0  0  0  0  0  0  0  0
   13.1960   -2.2880   21.3150 Cl  0  0  0  0  0  0  0  0  0  0  0  0
    7.1440   -0.4420   21.0800 N   0  0  0  0  0  0  0  0  0  0  0  0
    8.7150   -0.5420   22.6720 N   0  0  0  0  0  0  0  0  0  0  0  0
    8.2150    0.1740   21.6370 C   0  0  0  0  0  0  0  0  0  0  0  0
    3.4700    2.4410   18.9830 N   0  0  0  0  0  0  0  0  0  0  0  0
    6.2470    0.5650   17.5070 N   0  0  0  0  0  0  0  0  0  0  0  0
    6.8520    0.0020   18.5690 C   0  0  0  0  0  0  0  0  0  0  0  0
    6.4070    0.1870   19.9700 C   0  0  0  0  0  0  0  0  0  0  0  0
    5.2010    1.0440   20.2470 C   0  0  0  0  0  0  0  0  0  0  0  0
    4.5990    1.6010   19.1360 C   0  0  0  0  0  0  0  0  0  0  0  0
    5.1880    1.3250   17.7460 C   0  0  0  0  0  0  0  0  0  0  0  0
   10.6230    0.5140   23.7260 C   0  0  0  0  0  0  0  0  0  0  0  0
   12.1320    0.5880   23.8430 C   0  0  0  0  0  0  0  0  0  0  0  0
   12.9380   -0.2740   23.1060 C   0  0  0  0  0  0  0  0  0  0  0  0
   12.3250   -1.1960   22.2670 C   0  0  0  0  0  0  0  0  0  0  0  0
   10.8210   -1.2800   22.1390 C   0  0  0  0  0  0  0  0  0  0  0  0
   10.0620   -0.4200   22.8710 C   0  0  0  0  0  0  0  0  0  0  0  0
  2  6  2  0
  4  6  1  0
  5  6  1  0
  8  9  2  0
  4 10  1  0
  9 10  1  0
  1 11  1  0
 10 11  2  0
  7 12  1  0
 11 12  1  0
  8 13  1  0
 12 13  2  0
 14 15  2  0
 15 16  1  0
  3 17  1  0
 16 17  2  0
 17 18  1  0
  5 19  1  0
 14 19  1  0
 18 19  2  0
M  END
