x0991-x1458
     RDKit          3D

 20 22  0  0  0  0  0  0  0  0999 V2000
    6.7340   -3.4600   26.6440 N   0  0  0  0  0  0  0  0  0  0  0  0
    8.9850   -4.2010   26.4130 C   0  0  0  0  0  0  0  0  0  0  0  0
    4.6010   -3.7430   25.5090 O   0  0  0  0  0  0  0  0  0  0  0  0
    7.6970   -4.3420   27.2450 C   0  0  2  0  0  0  0  0  0  0  0  0
    5.3110   -4.4760   19.8780 O   0  0  0  0  0  0  0  0  0  0  0  0
    7.3200   -5.8210   27.5820 C   0  0  0  0  0  0  0  0  0  0  0  0
    6.4170   -2.2750   27.2360 C   0  0  0  0  0  0  0  0  0  0  0  0
    5.9720   -3.7810   25.4330 C   0  0  0  0  0  0  0  0  0  0  0  0
    6.3870   -4.0170   20.2640 C   0  0  0  0  0  0  0  0  0  0  0  0
    7.2530   -3.2820   19.2680 C   0  0  0  0  0  0  0  0  0  0  0  0
    9.6900   -6.0550   25.0620 N   0  0  0  0  0  0  0  0  0  0  0  0
    8.6460   -3.4600   23.0750 C   0  0  0  0  0  0  0  0  0  0  0  0
    8.0910   -4.4420   23.8700 C   0  0  1  0  0  0  0  0  0  0  0  0
    8.9150   -4.9290   25.0960 C   0  0  0  0  0  0  0  0  0  0  0  0
    6.8310   -4.2130   21.5460 N   0  0  0  0  0  0  0  0  0  0  0  0
    7.3780   -3.0970   22.3180 C   0  0  1  0  0  0  0  0  0  0  0  0
    6.4280   -2.9630   23.2730 C   0  0  0  0  0  0  0  0  0  0  0  0
    6.5720   -4.0890   24.0770 C   0  0  2  0  0  0  0  0  0  0  0  0
    5.8180   -5.1250   23.5840 C   0  0  0  0  0  0  0  0  0  0  0  0
    6.3040   -5.3800   22.2930 C   0  0  0  0  0  0  0  0  0  0  0  0
  1  4  1  0
  2  4  1  0
  4  6  1  6
  1  7  1  0
  1  8  1  0
  3  8  2  0
  5  9  2  0
  9 10  1  0
 13 12  1  1
  2 14  1  0
 11 14  2  3
 13 14  1  0
  9 15  1  0
 16 12  1  1
 15 16  1  0
 16 17  1  0
 18  8  1  0
 13 18  1  0
 17 18  1  0
 18 19  1  6
 15 20  1  0
 19 20  1  0
M  END
