x0991-x0830
     RDKit          3D

 24 26  0  0  0  0  0  0  0  0999 V2000
    7.7120   -3.7240   19.6920 C   0  0  0  0  0  0  0  0  0  0  0  0
    5.4790   -3.3430   19.3760 O   0  0  0  0  0  0  0  0  0  0  0  0
    6.4690   -3.0810   20.1140 C   0  0  0  0  0  0  0  0  0  0  0  0
   10.2090   -2.9450   24.3960 C   0  0  0  0  0  0  0  0  0  0  0  0
    9.7410   -5.2950   25.3450 N   0  0  0  0  0  0  0  0  0  0  0  0
    8.6820   -3.2650   24.3800 C   0  0  2  0  0  0  0  0  0  0  0  0
    7.2860   -5.2210   25.3120 N   0  0  0  0  0  0  0  0  0  0  0  0
    8.5390   -4.5510   24.9640 C   0  0  0  0  0  0  0  0  0  0  0  0
    6.5690   -2.3430   21.3040 N   0  0  0  0  0  0  0  0  0  0  0  0
    6.8840   -2.9620   22.5480 C   0  0  0  0  0  0  0  0  0  0  0  0
    8.2710   -3.0490   22.8900 C   0  0  1  0  0  0  0  0  0  0  0  0
    8.7610   -1.8390   22.6390 N   0  0  0  0  0  0  0  0  0  0  0  0
    8.7250   -1.4500   21.3610 C   0  0  0  0  0  0  0  0  0  0  0  0
    7.3630   -1.2800   21.1230 C   0  0  0  0  0  0  0  0  0  0  0  0
   12.3780   -1.9920   23.0300 C   0  0  0  0  0  0  0  0  0  0  0  0
   13.1630   -0.9850   22.5730 C   0  0  0  0  0  0  0  0  0  0  0  0
   12.9020    0.3520   22.7870 C   0  0  0  0  0  0  0  0  0  0  0  0
   11.6460    0.5980   23.5610 C   0  0  0  0  0  0  0  0  0  0  0  0
   10.8040   -0.4560   24.0590 C   0  0  0  0  0  0  0  0  0  0  0  0
   11.1080   -1.8020   23.8380 C   0  0  0  0  0  0  0  0  0  0  0  0
   11.2460    2.0260   23.8240 C   0  0  0  0  0  0  0  0  0  0  0  0
   10.1060    2.2920   24.5210 C   0  0  0  0  0  0  0  0  0  0  0  0
    9.2320    1.3430   25.0550 C   0  0  0  0  0  0  0  0  0  0  0  0
    9.6390   -0.1140   24.7890 C   0  0  0  0  0  0  0  0  0  0  0  0
  1  3  1  0
  2  3  2  0
  6  4  1  6
  5  8  2  3
  6  8  1  0
  7  8  1  0
  3  9  1  0
  9 10  1  0
  6 11  1  0
 11 10  1  1
 11 12  1  0
 12 13  1  0
  9 14  1  0
 13 14  1  0
 15 16  2  0
 16 17  1  0
 17 18  2  0
 18 19  1  0
  4 20  1  0
 15 20  1  0
 19 20  2  0
 18 21  1  0
 21 22  2  0
 22 23  1  0
 19 24  1  0
 23 24  2  0
M  END
