x0995-x0678
     RDKit          3D

 17 18  0  0  0  0  0  0  0  0999 V2000
    9.2140    1.3710   21.3520 O   0  0  0  0  0  0  0  0  0  0  0  0
    8.6560    0.3830   21.8500 C   0  0  0  0  0  0  0  0  0  0  0  0
    9.0840   -0.2320   23.1650 C   0  0  0  0  0  0  0  0  0  0  0  0
    7.5090   -0.3200   21.2800 N   0  0  0  0  0  0  0  0  0  0  0  0
    3.6420    2.1190   19.0960 N   0  0  0  0  0  0  0  0  0  0  0  0
   10.9860   -1.4450   22.3140 C   0  0  0  0  0  0  0  0  0  0  0  0
   12.3910   -1.9810   22.4930 C   0  0  0  0  0  0  0  0  0  0  0  0
   13.2580   -1.0830   23.3690 C   0  0  0  0  0  0  0  0  0  0  0  0
   12.6740   -0.5050   24.5000 C   0  0  0  0  0  0  0  0  0  0  0  0
   11.1590   -0.7130   24.5560 C   0  0  0  0  0  0  0  0  0  0  0  0
   10.5860   -0.4560   23.3340 C   0  0  0  0  0  0  0  0  0  0  0  0
    5.5010    0.9440   20.3900 C   0  0  0  0  0  0  0  0  0  0  0  0
    4.8450    1.3450   19.2250 C   0  0  0  0  0  0  0  0  0  0  0  0
    5.3050    1.0250   17.9510 C   0  0  0  0  0  0  0  0  0  0  0  0
    6.4370    0.2820   17.7790 N   0  0  0  0  0  0  0  0  0  0  0  0
    7.1000   -0.1330   18.8630 C   0  0  0  0  0  0  0  0  0  0  0  0
    6.7790    0.1130   20.1650 C   0  0  0  0  0  0  0  0  0  0  0  0
  1  2  2  0
  2  3  1  0
  2  4  1  0
  6  7  1  0
  7  8  1  0
  8  9  1  0
  9 10  1  0
  3 11  1  0
  6 11  1  0
 10 11  1  0
  5 13  1  0
 12 13  2  0
 13 14  1  0
 14 15  2  0
 15 16  1  0
  4 17  1  0
 12 17  1  0
 16 17  2  0
M  END
