x0991-x0354
     RDKit          3D

 24 25  0  0  0  0  0  0  0  0999 V2000
   13.1070   -1.3250   22.4010 C   0  0  0  0  0  0  0  0  0  0  0  0
    8.0180   -2.2040   24.5990 N   0  0  0  0  0  0  0  0  0  0  0  0
    7.0670   -0.1720   26.9010 O   0  0  0  0  0  0  0  0  0  0  0  0
    8.7440   -1.1550   25.2420 C   0  0  0  0  0  0  0  0  0  0  0  0
    8.0510    0.0780   25.9640 C   0  0  0  0  0  0  0  0  0  0  0  0
    5.6360    3.1740   31.0260 C   0  0  0  0  0  0  0  0  0  0  0  0
   10.0750   -5.4520   25.1720 N   0  0  0  0  0  0  0  0  0  0  0  0
    7.7570   -4.2700   23.3180 C   0  0  0  0  0  0  0  0  0  0  0  0
    7.7650   -5.5480   24.1740 C   0  0  0  0  0  0  0  0  0  0  0  0
    8.0050   -5.8890   26.6720 N   0  0  0  0  0  0  0  0  0  0  0  0
    8.5730   -5.6250   25.3290 C   0  0  0  0  0  0  0  0  0  0  0  0
    8.6940   -3.2910   23.9510 C   0  0  0  0  0  0  0  0  0  0  0  0
   12.3400   -1.3360   23.5330 N   0  0  0  0  0  0  0  0  0  0  0  0
   11.3050   -2.3650   23.4240 C   0  0  0  0  0  0  0  0  0  0  0  0
   10.7960   -2.6100   24.8600 C   0  0  0  0  0  0  0  0  0  0  0  0
   10.1430   -1.3000   25.1920 N   0  0  0  0  0  0  0  0  0  0  0  0
   11.0330   -0.1690   24.8890 C   0  0  0  0  0  0  0  0  0  0  0  0
   11.6280   -0.2110   23.6420 C   0  0  0  0  0  0  0  0  0  0  0  0
    7.6290    1.8290   28.0270 C   0  0  0  0  0  0  0  0  0  0  0  0
    7.4120    2.7690   29.0090 C   0  0  0  0  0  0  0  0  0  0  0  0
    6.3510    2.5690   29.8570 C   0  0  0  0  0  0  0  0  0  0  0  0
    5.4190    1.5380   29.9060 C   0  0  0  0  0  0  0  0  0  0  0  0
    5.5950    0.5890   28.9580 C   0  0  0  0  0  0  0  0  0  0  0  0
    6.7730    0.7110   27.9220 C   0  0  0  0  0  0  0  0  0  0  0  0
  2  4  2  3
  3  5  1  0
  4  5  1  0
  8  9  1  0
  7 11  2  3
  9 11  1  0
 10 11  1  0
  2 12  1  0
  8 12  1  0
  1 13  1  0
 13 14  1  0
 14 15  1  0
  4 16  1  0
 15 16  1  0
 16 17  1  0
 13 18  1  0
 17 18  1  0
 19 20  2  0
  6 21  1  0
 20 21  1  0
 21 22  2  0
 22 23  1  0
  3 24  1  0
 19 24  1  0
 23 24  2  0
M  END
