x0991-x0161
     RDKit          3D

 22 22  0  0  0  0  0  0  0  0999 V2000
   12.9330   -2.4720   24.1890 C   0  0  0  0  0  0  0  0  0  0  0  0
   12.9970   -1.0580   24.4110 O   0  0  0  0  0  0  0  0  0  0  0  0
   12.9890   -0.3060   23.2040 C   0  0  0  0  0  0  0  0  0  0  0  0
   13.5010   -0.6780   22.1570 O   0  0  0  0  0  0  0  0  0  0  0  0
   10.1320    5.1340   23.7840 S   0  0  0  0  0  0  0  0  0  0  0  0
   10.9750    6.2350   23.3650 O   0  0  0  0  0  0  0  0  0  0  0  0
    9.4270    5.2260   25.0510 O   0  0  0  0  0  0  0  0  0  0  0  0
    8.8670    4.9860   22.6730 N   0  0  0  0  0  0  0  0  0  0  0  0
    9.5650   -5.1260   25.8790 N   0  0  0  0  0  0  0  0  0  0  0  0
    8.4430   -3.5660   23.0350 C   0  0  0  0  0  0  0  0  0  0  0  0
    8.0660   -4.7110   23.7430 C   0  0  0  0  0  0  0  0  0  0  0  0
    7.7080   -5.1440   25.9270 N   0  0  0  0  0  0  0  0  0  0  0  0
    8.7740   -4.9710   25.0730 C   0  0  0  0  0  0  0  0  0  0  0  0
   11.8190   -2.9990   25.1340 C   0  0  0  0  0  0  0  0  0  0  0  0
   10.7360   -3.7650   24.7040 C   0  0  0  0  0  0  0  0  0  0  0  0
   10.5620   -5.0080   25.3490 C   0  0  0  0  0  0  0  0  0  0  0  0
   12.2730    1.0460   23.3510 C   0  0  0  0  0  0  0  0  0  0  0  0
   12.9310    2.3320   22.8800 C   0  0  0  0  0  0  0  0  0  0  0  0
   12.1610    3.6260   23.0510 C   0  0  0  0  0  0  0  0  0  0  0  0
   10.9030    3.6460   23.6240 C   0  0  0  0  0  0  0  0  0  0  0  0
   10.3500    2.4220   24.0420 C   0  0  0  0  0  0  0  0  0  0  0  0
   10.9940    1.1750   23.9160 C   0  0  0  0  0  0  0  0  0  0  0  0
  1  2  1  0
  2  3  1  0
  3  4  2  0
  5  6  2  0
  5  7  2  0
  5  8  1  0
 10 11  1  0
  9 13  2  3
 11 13  1  0
 12 13  1  0
  1 14  1  0
 14 15  1  0
  9 16  1  0
 15 16  1  0
  3 17  1  0
 17 18  2  0
 18 19  1  0
  5 20  1  0
 19 20  2  0
 20 21  1  0
 17 22  1  0
 21 22  2  0
M  END
