x0991-x0755
     RDKit          3D

 25 26  0  0  0  0  0  0  0  0999 V2000
    4.2750   -6.3370   25.9450 O   0  0  0  0  0  0  0  0  0  0  0  0
    6.1840   -4.6800   26.7590 O   0  0  0  0  0  0  0  0  0  0  0  0
    5.2720   -4.7510   19.9330 O   0  0  0  0  0  0  0  0  0  0  0  0
    6.3130   -4.4070   20.4670 C   0  0  0  0  0  0  0  0  0  0  0  0
    7.1850   -3.4120   19.6980 C   0  0  0  0  0  0  0  0  0  0  0  0
    2.0650   -5.4410   25.6400 F   0  0  0  0  0  0  0  0  0  0  0  0
    5.4300   -2.0670   26.1110 F   0  0  0  0  0  0  0  0  0  0  0  0
    4.9620   -5.0690   25.8140 S   0  0  0  0  0  0  0  0  0  0  0  0
   10.2770   -5.6330   25.1920 N   0  0  0  0  0  0  0  0  0  0  0  0
    8.1810   -4.5250   23.3990 C   0  0  0  0  0  0  0  0  0  0  0  0
    7.8250   -4.9720   24.6590 C   0  0  0  0  0  0  0  0  0  0  0  0
    8.7010   -5.1650   26.7580 N   0  0  0  0  0  0  0  0  0  0  0  0
    8.9400   -5.2560   25.6260 C   0  0  0  0  0  0  0  0  0  0  0  0
    2.4150   -4.1520   25.7740 C   0  0  0  0  0  0  0  0  0  0  0  0
    3.7540   -3.7600   25.8760 C   0  0  0  0  0  0  0  0  0  0  0  0
    4.1400   -2.4140   26.0170 C   0  0  0  0  0  0  0  0  0  0  0  0
    3.2040   -1.3830   26.0640 C   0  0  0  0  0  0  0  0  0  0  0  0
    1.6990   -1.6850   25.9640 C   0  0  0  0  0  0  0  0  0  0  0  0
    1.3950   -3.1830   25.8120 C   0  0  0  0  0  0  0  0  0  0  0  0
    6.6280   -4.9160   21.6940 N   0  0  0  0  0  0  0  0  0  0  0  0
    7.0330   -4.0200   22.7500 C   0  0  1  0  0  0  0  0  0  0  0  0
    6.0160   -3.7210   23.6340 C   0  0  0  0  0  0  0  0  0  0  0  0
    5.4740   -4.9950   24.1930 N   0  0  0  0  0  0  0  0  0  0  0  0
    5.0400   -5.9010   23.2930 C   0  0  0  0  0  0  0  0  0  0  0  0
    5.8680   -6.0810   22.1820 C   0  0  0  0  0  0  0  0  0  0  0  0
  3  4  2  0
  4  5  1  0
  1  8  2  0
  2  8  2  0
 10 11  1  0
  9 13  2  3
 11 13  1  0
 12 13  1  0
  6 14  1  0
  8 15  1  0
 14 15  2  0
  7 16  1  0
 15 16  1  0
 16 17  2  0
 17 18  1  0
 14 19  1  0
 18 19  2  0
  4 20  1  0
 21 10  1  1
 20 21  1  0
 21 22  1  0
  8 23  1  0
 22 23  1  0
 23 24  1  0
 20 25  1  0
 24 25  1  0
M  END
