x0995-x0397
     RDKit          3D

 15 16  0  0  0  0  0  0  0  0999 V2000
    7.8800   -1.4640   20.9080 C   0  0  0  0  0  0  0  0  0  0  0  0
    6.7970   -1.9790   20.0550 N   0  0  0  0  0  0  0  0  0  0  0  0
    6.8340   -1.5180   18.7430 C   0  0  0  0  0  0  0  0  0  0  0  0
    3.6000    2.4390   19.3390 C   0  0  0  0  0  0  0  0  0  0  0  0
    6.1000   -3.2250   20.5840 C   0  0  0  0  0  0  0  0  0  0  0  0
    5.4600   -3.9880   19.8350 O   0  0  0  0  0  0  0  0  0  0  0  0
    6.2320   -3.4860   21.9250 N   0  0  0  0  0  0  0  0  0  0  0  0
    5.1350    0.0410   19.4610 C   0  0  0  0  0  0  0  0  0  0  0  0
    6.1360   -0.3650   18.6450 C   0  0  0  0  0  0  0  0  0  0  0  0
    6.3130    0.6060   17.6880 N   0  0  0  0  0  0  0  0  0  0  0  0
    5.3890    1.6330   17.9420 O   0  0  0  0  0  0  0  0  0  0  0  0
    4.6760    1.3920   18.9340 C   0  0  0  0  0  0  0  0  0  0  0  0
    6.6240   -5.4780   23.2760 C   0  0  0  0  0  0  0  0  0  0  0  0
    5.7480   -4.6610   22.4820 C   0  0  0  0  0  0  0  0  0  0  0  0
    5.9920   -5.7650   21.7670 C   0  0  0  0  0  0  0  0  0  0  0  0
  1  2  1  0
  2  3  1  0
  2  5  1  0
  5  6  2  0
  5  7  1  0
  3  9  1  0
  8  9  1  0
  9 10  2  0
 10 11  1  0
  4 12  1  0
  8 12  2  0
 11 12  1  0
  7 14  1  0
 13 14  1  0
 13 15  1  0
 14 15  1  0
M  END
