x0995-x2600
     RDKit          3D

 19 20  0  0  0  0  0  0  0  0999 V2000
   13.9210   -1.6240   20.4800 N   0  0  0  0  0  0  0  0  0  0  0  0
    8.3200    0.3520   21.7090 C   0  0  0  0  0  0  0  0  0  0  0  0
    8.9960    1.2970   21.2670 O   0  0  0  0  0  0  0  0  0  0  0  0
    8.6500   -0.3270   23.0350 C   0  0  0  0  0  0  0  0  0  0  0  0
    7.1410   -0.2350   21.0780 N   0  0  0  0  0  0  0  0  0  0  0  0
   13.1300   -1.4210   21.5120 C   0  0  0  0  0  0  0  0  0  0  0  0
    3.9230    1.8660   20.3620 N   0  0  0  0  0  0  0  0  0  0  0  0
    6.4430    0.6250   17.6340 N   0  0  0  0  0  0  0  0  0  0  0  0
    6.8680    0.2020   18.7890 C   0  0  0  0  0  0  0  0  0  0  0  0
    6.3140    0.3860   20.1610 C   0  0  0  0  0  0  0  0  0  0  0  0
    5.1180    1.0980   20.5000 C   0  0  0  0  0  0  0  0  0  0  0  0
    4.6720    1.5670   19.0480 C   0  0  0  0  0  0  0  0  0  0  0  0
    5.2510    1.3640   17.8060 C   0  0  0  0  0  0  0  0  0  0  0  0
   10.6590   -0.2370   24.6070 C   0  0  0  0  0  0  0  0  0  0  0  0
   12.0400   -0.3910   24.8800 C   0  0  0  0  0  0  0  0  0  0  0  0
   12.8810   -0.7860   23.8720 C   0  0  0  0  0  0  0  0  0  0  0  0
   12.2930   -1.0410   22.5220 C   0  0  0  0  0  0  0  0  0  0  0  0
   10.9680   -0.8930   22.2970 C   0  0  0  0  0  0  0  0  0  0  0  0
   10.1200   -0.4900   23.3110 C   0  0  0  0  0  0  0  0  0  0  0  0
  2  3  2  0
  2  4  1  0
  2  5  1  0
  1  6  3  0
  8  9  2  0
  5 10  1  0
  9 10  1  0
  7 11  1  0
 10 11  2  0
 11 12  1  0
  8 13  1  0
 12 13  2  0
 14 15  2  0
 15 16  1  0
  6 17  1  0
 16 17  2  0
 17 18  1  0
  4 19  1  0
 14 19  1  0
 18 19  2  0
M  END
