x0995-x3305
     RDKit          3D

 27 29  0  0  0  0  0  0  0  0999 V2000
    3.4680   -7.0710   23.7470 C   0  0  0  0  0  0  0  0  0  0  0  0
    5.5850   -3.1930   21.3020 O   0  0  0  0  0  0  0  0  0  0  0  0
    6.7130   -2.4200   23.2620 N   0  0  0  0  0  0  0  0  0  0  0  0
    7.2210   -1.4190   21.2360 N   0  0  0  0  0  0  0  0  0  0  0  0
    7.0790   -3.5820   23.9120 C   0  0  0  0  0  0  0  0  0  0  0  0
    6.4830   -2.3690   21.9110 C   0  0  0  0  0  0  0  0  0  0  0  0
    8.3700   -0.8570   21.7110 C   0  0  0  0  0  0  0  0  0  0  0  0
    9.4530   -1.8220   22.1620 C   0  0  0  0  0  0  0  0  0  0  0  0
    6.9950   -1.3480   19.8630 C   0  0  0  0  0  0  0  0  0  0  0  0
    3.0980    1.8710   19.3420 N   0  0  0  0  0  0  0  0  0  0  0  0
    4.6470   -6.2640   23.5710 N   0  0  0  0  0  0  0  0  0  0  0  0
    4.9590   -5.0950   24.1580 C   0  0  0  0  0  0  0  0  0  0  0  0
    6.1890   -4.7940   23.6260 C   0  0  0  0  0  0  0  0  0  0  0  0
    6.6380   -5.7360   22.7330 N   0  0  0  0  0  0  0  0  0  0  0  0
    5.6420   -6.6570   22.7160 N   0  0  0  0  0  0  0  0  0  0  0  0
    6.1490    1.3660   17.5530 N   0  0  0  0  0  0  0  0  0  0  0  0
    6.7100    0.3690   18.2450 C   0  0  0  0  0  0  0  0  0  0  0  0
    6.1750   -0.2550   19.3280 C   0  0  0  0  0  0  0  0  0  0  0  0
    4.9430    0.1910   19.7810 C   0  0  0  0  0  0  0  0  0  0  0  0
    4.2710    1.3410   19.0340 C   0  0  0  0  0  0  0  0  0  0  0  0
    4.9620    1.8190   17.9670 C   0  0  0  0  0  0  0  0  0  0  0  0
   10.7390    0.1960   22.8990 C   0  0  0  0  0  0  0  0  0  0  0  0
   11.9250    0.9280   23.1270 C   0  0  0  0  0  0  0  0  0  0  0  0
   13.1050    0.2730   22.8240 C   0  0  0  0  0  0  0  0  0  0  0  0
   13.1700   -1.0040   22.3330 C   0  0  0  0  0  0  0  0  0  0  0  0
   12.0020   -1.6970   22.1150 C   0  0  0  0  0  0  0  0  0  0  0  0
   10.7520   -1.1260   22.3860 C   0  0  0  0  0  0  0  0  0  0  0  0
  3  5  1  0
  2  6  2  0
  3  6  1  0
  4  6  1  0
  4  7  1  0
  7  8  1  0
  4  9  1  0
  1 11  1  0
 11 12  1  0
  5 13  1  0
 12 13  2  0
 13 14  1  0
 11 15  1  0
 14 15  2  0
 16 17  2  0
  9 18  1  0
 17 18  1  0
 18 19  2  0
 10 20  1  0
 19 20  1  0
 16 21  1  0
 20 21  2  0
 22 23  2  0
 23 24  1  0
 24 25  2  0
 25 26  1  0
  8 27  1  0
 22 27  1  0
 26 27  2  0
M  END
