x0991-x3298
     RDKit          3D

 35 37  0  0  0  0  0  0  0  0999 V2000
    7.2340    2.1560   21.9500 N   0  0  0  0  0  0  0  0  0  0  0  0
    7.3900   -0.1970   21.1370 C   0  0  2  0  0  0  0  0  0  0  0  0
    6.9320   -0.8010   22.3350 O   0  0  0  0  0  0  0  0  0  0  0  0
    8.0870    1.1410   21.4120 C   0  0  0  0  0  0  0  0  0  0  0  0
    8.5490    1.1820   24.1530 N   0  0  0  0  0  0  0  0  0  0  0  0
    9.2360    1.3590   21.1450 O   0  0  0  0  0  0  0  0  0  0  0  0
   10.7330    2.1230   24.6230 O   0  0  0  0  0  0  0  0  0  0  0  0
    9.8920   -0.0990   25.9170 O   0  0  0  0  0  0  0  0  0  0  0  0
   13.6190   -1.8450   20.9100 F   0  0  0  0  0  0  0  0  0  0  0  0
   10.0260    0.7070   24.7190 S   0  0  0  0  0  0  0  0  0  0  0  0
    9.9770   -5.6990   25.4550 N   0  0  0  0  0  0  0  0  0  0  0  0
    8.6120   -3.8530   23.5050 C   0  0  0  0  0  0  0  0  0  0  0  0
    7.9540   -4.8470   24.2360 C   0  0  0  0  0  0  0  0  0  0  0  0
    8.0440   -5.6810   26.7370 N   0  0  0  0  0  0  0  0  0  0  0  0
    8.6500   -5.4070   25.4820 C   0  0  0  0  0  0  0  0  0  0  0  0
    7.3670   -2.0900   22.4280 C   0  0  0  0  0  0  0  0  0  0  0  0
    7.9000   -2.5080   23.6390 C   0  0  0  0  0  0  0  0  0  0  0  0
    6.2400    0.4140   17.6740 N   0  0  0  0  0  0  0  0  0  0  0  0
    6.9620   -0.0100   18.8710 C   0  0  0  0  0  0  0  0  0  0  0  0
    6.4380    0.2890   20.1040 C   0  0  0  0  0  0  0  0  0  0  0  0
    5.1150    1.0220   20.2760 C   0  0  0  0  0  0  0  0  0  0  0  0
    4.4500    1.4090   18.9730 C   0  0  0  0  0  0  0  0  0  0  0  0
    5.0830    1.0730   17.7920 C   0  0  0  0  0  0  0  0  0  0  0  0
    7.7950    4.5160   22.4190 C   0  0  0  0  0  0  0  0  0  0  0  0
    8.4700    5.3870   23.2960 C   0  0  0  0  0  0  0  0  0  0  0  0
    9.1420    4.8660   24.4210 C   0  0  0  0  0  0  0  0  0  0  0  0
    9.1400    3.4880   24.6690 C   0  0  0  0  0  0  0  0  0  0  0  0
    8.5320    2.6470   23.8840 C   0  0  0  0  0  0  0  0  0  0  0  0
    7.7980    3.1280   22.6730 C   0  0  0  0  0  0  0  0  0  0  0  0
   12.3080    0.3950   23.4250 C   0  0  0  0  0  0  0  0  0  0  0  0
   13.1540   -0.2010   22.5360 C   0  0  0  0  0  0  0  0  0  0  0  0
   12.7680   -1.2990   21.7800 C   0  0  0  0  0  0  0  0  0  0  0  0
   11.5040   -1.8180   21.9140 C   0  0  0  0  0  0  0  0  0  0  0  0
   10.6040   -1.2280   22.8180 C   0  0  0  0  0  0  0  0  0  0  0  0
   11.0340   -0.1230   23.5620 C   0  0  0  0  0  0  0  0  0  0  0  0
  2  3  1  1
  1  4  1  0
  2  4  1  0
  4  6  2  0
 10  5  1  0
  7 10  2  0
  8 10  2  0
 12 13  1  0
 11 15  2  3
 13 15  1  0
 14 15  1  0
  3 16  1  0
 12 17  1  0
 16 17  1  0
 18 19  2  0
  2 20  1  0
 19 20  1  0
 20 21  2  0
 21 22  1  0
 18 23  1  0
 22 23  2  0
 24 25  2  0
 25 26  1  0
 26 27  2  0
  5 28  1  0
 27 28  1  0
  1 29  1  0
 24 29  1  0
 28 29  2  0
 30 31  2  0
  9 32  1  0
 31 32  1  0
 32 33  2  0
 33 34  1  0
 10 35  1  0
 30 35  1  0
 34 35  2  0
M  END
