x0991-x1308
     RDKit          3D

 24 25  0  0  0  0  0  0  0  0999 V2000
    7.4420   -3.4940   19.9990 C   0  0  0  0  0  0  0  0  0  0  0  0
    5.3900   -4.6530   19.9560 O   0  0  0  0  0  0  0  0  0  0  0  0
    0.6400   -1.2380   26.5140 Cl  0  0  0  0  0  0  0  0  0  0  0  0
    6.4270   -4.4560   20.5910 C   0  0  0  0  0  0  0  0  0  0  0  0
    6.3450   -5.2560   26.7780 O   0  0  0  0  0  0  0  0  0  0  0  0
    4.4630   -7.0270   26.0910 O   0  0  0  0  0  0  0  0  0  0  0  0
    5.1120   -5.5980   25.8300 S   0  0  0  0  0  0  0  0  0  0  0  0
    9.8340   -5.9330   24.5470 N   0  0  0  0  0  0  0  0  0  0  0  0
    8.4360   -3.6850   22.9690 C   0  0  0  0  0  0  0  0  0  0  0  0
    8.7610   -3.5210   24.3100 C   0  0  0  0  0  0  0  0  0  0  0  0
    8.6860   -4.8700   26.2090 N   0  0  0  0  0  0  0  0  0  0  0  0
    9.0700   -4.8020   25.1110 C   0  0  0  0  0  0  0  0  0  0  0  0
    6.5770   -5.1720   21.7780 N   0  0  0  0  0  0  0  0  0  0  0  0
    7.3720   -4.7650   22.9440 C   0  0  2  0  0  0  0  0  0  0  0  0
    6.3710   -4.3190   23.7810 C   0  0  0  0  0  0  0  0  0  0  0  0
    5.5870   -5.4590   24.2070 N   0  0  0  0  0  0  0  0  0  0  0  0
    5.0470   -6.1500   23.2140 C   0  0  0  0  0  0  0  0  0  0  0  0
    5.9170   -6.4150   22.1350 C   0  0  0  0  0  0  0  0  0  0  0  0
    4.3480   -3.0780   26.4020 C   0  0  0  0  0  0  0  0  0  0  0  0
    3.2130   -2.0700   26.5480 C   0  0  0  0  0  0  0  0  0  0  0  0
    1.8870   -2.4050   26.3190 C   0  0  0  0  0  0  0  0  0  0  0  0
    1.5900   -3.7040   25.9340 C   0  0  0  0  0  0  0  0  0  0  0  0
    2.5910   -4.6690   25.7850 C   0  0  0  0  0  0  0  0  0  0  0  0
    3.9460   -4.3670   26.0180 C   0  0  0  0  0  0  0  0  0  0  0  0
  1  4  1  0
  2  4  2  0
  5  7  2  0
  6  7  2  0
  9 10  1  0
  8 12  2  3
 10 12  1  0
 11 12  1  0
  4 13  1  0
 14  9  1  6
 13 14  1  0
 14 15  1  0
  7 16  1  0
 15 16  1  0
 16 17  1  0
 13 18  1  0
 17 18  1  0
 19 20  2  0
  3 21  1  0
 20 21  1  0
 21 22  2  0
 22 23  1  0
  7 24  1  0
 19 24  1  0
 23 24  2  0
M  END
