x0995-x2910
     RDKit          3D

 25 27  0  0  0  0  0  0  0  0999 V2000
    7.2530   -1.4020   21.5570 N   0  0  0  0  0  0  0  0  0  0  0  0
   10.4030    2.4710   23.5650 C   0  0  0  0  0  0  0  0  0  0  0  0
   10.1680    1.2690   23.5710 O   0  0  0  0  0  0  0  0  0  0  0  0
    9.4950   -1.0410   22.8520 O   0  0  0  0  0  0  0  0  0  0  0  0
    5.2080   -2.7980   20.8080 O   0  0  0  0  0  0  0  0  0  0  0  0
    6.3110    1.1840   16.9480 O   0  0  0  0  0  0  0  0  0  0  0  0
    9.1540   -2.2900   22.2370 C   0  0  0  0  0  0  0  0  0  0  0  0
    7.8580   -2.4320   22.2600 C   0  0  0  0  0  0  0  0  0  0  0  0
    5.9680   -1.5980   20.7840 C   0  0  0  0  0  0  0  0  0  0  0  0
   11.0780    0.5580   23.1420 C   0  0  0  0  0  0  0  0  0  0  0  0
   10.6670   -0.7160   22.7530 C   0  0  0  0  0  0  0  0  0  0  0  0
   11.7680   -1.6730   22.2020 C   0  0  0  0  0  0  0  0  0  0  0  0
   13.0500   -1.1570   22.1510 C   0  0  0  0  0  0  0  0  0  0  0  0
   13.3470    0.2660   22.6120 C   0  0  0  0  0  0  0  0  0  0  0  0
   12.3610    1.1030   23.1030 C   0  0  0  0  0  0  0  0  0  0  0  0
    4.7290    1.8190   18.4270 N   0  0  0  0  0  0  0  0  0  0  0  0
    4.0910    1.5640   19.6320 C   0  0  0  0  0  0  0  0  0  0  0  0
    4.5390    0.3610   20.4570 C   0  0  0  0  0  0  0  0  0  0  0  0
    5.5490   -0.4560   20.0050 C   0  0  0  0  0  0  0  0  0  0  0  0
    6.1700   -0.1690   18.7710 C   0  0  0  0  0  0  0  0  0  0  0  0
    5.7540    0.9620   18.0020 C   0  0  0  0  0  0  0  0  0  0  0  0
    3.0620    2.4060   20.0640 C   0  0  0  0  0  0  0  0  0  0  0  0
    2.4280    2.1590   21.2670 C   0  0  0  0  0  0  0  0  0  0  0  0
    2.7730    1.0810   22.0980 C   0  0  0  0  0  0  0  0  0  0  0  0
    3.7970    0.1810   21.7400 C   0  0  0  0  0  0  0  0  0  0  0  0
  2  3  1  0
  4  7  1  0
  1  8  1  0
  7  8  1  0
  1  9  1  0
  5  9  2  0
  3 10  1  0
  4 11  1  0
 10 11  2  0
 11 12  1  0
 12 13  2  0
 13 14  1  0
 10 15  1  0
 14 15  2  0
 16 17  2  0
 17 18  1  0
  9 19  1  0
 18 19  2  0
 19 20  1  0
  6 21  1  0
 16 21  1  0
 20 21  2  0
 17 22  1  0
 22 23  2  0
 23 24  1  0
 18 25  1  0
 24 25  2  0
M  END
