x1002-x0350
     RDKit          3D

 15 16  0  0  0  0  0  0  0  0999 V2000
    9.6360  -24.6860   -0.2760 C   0  0  0  0  0  0  0  0  0  0  0  0
    9.0920  -23.4050   -0.3710 N   0  0  0  0  0  0  0  0  0  0  0  0
    7.9960  -23.3860   -1.0770 C   0  0  0  0  0  0  0  0  0  0  0  0
   10.9030  -26.9060    4.1080 F   0  0  0  0  0  0  0  0  0  0  0  0
   11.2670  -26.0080    3.1810 C   0  0  0  0  0  0  0  0  0  0  0  0
   10.3710  -25.7180    1.8960 C   0  0  0  0  0  0  0  0  0  0  0  0
   10.6000  -24.8540    0.8930 C   0  0  0  0  0  0  0  0  0  0  0  0
   11.9220  -24.0600    1.0270 C   0  0  0  0  0  0  0  0  0  0  0  0
   12.9100  -24.2210    2.2070 C   0  0  0  0  0  0  0  0  0  0  0  0
   12.5780  -25.2250    3.3370 C   0  0  0  0  0  0  0  0  0  0  0  0
    7.7580  -20.7040   -1.8160 C   0  0  0  0  0  0  0  0  0  0  0  0
    7.3470  -22.0420   -1.1890 C   0  0  0  0  0  0  0  0  0  0  0  0
    6.0990  -21.8820   -0.6380 O   0  0  0  0  0  0  0  0  0  0  0  0
    5.6540  -20.5910   -0.8270 C   0  0  0  0  0  0  0  0  0  0  0  0
    6.5680  -19.7880   -1.5250 C   0  0  0  0  0  0  0  0  0  0  0  0
  1  2  1  0
  2  3  1  0
  4  5  1  0
  5  6  2  0
  1  7  1  0
  6  7  1  0
  7  8  2  0
  8  9  1  0
  5 10  1  0
  9 10  2  0
  3 12  1  0
 11 12  2  0
 12 13  1  0
 13 14  1  0
 11 15  1  0
 14 15  2  0
M  END
