x1077-x2052
     RDKit          3D

 32 34  0  0  0  0  0  0  0  0999 V2000
    5.6830   -1.5330   25.4250 C   0  0  0  0  0  0  0  0  0  0  0  0
    4.4850   -1.6790   25.6140 O   0  0  0  0  0  0  0  0  0  0  0  0
    6.5290   -0.6750   26.0820 N   0  0  0  0  0  0  0  0  0  0  0  0
    5.7530   -4.8760   20.0420 O   0  0  0  0  0  0  0  0  0  0  0  0
    5.4820    2.1490   30.6930 O   0  0  0  0  0  0  0  0  0  0  0  0
    6.5760   -3.9930   20.3100 C   0  0  0  0  0  0  0  0  0  0  0  0
    7.3530   -3.2850   19.1940 C   0  0  0  0  0  0  0  0  0  0  0  0
    6.0710    3.4450   30.7360 C   0  0  0  0  0  0  0  0  0  0  0  0
    6.8790   -3.5270   21.7770 C   0  0  1  0  0  0  0  0  0  0  0  0
    6.1640   -2.1740   21.8870 C   0  0  0  0  0  0  0  0  0  0  0  0
    6.4860   -1.4010   23.1330 C   0  0  0  0  0  0  0  0  0  0  0  0
    6.4450   -2.3030   24.3680 C   0  0  2  0  0  0  0  0  0  0  0  0
    5.8330   -3.6860   24.0740 C   0  0  0  0  0  0  0  0  0  0  0  0
    6.5840   -4.4910   22.9740 C   0  0  2  0  0  0  0  0  0  0  0  0
    6.4940    2.0810   28.5670 N   0  0  0  0  0  0  0  0  0  0  0  0
    6.7360    1.3650   27.4460 C   0  0  0  0  0  0  0  0  0  0  0  0
    6.2780    0.0710   27.2360 C   0  0  0  0  0  0  0  0  0  0  0  0
    5.5210   -0.5190   28.2490 C   0  0  0  0  0  0  0  0  0  0  0  0
    5.2590    0.1930   29.4130 C   0  0  0  0  0  0  0  0  0  0  0  0
    5.7630    1.4780   29.5240 C   0  0  0  0  0  0  0  0  0  0  0  0
    7.8760   -5.2230   23.5780 C   0  0  0  0  0  0  0  0  0  0  0  0
    8.8350   -4.4790   24.5940 C   0  0  0  0  0  0  0  0  0  0  0  0
    9.4300   -3.0880   24.1860 C   0  0  1  0  0  0  0  0  0  0  0  0
    8.6830   -2.4790   23.0960 C   0  0  0  0  0  0  0  0  0  0  0  0
    8.3570   -3.3360   21.9510 C   0  0  0  0  0  0  0  0  0  0  0  0
    9.1470   -0.4410   24.5380 C   0  0  0  0  0  0  0  0  0  0  0  0
    9.3630   -1.8650   25.1160 C   0  0  0  0  0  0  0  0  0  0  0  0
   10.9190   -3.0600   23.7550 C   0  0  0  0  0  0  0  0  0  0  0  0
   11.1750   -2.4420   22.4590 N   0  0  0  0  0  0  0  0  0  0  0  0
    9.1110    1.4490   21.5780 N   0  0  0  0  0  0  0  0  0  0  0  0
    9.5740    0.8150   22.4290 C   0  0  0  0  0  0  0  0  0  0  0  0
   10.1890    0.0770   23.5420 C   0  0  0  0  0  0  0  0  0  0  0  0
  1  2  2  0
  1  3  1  0
  4  6  2  0
  6  7  1  0
  5  8  1  0
  9  6  1  6
  9 10  1  0
 10 11  1  0
 12  1  1  1
 11 12  1  0
 12 13  1  0
  9 14  1  0
 14 13  1  1
 15 16  2  0
  3 17  1  0
 16 17  1  0
 17 18  2  0
 18 19  1  0
  5 20  1  0
 15 20  1  0
 19 20  2  0
 14 21  1  0
 21 22  1  0
 22 23  1  0
 23 24  1  0
  9 25  1  0
 24 25  1  0
 23 27  1  1
 26 27  1  0
 23 28  1  0
 28 29  1  0
 30 31  3  0
 26 32  1  0
 31 32  1  0
M  END
