x1077-x3124
     RDKit          3D

 34 36  0  0  0  0  0  0  0  0999 V2000
    6.8660   -1.6680   21.8650 N   0  0  0  0  0  0  0  0  0  0  0  0
    6.8370   -4.5510   20.1990 C   0  0  0  0  0  0  0  0  0  0  0  0
    4.8080   -3.0330   21.3170 O   0  0  0  0  0  0  0  0  0  0  0  0
    6.9470   -4.0170   21.5930 C   0  0  0  0  0  0  0  0  0  0  0  0
    7.4570    1.4280   23.1210 N   0  0  0  0  0  0  0  0  0  0  0  0
    8.7310    0.6470   21.4270 O   0  0  0  0  0  0  0  0  0  0  0  0
    6.0720   -2.8280   21.5800 C   0  0  0  0  0  0  0  0  0  0  0  0
    6.5490   -0.2080   21.6380 C   0  0  1  0  0  0  0  0  0  0  0  0
    7.6580    0.6030   22.0280 C   0  0  0  0  0  0  0  0  0  0  0  0
    7.9170    2.8200   23.1250 C   0  0  0  0  0  0  0  0  0  0  0  0
   12.2740   -1.8860   24.0640 C   0  0  0  0  0  0  0  0  0  0  0  0
   12.4990   -0.6450   24.9460 C   0  0  0  0  0  0  0  0  0  0  0  0
   13.3280   -1.8690   22.9620 C   0  0  0  0  0  0  0  0  0  0  0  0
   12.5610   -3.0900   24.9640 C   0  0  0  0  0  0  0  0  0  0  0  0
    6.3030    0.2040   17.9370 N   0  0  0  0  0  0  0  0  0  0  0  0
    5.1890    0.9540   17.8870 C   0  0  0  0  0  0  0  0  0  0  0  0
    4.4800    1.3230   19.0070 C   0  0  0  0  0  0  0  0  0  0  0  0
    4.9080    0.9330   20.2590 C   0  0  0  0  0  0  0  0  0  0  0  0
    6.0660    0.1670   20.3430 C   0  0  0  0  0  0  0  0  0  0  0  0
    6.7340   -0.1840   19.1660 C   0  0  0  0  0  0  0  0  0  0  0  0
    9.3270   -1.4670   21.6250 C   0  0  0  0  0  0  0  0  0  0  0  0
   10.6230   -1.4880   22.0080 C   0  0  0  0  0  0  0  0  0  0  0  0
   10.8900   -1.8560   23.4290 C   0  0  0  0  0  0  0  0  0  0  0  0
    9.6430   -2.1910   24.2230 C   0  0  0  0  0  0  0  0  0  0  0  0
    8.2350   -2.2060   23.8700 C   0  0  0  0  0  0  0  0  0  0  0  0
    8.2560   -1.7810   22.4640 C   0  0  0  0  0  0  0  0  0  0  0  0
    7.1380   -5.7330   25.5160 O   0  0  0  0  0  0  0  0  0  0  0  0
    7.7520   -4.9580   24.4830 C   0  0  0  0  0  0  0  0  0  0  0  0
    8.4420   -5.6770   23.5180 C   0  0  0  0  0  0  0  0  0  0  0  0
    9.4160   -4.9400   24.4840 C   0  0  0  0  0  0  0  0  0  0  0  0
    8.7750   -4.0720   25.4840 N   0  0  0  0  0  0  0  0  0  0  0  0
    8.6290   -4.5510   26.7280 C   0  0  0  0  0  0  0  0  0  0  0  0
    7.5980   -5.4570   26.7680 C   0  0  0  0  0  0  0  0  0  0  0  0
    8.5150   -2.6180   25.2920 C   0  0  0  0  0  0  0  0  0  0  0  0
  2  4  1  0
  1  7  1  0
  3  7  2  0
  4  7  1  0
  1  8  1  0
  5  9  1  0
  6  9  2  0
  8  9  1  6
  5 10  1  0
 11 12  1  0
 11 13  1  0
 11 14  1  0
 15 16  2  0
 16 17  1  0
 17 18  2  0
  8 19  1  0
 18 19  1  0
 15 20  1  0
 19 20  2  0
 21 22  2  0
 11 23  1  0
 22 23  1  0
 23 24  2  0
 24 25  1  0
  1 26  1  0
 21 26  1  0
 25 26  2  0
 27 28  1  0
 28 29  1  0
 29 30  1  0
 30 31  1  0
 31 32  1  0
 27 33  1  0
 32 33  1  0
 25 34  1  0
 31 34  1  0
M  END
