x1077-x2193
     RDKit          3D

 16 17  0  0  0  0  0  0  0  0999 V2000
   11.0900    2.4740   23.0500 C   0  0  0  0  0  0  0  0  0  0  0  0
    9.2730    1.7980   21.1150 O   0  0  0  0  0  0  0  0  0  0  0  0
    8.4220    2.6380   23.2260 O   0  0  0  0  0  0  0  0  0  0  0  0
    9.4270    1.8790   22.5390 S   0  0  0  0  0  0  0  0  0  0  0  0
    9.3160    0.2400   23.1860 C   0  0  0  0  0  0  0  0  0  0  0  0
    8.7240    0.0780   24.5730 C   0  0  0  0  0  0  0  0  0  0  0  0
    8.6320   -1.2090   25.0290 C   0  0  0  0  0  0  0  0  0  0  0  0
    9.0480   -2.3340   24.3150 C   0  0  0  0  0  0  0  0  0  0  0  0
    9.6310   -2.2990   23.0040 C   0  0  0  0  0  0  0  0  0  0  0  0
    9.7600   -1.0110   22.4470 C   0  0  0  0  0  0  0  0  0  0  0  0
    8.8900   -6.1340   26.1400 N   0  0  0  0  0  0  0  0  0  0  0  0
    8.0890   -5.0190   26.6390 C   0  0  0  0  0  0  0  0  0  0  0  0
    8.6820   -3.8050   26.3520 C   0  0  0  0  0  0  0  0  0  0  0  0
    8.9030   -3.6700   24.8880 N   0  0  0  0  0  0  0  0  0  0  0  0
    9.6700   -4.7800   24.3480 C   0  0  0  0  0  0  0  0  0  0  0  0
    9.0330   -5.9700   24.6710 C   0  0  0  0  0  0  0  0  0  0  0  0
  4  1  1  0
  2  4  2  0
  3  4  2  0
  4  5  1  0
  5  6  2  0
  6  7  1  0
  7  8  2  0
  8  9  1  0
  5 10  1  0
  9 10  2  0
 11 12  1  0
 12 13  1  0
  8 14  1  0
 13 14  1  0
 14 15  1  0
 11 16  1  0
 15 16  1  0
M  END
