x1077-x3113
     RDKit          3D

 38 40  0  0  0  0  0  0  0  0999 V2000
    7.1320   -1.5640   21.8070 N   0  0  0  0  0  0  0  0  0  0  0  0
    6.9360   -4.4180   20.3710 C   0  0  0  0  0  0  0  0  0  0  0  0
    5.0900   -3.4450   21.2880 O   0  0  0  0  0  0  0  0  0  0  0  0
    7.0430   -3.4980   21.5730 C   0  0  0  0  0  0  0  0  0  0  0  0
    8.1010    1.2030   23.2850 N   0  0  0  0  0  0  0  0  0  0  0  0
    8.7540    1.2850   21.1200 O   0  0  0  0  0  0  0  0  0  0  0  0
    5.9570   -2.4460   21.5330 C   0  0  0  0  0  0  0  0  0  0  0  0
   11.7470    3.7830   22.3330 O   0  0  0  0  0  0  0  0  0  0  0  0
    6.9670   -0.0920   21.6280 C   0  0  1  0  0  0  0  0  0  0  0  0
    7.9860    0.7950   21.9730 C   0  0  0  0  0  0  0  0  0  0  0  0
    9.1080    2.2900   23.3640 C   0  0  0  0  0  0  0  0  0  0  0  0
   10.5360    1.7870   23.2200 C   0  0  0  0  0  0  0  0  0  0  0  0
   11.5720    2.8880   23.4120 C   0  0  0  0  0  0  0  0  0  0  0  0
   12.9330    4.5640   22.4780 C   0  0  0  0  0  0  0  0  0  0  0  0
   12.4920   -1.8870   24.1400 C   0  0  0  0  0  0  0  0  0  0  0  0
   13.3360   -2.0900   23.1040 C   0  0  0  0  0  0  0  0  0  0  0  0
   12.8340   -3.0100   25.1430 C   0  0  0  0  0  0  0  0  0  0  0  0
   12.5160   -0.6580   24.9890 C   0  0  0  0  0  0  0  0  0  0  0  0
    6.3520    0.3980   17.7980 N   0  0  0  0  0  0  0  0  0  0  0  0
    5.2630    1.1970   17.8320 C   0  0  0  0  0  0  0  0  0  0  0  0
    4.6170    1.6400   18.9620 C   0  0  0  0  0  0  0  0  0  0  0  0
    5.1340    1.2350   20.3400 C   0  0  0  0  0  0  0  0  0  0  0  0
    6.3600    0.3460   20.3310 C   0  0  0  0  0  0  0  0  0  0  0  0
    6.9010   -0.0300   18.9520 C   0  0  0  0  0  0  0  0  0  0  0  0
    9.5170   -1.4180   21.7570 C   0  0  0  0  0  0  0  0  0  0  0  0
   10.9430   -1.4580   22.2400 C   0  0  0  0  0  0  0  0  0  0  0  0
   11.0680   -1.8650   23.5210 C   0  0  0  0  0  0  0  0  0  0  0  0
    9.8010   -2.2560   24.2810 C   0  0  0  0  0  0  0  0  0  0  0  0
    8.3860   -2.2630   23.8900 C   0  0  0  0  0  0  0  0  0  0  0  0
    8.4040   -1.7790   22.5370 C   0  0  0  0  0  0  0  0  0  0  0  0
    6.8990   -5.7690   25.5780 O   0  0  0  0  0  0  0  0  0  0  0  0
    7.1770   -5.2770   24.2620 C   0  0  0  0  0  0  0  0  0  0  0  0
    8.5890   -5.4410   23.7100 C   0  0  0  0  0  0  0  0  0  0  0  0
    9.6640   -4.8340   24.3950 C   0  0  0  0  0  0  0  0  0  0  0  0
    9.3690   -4.0030   25.5610 N   0  0  0  0  0  0  0  0  0  0  0  0
    8.8440   -4.7570   26.6980 C   0  0  0  0  0  0  0  0  0  0  0  0
    7.3310   -4.9870   26.6900 C   0  0  0  0  0  0  0  0  0  0  0  0
    8.6130   -2.7490   25.3010 C   0  0  0  0  0  0  0  0  0  0  0  0
  2  4  1  0
  1  7  1  0
  3  7  2  0
  4  7  1  0
  1  9  1  0
  5 10  1  0
  6 10  2  0
  9 10  1  6
  5 11  1  0
 11 12  1  0
  8 13  1  0
 12 13  1  0
  8 14  1  0
 15 16  1  0
 15 17  1  0
 15 18  1  0
 19 20  2  0
 20 21  1  0
 21 22  2  0
  9 23  1  0
 22 23  1  0
 19 24  1  0
 23 24  2  0
 25 26  2  0
 15 27  1  0
 26 27  1  0
 27 28  2  0
 28 29  1  0
  1 30  1  0
 25 30  1  0
 29 30  2  0
 31 32  1  0
 32 33  1  0
 33 34  1  0
 34 35  1  0
 35 36  1  0
 31 37  1  0
 36 37  1  0
 29 38  1  0
 35 38  1  0
M  END
