x1077-x3115
     RDKit          3D

 37 39  0  0  0  0  0  0  0  0999 V2000
    6.8120   -1.7210   22.0610 N   0  0  0  0  0  0  0  0  0  0  0  0
    6.8000   -4.4300   20.0480 C   0  0  0  0  0  0  0  0  0  0  0  0
    4.8040   -3.0980   21.4320 O   0  0  0  0  0  0  0  0  0  0  0  0
    6.9350   -4.1030   21.5100 C   0  0  0  0  0  0  0  0  0  0  0  0
    7.0570    1.6290   22.9930 N   0  0  0  0  0  0  0  0  0  0  0  0
    8.5980    0.7020   21.5940 O   0  0  0  0  0  0  0  0  0  0  0  0
    6.0780   -2.9110   21.6760 C   0  0  0  0  0  0  0  0  0  0  0  0
    8.4700    5.1010   22.8790 O   0  0  0  0  0  0  0  0  0  0  0  0
    6.5230   -0.2840   21.7300 C   0  0  1  0  0  0  0  0  0  0  0  0
    7.4650    0.6690   22.0910 C   0  0  0  0  0  0  0  0  0  0  0  0
    8.0390    2.7340   23.0860 C   0  0  0  0  0  0  0  0  0  0  0  0
    7.8040    3.9860   22.2530 C   0  0  0  0  0  0  0  0  0  0  0  0
    8.2400    6.3250   22.1820 C   0  0  0  0  0  0  0  0  0  0  0  0
   12.4880   -1.9160   24.1360 C   0  0  0  0  0  0  0  0  0  0  0  0
   13.4840   -2.0470   22.9960 C   0  0  0  0  0  0  0  0  0  0  0  0
   12.8430   -3.0090   25.1560 C   0  0  0  0  0  0  0  0  0  0  0  0
   12.6510   -0.5510   24.8060 C   0  0  0  0  0  0  0  0  0  0  0  0
    6.3280    0.2880   17.8770 N   0  0  0  0  0  0  0  0  0  0  0  0
    5.2190    1.0630   17.8390 C   0  0  0  0  0  0  0  0  0  0  0  0
    4.4460    1.4500   18.9240 C   0  0  0  0  0  0  0  0  0  0  0  0
    4.8010    1.0450   20.1830 C   0  0  0  0  0  0  0  0  0  0  0  0
    6.0460    0.1700   20.3700 C   0  0  0  0  0  0  0  0  0  0  0  0
    6.7550   -0.1600   19.0730 C   0  0  0  0  0  0  0  0  0  0  0  0
    9.3340   -1.3280   21.6390 C   0  0  0  0  0  0  0  0  0  0  0  0
   10.7880   -1.3850   22.1850 C   0  0  0  0  0  0  0  0  0  0  0  0
   11.0840   -1.8990   23.5780 C   0  0  0  0  0  0  0  0  0  0  0  0
   10.0480   -2.3360   24.3250 C   0  0  0  0  0  0  0  0  0  0  0  0
    8.6020   -2.3310   23.8750 C   0  0  0  0  0  0  0  0  0  0  0  0
    8.1930   -1.8340   22.5950 C   0  0  0  0  0  0  0  0  0  0  0  0
    6.7760   -5.9060   25.5380 O   0  0  0  0  0  0  0  0  0  0  0  0
    7.0490   -5.4200   24.2220 C   0  0  0  0  0  0  0  0  0  0  0  0
    8.4700   -5.4720   23.8610 C   0  0  0  0  0  0  0  0  0  0  0  0
    9.4220   -4.8530   24.8830 C   0  0  0  0  0  0  0  0  0  0  0  0
    8.8080   -3.8110   25.7560 N   0  0  0  0  0  0  0  0  0  0  0  0
    8.1800   -4.3910   26.9230 C   0  0  0  0  0  0  0  0  0  0  0  0
    6.8120   -4.9950   26.6330 C   0  0  0  0  0  0  0  0  0  0  0  0
    7.8660   -2.9140   25.0140 C   0  0  0  0  0  0  0  0  0  0  0  0
  2  4  1  0
  1  7  1  0
  3  7  2  0
  4  7  1  0
  1  9  1  0
  5 10  1  0
  6 10  2  0
  9 10  1  6
  5 11  1  0
  8 12  1  0
 11 12  1  0
  8 13  1  0
 14 15  1  0
 14 16  1  0
 14 17  1  0
 18 19  2  0
 19 20  1  0
 20 21  2  0
  9 22  1  0
 21 22  1  0
 18 23  1  0
 22 23  2  0
 24 25  2  0
 14 26  1  0
 25 26  1  0
 26 27  2  0
 27 28  1  0
  1 29  1  0
 24 29  1  0
 28 29  2  0
 30 31  1  0
 31 32  1  0
 32 33  1  0
 33 34  1  0
 34 35  1  0
 30 36  1  0
 35 36  1  0
 28 37  1  0
 34 37  1  0
M  END
