x1077-x3110-x1493
     RDKit          3D

 47 51  0  0  0  0  0  0  0  0999 V2000
    7.9170    1.1330   23.3820 N   0  0  0  0  0  0  0  0  0  0  0  0
   13.3990    5.1810   22.7830 C   0  0  0  0  0  0  0  0  0  0  0  0
   11.8950    3.1530   22.5510 O   0  0  0  0  0  0  0  0  0  0  0  0
   12.3320    4.4070   22.0330 C   0  0  0  0  0  0  0  0  0  0  0  0
    6.7130   -1.3080   22.0400 N   0  0  0  0  0  0  0  0  0  0  0  0
   10.9810    4.2540   24.1430 O   0  0  0  0  0  0  0  0  0  0  0  0
   11.0540    3.2660   23.4260 C   0  0  0  0  0  0  0  0  0  0  0  0
    8.4540    0.9130   21.1220 O   0  0  0  0  0  0  0  0  0  0  0  0
   10.0840    2.0710   23.5450 C   0  0  0  0  0  0  0  0  0  0  0  0
    4.8400   -3.0210   21.2530 O   0  0  0  0  0  0  0  0  0  0  0  0
    8.7140    2.3700   23.4030 C   0  0  0  0  0  0  0  0  0  0  0  0
    7.6650    0.6260   22.0290 C   0  0  0  0  0  0  0  0  0  0  0  0
    6.4910   -0.1630   21.8010 C   0  0  1  0  0  0  0  0  0  0  0  0
    6.0990   -2.5100   21.4550 C   0  0  0  0  0  0  0  0  0  0  0  0
    7.2720   -3.2890   21.0510 C   0  0  2  0  0  0  0  0  0  0  0  0
    7.1740   -3.5130   19.5670 C   0  0  0  0  0  0  0  0  0  0  0  0
   12.3170   -1.7790   24.2250 C   0  0  0  0  0  0  0  0  0  0  0  0
   12.5730   -0.5820   24.8600 C   0  0  0  0  0  0  0  0  0  0  0  0
   13.2990   -1.8790   23.0280 C   0  0  0  0  0  0  0  0  0  0  0  0
   12.5500   -2.9360   24.9660 C   0  0  0  0  0  0  0  0  0  0  0  0
    4.8660   -5.0240   26.2500 C   0  0  0  0  0  0  0  0  0  0  0  0
    6.0040   -5.2420   25.4890 C   0  0  0  0  0  0  0  0  0  0  0  0
    6.4040    0.3560   17.8450 N   0  0  0  0  0  0  0  0  0  0  0  0
    5.2280    1.2600   17.8130 C   0  0  0  0  0  0  0  0  0  0  0  0
    4.5010    1.6600   18.9520 C   0  0  0  0  0  0  0  0  0  0  0  0
    4.9450    1.1490   20.3160 C   0  0  0  0  0  0  0  0  0  0  0  0
    6.1310    0.2450   20.3810 C   0  0  0  0  0  0  0  0  0  0  0  0
    6.8450   -0.1450   19.1330 C   0  0  0  0  0  0  0  0  0  0  0  0
    9.2420   -1.4510   21.8060 C   0  0  0  0  0  0  0  0  0  0  0  0
   10.6310   -1.5660   22.2800 C   0  0  0  0  0  0  0  0  0  0  0  0
   10.8860   -1.6980   23.6530 C   0  0  0  0  0  0  0  0  0  0  0  0
    9.7260   -1.7380   24.6130 C   0  0  0  0  0  0  0  0  0  0  0  0
    8.3110   -1.6220   24.1120 C   0  0  0  0  0  0  0  0  0  0  0  0
    8.0750   -1.4620   22.6250 C   0  0  0  0  0  0  0  0  0  0  0  0
    7.2590   -5.5160   25.7560 C   0  0  0  0  0  0  0  0  0  0  0  0
    7.6500   -5.6140   24.3020 C   0  0  2  0  0  0  0  0  0  0  0  0
    8.7160   -4.8420   23.9010 C   0  0  0  0  0  0  0  0  0  0  0  0
    9.8220   -4.8510   24.7460 C   0  0  0  0  0  0  0  0  0  0  0  0
    9.6240   -4.0870   25.9730 N   0  0  0  0  0  0  0  0  0  0  0  0
    9.0030   -4.6440   27.0470 C   0  0  0  0  0  0  0  0  0  0  0  0
    8.1330   -5.7100   26.8160 C   0  0  0  0  0  0  0  0  0  0  0  0
    6.3120   -5.2630   23.9780 C   0  0  2  0  0  0  0  0  0  0  0  0
    6.4490   -4.1330   23.2240 C   0  0  0  0  0  0  0  0  0  0  0  0
    7.1200   -4.4340   22.0250 C   0  0  1  0  0  0  0  0  0  0  0  0
    6.3140   -5.3680   21.2880 N   0  0  0  0  0  0  0  0  0  0  0  0
    5.9120   -6.5450   22.0240 C   0  0  0  0  0  0  0  0  0  0  0  0
    5.3880   -6.2410   23.2510 C   0  0  0  0  0  0  0  0  0  0  0  0
  2  4  1  0
  3  4  1  0
  3  7  1  0
  6  7  2  0
  7  9  1  0
  1 11  1  0
  9 11  1  0
  1 12  1  0
  8 12  2  0
  5 13  1  0
 13 12  1  6
  5 14  1  0
 10 14  2  0
 14 15  1  0
 15 16  1  6
 17 18  1  0
 17 19  1  0
 17 20  1  0
 21 22  1  0
 23 24  2  0
 24 25  1  0
 25 26  2  0
 13 27  1  0
 26 27  1  0
 23 28  1  0
 27 28  2  0
 29 30  2  0
 17 31  1  0
 30 31  1  0
 31 32  2  0
 32 33  1  0
  5 34  1  0
 29 34  1  0
 33 34  2  0
 22 35  2  0
 35 36  1  0
 36 37  1  1
 37 38  1  0
 38 39  1  0
 39 40  1  0
 35 41  1  0
 40 41  1  0
 42 22  1  0
 36 42  1  0
 42 43  1  6
 15 44  1  0
 44 43  1  1
 44 45  1  0
 45 46  1  0
 42 47  1  0
 46 47  1  0
M  END
