x1077-x3110-x1375
     RDKit          3D

 48 51  0  0  0  0  0  0  0  0999 V2000
    8.0670    1.3170   23.0230 N   0  0  0  0  0  0  0  0  0  0  0  0
   13.4150    5.1770   22.9130 C   0  0  0  0  0  0  0  0  0  0  0  0
   12.0290    3.2910   22.3800 O   0  0  0  0  0  0  0  0  0  0  0  0
   12.4750    4.5690   21.9040 C   0  0  0  0  0  0  0  0  0  0  0  0
    6.9180   -1.3240   21.6200 N   0  0  0  0  0  0  0  0  0  0  0  0
   11.0420    4.3160   24.1590 O   0  0  0  0  0  0  0  0  0  0  0  0
   11.1650    3.3530   23.4180 C   0  0  0  0  0  0  0  0  0  0  0  0
    8.6660    1.5870   20.8600 O   0  0  0  0  0  0  0  0  0  0  0  0
   10.3580    2.0900   23.5520 C   0  0  0  0  0  0  0  0  0  0  0  0
    5.0610   -3.3760   21.2520 O   0  0  0  0  0  0  0  0  0  0  0  0
    8.8720    2.4040   23.5420 C   0  0  0  0  0  0  0  0  0  0  0  0
    7.9010    1.0710   21.6650 C   0  0  0  0  0  0  0  0  0  0  0  0
    6.6590    0.1380   21.3840 C   0  0  1  0  0  0  0  0  0  0  0  0
    5.8140   -2.2920   21.4590 C   0  0  0  0  0  0  0  0  0  0  0  0
    7.0720   -3.1190   21.2310 C   0  0  2  0  0  0  0  0  0  0  0  0
    6.9040   -4.1690   20.1790 C   0  0  0  0  0  0  0  0  0  0  0  0
   12.1090   -1.8750   24.1640 C   0  0  0  0  0  0  0  0  0  0  0  0
   12.4010   -0.6440   25.0320 C   0  0  0  0  0  0  0  0  0  0  0  0
   13.2870   -2.0630   23.1770 C   0  0  0  0  0  0  0  0  0  0  0  0
   12.0330   -3.1020   25.0830 C   0  0  0  0  0  0  0  0  0  0  0  0
    9.5650   -5.2200   26.1570 F   0  0  0  0  0  0  0  0  0  0  0  0
    6.8090    0.4710   18.6320 N   0  0  0  0  0  0  0  0  0  0  0  0
    5.7260    0.9200   17.9690 C   0  0  0  0  0  0  0  0  0  0  0  0
    4.5780    1.1750   18.6370 C   0  0  0  0  0  0  0  0  0  0  0  0
    4.4030    1.0220   19.9650 C   0  0  0  0  0  0  0  0  0  0  0  0
    5.4290    0.5870   20.8200 C   0  0  0  0  0  0  0  0  0  0  0  0
    6.6470    0.3220   20.0210 C   0  0  0  0  0  0  0  0  0  0  0  0
    9.2910   -1.8920   21.6330 C   0  0  0  0  0  0  0  0  0  0  0  0
   10.5750   -2.0400   22.1820 C   0  0  0  0  0  0  0  0  0  0  0  0
   10.7330   -1.7340   23.5150 C   0  0  0  0  0  0  0  0  0  0  0  0
    9.6710   -1.3000   24.3100 C   0  0  0  0  0  0  0  0  0  0  0  0
    8.3800   -1.1610   23.7290 C   0  0  0  0  0  0  0  0  0  0  0  0
    8.1810   -1.4590   22.3580 C   0  0  0  0  0  0  0  0  0  0  0  0
    8.4380   -3.1300   23.5160 C   0  0  0  0  0  0  0  0  0  0  0  0
    9.0880   -3.3960   24.6910 C   0  0  0  0  0  0  0  0  0  0  0  0
    8.9880   -4.7180   25.0530 C   0  0  0  0  0  0  0  0  0  0  0  0
    8.2330   -5.5120   24.1410 C   0  0  0  0  0  0  0  0  0  0  0  0
    7.5810   -5.0810   22.9180 C   0  0  0  0  0  0  0  0  0  0  0  0
    7.6840   -3.7110   22.5400 C   0  0  0  0  0  0  0  0  0  0  0  0
    2.2880   -6.5660   24.5020 O   0  0  0  0  0  0  0  0  0  0  0  0
    4.3280   -7.8750   24.8460 O   0  0  0  0  0  0  0  0  0  0  0  0
    5.6410   -4.8070   24.4190 C   0  0  0  0  0  0  0  0  0  0  0  0
    5.4400   -5.7150   23.3270 C   0  0  0  0  0  0  0  0  0  0  0  0
    4.2160   -6.1360   22.8880 C   0  0  0  0  0  0  0  0  0  0  0  0
    3.7230   -6.6610   24.3760 S   0  0  0  0  0  0  0  0  0  0  0  0
    4.5700   -5.3160   25.1490 C   0  0  0  0  0  0  0  0  0  0  0  0
    8.0690   -4.5390   23.7900 C   0  0  0  0  0  0  0  0  0  0  0  0
    6.6540   -4.4780   23.5050 C   0  0  0  0  0  0  0  0  0  0  0  0
  2  4  1  0
  3  4  1  0
  3  7  1  0
  6  7  2  0
  7  9  1  0
  1 11  1  0
  9 11  1  0
  1 12  1  0
  8 12  2  0
  5 13  1  0
 13 12  1  6
  5 14  1  0
 10 14  2  0
 14 15  1  0
 15 16  1  6
 17 18  1  0
 17 19  1  0
 17 20  1  0
 22 23  2  0
 23 24  1  0
 24 25  2  0
 13 26  1  0
 25 26  1  0
 22 27  1  0
 26 27  2  0
 28 29  2  0
 17 30  1  0
 29 30  1  0
 30 31  2  0
 31 32  1  0
  5 33  1  0
 28 33  1  0
 32 33  2  0
 34 35  2  0
 21 36  1  0
 35 36  1  0
 36 37  2  0
 37 38  1  0
 15 39  1  0
 34 39  1  0
 38 39  2  0
 42 43  1  0
 43 44  1  0
 45 40  1  0
 41 45  1  0
 44 45  1  0
 42 46  2  0
 45 46  1  0
 34 47  1  0
 42 48  1  0
 47 48  1  0
M  END
