x1077-x2754-x2705
     RDKit          3D

 55 60  0  0  0  0  0  0  0  0999 V2000
    7.4600   -1.3480   21.6410 N   0  0  0  0  0  0  0  0  0  0  0  0
    7.4580    2.1650   22.7100 N   0  0  0  0  0  0  0  0  0  0  0  0
    9.0270    1.3270   21.0380 O   0  0  0  0  0  0  0  0  0  0  0  0
    6.9220    0.0490   21.5710 C   0  0  1  0  0  0  0  0  0  0  0  0
    7.8910    1.1890   21.7320 C   0  0  0  0  0  0  0  0  0  0  0  0
   10.2300    2.1700   23.9540 C   0  0  0  0  0  0  0  0  0  0  0  0
    9.4160    1.4070   24.8120 C   0  0  0  0  0  0  0  0  0  0  0  0
    6.1240    4.7930   21.8220 C   0  0  0  0  0  0  0  0  0  0  0  0
   12.2520   -1.3960   23.3700 C   0  0  0  0  0  0  0  0  0  0  0  0
   12.7190   -0.1610   23.8170 C   0  0  0  0  0  0  0  0  0  0  0  0
   12.8230   -2.4550   24.3500 C   0  0  0  0  0  0  0  0  0  0  0  0
   12.8830   -1.7020   21.9990 C   0  0  0  0  0  0  0  0  0  0  0  0
    4.4430   -3.0880   25.3530 C   0  0  0  0  0  0  0  0  0  0  0  0
    3.2670   -3.4100   25.5160 O   0  0  0  0  0  0  0  0  0  0  0  0
    5.2120   -2.6930   26.4020 N   0  0  0  0  0  0  0  0  0  0  0  0
    5.2920   -4.4820   19.8630 O   0  0  0  0  0  0  0  0  0  0  0  0
    6.2780   -3.8440   20.2160 C   0  0  0  0  0  0  0  0  0  0  0  0
    7.2240   -3.1730   19.2160 C   0  0  0  0  0  0  0  0  0  0  0  0
    4.6560   -2.0380   27.5660 C   0  0  0  0  0  0  0  0  0  0  0  0
    6.4100    0.1730   17.9570 N   0  0  0  0  0  0  0  0  0  0  0  0
    5.2520    0.9420   17.9250 C   0  0  0  0  0  0  0  0  0  0  0  0
    4.5750    1.4430   19.0230 C   0  0  0  0  0  0  0  0  0  0  0  0
    5.0960    1.1630   20.2740 C   0  0  0  0  0  0  0  0  0  0  0  0
    6.3680    0.3280   20.3630 C   0  0  0  0  0  0  0  0  0  0  0  0
    7.0180   -0.1680   19.2500 C   0  0  0  0  0  0  0  0  0  0  0  0
    9.8540   -1.1630   24.3820 N   0  0  0  0  0  0  0  0  0  0  0  0
    8.5940   -1.1630   23.8040 N   0  0  0  0  0  0  0  0  0  0  0  0
    8.7170   -1.3240   22.4670 C   0  0  0  0  0  0  0  0  0  0  0  0
   10.0130   -1.4330   22.1240 C   0  0  0  0  0  0  0  0  0  0  0  0
   10.7340   -1.3380   23.2610 C   0  0  0  0  0  0  0  0  0  0  0  0
    9.5080    3.4270   23.5110 C   0  0  0  0  0  0  0  0  0  0  0  0
   10.1490    4.6590   23.6790 C   0  0  0  0  0  0  0  0  0  0  0  0
    9.6110    5.8970   23.3080 C   0  0  0  0  0  0  0  0  0  0  0  0
    8.3650    5.9340   22.7350 C   0  0  0  0  0  0  0  0  0  0  0  0
    7.4890    4.7220   22.4600 C   0  0  0  0  0  0  0  0  0  0  0  0
    8.1040    3.3990   22.8800 C   0  0  0  0  0  0  0  0  0  0  0  0
    7.4110   -5.3670   25.9380 O   0  0  0  0  0  0  0  0  0  0  0  0
    7.3790   -5.2230   24.5270 C   0  0  0  0  0  0  0  0  0  0  0  0
    8.7410   -5.5120   23.9610 C   0  0  0  0  0  0  0  0  0  0  0  0
    9.7540   -5.6370   25.1020 C   0  0  0  0  0  0  0  0  0  0  0  0
   10.0780   -4.4800   25.9400 N   0  0  0  0  0  0  0  0  0  0  0  0
    9.2680   -4.5130   27.1900 C   0  0  0  0  0  0  0  0  0  0  0  0
    7.8390   -4.2660   26.7690 C   0  0  2  0  0  0  0  0  0  0  0  0
    6.5890   -3.7370   21.5770 N   0  0  0  0  0  0  0  0  0  0  0  0
    6.4790   -2.3840   22.1190 C   0  0  1  0  0  0  0  0  0  0  0  0
    6.2690   -2.3780   23.6120 C   0  0  0  0  0  0  0  0  0  0  0  0
    4.9850   -3.1450   23.8970 C   0  0  1  0  0  0  0  0  0  0  0  0
    5.1190   -4.5700   23.3330 C   0  0  0  0  0  0  0  0  0  0  0  0
    6.1230   -4.8720   22.3920 C   0  0  0  0  0  0  0  0  0  0  0  0
    6.6490   -4.3810   27.6170 C   0  0  0  0  0  0  0  0  0  0  0  0
    7.7610   -5.2600   28.0810 C   0  0  0  0  0  0  0  0  0  0  0  0
    8.9200   -4.9820   27.3400 C   0  0  0  0  0  0  0  0  0  0  0  0
    8.8070   -3.8500   26.2260 C   0  0  0  0  0  0  0  0  0  0  0  0
    7.5940   -3.1410   25.9500 C   0  0  0  0  0  0  0  0  0  0  0  0
    6.4080   -3.4060   26.6740 C   0  0  0  0  0  0  0  0  0  0  0  0
  1  4  1  0
  2  5  1  0
  3  5  2  0
  4  5  1  6
  6  7  1  0
  9 10  1  0
  9 11  1  0
  9 12  1  0
 13 14  2  0
 13 15  1  0
 16 17  2  0
 17 18  1  0
 15 19  1  0
 20 21  2  0
 21 22  1  0
 22 23  2  0
  4 24  1  0
 23 24  1  0
 20 25  1  0
 24 25  2  0
 26 27  1  0
  1 28  1  0
 27 28  1  0
 28 29  2  0
  9 30  1  0
 26 30  2  0
 29 30  1  0
  6 31  1  0
 31 32  2  0
 32 33  1  0
 33 34  2  0
  8 35  1  0
 34 35  1  0
  2 36  1  0
 31 36  1  0
 35 36  2  0
 37 38  1  0
 38 39  1  0
 39 40  1  0
 40 41  1  0
 41 42  1  0
 37 43  1  0
 42 43  1  0
 17 44  1  0
 45  1  1  1
 44 45  1  0
 45 46  1  0
 47 13  1  1
 46 47  1  0
 47 48  1  0
 44 49  1  0
 48 49  1  0
 43 50  1  1
 50 51  2  0
 51 52  1  0
 52 53  2  0
 53 54  1  0
 15 55  1  0
 50 55  1  0
 54 55  2  0
M  END
