x1077-x1382
     RDKit          3D

 24 25  0  0  0  0  0  0  0  0999 V2000
   13.5240   -2.6530   23.0880 Cl  0  0  0  0  0  0  0  0  0  0  0  0
    7.3270   -0.5460   21.9560 C   0  0  0  0  0  0  0  0  0  0  0  0
    8.3350   -1.6600   22.1010 C   0  0  1  0  0  0  0  0  0  0  0  0
    8.1080   -2.8430   21.1610 N   0  0  0  0  0  0  0  0  0  0  0  0
    7.2880   -3.1010   19.9430 C   0  0  0  0  0  0  0  0  0  0  0  0
    6.1510   -3.6510   19.7700 O   0  0  0  0  0  0  0  0  0  0  0  0
    7.8280   -2.9140   18.6060 C   0  0  0  0  0  0  0  0  0  0  0  0
    8.4040    2.2240   21.8760 N   0  0  0  0  0  0  0  0  0  0  0  0
    9.2350    1.1890   22.2310 C   0  0  0  0  0  0  0  0  0  0  0  0
    9.7950   -1.1830   22.3570 C   0  0  0  0  0  0  0  0  0  0  0  0
   10.8320   -2.0850   22.5470 C   0  0  0  0  0  0  0  0  0  0  0  0
   12.2670   -1.5790   22.8470 C   0  0  0  0  0  0  0  0  0  0  0  0
   12.5030   -0.2380   22.9240 C   0  0  0  0  0  0  0  0  0  0  0  0
   11.4700    0.6150   22.7230 C   0  0  0  0  0  0  0  0  0  0  0  0
   10.1610    0.1830   22.4400 C   0  0  0  0  0  0  0  0  0  0  0  0
    6.2570   -5.9060   25.2080 O   0  0  0  0  0  0  0  0  0  0  0  0
    6.5130   -5.8510   23.8520 C   0  0  0  0  0  0  0  0  0  0  0  0
    7.8560   -6.0200   23.5090 C   0  0  0  0  0  0  0  0  0  0  0  0
    8.6500   -5.6750   24.5800 C   0  0  0  0  0  0  0  0  0  0  0  0
    8.4860   -4.2440   24.6810 N   0  0  0  0  0  0  0  0  0  0  0  0
    7.2800   -3.8890   25.1280 C   0  0  0  0  0  0  0  0  0  0  0  0
    6.6250   -4.8150   25.9110 C   0  0  0  0  0  0  0  0  0  0  0  0
    7.9670   -2.2700   23.4670 C   0  0  0  0  0  0  0  0  0  0  0  0
    8.9130   -3.4570   23.7210 C   0  0  0  0  0  0  0  0  0  0  0  0
  3  2  1  6
  3  4  1  0
  4  5  1  0
  5  6  2  0
  5  7  1  0
  8  9  3  0
  3 10  1  0
 10 11  2  0
  1 12  1  0
 11 12  1  0
 12 13  2  0
 13 14  1  0
  9 15  1  0
 10 15  1  0
 14 15  2  0
 16 17  1  0
 17 18  1  0
 18 19  1  0
 19 20  1  0
 20 21  1  0
 16 22  1  0
 21 22  1  0
  3 23  1  0
 20 24  1  0
 23 24  1  0
M  END
