x1077-x1093
     RDKit          3D

 28 31  0  0  0  0  0  0  0  0999 V2000
   13.2680   -1.6710   23.7360 C   0  0  0  0  0  0  0  0  0  0  0  0
    9.0810    1.5380   21.2710 O   0  0  0  0  0  0  0  0  0  0  0  0
    9.1010    0.2830   21.8230 C   0  0  0  0  0  0  0  0  0  0  0  0
    8.2090   -0.8430   21.2240 C   0  0  0  0  0  0  0  0  0  0  0  0
   12.5960   -0.9590   22.7700 N   0  0  0  0  0  0  0  0  0  0  0  0
   12.3450    0.4310   23.2420 C   0  0  0  0  0  0  0  0  0  0  0  0
   11.0430    0.9400   23.1490 C   0  0  0  0  0  0  0  0  0  0  0  0
    9.8870   -0.0170   22.9300 N   0  0  0  0  0  0  0  0  0  0  0  0
   10.3970   -1.3180   23.3460 C   0  0  2  0  0  0  0  0  0  0  0  0
   11.4550   -1.7530   22.4130 C   0  0  0  0  0  0  0  0  0  0  0  0
    6.2790    0.0490   17.9490 N   0  0  0  0  0  0  0  0  0  0  0  0
    7.2900   -0.5850   18.6860 C   0  0  0  0  0  0  0  0  0  0  0  0
    7.1790   -0.2950   20.1470 C   0  0  0  0  0  0  0  0  0  0  0  0
    5.9370    0.5590   20.2160 C   0  0  0  0  0  0  0  0  0  0  0  0
    5.5240    0.7100   18.8920 C   0  0  0  0  0  0  0  0  0  0  0  0
    4.4230    1.4870   18.6210 N   0  0  0  0  0  0  0  0  0  0  0  0
    3.7320    2.0080   19.6600 C   0  0  0  0  0  0  0  0  0  0  0  0
    4.1040    1.8490   20.9720 C   0  0  0  0  0  0  0  0  0  0  0  0
    5.2490    1.1150   21.2320 C   0  0  0  0  0  0  0  0  0  0  0  0
    6.6760   -5.5810   25.4970 O   0  0  0  0  0  0  0  0  0  0  0  0
    7.0280   -5.4080   24.1070 C   0  0  0  0  0  0  0  0  0  0  0  0
    8.4760   -5.7320   23.7160 C   0  0  0  0  0  0  0  0  0  0  0  0
    9.5020   -5.2340   24.7180 C   0  0  0  0  0  0  0  0  0  0  0  0
    8.9600   -4.1100   25.2460 N   0  0  0  0  0  0  0  0  0  0  0  0
    8.5360   -4.2200   26.5340 C   0  0  0  0  0  0  0  0  0  0  0  0
    7.6860   -5.5130   26.5320 C   0  0  0  0  0  0  0  0  0  0  0  0
    9.3720   -2.3910   23.6690 C   0  0  0  0  0  0  0  0  0  0  0  0
    9.7230   -2.9220   24.9180 C   0  0  0  0  0  0  0  0  0  0  0  0
  2  3  2  0
  3  4  1  0
  1  5  1  0
  5  6  1  0
  6  7  1  0
  3  8  1  0
  7  8  1  0
  8  9  1  0
  5 10  1  0
  9 10  1  0
 11 12  1  0
  4 13  1  0
 12 13  2  0
 13 14  1  0
 11 15  2  0
 14 15  1  0
 15 16  1  0
 16 17  1  0
 17 18  2  0
 14 19  2  0
 18 19  1  0
 20 21  1  0
 21 22  1  0
 22 23  1  0
 23 24  1  0
 24 25  1  0
 20 26  1  0
 25 26  1  0
  9 27  1  6
 24 28  1  0
 27 28  1  0
M  END
