x1077-x2703
     RDKit          3D

 41 44  0  0  0  0  0  0  0  0999 V2000
    6.9630   -1.6480   21.7700 N   0  0  0  0  0  0  0  0  0  0  0  0
    6.8550   -4.8160   20.3430 C   0  0  0  0  0  0  0  0  0  0  0  0
    4.8470   -3.0410   21.2330 O   0  0  0  0  0  0  0  0  0  0  0  0
    6.8940   -4.1240   21.6850 C   0  0  0  0  0  0  0  0  0  0  0  0
    7.3150    1.7930   22.7710 N   0  0  0  0  0  0  0  0  0  0  0  0
    8.7770    0.6650   21.4600 O   0  0  0  0  0  0  0  0  0  0  0  0
    6.1260   -2.8600   21.5440 C   0  0  0  0  0  0  0  0  0  0  0  0
    6.6510   -0.1910   21.5750 C   0  0  1  0  0  0  0  0  0  0  0  0
    7.6390    0.7320   21.9280 C   0  0  0  0  0  0  0  0  0  0  0  0
   10.0430    1.8610   24.0110 C   0  0  0  0  0  0  0  0  0  0  0  0
    9.2190    1.0880   25.0360 C   0  0  0  0  0  0  0  0  0  0  0  0
    6.0530    4.2230   21.7740 C   0  0  0  0  0  0  0  0  0  0  0  0
   12.1540   -1.8410   23.6480 C   0  0  0  0  0  0  0  0  0  0  0  0
   12.4210   -2.9640   24.6820 C   0  0  0  0  0  0  0  0  0  0  0  0
   12.5580   -0.5260   24.3580 C   0  0  0  0  0  0  0  0  0  0  0  0
    6.3160    0.4400   17.7830 N   0  0  0  0  0  0  0  0  0  0  0  0
    5.1600    1.1260   17.8260 C   0  0  0  0  0  0  0  0  0  0  0  0
    4.4280    1.4050   18.9780 C   0  0  0  0  0  0  0  0  0  0  0  0
    4.8800    0.9770   20.2190 C   0  0  0  0  0  0  0  0  0  0  0  0
    6.0640    0.2760   20.2660 C   0  0  0  0  0  0  0  0  0  0  0  0
    6.7860    0.0060   18.9510 C   0  0  0  0  0  0  0  0  0  0  0  0
   10.7690   -1.4790   22.1180 N   0  0  0  0  0  0  0  0  0  0  0  0
   10.6980   -1.8160   23.1470 C   0  0  0  0  0  0  0  0  0  0  0  0
    9.8370   -2.2530   24.2660 C   0  0  0  0  0  0  0  0  0  0  0  0
    8.2820   -2.3050   23.9990 C   0  0  0  0  0  0  0  0  0  0  0  0
    8.2870   -1.8010   22.4820 C   0  0  0  0  0  0  0  0  0  0  0  0
    9.4690   -1.4520   21.7160 C   0  0  0  0  0  0  0  0  0  0  0  0
    9.3340    3.0910   23.4810 C   0  0  0  0  0  0  0  0  0  0  0  0
   10.0230    4.3220   23.5960 C   0  0  0  0  0  0  0  0  0  0  0  0
    9.4760    5.5200   23.1460 C   0  0  0  0  0  0  0  0  0  0  0  0
    8.1480    5.5540   22.5250 C   0  0  0  0  0  0  0  0  0  0  0  0
    7.4210    4.2140   22.4100 C   0  0  0  0  0  0  0  0  0  0  0  0
    8.0380    3.0250   22.8950 C   0  0  0  0  0  0  0  0  0  0  0  0
    6.8990   -5.8190   25.6420 O   0  0  0  0  0  0  0  0  0  0  0  0
    7.0940   -5.2740   24.3380 C   0  0  0  0  0  0  0  0  0  0  0  0
    8.4810   -5.5350   23.7410 C   0  0  0  0  0  0  0  0  0  0  0  0
    9.6440   -4.8700   24.4750 C   0  0  0  0  0  0  0  0  0  0  0  0
    9.3590   -3.9980   25.6180 N   0  0  0  0  0  0  0  0  0  0  0  0
    8.8000   -4.7320   26.7480 C   0  0  0  0  0  0  0  0  0  0  0  0
    7.2950   -4.9850   26.7290 C   0  0  0  0  0  0  0  0  0  0  0  0
    8.5970   -2.7440   25.3960 C   0  0  0  0  0  0  0  0  0  0  0  0
  2  4  1  0
  1  7  1  0
  3  7  2  0
  4  7  1  0
  1  8  1  0
  5  9  1  0
  6  9  2  0
  8  9  1  6
 10 11  1  0
 13 14  1  0
 13 15  1  0
 16 17  2  0
 17 18  1  0
 18 19  2  0
  8 20  1  0
 19 20  1  0
 16 21  1  0
 20 21  2  0
 13 23  1  0
 22 23  2  0
 23 24  1  0
 24 25  2  0
  1 26  1  0
 25 26  1  0
 22 27  1  0
 26 27  2  0
 10 28  1  0
 28 29  2  0
 29 30  1  0
 30 31  2  0
 12 32  1  0
 31 32  1  0
  5 33  1  0
 28 33  1  0
 32 33  2  0
 34 35  1  0
 35 36  1  0
 36 37  1  0
 37 38  1  0
 38 39  1  0
 34 40  1  0
 39 40  1  0
 25 41  1  0
 38 41  1  0
M  END
