x1077-x3110-x2754
     RDKit          3D

 54 58  0  0  0  0  0  0  0  0999 V2000
    7.9570    0.8650   22.8660 N   0  0  0  0  0  0  0  0  0  0  0  0
   13.3370    5.1110   22.8420 C   0  0  0  0  0  0  0  0  0  0  0  0
   11.9470    3.1280   22.4920 O   0  0  0  0  0  0  0  0  0  0  0  0
   12.2760    4.4280   21.9800 C   0  0  0  0  0  0  0  0  0  0  0  0
    7.0090   -1.7190   21.6870 N   0  0  0  0  0  0  0  0  0  0  0  0
   10.7050    4.1020   24.1600 O   0  0  0  0  0  0  0  0  0  0  0  0
   10.8960    3.1210   23.4410 C   0  0  0  0  0  0  0  0  0  0  0  0
    8.2250    1.2470   20.6610 O   0  0  0  0  0  0  0  0  0  0  0  0
   10.1450    1.9310   23.4520 C   0  0  0  0  0  0  0  0  0  0  0  0
    5.0000   -3.1440   20.8980 O   0  0  0  0  0  0  0  0  0  0  0  0
    8.6130    2.0700   23.2220 C   0  0  0  0  0  0  0  0  0  0  0  0
    7.6320    0.5550   21.5050 C   0  0  0  0  0  0  0  0  0  0  0  0
    6.6560   -0.4550   21.0410 C   0  0  1  0  0  0  0  0  0  0  0  0
    6.2350   -2.9620   21.3780 C   0  0  0  0  0  0  0  0  0  0  0  0
    8.1920   -4.6190   21.2050 C   0  0  0  0  0  0  0  0  0  0  0  0
   12.2340   -1.9290   24.2120 C   0  0  0  0  0  0  0  0  0  0  0  0
   12.7100   -0.5600   24.6490 C   0  0  0  0  0  0  0  0  0  0  0  0
   13.3180   -1.4090   23.3450 C   0  0  0  0  0  0  0  0  0  0  0  0
   12.7680   -3.0350   25.1420 C   0  0  0  0  0  0  0  0  0  0  0  0
    4.3810   -3.3160   25.1250 C   0  0  0  0  0  0  0  0  0  0  0  0
    3.1610   -3.2500   25.1440 O   0  0  0  0  0  0  0  0  0  0  0  0
    5.1230   -3.1480   26.3450 N   0  0  0  0  0  0  0  0  0  0  0  0
    4.7660   -2.1340   27.1610 C   0  0  0  0  0  0  0  0  0  0  0  0
    6.3710    0.7600   17.6500 N   0  0  0  0  0  0  0  0  0  0  0  0
    5.2190    1.6710   17.6790 C   0  0  0  0  0  0  0  0  0  0  0  0
    4.5560    1.8210   19.0400 C   0  0  0  0  0  0  0  0  0  0  0  0
    5.0840    1.1070   20.0790 C   0  0  0  0  0  0  0  0  0  0  0  0
    6.1630    0.2750   19.9580 C   0  0  0  0  0  0  0  0  0  0  0  0
    6.8040    0.1030   18.7400 C   0  0  0  0  0  0  0  0  0  0  0  0
    9.4740   -1.3840   21.6970 C   0  0  0  0  0  0  0  0  0  0  0  0
   10.7240   -1.4570   22.3390 C   0  0  0  0  0  0  0  0  0  0  0  0
   10.8590   -1.9180   23.6410 C   0  0  0  0  0  0  0  0  0  0  0  0
    9.7320   -2.3110   24.2960 C   0  0  0  0  0  0  0  0  0  0  0  0
    8.5190   -2.2240   23.6200 C   0  0  0  0  0  0  0  0  0  0  0  0
    8.3080   -1.7740   22.3170 C   0  0  0  0  0  0  0  0  0  0  0  0
    7.5220   -4.2610   25.3380 O   0  0  0  0  0  0  0  0  0  0  0  0
    7.5260   -5.5560   24.7720 C   0  0  0  0  0  0  0  0  0  0  0  0
    8.6430   -5.6670   23.9740 C   0  0  0  0  0  0  0  0  0  0  0  0
    9.7340   -5.7670   24.8040 C   0  0  0  0  0  0  0  0  0  0  0  0
    9.9610   -4.6250   25.6530 N   0  0  0  0  0  0  0  0  0  0  0  0
    9.1830   -4.7570   26.9070 C   0  0  0  0  0  0  0  0  0  0  0  0
    7.9390   -4.1710   26.7220 C   0  0  2  0  0  0  0  0  0  0  0  0
    7.0130   -4.1830   21.8010 C   0  0  1  0  0  0  0  0  0  0  0  0
    7.3370   -3.5460   23.1510 C   0  0  0  0  0  0  0  0  0  0  0  0
    6.2360   -2.8370   23.6170 C   0  0  0  0  0  0  0  0  0  0  0  0
    5.0950   -3.5680   23.7390 C   0  0  1  0  0  0  0  0  0  0  0  0
    5.1340   -4.9550   23.4800 C   0  0  0  0  0  0  0  0  0  0  0  0
    5.9420   -5.2550   22.1550 C   0  0  0  0  0  0  0  0  0  0  0  0
    6.7900   -4.8380   27.4060 C   0  0  0  0  0  0  0  0  0  0  0  0
    7.9900   -5.5760   27.8310 C   0  0  0  0  0  0  0  0  0  0  0  0
    9.1830   -4.8530   27.2150 C   0  0  0  0  0  0  0  0  0  0  0  0
    8.9070   -3.5800   26.3220 C   0  0  0  0  0  0  0  0  0  0  0  0
    7.5350   -3.1300   26.1130 C   0  0  0  0  0  0  0  0  0  0  0  0
    6.3940   -3.7690   26.6650 C   0  0  0  0  0  0  0  0  0  0  0  0
  2  4  1  0
  3  4  1  0
  3  7  1  0
  6  7  2  0
  7  9  1  0
  1 11  1  0
  9 11  1  0
  1 12  1  0
  8 12  2  0
  5 13  1  0
 13 12  1  6
  5 14  1  0
 10 14  2  0
 16 17  1  0
 16 18  1  0
 16 19  1  0
 20 21  2  0
 20 22  1  0
 22 23  1  0
 24 25  2  0
 25 26  1  0
 26 27  2  0
 13 28  1  0
 27 28  1  0
 24 29  1  0
 28 29  2  0
 30 31  2  0
 16 32  1  0
 31 32  1  0
 32 33  2  0
 33 34  1  0
  5 35  1  0
 30 35  1  0
 34 35  2  0
 36 37  1  0
 37 38  1  0
 38 39  1  0
 39 40  1  0
 40 41  1  0
 36 42  1  0
 41 42  1  0
 43 14  1  0
 43 15  1  6
 43 44  1  0
 44 45  1  0
 46 20  1  1
 45 46  1  0
 46 47  1  0
 43 48  1  0
 47 48  1  0
 42 49  1  1
 49 50  2  0
 50 51  1  0
 51 52  2  0
 52 53  1  0
 22 54  1  0
 49 54  1  0
 53 54  2  0
M  END
