x1077-x2764
     RDKit          3D

 31 33  0  0  0  0  0  0  0  0999 V2000
    8.6400   -0.9680   21.4760 N   0  0  0  0  0  0  0  0  0  0  0  0
    7.3190   -1.2940   21.1040 C   0  0  0  0  0  0  0  0  0  0  0  0
    6.6740   -2.2910   21.4150 O   0  0  0  0  0  0  0  0  0  0  0  0
    9.0180   -1.7020   22.5800 C   0  0  2  0  0  0  0  0  0  0  0  0
    6.4670    1.3720   21.9740 O   0  0  0  0  0  0  0  0  0  0  0  0
    7.4590    4.6960   22.6910 N   0  0  0  0  0  0  0  0  0  0  0  0
    7.4970    1.9970   22.2330 C   0  0  0  0  0  0  0  0  0  0  0  0
    7.4360    3.3690   22.4570 C   0  0  0  0  0  0  0  0  0  0  0  0
   12.9180   -1.5920   22.5810 N   0  0  0  0  0  0  0  0  0  0  0  0
   11.5580   -1.7390   21.9380 C   0  0  0  0  0  0  0  0  0  0  0  0
   10.5060   -1.6060   22.8800 C   0  0  0  0  0  0  0  0  0  0  0  0
   10.9250   -1.3770   24.1860 C   0  0  0  0  0  0  0  0  0  0  0  0
   12.6260   -1.3310   24.2010 S   0  0  0  0  0  0  0  0  0  0  0  0
    6.3620   -0.6290   18.9000 C   0  0  0  0  0  0  0  0  0  0  0  0
    5.7150    0.2510   18.0440 C   0  0  0  0  0  0  0  0  0  0  0  0
    5.3130    1.4970   18.4720 C   0  0  0  0  0  0  0  0  0  0  0  0
    5.5600    1.8840   19.7850 C   0  0  0  0  0  0  0  0  0  0  0  0
    6.2070    1.0230   20.6720 C   0  0  0  0  0  0  0  0  0  0  0  0
    6.6130   -0.2560   20.2240 C   0  0  0  0  0  0  0  0  0  0  0  0
   11.0400    1.1130   22.7000 N   0  0  0  0  0  0  0  0  0  0  0  0
   10.0410    0.7700   22.2550 C   0  0  0  0  0  0  0  0  0  0  0  0
    8.8340    0.4400   21.6960 C   0  0  0  0  0  0  0  0  0  0  0  0
    6.3030   -5.9680   24.5600 O   0  0  0  0  0  0  0  0  0  0  0  0
    6.7610   -5.9960   23.2180 C   0  0  0  0  0  0  0  0  0  0  0  0
    8.1140   -6.2820   23.2130 C   0  0  0  0  0  0  0  0  0  0  0  0
    8.8540   -5.6580   24.4200 C   0  0  0  0  0  0  0  0  0  0  0  0
    8.4200   -4.4430   24.6610 N   0  0  0  0  0  0  0  0  0  0  0  0
    7.3490   -4.2480   25.4610 C   0  0  0  0  0  0  0  0  0  0  0  0
    6.1230   -4.6640   25.0560 C   0  0  0  0  0  0  0  0  0  0  0  0
    8.6310   -3.1600   22.6870 C   0  0  0  0  0  0  0  0  0  0  0  0
    8.9560   -3.4300   24.0050 C   0  0  0  0  0  0  0  0  0  0  0  0
  1  2  1  0
  2  3  2  0
  1  4  1  0
  5  7  1  0
  6  8  3  0
  7  8  1  0
  9 10  2  0
  4 11  1  0
 10 11  1  0
 11 12  2  0
  9 13  1  0
 12 13  1  0
 14 15  2  0
 15 16  1  0
 16 17  2  0
  5 18  1  0
 17 18  1  0
  2 19  1  0
 14 19  1  0
 18 19  2  0
 20 21  3  0
  1 22  1  0
 21 22  1  0
 23 24  1  0
 24 25  1  0
 25 26  1  0
 26 27  1  0
 27 28  1  0
 23 29  1  0
 28 29  1  0
  4 30  1  6
 27 31  1  0
 30 31  1  0
M  END
