x1077-x3110-x0978
     RDKit          3D

 51 53  0  0  0  0  0  0  0  0999 V2000
    7.9800    0.8060   23.3180 N   0  0  0  0  0  0  0  0  0  0  0  0
   13.3780    5.1440   22.7800 C   0  0  0  0  0  0  0  0  0  0  0  0
   11.8680    3.1020   22.5830 O   0  0  0  0  0  0  0  0  0  0  0  0
   12.2770    4.3730   22.0720 C   0  0  0  0  0  0  0  0  0  0  0  0
    7.0660   -1.7080   21.6020 N   0  0  0  0  0  0  0  0  0  0  0  0
   10.8270    4.1690   24.1200 O   0  0  0  0  0  0  0  0  0  0  0  0
   10.9840    3.1750   23.4240 C   0  0  0  0  0  0  0  0  0  0  0  0
    8.5640    0.7820   21.0810 O   0  0  0  0  0  0  0  0  0  0  0  0
   10.0840    1.9160   23.5310 C   0  0  0  0  0  0  0  0  0  0  0  0
    4.9220   -3.0550   20.9670 O   0  0  0  0  0  0  0  0  0  0  0  0
    8.6880    2.1070   23.4100 C   0  0  0  0  0  0  0  0  0  0  0  0
    7.7950    0.3450   21.9320 C   0  0  0  0  0  0  0  0  0  0  0  0
    6.7020   -0.5340   21.5780 C   0  0  1  0  0  0  0  0  0  0  0  0
    6.1640   -2.9340   21.4100 C   0  0  0  0  0  0  0  0  0  0  0  0
    6.7120   -4.2940   21.8190 C   0  0  2  0  0  0  0  0  0  0  0  0
    8.1170   -4.7210   21.2230 C   0  0  0  0  0  0  0  0  0  0  0  0
   12.2680   -1.8230   24.2150 C   0  0  0  0  0  0  0  0  0  0  0  0
   12.3370   -0.6270   24.9080 C   0  0  0  0  0  0  0  0  0  0  0  0
   13.3390   -1.7680   23.1000 C   0  0  0  0  0  0  0  0  0  0  0  0
   12.5730   -2.9850   24.9340 C   0  0  0  0  0  0  0  0  0  0  0  0
    2.1760   -5.4720   23.1190 N   0  0  0  0  0  0  0  0  0  0  0  0
    2.3640   -7.7800   24.5310 C   0  0  0  0  0  0  0  0  0  0  0  0
    4.6380   -7.8280   24.1140 O   0  0  0  0  0  0  0  0  0  0  0  0
    3.5140   -7.0220   24.3220 C   0  0  1  0  0  0  0  0  0  0  0  0
    5.5850   -5.2320   21.8970 N   0  0  0  0  0  0  0  0  0  0  0  0
    0.9460   -7.4300   22.0100 O   0  0  0  0  0  0  0  0  0  0  0  0
    3.4490   -6.2170   23.1730 C   0  0  2  0  0  0  0  0  0  0  0  0
    4.6120   -4.1990   23.7790 O   0  0  0  0  0  0  0  0  0  0  0  0
    0.9640   -6.1520   22.5900 C   0  0  0  0  0  0  0  0  0  0  0  0
   -0.4080   -5.4890   22.6160 C   0  0  0  0  0  0  0  0  0  0  0  0
    4.5670   -5.1470   23.0060 C   0  0  0  0  0  0  0  0  0  0  0  0
    6.3940    0.3030   17.8480 N   0  0  0  0  0  0  0  0  0  0  0  0
    5.2830    1.0460   17.8890 C   0  0  0  0  0  0  0  0  0  0  0  0
    4.4730    1.3590   19.1280 C   0  0  0  0  0  0  0  0  0  0  0  0
    4.9610    0.8060   20.3690 C   0  0  0  0  0  0  0  0  0  0  0  0
    6.1220    0.0390   20.3210 C   0  0  0  0  0  0  0  0  0  0  0  0
    6.8280   -0.2010   19.0080 C   0  0  0  0  0  0  0  0  0  0  0  0
    9.4300   -1.4540   21.7040 C   0  0  0  0  0  0  0  0  0  0  0  0
   10.8280   -1.4330   22.2290 C   0  0  0  0  0  0  0  0  0  0  0  0
   10.8950   -1.8180   23.5080 C   0  0  0  0  0  0  0  0  0  0  0  0
    9.6360   -2.2260   24.2360 C   0  0  0  0  0  0  0  0  0  0  0  0
    8.2320   -2.2950   23.8210 C   0  0  0  0  0  0  0  0  0  0  0  0
    8.2860   -1.8390   22.4240 C   0  0  0  0  0  0  0  0  0  0  0  0
    7.2550   -5.8070   25.6240 O   0  0  0  0  0  0  0  0  0  0  0  0
    7.4640   -5.3690   24.2870 C   0  0  0  0  0  0  0  0  0  0  0  0
    8.7320   -5.5790   23.7400 C   0  0  0  0  0  0  0  0  0  0  0  0
    9.7470   -4.8910   24.3680 C   0  0  0  0  0  0  0  0  0  0  0  0
    9.4030   -3.9800   25.4690 N   0  0  0  0  0  0  0  0  0  0  0  0
    8.9440   -4.6630   26.6790 C   0  0  0  0  0  0  0  0  0  0  0  0
    7.5740   -4.8890   26.6640 C   0  0  0  0  0  0  0  0  0  0  0  0
    8.7170   -2.6790   25.2280 C   0  0  0  0  0  0  0  0  0  0  0  0
  2  4  1  0
  3  4  1  0
  3  7  1  0
  6  7  2  0
  7  9  1  0
  1 11  1  0
  9 11  1  0
  1 12  1  0
  8 12  2  0
  5 13  1  0
 13 12  1  6
  5 14  1  0
 10 14  2  0
 14 15  1  0
 15 16  1  6
 17 18  1  0
 17 19  1  0
 17 20  1  0
 24 22  1  6
 23 24  1  0
 15 25  1  0
 27 21  1  1
 24 27  1  0
 21 29  1  0
 26 29  2  0
 29 30  1  0
 25 31  1  0
 27 31  1  0
 28 31  2  0
 32 33  2  0
 33 34  1  0
 34 35  2  0
 13 36  1  0
 35 36  1  0
 32 37  1  0
 36 37  2  0
 38 39  2  0
 17 40  1  0
 39 40  1  0
 40 41  2  0
 41 42  1  0
  5 43  1  0
 38 43  1  0
 42 43  2  0
 44 45  1  0
 45 46  1  0
 46 47  1  0
 47 48  1  0
 48 49  1  0
 44 50  1  0
 49 50  1  0
 42 51  1  0
 48 51  1  0
M  END
