x1077-x3117
     RDKit          3D

 40 43  0  0  0  0  0  0  0  0999 V2000
    6.8750   -1.5710   22.0320 N   0  0  0  0  0  0  0  0  0  0  0  0
    7.1700   -3.5020   19.6390 C   0  0  0  0  0  0  0  0  0  0  0  0
    4.8110   -3.0830   21.4420 O   0  0  0  0  0  0  0  0  0  0  0  0
    7.0660   -3.7820   21.1160 C   0  0  0  0  0  0  0  0  0  0  0  0
    7.5140    1.6560   23.1490 N   0  0  0  0  0  0  0  0  0  0  0  0
    8.7740    0.8310   21.4050 O   0  0  0  0  0  0  0  0  0  0  0  0
    6.1130   -2.7550   21.5670 C   0  0  0  0  0  0  0  0  0  0  0  0
    6.5950   -0.0980   21.7520 C   0  0  1  0  0  0  0  0  0  0  0  0
    7.7220    0.7870   22.0520 C   0  0  0  0  0  0  0  0  0  0  0  0
   12.3070   -1.7270   24.1210 C   0  0  0  0  0  0  0  0  0  0  0  0
   12.4670   -0.5700   24.8710 C   0  0  0  0  0  0  0  0  0  0  0  0
   13.2900   -1.7430   22.9590 C   0  0  0  0  0  0  0  0  0  0  0  0
   12.7090   -2.9050   25.0280 C   0  0  0  0  0  0  0  0  0  0  0  0
    6.3550    0.2720   17.9360 N   0  0  0  0  0  0  0  0  0  0  0  0
    5.2570    1.0360   17.8590 C   0  0  0  0  0  0  0  0  0  0  0  0
    4.5590    1.4410   18.9840 C   0  0  0  0  0  0  0  0  0  0  0  0
    4.9670    1.0800   20.2630 C   0  0  0  0  0  0  0  0  0  0  0  0
    6.1120    0.2900   20.3780 C   0  0  0  0  0  0  0  0  0  0  0  0
    6.7700   -0.0940   19.2140 C   0  0  0  0  0  0  0  0  0  0  0  0
    9.7980    4.9110   24.0380 O   0  0  0  0  0  0  0  0  0  0  0  0
   10.4910    3.7580   23.5410 C   0  0  0  0  0  0  0  0  0  0  0  0
    9.7060    2.5860   23.6000 C   0  0  0  0  0  0  0  0  0  0  0  0
    8.3460    2.8780   23.5100 C   0  0  0  0  0  0  0  0  0  0  0  0
    8.0140    4.1060   22.5960 C   0  0  0  0  0  0  0  0  0  0  0  0
    8.7830    5.3330   23.1240 C   0  0  0  0  0  0  0  0  0  0  0  0
    9.3200   -1.4840   21.6690 C   0  0  0  0  0  0  0  0  0  0  0  0
   10.6130   -1.5260   22.1970 C   0  0  0  0  0  0  0  0  0  0  0  0
   10.8790   -1.7130   23.5870 C   0  0  0  0  0  0  0  0  0  0  0  0
    9.9850   -1.8960   24.6640 C   0  0  0  0  0  0  0  0  0  0  0  0
    8.6290   -1.8210   23.8590 C   0  0  0  0  0  0  0  0  0  0  0  0
    8.2670   -1.6320   22.5170 C   0  0  0  0  0  0  0  0  0  0  0  0
    7.0070   -5.7970   25.6590 O   0  0  0  0  0  0  0  0  0  0  0  0
    7.3590   -5.3520   24.3430 C   0  0  0  0  0  0  0  0  0  0  0  0
    8.7000   -5.5180   24.0130 C   0  0  0  0  0  0  0  0  0  0  0  0
    9.4710   -4.4530   24.3210 C   0  0  0  0  0  0  0  0  0  0  0  0
    9.0370   -3.8750   25.6050 N   0  0  0  0  0  0  0  0  0  0  0  0
    9.0250   -4.8620   26.5960 C   0  0  0  0  0  0  0  0  0  0  0  0
    7.7080   -5.2700   26.7980 C   0  0  0  0  0  0  0  0  0  0  0  0
    7.5530   -2.0050   24.8460 C   0  0  0  0  0  0  0  0  0  0  0  0
    7.7140   -3.1630   25.5980 C   0  0  0  0  0  0  0  0  0  0  0  0
  2  4  1  0
  1  7  1  0
  3  7  2  0
  4  7  1  0
  1  8  1  0
  5  9  1  0
  6  9  2  0
  8  9  1  6
 10 11  1  0
 10 12  1  0
 10 13  1  0
 14 15  2  0
 15 16  1  0
 16 17  2  0
  8 18  1  0
 17 18  1  0
 14 19  1  0
 18 19  2  0
 20 21  1  0
 21 22  1  0
  5 23  1  0
 22 23  1  0
 23 24  1  0
 20 25  1  0
 24 25  1  0
 26 27  2  0
 10 28  1  0
 27 28  1  0
 28 29  2  0
 29 30  1  0
  1 31  1  0
 26 31  1  0
 30 31  2  0
 32 33  1  0
 33 34  1  0
 34 35  1  0
 35 36  1  0
 36 37  1  0
 32 38  1  0
 37 38  1  0
 30 39  1  0
 36 40  1  0
 39 40  1  0
M  END
