x1077-x0759
     RDKit          3D

 26 28  0  0  0  0  0  0  0  0999 V2000
    5.4080   -4.1940   19.7780 O   0  0  0  0  0  0  0  0  0  0  0  0
    6.3660   -3.4660   20.0700 C   0  0  0  0  0  0  0  0  0  0  0  0
    7.3680   -3.0670   18.9780 C   0  0  0  0  0  0  0  0  0  0  0  0
   13.4150    0.4130   23.1190 F   0  0  0  0  0  0  0  0  0  0  0  0
    6.5440   -3.0370   21.3860 N   0  0  0  0  0  0  0  0  0  0  0  0
    7.6320   -2.0820   21.6470 C   0  0  0  0  0  0  0  0  0  0  0  0
    8.2980   -2.3620   22.8640 C   0  0  1  0  0  0  0  0  0  0  0  0
    8.5570   -3.5580   23.0160 O   0  0  0  0  0  0  0  0  0  0  0  0
    7.6460   -4.3770   22.8360 C   0  0  2  0  0  0  0  0  0  0  0  0
    6.3630   -3.9380   22.5060 C   0  0  0  0  0  0  0  0  0  0  0  0
    9.8000   -0.4260   24.0010 C   0  0  0  0  0  0  0  0  0  0  0  0
   11.2130    0.3040   24.0260 C   0  0  0  0  0  0  0  0  0  0  0  0
   12.2050   -0.1190   23.1660 C   0  0  0  0  0  0  0  0  0  0  0  0
   11.7470   -1.1450   22.4150 C   0  0  0  0  0  0  0  0  0  0  0  0
   10.6840   -1.9530   22.1390 C   0  0  0  0  0  0  0  0  0  0  0  0
    9.5980   -1.6110   22.9710 C   0  0  0  0  0  0  0  0  0  0  0  0
    6.8900   -5.2130   25.1030 O   0  0  0  0  0  0  0  0  0  0  0  0
    7.7280   -5.4500   23.9560 C   0  0  2  0  0  0  0  0  0  0  0  0
    9.0680   -5.7320   24.1750 C   0  0  0  0  0  0  0  0  0  0  0  0
    9.6030   -5.5020   25.4260 C   0  0  0  0  0  0  0  0  0  0  0  0
    9.4530   -4.1330   25.9150 N   0  0  0  0  0  0  0  0  0  0  0  0
    8.2310   -3.9770   26.6750 C   0  0  0  0  0  0  0  0  0  0  0  0
    7.3210   -5.0030   26.4480 C   0  0  0  0  0  0  0  0  0  0  0  0
    9.6390    1.4220   22.0920 N   0  0  0  0  0  0  0  0  0  0  0  0
    9.6540    0.0870   22.2970 C   0  0  0  0  0  0  0  0  0  0  0  0
   10.6050   -0.6980   23.2630 C   0  0  0  0  0  0  0  0  0  0  0  0
  1  2  2  0
  2  3  1  0
  2  5  1  0
  5  6  1  0
  6  7  1  0
  7  8  1  0
  8  9  1  0
  5 10  1  0
  9 10  1  1
 11 12  2  0
  4 13  1  0
 12 13  1  0
 13 14  2  0
 14 15  1  0
  7 16  1  6
 11 16  1  0
 15 16  2  0
  9 18  1  0
 17 18  1  0
 18 19  1  1
 19 20  1  0
 20 21  1  0
 21 22  1  0
 17 23  1  0
 22 23  1  0
 24 25  3  0
 14 26  1  0
 25 26  1  0
M  END
