x1077-x3110-x0755
     RDKit          3D

 56 61  0  0  0  0  0  0  0  0999 V2000
    8.0180    0.8530   23.2390 N   0  0  0  0  0  0  0  0  0  0  0  0
   13.5030    5.0430   22.5400 C   0  0  0  0  0  0  0  0  0  0  0  0
   11.9180    3.2370   22.5660 O   0  0  0  0  0  0  0  0  0  0  0  0
   12.2540    4.3300   22.1000 C   0  0  0  0  0  0  0  0  0  0  0  0
    7.0010   -1.6290   21.6440 N   0  0  0  0  0  0  0  0  0  0  0  0
   10.8520    4.2210   24.1930 O   0  0  0  0  0  0  0  0  0  0  0  0
   11.0520    3.2620   23.4670 C   0  0  0  0  0  0  0  0  0  0  0  0
    8.5980    1.3320   20.9330 O   0  0  0  0  0  0  0  0  0  0  0  0
   10.2910    1.8980   23.5150 C   0  0  0  0  0  0  0  0  0  0  0  0
    4.8560   -3.0260   21.1600 O   0  0  0  0  0  0  0  0  0  0  0  0
    8.7340    1.9810   23.6990 C   0  0  0  0  0  0  0  0  0  0  0  0
    7.8260    0.6020   21.8880 C   0  0  0  0  0  0  0  0  0  0  0  0
    6.6950   -0.4470   21.5830 C   0  0  1  0  0  0  0  0  0  0  0  0
    6.1710   -2.8520   21.2570 C   0  0  0  0  0  0  0  0  0  0  0  0
    6.8860   -4.1670   20.9000 C   0  0  1  0  0  0  0  0  0  0  0  0
    8.3290   -3.7880   20.5250 C   0  0  0  0  0  0  0  0  0  0  0  0
   12.2070   -1.8510   24.3480 C   0  0  0  0  0  0  0  0  0  0  0  0
   12.7680   -0.6390   24.6380 C   0  0  0  0  0  0  0  0  0  0  0  0
   13.2620   -1.5150   23.3850 C   0  0  0  0  0  0  0  0  0  0  0  0
   12.6410   -3.0150   25.1780 C   0  0  0  0  0  0  0  0  0  0  0  0
    4.1400   -6.4240   25.9370 O   0  0  0  0  0  0  0  0  0  0  0  0
    6.1800   -4.8380   26.3160 N   0  0  0  0  0  0  0  0  0  0  0  0
    1.7290   -5.2830   25.6140 F   0  0  0  0  0  0  0  0  0  0  0  0
    5.2950   -2.1360   26.2520 F   0  0  0  0  0  0  0  0  0  0  0  0
    4.6610   -5.0970   25.6950 S   0  0  2  0  0  0  0  0  0  0  0  0
    6.3760    0.3880   17.8660 N   0  0  0  0  0  0  0  0  0  0  0  0
    5.2460    1.1430   17.8260 C   0  0  0  0  0  0  0  0  0  0  0  0
    4.5370    1.3870   18.9940 C   0  0  0  0  0  0  0  0  0  0  0  0
    4.9330    0.8960   20.2480 C   0  0  0  0  0  0  0  0  0  0  0  0
    6.0930    0.1340   20.2990 C   0  0  0  0  0  0  0  0  0  0  0  0
    6.8110   -0.1350   19.1570 C   0  0  0  0  0  0  0  0  0  0  0  0
    9.4740   -1.4200   21.7270 C   0  0  0  0  0  0  0  0  0  0  0  0
   10.7250   -1.4740   22.3510 C   0  0  0  0  0  0  0  0  0  0  0  0
   10.8210   -1.8220   23.6860 C   0  0  0  0  0  0  0  0  0  0  0  0
    9.6510   -2.1190   24.3790 C   0  0  0  0  0  0  0  0  0  0  0  0
    8.3920   -2.0710   23.7560 C   0  0  0  0  0  0  0  0  0  0  0  0
    8.2780   -1.7180   22.4020 C   0  0  0  0  0  0  0  0  0  0  0  0
    7.3520   -5.1830   25.7240 N   0  0  0  0  0  0  0  0  0  0  0  0
    7.6450   -5.4550   24.3690 C   0  0  2  0  0  0  0  0  0  0  0  0
    8.9440   -5.6790   23.9040 C   0  0  0  0  0  0  0  0  0  0  0  0
    9.9380   -5.1120   24.7300 C   0  0  0  0  0  0  0  0  0  0  0  0
    9.4890   -4.0680   25.6380 N   0  0  0  0  0  0  0  0  0  0  0  0
    9.2720   -4.6950   26.9310 C   0  0  0  0  0  0  0  0  0  0  0  0
    8.3450   -5.6730   26.6820 C   0  0  0  0  0  0  0  0  0  0  0  0
    2.1780   -4.0410   25.8410 C   0  0  0  0  0  0  0  0  0  0  0  0
    3.5480   -3.7770   25.9210 C   0  0  0  0  0  0  0  0  0  0  0  0
    4.0020   -2.4720   26.1580 C   0  0  0  0  0  0  0  0  0  0  0  0
    3.0480   -1.4830   26.2980 C   0  0  0  0  0  0  0  0  0  0  0  0
    1.7010   -1.7390   26.2160 C   0  0  0  0  0  0  0  0  0  0  0  0
    1.2310   -3.0200   25.9870 C   0  0  0  0  0  0  0  0  0  0  0  0
    6.8190   -5.0120   22.0190 N   0  0  0  0  0  0  0  0  0  0  0  0
    7.1240   -4.4140   23.3130 C   0  0  1  0  0  0  0  0  0  0  0  0
    5.8100   -3.8310   23.7750 C   0  0  0  0  0  0  0  0  0  0  0  0
    5.0020   -4.9690   24.0890 N   0  0  0  0  0  0  0  0  0  0  0  0
    4.7280   -5.8760   22.9840 C   0  0  0  0  0  0  0  0  0  0  0  0
    5.7720   -6.0680   22.0540 C   0  0  0  0  0  0  0  0  0  0  0  0
  2  4  1  0
  3  4  1  0
  3  7  1  0
  6  7  2  0
  7  9  1  0
  1 11  1  0
  9 11  1  0
  1 12  1  0
  8 12  2  0
  5 13  1  0
 13 12  1  6
  5 14  1  0
 10 14  2  0
 14 15  1  0
 15 16  1  1
 17 18  1  0
 17 19  1  0
 17 20  1  0
 21 25  2  0
 22 25  2  0
 26 27  2  0
 27 28  1  0
 28 29  2  0
 13 30  1  0
 29 30  1  0
 26 31  1  0
 30 31  2  0
 32 33  2  0
 17 34  1  0
 33 34  1  0
 34 35  2  0
 35 36  1  0
  5 37  1  0
 32 37  1  0
 36 37  2  0
 22 38  1  0
 38 39  1  0
 39 40  1  1
 40 41  1  0
 41 42  1  0
 42 43  1  0
 38 44  1  0
 43 44  1  0
 23 45  1  0
 25 46  1  1
 45 46  2  0
 24 47  1  0
 46 47  1  0
 47 48  2  0
 48 49  1  0
 45 50  1  0
 49 50  2  0
 15 51  1  0
 39 52  1  0
 52 51  1  6
 52 53  1  0
 25 54  1  0
 53 54  1  0
 54 55  1  0
 51 56  1  0
 55 56  1  0
M  END
