x1077-x1311-x2705
     RDKit          3D

 50 54  0  0  0  0  0  0  0  0999 V2000
    5.7620   -4.6300   20.0260 O   0  0  0  0  0  0  0  0  0  0  0  0
    6.6810   -4.4690   20.8840 C   0  0  0  0  0  0  0  0  0  0  0  0
    8.0790   -3.8500   20.5630 C   0  0  0  0  0  0  0  0  0  0  0  0
    6.5940   -4.8060   22.2690 N   0  0  0  0  0  0  0  0  0  0  0  0
    4.1910   -7.4730   25.1410 O   0  0  0  0  0  0  0  0  0  0  0  0
    2.3490   -5.8540   24.8270 O   0  0  0  0  0  0  0  0  0  0  0  0
    4.7210   -6.4750   22.0010 C   0  0  0  0  0  0  0  0  0  0  0  0
    5.6330   -5.7140   22.8700 C   0  0  2  0  0  0  0  0  0  0  0  0
    4.7940   -5.0930   24.0300 C   0  0  0  0  0  0  0  0  0  0  0  0
    3.6040   -6.3940   24.3600 S   0  0  0  0  0  0  0  0  0  0  0  0
    3.4460   -6.9430   22.7200 C   0  0  0  0  0  0  0  0  0  0  0  0
    7.2030   -5.5930   24.9470 O   0  0  0  0  0  0  0  0  0  0  0  0
    8.2090   -5.0580   24.0850 C   0  0  1  0  0  0  0  0  0  0  0  0
    9.6190   -5.5290   24.3900 C   0  0  0  0  0  0  0  0  0  0  0  0
   10.0120   -5.2600   25.8050 C   0  0  0  0  0  0  0  0  0  0  0  0
    9.4170   -4.2240   26.2180 N   0  0  0  0  0  0  0  0  0  0  0  0
    8.0720   -4.1810   26.7690 C   0  0  0  0  0  0  0  0  0  0  0  0
    7.2910   -5.2390   26.2790 C   0  0  0  0  0  0  0  0  0  0  0  0
    7.8620   -5.3070   22.7750 C   0  0  0  0  0  0  0  0  0  0  0  0
    7.6150   -1.0000   21.5470 N   0  0  0  0  0  0  0  0  0  0  0  0
    7.3920    2.2390   22.8000 N   0  0  0  0  0  0  0  0  0  0  0  0
    8.9170    1.4800   21.0310 O   0  0  0  0  0  0  0  0  0  0  0  0
    6.8910    0.2500   21.5810 C   0  0  1  0  0  0  0  0  0  0  0  0
    7.7840    1.3110   21.7670 C   0  0  0  0  0  0  0  0  0  0  0  0
   10.1650    2.1440   23.9540 C   0  0  0  0  0  0  0  0  0  0  0  0
    9.2870    1.4160   24.7600 C   0  0  0  0  0  0  0  0  0  0  0  0
    6.2380    4.6060   21.9920 C   0  0  0  0  0  0  0  0  0  0  0  0
   12.4010   -1.3380   23.2890 C   0  0  0  0  0  0  0  0  0  0  0  0
   12.7440    0.0820   23.6710 C   0  0  0  0  0  0  0  0  0  0  0  0
   12.8390   -2.4370   24.2360 C   0  0  0  0  0  0  0  0  0  0  0  0
   12.9740   -1.6330   22.0320 C   0  0  0  0  0  0  0  0  0  0  0  0
    6.2890    0.2630   17.8010 N   0  0  0  0  0  0  0  0  0  0  0  0
    5.1820    1.0390   17.8090 C   0  0  0  0  0  0  0  0  0  0  0  0
    4.5700    1.5700   18.9390 C   0  0  0  0  0  0  0  0  0  0  0  0
    5.1510    1.2860   20.1660 C   0  0  0  0  0  0  0  0  0  0  0  0
    6.2970    0.4990   20.2390 C   0  0  0  0  0  0  0  0  0  0  0  0
    6.8570   -0.0110   19.0900 C   0  0  0  0  0  0  0  0  0  0  0  0
    9.9640   -1.7100   24.1500 N   0  0  0  0  0  0  0  0  0  0  0  0
    8.6220   -1.6840   23.8670 N   0  0  0  0  0  0  0  0  0  0  0  0
    8.6920   -1.2530   22.4440 C   0  0  0  0  0  0  0  0  0  0  0  0
   10.0860   -1.0630   21.9510 C   0  0  0  0  0  0  0  0  0  0  0  0
   10.9090   -1.3630   23.1050 C   0  0  0  0  0  0  0  0  0  0  0  0
    9.5140    3.4310   23.5330 C   0  0  0  0  0  0  0  0  0  0  0  0
   10.2240    4.7680   23.6640 C   0  0  0  0  0  0  0  0  0  0  0  0
    9.5650    5.9310   23.2400 C   0  0  0  0  0  0  0  0  0  0  0  0
    8.2670    5.8540   22.6990 C   0  0  0  0  0  0  0  0  0  0  0  0
    7.6400    4.6150   22.5920 C   0  0  0  0  0  0  0  0  0  0  0  0
    8.2290    3.4280   22.9970 C   0  0  0  0  0  0  0  0  0  0  0  0
    9.7720   -3.0470   25.3820 C   0  0  0  0  0  0  0  0  0  0  0  0
    8.7580   -2.0870   25.2140 C   0  0  0  0  0  0  0  0  0  0  0  0
  1  2  2  0
  2  3  1  0
  2  4  1  0
  8  4  1  6
  7  8  1  0
  8  9  1  0
 10  5  1  0
  6 10  1  0
  9 10  1  0
  7 11  2  0
 10 11  1  0
 12 13  1  0
 13 14  1  0
 14 15  1  0
 15 16  1  0
 16 17  1  0
 12 18  1  0
 17 18  1  0
  4 19  1  0
 13 19  1  6
 23 20  1  6
 21 24  1  0
 22 24  2  0
 23 24  1  0
 25 26  1  0
 28 29  1  0
 28 30  1  0
 28 31  1  0
 32 33  2  0
 33 34  1  0
 34 35  2  0
 23 36  1  0
 35 36  1  0
 32 37  1  0
 36 37  2  0
 38 39  1  0
 20 40  1  0
 39 40  1  0
 40 41  2  0
 28 42  1  0
 38 42  2  0
 41 42  1  0
 25 43  1  0
 43 44  2  0
 44 45  1  0
 45 46  2  0
 27 47  1  0
 46 47  1  0
 21 48  1  0
 43 48  1  0
 47 48  2  0
 16 49  1  0
 39 50  1  0
 49 50  1  0
M  END
