x1077-x2776
     RDKit          3D

 43 46  0  0  0  0  0  0  0  0999 V2000
    6.9670   -1.5160   21.6070 N   0  0  0  0  0  0  0  0  0  0  0  0
    6.9070   -4.6930   20.3950 C   0  0  0  0  0  0  0  0  0  0  0  0
    4.8340   -2.9600   21.0820 O   0  0  0  0  0  0  0  0  0  0  0  0
    6.9280   -3.9020   21.6750 C   0  0  0  0  0  0  0  0  0  0  0  0
    7.6670    1.7920   22.8340 N   0  0  0  0  0  0  0  0  0  0  0  0
    8.9780    0.7220   21.3330 O   0  0  0  0  0  0  0  0  0  0  0  0
    6.1050   -2.6990   21.4180 C   0  0  0  0  0  0  0  0  0  0  0  0
   10.7390    6.5630   23.7490 O   0  0  0  0  0  0  0  0  0  0  0  0
    6.7140   -0.0120   21.4630 C   0  0  1  0  0  0  0  0  0  0  0  0
   12.5780   -2.9570   24.2680 O   0  0  0  0  0  0  0  0  0  0  0  0
    7.8670    0.8040   21.8440 C   0  0  0  0  0  0  0  0  0  0  0  0
   10.3530    1.5420   23.9030 C   0  0  0  0  0  0  0  0  0  0  0  0
   11.7840    6.4910   24.7200 C   0  0  0  0  0  0  0  0  0  0  0  0
   11.8840   -1.7090   24.3130 C   0  0  1  0  0  0  0  0  0  0  0  0
   12.7940   -0.7430   23.8850 C   0  0  0  0  0  0  0  0  0  0  0  0
   13.1550   -3.2980   25.5210 C   0  0  0  0  0  0  0  0  0  0  0  0
    6.3590    0.3530   17.8040 N   0  0  0  0  0  0  0  0  0  0  0  0
    5.2510    1.0730   17.8260 C   0  0  0  0  0  0  0  0  0  0  0  0
    4.5660    1.4540   18.9510 C   0  0  0  0  0  0  0  0  0  0  0  0
    4.9730    1.1250   20.2430 C   0  0  0  0  0  0  0  0  0  0  0  0
    6.1570    0.3680   20.2080 C   0  0  0  0  0  0  0  0  0  0  0  0
    6.7970    0.0070   19.0210 C   0  0  0  0  0  0  0  0  0  0  0  0
    9.7390    2.8760   23.5670 C   0  0  0  0  0  0  0  0  0  0  0  0
   10.5310    4.0010   23.8060 C   0  0  0  0  0  0  0  0  0  0  0  0
   10.0170    5.4290   23.5210 C   0  0  0  0  0  0  0  0  0  0  0  0
    8.6120    5.5130   22.9480 C   0  0  0  0  0  0  0  0  0  0  0  0
    7.8990    4.3140   22.7390 C   0  0  0  0  0  0  0  0  0  0  0  0
    8.4210    3.0020   23.0380 C   0  0  0  0  0  0  0  0  0  0  0  0
    9.4690   -1.3830   21.7130 C   0  0  0  0  0  0  0  0  0  0  0  0
   10.8460   -1.3480   22.0060 C   0  0  0  0  0  0  0  0  0  0  0  0
   10.6140   -1.6790   23.4540 C   0  0  0  0  0  0  0  0  0  0  0  0
    9.4280   -1.9490   24.1240 C   0  0  0  0  0  0  0  0  0  0  0  0
    8.0700   -1.9960   23.7500 C   0  0  0  0  0  0  0  0  0  0  0  0
    8.1980   -1.6470   22.4090 C   0  0  0  0  0  0  0  0  0  0  0  0
    6.6020   -5.7410   25.2860 O   0  0  0  0  0  0  0  0  0  0  0  0
    7.2980   -5.2020   24.1750 C   0  0  0  0  0  0  0  0  0  0  0  0
    8.5810   -5.7070   23.9880 C   0  0  0  0  0  0  0  0  0  0  0  0
    9.4800   -5.5440   25.0470 C   0  0  0  0  0  0  0  0  0  0  0  0
    9.2430   -4.4180   25.9310 N   0  0  0  0  0  0  0  0  0  0  0  0
    8.0700   -4.5940   26.7900 C   0  0  0  0  0  0  0  0  0  0  0  0
    7.2520   -5.6670   26.5460 C   0  0  0  0  0  0  0  0  0  0  0  0
    8.2570   -2.3460   25.1790 C   0  0  0  0  0  0  0  0  0  0  0  0
    9.4580   -3.1300   25.2680 C   0  0  0  0  0  0  0  0  0  0  0  0
  2  4  1  0
  1  7  1  0
  3  7  2  0
  4  7  1  0
  1  9  1  0
  5 11  1  0
  6 11  2  0
  9 11  1  6
  8 13  1  0
 10 14  1  0
 14 15  1  6
 10 16  1  0
 17 18  2  0
 18 19  1  0
 19 20  2  0
  9 21  1  0
 20 21  1  0
 17 22  1  0
 21 22  2  0
 12 23  1  0
 23 24  2  0
  8 25  1  0
 24 25  1  0
 25 26  2  0
 26 27  1  0
  5 28  1  0
 23 28  1  0
 27 28  2  0
 29 30  2  0
 14 31  1  0
 30 31  1  0
 31 32  2  0
 32 33  1  0
  1 34  1  0
 29 34  1  0
 33 34  2  0
 35 36  1  0
 36 37  1  0
 37 38  1  0
 38 39  1  0
 39 40  1  0
 35 41  1  0
 40 41  1  0
 33 42  1  0
 39 43  1  0
 42 43  1  0
M  END
