x1077-x1386
     RDKit          3D

 25 27  0  0  0  0  0  0  0  0999 V2000
    7.4770   -2.9540   18.6720 C   0  0  0  0  0  0  0  0  0  0  0  0
    5.5300   -3.9100   19.6540 O   0  0  0  0  0  0  0  0  0  0  0  0
    6.4540   -3.0780   19.7790 C   0  0  0  0  0  0  0  0  0  0  0  0
    9.7780   -3.0600   23.7490 C   0  0  1  0  0  0  0  0  0  0  0  0
    6.5960   -2.2720   20.9070 N   0  0  0  0  0  0  0  0  0  0  0  0
    7.6820   -1.2890   21.0900 C   0  0  0  0  0  0  0  0  0  0  0  0
    8.7390   -1.7630   21.8260 C   0  0  2  0  0  0  0  0  0  0  0  0
    8.4320   -2.4110   23.1560 N   0  0  0  0  0  0  0  0  0  0  0  0
    7.3970   -3.4230   22.9110 C   0  0  0  0  0  0  0  0  0  0  0  0
    6.1940   -2.9080   22.1490 C   0  0  0  0  0  0  0  0  0  0  0  0
   11.9700   -1.8460   22.8010 C   0  0  0  0  0  0  0  0  0  0  0  0
   10.8350   -1.8680   23.8130 C   0  0  0  0  0  0  0  0  0  0  0  0
   10.9770   -0.6300   24.7050 C   0  0  0  0  0  0  0  0  0  0  0  0
   12.3390    0.2810   24.2000 S   0  0  0  0  0  0  0  0  0  0  0  0
   12.8110   -0.7660   22.9210 C   0  0  0  0  0  0  0  0  0  0  0  0
    7.1220   -5.5740   25.5330 O   0  0  0  0  0  0  0  0  0  0  0  0
    7.3250   -5.5730   24.1320 C   0  0  0  0  0  0  0  0  0  0  0  0
    8.6540   -5.7790   23.8000 C   0  0  0  0  0  0  0  0  0  0  0  0
    9.5520   -5.3730   24.7840 C   0  0  0  0  0  0  0  0  0  0  0  0
    9.5970   -3.9240   24.9750 N   0  0  0  0  0  0  0  0  0  0  0  0
    8.6190   -3.5020   25.9920 C   0  0  0  0  0  0  0  0  0  0  0  0
    7.3270   -4.3390   26.2280 C   0  0  0  0  0  0  0  0  0  0  0  0
    8.9320    1.8490   21.5870 N   0  0  0  0  0  0  0  0  0  0  0  0
    9.2560    0.7640   21.8110 C   0  0  0  0  0  0  0  0  0  0  0  0
    9.7740   -0.6570   22.0860 C   0  0  0  0  0  0  0  0  0  0  0  0
  1  3  1  0
  2  3  2  0
  3  5  1  0
  5  6  1  0
  6  7  1  0
  4  8  1  0
  7  8  1  0
  8  9  1  0
  5 10  1  0
  9 10  1  0
  4 12  1  1
 11 12  1  0
 12 13  2  0
 13 14  1  0
 11 15  2  0
 14 15  1  0
 16 17  1  0
 17 18  1  0
 18 19  1  0
  4 20  1  0
 19 20  1  0
 20 21  1  0
 16 22  1  0
 21 22  1  0
 23 24  3  0
  7 25  1  1
 24 25  1  0
M  END
