x1077-x1493-x2705
     RDKit          3D

 49 54  0  0  0  0  0  0  0  0999 V2000
    7.5740   -1.0280   21.5500 N   0  0  0  0  0  0  0  0  0  0  0  0
    7.5950    2.1580   22.8440 N   0  0  0  0  0  0  0  0  0  0  0  0
    9.0140    1.4390   21.0180 O   0  0  0  0  0  0  0  0  0  0  0  0
    6.8870    0.1420   21.5670 C   0  0  1  0  0  0  0  0  0  0  0  0
    7.8710    1.2790   21.8260 C   0  0  0  0  0  0  0  0  0  0  0  0
   10.1510    2.1350   23.9090 C   0  0  0  0  0  0  0  0  0  0  0  0
    9.2190    1.2550   24.7590 C   0  0  0  0  0  0  0  0  0  0  0  0
    6.0740    4.5570   21.9120 C   0  0  0  0  0  0  0  0  0  0  0  0
   12.2490   -1.3550   23.0980 C   0  0  0  0  0  0  0  0  0  0  0  0
   12.7770   -0.4010   23.9680 C   0  0  0  0  0  0  0  0  0  0  0  0
   12.8100   -1.9810   24.4050 C   0  0  0  0  0  0  0  0  0  0  0  0
   13.0780   -1.6300   21.8610 C   0  0  0  0  0  0  0  0  0  0  0  0
    6.3230    0.4310   17.7730 N   0  0  0  0  0  0  0  0  0  0  0  0
    5.2150    1.1720   17.7860 C   0  0  0  0  0  0  0  0  0  0  0  0
    4.5640    1.6130   18.9290 C   0  0  0  0  0  0  0  0  0  0  0  0
    5.0190    1.3270   20.2160 C   0  0  0  0  0  0  0  0  0  0  0  0
    6.2560    0.5140   20.2960 C   0  0  0  0  0  0  0  0  0  0  0  0
    6.8260    0.1130   19.0930 C   0  0  0  0  0  0  0  0  0  0  0  0
   10.0640   -1.8060   24.0720 N   0  0  0  0  0  0  0  0  0  0  0  0
    8.6470   -1.8050   23.8380 N   0  0  0  0  0  0  0  0  0  0  0  0
    8.7260   -1.2800   22.3890 C   0  0  0  0  0  0  0  0  0  0  0  0
    9.9790   -1.0690   21.9630 C   0  0  0  0  0  0  0  0  0  0  0  0
   10.7540   -1.3760   22.9470 C   0  0  0  0  0  0  0  0  0  0  0  0
    9.5090    3.4220   23.5070 C   0  0  0  0  0  0  0  0  0  0  0  0
   10.3060    4.7010   23.7010 C   0  0  0  0  0  0  0  0  0  0  0  0
    9.6200    5.9630   23.2690 C   0  0  0  0  0  0  0  0  0  0  0  0
    8.2290    5.9300   22.6810 C   0  0  0  0  0  0  0  0  0  0  0  0
    7.4840    4.6030   22.5150 C   0  0  0  0  0  0  0  0  0  0  0  0
    8.2080    3.4240   22.9600 C   0  0  0  0  0  0  0  0  0  0  0  0
    4.5320   -6.1750   26.1430 C   0  0  0  0  0  0  0  0  0  0  0  0
    5.7850   -5.6690   25.4580 C   0  0  0  0  0  0  0  0  0  0  0  0
    5.3670   -4.2110   19.7640 O   0  0  0  0  0  0  0  0  0  0  0  0
    6.4720   -3.9920   20.2410 C   0  0  0  0  0  0  0  0  0  0  0  0
    7.5890   -3.2560   19.4810 C   0  0  0  0  0  0  0  0  0  0  0  0
    7.0180   -5.4510   25.8400 C   0  0  0  0  0  0  0  0  0  0  0  0
    7.4890   -4.9950   24.4930 C   0  0  1  0  0  0  0  0  0  0  0  0
    8.5740   -5.6480   23.9660 C   0  0  0  0  0  0  0  0  0  0  0  0
    9.6390   -5.6030   24.8560 C   0  0  0  0  0  0  0  0  0  0  0  0
    9.6960   -4.4650   25.8050 N   0  0  0  0  0  0  0  0  0  0  0  0
    8.8030   -4.5160   26.9720 C   0  0  0  0  0  0  0  0  0  0  0  0
    7.8480   -5.5170   26.9430 C   0  0  0  0  0  0  0  0  0  0  0  0
    6.1650   -5.2070   24.0350 C   0  0  0  0  0  0  0  0  0  0  0  0
    5.7820   -3.9700   23.6580 C   0  0  0  0  0  0  0  0  0  0  0  0
    6.6840   -3.5660   22.6900 C   0  0  0  0  0  0  0  0  0  0  0  0
    6.6290   -4.4780   21.5570 N   0  0  0  0  0  0  0  0  0  0  0  0
    6.5230   -5.8290   21.7250 C   0  0  0  0  0  0  0  0  0  0  0  0
    5.8820   -6.1820   22.8960 C   0  0  0  0  0  0  0  0  0  0  0  0
    8.8590   -2.2630   25.1400 C   0  0  0  0  0  0  0  0  0  0  0  0
    9.9510   -3.1520   25.1920 C   0  0  0  0  0  0  0  0  0  0  0  0
  4  1  1  6
  2  5  1  0
  3  5  2  0
  4  5  1  0
  6  7  1  0
  9 10  1  0
  9 11  1  0
  9 12  1  0
 13 14  2  0
 14 15  1  0
 15 16  2  0
  4 17  1  0
 16 17  1  0
 13 18  1  0
 17 18  2  0
 19 20  1  0
  1 21  1  0
 20 21  1  0
 21 22  2  0
  9 23  1  0
 19 23  2  0
 22 23  1  0
  6 24  1  0
 24 25  2  0
 25 26  1  0
 26 27  2  0
  8 28  1  0
 27 28  1  0
  2 29  1  0
 24 29  1  0
 28 29  2  0
 30 31  1  0
 32 33  2  0
 33 34  1  0
 31 35  2  0
 35 36  1  0
 36 37  1  6
 37 38  1  0
 38 39  1  0
 39 40  1  0
 35 41  1  0
 40 41  1  0
 42 31  1  0
 36 42  1  0
 42 43  1  0
 43 44  1  0
 33 45  1  0
 44 45  1  0
 45 46  1  0
 42 47  1  0
 46 47  1  0
 20 48  1  0
 39 49  1  0
 48 49  1  0
M  END
