x1077-x0755-x2705
     RDKit          3D

 58 64  0  0  0  0  0  0  0  0999 V2000
    7.6490   -1.1450   21.6140 N   0  0  0  0  0  0  0  0  0  0  0  0
    7.4590    2.2660   22.5470 N   0  0  0  0  0  0  0  0  0  0  0  0
    8.9080    1.4060   21.0210 O   0  0  0  0  0  0  0  0  0  0  0  0
    6.9760    0.1370   21.4860 C   0  0  1  0  0  0  0  0  0  0  0  0
    7.8760    1.3160   21.6560 C   0  0  0  0  0  0  0  0  0  0  0  0
   10.2860    2.2670   23.9160 C   0  0  0  0  0  0  0  0  0  0  0  0
    9.4380    1.2650   24.7050 C   0  0  0  0  0  0  0  0  0  0  0  0
    6.2230    4.7390   21.8390 C   0  0  0  0  0  0  0  0  0  0  0  0
   12.2430   -1.4730   23.2030 C   0  0  0  0  0  0  0  0  0  0  0  0
   12.8380   -0.3670   24.0520 C   0  0  0  0  0  0  0  0  0  0  0  0
   12.8790   -1.9880   24.4460 C   0  0  0  0  0  0  0  0  0  0  0  0
   12.9940   -1.6440   22.0130 C   0  0  0  0  0  0  0  0  0  0  0  0
    6.2640    0.3130   17.7660 N   0  0  0  0  0  0  0  0  0  0  0  0
    5.1950    1.1970   17.7790 C   0  0  0  0  0  0  0  0  0  0  0  0
    4.7510    1.6730   19.0050 C   0  0  0  0  0  0  0  0  0  0  0  0
    5.3590    1.2880   20.1650 C   0  0  0  0  0  0  0  0  0  0  0  0
    6.4280    0.4110   20.0930 C   0  0  0  0  0  0  0  0  0  0  0  0
    6.9060   -0.1050   18.9170 C   0  0  0  0  0  0  0  0  0  0  0  0
    9.9270   -1.5010   24.1810 N   0  0  0  0  0  0  0  0  0  0  0  0
    8.5560   -1.4130   23.8200 N   0  0  0  0  0  0  0  0  0  0  0  0
    8.7680   -1.2780   22.4510 C   0  0  0  0  0  0  0  0  0  0  0  0
    9.9990   -1.2660   21.9380 C   0  0  0  0  0  0  0  0  0  0  0  0
   10.7490   -1.4200   23.1430 C   0  0  0  0  0  0  0  0  0  0  0  0
    9.5200    3.5030   23.4930 C   0  0  0  0  0  0  0  0  0  0  0  0
   10.2340    4.8300   23.7720 C   0  0  0  0  0  0  0  0  0  0  0  0
    9.5600    6.1120   23.3820 C   0  0  0  0  0  0  0  0  0  0  0  0
    8.2020    6.0560   22.7300 C   0  0  0  0  0  0  0  0  0  0  0  0
    7.5750    4.8240   22.4910 C   0  0  0  0  0  0  0  0  0  0  0  0
    8.1760    3.4680   22.8490 C   0  0  0  0  0  0  0  0  0  0  0  0
    4.1470   -6.4800   25.8400 O   0  0  0  0  0  0  0  0  0  0  0  0
    6.3640   -4.7360   25.8740 N   0  0  0  0  0  0  0  0  0  0  0  0
    5.4880   -4.6530   19.9820 O   0  0  0  0  0  0  0  0  0  0  0  0
    6.5220   -4.6880   20.6660 C   0  0  0  0  0  0  0  0  0  0  0  0
    7.6090   -3.6650   20.3560 C   0  0  0  0  0  0  0  0  0  0  0  0
    1.9530   -5.2420   25.6070 F   0  0  0  0  0  0  0  0  0  0  0  0
    5.3740   -1.9850   26.1510 F   0  0  0  0  0  0  0  0  0  0  0  0
    4.8900   -5.0950   25.5550 S   0  0  2  0  0  0  0  0  0  0  0  0
    7.6640   -5.3880   25.4170 N   0  0  0  0  0  0  0  0  0  0  0  0
    8.0850   -5.5200   23.9500 C   0  0  2  0  0  0  0  0  0  0  0  0
    9.1520   -4.4810   23.7150 C   0  0  0  0  0  0  0  0  0  0  0  0
   10.1120   -4.4160   24.6930 C   0  0  0  0  0  0  0  0  0  0  0  0
    9.6450   -3.7760   25.9190 N   0  0  0  0  0  0  0  0  0  0  0  0
    9.3360   -4.7300   26.9760 C   0  0  0  0  0  0  0  0  0  0  0  0
    8.5780   -5.7890   26.4940 C   0  0  0  0  0  0  0  0  0  0  0  0
    2.3590   -3.9820   25.8310 C   0  0  0  0  0  0  0  0  0  0  0  0
    3.7050   -3.6680   25.8670 C   0  0  0  0  0  0  0  0  0  0  0  0
    4.0890   -2.3580   26.1030 C   0  0  0  0  0  0  0  0  0  0  0  0
    3.1220   -1.3950   26.2900 C   0  0  0  0  0  0  0  0  0  0  0  0
    1.7580   -1.6950   26.2530 C   0  0  0  0  0  0  0  0  0  0  0  0
    1.3730   -3.0140   26.0200 C   0  0  0  0  0  0  0  0  0  0  0  0
    6.6870   -5.6560   21.6680 N   0  0  0  0  0  0  0  0  0  0  0  0
    6.8400   -5.3120   23.0780 C   0  0  2  0  0  0  0  0  0  0  0  0
    5.9710   -4.1650   23.3290 C   0  0  0  0  0  0  0  0  0  0  0  0
    4.8580   -4.9150   23.8550 N   0  0  0  0  0  0  0  0  0  0  0  0
    4.4980   -6.0400   22.9300 C   0  0  0  0  0  0  0  0  0  0  0  0
    5.5850   -6.5560   21.9210 C   0  0  0  0  0  0  0  0  0  0  0  0
    8.6010   -1.5570   25.1860 C   0  0  0  0  0  0  0  0  0  0  0  0
    8.4050   -3.0190   25.6600 C   0  0  0  0  0  0  0  0  0  0  0  0
  4  1  1  6
  2  5  1  0
  3  5  2  0
  4  5  1  0
  6  7  1  0
  9 10  1  0
  9 11  1  0
  9 12  1  0
 13 14  2  0
 14 15  1  0
 15 16  2  0
  4 17  1  0
 16 17  1  0
 13 18  1  0
 17 18  2  0
 19 20  1  0
  1 21  1  0
 20 21  1  0
 21 22  2  0
  9 23  1  0
 19 23  2  0
 22 23  1  0
  6 24  1  0
 24 25  2  0
 25 26  1  0
 26 27  2  0
  8 28  1  0
 27 28  1  0
  2 29  1  0
 24 29  1  0
 28 29  2  0
 32 33  2  0
 33 34  1  0
 30 37  2  0
 31 37  2  0
 31 38  1  0
 38 39  1  0
 39 40  1  6
 40 41  1  0
 41 42  1  0
 42 43  1  0
 38 44  1  0
 43 44  1  0
 35 45  1  0
 37 46  1  1
 45 46  2  0
 36 47  1  0
 46 47  1  0
 47 48  2  0
 48 49  1  0
 45 50  1  0
 49 50  2  0
 33 51  1  0
 39 52  1  0
 52 51  1  6
 52 53  1  0
 37 54  1  0
 53 54  1  0
 54 55  1  0
 51 56  1  0
 55 56  1  0
 20 57  1  0
 42 58  1  0
 57 58  1  0
M  END
