x1077-x3110-x0691
     RDKit          3D

 55 60  0  0  0  0  0  0  0  0999 V2000
    8.0220    1.2790   23.2710 N   0  0  0  0  0  0  0  0  0  0  0  0
   13.3730    5.0890   22.8420 C   0  0  0  0  0  0  0  0  0  0  0  0
   12.0500    3.3270   22.4370 O   0  0  0  0  0  0  0  0  0  0  0  0
   12.3180    4.4440   21.9740 C   0  0  0  0  0  0  0  0  0  0  0  0
    6.8090   -1.5040   22.0350 N   0  0  0  0  0  0  0  0  0  0  0  0
   10.9100    4.3390   24.1340 O   0  0  0  0  0  0  0  0  0  0  0  0
   11.1300    3.3670   23.4330 C   0  0  0  0  0  0  0  0  0  0  0  0
    8.5380    1.3710   21.0630 O   0  0  0  0  0  0  0  0  0  0  0  0
   10.4040    2.0540   23.5640 C   0  0  0  0  0  0  0  0  0  0  0  0
    4.8010   -3.0000   21.2930 O   0  0  0  0  0  0  0  0  0  0  0  0
    8.8860    2.3320   23.6230 C   0  0  0  0  0  0  0  0  0  0  0  0
    7.8070    0.9120   21.9580 C   0  0  0  0  0  0  0  0  0  0  0  0
    6.5980   -0.0380   21.6620 C   0  0  1  0  0  0  0  0  0  0  0  0
    6.0790   -2.6720   21.5030 C   0  0  0  0  0  0  0  0  0  0  0  0
    7.0760   -3.6890   21.1650 C   0  0  2  0  0  0  0  0  0  0  0  0
    7.1020   -3.6840   19.6650 C   0  0  0  0  0  0  0  0  0  0  0  0
   12.2930   -1.7890   24.1650 C   0  0  0  0  0  0  0  0  0  0  0  0
   12.5400   -0.6710   24.9540 C   0  0  0  0  0  0  0  0  0  0  0  0
   13.3100   -1.8010   22.9970 C   0  0  0  0  0  0  0  0  0  0  0  0
   12.6320   -3.0040   25.0430 C   0  0  0  0  0  0  0  0  0  0  0  0
    3.9220   -6.9660   25.8600 O   0  0  0  0  0  0  0  0  0  0  0  0
    5.7420   -5.0520   26.7620 N   0  0  0  0  0  0  0  0  0  0  0  0
    3.1820   -0.5970   26.0450 F   0  0  0  0  0  0  0  0  0  0  0  0
    4.6140   -5.5300   25.8370 S   0  0  2  0  0  0  0  0  0  0  0  0
    6.4740    0.3290   17.9870 N   0  0  0  0  0  0  0  0  0  0  0  0
    5.2360    1.1490   17.7850 C   0  0  0  0  0  0  0  0  0  0  0  0
    4.4030    1.5740   18.8260 C   0  0  0  0  0  0  0  0  0  0  0  0
    4.7360    1.2190   20.2470 C   0  0  0  0  0  0  0  0  0  0  0  0
    6.0070    0.4070   20.3400 C   0  0  0  0  0  0  0  0  0  0  0  0
    6.7680    0.0190   19.2640 C   0  0  0  0  0  0  0  0  0  0  0  0
    9.2900   -1.5650   21.7330 C   0  0  0  0  0  0  0  0  0  0  0  0
   10.6190   -1.6350   22.2100 C   0  0  0  0  0  0  0  0  0  0  0  0
   10.8560   -1.7500   23.5970 C   0  0  0  0  0  0  0  0  0  0  0  0
    9.7480   -1.8070   24.4600 C   0  0  0  0  0  0  0  0  0  0  0  0
    8.4580   -1.7350   23.9320 C   0  0  0  0  0  0  0  0  0  0  0  0
    8.1730   -1.6070   22.5730 C   0  0  0  0  0  0  0  0  0  0  0  0
    7.3780   -5.8880   25.4010 O   0  0  0  0  0  0  0  0  0  0  0  0
    7.9150   -5.7560   24.0800 C   0  0  2  0  0  0  0  0  0  0  0  0
    9.2790   -5.7240   24.2720 C   0  0  0  0  0  0  0  0  0  0  0  0
    9.6930   -5.4580   25.5650 C   0  0  0  0  0  0  0  0  0  0  0  0
    9.2470   -4.2160   26.1880 N   0  0  0  0  0  0  0  0  0  0  0  0
    8.1260   -4.3460   26.9060 C   0  0  0  0  0  0  0  0  0  0  0  0
    7.0280   -4.7560   26.1500 C   0  0  2  0  0  0  0  0  0  0  0  0
    2.8210   -1.8850   25.9480 C   0  0  0  0  0  0  0  0  0  0  0  0
    3.7800   -2.9310   25.9410 C   0  0  0  0  0  0  0  0  0  0  0  0
    3.3730   -4.2950   25.8380 C   0  0  0  0  0  0  0  0  0  0  0  0
    2.0250   -4.6660   25.7350 C   0  0  0  0  0  0  0  0  0  0  0  0
    0.9630   -3.5740   25.7380 C   0  0  0  0  0  0  0  0  0  0  0  0
    1.4640   -2.1680   25.8540 C   0  0  0  0  0  0  0  0  0  0  0  0
    6.9400   -4.8230   21.9580 N   0  0  0  0  0  0  0  0  0  0  0  0
    5.7440   -5.7340   21.7970 C   0  0  0  0  0  0  0  0  0  0  0  0
    4.7790   -5.8860   23.0270 C   0  0  0  0  0  0  0  0  0  0  0  0
    5.2850   -5.3610   24.2950 N   0  0  0  0  0  0  0  0  0  0  0  0
    5.9820   -4.1380   23.9890 C   0  0  0  0  0  0  0  0  0  0  0  0
    7.3460   -4.5370   23.3410 C   0  0  1  0  0  0  0  0  0  0  0  0
  2  4  1  0
  3  4  1  0
  3  7  1  0
  6  7  2  0
  7  9  1  0
  1 11  1  0
  9 11  1  0
  1 12  1  0
  8 12  2  0
  5 13  1  0
 13 12  1  6
  5 14  1  0
 10 14  2  0
 14 15  1  0
 15 16  1  6
 17 18  1  0
 17 19  1  0
 17 20  1  0
 21 24  2  0
 22 24  2  0
 25 26  2  0
 26 27  1  0
 27 28  2  0
 13 29  1  0
 28 29  1  0
 25 30  1  0
 29 30  2  0
 31 32  2  0
 17 33  1  0
 32 33  1  0
 33 34  2  0
 34 35  1  0
  5 36  1  0
 31 36  1  0
 35 36  2  0
 37 38  1  0
 38 39  1  1
 39 40  1  0
 40 41  1  0
 41 42  1  0
 22 43  1  0
 37 43  1  0
 43 42  1  1
 23 44  1  0
 44 45  2  0
 24 46  1  6
 45 46  1  0
 46 47  2  0
 47 48  1  0
 44 49  1  0
 48 49  2  0
 15 50  1  0
 50 51  1  0
 51 52  1  0
 24 53  1  0
 52 53  1  0
 53 54  1  0
 38 55  1  0
 55 50  1  6
 54 55  1  0
M  END
