x1077-x2705
     RDKit          3D

 42 45  0  0  0  0  0  0  0  0999 V2000
    6.9730   -1.4800   21.7490 N   0  0  0  0  0  0  0  0  0  0  0  0
    6.9470   -4.6180   20.2490 C   0  0  0  0  0  0  0  0  0  0  0  0
    4.8650   -3.0420   21.2370 O   0  0  0  0  0  0  0  0  0  0  0  0
    7.0590   -3.9330   21.5900 C   0  0  0  0  0  0  0  0  0  0  0  0
    7.3970    1.8550   22.8430 N   0  0  0  0  0  0  0  0  0  0  0  0
    8.7310    0.8330   21.3320 O   0  0  0  0  0  0  0  0  0  0  0  0
    6.1690   -2.7410   21.5110 C   0  0  0  0  0  0  0  0  0  0  0  0
    6.6210   -0.0530   21.5650 C   0  0  1  0  0  0  0  0  0  0  0  0
    7.6340    0.8640   21.8970 C   0  0  0  0  0  0  0  0  0  0  0  0
   10.0860    1.9200   24.0040 C   0  0  0  0  0  0  0  0  0  0  0  0
    9.2720    1.1570   25.0450 C   0  0  0  0  0  0  0  0  0  0  0  0
    6.0870    4.5770   21.8010 C   0  0  0  0  0  0  0  0  0  0  0  0
   12.1410   -1.3750   23.1500 C   0  0  0  0  0  0  0  0  0  0  0  0
   12.6670    0.0270   23.5560 C   0  0  0  0  0  0  0  0  0  0  0  0
   12.6680   -2.3500   24.2380 C   0  0  0  0  0  0  0  0  0  0  0  0
   12.8240   -1.7360   21.8200 C   0  0  0  0  0  0  0  0  0  0  0  0
    6.3440    0.5020   17.7690 N   0  0  0  0  0  0  0  0  0  0  0  0
    5.2110    1.2380   17.7530 C   0  0  0  0  0  0  0  0  0  0  0  0
    4.4340    1.6080   18.8450 C   0  0  0  0  0  0  0  0  0  0  0  0
    4.8170    1.2220   20.0970 C   0  0  0  0  0  0  0  0  0  0  0  0
    6.0840    0.3990   20.2490 C   0  0  0  0  0  0  0  0  0  0  0  0
    6.7940    0.0770   18.9550 C   0  0  0  0  0  0  0  0  0  0  0  0
    9.7690   -1.6250   24.0440 N   0  0  0  0  0  0  0  0  0  0  0  0
    8.3570   -1.6770   23.8300 N   0  0  0  0  0  0  0  0  0  0  0  0
    8.2520   -1.5070   22.4240 C   0  0  0  0  0  0  0  0  0  0  0  0
    9.6760   -1.3560   21.8980 C   0  0  0  0  0  0  0  0  0  0  0  0
   10.5920   -1.4510   23.0340 C   0  0  0  0  0  0  0  0  0  0  0  0
    9.3730    3.1530   23.4960 C   0  0  0  0  0  0  0  0  0  0  0  0
   10.0970    4.5040   23.6010 C   0  0  0  0  0  0  0  0  0  0  0  0
    9.5260    5.7110   23.1550 C   0  0  0  0  0  0  0  0  0  0  0  0
    8.2530    5.6650   22.5950 C   0  0  0  0  0  0  0  0  0  0  0  0
    7.4450    4.4380   22.4340 C   0  0  0  0  0  0  0  0  0  0  0  0
    8.0680    3.1180   22.9270 C   0  0  0  0  0  0  0  0  0  0  0  0
    6.9180   -5.8690   25.7520 O   0  0  0  0  0  0  0  0  0  0  0  0
    7.2000   -5.2970   24.4790 C   0  0  0  0  0  0  0  0  0  0  0  0
    8.6320   -5.4850   23.9410 C   0  0  0  0  0  0  0  0  0  0  0  0
    9.8070   -4.9430   24.7780 C   0  0  0  0  0  0  0  0  0  0  0  0
    9.4200   -4.1200   25.9100 N   0  0  0  0  0  0  0  0  0  0  0  0
    8.9530   -4.9740   27.0060 C   0  0  0  0  0  0  0  0  0  0  0  0
    7.4510   -5.3140   26.9570 C   0  0  0  0  0  0  0  0  0  0  0  0
    8.6360   -1.8330   25.2000 C   0  0  0  0  0  0  0  0  0  0  0  0
    8.2920   -3.2510   25.5850 C   0  0  0  0  0  0  0  0  0  0  0  0
  2  4  1  0
  1  7  1  0
  3  7  2  0
  4  7  1  0
  1  8  1  0
  5  9  1  0
  6  9  2  0
  8  9  1  6
 10 11  1  0
 13 14  1  0
 13 15  1  0
 13 16  1  0
 17 18  2  0
 18 19  1  0
 19 20  2  0
  8 21  1  0
 20 21  1  0
 17 22  1  0
 21 22  2  0
 23 24  1  0
  1 25  1  0
 24 25  1  0
 25 26  2  0
 13 27  1  0
 23 27  2  0
 26 27  1  0
 10 28  1  0
 28 29  2  0
 29 30  1  0
 30 31  2  0
 12 32  1  0
 31 32  1  0
  5 33  1  0
 28 33  1  0
 32 33  2  0
 34 35  1  0
 35 36  1  0
 36 37  1  0
 37 38  1  0
 38 39  1  0
 34 40  1  0
 39 40  1  0
 24 41  1  0
 38 42  1  0
 41 42  1  0
M  END
