x1077-x3110-x0786
     RDKit          3D

 54 58  0  0  0  0  0  0  0  0999 V2000
    7.7490    1.0230   23.2060 N   0  0  0  0  0  0  0  0  0  0  0  0
   13.4280    5.2310   22.5480 C   0  0  0  0  0  0  0  0  0  0  0  0
   11.8380    3.2640   22.6670 O   0  0  0  0  0  0  0  0  0  0  0  0
   12.1830    4.5090   22.0700 C   0  0  0  0  0  0  0  0  0  0  0  0
    6.9100   -1.4420   21.2740 N   0  0  0  0  0  0  0  0  0  0  0  0
   10.6620    4.0960   24.2710 O   0  0  0  0  0  0  0  0  0  0  0  0
   10.8310    3.2880   23.3590 C   0  0  0  0  0  0  0  0  0  0  0  0
    8.1770    1.1920   20.9180 O   0  0  0  0  0  0  0  0  0  0  0  0
    9.8090    2.1820   22.9780 C   0  0  0  0  0  0  0  0  0  0  0  0
    4.7730   -2.8480   20.7390 O   0  0  0  0  0  0  0  0  0  0  0  0
    8.4620    2.3180   23.3650 C   0  0  0  0  0  0  0  0  0  0  0  0
    7.5100    0.6280   21.8000 C   0  0  0  0  0  0  0  0  0  0  0  0
    6.4850   -0.3430   21.4560 C   0  0  1  0  0  0  0  0  0  0  0  0
    6.0190   -2.6750   21.0730 C   0  0  0  0  0  0  0  0  0  0  0  0
    6.4420   -4.0680   21.3110 C   0  0  1  0  0  0  0  0  0  0  0  0
    7.9310   -4.3680   21.0180 C   0  0  0  0  0  0  0  0  0  0  0  0
   12.4270   -1.3160   23.6740 C   0  0  0  0  0  0  0  0  0  0  0  0
   12.8490   -0.0280   23.7450 C   0  0  0  0  0  0  0  0  0  0  0  0
   13.3190   -1.8470   22.5760 C   0  0  0  0  0  0  0  0  0  0  0  0
   12.6070   -2.1760   24.7790 C   0  0  0  0  0  0  0  0  0  0  0  0
    3.8960   -8.0070   24.7970 O   0  0  0  0  0  0  0  0  0  0  0  0
    3.3640   -7.0280   24.2870 C   0  0  0  0  0  0  0  0  0  0  0  0
    6.3470    0.6780   17.6400 N   0  0  0  0  0  0  0  0  0  0  0  0
    5.1630    1.5610   17.6460 C   0  0  0  0  0  0  0  0  0  0  0  0
    4.4800    1.7600   18.8240 C   0  0  0  0  0  0  0  0  0  0  0  0
    4.7970    1.2140   20.0470 C   0  0  0  0  0  0  0  0  0  0  0  0
    5.9880    0.3070   20.1820 C   0  0  0  0  0  0  0  0  0  0  0  0
    6.7370    0.0690   18.8970 C   0  0  0  0  0  0  0  0  0  0  0  0
    9.1450   -0.3990   21.6160 C   0  0  0  0  0  0  0  0  0  0  0  0
   10.5680   -0.2890   22.2020 C   0  0  0  0  0  0  0  0  0  0  0  0
   11.0300   -1.3130   23.0490 C   0  0  0  0  0  0  0  0  0  0  0  0
   10.1510   -2.2750   23.2500 C   0  0  0  0  0  0  0  0  0  0  0  0
    8.7620   -2.4450   22.7260 C   0  0  0  0  0  0  0  0  0  0  0  0
    8.2310   -1.4280   21.8470 C   0  0  0  0  0  0  0  0  0  0  0  0
    5.6620   -4.3720   22.5950 C   0  0  0  0  0  0  0  0  0  0  0  0
    4.9430   -5.5670   22.8040 C   0  0  0  0  0  0  0  0  0  0  0  0
    4.1390   -5.8050   24.0760 C   0  0  0  0  0  0  0  0  0  0  0  0
    4.1720   -4.7760   25.0130 C   0  0  0  0  0  0  0  0  0  0  0  0
    4.8830   -3.6100   24.7970 C   0  0  0  0  0  0  0  0  0  0  0  0
    5.6150   -3.3790   23.6290 C   0  0  0  0  0  0  0  0  0  0  0  0
    1.3760   -5.6740   23.3960 C   0  0  0  0  0  0  0  0  0  0  0  0
    0.4360   -5.1500   24.2680 C   0  0  0  0  0  0  0  0  0  0  0  0
   -0.9580   -6.3110   24.3890 S   0  0  0  0  0  0  0  0  0  0  0  0
    0.0300   -7.7380   24.9570 C   0  0  0  0  0  0  0  0  0  0  0  0
    1.0670   -8.0780   24.0760 C   0  0  0  0  0  0  0  0  0  0  0  0
    1.9620   -6.9450   23.8470 N   0  0  0  0  0  0  0  0  0  0  0  0
    6.6060   -5.0720   24.8670 O   0  0  0  0  0  0  0  0  0  0  0  0
    6.8710   -5.6090   23.5790 C   0  0  0  0  0  0  0  0  0  0  0  0
    8.1270   -6.0750   23.6250 C   0  0  0  0  0  0  0  0  0  0  0  0
    9.1570   -5.0720   23.3580 C   0  0  0  0  0  0  0  0  0  0  0  0
    9.1290   -3.9560   24.1860 N   0  0  0  0  0  0  0  0  0  0  0  0
    7.9450   -3.0760   24.3180 C   0  0  0  0  0  0  0  0  0  0  0  0
    6.7950   -3.6500   24.9580 C   0  0  0  0  0  0  0  0  0  0  0  0
   10.4310   -3.3640   24.0550 C   0  0  0  0  0  0  0  0  0  0  0  0
  2  4  1  0
  3  4  1  0
  3  7  1  0
  6  7  2  0
  7  9  1  0
  1 11  1  0
  9 11  1  0
  1 12  1  0
  8 12  2  0
  5 13  1  0
 13 12  1  6
  5 14  1  0
 10 14  2  0
 14 15  1  0
 15 16  1  1
 17 18  1  0
 17 19  1  0
 17 20  1  0
 21 22  2  0
 23 24  2  0
 24 25  1  0
 25 26  2  0
 13 27  1  0
 26 27  1  0
 23 28  1  0
 27 28  2  0
 29 30  2  0
 17 31  1  0
 30 31  1  0
 31 32  2  0
 32 33  1  0
  5 34  1  0
 29 34  1  0
 33 34  2  0
 15 35  1  0
 35 36  2  0
 22 37  1  0
 36 37  1  0
 37 38  2  0
 38 39  1  0
 35 40  1  0
 39 40  2  0
 41 42  1  0
 42 43  1  0
 43 44  1  0
 44 45  1  0
 22 46  1  0
 41 46  1  0
 45 46  1  0
 47 48  1  0
 48 49  1  0
 49 50  1  0
 50 51  1  0
 51 52  1  0
 47 53  1  0
 52 53  1  0
 32 54  1  0
 51 54  1  0
M  END
