x1093-x1077
     RDKit          3D

 28 31  0  0  0  0  0  0  0  0999 V2000
   13.3230   -1.9170   23.9260 C   0  0  0  0  0  0  0  0  0  0  0  0
    8.8360    1.2710   21.1610 O   0  0  0  0  0  0  0  0  0  0  0  0
    9.0190    0.1790   21.7350 C   0  0  0  0  0  0  0  0  0  0  0  0
    8.1820   -0.8620   21.2440 C   0  0  0  0  0  0  0  0  0  0  0  0
   12.6110   -1.0880   23.0670 N   0  0  0  0  0  0  0  0  0  0  0  0
   12.3780    0.4020   23.2090 C   0  0  0  0  0  0  0  0  0  0  0  0
   10.8690    0.8760   23.1850 C   0  0  0  0  0  0  0  0  0  0  0  0
    9.9400   -0.0540   22.7510 N   0  0  0  0  0  0  0  0  0  0  0  0
   10.3340   -1.3120   23.3760 C   0  0  2  0  0  0  0  0  0  0  0  0
   11.4740   -1.8430   22.5990 C   0  0  0  0  0  0  0  0  0  0  0  0
    6.4500    0.0120   18.0530 N   0  0  0  0  0  0  0  0  0  0  0  0
    7.2750   -0.5270   18.6790 C   0  0  0  0  0  0  0  0  0  0  0  0
    7.2820   -0.3630   20.1490 C   0  0  0  0  0  0  0  0  0  0  0  0
    6.0720    0.4830   20.3090 C   0  0  0  0  0  0  0  0  0  0  0  0
    5.6480    0.6910   18.9540 C   0  0  0  0  0  0  0  0  0  0  0  0
    4.5870    1.4620   18.4910 N   0  0  0  0  0  0  0  0  0  0  0  0
    3.7610    2.0270   19.5460 C   0  0  0  0  0  0  0  0  0  0  0  0
    4.1930    1.7830   20.9810 C   0  0  0  0  0  0  0  0  0  0  0  0
    5.3210    1.0490   21.3480 C   0  0  0  0  0  0  0  0  0  0  0  0
    7.0060   -5.7070   25.4710 O   0  0  0  0  0  0  0  0  0  0  0  0
    7.1740   -5.3930   24.1480 C   0  0  0  0  0  0  0  0  0  0  0  0
    8.4390   -5.6060   23.6230 C   0  0  0  0  0  0  0  0  0  0  0  0
    9.4750   -5.1900   24.4610 C   0  0  0  0  0  0  0  0  0  0  0  0
    9.0370   -4.1570   25.1380 N   0  0  0  0  0  0  0  0  0  0  0  0
    8.5430   -4.3810   26.3600 C   0  0  0  0  0  0  0  0  0  0  0  0
    7.1880   -4.6790   26.3620 C   0  0  0  0  0  0  0  0  0  0  0  0
    9.3000   -2.3900   23.6340 C   0  0  0  0  0  0  0  0  0  0  0  0
    9.5560   -2.9420   24.9000 C   0  0  0  0  0  0  0  0  0  0  0  0
  2  3  2  0
  3  4  1  0
  1  5  1  0
  5  6  1  0
  6  7  1  0
  3  8  1  0
  7  8  1  0
  8  9  1  0
  5 10  1  0
  9 10  1  0
 11 12  1  0
  4 13  1  0
 12 13  2  0
 13 14  1  0
 11 15  2  0
 14 15  1  0
 15 16  1  0
 16 17  1  0
 17 18  2  0
 14 19  2  0
 18 19  1  0
 20 21  1  0
 21 22  1  0
 22 23  1  0
 23 24  1  0
 24 25  1  0
 20 26  1  0
 25 26  1  0
  9 27  1  6
 24 28  1  0
 27 28  1  0
M  END
