x1093-x1478
     RDKit          3D

 31 34  0  0  0  0  0  0  0  0999 V2000
   13.0700   -1.5700   24.5310 C   0  0  0  0  0  0  0  0  0  0  0  0
    8.9500    1.4290   21.1590 O   0  0  0  0  0  0  0  0  0  0  0  0
    9.0070    0.2930   21.6610 C   0  0  0  0  0  0  0  0  0  0  0  0
    7.8320   -0.4980   21.4740 C   0  0  2  0  0  0  0  0  0  0  0  0
    6.8240   -2.7220   21.4570 N   0  0  0  0  0  0  0  0  0  0  0  0
    7.8880   -4.4040   20.2800 C   0  0  0  0  0  0  0  0  0  0  0  0
    5.8410   -3.5170   19.4750 O   0  0  0  0  0  0  0  0  0  0  0  0
    6.3080   -5.7650   22.2850 Cl  0  0  0  0  0  0  0  0  0  0  0  0
    6.7310   -3.5070   20.3350 C   0  0  0  0  0  0  0  0  0  0  0  0
    8.0000   -2.0360   21.6550 C   0  0  0  0  0  0  0  0  0  0  0  0
   12.4310   -0.9490   23.4980 N   0  0  0  0  0  0  0  0  0  0  0  0
   12.2790    0.2030   23.3500 C   0  0  0  0  0  0  0  0  0  0  0  0
   10.8090    0.5700   23.1170 C   0  0  0  0  0  0  0  0  0  0  0  0
   10.0230   -0.2260   22.3580 N   0  0  0  0  0  0  0  0  0  0  0  0
   10.2940   -1.5440   22.4140 C   0  0  0  0  0  0  0  0  0  0  0  0
   11.7850   -1.7550   22.6080 C   0  0  0  0  0  0  0  0  0  0  0  0
    6.2780    0.1160   18.0510 N   0  0  0  0  0  0  0  0  0  0  0  0
    7.2420   -0.4490   18.8590 C   0  0  0  0  0  0  0  0  0  0  0  0
    7.1060   -0.1670   20.1970 C   0  0  0  0  0  0  0  0  0  0  0  0
    5.8850    0.6750   20.1890 C   0  0  0  0  0  0  0  0  0  0  0  0
    5.4570    0.8010   18.8760 C   0  0  0  0  0  0  0  0  0  0  0  0
    4.3490    1.5420   18.6460 N   0  0  0  0  0  0  0  0  0  0  0  0
    3.6480    2.1560   19.7010 C   0  0  0  0  0  0  0  0  0  0  0  0
    4.0720    2.0290   21.0220 C   0  0  0  0  0  0  0  0  0  0  0  0
    5.1840    1.3000   21.2920 C   0  0  0  0  0  0  0  0  0  0  0  0
    4.8510   -4.5450   24.0250 N   0  0  0  0  0  0  0  0  0  0  0  0
    5.6900   -4.3180   22.9740 C   0  0  0  0  0  0  0  0  0  0  0  0
    5.9480   -2.9780   22.5770 C   0  0  0  0  0  0  0  0  0  0  0  0
    5.3620   -1.9040   23.2590 C   0  0  0  0  0  0  0  0  0  0  0  0
    4.5120   -2.1000   24.3270 C   0  0  0  0  0  0  0  0  0  0  0  0
    4.2540   -3.3910   24.7080 C   0  0  0  0  0  0  0  0  0  0  0  0
  2  3  2  0
  3  4  1  0
  5  9  1  0
  6  9  1  0
  7  9  2  0
  4 10  1  6
  5 10  1  0
  1 11  1  0
 11 12  1  0
 12 13  1  0
  3 14  1  0
 13 14  1  0
 14 15  1  0
 11 16  1  0
 15 16  1  0
 17 18  1  0
  4 19  1  0
 18 19  2  0
 19 20  1  0
 17 21  1  0
 20 21  2  0
 21 22  1  0
 22 23  2  0
 23 24  1  0
 20 25  1  0
 24 25  2  0
  8 27  1  0
 26 27  2  0
  5 28  1  0
 27 28  1  0
 28 29  2  0
 29 30  1  0
 26 31  1  0
 30 31  2  0
M  END
