x1093-x3305
     RDKit          3D

 32 37  0  0  0  0  0  0  0  0999 V2000
    3.3530   -7.2860   23.9640 C   0  0  0  0  0  0  0  0  0  0  0  0
    5.6290   -3.0840   21.0010 O   0  0  0  0  0  0  0  0  0  0  0  0
    7.1790   -3.1120   22.7510 N   0  0  0  0  0  0  0  0  0  0  0  0
    7.0790   -1.1980   21.2230 N   0  0  0  0  0  0  0  0  0  0  0  0
    6.4790   -3.3690   23.8880 C   0  0  0  0  0  0  0  0  0  0  0  0
    6.5550   -2.4910   21.5990 C   0  0  0  0  0  0  0  0  0  0  0  0
    8.2140   -0.7370   21.8630 C   0  0  1  0  0  0  0  0  0  0  0  0
    9.1060   -1.9490   22.2450 C   0  0  0  0  0  0  0  0  0  0  0  0
    7.1470   -1.1700   19.7830 C   0  0  0  0  0  0  0  0  0  0  0  0
   13.6980   -0.1430   22.6600 C   0  0  0  0  0  0  0  0  0  0  0  0
    8.0260    1.1110   21.6810 O   0  0  0  0  0  0  0  0  0  0  0  0
    9.0470    0.4610   21.5050 C   0  0  0  0  0  0  0  0  0  0  0  0
    4.5280   -6.4920   23.6290 N   0  0  0  0  0  0  0  0  0  0  0  0
    4.5840   -5.2900   24.1370 C   0  0  0  0  0  0  0  0  0  0  0  0
    5.8370   -4.6850   23.6740 C   0  0  0  0  0  0  0  0  0  0  0  0
    6.4490   -5.7470   22.8350 N   0  0  0  0  0  0  0  0  0  0  0  0
    5.6330   -6.7710   22.8530 N   0  0  0  0  0  0  0  0  0  0  0  0
    4.7060    0.5060   18.1190 C   0  0  2  0  0  0  0  0  0  0  0  0
    5.5740   -0.5080   17.9280 C   0  0  0  0  0  0  0  0  0  0  0  0
    6.1810   -0.3900   19.2130 C   0  0  0  0  0  0  0  0  0  0  0  0
    5.3740    0.6710   19.5410 C   0  0  1  0  0  0  0  0  0  0  0  0
    5.3220    1.8290   18.9540 C   0  0  1  0  0  0  0  0  0  0  0  0
    5.2730    1.6980   17.6180 C   0  0  0  0  0  0  0  0  0  0  0  0
   10.2510   -0.3620   23.5360 C   0  0  0  0  0  0  0  0  0  0  0  0
   11.3330    0.3620   23.9220 C   0  0  0  0  0  0  0  0  0  0  0  0
   12.6100    0.2800   23.4320 C   0  0  0  0  0  0  0  0  0  0  0  0
   12.5460   -0.7560   22.4470 C   0  0  0  0  0  0  0  0  0  0  0  0
   11.5310   -1.5280   22.0050 C   0  0  0  0  0  0  0  0  0  0  0  0
   10.3620   -1.3090   22.5590 C   0  0  0  0  0  0  0  0  0  0  0  0
    4.3150    2.7090   19.7310 C   0  0  0  0  0  0  0  0  0  0  0  0
    4.0140    1.9450   20.8670 C   0  0  0  0  0  0  0  0  0  0  0  0
    4.6110    0.7350   20.8110 C   0  0  0  0  0  0  0  0  0  0  0  0
  3  5  1  0
  2  6  2  0
  3  6  1  0
  4  6  1  0
  4  7  1  0
  7  8  1  6
  4  9  1  0
  7 12  1  0
 11 12  2  0
  1 13  1  0
 13 14  1  0
  5 15  1  0
 14 15  2  0
 15 16  1  0
 13 17  1  0
 16 17  2  0
 18 19  1  1
  9 20  1  0
 19 20  2  0
 18 21  1  0
 21 20  1  0
 18 22  1  0
 21 22  1  0
 18 23  1  0
 22 23  1  6
 24 25  2  0
 10 26  1  0
 25 26  1  0
 26 27  2  0
 27 28  1  0
  8 29  1  0
 24 29  1  0
 28 29  2  0
 22 30  1  0
 30 31  1  0
 21 32  1  1
 31 32  2  0
M  END
