x1093-x0708
     RDKit          3D

 30 33  0  0  0  0  0  0  0  0999 V2000
    6.5810   -4.3820   21.0620 N   0  0  0  0  0  0  0  0  0  0  0  0
    7.4890   -3.1420   19.0040 C   0  0  0  0  0  0  0  0  0  0  0  0
    5.2270   -3.7160   19.3300 O   0  0  0  0  0  0  0  0  0  0  0  0
    6.3450   -3.7620   19.8070 C   0  0  0  0  0  0  0  0  0  0  0  0
    7.5060   -3.7900   21.9220 N   0  0  0  0  0  0  0  0  0  0  0  0
    6.1810   -1.8970   22.5180 O   0  0  0  0  0  0  0  0  0  0  0  0
    7.2830   -2.4000   22.4150 C   0  0  0  0  0  0  0  0  0  0  0  0
   13.4400   -0.9420   21.8840 C   0  0  0  0  0  0  0  0  0  0  0  0
    8.6660   -1.8300   22.8020 C   0  0  0  0  0  0  0  0  0  0  0  0
    9.8590   -1.6650   21.7650 C   0  0  0  0  0  0  0  0  0  0  0  0
   10.7780   -1.2660   22.8780 C   0  0  0  0  0  0  0  0  0  0  0  0
   10.4280   -1.0530   24.2790 C   0  0  0  0  0  0  0  0  0  0  0  0
    8.8460   -1.4320   24.4300 S   0  0  0  0  0  0  0  0  0  0  0  0
   12.1440   -1.1270   22.2310 C   0  0  0  0  0  0  0  0  0  0  0  0
   12.8970   -0.6770   23.5040 C   0  0  0  0  0  0  0  0  0  0  0  0
   12.5100   -0.4570   24.8260 C   0  0  0  0  0  0  0  0  0  0  0  0
   11.2750   -0.6260   25.2840 C   0  0  0  0  0  0  0  0  0  0  0  0
    8.6260    1.4140   21.0380 O   0  0  0  0  0  0  0  0  0  0  0  0
    8.7550    0.2680   21.5070 C   0  0  0  0  0  0  0  0  0  0  0  0
    7.8130   -0.7860   21.2820 C   0  0  1  0  0  0  0  0  0  0  0  0
    6.3760    0.1150   18.0110 N   0  0  0  0  0  0  0  0  0  0  0  0
    7.3090   -0.5670   18.7170 C   0  0  0  0  0  0  0  0  0  0  0  0
    7.0580   -0.3070   20.0550 C   0  0  0  0  0  0  0  0  0  0  0  0
    5.9240    0.5190   20.1740 C   0  0  0  0  0  0  0  0  0  0  0  0
    5.5520    0.7710   18.8380 C   0  0  0  0  0  0  0  0  0  0  0  0
    4.5120    1.5770   18.5440 N   0  0  0  0  0  0  0  0  0  0  0  0
    3.7250    2.0990   19.6660 C   0  0  0  0  0  0  0  0  0  0  0  0
    4.1260    1.7980   20.9640 C   0  0  0  0  0  0  0  0  0  0  0  0
    5.2290    1.0250   21.2500 C   0  0  0  0  0  0  0  0  0  0  0  0
    8.5480   -2.0040   21.2220 C   0  0  0  0  0  0  0  0  0  0  0  0
  1  4  1  0
  2  4  1  0
  3  4  2  0
  1  5  1  0
  5  7  1  0
  6  7  2  0
  7  9  1  0
  9 10  2  0
 10 11  1  0
 11 12  2  0
  9 13  1  0
 12 13  1  0
  8 14  1  0
 11 14  1  0
 14 15  2  0
 15 16  1  0
 12 17  1  0
 16 17  2  0
 18 19  2  0
 20 19  1  6
 21 22  1  0
 20 23  1  0
 22 23  2  0
 23 24  1  0
 21 25  2  0
 24 25  1  0
 25 26  1  0
 26 27  1  0
 27 28  2  0
 24 29  2  0
 28 29  1  0
 10 30  1  0
 20 30  1  0
M  END
