x1093-x2119
     RDKit          3D

 26 29  0  0  0  0  0  0  0  0999 V2000
   13.3480   -1.8760   23.8050 C   0  0  0  0  0  0  0  0  0  0  0  0
    8.5250    1.1390   21.2950 O   0  0  0  0  0  0  0  0  0  0  0  0
    8.7400   -0.0110   21.6810 C   0  0  0  0  0  0  0  0  0  0  0  0
    7.9770   -1.0150   20.9860 C   0  0  2  0  0  0  0  0  0  0  0  0
    5.7360   -4.9700   20.0330 N   0  0  0  0  0  0  0  0  0  0  0  0
    6.6130   -4.0340   20.1750 C   0  0  0  0  0  0  0  0  0  0  0  0
   12.1610   -1.2500   23.6180 N   0  0  0  0  0  0  0  0  0  0  0  0
   11.9320    0.1070   23.4140 C   0  0  0  0  0  0  0  0  0  0  0  0
   10.4710    0.6170   23.3340 C   0  0  0  0  0  0  0  0  0  0  0  0
    9.6170   -0.3430   22.6200 N   0  0  0  0  0  0  0  0  0  0  0  0
    9.8190   -1.7660   22.9570 C   0  0  0  0  0  0  0  0  0  0  0  0
   11.2860   -2.1060   22.8100 C   0  0  0  0  0  0  0  0  0  0  0  0
    6.3760    0.1900   17.7610 N   0  0  0  0  0  0  0  0  0  0  0  0
    7.2670   -0.4830   18.4890 C   0  0  0  0  0  0  0  0  0  0  0  0
    7.1120   -0.3560   19.9390 C   0  0  0  0  0  0  0  0  0  0  0  0
    6.0060    0.4610   20.1470 C   0  0  0  0  0  0  0  0  0  0  0  0
    5.5700    0.7770   18.8370 C   0  0  0  0  0  0  0  0  0  0  0  0
    4.4820    1.5680   18.6330 N   0  0  0  0  0  0  0  0  0  0  0  0
    3.8490    2.0320   19.7640 C   0  0  0  0  0  0  0  0  0  0  0  0
    4.2430    1.7460   21.0600 C   0  0  0  0  0  0  0  0  0  0  0  0
    5.3050    0.9730   21.3720 C   0  0  0  0  0  0  0  0  0  0  0  0
    6.4780   -3.1790   21.3590 C   0  0  0  0  0  0  0  0  0  0  0  0
    5.6310   -3.6110   22.3900 N   0  0  0  0  0  0  0  0  0  0  0  0
    5.7210   -2.6390   23.2770 C   0  0  0  0  0  0  0  0  0  0  0  0
    6.5280   -1.6110   22.9640 C   0  0  0  0  0  0  0  0  0  0  0  0
    7.0430   -1.9040   21.7320 N   0  0  0  0  0  0  0  0  0  0  0  0
  2  3  2  0
  4  3  1  1
  5  6  2  3
  1  7  1  0
  7  8  1  0
  8  9  1  0
  3 10  1  0
  9 10  1  0
 10 11  1  0
  7 12  1  0
 11 12  1  0
 13 14  1  0
  4 15  1  0
 14 15  2  0
 15 16  1  0
 13 17  2  0
 16 17  1  0
 17 18  1  0
 18 19  1  0
 19 20  2  0
 16 21  2  0
 20 21  1  0
  6 22  1  0
 22 23  2  0
 23 24  1  0
 24 25  2  0
  4 26  1  0
 22 26  1  0
 25 26  1  0
M  END
