x1093-x0305
     RDKit          3D

 26 28  0  0  0  0  0  0  0  0999 V2000
   12.9410   -2.0350   24.3210 C   0  0  0  0  0  0  0  0  0  0  0  0
    8.7570    1.3740   21.1540 O   0  0  0  0  0  0  0  0  0  0  0  0
    8.9530    0.2390   21.6260 C   0  0  0  0  0  0  0  0  0  0  0  0
    8.0300   -0.7540   21.2390 C   0  0  0  0  0  0  0  0  0  0  0  0
   11.9170   -1.1440   24.3070 N   0  0  0  0  0  0  0  0  0  0  0  0
   12.0220    0.2110   23.6990 C   0  0  0  0  0  0  0  0  0  0  0  0
   10.6150    0.7050   23.3060 C   0  0  1  0  0  0  0  0  0  0  0  0
    9.9600   -0.1500   22.4430 N   0  0  0  0  0  0  0  0  0  0  0  0
   10.4610   -1.5260   22.4410 C   0  0  0  0  0  0  0  0  0  0  0  0
   10.7550   -1.9010   23.8610 C   0  0  0  0  0  0  0  0  0  0  0  0
    6.3850    0.0970   18.0950 N   0  0  0  0  0  0  0  0  0  0  0  0
    7.2080   -0.4140   18.7140 C   0  0  0  0  0  0  0  0  0  0  0  0
    7.1600   -0.2640   20.1610 C   0  0  0  0  0  0  0  0  0  0  0  0
    5.9450    0.5610   20.3140 C   0  0  0  0  0  0  0  0  0  0  0  0
    5.5330    0.7410   18.9700 C   0  0  0  0  0  0  0  0  0  0  0  0
    4.4510    1.4420   18.4930 N   0  0  0  0  0  0  0  0  0  0  0  0
    3.6240    2.0680   19.5190 C   0  0  0  0  0  0  0  0  0  0  0  0
    4.0730    1.8660   20.9690 C   0  0  0  0  0  0  0  0  0  0  0  0
    5.2050    1.1340   21.3500 C   0  0  0  0  0  0  0  0  0  0  0  0
   12.7980   -2.1900   21.7260 C   0  0  0  0  0  0  0  0  0  0  0  0
   13.5280   -1.6570   20.7720 N   0  0  0  0  0  0  0  0  0  0  0  0
   13.5140   -2.1390   22.8990 C   0  0  0  0  0  0  0  0  0  0  0  0
    8.3350   -0.1940   27.1170 C   0  0  0  0  0  0  0  0  0  0  0  0
    8.4470   -0.2730   25.7290 C   0  0  0  0  0  0  0  0  0  0  0  0
    9.7330    0.1430   25.5000 N   0  0  0  0  0  0  0  0  0  0  0  0
    9.7210    1.0580   24.4900 C   0  0  0  0  0  0  0  0  0  0  0  0
  2  3  2  0
  3  4  1  0
  1  5  1  0
  5  6  1  0
  6  7  1  0
  3  8  1  0
  7  8  1  0
  8  9  1  0
  5 10  1  0
  9 10  1  0
 11 12  1  0
  4 13  1  0
 12 13  2  0
 13 14  1  0
 11 15  1  0
 14 15  2  0
 15 16  1  0
 16 17  2  0
 17 18  1  0
 14 19  1  0
 18 19  2  0
 20 21  3  0
  1 22  1  0
 20 22  1  0
 23 24  1  0
 24 25  1  0
  7 26  1  1
 25 26  1  0
M  END
