x1093-x1458
     RDKit          3D

 36 39  0  0  0  0  0  0  0  0999 V2000
    7.1360   -3.6940   26.6530 N   0  0  0  0  0  0  0  0  0  0  0  0
    9.1100   -4.6460   27.6380 C   0  0  0  0  0  0  0  0  0  0  0  0
    5.2510   -3.2280   25.4380 O   0  0  0  0  0  0  0  0  0  0  0  0
    7.7070   -4.8510   27.1420 C   0  0  0  0  0  0  0  0  0  0  0  0
    5.2910   -4.5340   19.8940 O   0  0  0  0  0  0  0  0  0  0  0  0
    7.0510   -5.6280   28.1210 C   0  0  0  0  0  0  0  0  0  0  0  0
    6.7170   -2.6540   27.6360 C   0  0  0  0  0  0  0  0  0  0  0  0
    6.4130   -3.6620   25.4800 C   0  0  0  0  0  0  0  0  0  0  0  0
    6.3540   -4.0120   20.1830 C   0  0  0  0  0  0  0  0  0  0  0  0
    7.2090   -3.2560   19.1860 C   0  0  0  0  0  0  0  0  0  0  0  0
   13.0540   -1.5310   24.2910 C   0  0  0  0  0  0  0  0  0  0  0  0
    8.8830    1.2790   21.0640 O   0  0  0  0  0  0  0  0  0  0  0  0
    8.8600    0.0480   21.6980 C   0  0  0  0  0  0  0  0  0  0  0  0
    7.4520   -0.6030   21.5390 C   0  0  2  0  0  0  0  0  0  0  0  0
    6.9050   -1.8750   21.9430 C   0  0  0  0  0  0  0  0  0  0  0  0
    6.9240   -4.1200   21.4430 N   0  0  0  0  0  0  0  0  0  0  0  0
    7.6920   -3.0000   22.0580 C   0  0  2  0  0  0  0  0  0  0  0  0
    7.9690   -3.3380   23.5270 C   0  0  0  0  0  0  0  0  0  0  0  0
    7.0670   -4.1760   24.2530 C   0  0  2  0  0  0  0  0  0  0  0  0
    6.0830   -4.7020   23.4450 C   0  0  0  0  0  0  0  0  0  0  0  0
    6.6070   -5.1250   22.2550 C   0  0  0  0  0  0  0  0  0  0  0  0
   12.5550   -1.0690   23.1360 N   0  0  0  0  0  0  0  0  0  0  0  0
   12.0410    0.1730   23.2530 C   0  0  0  0  0  0  0  0  0  0  0  0
   10.6590    0.2830   23.4330 C   0  0  0  0  0  0  0  0  0  0  0  0
   10.0160   -0.4210   22.4990 N   0  0  0  0  0  0  0  0  0  0  0  0
   10.3020   -1.8420   22.6960 C   0  0  0  0  0  0  0  0  0  0  0  0
   11.6910   -1.9880   22.5430 C   0  0  0  0  0  0  0  0  0  0  0  0
    6.3970    0.1560   17.9500 N   0  0  0  0  0  0  0  0  0  0  0  0
    7.2350   -0.4780   18.8640 C   0  0  0  0  0  0  0  0  0  0  0  0
    6.9170   -0.2240   20.1940 C   0  0  0  0  0  0  0  0  0  0  0  0
    5.8320    0.5620   20.1330 C   0  0  0  0  0  0  0  0  0  0  0  0
    5.5520    0.7870   18.8420 C   0  0  0  0  0  0  0  0  0  0  0  0
    4.5690    1.5430   18.3900 N   0  0  0  0  0  0  0  0  0  0  0  0
    3.7390    2.0690   19.3850 C   0  0  0  0  0  0  0  0  0  0  0  0
    4.0080    1.8290   20.7570 C   0  0  0  0  0  0  0  0  0  0  0  0
    5.0870    1.0670   21.1650 C   0  0  0  0  0  0  0  0  0  0  0  0
  1  4  1  0
  2  4  1  0
  4  6  1  0
  1  7  1  0
  1  8  1  0
  3  8  2  0
  5  9  2  0
  9 10  1  0
 12 13  2  0
 13 14  1  0
 14 15  1  6
  9 16  1  0
 17 15  1  1
 16 17  1  0
 17 18  1  0
 19  8  1  1
 18 19  1  0
 19 20  1  0
 16 21  1  0
 20 21  1  0
 11 22  1  0
 22 23  1  0
 23 24  1  0
 13 25  1  0
 24 25  1  0
 25 26  1  0
 22 27  1  0
 26 27  1  0
 28 29  1  0
 14 30  1  0
 29 30  2  0
 30 31  1  0
 28 32  2  0
 31 32  1  0
 32 33  1  0
 33 34  1  0
 34 35  2  0
 31 36  2  0
 35 36  1  0
M  END
