x1093-x2608
     RDKit          3D

 21 23  0  0  0  0  0  0  0  0999 V2000
   13.2180   -1.6710   24.1690 C   0  0  0  0  0  0  0  0  0  0  0  0
    8.6150    1.2890   21.0670 O   0  0  0  0  0  0  0  0  0  0  0  0
    8.7520    0.1320   21.5060 C   0  0  0  0  0  0  0  0  0  0  0  0
    7.8270   -0.8210   21.0770 C   0  0  1  0  0  0  0  0  0  0  0  0
   12.9930    1.1170   23.0830 C   0  0  0  0  0  0  0  0  0  0  0  0
    7.0740   -1.3770   22.1970 N   0  0  0  0  0  0  0  0  0  0  0  0
   12.0650   -1.0990   23.7530 N   0  0  0  0  0  0  0  0  0  0  0  0
   11.9610   -0.0060   22.9230 C   0  0  1  0  0  0  0  0  0  0  0  0
   10.5920    0.6320   22.8820 C   0  0  0  0  0  0  0  0  0  0  0  0
    9.6870   -0.2730   22.3120 N   0  0  0  0  0  0  0  0  0  0  0  0
    9.7410   -1.6770   22.8320 C   0  0  0  0  0  0  0  0  0  0  0  0
   11.1550   -2.1340   23.2320 C   0  0  0  0  0  0  0  0  0  0  0  0
    6.2820    0.1950   17.7810 N   0  0  0  0  0  0  0  0  0  0  0  0
    7.1600   -0.4310   18.5560 C   0  0  0  0  0  0  0  0  0  0  0  0
    6.9790   -0.2480   19.9910 C   0  0  0  0  0  0  0  0  0  0  0  0
    5.8640    0.5520   20.1500 C   0  0  0  0  0  0  0  0  0  0  0  0
    5.4650    0.8190   18.8330 C   0  0  0  0  0  0  0  0  0  0  0  0
    4.4000    1.6000   18.6210 N   0  0  0  0  0  0  0  0  0  0  0  0
    3.6880    2.0920   19.6930 C   0  0  0  0  0  0  0  0  0  0  0  0
    4.0590    1.8310   21.0180 C   0  0  0  0  0  0  0  0  0  0  0  0
    5.1410    1.0760   21.3520 C   0  0  0  0  0  0  0  0  0  0  0  0
  2  3  2  0
  3  4  1  0
  4  6  1  1
  1  7  1  0
  8  5  1  1
  7  8  1  0
  8  9  1  0
  3 10  1  0
  9 10  1  0
 10 11  1  0
  7 12  1  0
 11 12  1  0
 13 14  1  0
  4 15  1  0
 14 15  2  0
 15 16  1  0
 13 17  2  0
 16 17  1  0
 17 18  1  0
 18 19  1  0
 19 20  2  0
 16 21  2  0
 20 21  1  0
M  END
