x1093-x2779
     RDKit          3D

 28 34  0  0  0  0  0  0  0  0999 V2000
   13.2960   -1.0680   23.5150 C   0  0  0  0  0  0  0  0  0  0  0  0
    7.2970    0.9890   22.2360 O   0  0  0  0  0  0  0  0  0  0  0  0
    8.0130   -0.2420   22.2510 C   0  0  0  0  0  0  0  0  0  0  0  0
    7.4210   -3.0050   18.8050 C   0  0  0  0  0  0  0  0  0  0  0  0
    5.6300   -4.1470   19.8620 O   0  0  0  0  0  0  0  0  0  0  0  0
    6.5200   -3.2600   20.0260 C   0  0  0  0  0  0  0  0  0  0  0  0
   10.4200   -2.9400   23.1770 C   0  0  2  0  0  0  0  0  0  0  0  0
   11.8900   -0.7750   23.6960 N   0  0  0  0  0  0  0  0  0  0  0  0
   11.5780    0.5450   23.3880 C   0  0  0  0  0  0  0  0  0  0  0  0
   10.1910    0.8770   23.1670 C   0  0  0  0  0  0  0  0  0  0  0  0
    9.1830   -0.2570   23.2310 N   0  0  0  0  0  0  0  0  0  0  0  0
    9.9240   -1.5050   23.4740 C   0  0  2  0  0  0  0  0  0  0  0  0
   11.0900   -1.5690   22.9110 C   0  0  2  0  0  0  0  0  0  0  0  0
    6.6430    0.1840   17.8910 N   0  0  0  0  0  0  0  0  0  0  0  0
    7.4810   -0.6820   18.6060 C   0  0  0  0  0  0  0  0  0  0  0  0
    7.1990   -0.6770   19.9730 C   0  0  0  0  0  0  0  0  0  0  0  0
    6.0310    0.2780   20.1880 C   0  0  0  0  0  0  0  0  0  0  0  0
    5.7350    0.7870   18.8200 C   0  0  0  0  0  0  0  0  0  0  0  0
    4.7790    1.6590   18.4700 N   0  0  0  0  0  0  0  0  0  0  0  0
    4.0330    2.0810   19.5080 C   0  0  0  0  0  0  0  0  0  0  0  0
    4.2300    1.6390   20.9690 C   0  0  0  0  0  0  0  0  0  0  0  0
    5.2450    0.7360   21.2450 C   0  0  0  0  0  0  0  0  0  0  0  0
    6.7670   -2.4560   21.2400 N   0  0  0  0  0  0  0  0  0  0  0  0
    7.7380   -1.4080   21.1890 C   0  0  2  0  0  0  0  0  0  0  0  0
    9.0740   -2.0880   21.3430 C   0  0  0  0  0  0  0  0  0  0  0  0
    9.1320   -2.5480   22.6530 C   0  0  1  0  0  0  0  0  0  0  0  0
    7.8270   -2.8210   23.3940 C   0  0  0  0  0  0  0  0  0  0  0  0
    6.7770   -3.1910   22.4930 C   0  0  0  0  0  0  0  0  0  0  0  0
  2  3  2  0
  4  6  1  0
  5  6  2  0
  1  8  1  0
  8  9  1  0
  9 10  1  0
  3 11  1  0
 10 11  1  0
  7 12  1  0
 12 11  1  6
  7 13  1  6
 13  8  1  1
 12 13  1  0
 14 15  1  0
 15 16  2  0
 16 17  1  0
 14 18  2  0
 17 18  1  0
 18 19  1  0
 19 20  1  0
 20 21  2  0
 17 22  2  0
 21 22  1  0
  6 23  1  0
  3 24  1  0
 24 16  1  6
 23 24  1  0
 24 25  1  0
  7 26  1  0
 12 26  1  0
 25 26  1  0
 26 27  1  1
 23 28  1  0
 27 28  1  0
M  END
