x1093-x0678
     RDKit          3D

 19 21  0  0  0  0  0  0  0  0999 V2000
   13.3380   -2.0680   24.0680 C   0  0  0  0  0  0  0  0  0  0  0  0
    8.8510    1.3840   21.1650 O   0  0  0  0  0  0  0  0  0  0  0  0
    9.0040    0.2540   21.6640 C   0  0  0  0  0  0  0  0  0  0  0  0
    8.1380   -0.7580   21.1810 C   0  0  0  0  0  0  0  0  0  0  0  0
   12.3570   -1.2750   23.4900 N   0  0  0  0  0  0  0  0  0  0  0  0
   12.2790    0.2100   23.2830 C   0  0  0  0  0  0  0  0  0  0  0  0
   10.8000    0.7130   23.2690 C   0  0  0  0  0  0  0  0  0  0  0  0
    9.9110   -0.1280   22.6210 N   0  0  0  0  0  0  0  0  0  0  0  0
    9.9620   -1.4940   23.1430 C   0  0  0  0  0  0  0  0  0  0  0  0
   11.3140   -2.0880   22.8870 C   0  0  0  0  0  0  0  0  0  0  0  0
    6.3050    0.1130   18.0910 N   0  0  0  0  0  0  0  0  0  0  0  0
    7.1780   -0.4110   18.6640 C   0  0  0  0  0  0  0  0  0  0  0  0
    7.2150   -0.2620   20.1290 C   0  0  0  0  0  0  0  0  0  0  0  0
    6.0070    0.5700   20.3480 C   0  0  0  0  0  0  0  0  0  0  0  0
    5.5170    0.7520   19.0210 C   0  0  0  0  0  0  0  0  0  0  0  0
    4.4060    1.4560   18.6030 N   0  0  0  0  0  0  0  0  0  0  0  0
    3.6670    2.0650   19.6930 C   0  0  0  0  0  0  0  0  0  0  0  0
    4.1650    1.8860   21.1230 C   0  0  0  0  0  0  0  0  0  0  0  0
    5.3180    1.1480   21.4140 C   0  0  0  0  0  0  0  0  0  0  0  0
  2  3  2  0
  3  4  1  0
  1  5  1  0
  5  6  1  0
  6  7  1  0
  3  8  1  0
  7  8  1  0
  8  9  1  0
  5 10  1  0
  9 10  1  0
 11 12  1  0
  4 13  1  0
 12 13  2  0
 13 14  1  0
 11 15  1  0
 14 15  2  0
 15 16  1  0
 16 17  2  0
 17 18  1  0
 14 19  1  0
 18 19  2  0
M  END
