x1093-x1311
     RDKit          3D

 39 43  0  0  0  0  0  0  0  0999 V2000
    5.7940   -4.7970   20.0570 O   0  0  0  0  0  0  0  0  0  0  0  0
    6.6390   -4.5900   20.9610 C   0  0  0  0  0  0  0  0  0  0  0  0
    8.1380   -4.2850   20.7360 C   0  0  0  0  0  0  0  0  0  0  0  0
    6.2580   -4.5650   22.4680 C   0  0  2  0  0  0  0  0  0  0  0  0
    4.2190   -7.6400   25.0800 O   0  0  0  0  0  0  0  0  0  0  0  0
    2.3990   -5.9220   24.8620 O   0  0  0  0  0  0  0  0  0  0  0  0
   13.4650   -1.6330   23.6020 C   0  0  0  0  0  0  0  0  0  0  0  0
    8.8870    1.6640   21.1580 O   0  0  0  0  0  0  0  0  0  0  0  0
    8.9070    0.2820   21.5910 C   0  0  0  0  0  0  0  0  0  0  0  0
    7.9950   -0.8170   20.9790 C   0  0  1  0  0  0  0  0  0  0  0  0
    5.5660   -3.2670   22.5740 C   0  0  0  0  0  0  0  0  0  0  0  0
    6.1830   -2.3260   21.5430 C   0  0  0  0  0  0  0  0  0  0  0  0
    7.3160   -1.4490   22.0460 C   0  0  0  0  0  0  0  0  0  0  0  0
    8.2560   -5.7080   23.2700 C   0  0  0  0  0  0  0  0  0  0  0  0
    9.3910   -5.8600   24.0760 C   0  0  0  0  0  0  0  0  0  0  0  0
    9.7180   -4.8680   24.9610 C   0  0  0  0  0  0  0  0  0  0  0  0
    8.8210   -3.6550   25.0110 C   0  0  0  0  0  0  0  0  0  0  0  0
    7.7030   -3.5390   24.1990 C   0  0  0  0  0  0  0  0  0  0  0  0
    7.4260   -4.5730   23.3310 C   0  0  0  0  0  0  0  0  0  0  0  0
    4.6550   -6.3180   22.1000 C   0  0  0  0  0  0  0  0  0  0  0  0
    5.5020   -5.6660   22.8940 C   0  0  2  0  0  0  0  0  0  0  0  0
    4.7950   -5.3190   24.0610 C   0  0  0  0  0  0  0  0  0  0  0  0
    3.5920   -6.5580   24.3460 S   0  0  0  0  0  0  0  0  0  0  0  0
    3.4480   -6.9190   22.7180 C   0  0  0  0  0  0  0  0  0  0  0  0
   12.1580   -1.2320   23.6330 N   0  0  0  0  0  0  0  0  0  0  0  0
   11.9200    0.1470   23.4210 C   0  0  0  0  0  0  0  0  0  0  0  0
   10.6250    0.6650   23.4000 C   0  0  0  0  0  0  0  0  0  0  0  0
    9.7580   -0.1820   22.5600 N   0  0  0  0  0  0  0  0  0  0  0  0
    9.9350   -1.5580   22.8530 C   0  0  0  0  0  0  0  0  0  0  0  0
   11.2450   -1.9800   22.8880 C   0  0  0  0  0  0  0  0  0  0  0  0
    6.3030    0.1260   17.8350 N   0  0  0  0  0  0  0  0  0  0  0  0
    7.2930   -0.5720   18.6250 C   0  0  0  0  0  0  0  0  0  0  0  0
    7.1330   -0.3060   19.9600 C   0  0  0  0  0  0  0  0  0  0  0  0
    6.0150    0.5130   20.0870 C   0  0  0  0  0  0  0  0  0  0  0  0
    5.5220    0.8210   18.7760 C   0  0  0  0  0  0  0  0  0  0  0  0
    4.4520    1.6760   18.5790 N   0  0  0  0  0  0  0  0  0  0  0  0
    4.2020    1.8240   19.6580 C   0  0  0  0  0  0  0  0  0  0  0  0
    4.3360    1.7080   21.0080 C   0  0  0  0  0  0  0  0  0  0  0  0
    5.4430    0.9520   21.4210 C   0  0  0  0  0  0  0  0  0  0  0  0
  1  2  2  0
  2  3  1  0
  4  2  1  0
  8  9  2  0
  9 10  1  0
  4 11  1  6
 11 12  1  0
 10 13  1  1
 12 13  1  0
 14 15  2  0
 15 16  1  0
 16 17  2  0
 17 18  1  0
  4 19  1  0
 14 19  1  0
 18 19  2  0
  4 21  1  0
 21 20  1  6
 21 22  1  0
 23  5  1  0
  6 23  1  0
 22 23  1  0
 20 24  2  0
 23 24  1  0
  7 25  1  0
 25 26  1  0
 26 27  1  0
  9 28  1  0
 27 28  1  0
 28 29  1  0
 25 30  1  0
 29 30  1  0
 31 32  1  0
 10 33  1  0
 32 33  2  0
 33 34  1  0
 31 35  2  0
 34 35  1  0
 35 36  1  0
 36 37  1  0
 37 38  2  0
 34 39  2  0
 38 39  1  0
M  END
