x1093-x0691
     RDKit          3D

 40 44  0  0  0  0  0  0  0  0999 V2000
    3.9500   -6.9610   26.0510 O   0  0  0  0  0  0  0  0  0  0  0  0
    5.5930   -5.3160   26.8660 O   0  0  0  0  0  0  0  0  0  0  0  0
    5.7940   -4.6130   19.9480 O   0  0  0  0  0  0  0  0  0  0  0  0
    6.7360   -4.2130   20.6290 C   0  0  0  0  0  0  0  0  0  0  0  0
    8.0550   -3.5680   20.1470 C   0  0  0  0  0  0  0  0  0  0  0  0
    3.3060   -0.5110   25.9940 F   0  0  0  0  0  0  0  0  0  0  0  0
    4.6700   -5.7250   25.8280 S   0  0  0  0  0  0  0  0  0  0  0  0
   13.2850   -1.3410   23.4760 C   0  0  0  0  0  0  0  0  0  0  0  0
    8.7110    1.3730   21.2090 O   0  0  0  0  0  0  0  0  0  0  0  0
    8.8420    0.1910   21.5700 C   0  0  0  0  0  0  0  0  0  0  0  0
    7.9430   -0.9950   21.0190 C   0  0  1  0  0  0  0  0  0  0  0  0
    7.3080   -2.9470   22.7410 C   0  0  0  0  0  0  0  0  0  0  0  0
    7.0020   -1.6380   22.0170 C   0  0  0  0  0  0  0  0  0  0  0  0
    2.9720   -1.8020   25.8880 C   0  0  0  0  0  0  0  0  0  0  0  0
    3.9480   -2.9790   25.9060 C   0  0  0  0  0  0  0  0  0  0  0  0
    3.4510   -4.4300   25.7820 C   0  0  0  0  0  0  0  0  0  0  0  0
    2.0750   -4.7110   25.6420 C   0  0  0  0  0  0  0  0  0  0  0  0
    1.1410   -3.7010   25.6180 C   0  0  0  0  0  0  0  0  0  0  0  0
    1.5120   -2.2370   25.7370 C   0  0  0  0  0  0  0  0  0  0  0  0
    6.6650   -4.2800   22.1670 C   0  0  0  0  0  0  0  0  0  0  0  0
    5.3160   -4.1740   22.4280 C   0  0  0  0  0  0  0  0  0  0  0  0
    4.7460   -5.2270   23.1430 C   0  0  0  0  0  0  0  0  0  0  0  0
    5.5420   -5.4510   24.3710 N   0  0  0  0  0  0  0  0  0  0  0  0
    6.9610   -5.2520   24.1010 C   0  0  0  0  0  0  0  0  0  0  0  0
    7.3680   -5.3060   22.7790 C   0  0  0  0  0  0  0  0  0  0  0  0
   12.1630   -1.1280   23.5180 N   0  0  0  0  0  0  0  0  0  0  0  0
   11.9170    0.1880   23.4030 C   0  0  0  0  0  0  0  0  0  0  0  0
   10.5640    0.5590   23.3610 C   0  0  0  0  0  0  0  0  0  0  0  0
    9.7800   -0.3010   22.4470 N   0  0  0  0  0  0  0  0  0  0  0  0
   10.1210   -1.6150   22.3560 C   0  0  0  0  0  0  0  0  0  0  0  0
   11.4700   -1.8800   22.5460 C   0  0  0  0  0  0  0  0  0  0  0  0
    6.2670    0.1970   17.9380 N   0  0  0  0  0  0  0  0  0  0  0  0
    7.2510   -0.5310   18.6010 C   0  0  0  0  0  0  0  0  0  0  0  0
    7.0800   -0.3690   19.9640 C   0  0  0  0  0  0  0  0  0  0  0  0
    5.9930    0.4480   20.1040 C   0  0  0  0  0  0  0  0  0  0  0  0
    5.5050    0.7900   18.8690 C   0  0  0  0  0  0  0  0  0  0  0  0
    4.4350    1.5880   18.7060 N   0  0  0  0  0  0  0  0  0  0  0  0
    3.8410    2.0470   19.8350 C   0  0  0  0  0  0  0  0  0  0  0  0
    4.2390    1.7700   21.1520 C   0  0  0  0  0  0  0  0  0  0  0  0
    5.3440    0.9530   21.3620 C   0  0  0  0  0  0  0  0  0  0  0  0
  3  4  2  0
  4  5  1  0
  1  7  2  0
  2  7  2  0
  9 10  2  0
 10 11  1  0
 11 13  1  1
 12 13  1  0
  6 14  1  0
 14 15  2  0
  7 16  1  0
 15 16  1  0
 16 17  2  0
 17 18  1  0
 14 19  1  0
 18 19  2  0
 20  4  1  0
 12 20  1  0
 20 21  1  0
 21 22  1  0
  7 23  1  0
 22 23  1  0
 23 24  1  0
 20 25  1  0
 24 25  1  0
  8 26  1  0
 26 27  1  0
 27 28  1  0
 10 29  1  0
 28 29  1  0
 29 30  1  0
 26 31  1  0
 30 31  1  0
 32 33  1  0
 11 34  1  0
 33 34  2  0
 34 35  1  0
 32 36  1  0
 35 36  2  0
 36 37  1  0
 37 38  2  0
 38 39  1  0
 35 40  1  0
 39 40  2  0
M  END
