x1093-x1375
     RDKit          3D

 40 44  0  0  0  0  0  0  0  0999 V2000
    5.6680   -4.9760   20.0190 O   0  0  0  0  0  0  0  0  0  0  0  0
    6.5560   -4.5130   20.7250 C   0  0  0  0  0  0  0  0  0  0  0  0
    7.8890   -3.7400   20.3740 C   0  0  0  0  0  0  0  0  0  0  0  0
    6.4760   -4.5430   22.0990 N   0  0  0  0  0  0  0  0  0  0  0  0
    2.5670   -6.5240   23.7780 O   0  0  0  0  0  0  0  0  0  0  0  0
    4.5270   -7.6820   24.8290 O   0  0  0  0  0  0  0  0  0  0  0  0
   10.1060   -4.5670   26.7350 F   0  0  0  0  0  0  0  0  0  0  0  0
   13.2210   -1.4940   23.7280 C   0  0  0  0  0  0  0  0  0  0  0  0
    8.8930    1.5660   21.1960 O   0  0  0  0  0  0  0  0  0  0  0  0
    8.9890    0.3900   21.5710 C   0  0  0  0  0  0  0  0  0  0  0  0
    7.9980   -0.7380   21.1330 C   0  0  1  0  0  0  0  0  0  0  0  0
    7.1660   -3.4350   22.5280 C   0  0  1  0  0  0  0  0  0  0  0  0
    6.3420   -2.2220   22.2680 C   0  0  0  0  0  0  0  0  0  0  0  0
    7.1770   -0.9650   22.3900 C   0  0  0  0  0  0  0  0  0  0  0  0
    7.8950   -3.3850   23.7270 C   0  0  0  0  0  0  0  0  0  0  0  0
    8.7580   -3.5790   25.0320 C   0  0  0  0  0  0  0  0  0  0  0  0
    9.4150   -4.6810   25.6040 C   0  0  0  0  0  0  0  0  0  0  0  0
    9.3230   -5.8340   24.9820 C   0  0  0  0  0  0  0  0  0  0  0  0
    8.5460   -5.8490   23.7450 C   0  0  0  0  0  0  0  0  0  0  0  0
    7.9410   -4.7270   23.2410 C   0  0  0  0  0  0  0  0  0  0  0  0
    5.0720   -4.2820   24.0400 C   0  0  0  0  0  0  0  0  0  0  0  0
    5.1760   -4.7850   22.7600 C   0  0  2  0  0  0  0  0  0  0  0  0
    4.9580   -6.1730   22.7300 C   0  0  0  0  0  0  0  0  0  0  0  0
    3.9790   -6.5620   24.1070 S   0  0  0  0  0  0  0  0  0  0  0  0
    4.4290   -5.1260   24.9290 C   0  0  0  0  0  0  0  0  0  0  0  0
   12.3560   -1.0850   23.0920 N   0  0  0  0  0  0  0  0  0  0  0  0
   12.1020    0.2250   23.3390 C   0  0  0  0  0  0  0  0  0  0  0  0
   10.7540    0.6290   23.3470 C   0  0  0  0  0  0  0  0  0  0  0  0
    9.9350   -0.1560   22.4060 N   0  0  0  0  0  0  0  0  0  0  0  0
   10.1200   -1.5090   22.4260 C   0  0  0  0  0  0  0  0  0  0  0  0
   11.2070   -1.8920   23.1860 C   0  0  0  0  0  0  0  0  0  0  0  0
    6.3120    0.0900   17.9230 N   0  0  0  0  0  0  0  0  0  0  0  0
    7.2920   -0.5540   18.6700 C   0  0  0  0  0  0  0  0  0  0  0  0
    7.1170   -0.2540   20.0140 C   0  0  0  0  0  0  0  0  0  0  0  0
    5.9960    0.5310   20.0630 C   0  0  0  0  0  0  0  0  0  0  0  0
    5.5220    0.7630   18.7910 C   0  0  0  0  0  0  0  0  0  0  0  0
    4.4390    1.5500   18.5660 N   0  0  0  0  0  0  0  0  0  0  0  0
    3.7910    2.0230   19.6580 C   0  0  0  0  0  0  0  0  0  0  0  0
    4.1610    1.8320   20.9960 C   0  0  0  0  0  0  0  0  0  0  0  0
    5.2970    1.0860   21.2740 C   0  0  0  0  0  0  0  0  0  0  0  0
  1  2  2  0
  2  3  1  0
  2  4  1  0
  9 10  2  0
 10 11  1  0
  4 12  1  0
 12 13  1  1
 11 14  1  1
 13 14  1  0
 12 15  1  0
 15 16  2  0
  7 17  1  0
 16 17  1  0
 17 18  2  0
 18 19  1  0
 15 20  1  0
 19 20  2  0
 22  4  1  1
 21 22  1  0
 22 23  1  0
 24  5  1  0
  6 24  1  0
 23 24  1  0
 21 25  2  0
 24 25  1  0
  8 26  1  0
 26 27  1  0
 27 28  1  0
 10 29  1  0
 28 29  1  0
 29 30  1  0
 26 31  1  0
 30 31  1  0
 32 33  1  0
 11 34  1  0
 33 34  2  0
 34 35  1  0
 32 36  2  0
 35 36  1  0
 36 37  1  0
 37 38  1  0
 38 39  2  0
 35 40  2  0
 39 40  1  0
M  END
