x1093-x0771
     RDKit          3D

 41 45  0  0  0  0  0  0  0  0999 V2000
    0.7160   -1.3950   26.1970 C   0  0  0  0  0  0  0  0  0  0  0  0
    4.3520   -6.9660   26.1600 O   0  0  0  0  0  0  0  0  0  0  0  0
    6.0550   -5.2690   26.6570 O   0  0  0  0  0  0  0  0  0  0  0  0
    5.7940   -4.2960   19.8200 O   0  0  0  0  0  0  0  0  0  0  0  0
    1.9870   -6.1610   25.0090 C   0  0  0  0  0  0  0  0  0  0  0  0
    6.7140   -3.9670   20.5610 C   0  0  0  0  0  0  0  0  0  0  0  0
    8.0950   -3.4470   20.1760 C   0  0  0  0  0  0  0  0  0  0  0  0
    4.9690   -5.7060   25.8100 S   0  0  0  0  0  0  0  0  0  0  0  0
   13.3960   -1.8010   23.4850 C   0  0  0  0  0  0  0  0  0  0  0  0
    8.7000    1.3380   21.1950 O   0  0  0  0  0  0  0  0  0  0  0  0
    8.7540    0.1620   21.5830 C   0  0  0  0  0  0  0  0  0  0  0  0
    7.8490   -0.9800   21.0760 C   0  0  1  0  0  0  0  0  0  0  0  0
    7.0060   -2.7720   22.7850 C   0  0  0  0  0  0  0  0  0  0  0  0
    6.9240   -1.3390   22.2340 C   0  0  0  0  0  0  0  0  0  0  0  0
    1.7310   -2.4860   26.0750 C   0  0  0  0  0  0  0  0  0  0  0  0
    1.3410   -3.7610   25.6000 C   0  0  0  0  0  0  0  0  0  0  0  0
    2.2880   -4.7780   25.4970 C   0  0  0  0  0  0  0  0  0  0  0  0
    3.7370   -4.4970   25.9000 C   0  0  0  0  0  0  0  0  0  0  0  0
    4.0280   -3.2110   26.3490 C   0  0  0  0  0  0  0  0  0  0  0  0
    3.0590   -2.2490   26.4300 C   0  0  0  0  0  0  0  0  0  0  0  0
    6.4170   -4.0400   22.0510 C   0  0  0  0  0  0  0  0  0  0  0  0
    5.0580   -4.3080   22.1770 C   0  0  0  0  0  0  0  0  0  0  0  0
    4.6220   -4.4460   23.4800 C   0  0  0  0  0  0  0  0  0  0  0  0
    5.4820   -5.4090   24.1980 N   0  0  0  0  0  0  0  0  0  0  0  0
    6.8990   -5.2120   23.9850 C   0  0  0  0  0  0  0  0  0  0  0  0
    7.3360   -4.9970   22.6910 C   0  0  0  0  0  0  0  0  0  0  0  0
   12.1790   -1.1950   23.5560 N   0  0  0  0  0  0  0  0  0  0  0  0
   11.9340    0.1920   23.3400 C   0  0  0  0  0  0  0  0  0  0  0  0
   10.6020    0.5930   23.4110 C   0  0  0  0  0  0  0  0  0  0  0  0
    9.7430   -0.2610   22.5680 N   0  0  0  0  0  0  0  0  0  0  0  0
   10.1610   -1.6600   22.5080 C   0  0  0  0  0  0  0  0  0  0  0  0
   10.9970   -1.9610   23.5750 C   0  0  0  0  0  0  0  0  0  0  0  0
    6.3080    0.2160   17.8270 N   0  0  0  0  0  0  0  0  0  0  0  0
    7.2430   -0.5000   18.5590 C   0  0  0  0  0  0  0  0  0  0  0  0
    7.0910   -0.4020   19.8930 C   0  0  0  0  0  0  0  0  0  0  0  0
    6.0080    0.3860   19.9580 C   0  0  0  0  0  0  0  0  0  0  0  0
    5.6080    0.7120   18.6670 C   0  0  0  0  0  0  0  0  0  0  0  0
    4.4940    1.5350   18.5170 N   0  0  0  0  0  0  0  0  0  0  0  0
    3.7480    2.0250   19.6800 C   0  0  0  0  0  0  0  0  0  0  0  0
    4.0980    1.7240   21.0060 C   0  0  0  0  0  0  0  0  0  0  0  0
    5.3180    0.8410   21.2360 C   0  0  0  0  0  0  0  0  0  0  0  0
  4  6  2  0
  6  7  1  0
  2  8  2  0
  3  8  2  0
 10 11  2  0
 11 12  1  0
 12 14  1  1
 13 14  1  0
  1 15  1  0
 15 16  2  0
  5 17  1  0
 16 17  1  0
  8 18  1  0
 17 18  2  0
 18 19  1  0
 15 20  1  0
 19 20  2  0
 21  6  1  0
 13 21  1  0
 21 22  1  0
 22 23  1  0
  8 24  1  0
 23 24  1  0
 24 25  1  0
 21 26  1  0
 25 26  1  0
  9 27  1  0
 27 28  1  0
 28 29  1  0
 11 30  1  0
 29 30  1  0
 30 31  1  0
 27 32  1  0
 31 32  1  0
 33 34  1  0
 12 35  1  0
 34 35  2  0
 35 36  1  0
 33 37  2  0
 36 37  1  0
 37 38  1  0
 38 39  1  0
 39 40  2  0
 36 41  2  0
 40 41  1  0
M  END
