x1093-x1334
     RDKit          3D

 35 41  0  0  0  0  0  0  0  0999 V2000
    7.4250   -3.0400   18.7980 C   0  0  0  0  0  0  0  0  0  0  0  0
    5.6250   -4.1320   19.8270 O   0  0  0  0  0  0  0  0  0  0  0  0
    7.5070   -5.2720   28.4890 Cl  0  0  0  0  0  0  0  0  0  0  0  0
    6.4980   -3.2500   20.0090 C   0  0  0  0  0  0  0  0  0  0  0  0
    9.5230   -3.4140   23.4700 C   0  0  2  0  0  0  0  0  0  0  0  0
   13.1760   -0.9880   23.1600 C   0  0  0  0  0  0  0  0  0  0  0  0
    7.4650    0.6030   22.4160 O   0  0  0  0  0  0  0  0  0  0  0  0
    8.0490   -0.4780   22.5250 C   0  0  0  0  0  0  0  0  0  0  0  0
    6.6410   -2.4590   21.2530 N   0  0  0  0  0  0  0  0  0  0  0  0
    7.8060   -1.6660   21.5450 C   0  0  2  0  0  0  0  0  0  0  0  0
    8.9110   -2.6400   21.9510 C   0  0  2  0  0  0  0  0  0  0  0  0
    8.6500   -3.4870   22.6820 N   0  0  0  0  0  0  0  0  0  0  0  0
    7.3350   -3.4750   23.3420 C   0  0  0  0  0  0  0  0  0  0  0  0
    6.1860   -3.1620   22.4330 C   0  0  0  0  0  0  0  0  0  0  0  0
    9.7620   -5.2740   25.2030 C   0  0  0  0  0  0  0  0  0  0  0  0
    9.1450   -4.0520   24.8060 C   0  0  0  0  0  0  0  0  0  0  0  0
    7.9350   -3.4780   26.0160 S   0  0  0  0  0  0  0  0  0  0  0  0
    8.2900   -4.9220   27.0060 C   0  0  0  0  0  0  0  0  0  0  0  0
    9.3330   -5.8190   26.4270 C   0  0  0  0  0  0  0  0  0  0  0  0
   11.8470   -1.0010   23.4670 N   0  0  0  0  0  0  0  0  0  0  0  0
   11.2760    0.2390   23.4680 C   0  0  0  0  0  0  0  0  0  0  0  0
    9.9040    0.2460   23.7930 C   0  0  0  0  0  0  0  0  0  0  0  0
    9.0580   -0.8380   23.4110 N   0  0  0  0  0  0  0  0  0  0  0  0
    9.8080   -1.9500   22.9710 C   0  0  1  0  0  0  0  0  0  0  0  0
   11.1620   -1.8070   22.6680 C   0  0  0  0  0  0  0  0  0  0  0  0
    6.4300    0.1660   18.4030 N   0  0  0  0  0  0  0  0  0  0  0  0
    7.3380   -0.5290   19.2700 C   0  0  0  0  0  0  0  0  0  0  0  0
    6.6990   -0.0970   20.4420 C   0  0  0  0  0  0  0  0  0  0  0  0
    5.6250    0.6950   20.3480 C   0  0  0  0  0  0  0  0  0  0  0  0
    5.5100    0.8210   19.0800 C   0  0  0  0  0  0  0  0  0  0  0  0
    4.5280    1.5600   18.5020 N   0  0  0  0  0  0  0  0  0  0  0  0
    3.6230    2.1850   19.4820 C   0  0  0  0  0  0  0  0  0  0  0  0
    3.8430    1.9790   20.8570 C   0  0  0  0  0  0  0  0  0  0  0  0
    4.8520    1.2230   21.4750 C   0  0  0  0  0  0  0  0  0  0  0  0
    8.1950   -1.1940   20.3420 C   0  0  0  0  0  0  0  0  0  0  0  0
  1  4  1  0
  2  4  2  0
  7  8  2  0
  4  9  1  0
  8 10  1  0
  9 10  1  0
 10 11  1  0
  5 12  1  0
 11 12  1  1
 12 13  1  0
  9 14  1  0
 13 14  1  0
  5 16  1  1
 15 16  2  0
 16 17  1  0
  3 18  1  0
 17 18  1  0
 15 19  1  0
 18 19  2  0
  6 20  1  0
 20 21  1  0
 21 22  1  0
  8 23  1  0
 22 23  1  0
  5 24  1  0
 11 24  1  0
 23 24  1  0
 20 25  1  0
 24 25  1  6
 26 27  1  0
 27 28  2  0
 28 29  1  0
 26 30  1  0
 29 30  2  0
 30 31  1  0
 31 32  2  0
 32 33  1  0
 29 34  1  0
 33 34  2  0
 10 35  1  6
 27 35  1  0
M  END
