x1093-x2052
     RDKit          3D

 39 43  0  0  0  0  0  0  0  0999 V2000
    5.6400   -1.7110   25.3510 C   0  0  0  0  0  0  0  0  0  0  0  0
    4.5180   -1.8860   25.8230 O   0  0  0  0  0  0  0  0  0  0  0  0
    6.6410   -1.0450   26.0640 N   0  0  0  0  0  0  0  0  0  0  0  0
    5.5250   -4.3930   19.9270 O   0  0  0  0  0  0  0  0  0  0  0  0
    5.5510    2.1670   30.5090 O   0  0  0  0  0  0  0  0  0  0  0  0
    6.4190   -3.5680   20.1720 C   0  0  0  0  0  0  0  0  0  0  0  0
    7.2890   -3.0630   19.0220 C   0  0  0  0  0  0  0  0  0  0  0  0
    6.0770    3.2770   30.5610 C   0  0  0  0  0  0  0  0  0  0  0  0
   13.3850   -1.3280   23.6170 C   0  0  0  0  0  0  0  0  0  0  0  0
    8.8560    1.3280   21.2490 O   0  0  0  0  0  0  0  0  0  0  0  0
    8.8750    0.1370   21.5850 C   0  0  0  0  0  0  0  0  0  0  0  0
    8.0080   -0.9580   20.9490 C   0  0  1  0  0  0  0  0  0  0  0  0
    6.7230   -3.0690   21.4820 N   0  0  0  0  0  0  0  0  0  0  0  0
    6.9320   -1.6260   21.7940 C   0  0  1  0  0  0  0  0  0  0  0  0
    7.0300   -1.3640   23.2550 C   0  0  0  0  0  0  0  0  0  0  0  0
    5.9880   -2.1710   23.9720 C   0  0  1  0  0  0  0  0  0  0  0  0
    6.1950   -3.5670   23.8230 C   0  0  0  0  0  0  0  0  0  0  0  0
    6.9320   -3.9460   22.6780 C   0  0  0  0  0  0  0  0  0  0  0  0
    6.6260    2.0210   28.4310 N   0  0  0  0  0  0  0  0  0  0  0  0
    6.8750    1.1230   27.2930 C   0  0  0  0  0  0  0  0  0  0  0  0
    6.3630   -0.1920   27.2270 C   0  0  0  0  0  0  0  0  0  0  0  0
    5.5870   -0.6970   28.2580 C   0  0  0  0  0  0  0  0  0  0  0  0
    5.3590    0.1610   29.3280 C   0  0  0  0  0  0  0  0  0  0  0  0
    5.8670    1.4610   29.3920 C   0  0  0  0  0  0  0  0  0  0  0  0
   12.0690   -1.1390   23.5810 N   0  0  0  0  0  0  0  0  0  0  0  0
   11.8030    0.1680   23.3480 C   0  0  0  0  0  0  0  0  0  0  0  0
   10.4840    0.6150   23.3600 C   0  0  0  0  0  0  0  0  0  0  0  0
    9.7580   -0.2370   22.5540 N   0  0  0  0  0  0  0  0  0  0  0  0
    9.9250   -1.5670   22.8080 C   0  0  0  0  0  0  0  0  0  0  0  0
   11.2280   -1.9970   23.0000 C   0  0  0  0  0  0  0  0  0  0  0  0
    6.2480    0.2820   17.7680 N   0  0  0  0  0  0  0  0  0  0  0  0
    7.2900   -0.4850   18.5030 C   0  0  0  0  0  0  0  0  0  0  0  0
    7.1710   -0.3610   19.8530 C   0  0  0  0  0  0  0  0  0  0  0  0
    6.0570    0.4440   20.0430 C   0  0  0  0  0  0  0  0  0  0  0  0
    5.5360    0.8220   18.8090 C   0  0  0  0  0  0  0  0  0  0  0  0
    4.4680    1.6180   18.6770 N   0  0  0  0  0  0  0  0  0  0  0  0
    3.8620    2.0070   19.8620 C   0  0  0  0  0  0  0  0  0  0  0  0
    4.3550    1.6350   21.1220 C   0  0  0  0  0  0  0  0  0  0  0  0
    5.4890    0.8430   21.2360 C   0  0  0  0  0  0  0  0  0  0  0  0
  1  2  2  0
  1  3  1  0
  4  6  2  0
  6  7  1  0
  5  8  1  0
 10 11  2  0
 12 11  1  1
  6 13  1  0
 12 14  1  0
 13 14  1  0
 14 15  1  1
 16  1  1  1
 15 16  1  0
 16 17  1  0
 13 18  1  0
 17 18  1  0
 19 20  2  0
  3 21  1  0
 20 21  1  0
 21 22  2  0
 22 23  1  0
  5 24  1  0
 19 24  1  0
 23 24  2  0
  9 25  1  0
 25 26  1  0
 26 27  1  0
 11 28  1  0
 27 28  1  0
 28 29  1  0
 25 30  1  0
 29 30  1  0
 31 32  1  0
 12 33  1  0
 32 33  2  0
 33 34  1  0
 31 35  2  0
 34 35  1  0
 35 36  1  0
 36 37  1  0
 37 38  2  0
 34 39  2  0
 38 39  1  0
M  END
