x1093-x0820
     RDKit          3D

 36 40  0  0  0  0  0  0  0  0999 V2000
    6.7870   -4.8650   21.8200 N   0  0  0  0  0  0  0  0  0  0  0  0
    6.8050   -2.5850   22.2760 C   0  0  0  0  0  0  0  0  0  0  0  0
    5.3910   -5.3160   20.0410 O   0  0  0  0  0  0  0  0  0  0  0  0
    7.1150   -3.9490   22.7870 C   0  0  1  0  0  0  0  0  0  0  0  0
    6.2770   -4.6350   20.5060 C   0  0  0  0  0  0  0  0  0  0  0  0
    6.8860   -3.5170   19.6300 C   0  0  0  0  0  0  0  0  0  0  0  0
   13.4480   -1.9250   23.4500 C   0  0  0  0  0  0  0  0  0  0  0  0
    9.0350    1.6680   21.1680 O   0  0  0  0  0  0  0  0  0  0  0  0
    8.9890    0.5550   21.7040 C   0  0  0  0  0  0  0  0  0  0  0  0
    7.7620   -0.3140   21.6600 C   0  0  2  0  0  0  0  0  0  0  0  0
    7.9830   -1.7930   21.8460 C   0  0  0  0  0  0  0  0  0  0  0  0
    6.3440   -4.1840   23.8720 C   0  0  0  0  0  0  0  0  0  0  0  0
    6.9300   -4.2930   25.3030 C   0  0  0  0  0  0  0  0  0  0  0  0
    6.1220   -4.5260   26.4530 C   0  0  0  0  0  0  0  0  0  0  0  0
    4.7640   -4.6500   26.1860 C   0  0  0  0  0  0  0  0  0  0  0  0
    4.1780   -4.5480   24.7930 C   0  0  0  0  0  0  0  0  0  0  0  0
    4.9770   -4.3200   23.6930 C   0  0  0  0  0  0  0  0  0  0  0  0
    6.3710   -4.6800   27.9650 C   0  0  0  0  0  0  0  0  0  0  0  0
    7.7810   -4.5170   27.9270 C   0  0  0  0  0  0  0  0  0  0  0  0
    8.7540   -4.2860   26.9260 C   0  0  0  0  0  0  0  0  0  0  0  0
    8.3490   -4.1710   25.6210 C   0  0  0  0  0  0  0  0  0  0  0  0
   12.3410   -1.1520   23.5820 N   0  0  0  0  0  0  0  0  0  0  0  0
   12.2380    0.1830   23.3970 C   0  0  0  0  0  0  0  0  0  0  0  0
   10.9470    0.7340   23.3660 C   0  0  0  0  0  0  0  0  0  0  0  0
   10.0800   -0.0260   22.4540 N   0  0  0  0  0  0  0  0  0  0  0  0
   10.2000   -1.3640   22.6060 C   0  0  0  0  0  0  0  0  0  0  0  0
   11.0630   -1.7200   23.6090 C   0  0  0  0  0  0  0  0  0  0  0  0
    6.4030   -0.0350   18.1720 N   0  0  0  0  0  0  0  0  0  0  0  0
    7.3420   -0.5190   19.0510 C   0  0  0  0  0  0  0  0  0  0  0  0
    7.0510   -0.0900   20.3440 C   0  0  0  0  0  0  0  0  0  0  0  0
    5.9160    0.6340   20.1990 C   0  0  0  0  0  0  0  0  0  0  0  0
    5.5160    0.6790   18.8920 C   0  0  0  0  0  0  0  0  0  0  0  0
    4.4120    1.3510   18.5040 N   0  0  0  0  0  0  0  0  0  0  0  0
    3.6800    1.9960   19.4640 C   0  0  0  0  0  0  0  0  0  0  0  0
    4.0080    2.0030   20.8270 C   0  0  0  0  0  0  0  0  0  0  0  0
    5.1320    1.3310   21.2580 C   0  0  0  0  0  0  0  0  0  0  0  0
  1  4  1  0
  4  2  1  6
  1  5  1  0
  3  5  2  0
  5  6  1  0
  8  9  2  0
  9 10  1  0
  2 11  1  0
 10 11  1  6
  4 12  1  0
 12 13  2  0
 13 14  1  0
 14 15  2  0
 15 16  1  0
 12 17  1  0
 16 17  2  0
 14 18  1  0
 18 19  2  0
 19 20  1  0
 13 21  1  0
 20 21  2  0
  7 22  1  0
 22 23  1  0
 23 24  1  0
  9 25  1  0
 24 25  1  0
 25 26  1  0
 22 27  1  0
 26 27  1  0
 28 29  1  0
 10 30  1  0
 29 30  2  0
 30 31  1  0
 28 32  1  0
 31 32  2  0
 32 33  1  0
 33 34  2  0
 34 35  1  0
 31 36  1  0
 35 36  2  0
M  END
