x1093-x0759
     RDKit          3D

 29 33  0  0  0  0  0  0  0  0999 V2000
   13.2530   -1.9130   23.1450 C   0  0  0  0  0  0  0  0  0  0  0  0
    8.5560    1.3880   21.1800 O   0  0  0  0  0  0  0  0  0  0  0  0
    8.8400    0.2460   21.5800 C   0  0  0  0  0  0  0  0  0  0  0  0
    8.2090   -0.8490   20.9410 C   0  0  2  0  0  0  0  0  0  0  0  0
   12.7520   -0.9090   25.0130 F   0  0  0  0  0  0  0  0  0  0  0  0
    5.5590   -4.1970   19.8410 O   0  0  0  0  0  0  0  0  0  0  0  0
    6.5090   -3.4210   20.0520 C   0  0  0  0  0  0  0  0  0  0  0  0
    7.4330   -2.9990   18.9010 C   0  0  0  0  0  0  0  0  0  0  0  0
   12.2640   -0.9950   23.7810 C   0  0  1  0  0  0  0  0  0  0  0  0
   12.1120    0.3630   23.1660 C   0  0  0  0  0  0  0  0  0  0  0  0
   10.6650    0.7820   23.2710 C   0  0  0  0  0  0  0  0  0  0  0  0
    9.7870   -0.1240   22.5630 N   0  0  0  0  0  0  0  0  0  0  0  0
   10.0190   -1.5540   22.7830 C   0  0  1  0  0  0  0  0  0  0  0  0
   11.0490   -1.7310   23.9240 C   0  0  0  0  0  0  0  0  0  0  0  0
    6.1740    0.1490   17.9740 N   0  0  0  0  0  0  0  0  0  0  0  0
    7.1990   -0.4660   18.6130 C   0  0  0  0  0  0  0  0  0  0  0  0
    7.2160   -0.3330   19.9550 C   0  0  0  0  0  0  0  0  0  0  0  0
    5.9940    0.4910   20.1880 C   0  0  0  0  0  0  0  0  0  0  0  0
    5.4300    0.7420   18.9420 C   0  0  0  0  0  0  0  0  0  0  0  0
    4.1840    1.5600   18.7980 N   0  0  0  0  0  0  0  0  0  0  0  0
    3.6380    2.0270   19.9540 C   0  0  0  0  0  0  0  0  0  0  0  0
    4.2190    1.7610   21.1970 C   0  0  0  0  0  0  0  0  0  0  0  0
    5.3790    1.0180   21.4200 C   0  0  0  0  0  0  0  0  0  0  0  0
    6.8510   -2.8710   21.4140 N   0  0  0  0  0  0  0  0  0  0  0  0
    8.0220   -2.1640   21.6990 C   0  0  2  0  0  0  0  0  0  0  0  0
    8.5960   -2.1070   22.9960 C   0  0  1  0  0  0  0  0  0  0  0  0
    8.6120   -3.4550   23.4900 O   0  0  0  0  0  0  0  0  0  0  0  0
    7.3880   -4.0580   23.3560 C   0  0  0  0  0  0  0  0  0  0  0  0
    6.4090   -3.4990   22.5220 C   0  0  0  0  0  0  0  0  0  0  0  0
  2  3  2  0
  3  4  1  0
  6  7  2  0
  7  8  1  0
  9  1  1  6
  9  5  1  0
  9 10  1  0
 10 11  1  0
  3 12  1  0
 11 12  1  0
 12 13  1  0
  9 14  1  0
 13 14  1  1
 15 16  1  0
  4 17  1  1
 16 17  2  0
 17 18  1  0
 15 19  1  0
 18 19  2  0
 19 20  1  0
 20 21  2  0
 21 22  1  0
 18 23  1  0
 22 23  2  0
  7 24  1  0
  4 25  1  0
 25 24  1  1
 13 26  1  0
 25 26  1  0
 26 27  1  6
 27 28  1  0
 24 29  1  0
 28 29  1  0
M  END
