x1093-x1351
     RDKit          3D

 38 42  0  0  0  0  0  0  0  0999 V2000
    7.0140   -3.2180   19.2680 C   0  0  0  0  0  0  0  0  0  0  0  0
    5.2210   -4.6120   19.8870 O   0  0  0  0  0  0  0  0  0  0  0  0
    6.1910   -3.9910   20.2680 C   0  0  0  0  0  0  0  0  0  0  0  0
    5.8910   -3.1980   25.5920 N   0  0  0  0  0  0  0  0  0  0  0  0
    8.0320   -2.8190   26.4690 O   0  0  0  0  0  0  0  0  0  0  0  0
    6.8950   -2.4140   26.3100 C   0  0  0  0  0  0  0  0  0  0  0  0
   13.4000   -1.0120   22.9170 C   0  0  0  0  0  0  0  0  0  0  0  0
    8.7270    1.4260   21.1370 O   0  0  0  0  0  0  0  0  0  0  0  0
    8.8520    0.2650   21.5930 C   0  0  0  0  0  0  0  0  0  0  0  0
    7.9580   -0.8470   20.9560 C   0  0  1  0  0  0  0  0  0  0  0  0
    7.0150   -1.6060   21.8450 C   0  0  0  0  0  0  0  0  0  0  0  0
    6.5880   -4.0210   21.6020 N   0  0  0  0  0  0  0  0  0  0  0  0
    7.4640   -3.0090   22.2290 C   0  0  2  0  0  0  0  0  0  0  0  0
    7.4450   -3.1190   23.7180 C   0  0  0  0  0  0  0  0  0  0  0  0
    6.0030   -3.3540   24.1400 C   0  0  1  0  0  0  0  0  0  0  0  0
    5.4540   -4.5580   23.6360 C   0  0  0  0  0  0  0  0  0  0  0  0
    6.1260   -5.0830   22.5300 C   0  0  0  0  0  0  0  0  0  0  0  0
    7.1170   -0.6380   28.0520 C   0  0  0  0  0  0  0  0  0  0  0  0
    6.8120    0.5900   28.6610 C   0  0  0  0  0  0  0  0  0  0  0  0
    5.8600    1.4140   28.0970 C   0  0  0  0  0  0  0  0  0  0  0  0
    5.2480    0.9640   26.9300 C   0  0  0  0  0  0  0  0  0  0  0  0
    5.5180   -0.2530   26.2840 C   0  0  0  0  0  0  0  0  0  0  0  0
    6.4840   -1.0750   26.8700 C   0  0  0  0  0  0  0  0  0  0  0  0
   12.1150   -0.7200   23.1660 N   0  0  0  0  0  0  0  0  0  0  0  0
   11.8060    0.7140   23.1670 C   0  0  0  0  0  0  0  0  0  0  0  0
   10.3970    0.7040   23.2430 C   0  0  0  0  0  0  0  0  0  0  0  0
    9.6920   -0.1520   22.5690 N   0  0  0  0  0  0  0  0  0  0  0  0
    9.9530   -1.4400   22.8300 C   0  0  0  0  0  0  0  0  0  0  0  0
   11.2430   -1.6130   22.3870 C   0  0  0  0  0  0  0  0  0  0  0  0
    6.2360    0.3060   17.8670 N   0  0  0  0  0  0  0  0  0  0  0  0
    7.3200   -0.4590   18.5710 C   0  0  0  0  0  0  0  0  0  0  0  0
    7.1390   -0.2840   19.9320 C   0  0  0  0  0  0  0  0  0  0  0  0
    6.0320    0.5100   20.1010 C   0  0  0  0  0  0  0  0  0  0  0  0
    5.5190    0.8460   18.8720 C   0  0  0  0  0  0  0  0  0  0  0  0
    4.4050    1.6400   18.8020 N   0  0  0  0  0  0  0  0  0  0  0  0
    3.7820    2.1060   20.0250 C   0  0  0  0  0  0  0  0  0  0  0  0
    4.3020    1.7640   21.2810 C   0  0  0  0  0  0  0  0  0  0  0  0
    5.4290    0.9680   21.3910 C   0  0  0  0  0  0  0  0  0  0  0  0
  1  3  1  0
  2  3  2  0
  4  6  1  0
  5  6  2  0
  8  9  2  0
  9 10  1  0
 10 11  1  1
  3 12  1  0
 13 11  1  1
 12 13  1  0
 13 14  1  0
 15  4  1  1
 14 15  1  0
 15 16  1  0
 12 17  1  0
 16 17  1  0
 18 19  2  0
 19 20  1  0
 20 21  2  0
 21 22  1  0
  6 23  1  0
 18 23  1  0
 22 23  2  0
  7 24  1  0
 24 25  1  0
 25 26  1  0
  9 27  1  0
 26 27  1  0
 27 28  1  0
 24 29  1  0
 28 29  1  0
 30 31  1  0
 10 32  1  0
 31 32  2  0
 32 33  1  0
 30 34  1  0
 33 34  2  0
 34 35  1  0
 35 36  2  0
 36 37  1  0
 33 38  1  0
 37 38  2  0
M  END
