x1093-x3077
     RDKit          3D

 31 35  0  0  0  0  0  0  0  0999 V2000
    6.9500   -3.1620   19.1050 C   0  0  0  0  0  0  0  0  0  0  0  0
    5.3020   -4.6420   19.9150 O   0  0  0  0  0  0  0  0  0  0  0  0
   13.1250   -1.9230   21.7970 Cl  0  0  0  0  0  0  0  0  0  0  0  0
    6.1720   -3.8420   20.1960 C   0  0  0  0  0  0  0  0  0  0  0  0
    8.7100   -2.1320   24.1140 C   0  0  0  0  0  0  0  0  0  0  0  0
   13.5330   -0.3930   22.4550 C   0  0  0  0  0  0  0  0  0  0  0  0
    9.1090    0.6960   21.5180 O   0  0  0  0  0  0  0  0  0  0  0  0
    9.3620   -0.5160   21.3760 C   0  0  0  0  0  0  0  0  0  0  0  0
    7.8570   -0.5090   21.6600 C   0  0  2  0  0  0  0  0  0  0  0  0
    6.5370   -3.5880   21.5060 N   0  0  0  0  0  0  0  0  0  0  0  0
    7.1520   -4.5720   22.4000 C   0  0  0  0  0  0  0  0  0  0  0  0
    7.3420   -3.6890   23.5760 C   0  0  2  0  0  0  0  0  0  0  0  0
    6.0270   -2.9760   23.6200 C   0  0  0  0  0  0  0  0  0  0  0  0
    6.1680   -2.3500   22.2710 C   0  0  1  0  0  0  0  0  0  0  0  0
    8.1220   -2.4720   23.1710 N   0  0  0  0  0  0  0  0  0  0  0  0
    7.2490   -1.5290   22.6300 C   0  0  1  0  0  0  0  0  0  0  0  0
   10.0670   -0.1620   24.4040 C   0  0  0  0  0  0  0  0  0  0  0  0
   11.3600    0.5370   24.0780 C   0  0  0  0  0  0  0  0  0  0  0  0
   12.4950    0.2030   23.3080 C   0  0  0  0  0  0  0  0  0  0  0  0
   12.0600   -1.0830   22.8460 C   0  0  0  0  0  0  0  0  0  0  0  0
   10.8940   -1.7770   23.1040 C   0  0  0  0  0  0  0  0  0  0  0  0
    9.8600   -1.3800   23.8770 C   0  0  0  0  0  0  0  0  0  0  0  0
    6.4350   -0.0650   18.2120 N   0  0  0  0  0  0  0  0  0  0  0  0
    7.3880   -0.6040   19.0200 C   0  0  0  0  0  0  0  0  0  0  0  0
    7.1260   -0.2330   20.3370 C   0  0  0  0  0  0  0  0  0  0  0  0
    5.9710    0.5340   20.2960 C   0  0  0  0  0  0  0  0  0  0  0  0
    5.5890    0.6130   18.9950 C   0  0  0  0  0  0  0  0  0  0  0  0
    4.4670    1.3210   18.6200 N   0  0  0  0  0  0  0  0  0  0  0  0
    3.7940    1.9060   19.6240 C   0  0  0  0  0  0  0  0  0  0  0  0
    4.2350    1.7890   20.9590 C   0  0  0  0  0  0  0  0  0  0  0  0
    5.3440    1.1160   21.4810 C   0  0  0  0  0  0  0  0  0  0  0  0
  1  4  1  0
  2  4  2  0
  7  8  2  0
  9  8  1  6
  4 10  1  0
 10 11  1  0
 12 11  1  6
 12 13  1  0
 14 10  1  6
 13 14  1  0
  5 15  1  0
 12 15  1  0
  9 16  1  0
 14 16  1  0
 16 15  1  6
 17 18  2  0
  6 19  1  0
 18 19  1  0
  3 20  1  0
 19 20  2  0
 20 21  1  0
  5 22  1  0
 17 22  1  0
 21 22  2  0
 23 24  1  0
  9 25  1  0
 24 25  2  0
 25 26  1  0
 23 27  1  0
 26 27  2  0
 27 28  1  0
 28 29  2  0
 29 30  1  0
 26 31  1  0
 30 31  2  0
M  END
