x1093-x0434
     RDKit          3D

 20 22  0  0  0  0  0  0  0  0999 V2000
   13.1300   -1.8810   24.4410 C   0  0  0  0  0  0  0  0  0  0  0  0
    8.7200    1.2410   21.2890 O   0  0  0  0  0  0  0  0  0  0  0  0
    8.8230    0.1760   21.9290 C   0  0  2  0  0  0  0  0  0  0  0  0
    8.1720   -0.8510   21.1790 C   0  0  0  0  0  0  0  0  0  0  0  0
    8.2400    0.1390   23.2490 N   0  0  0  0  0  0  0  0  0  0  0  0
   12.3910   -1.2390   23.4880 N   0  0  0  0  0  0  0  0  0  0  0  0
   12.2760    0.1640   23.3240 C   0  0  0  0  0  0  0  0  0  0  0  0
   10.8470    0.7290   23.0750 C   0  0  0  0  0  0  0  0  0  0  0  0
   10.0440   -0.2270   22.2740 N   0  0  0  0  0  0  0  0  0  0  0  0
   10.3590   -1.4380   22.5210 C   0  0  0  0  0  0  0  0  0  0  0  0
   11.8320   -1.7860   22.6190 C   0  0  0  0  0  0  0  0  0  0  0  0
    6.3380    0.1090   17.9330 N   0  0  0  0  0  0  0  0  0  0  0  0
    7.3220   -0.5320   18.6290 C   0  0  0  0  0  0  0  0  0  0  0  0
    7.2590   -0.3290   20.1060 C   0  0  0  0  0  0  0  0  0  0  0  0
    6.0450    0.5140   20.3020 C   0  0  0  0  0  0  0  0  0  0  0  0
    5.6340    0.6990   18.9530 C   0  0  0  0  0  0  0  0  0  0  0  0
    4.5520    1.4410   18.5940 N   0  0  0  0  0  0  0  0  0  0  0  0
    3.8360    1.9640   19.5910 C   0  0  0  0  0  0  0  0  0  0  0  0
    4.1830    1.8060   21.0560 C   0  0  0  0  0  0  0  0  0  0  0  0
    5.3270    1.0640   21.3830 C   0  0  0  0  0  0  0  0  0  0  0  0
  3  2  1  0
  3  4  1  0
  3  5  1  1
  1  6  1  0
  6  7  1  0
  7  8  1  0
  3  9  1  0
  8  9  1  0
  9 10  1  0
  6 11  1  0
 10 11  1  0
 12 13  1  0
  4 14  1  0
 13 14  2  0
 14 15  1  0
 12 16  2  0
 15 16  1  0
 16 17  1  0
 17 18  1  0
 18 19  2  0
 15 20  2  0
 19 20  1  0
M  END
