x1093-x1493
     RDKit          3D

 33 36  0  0  0  0  0  0  0  0999 V2000
    4.8890   -6.0570   26.1660 C   0  0  0  0  0  0  0  0  0  0  0  0
    7.2250   -5.5380   26.3160 O   0  0  0  0  0  0  0  0  0  0  0  0
    6.1990   -5.5270   25.6470 C   0  0  0  0  0  0  0  0  0  0  0  0
    5.2360   -4.6640   19.9170 O   0  0  0  0  0  0  0  0  0  0  0  0
    6.3180   -4.3150   20.3110 C   0  0  0  0  0  0  0  0  0  0  0  0
    7.1910   -3.3580   19.4900 C   0  0  0  0  0  0  0  0  0  0  0  0
   13.0440   -1.4050   24.6320 C   0  0  0  0  0  0  0  0  0  0  0  0
    9.0630    1.5840   21.2870 O   0  0  0  0  0  0  0  0  0  0  0  0
    9.0620    0.2130   21.6980 C   0  0  0  0  0  0  0  0  0  0  0  0
    8.1610   -0.8630   21.1030 C   0  0  1  0  0  0  0  0  0  0  0  0
    6.5670   -2.5230   22.2680 C   0  0  0  0  0  0  0  0  0  0  0  0
    7.5090   -1.3250   22.4060 C   0  0  0  0  0  0  0  0  0  0  0  0
    6.1710   -4.9990   24.2960 N   0  0  0  0  0  0  0  0  0  0  0  0
    7.3120   -4.1640   23.8540 C   0  0  0  0  0  0  0  0  0  0  0  0
    7.3870   -3.8110   22.4810 C   0  0  1  0  0  0  0  0  0  0  0  0
    6.8100   -4.7870   21.5240 N   0  0  0  0  0  0  0  0  0  0  0  0
    6.3290   -6.0400   22.1150 C   0  0  0  0  0  0  0  0  0  0  0  0
    5.4050   -5.7380   23.2720 C   0  0  0  0  0  0  0  0  0  0  0  0
   12.4300   -1.0840   23.3280 N   0  0  0  0  0  0  0  0  0  0  0  0
   12.0860    0.2460   23.1580 C   0  0  0  0  0  0  0  0  0  0  0  0
   10.7310    0.4890   23.3840 C   0  0  0  0  0  0  0  0  0  0  0  0
    9.8760   -0.3440   22.6690 N   0  0  0  0  0  0  0  0  0  0  0  0
   10.3940   -1.5720   22.3340 C   0  0  0  0  0  0  0  0  0  0  0  0
   11.5270   -2.0080   22.9980 C   0  0  0  0  0  0  0  0  0  0  0  0
    6.2690    0.0570   17.9900 N   0  0  0  0  0  0  0  0  0  0  0  0
    7.2710   -0.5600   18.6840 C   0  0  0  0  0  0  0  0  0  0  0  0
    7.2000   -0.3360   20.0540 C   0  0  0  0  0  0  0  0  0  0  0  0
    6.0750    0.4650   20.2340 C   0  0  0  0  0  0  0  0  0  0  0  0
    5.5880    0.6530   18.9700 C   0  0  0  0  0  0  0  0  0  0  0  0
    4.4790    1.3970   18.7070 N   0  0  0  0  0  0  0  0  0  0  0  0
    3.8410    1.9750   19.8970 C   0  0  0  0  0  0  0  0  0  0  0  0
    4.4130    1.7260   21.1620 C   0  0  0  0  0  0  0  0  0  0  0  0
    5.5580    0.9770   21.5180 C   0  0  0  0  0  0  0  0  0  0  0  0
  1  3  1  0
  2  3  2  0
  4  5  2  0
  5  6  1  0
  8  9  2  0
  9 10  1  0
 10 12  1  1
 11 12  1  0
  3 13  1  0
 13 14  1  0
 15 11  1  1
 14 15  1  0
  5 16  1  0
 15 16  1  0
 16 17  1  0
 13 18  1  0
 17 18  1  0
  7 19  1  0
 19 20  1  0
 20 21  1  0
  9 22  1  0
 21 22  1  0
 22 23  1  0
 19 24  1  0
 23 24  1  0
 25 26  1  0
 10 27  1  0
 26 27  2  0
 27 28  1  0
 25 29  1  0
 28 29  2  0
 29 30  1  0
 30 31  2  0
 31 32  1  0
 28 33  1  0
 32 33  2  0
M  END
