x1093-x0978
     RDKit          3D

 36 38  0  0  0  0  0  0  0  0999 V2000
    2.1080   -5.6660   23.1400 N   0  0  0  0  0  0  0  0  0  0  0  0
    2.1750   -7.9560   24.4590 C   0  0  0  0  0  0  0  0  0  0  0  0
    4.4990   -7.6370   24.5980 O   0  0  0  0  0  0  0  0  0  0  0  0
    3.4180   -7.1110   24.4190 C   0  0  1  0  0  0  0  0  0  0  0  0
    5.4400   -5.5820   21.7170 N   0  0  0  0  0  0  0  0  0  0  0  0
    0.8120   -7.3320   21.9500 O   0  0  0  0  0  0  0  0  0  0  0  0
    3.3800   -6.3990   23.1800 C   0  0  2  0  0  0  0  0  0  0  0  0
    4.6850   -4.1670   23.6640 O   0  0  0  0  0  0  0  0  0  0  0  0
    0.8590   -6.2640   22.5490 C   0  0  0  0  0  0  0  0  0  0  0  0
   -0.3900   -5.3580   22.7810 C   0  0  0  0  0  0  0  0  0  0  0  0
    4.5330   -5.3320   22.8800 C   0  0  0  0  0  0  0  0  0  0  0  0
    6.4530   -5.0180   21.3860 C   0  0  1  0  0  0  0  0  0  0  0  0
    6.4710   -4.4500   19.9430 C   0  0  0  0  0  0  0  0  0  0  0  0
    5.3830   -3.5750   19.4290 C   0  0  0  0  0  0  0  0  0  0  0  0
   13.3470   -1.6300   23.8080 C   0  0  0  0  0  0  0  0  0  0  0  0
    8.8150    1.4190   21.1250 O   0  0  0  0  0  0  0  0  0  0  0  0
    8.9180    0.1090   21.7020 C   0  0  0  0  0  0  0  0  0  0  0  0
    7.7520   -0.6370   21.5810 C   0  0  2  0  0  0  0  0  0  0  0  0
    6.9810   -3.9280   22.3450 C   0  0  0  0  0  0  0  0  0  0  0  0
    6.7510   -2.6340   21.8070 C   0  0  0  0  0  0  0  0  0  0  0  0
    7.9770   -1.9900   21.6790 C   0  0  0  0  0  0  0  0  0  0  0  0
   12.2450   -1.1610   23.2050 N   0  0  0  0  0  0  0  0  0  0  0  0
   12.1240    0.1880   23.3740 C   0  0  0  0  0  0  0  0  0  0  0  0
   10.7480    0.5040   23.2550 C   0  0  0  0  0  0  0  0  0  0  0  0
   10.0330   -0.4130   22.3410 N   0  0  0  0  0  0  0  0  0  0  0  0
   10.1590   -1.6910   22.7390 C   0  0  0  0  0  0  0  0  0  0  0  0
   11.1540   -2.0170   23.5940 C   0  0  0  0  0  0  0  0  0  0  0  0
    6.4360   -0.0190   18.1170 N   0  0  0  0  0  0  0  0  0  0  0  0
    7.3020   -0.5720   18.9950 C   0  0  0  0  0  0  0  0  0  0  0  0
    7.0170   -0.2350   20.3230 C   0  0  0  0  0  0  0  0  0  0  0  0
    5.8970    0.5700   20.3210 C   0  0  0  0  0  0  0  0  0  0  0  0
    5.5420    0.7090   18.9860 C   0  0  0  0  0  0  0  0  0  0  0  0
    4.4750    1.4460   18.5550 N   0  0  0  0  0  0  0  0  0  0  0  0
    3.7660    2.0360   19.5220 C   0  0  0  0  0  0  0  0  0  0  0  0
    4.0440    1.9490   20.8790 C   0  0  0  0  0  0  0  0  0  0  0  0
    5.1340    1.2050   21.2990 C   0  0  0  0  0  0  0  0  0  0  0  0
  4  2  1  6
  3  4  1  0
  7  1  1  1
  4  7  1  0
  1  9  1  0
  6  9  2  0
  9 10  1  0
  5 11  1  0
  7 11  1  0
  8 11  2  0
  5 12  1  0
 12 13  1  6
 13 14  2  3
 16 17  2  0
 17 18  1  0
 12 19  1  0
 19 20  1  0
 18 21  1  6
 20 21  1  0
 15 22  1  0
 22 23  1  0
 23 24  1  0
 17 25  1  0
 24 25  1  0
 25 26  1  0
 22 27  1  0
 26 27  1  0
 28 29  1  0
 18 30  1  0
 29 30  2  0
 30 31  1  0
 28 32  1  0
 31 32  2  0
 32 33  1  0
 33 34  2  0
 34 35  1  0
 31 36  1  0
 35 36  2  0
M  END
