x1093-x0755
     RDKit          3D

 41 45  0  0  0  0  0  0  0  0999 V2000
    4.5350   -6.3320   26.6490 O   0  0  0  0  0  0  0  0  0  0  0  0
    6.3320   -4.6690   26.8340 O   0  0  0  0  0  0  0  0  0  0  0  0
    5.7630   -5.3090   20.0060 O   0  0  0  0  0  0  0  0  0  0  0  0
    6.4190   -4.4150   20.4820 C   0  0  0  0  0  0  0  0  0  0  0  0
    7.2170   -3.4240   19.5960 C   0  0  0  0  0  0  0  0  0  0  0  0
    2.1180   -5.6340   25.7340 F   0  0  0  0  0  0  0  0  0  0  0  0
    5.6020   -2.0120   26.1810 F   0  0  0  0  0  0  0  0  0  0  0  0
    5.2500   -5.2190   26.0640 S   0  0  0  0  0  0  0  0  0  0  0  0
   13.3130   -1.4860   23.5430 C   0  0  0  0  0  0  0  0  0  0  0  0
    8.9720    1.4180   21.1000 O   0  0  0  0  0  0  0  0  0  0  0  0
    8.9250    0.3240   21.6760 C   0  0  0  0  0  0  0  0  0  0  0  0
    7.6270   -0.5650   21.6000 C   0  0  2  0  0  0  0  0  0  0  0  0
    6.4730   -2.7400   22.3710 C   0  0  0  0  0  0  0  0  0  0  0  0
    7.7490   -2.0380   21.8790 C   0  0  0  0  0  0  0  0  0  0  0  0
    2.5460   -4.3680   25.8160 C   0  0  0  0  0  0  0  0  0  0  0  0
    3.9980   -3.9260   25.9720 C   0  0  0  0  0  0  0  0  0  0  0  0
    4.3410   -2.4320   26.0490 C   0  0  0  0  0  0  0  0  0  0  0  0
    3.3360   -1.4430   25.9860 C   0  0  0  0  0  0  0  0  0  0  0  0
    1.9920   -1.7330   25.8530 C   0  0  0  0  0  0  0  0  0  0  0  0
    1.5700   -3.1920   25.7620 C   0  0  0  0  0  0  0  0  0  0  0  0
    6.3270   -4.2680   22.0140 C   0  0  0  0  0  0  0  0  0  0  0  0
    7.4150   -4.7930   22.7000 C   0  0  0  0  0  0  0  0  0  0  0  0
    7.2130   -4.8340   24.1020 C   0  0  0  0  0  0  0  0  0  0  0  0
    5.8350   -5.3190   24.4490 N   0  0  0  0  0  0  0  0  0  0  0  0
    5.1150   -5.7090   23.2780 C   0  0  0  0  0  0  0  0  0  0  0  0
    5.0590   -4.7910   22.2810 C   0  0  0  0  0  0  0  0  0  0  0  0
   12.2010   -1.2010   23.5930 N   0  0  0  0  0  0  0  0  0  0  0  0
   12.0260    0.1270   23.4720 C   0  0  0  0  0  0  0  0  0  0  0  0
   10.7050    0.5950   23.3930 C   0  0  0  0  0  0  0  0  0  0  0  0
    9.9070   -0.2280   22.4670 N   0  0  0  0  0  0  0  0  0  0  0  0
   10.1110   -1.5730   22.5050 C   0  0  0  0  0  0  0  0  0  0  0  0
   11.4520   -1.9150   22.6340 C   0  0  0  0  0  0  0  0  0  0  0  0
    6.2770    0.0140   18.1430 N   0  0  0  0  0  0  0  0  0  0  0  0
    7.2290   -0.5880   18.9740 C   0  0  0  0  0  0  0  0  0  0  0  0
    6.9380   -0.2170   20.3030 C   0  0  0  0  0  0  0  0  0  0  0  0
    5.8430    0.5700   20.2120 C   0  0  0  0  0  0  0  0  0  0  0  0
    5.4430    0.7170   18.9230 C   0  0  0  0  0  0  0  0  0  0  0  0
    4.3770    1.4640   18.5870 N   0  0  0  0  0  0  0  0  0  0  0  0
    3.6930    2.0690   19.6000 C   0  0  0  0  0  0  0  0  0  0  0  0
    4.0010    1.9900   20.9650 C   0  0  0  0  0  0  0  0  0  0  0  0
    5.0980    1.2330   21.3240 C   0  0  0  0  0  0  0  0  0  0  0  0
  3  4  2  0
  4  5  1  0
  1  8  2  0
  2  8  2  0
 10 11  2  0
 11 12  1  0
 12 14  1  6
 13 14  1  0
  6 15  1  0
  8 16  1  0
 15 16  2  0
  7 17  1  0
 16 17  1  0
 17 18  2  0
 18 19  1  0
 15 20  1  0
 19 20  2  0
 21  4  1  0
 13 21  1  0
 21 22  1  0
 22 23  1  0
  8 24  1  0
 23 24  1  0
 24 25  1  0
 21 26  1  0
 25 26  1  0
  9 27  1  0
 27 28  1  0
 28 29  1  0
 11 30  1  0
 29 30  1  0
 30 31  1  0
 27 32  1  0
 31 32  1  0
 33 34  1  0
 12 35  1  0
 34 35  2  0
 35 36  1  0
 33 37  1  0
 36 37  2  0
 37 38  1  0
 38 39  2  0
 39 40  1  0
 36 41  1  0
 40 41  2  0
M  END
