x1093-x1374
     RDKit          3D

 40 44  0  0  0  0  0  0  0  0999 V2000
    9.9550   -4.5800   26.6670 C   0  0  0  0  0  0  0  0  0  0  0  0
    6.4660   -4.4900   21.9520 N   0  0  0  0  0  0  0  0  0  0  0  0
    6.2300   -4.5480   20.5480 C   0  0  0  0  0  0  0  0  0  0  0  0
    5.4140   -5.3060   20.0390 O   0  0  0  0  0  0  0  0  0  0  0  0
    7.0760   -3.5510   19.6610 C   0  0  0  0  0  0  0  0  0  0  0  0
    2.8260   -7.3520   22.9820 O   0  0  0  0  0  0  0  0  0  0  0  0
    4.3370   -7.6350   24.9090 O   0  0  0  0  0  0  0  0  0  0  0  0
   13.4080   -1.7530   23.5650 C   0  0  0  0  0  0  0  0  0  0  0  0
    9.0820    2.0350   21.1680 O   0  0  0  0  0  0  0  0  0  0  0  0
    8.9550    0.6720   21.5920 C   0  0  0  0  0  0  0  0  0  0  0  0
    7.7350   -0.1800   21.1830 C   0  0  2  0  0  0  0  0  0  0  0  0
    7.4350   -3.4710   22.2930 C   0  0  1  0  0  0  0  0  0  0  0  0
    6.9320   -2.2020   21.7530 C   0  0  0  0  0  0  0  0  0  0  0  0
    8.0650   -1.4920   21.0830 C   0  0  0  0  0  0  0  0  0  0  0  0
    9.2610   -4.6700   25.3560 C   0  0  0  0  0  0  0  0  0  0  0  0
    8.7140   -3.5230   24.7590 C   0  0  0  0  0  0  0  0  0  0  0  0
    8.0430   -3.3700   23.5180 C   0  0  0  0  0  0  0  0  0  0  0  0
    8.0830   -4.8450   23.0680 C   0  0  0  0  0  0  0  0  0  0  0  0
    8.5870   -5.9850   23.6280 C   0  0  0  0  0  0  0  0  0  0  0  0
    9.1980   -5.8820   24.7980 C   0  0  0  0  0  0  0  0  0  0  0  0
    4.8400   -4.5160   23.6470 C   0  0  0  0  0  0  0  0  0  0  0  0
    5.8160   -5.2780   23.0310 C   0  0  1  0  0  0  0  0  0  0  0  0
    5.2270   -6.5110   22.7210 C   0  0  0  0  0  0  0  0  0  0  0  0
    3.8750   -6.8160   23.8100 S   0  0  0  0  0  0  0  0  0  0  0  0
    3.6380   -5.1810   24.1840 C   0  0  0  0  0  0  0  0  0  0  0  0
   12.1010   -1.1420   23.6500 N   0  0  0  0  0  0  0  0  0  0  0  0
   12.1300    0.1600   23.2670 C   0  0  0  0  0  0  0  0  0  0  0  0
   10.8480    0.7300   23.2890 C   0  0  0  0  0  0  0  0  0  0  0  0
    9.9390   -0.0560   22.4440 N   0  0  0  0  0  0  0  0  0  0  0  0
    9.9250   -1.4930   22.7390 C   0  0  0  0  0  0  0  0  0  0  0  0
   11.2340   -1.9250   22.8660 C   0  0  0  0  0  0  0  0  0  0  0  0
    6.2220    0.3100   17.9370 N   0  0  0  0  0  0  0  0  0  0  0  0
    7.2250   -0.2280   18.7130 C   0  0  0  0  0  0  0  0  0  0  0  0
    6.9710    0.1430   20.0370 C   0  0  0  0  0  0  0  0  0  0  0  0
    5.8440    0.8710   20.1150 C   0  0  0  0  0  0  0  0  0  0  0  0
    5.3160    1.0310   18.8640 C   0  0  0  0  0  0  0  0  0  0  0  0
    4.0960    1.7910   18.6880 N   0  0  0  0  0  0  0  0  0  0  0  0
    3.6110    2.2480   19.8390 C   0  0  0  0  0  0  0  0  0  0  0  0
    4.1490    2.0770   21.1150 C   0  0  0  0  0  0  0  0  0  0  0  0
    5.3340    1.3740   21.4200 C   0  0  0  0  0  0  0  0  0  0  0  0
  2  3  1  0
  3  4  2  0
  3  5  1  0
  9 10  2  0
 10 11  1  0
  2 12  1  0
 12 13  1  1
 11 14  1  6
 13 14  1  0
  1 15  1  0
 15 16  2  0
 12 17  1  0
 16 17  1  0
 17 18  2  0
 18 19  1  0
 15 20  1  0
 19 20  2  0
 22  2  1  6
 21 22  1  0
 22 23  1  0
 24  6  1  0
  7 24  1  0
 23 24  1  0
 21 25  2  0
 24 25  1  0
  8 26  1  0
 26 27  1  0
 27 28  1  0
 10 29  1  0
 28 29  1  0
 29 30  1  0
 26 31  1  0
 30 31  1  0
 32 33  1  0
 11 34  1  0
 33 34  2  0
 34 35  1  0
 32 36  1  0
 35 36  2  0
 36 37  1  0
 37 38  2  0
 38 39  1  0
 35 40  1  0
 39 40  2  0
M  END
