x1093-x0426
     RDKit          3D

 32 35  0  0  0  0  0  0  0  0999 V2000
    2.1210    1.6230   23.8990 C   0  0  0  0  0  0  0  0  0  0  0  0
    1.9970    0.3900   23.9500 O   0  0  0  0  0  0  0  0  0  0  0  0
    3.1250    2.3770   23.3090 N   0  0  0  0  0  0  0  0  0  0  0  0
    4.4320    1.7970   23.3460 C   0  0  0  0  0  0  0  0  0  0  0  0
    2.6390    4.2430   25.2560 F   0  0  0  0  0  0  0  0  0  0  0  0
    1.3810    3.7760   25.2720 C   0  0  0  0  0  0  0  0  0  0  0  0
    1.0780    2.4350   24.5860 C   0  0  0  0  0  0  0  0  0  0  0  0
   -0.3430    2.0140   24.6640 C   0  0  0  0  0  0  0  0  0  0  0  0
   -1.2560    2.8020   25.3080 C   0  0  0  0  0  0  0  0  0  0  0  0
   -0.9620    4.1340   25.9900 C   0  0  0  0  0  0  0  0  0  0  0  0
    0.3820    4.5390   25.9200 C   0  0  0  0  0  0  0  0  0  0  0  0
    5.4360    0.4660   20.1520 C   0  0  0  0  0  0  0  0  0  0  0  0
    6.0510   -0.3070   19.1580 C   0  0  0  0  0  0  0  0  0  0  0  0
    5.9860    0.3010   17.7810 N   0  0  0  0  0  0  0  0  0  0  0  0
    5.2890    1.5560   17.5580 C   0  0  0  0  0  0  0  0  0  0  0  0
    4.7230    2.1990   18.5800 C   0  0  0  0  0  0  0  0  0  0  0  0
    4.8370    1.6790   19.8110 C   0  0  0  0  0  0  0  0  0  0  0  0
    4.4470    2.2000   20.9320 C   0  0  0  0  0  0  0  0  0  0  0  0
    4.7490    1.3860   21.9460 C   0  0  0  0  0  0  0  0  0  0  0  0
    5.3550    0.1780   21.5750 C   0  0  0  0  0  0  0  0  0  0  0  0
   13.4130   -1.8820   23.6660 C   0  0  0  0  0  0  0  0  0  0  0  0
    9.0940    1.7890   21.3040 O   0  0  0  0  0  0  0  0  0  0  0  0
    9.0500    0.4980   21.7440 C   0  0  0  0  0  0  0  0  0  0  0  0
    8.2520   -0.5740   20.9930 C   0  0  0  0  0  0  0  0  0  0  0  0
   12.1110   -1.2310   23.7980 N   0  0  0  0  0  0  0  0  0  0  0  0
   12.1430    0.1430   23.2610 C   0  0  0  0  0  0  0  0  0  0  0  0
   10.7850    0.8030   23.3290 C   0  0  0  0  0  0  0  0  0  0  0  0
    9.7310   -0.0130   22.9370 N   0  0  0  0  0  0  0  0  0  0  0  0
    9.7660   -1.4610   23.1080 C   0  0  0  0  0  0  0  0  0  0  0  0
   11.1670   -2.0120   23.1160 C   0  0  0  0  0  0  0  0  0  0  0  0
    5.9780   -1.0400   21.0770 C   0  0  0  0  0  0  0  0  0  0  0  0
    7.2040   -1.1530   21.7000 C   0  0  0  0  0  0  0  0  0  0  0  0
  1  2  2  0
  1  3  1  0
  3  4  1  0
  5  6  1  0
  1  7  1  0
  6  7  2  0
  7  8  1  0
  8  9  2  0
  9 10  1  0
  6 11  1  0
 10 11  2  0
 12 13  2  0
 13 14  1  0
 14 15  1  0
 15 16  2  0
 12 17  1  0
 16 17  1  0
 17 18  2  0
  4 19  1  0
 18 19  1  0
 12 20  1  0
 19 20  2  0
 22 23  2  0
 23 24  1  0
 21 25  1  0
 25 26  1  0
 26 27  1  0
 23 28  1  0
 27 28  1  0
 28 29  1  0
 25 30  1  0
 29 30  1  0
 20 31  1  0
 24 32  1  0
 31 32  1  0
M  END
