x1093-x1348
     RDKit          3D

 36 40  0  0  0  0  0  0  0  0999 V2000
    6.9760   -3.8440   21.3920 N   0  0  0  0  0  0  0  0  0  0  0  0
    7.8150   -5.1800   27.6880 C   0  0  0  0  0  0  0  0  0  0  0  0
    7.3860   -4.7120   26.6210 O   0  0  0  0  0  0  0  0  0  0  0  0
    5.3510   -4.2740   19.8060 O   0  0  0  0  0  0  0  0  0  0  0  0
    6.4370   -3.7950   20.0890 C   0  0  0  0  0  0  0  0  0  0  0  0
    7.3480   -3.1420   19.0430 C   0  0  0  0  0  0  0  0  0  0  0  0
   13.2890   -1.5010   23.9140 C   0  0  0  0  0  0  0  0  0  0  0  0
    8.9190    1.6450   21.2360 O   0  0  0  0  0  0  0  0  0  0  0  0
    9.0100    0.4710   21.6490 C   0  0  0  0  0  0  0  0  0  0  0  0
    8.1250   -0.5710   20.9240 C   0  0  1  0  0  0  0  0  0  0  0  0
    7.9940   -2.9170   21.8370 C   0  0  0  0  0  0  0  0  0  0  0  0
    7.4690   -1.5170   21.8970 C   0  0  0  0  0  0  0  0  0  0  0  0
    6.3530   -5.4220   26.0840 C   0  0  0  0  0  0  0  0  0  0  0  0
    6.1020   -5.3030   24.5860 C   0  0  0  0  0  0  0  0  0  0  0  0
    5.0690   -5.9950   23.9340 C   0  0  0  0  0  0  0  0  0  0  0  0
    4.2360   -6.8160   24.6640 C   0  0  0  0  0  0  0  0  0  0  0  0
    4.4820   -6.9310   26.1690 C   0  0  0  0  0  0  0  0  0  0  0  0
    5.5150   -6.2460   26.8250 C   0  0  0  0  0  0  0  0  0  0  0  0
    6.8500   -4.5090   23.7130 N   0  0  0  0  0  0  0  0  0  0  0  0
    6.3850   -4.6010   22.4610 C   0  0  0  0  0  0  0  0  0  0  0  0
    5.0610   -5.6340   22.1950 S   0  0  0  0  0  0  0  0  0  0  0  0
   12.0540   -1.0520   23.6160 N   0  0  0  0  0  0  0  0  0  0  0  0
   12.1090    0.2720   23.3620 C   0  0  0  0  0  0  0  0  0  0  0  0
   10.8020    0.7780   23.4050 C   0  0  0  0  0  0  0  0  0  0  0  0
    9.8140    0.0030   22.6380 N   0  0  0  0  0  0  0  0  0  0  0  0
   10.0680   -1.3300   22.5120 C   0  0  0  0  0  0  0  0  0  0  0  0
   11.3550   -1.8230   22.6100 C   0  0  0  0  0  0  0  0  0  0  0  0
    6.2250    0.2920   17.8820 N   0  0  0  0  0  0  0  0  0  0  0  0
    7.2180   -0.2570   18.6140 C   0  0  0  0  0  0  0  0  0  0  0  0
    7.1230   -0.0530   19.9730 C   0  0  0  0  0  0  0  0  0  0  0  0
    5.9820    0.6740   20.2220 C   0  0  0  0  0  0  0  0  0  0  0  0
    5.4340    0.8910   18.9500 C   0  0  0  0  0  0  0  0  0  0  0  0
    4.2830    1.5860   18.7290 N   0  0  0  0  0  0  0  0  0  0  0  0
    3.6880    2.0520   19.8300 C   0  0  0  0  0  0  0  0  0  0  0  0
    4.1530    1.8840   21.1240 C   0  0  0  0  0  0  0  0  0  0  0  0
    5.3280    1.1850   21.3480 C   0  0  0  0  0  0  0  0  0  0  0  0
  2  3  1  0
  1  5  1  0
  4  5  2  0
  5  6  1  0
  8  9  2  0
  9 10  1  0
  1 11  1  0
 10 12  1  1
 11 12  1  0
  3 13  1  0
 13 14  2  0
 14 15  1  0
 15 16  2  0
 16 17  1  0
 13 18  1  0
 17 18  2  0
 14 19  1  0
  1 20  1  0
 19 20  2  0
 15 21  1  0
 20 21  1  0
  7 22  1  0
 22 23  1  0
 23 24  1  0
  9 25  1  0
 24 25  1  0
 25 26  1  0
 22 27  1  0
 26 27  1  0
 28 29  1  0
 10 30  1  0
 29 30  2  0
 30 31  1  0
 28 32  1  0
 31 32  2  0
 32 33  1  0
 33 34  2  0
 34 35  1  0
 31 36  1  0
 35 36  2  0
M  END
