x1093-x0540
     RDKit          3D

 30 34  0  0  0  0  0  0  0  0999 V2000
    2.9800    1.4730   24.2160 O   0  0  0  0  0  0  0  0  0  0  0  0
    2.8830    2.2720   23.1410 C   0  0  0  0  0  0  0  0  0  0  0  0
    3.8140    2.1950   22.0710 N   0  0  0  0  0  0  0  0  0  0  0  0
    5.0080    1.7060   22.5530 C   0  0  0  0  0  0  0  0  0  0  0  0
    5.0410    0.3060   22.7710 C   0  0  0  0  0  0  0  0  0  0  0  0
    1.9070    3.2340   22.9500 N   0  0  0  0  0  0  0  0  0  0  0  0
    5.8520    0.4590   20.5740 C   0  0  1  0  0  0  0  0  0  0  0  0
    6.8870    0.4090   19.4420 C   0  0  2  0  0  0  0  0  0  0  0  0
    6.2360    0.7200   18.1010 N   0  0  0  0  0  0  0  0  0  0  0  0
    5.0650    1.2360   18.3040 C   0  0  0  0  0  0  0  0  0  0  0  0
    4.6400    1.3320   19.7390 C   0  0  2  0  0  0  0  0  0  0  0  0
    4.4480    0.2540   20.2880 C   0  0  2  0  0  0  0  0  0  0  0  0
    0.7630    4.5280   24.4580 C   0  0  0  0  0  0  0  0  0  0  0  0
   -0.5850    4.8560   25.1140 C   0  0  0  0  0  0  0  0  0  0  0  0
   -1.7060    4.5690   24.3160 C   0  0  0  0  0  0  0  0  0  0  0  0
   -1.6150    3.3060   23.7660 C   0  0  0  0  0  0  0  0  0  0  0  0
   -0.3200    3.0360   22.9940 C   0  0  0  0  0  0  0  0  0  0  0  0
    0.8240    3.3130   23.7690 C   0  0  0  0  0  0  0  0  0  0  0  0
    3.6260    1.5900   20.7090 C   0  0  1  0  0  0  0  0  0  0  0  0
   13.2390   -1.6740   23.8940 C   0  0  0  0  0  0  0  0  0  0  0  0
    8.6770    1.3370   21.0710 O   0  0  0  0  0  0  0  0  0  0  0  0
    8.8380    0.0060   21.4060 C   0  0  0  0  0  0  0  0  0  0  0  0
    8.0990   -1.1020   20.9110 C   0  0  0  0  0  0  0  0  0  0  0  0
   11.9860   -1.1460   23.6680 N   0  0  0  0  0  0  0  0  0  0  0  0
   11.9730    0.2130   23.0890 C   0  0  0  0  0  0  0  0  0  0  0  0
   10.6180    0.5780   22.8610 C   0  0  0  0  0  0  0  0  0  0  0  0
    9.7940   -0.3340   22.3050 N   0  0  0  0  0  0  0  0  0  0  0  0
    9.9750   -1.6290   22.6480 C   0  0  0  0  0  0  0  0  0  0  0  0
   11.2590   -2.0200   22.9740 C   0  0  0  0  0  0  0  0  0  0  0  0
    7.4760   -0.9210   19.6160 C   0  0  0  0  0  0  0  0  0  0  0  0
  1  2  2  0
  2  3  1  0
  3  4  1  0
  4  5  1  0
  2  6  1  0
  7  8  1  6
  8  9  1  0
  9 10  2  0
  7 11  1  0
 11 10  1  6
  7 12  1  0
 11 12  1  0
 13 14  1  0
 14 15  1  0
 15 16  1  0
 16 17  1  0
  6 18  1  0
 13 18  1  0
 17 18  1  0
 19  3  1  1
 11 19  1  0
 12 19  1  1
 21 22  2  0
 22 23  1  0
 20 24  1  0
 24 25  1  0
 25 26  1  0
 22 27  1  0
 26 27  1  0
 27 28  1  0
 24 29  1  0
 28 29  1  0
  8 30  1  6
 23 30  1  0
M  END
