x1132-x0350
     RDKit          3D

 24 26  0  0  0  0  0  0  0  0999 V2000
    7.7890  -23.4610   -1.0680 C   0  0  0  0  0  0  0  0  0  0  0  0
    7.6120  -19.0470   -3.0950 C   0  0  0  0  0  0  0  0  0  0  0  0
    6.7720  -18.2630   -3.5100 O   0  0  0  0  0  0  0  0  0  0  0  0
    8.8350  -19.1600   -4.0010 C   0  0  0  0  0  0  0  0  0  0  0  0
    9.6660  -24.8190   -0.1990 C   0  0  0  0  0  0  0  0  0  0  0  0
    9.1970  -23.5920   -0.6330 N   0  0  0  0  0  0  0  0  0  0  0  0
   10.9140  -26.8950    3.9910 F   0  0  0  0  0  0  0  0  0  0  0  0
    7.2440  -22.0670   -0.9700 C   0  0  2  0  0  0  0  0  0  0  0  0
    6.0060  -22.0150   -1.0610 O   0  0  0  0  0  0  0  0  0  0  0  0
    5.4550  -20.7370   -0.7310 C   0  0  0  0  0  0  0  0  0  0  0  0
    6.2870  -19.6420   -1.0370 C   0  0  0  0  0  0  0  0  0  0  0  0
    7.4740  -19.7980   -1.8900 N   0  0  0  0  0  0  0  0  0  0  0  0
    7.8750  -21.1850   -2.0180 C   0  0  0  0  0  0  0  0  0  0  0  0
    8.9360  -16.7050   -4.1090 C   0  0  0  0  0  0  0  0  0  0  0  0
    8.5340  -17.9800   -4.7410 N   0  0  0  0  0  0  0  0  0  0  0  0
    7.8960  -17.8490   -5.9220 N   0  0  0  0  0  0  0  0  0  0  0  0
    7.8690  -16.4830   -6.0280 C   0  0  0  0  0  0  0  0  0  0  0  0
    8.4350  -15.6850   -5.0620 C   0  0  0  0  0  0  0  0  0  0  0  0
   11.2740  -25.9860    3.0710 C   0  0  0  0  0  0  0  0  0  0  0  0
   10.4440  -25.7800    1.9390 C   0  0  0  0  0  0  0  0  0  0  0  0
   10.6610  -24.8730    0.8860 C   0  0  0  0  0  0  0  0  0  0  0  0
   11.9640  -24.0650    1.0520 C   0  0  0  0  0  0  0  0  0  0  0  0
   12.8920  -24.2730    2.2740 C   0  0  0  0  0  0  0  0  0  0  0  0
   12.4640  -25.2890    3.2900 C   0  0  0  0  0  0  0  0  0  0  0  0
  2  3  2  0
  2  4  1  0
  1  6  1  0
  5  6  1  0
  8  1  1  6
  8  9  1  0
  9 10  1  0
 10 11  1  0
  2 12  1  0
 11 12  1  0
  8 13  1  0
 12 13  1  0
  4 15  1  0
 14 15  1  0
 15 16  1  0
 16 17  2  0
 14 18  2  0
 17 18  1  0
  7 19  1  0
 19 20  2  0
  5 21  1  0
 20 21  1  0
 21 22  2  0
 22 23  1  0
 19 24  1  0
 23 24  2  0
M  END
