x1132-x0425
     RDKit          3D

 26 30  0  0  0  0  0  0  0  0999 V2000
    6.7370  -23.6400   -1.4070 C   0  0  0  0  0  0  0  0  0  0  0  0
    8.4920  -19.3580   -3.5650 C   0  0  0  0  0  0  0  0  0  0  0  0
    9.2210  -18.5790   -3.0230 O   0  0  0  0  0  0  0  0  0  0  0  0
    8.7620  -19.3780   -5.0460 C   0  0  0  0  0  0  0  0  0  0  0  0
    6.5880  -20.9510   -1.2240 C   0  0  1  0  0  0  0  0  0  0  0  0
    5.3520  -21.5110   -1.5060 C   0  0  1  0  0  0  0  0  0  0  0  0
    4.6460  -20.6910   -2.3990 C   0  0  0  0  0  0  0  0  0  0  0  0
    5.2400  -19.4290   -2.5090 C   0  0  0  0  0  0  0  0  0  0  0  0
    6.4970  -19.5650   -2.0010 C   0  0  1  0  0  0  0  0  0  0  0  0
    6.6320  -19.5570   -0.7610 C   0  0  0  0  0  0  0  0  0  0  0  0
    8.8500  -16.9490   -4.5800 C   0  0  0  0  0  0  0  0  0  0  0  0
    8.4390  -18.0120   -5.3660 N   0  0  0  0  0  0  0  0  0  0  0  0
    7.6620  -17.6750   -6.5020 N   0  0  0  0  0  0  0  0  0  0  0  0
    7.6300  -16.2970   -6.3340 C   0  0  0  0  0  0  0  0  0  0  0  0
    8.2920  -15.7710   -5.2500 C   0  0  0  0  0  0  0  0  0  0  0  0
    7.6270  -21.2530   -2.1980 C   0  0  0  0  0  0  0  0  0  0  0  0
    7.5030  -20.0590   -2.9740 N   0  0  0  0  0  0  0  0  0  0  0  0
    5.6180  -22.8680   -2.1080 C   0  0  0  0  0  0  0  0  0  0  0  0
    1.7000  -25.3440    0.3530 C   0  0  0  0  0  0  0  0  0  0  0  0
    2.8870  -26.2390    0.3790 N   0  0  0  0  0  0  0  0  0  0  0  0
    3.9820  -25.4100    0.2240 C   0  0  0  0  0  0  0  0  0  0  0  0
    4.0640  -23.8680    0.1430 C   0  0  0  0  0  0  0  0  0  0  0  0
    3.0020  -23.0370    0.2210 N   0  0  0  0  0  0  0  0  0  0  0  0
    2.0400  -23.9140    0.2780 C   0  0  0  0  0  0  0  0  0  0  0  0
    4.4270  -21.7140   -0.3440 C   0  0  0  0  0  0  0  0  0  0  0  0
    3.0930  -21.9930   -0.6250 C   0  0  0  0  0  0  0  0  0  0  0  0
  2  3  2  0
  2  4  1  0
  5  6  1  0
  6  7  1  0
  7  8  1  0
  5  9  1  0
  9  8  1  6
  5 10  1  1
  9 10  1  0
  4 12  1  0
 11 12  1  0
 12 13  1  0
 13 14  2  0
 11 15  2  0
 14 15  1  0
  5 16  1  0
  2 17  1  0
  9 17  1  0
 16 17  1  0
  1 18  1  0
  6 18  1  6
 19 20  1  0
 20 21  1  0
 21 22  2  0
 22 23  1  0
 19 24  2  0
 23 24  1  0
  6 25  1  0
 23 26  1  0
 25 26  1  0
M  END
