x1187-x1086
     RDKit          3D

 21 22  0  0  0  0  0  0  0  0999 V2000
    6.3690    3.3130   -5.4420 N   0  0  0  0  0  0  0  0  0  0  0  0
    4.3010   -1.2180   -9.0170 C   0  0  0  0  0  0  0  0  0  0  0  0
    4.4140    2.1230   -5.8770 O   0  0  0  0  0  0  0  0  0  0  0  0
    6.6860    0.6430   -5.0050 O   0  0  0  0  0  0  0  0  0  0  0  0
    5.8570    1.2180   -7.5510 C   0  0  0  0  0  0  0  0  0  0  0  0
    8.1110   -3.9750   -8.1470 F   0  0  0  0  0  0  0  0  0  0  0  0
    5.9280    1.7200   -5.8930 S   0  0  0  0  0  0  0  0  0  0  0  0
    3.7830    0.0600   -9.1660 O   0  0  0  0  0  0  0  0  0  0  0  0
    3.6700   -2.3760   -9.3920 N   0  0  0  0  0  0  0  0  0  0  0  0
    2.9780   -2.4330  -10.5940 C   0  0  0  0  0  0  0  0  0  0  0  0
    5.6440   -1.3760   -8.4190 C   0  0  0  0  0  0  0  0  0  0  0  0
    6.3610   -0.2270   -7.7180 C   0  0  0  0  0  0  0  0  0  0  0  0
    7.5890   -0.5130   -7.1920 C   0  0  0  0  0  0  0  0  0  0  0  0
    8.1280   -1.7610   -7.3340 C   0  0  0  0  0  0  0  0  0  0  0  0
    7.5210   -2.8090   -7.9950 C   0  0  0  0  0  0  0  0  0  0  0  0
    6.2650   -2.6190   -8.5260 C   0  0  0  0  0  0  0  0  0  0  0  0
    3.2060   -2.2290  -12.9810 C   0  0  0  0  0  0  0  0  0  0  0  0
    3.8510   -2.6130  -11.7880 C   0  0  2  0  0  0  0  0  0  0  0  0
    4.1270   -4.0280  -11.9550 O   0  0  0  0  0  0  0  0  0  0  0  0
    4.2170   -4.2700  -13.3680 C   0  0  0  0  0  0  0  0  0  0  0  0
    3.6850   -2.9930  -13.9730 C   0  0  0  0  0  0  0  0  0  0  0  0
  7  1  1  0
  3  7  2  0
  4  7  2  0
  5  7  1  0
  2  8  2  0
  2  9  1  0
  9 10  1  0
  2 11  1  0
  5 12  1  0
 11 12  2  0
 12 13  1  0
 13 14  2  0
  6 15  1  0
 14 15  1  0
 11 16  1  0
 15 16  2  0
 18 10  1  1
 17 18  1  0
 18 19  1  0
 19 20  1  0
 17 21  1  0
 20 21  1  0
M  END
