x1235-x0165
     RDKit          3D

 26 28  0  0  0  0  0  0  0  0999 V2000
   22.9060  -22.5430   20.1320 N   0  0  0  0  0  0  0  0  0  0  0  0
   25.4200  -20.1150   19.6880 C   0  0  0  0  0  0  0  0  0  0  0  0
   24.3130  -20.8400   20.2250 O   0  0  0  0  0  0  0  0  0  0  0  0
   23.8860  -21.8660   19.4580 C   0  0  0  0  0  0  0  0  0  0  0  0
   24.3450  -22.1000   18.3510 O   0  0  0  0  0  0  0  0  0  0  0  0
   21.1550  -27.3570   18.5710 C   0  0  0  0  0  0  0  0  0  0  0  0
   23.0560  -17.9200   23.9800 C   0  0  0  0  0  0  0  0  0  0  0  0
   22.4930  -22.4160   21.4910 C   0  0  0  0  0  0  0  0  0  0  0  0
   21.4630  -23.0180   21.8150 O   0  0  0  0  0  0  0  0  0  0  0  0
   21.3180  -24.9390   17.7150 N   0  0  0  0  0  0  0  0  0  0  0  0
   21.5540  -25.8730   18.7170 C   0  0  0  0  0  0  0  0  0  0  0  0
   22.3260  -25.2600   20.1620 S   0  0  0  0  0  0  0  0  0  0  0  0
   22.3170  -23.6740   19.3680 C   0  0  0  0  0  0  0  0  0  0  0  0
   21.7570  -23.6230   18.0950 C   0  0  0  0  0  0  0  0  0  0  0  0
   20.8310  -21.4080   17.4090 C   0  0  0  0  0  0  0  0  0  0  0  0
   20.5430  -20.4200   16.4510 C   0  0  0  0  0  0  0  0  0  0  0  0
   20.9590  -20.6370   14.9860 C   0  0  0  0  0  0  0  0  0  0  0  0
   21.6150  -21.8310   14.7200 C   0  0  0  0  0  0  0  0  0  0  0  0
   21.8710  -22.7650   15.7190 C   0  0  0  0  0  0  0  0  0  0  0  0
   21.4960  -22.5960   17.0660 C   0  0  0  0  0  0  0  0  0  0  0  0
   23.4530  -19.2070   23.8310 N   0  0  0  0  0  0  0  0  0  0  0  0
   24.0500  -19.4360   22.6260 C   0  0  0  0  0  0  0  0  0  0  0  0
   24.3410  -20.8010   22.3780 C   0  0  0  0  0  0  0  0  0  0  0  0
   23.1240  -21.6310   22.4780 N   0  0  0  0  0  0  0  0  0  0  0  0
   22.4880  -21.3760   23.6400 C   0  0  0  0  0  0  0  0  0  0  0  0
   22.3880  -20.0180   23.9940 C   0  0  0  0  0  0  0  0  0  0  0  0
  2  3  1  0
  1  4  1  0
  3  4  1  0
  4  5  2  0
  1  8  1  0
  8  9  2  0
  6 11  1  0
 10 11  2  0
 11 12  1  0
  1 13  1  0
 12 13  1  0
 10 14  1  0
 13 14  2  0
 15 16  2  0
 16 17  1  0
 17 18  2  0
 18 19  1  0
 14 20  1  0
 15 20  1  0
 19 20  2  0
  7 21  1  0
 21 22  1  0
 22 23  1  0
  8 24  1  0
 23 24  1  0
 24 25  1  0
 21 26  1  0
 25 26  1  0
M  END
