x1235-x1226
     RDKit          3D

 29 31  0  0  0  0  0  0  0  0999 V2000
   22.5310  -22.2620   19.5430 N   0  0  0  0  0  0  0  0  0  0  0  0
   25.1840  -20.0790   20.4710 C   0  0  0  0  0  0  0  0  0  0  0  0
   24.2060  -21.1390   20.5490 N   0  0  0  0  0  0  0  0  0  0  0  0
   23.7860  -21.7790   19.4390 C   0  0  0  0  0  0  0  0  0  0  0  0
   24.3230  -22.0150   18.3610 O   0  0  0  0  0  0  0  0  0  0  0  0
   21.2800  -27.2120   18.5290 C   0  0  0  0  0  0  0  0  0  0  0  0
   22.8800  -19.9590   23.8860 N   0  0  0  0  0  0  0  0  0  0  0  0
   23.9990  -17.9360   23.8120 C   0  0  0  0  0  0  0  0  0  0  0  0
   22.8160  -18.6270   24.1220 C   0  0  0  0  0  0  0  0  0  0  0  0
   21.5190  -20.5280   24.0510 C   0  0  0  0  0  0  0  0  0  0  0  0
   20.6280  -25.4550   24.7560 C   0  0  0  0  0  0  0  0  0  0  0  0
   23.7050  -21.4620   21.8910 C   0  0  0  0  0  0  0  0  0  0  0  0
   23.6320  -20.2010   22.7730 C   0  0  0  0  0  0  0  0  0  0  0  0
   21.3110  -24.9810   17.5040 N   0  0  0  0  0  0  0  0  0  0  0  0
   21.5480  -25.8030   18.5520 C   0  0  0  0  0  0  0  0  0  0  0  0
   22.1990  -25.0200   19.9300 S   0  0  0  0  0  0  0  0  0  0  0  0
   22.1180  -23.5650   19.0440 C   0  0  0  0  0  0  0  0  0  0  0  0
   21.6160  -23.7080   17.7740 C   0  0  0  0  0  0  0  0  0  0  0  0
   20.7050  -21.5000   17.2150 C   0  0  0  0  0  0  0  0  0  0  0  0
   20.4680  -20.4500   16.3160 C   0  0  0  0  0  0  0  0  0  0  0  0
   20.9440  -20.5500   15.0110 C   0  0  0  0  0  0  0  0  0  0  0  0
   21.6540  -21.6890   14.6270 C   0  0  0  0  0  0  0  0  0  0  0  0
   21.8940  -22.7360   15.5270 C   0  0  0  0  0  0  0  0  0  0  0  0
   21.4170  -22.6620   16.8420 C   0  0  0  0  0  0  0  0  0  0  0  0
   20.8750  -24.1350   24.2410 N   0  0  0  0  0  0  0  0  0  0  0  0
   20.8970  -23.9260   22.9160 N   0  0  0  0  0  0  0  0  0  0  0  0
   21.1350  -22.6340   22.7140 N   0  0  0  0  0  0  0  0  0  0  0  0
   21.2670  -22.0070   23.9200 C   0  0  0  0  0  0  0  0  0  0  0  0
   21.1000  -22.9970   24.8910 C   0  0  0  0  0  0  0  0  0  0  0  0
  2  3  1  0
  1  4  1  0
  3  4  1  0
  4  5  2  0
  7  9  1  0
  8  9  1  0
  7 10  1  0
  3 12  1  0
  7 13  1  0
 12 13  1  0
  6 15  1  0
 14 15  2  0
 15 16  1  0
  1 17  1  0
 16 17  1  0
 14 18  1  0
 17 18  2  0
 19 20  2  0
 20 21  1  0
 21 22  2  0
 22 23  1  0
 18 24  1  0
 19 24  1  0
 23 24  2  0
 11 25  1  0
 25 26  1  0
 26 27  2  0
 10 28  1  0
 27 28  1  0
 25 29  1  0
 28 29  2  0
M  END
