x1249-x0946
     RDKit          3D

 26 28  0  0  0  0  0  0  0  0999 V2000
    8.2180    0.6070   24.6790 N   0  0  0  0  0  0  0  0  0  0  0  0
    7.4570    1.4150   23.8860 C   0  0  0  0  0  0  0  0  0  0  0  0
    7.9460    2.3710   23.2840 O   0  0  0  0  0  0  0  0  0  0  0  0
    9.4510    1.0160   25.0640 C   0  0  0  0  0  0  0  0  0  0  0  0
   13.5370   -2.5510   20.7020 N   0  0  0  0  0  0  0  0  0  0  0  0
   12.8590   -1.8070   21.5880 C   0  0  0  0  0  0  0  0  0  0  0  0
    9.1410    5.0470   22.5940 N   0  0  0  0  0  0  0  0  0  0  0  0
   10.0160    5.4890   24.9770 O   0  0  0  0  0  0  0  0  0  0  0  0
   11.4650    6.1930   22.8800 O   0  0  0  0  0  0  0  0  0  0  0  0
   10.5050    5.0890   23.5130 S   0  0  0  0  0  0  0  0  0  0  0  0
    3.4230    0.8940   23.5450 O   0  0  0  0  0  0  0  0  0  0  0  0
    4.0810    0.9320   22.5130 C   0  0  0  0  0  0  0  0  0  0  0  0
    5.3890    1.4010   22.7230 C   0  0  0  0  0  0  0  0  0  0  0  0
    6.0770    1.0450   23.8380 N   0  0  0  0  0  0  0  0  0  0  0  0
    5.3490    0.7730   24.9160 C   0  0  0  0  0  0  0  0  0  0  0  0
    4.0990    0.2230   24.6170 C   0  0  0  0  0  0  0  0  0  0  0  0
   11.7590    1.0540   24.0170 C   0  0  1  0  0  0  0  0  0  0  0  0
   12.4230    0.2610   23.0460 C   0  0  0  0  0  0  0  0  0  0  0  0
   12.0970   -1.1360   22.5280 C   0  0  0  0  0  0  0  0  0  0  0  0
   10.9980   -1.7870   23.0070 C   0  0  0  0  0  0  0  0  0  0  0  0
   10.1180   -0.8990   23.8100 C   0  0  0  0  0  0  0  0  0  0  0  0
   10.5080    0.3610   24.2290 C   0  0  0  0  0  0  0  0  0  0  0  0
   12.7830    1.8750   23.0330 C   0  0  0  0  0  0  0  0  0  0  0  0
   12.4170    3.2570   22.8250 C   0  0  0  0  0  0  0  0  0  0  0  0
   11.2990    3.4860   23.4590 C   0  0  0  0  0  0  0  0  0  0  0  0
   10.8690    2.3350   24.0580 C   0  0  0  0  0  0  0  0  0  0  0  0
  1  2  1  0
  2  3  2  0
  1  4  1  0
  5  6  3  0
 10  7  1  0
  8 10  2  0
  9 10  2  0
 11 12  1  0
 12 13  1  0
  2 14  1  0
 13 14  1  0
 14 15  1  0
 11 16  1  0
 15 16  1  0
 17 18  1  1
  6 19  1  0
 18 19  2  0
 19 20  1  0
 20 21  1  0
  4 22  1  0
 17 22  1  0
 21 22  2  0
 17 23  1  0
 23 24  2  0
 10 25  1  0
 24 25  1  0
 17 26  1  0
 25 26  2  0
M  END
