x1249-x2964
     RDKit          3D

 29 31  0  0  0  0  0  0  0  0999 V2000
    8.4040    0.6400   24.7820 N   0  0  0  0  0  0  0  0  0  0  0  0
    7.6440    1.5720   24.1320 C   0  0  0  0  0  0  0  0  0  0  0  0
    8.1120    2.6270   23.6860 O   0  0  0  0  0  0  0  0  0  0  0  0
    9.7210    0.8650   25.0300 C   0  0  0  0  0  0  0  0  0  0  0  0
   13.7890   -1.3360   20.6000 N   0  0  0  0  0  0  0  0  0  0  0  0
   13.0230   -2.0720   21.4540 C   0  0  0  0  0  0  0  0  0  0  0  0
    3.3820    1.8800   19.3070 N   0  0  0  0  0  0  0  0  0  0  0  0
    8.7470    0.7050   21.2640 O   0  0  0  0  0  0  0  0  0  0  0  0
    7.0420   -0.6950   21.0210 N   0  0  0  0  0  0  0  0  0  0  0  0
    9.1070   -1.4270   22.0010 N   0  0  0  0  0  0  0  0  0  0  0  0
    8.3060   -0.4370   21.4230 C   0  0  0  0  0  0  0  0  0  0  0  0
    3.7150    1.2490   23.8090 O   0  0  0  0  0  0  0  0  0  0  0  0
    4.3260    1.3250   22.7450 C   0  0  0  0  0  0  0  0  0  0  0  0
    5.5920    1.8780   22.9220 C   0  0  0  0  0  0  0  0  0  0  0  0
    6.3170    1.2350   24.0140 N   0  0  0  0  0  0  0  0  0  0  0  0
    5.4890    0.7840   25.1460 C   0  0  0  0  0  0  0  0  0  0  0  0
    4.2590    0.3360   24.6700 C   0  0  0  0  0  0  0  0  0  0  0  0
   11.9790    0.1880   24.1880 C   0  0  0  0  0  0  0  0  0  0  0  0
   12.7470   -0.5970   23.2310 C   0  0  0  0  0  0  0  0  0  0  0  0
   12.0690   -1.3430   22.2820 C   0  0  0  0  0  0  0  0  0  0  0  0
   10.5280   -1.4710   22.0320 C   0  0  0  0  0  0  0  0  0  0  0  0
   10.0300   -0.6340   23.0880 C   0  0  0  0  0  0  0  0  0  0  0  0
   10.6250    0.1250   24.0830 C   0  0  0  0  0  0  0  0  0  0  0  0
    4.6310    1.2510   19.0410 C   0  0  0  0  0  0  0  0  0  0  0  0
    5.1440    0.6260   20.1740 C   0  0  0  0  0  0  0  0  0  0  0  0
    6.3800   -0.0400   20.0350 C   0  0  0  0  0  0  0  0  0  0  0  0
    6.9490   -0.0100   18.7630 C   0  0  0  0  0  0  0  0  0  0  0  0
    6.4460    0.6030   17.6740 N   0  0  0  0  0  0  0  0  0  0  0  0
    5.2800    1.2360   17.8350 C   0  0  0  0  0  0  0  0  0  0  0  0
  1  2  1  0
  2  3  2  0
  1  4  1  0
  5  6  3  0
  8 11  2  0
  9 11  1  0
 10 11  1  0
 12 13  1  0
 13 14  1  0
  2 15  1  0
 14 15  1  0
 15 16  1  0
 12 17  1  0
 16 17  1  0
 18 19  2  0
  6 20  1  0
 19 20  1  0
 10 21  1  0
 20 21  2  0
 21 22  1  0
  4 23  1  0
 18 23  1  0
 22 23  2  0
  7 24  1  0
 24 25  2  0
  9 26  1  0
 25 26  1  0
 26 27  2  0
 27 28  1  0
 24 29  1  0
 28 29  2  0
M  END
