x1249-x0691
     RDKit          3D

 37 40  0  0  0  0  0  0  0  0999 V2000
    4.0450   -6.7520   25.7900 O   0  0  0  0  0  0  0  0  0  0  0  0
    5.8940   -5.1630   26.7730 O   0  0  0  0  0  0  0  0  0  0  0  0
    5.3370   -4.6740   19.9450 O   0  0  0  0  0  0  0  0  0  0  0  0
    6.3890   -4.4770   20.5360 C   0  0  0  0  0  0  0  0  0  0  0  0
    7.4230   -3.4530   20.0110 C   0  0  0  0  0  0  0  0  0  0  0  0
    3.5800   -0.4480   25.7190 O   0  0  0  0  0  0  0  0  0  0  0  0
    4.7840   -5.5090   25.6860 S   0  0  0  0  0  0  0  0  0  0  0  0
    8.3360    1.0980   23.8850 N   0  0  0  0  0  0  0  0  0  0  0  0
    7.2610    1.9430   24.1500 C   0  0  0  0  0  0  0  0  0  0  0  0
    7.5010    3.2500   24.5500 O   0  0  0  0  0  0  0  0  0  0  0  0
    9.4260    1.9150   23.4680 C   0  0  0  0  0  0  0  0  0  0  0  0
   13.6310   -2.4980   20.7430 N   0  0  0  0  0  0  0  0  0  0  0  0
   13.0960   -1.7920   21.6810 C   0  0  0  0  0  0  0  0  0  0  0  0
    3.0480   -1.8050   25.7110 C   0  0  0  0  0  0  0  0  0  0  0  0
    4.0370   -2.7970   25.6980 C   0  0  0  0  0  0  0  0  0  0  0  0
    3.6310   -4.1410   25.6920 C   0  0  0  0  0  0  0  0  0  0  0  0
    2.2650   -4.4650   25.6950 C   0  0  0  0  0  0  0  0  0  0  0  0
    1.1990   -3.3680   25.7090 C   0  0  0  0  0  0  0  0  0  0  0  0
    1.6580   -2.0330   25.7200 C   0  0  0  0  0  0  0  0  0  0  0  0
    6.6330   -5.1970   21.7200 N   0  0  0  0  0  0  0  0  0  0  0  0
    5.7450   -6.3180   22.0330 C   0  0  0  0  0  0  0  0  0  0  0  0
    4.8070   -5.9240   22.9730 C   0  0  0  0  0  0  0  0  0  0  0  0
    5.5350   -5.4260   24.1660 N   0  0  0  0  0  0  0  0  0  0  0  0
    6.5940   -4.3960   23.9680 C   0  0  0  0  0  0  0  0  0  0  0  0
    7.4340   -4.7770   22.8340 C   0  0  0  0  0  0  0  0  0  0  0  0
    3.4680    0.7960   23.7060 O   0  0  0  0  0  0  0  0  0  0  0  0
    4.1700    1.3120   22.5750 C   0  0  0  0  0  0  0  0  0  0  0  0
    5.1660    2.0980   23.0790 C   0  0  0  0  0  0  0  0  0  0  0  0
    5.9340    1.4230   23.9350 N   0  0  0  0  0  0  0  0  0  0  0  0
    5.3840    0.7970   24.9990 C   0  0  0  0  0  0  0  0  0  0  0  0
    4.3190    0.0070   24.5530 C   0  0  1  0  0  0  0  0  0  0  0  0
   11.8180    1.3600   23.0040 C   0  0  0  0  0  0  0  0  0  0  0  0
   12.7520    0.4430   22.5870 C   0  0  0  0  0  0  0  0  0  0  0  0
   12.2740   -0.8030   22.2410 C   0  0  0  0  0  0  0  0  0  0  0  0
   10.9660   -1.2120   22.3310 C   0  0  0  0  0  0  0  0  0  0  0  0
   10.0610   -0.3120   22.7550 C   0  0  0  0  0  0  0  0  0  0  0  0
   10.4680    0.9630   23.0680 C   0  0  0  0  0  0  0  0  0  0  0  0
  3  4  2  0
  4  5  1  0
  1  7  2  0
  2  7  2  0
  8  9  1  0
  9 10  2  0
  8 11  1  0
 12 13  3  0
  6 14  1  0
 14 15  2  0
  7 16  1  0
 15 16  1  0
 16 17  2  0
 17 18  1  0
 14 19  1  0
 18 19  2  0
  4 20  1  0
 20 21  1  0
 21 22  1  0
  7 23  1  0
 22 23  1  0
 23 24  1  0
 20 25  1  0
 24 25  1  0
 26 27  1  0
 27 28  1  0
  9 29  1  0
 28 29  1  0
 29 30  1  0
 31  6  1  1
 26 31  1  0
 30 31  1  0
 32 33  2  0
 13 34  1  0
 33 34  1  0
 34 35  2  0
 35 36  1  0
 11 37  1  0
 32 37  1  0
 36 37  2  0
M  END
