x1249-x1311
     RDKit          3D

 39 42  0  0  0  0  0  0  0  0999 V2000
    5.8150   -4.6610   20.0120 O   0  0  0  0  0  0  0  0  0  0  0  0
    6.6720   -4.5280   20.9140 C   0  0  0  0  0  0  0  0  0  0  0  0
    8.1610   -4.1790   20.6880 C   0  0  0  0  0  0  0  0  0  0  0  0
    6.2600   -4.6720   22.4270 C   0  0  2  0  0  0  0  0  0  0  0  0
    4.2680   -7.8110   25.1910 O   0  0  0  0  0  0  0  0  0  0  0  0
    2.4900   -5.7530   25.0370 O   0  0  0  0  0  0  0  0  0  0  0  0
    5.4900   -3.6030   22.7910 C   0  0  0  0  0  0  0  0  0  0  0  0
    5.7310   -2.4260   22.1060 C   0  0  0  0  0  0  0  0  0  0  0  0
    5.3140   -1.3030   22.7870 C   0  0  0  0  0  0  0  0  0  0  0  0
    8.1980   -5.8480   23.2070 C   0  0  0  0  0  0  0  0  0  0  0  0
    9.2870   -5.9220   24.0480 C   0  0  0  0  0  0  0  0  0  0  0  0
    9.6660   -4.9580   24.9610 C   0  0  0  0  0  0  0  0  0  0  0  0
    8.8320   -3.6850   25.0630 C   0  0  0  0  0  0  0  0  0  0  0  0
    7.7350   -3.6000   24.2270 C   0  0  0  0  0  0  0  0  0  0  0  0
    7.3810   -4.7150   23.2560 C   0  0  0  0  0  0  0  0  0  0  0  0
    4.6140   -6.4600   22.1450 C   0  0  0  0  0  0  0  0  0  0  0  0
    5.5710   -5.9220   22.8880 C   0  0  2  0  0  0  0  0  0  0  0  0
    5.0110   -5.5000   24.1920 C   0  0  0  0  0  0  0  0  0  0  0  0
    3.6570   -6.6040   24.3770 S   0  0  0  0  0  0  0  0  0  0  0  0
    3.4600   -6.9120   22.6910 C   0  0  0  0  0  0  0  0  0  0  0  0
    8.1090    0.6660   24.9400 N   0  0  0  0  0  0  0  0  0  0  0  0
    7.4100    1.5120   24.0770 C   0  0  0  0  0  0  0  0  0  0  0  0
    7.9480    2.7530   23.5910 O   0  0  0  0  0  0  0  0  0  0  0  0
    9.4260    0.9390   25.2500 C   0  0  0  0  0  0  0  0  0  0  0  0
   13.8710   -1.7350   20.5630 N   0  0  0  0  0  0  0  0  0  0  0  0
   13.0740   -1.3960   21.5120 C   0  0  0  0  0  0  0  0  0  0  0  0
    3.5690    0.5050   23.4970 O   0  0  0  0  0  0  0  0  0  0  0  0
    4.1070    1.3290   22.4430 C   0  0  0  0  0  0  0  0  0  0  0  0
    5.3760    1.8610   22.8410 C   0  0  0  0  0  0  0  0  0  0  0  0
    6.0320    0.9640   23.6970 C   0  0  0  0  0  0  0  0  0  0  0  0
    5.3950    0.5570   24.8670 C   0  0  0  0  0  0  0  0  0  0  0  0
    4.0340    0.8330   24.8020 C   0  0  0  0  0  0  0  0  0  0  0  0
   11.5750    0.9560   23.9720 C   0  0  0  0  0  0  0  0  0  0  0  0
   12.4910    0.4220   23.0800 C   0  0  0  0  0  0  0  0  0  0  0  0
   12.1680   -0.8910   22.3960 C   0  0  0  0  0  0  0  0  0  0  0  0
   10.9950   -1.5680   22.6300 C   0  0  0  0  0  0  0  0  0  0  0  0
    9.9850   -0.9960   23.6110 C   0  0  0  0  0  0  0  0  0  0  0  0
   10.3540    0.3210   24.2770 C   0  0  0  0  0  0  0  0  0  0  0  0
    6.3870   -0.2730   22.8510 C   0  0  0  0  0  0  0  0  0  0  0  0
  1  2  2  0
  2  3  1  0
  4  2  1  0
  4  7  1  1
  7  8  1  0
  8  9  1  0
 10 11  2  0
 11 12  1  0
 12 13  2  0
 13 14  1  0
  4 15  1  0
 10 15  1  0
 14 15  2  0
  4 17  1  0
 17 16  1  6
 17 18  1  0
 19  5  1  0
  6 19  1  0
 18 19  1  0
 16 20  2  0
 19 20  1  0
 21 22  1  0
 22 23  2  0
 21 24  1  0
 25 26  3  0
 27 28  1  0
 28 29  1  0
 30 22  1  0
 29 30  1  0
 30 31  1  0
 27 32  1  0
 31 32  1  0
 33 34  2  0
 26 35  1  0
 34 35  1  0
 35 36  2  0
 36 37  1  0
 24 38  1  0
 33 38  1  0
 37 38  2  0
  9 39  1  0
 30 39  1  0
M  END
