x1249-x0540
     RDKit          3D

 34 38  0  0  0  0  0  0  0  0999 V2000
    7.9680    0.7180   24.5280 N   0  0  0  0  0  0  0  0  0  0  0  0
    7.1350    1.6470   23.9050 C   0  0  0  0  0  0  0  0  0  0  0  0
    7.6230    2.6200   23.3250 O   0  0  0  0  0  0  0  0  0  0  0  0
    9.2410    1.0490   24.9780 C   0  0  0  0  0  0  0  0  0  0  0  0
   13.6580   -1.4360   20.6970 N   0  0  0  0  0  0  0  0  0  0  0  0
   13.2280   -2.0260   21.8560 C   0  0  0  0  0  0  0  0  0  0  0  0
    3.1080    2.1640   23.3190 C   0  0  0  0  0  0  0  0  0  0  0  0
    3.8640    1.8680   22.1740 N   0  0  0  0  0  0  0  0  0  0  0  0
    5.3220    0.0450   21.7690 C   0  0  0  0  0  0  0  0  0  0  0  0
    2.2230    3.3290   23.5700 N   0  0  0  0  0  0  0  0  0  0  0  0
    3.5840    1.1360   24.2690 C   0  0  0  0  0  0  0  0  0  0  0  0
    4.1340    0.3750   23.2810 C   0  0  0  0  0  0  0  0  0  0  0  0
    4.8960    1.0830   22.6310 C   0  0  2  0  0  0  0  0  0  0  0  0
    5.7200    1.4010   23.9940 N   0  0  0  0  0  0  0  0  0  0  0  0
    5.2200    0.8260   25.3540 C   0  0  0  0  0  0  0  0  0  0  0  0
    3.6630    0.6880   25.5820 C   0  0  0  0  0  0  0  0  0  0  0  0
   11.5520    0.9150   23.7920 C   0  0  0  0  0  0  0  0  0  0  0  0
   12.5390    0.0750   22.9910 C   0  0  0  0  0  0  0  0  0  0  0  0
   12.2320   -1.2330   22.6360 C   0  0  0  0  0  0  0  0  0  0  0  0
   11.0170   -1.7800   23.0120 C   0  0  0  0  0  0  0  0  0  0  0  0
   10.0830   -0.9740   23.7790 C   0  0  0  0  0  0  0  0  0  0  0  0
   10.3290    0.3450   24.1700 C   0  0  0  0  0  0  0  0  0  0  0  0
    6.6510   -0.4740   19.9280 C   0  0  0  0  0  0  0  0  0  0  0  0
    7.0030   -0.3570   18.6080 C   0  0  0  0  0  0  0  0  0  0  0  0
    6.2530    0.5430   17.7120 N   0  0  0  0  0  0  0  0  0  0  0  0
    5.1200    1.3220   18.2420 C   0  0  0  0  0  0  0  0  0  0  0  0
    4.8710    1.1090   19.5810 C   0  0  0  0  0  0  0  0  0  0  0  0
    5.6010    0.2440   20.4150 C   0  0  0  0  0  0  0  0  0  0  0  0
    0.8730    4.5640   24.7060 C   0  0  0  0  0  0  0  0  0  0  0  0
   -0.4680    4.8350   25.0340 C   0  0  0  0  0  0  0  0  0  0  0  0
   -1.4070    4.4660   24.0630 C   0  0  0  0  0  0  0  0  0  0  0  0
   -1.2620    3.1310   23.6570 C   0  0  0  0  0  0  0  0  0  0  0  0
    0.0430    2.8440   23.1950 C   0  0  0  0  0  0  0  0  0  0  0  0
    1.1710    3.3290   24.1240 C   0  0  0  0  0  0  0  0  0  0  0  0
  1  2  1  0
  2  3  2  0
  1  4  1  0
  5  6  3  0
  7  8  1  0
  7 10  1  0
  7 11  2  0
 11 12  1  0
  8 13  1  0
 13  9  1  6
 12 13  1  0
  2 14  1  0
 13 14  1  0
 14 15  1  0
 11 16  1  0
 15 16  1  0
 17 18  2  0
  6 19  1  0
 18 19  1  0
 19 20  2  0
 20 21  1  0
  4 22  1  0
 17 22  1  0
 21 22  2  0
 23 24  2  0
 24 25  1  0
 25 26  2  0
 26 27  1  0
  9 28  1  0
 23 28  1  0
 27 28  2  0
 29 30  1  0
 30 31  1  0
 31 32  1  0
 32 33  1  0
 10 34  1  0
 29 34  1  0
 33 34  1  0
M  END
