x1249-x3117
     RDKit          3D

 43 46  0  0  0  0  0  0  0  0999 V2000
    6.9600   -1.5250   21.6610 N   0  0  0  0  0  0  0  0  0  0  0  0
    6.7490   -4.7840   20.4200 C   0  0  0  0  0  0  0  0  0  0  0  0
    4.8100   -2.9690   21.1830 O   0  0  0  0  0  0  0  0  0  0  0  0
    6.8240   -4.0250   21.7450 C   0  0  0  0  0  0  0  0  0  0  0  0
    8.0150    1.6750   22.8410 C   0  0  0  0  0  0  0  0  0  0  0  0
    8.0940    1.4190   20.4310 O   0  0  0  0  0  0  0  0  0  0  0  0
    6.0840   -2.7480   21.5020 C   0  0  0  0  0  0  0  0  0  0  0  0
    6.5600   -0.1200   21.5040 C   0  0  1  0  0  0  0  0  0  0  0  0
    7.5250    0.9620   21.5880 C   0  0  0  0  0  0  0  0  0  0  0  0
   12.1860   -1.6680   24.4910 C   0  0  0  0  0  0  0  0  0  0  0  0
   12.1170   -0.5220   25.2090 C   0  0  0  0  0  0  0  0  0  0  0  0
   13.2130   -1.6930   23.5830 C   0  0  0  0  0  0  0  0  0  0  0  0
   12.4520   -2.9750   25.1420 C   0  0  0  0  0  0  0  0  0  0  0  0
    7.7970    1.7220   25.3180 N   0  0  0  0  0  0  0  0  0  0  0  0
    7.3330    1.2720   24.0420 C   0  0  0  0  0  0  0  0  0  0  0  0
    9.1090    1.0740   25.4900 C   0  0  0  0  0  0  0  0  0  0  0  0
    6.2010    0.1530   17.7810 N   0  0  0  0  0  0  0  0  0  0  0  0
    5.1300    0.9770   17.7750 C   0  0  0  0  0  0  0  0  0  0  0  0
    4.4410    1.4720   18.8470 C   0  0  0  0  0  0  0  0  0  0  0  0
    4.9640    1.0490   20.0980 C   0  0  0  0  0  0  0  0  0  0  0  0
    6.0640    0.2160   20.1400 C   0  0  0  0  0  0  0  0  0  0  0  0
    6.6600   -0.2220   18.9780 C   0  0  0  0  0  0  0  0  0  0  0  0
    9.9050    4.9840   24.0960 O   0  0  0  0  0  0  0  0  0  0  0  0
   10.7640    4.0190   23.7150 C   0  0  0  0  0  0  0  0  0  0  0  0
   10.1370    2.7920   23.7220 C   0  0  0  0  0  0  0  0  0  0  0  0
    9.1640    2.7480   22.7290 C   0  0  0  0  0  0  0  0  0  0  0  0
    8.4240    3.9970   22.5870 C   0  0  0  0  0  0  0  0  0  0  0  0
    9.0340    5.1970   23.0790 C   0  0  0  0  0  0  0  0  0  0  0  0
    9.4430   -1.3130   21.7610 C   0  0  0  0  0  0  0  0  0  0  0  0
   10.7020   -1.3380   22.3960 C   0  0  0  0  0  0  0  0  0  0  0  0
   10.8450   -1.6530   23.7490 C   0  0  0  0  0  0  0  0  0  0  0  0
    9.6930   -1.9570   24.4690 C   0  0  0  0  0  0  0  0  0  0  0  0
    8.3470   -1.9200   23.7420 C   0  0  0  0  0  0  0  0  0  0  0  0
    8.2190   -1.5960   22.3900 C   0  0  0  0  0  0  0  0  0  0  0  0
    3.2810    0.2420   23.9580 O   0  0  0  0  0  0  0  0  0  0  0  0
    4.0270    0.4720   22.7630 C   0  0  0  0  0  0  0  0  0  0  0  0
    5.2770    1.2890   23.0720 C   0  0  0  0  0  0  0  0  0  0  0  0
    6.2650    0.5090   23.8750 N   0  0  0  0  0  0  0  0  0  0  0  0
    5.5510   -0.0300   25.0510 C   0  0  0  0  0  0  0  0  0  0  0  0
    4.1060    0.5020   25.1170 C   0  0  0  0  0  0  0  0  0  0  0  0
   13.8590   -1.1930   20.4020 N   0  0  0  0  0  0  0  0  0  0  0  0
   13.3940   -1.7690   21.2500 C   0  0  0  0  0  0  0  0  0  0  0  0
   12.9930   -2.4960   22.3300 C   0  0  0  0  0  0  0  0  0  0  0  0
  2  4  1  0
  1  7  1  0
  3  7  2  0
  4  7  1  0
  1  8  1  0
  5  9  1  0
  6  9  2  0
  8  9  1  6
 10 11  1  0
 10 12  1  0
 10 13  1  0
  5 15  2  3
 14 15  1  0
 14 16  1  0
 17 18  2  0
 18 19  1  0
 19 20  2  0
  8 21  1  0
 20 21  1  0
 17 22  1  0
 21 22  2  0
 23 24  1  0
 24 25  1  0
  5 26  1  0
 25 26  1  0
 26 27  1  0
 23 28  1  0
 27 28  1  0
 29 30  2  0
 10 31  1  0
 30 31  1  0
 31 32  2  0
 32 33  1  0
  1 34  1  0
 29 34  1  0
 33 34  2  0
 35 36  1  0
 36 37  1  0
 15 38  1  0
 37 38  1  0
 38 39  1  0
 35 40  1  0
 39 40  1  0
 41 42  3  0
 12 43  1  0
 42 43  1  0
M  END
