x1249-x1425
     RDKit          3D

 37 40  0  0  0  0  0  0  0  0999 V2000
    8.3500    0.5870   24.8840 N   0  0  0  0  0  0  0  0  0  0  0  0
    7.6230    1.3970   24.0670 C   0  0  0  0  0  0  0  0  0  0  0  0
    8.0080    2.4540   23.5560 O   0  0  0  0  0  0  0  0  0  0  0  0
    9.6440    0.8470   25.1680 C   0  0  0  0  0  0  0  0  0  0  0  0
   13.7970   -1.3290   20.5720 N   0  0  0  0  0  0  0  0  0  0  0  0
   13.1820   -2.0380   21.5560 C   0  0  0  0  0  0  0  0  0  0  0  0
    3.5360    1.3850   23.5930 O   0  0  0  0  0  0  0  0  0  0  0  0
    4.2270    1.5840   22.5850 C   0  0  0  0  0  0  0  0  0  0  0  0
    5.5910    1.8080   22.7530 C   0  0  0  0  0  0  0  0  0  0  0  0
    6.2240    1.0310   23.7080 C   0  0  0  0  0  0  0  0  0  0  0  0
    5.4360    0.8030   24.8390 C   0  0  0  0  0  0  0  0  0  0  0  0
    4.1290    0.4440   24.5090 C   0  0  0  0  0  0  0  0  0  0  0  0
   11.7940    0.6950   23.8050 C   0  0  0  0  0  0  0  0  0  0  0  0
   12.7640   -0.0180   22.8590 C   0  0  0  0  0  0  0  0  0  0  0  0
   12.3130   -1.2950   22.4560 C   0  0  0  0  0  0  0  0  0  0  0  0
   10.9860   -1.8320   22.9580 C   0  0  0  0  0  0  0  0  0  0  0  0
   10.1740   -1.1260   23.8100 C   0  0  0  0  0  0  0  0  0  0  0  0
   10.5680    0.1280   24.2370 C   0  0  0  0  0  0  0  0  0  0  0  0
    1.3720   -2.3810   28.2140 C   0  0  0  0  0  0  0  0  0  0  0  0
    2.7900   -2.3450   28.3010 O   0  0  0  0  0  0  0  0  0  0  0  0
    5.1750   -4.6670   19.8940 O   0  0  0  0  0  0  0  0  0  0  0  0
    6.2320   -4.1910   20.2420 C   0  0  0  0  0  0  0  0  0  0  0  0
    7.0980   -3.3320   19.3340 C   0  0  0  0  0  0  0  0  0  0  0  0
    6.2450   -1.5660   23.8660 C   0  0  0  0  0  0  0  0  0  0  0  0
    3.4350   -2.7680   27.0940 C   0  0  0  0  0  0  0  0  0  0  0  0
    4.7840   -2.4050   27.0250 C   0  0  0  0  0  0  0  0  0  0  0  0
    5.5930   -2.7330   25.9090 C   0  0  0  0  0  0  0  0  0  0  0  0
    5.0300   -3.4400   24.8310 C   0  0  0  0  0  0  0  0  0  0  0  0
    3.6780   -3.7830   24.9480 C   0  0  0  0  0  0  0  0  0  0  0  0
    2.8560   -3.4780   26.0340 C   0  0  0  0  0  0  0  0  0  0  0  0
    6.7620   -4.4360   21.4980 N   0  0  0  0  0  0  0  0  0  0  0  0
    7.0360   -3.3230   22.3830 C   0  0  0  0  0  0  0  0  0  0  0  0
    5.9220   -2.8700   23.1250 C   0  0  1  0  0  0  0  0  0  0  0  0
    5.6660   -3.7180   23.8870 N   0  0  0  0  0  0  0  0  0  0  0  0
    5.7080   -4.7500   23.3710 C   0  0  0  0  0  0  0  0  0  0  0  0
    6.1320   -5.4970   22.2870 C   0  0  0  0  0  0  0  0  0  0  0  0
    6.3200   -0.3010   23.0070 C   0  0  0  0  0  0  0  0  0  0  0  0
  1  2  1  0
  2  3  2  0
  1  4  1  0
  5  6  3  0
  7  8  1  0
  8  9  1  0
 10  2  1  0
  9 10  1  0
 10 11  1  0
  7 12  1  0
 11 12  1  0
 13 14  2  0
  6 15  1  0
 14 15  1  0
 15 16  2  0
 16 17  1  0
  4 18  1  0
 13 18  1  0
 17 18  2  0
 19 20  1  0
 21 22  2  0
 22 23  1  0
 20 25  1  0
 25 26  2  0
 26 27  1  0
 27 28  2  0
 28 29  1  0
 25 30  1  0
 29 30  2  0
 22 31  1  0
 31 32  1  0
 33 24  1  1
 32 33  1  0
 28 34  1  0
 33 34  1  0
 34 35  1  0
 31 36  1  0
 35 36  1  0
 10 37  1  0
 24 37  1  0
M  END
