x1249-x0387
     RDKit          3D

 26 28  0  0  0  0  0  0  0  0999 V2000
    8.2150    1.0040   24.7350 N   0  0  0  0  0  0  0  0  0  0  0  0
    7.4550    1.6110   23.7880 C   0  0  0  0  0  0  0  0  0  0  0  0
    7.9520    2.4260   23.0060 O   0  0  0  0  0  0  0  0  0  0  0  0
    9.4940    1.4290   24.9360 C   0  0  0  0  0  0  0  0  0  0  0  0
   13.6140   -1.5310   20.7830 N   0  0  0  0  0  0  0  0  0  0  0  0
   12.9220   -2.0870   21.8320 C   0  0  0  0  0  0  0  0  0  0  0  0
    8.4040   -5.4770   26.8830 O   0  0  0  0  0  0  0  0  0  0  0  0
    9.8420   -2.8020   23.1500 C   0  0  0  0  0  0  0  0  0  0  0  0
    3.5770    0.7700   23.6260 O   0  0  0  0  0  0  0  0  0  0  0  0
    4.1820    0.8490   22.5680 C   0  0  0  0  0  0  0  0  0  0  0  0
    5.3330    1.6270   22.7160 C   0  0  0  0  0  0  0  0  0  0  0  0
    6.0680    1.2470   23.7870 N   0  0  0  0  0  0  0  0  0  0  0  0
    5.4000    0.9470   24.9540 C   0  0  0  0  0  0  0  0  0  0  0  0
    4.3220    0.1420   24.5810 C   0  0  0  0  0  0  0  0  0  0  0  0
   11.7150    1.0540   23.6540 C   0  0  0  0  0  0  0  0  0  0  0  0
   12.6010    0.0940   22.8320 C   0  0  0  0  0  0  0  0  0  0  0  0
   12.0540   -1.2010   22.6140 C   0  0  0  0  0  0  0  0  0  0  0  0
   10.6610   -1.5320   23.2020 C   0  0  0  0  0  0  0  0  0  0  0  0
   10.0020   -0.6050   23.8960 C   0  0  0  0  0  0  0  0  0  0  0  0
   10.4520    0.6240   24.1370 C   0  0  0  0  0  0  0  0  0  0  0  0
    9.0880   -4.4340   26.2140 C   0  0  2  0  0  0  0  0  0  0  0  0
    8.5070   -4.1800   24.9630 C   0  0  0  0  0  0  0  0  0  0  0  0
    9.0690   -2.9750   24.4670 C   0  0  1  0  0  0  0  0  0  0  0  0
   10.0950   -2.6660   25.4600 N   0  0  0  0  0  0  0  0  0  0  0  0
   10.9910   -3.6730   25.4920 C   0  0  0  0  0  0  0  0  0  0  0  0
   10.4390   -4.7310   26.1770 C   0  0  0  0  0  0  0  0  0  0  0  0
  1  2  1  0
  2  3  2  0
  1  4  1  0
  5  6  3  0
  9 10  1  0
 10 11  1  0
  2 12  1  0
 11 12  1  0
 12 13  1  0
  9 14  1  0
 13 14  1  0
 15 16  2  0
  6 17  1  0
 16 17  1  0
  8 18  1  0
 17 18  2  0
 18 19  1  0
  4 20  1  0
 15 20  1  0
 19 20  2  0
 21  7  1  6
 21 22  1  0
 23  8  1  6
 22 23  1  0
 23 24  1  0
 24 25  1  0
 21 26  1  0
 25 26  1  0
M  END
