x1249-x1384
     RDKit          3D

 34 38  0  0  0  0  0  0  0  0999 V2000
    8.3180    0.5160   24.9170 N   0  0  0  0  0  0  0  0  0  0  0  0
    7.6170    1.3960   24.1540 C   0  0  0  0  0  0  0  0  0  0  0  0
    8.1320    2.4300   23.7090 O   0  0  0  0  0  0  0  0  0  0  0  0
    9.6160    0.7780   25.2170 C   0  0  0  0  0  0  0  0  0  0  0  0
   13.8040   -1.3110   20.5750 N   0  0  0  0  0  0  0  0  0  0  0  0
   13.1450   -2.0470   21.5110 C   0  0  0  0  0  0  0  0  0  0  0  0
    4.1170   -1.5400   24.3580 O   0  0  0  0  0  0  0  0  0  0  0  0
    5.2730   -1.1490   24.6280 C   0  0  0  0  0  0  0  0  0  0  0  0
    3.6960    1.2860   23.5810 O   0  0  0  0  0  0  0  0  0  0  0  0
    4.4520    1.0580   22.6390 C   0  0  0  0  0  0  0  0  0  0  0  0
    5.7120    1.5710   22.8080 C   0  0  0  0  0  0  0  0  0  0  0  0
    6.2580    1.0270   23.8990 N   0  0  0  0  0  0  0  0  0  0  0  0
    5.4220    0.3550   24.7810 C   0  0  1  0  0  0  0  0  0  0  0  0
    4.2720    1.1340   24.8150 C   0  0  0  0  0  0  0  0  0  0  0  0
   11.7900    0.6850   23.8650 C   0  0  0  0  0  0  0  0  0  0  0  0
   12.7020   -0.0720   22.8960 C   0  0  0  0  0  0  0  0  0  0  0  0
   12.2750   -1.3290   22.4260 C   0  0  0  0  0  0  0  0  0  0  0  0
   10.9410   -1.8510   22.9060 C   0  0  0  0  0  0  0  0  0  0  0  0
   10.1710   -1.1290   23.7810 C   0  0  0  0  0  0  0  0  0  0  0  0
   10.5540    0.1040   24.2660 C   0  0  0  0  0  0  0  0  0  0  0  0
    5.2950   -4.6320   24.4400 C   0  0  1  0  0  0  0  0  0  0  0  0
    5.3180   -4.1710   23.2660 C   0  0  1  0  0  0  0  0  0  0  0  0
    4.0260   -3.9380   23.9650 C   0  0  1  0  0  0  0  0  0  0  0  0
    3.1180   -5.1300   23.7620 C   0  0  0  0  0  0  0  0  0  0  0  0
    4.2700   -5.4110   23.2650 C   0  0  0  0  0  0  0  0  0  0  0  0
    4.1360   -5.0660   24.6430 C   0  0  0  0  0  0  0  0  0  0  0  0
    3.7290   -2.8300   24.8770 C   0  0  1  0  0  0  0  0  0  0  0  0
    4.5960   -2.9670   25.9280 C   0  0  0  0  0  0  0  0  0  0  0  0
    5.5300   -3.9320   25.7430 C   0  0  0  0  0  0  0  0  0  0  0  0
    6.9000   -3.6800   21.7490 N   0  0  0  0  0  0  0  0  0  0  0  0
    7.4160   -3.1630   19.3690 C   0  0  0  0  0  0  0  0  0  0  0  0
    5.5220   -4.4580   19.9550 O   0  0  0  0  0  0  0  0  0  0  0  0
    6.5020   -3.8300   20.3970 C   0  0  0  0  0  0  0  0  0  0  0  0
    6.2630   -3.2190   22.6290 C   0  0  0  0  0  0  0  0  0  0  0  0
  1  2  1  0
  2  3  2  0
  1  4  1  0
  5  6  3  0
  7  8  1  0
  9 10  1  0
 10 11  1  0
  2 12  1  0
 11 12  1  0
 13  8  1  6
 12 13  1  0
  9 14  1  0
 13 14  1  0
 15 16  2  0
  6 17  1  0
 16 17  1  0
 17 18  2  0
 18 19  1  0
  4 20  1  0
 15 20  1  0
 19 20  2  0
 21 22  1  0
 21 23  1  0
 22 23  1  0
 23 24  1  6
 24 25  1  0
 21 26  1  6
 25 26  2  0
 27  7  1  6
 23 27  1  0
 27 28  1  0
 21 29  1  0
 28 29  2  0
 30 33  1  0
 31 33  1  0
 32 33  2  0
 22 34  1  1
 30 34  1  0
M  END
