x1249-x1093
     RDKit          3D

 31 34  0  0  0  0  0  0  0  0999 V2000
    7.9280    0.5130   24.7890 N   0  0  0  0  0  0  0  0  0  0  0  0
    7.3820    1.6500   24.2600 C   0  0  0  0  0  0  0  0  0  0  0  0
    8.0810    2.5280   23.7400 O   0  0  0  0  0  0  0  0  0  0  0  0
    9.1490    0.5840   25.3680 C   0  0  0  0  0  0  0  0  0  0  0  0
   12.9020   -2.2640   20.9220 N   0  0  0  0  0  0  0  0  0  0  0  0
   13.3050   -1.5890   22.0560 C   0  0  0  0  0  0  0  0  0  0  0  0
   13.5410   -0.3070   22.4710 C   0  0  0  0  0  0  0  0  0  0  0  0
    8.8030    1.3580   21.0780 O   0  0  0  0  0  0  0  0  0  0  0  0
    8.9620    0.1960   21.4940 C   0  0  0  0  0  0  0  0  0  0  0  0
    8.1750   -0.8770   21.0240 C   0  0  0  0  0  0  0  0  0  0  0  0
    3.1960    1.5540   23.4970 O   0  0  0  0  0  0  0  0  0  0  0  0
    4.3930    1.6580   22.8180 C   0  0  2  0  0  0  0  0  0  0  0  0
    5.3090    2.4610   23.4180 C   0  0  0  0  0  0  0  0  0  0  0  0
    5.9520    1.7300   24.3690 N   0  0  0  0  0  0  0  0  0  0  0  0
    5.1240    0.7530   24.8700 C   0  0  0  0  0  0  0  0  0  0  0  0
    3.6070    1.1710   24.8280 C   0  0  0  0  0  0  0  0  0  0  0  0
   11.3130    0.6970   24.1360 C   0  0  0  0  0  0  0  0  0  0  0  0
   12.5270    0.3310   23.2990 C   0  0  0  0  0  0  0  0  0  0  0  0
   12.2080   -1.0040   22.9230 C   0  0  0  0  0  0  0  0  0  0  0  0
   11.1090   -1.7760   23.2300 C   0  0  0  0  0  0  0  0  0  0  0  0
   10.0480   -1.3070   24.0430 C   0  0  0  0  0  0  0  0  0  0  0  0
   10.2050   -0.0280   24.4850 C   0  0  0  0  0  0  0  0  0  0  0  0
    6.2820   -0.0190   17.9150 N   0  0  0  0  0  0  0  0  0  0  0  0
    7.2910   -0.6290   18.5840 C   0  0  0  0  0  0  0  0  0  0  0  0
    7.2630   -0.4320   19.8990 C   0  0  0  0  0  0  0  0  0  0  0  0
    6.1770    0.2990   20.1060 C   0  0  0  0  0  0  0  0  0  0  0  0
    5.5050    0.6260   18.8790 C   0  0  0  0  0  0  0  0  0  0  0  0
    4.3720    1.4080   18.9130 N   0  0  0  0  0  0  0  0  0  0  0  0
    3.9190    1.7790   20.1420 C   0  0  0  0  0  0  0  0  0  0  0  0
    4.5740    1.4350   21.3390 C   0  0  0  0  0  0  0  0  0  0  0  0
    5.6910    0.7100   21.2710 C   0  0  0  0  0  0  0  0  0  0  0  0
  1  2  1  0
  2  3  2  0
  1  4  1  0
  5  6  3  0
  8  9  2  0
  9 10  1  0
 11 12  1  0
 12 13  1  0
  2 14  1  0
 13 14  1  0
 14 15  1  0
 11 16  1  0
 15 16  1  0
  7 18  1  0
 17 18  2  0
  6 19  1  0
 18 19  1  0
 19 20  2  0
 20 21  1  0
  4 22  1  0
 17 22  1  0
 21 22  2  0
 23 24  1  0
 10 25  1  0
 24 25  2  0
 25 26  1  0
 23 27  2  0
 26 27  1  0
 27 28  1  0
 28 29  1  0
 12 30  1  6
 29 30  2  0
 26 31  2  0
 30 31  1  0
M  END
