x1249-x2097
     RDKit          3D

 28 30  0  0  0  0  0  0  0  0999 V2000
    8.4670    0.6660   24.9060 N   0  0  0  0  0  0  0  0  0  0  0  0
    7.7360    1.5750   24.2200 C   0  0  0  0  0  0  0  0  0  0  0  0
    8.1100    2.6520   23.7450 O   0  0  0  0  0  0  0  0  0  0  0  0
    9.7510    0.8590   25.1830 C   0  0  0  0  0  0  0  0  0  0  0  0
   13.8080   -1.3240   20.5630 N   0  0  0  0  0  0  0  0  0  0  0  0
   13.1810   -2.0460   21.5300 C   0  0  0  0  0  0  0  0  0  0  0  0
    3.6650    1.4810   23.4950 O   0  0  0  0  0  0  0  0  0  0  0  0
    4.4480    1.2870   22.5530 C   0  0  0  0  0  0  0  0  0  0  0  0
    5.8040    1.5420   22.7280 C   0  0  0  0  0  0  0  0  0  0  0  0
    6.3240    1.2500   23.9800 C   0  0  0  0  0  0  0  0  0  0  0  0
    5.4640    1.6450   24.9890 C   0  0  0  0  0  0  0  0  0  0  0  0
    4.1890    1.1100   24.7840 C   0  0  0  0  0  0  0  0  0  0  0  0
   11.8540    0.6940   23.7850 C   0  0  0  0  0  0  0  0  0  0  0  0
   12.8010   -0.0240   22.8240 C   0  0  0  0  0  0  0  0  0  0  0  0
   12.3380   -1.3000   22.4430 C   0  0  0  0  0  0  0  0  0  0  0  0
   11.0270   -1.8310   22.9770 C   0  0  0  0  0  0  0  0  0  0  0  0
   10.2380   -1.1220   23.8430 C   0  0  0  0  0  0  0  0  0  0  0  0
   10.6420    0.1280   24.2450 C   0  0  0  0  0  0  0  0  0  0  0  0
    5.9610   -5.5450   19.9640 N   0  0  0  0  0  0  0  0  0  0  0  0
    6.5340   -4.3860   20.0570 C   0  0  0  0  0  0  0  0  0  0  0  0
    6.1800   -3.5180   21.1940 C   0  0  0  0  0  0  0  0  0  0  0  0
    6.9930   -2.5180   21.5290 N   0  0  0  0  0  0  0  0  0  0  0  0
    6.5730   -1.7960   22.5720 C   0  0  0  0  0  0  0  0  0  0  0  0
    5.3910   -2.0390   23.2840 C   0  0  0  0  0  0  0  0  0  0  0  0
    4.5170   -3.0530   22.9840 C   0  0  0  0  0  0  0  0  0  0  0  0
    4.9300   -3.8730   21.8400 N   0  0  0  0  0  0  0  0  0  0  0  0
    6.3870   -0.1190   24.0270 C   0  0  0  0  0  0  0  0  0  0  0  0
    7.2280   -0.7240   23.0780 C   0  0  0  0  0  0  0  0  0  0  0  0
  1  2  1  0
  2  3  2  0
  1  4  1  0
  5  6  3  0
  7  8  1  0
  8  9  1  0
 10  2  1  0
  9 10  1  0
 10 11  1  0
  7 12  1  0
 11 12  1  0
 13 14  2  0
  6 15  1  0
 14 15  1  0
 15 16  2  0
 16 17  1  0
  4 18  1  0
 13 18  1  0
 17 18  2  0
 19 20  2  3
 20 21  1  0
 21 22  2  0
 22 23  1  0
 23 24  2  0
 24 25  1  0
 21 26  1  0
 25 26  2  0
 10 27  1  0
 23 28  1  0
 27 28  1  0
M  END
