x1249-x0981
     RDKit          3D

 36 37  0  0  0  0  0  0  0  0999 V2000
    1.2510   -8.6580   21.4570 C   0  0  0  0  0  0  0  0  0  0  0  0
    2.6920   -7.0870   22.6870 N   0  0  0  0  0  0  0  0  0  0  0  0
    0.4940   -6.5600   22.3100 O   0  0  0  0  0  0  0  0  0  0  0  0
    1.4240   -7.3490   22.1900 C   0  0  0  0  0  0  0  0  0  0  0  0
    2.5610   -8.2450   26.2760 N   0  0  0  0  0  0  0  0  0  0  0  0
    4.0410   -8.1920   24.5700 O   0  0  0  0  0  0  0  0  0  0  0  0
    2.9250   -5.9830   23.6140 C   0  0  1  0  0  0  0  0  0  0  0  0
    5.2290   -5.6100   22.3150 N   0  0  0  0  0  0  0  0  0  0  0  0
    4.3080   -3.9700   23.7640 N   0  0  0  0  0  0  0  0  0  0  0  0
    2.9090   -6.2920   24.9860 C   0  0  0  0  0  0  0  0  0  0  0  0
    3.2130   -7.6270   25.2470 C   0  0  0  0  0  0  0  0  0  0  0  0
    4.2120   -5.1790   23.2010 C   0  0  0  0  0  0  0  0  0  0  0  0
    6.2520   -4.7920   21.8550 C   0  0  0  0  0  0  0  0  0  0  0  0
    6.4110   -5.0090   20.3630 C   0  0  0  0  0  0  0  0  0  0  0  0
    5.6660   -6.2140   19.8480 C   0  0  0  0  0  0  0  0  0  0  0  0
    5.3400   -3.1210   23.5220 C   0  0  0  0  0  0  0  0  0  0  0  0
    4.9750   -1.7510   23.3880 C   0  0  0  0  0  0  0  0  0  0  0  0
    8.2250    0.4350   25.0000 N   0  0  0  0  0  0  0  0  0  0  0  0
    7.6670    1.3460   24.0810 C   0  0  0  0  0  0  0  0  0  0  0  0
    8.3190    2.2390   23.5470 O   0  0  0  0  0  0  0  0  0  0  0  0
    9.4600    0.7230   25.3930 C   0  0  0  0  0  0  0  0  0  0  0  0
   13.7660   -1.9200   20.6300 N   0  0  0  0  0  0  0  0  0  0  0  0
   13.0710   -1.4540   21.6070 C   0  0  0  0  0  0  0  0  0  0  0  0
    3.7110    0.9320   23.5450 O   0  0  0  0  0  0  0  0  0  0  0  0
    4.5640    1.0550   22.4890 C   0  0  0  0  0  0  0  0  0  0  0  0
    5.6120    1.8910   22.8100 C   0  0  0  0  0  0  0  0  0  0  0  0
    6.3350    1.1600   23.8390 N   0  0  0  0  0  0  0  0  0  0  0  0
    5.4820    0.9580   25.0650 C   0  0  0  0  0  0  0  0  0  0  0  0
    4.2490    0.3540   24.7500 C   0  0  2  0  0  0  0  0  0  0  0  0
   11.4940    0.9630   23.9690 C   0  0  0  0  0  0  0  0  0  0  0  0
   12.3770    0.4360   23.0550 C   0  0  0  0  0  0  0  0  0  0  0  0
   12.1840   -0.8770   22.5860 C   0  0  0  0  0  0  0  0  0  0  0  0
   11.1260   -1.6380   23.0440 C   0  0  0  0  0  0  0  0  0  0  0  0
   10.2490   -1.1170   23.9560 C   0  0  0  0  0  0  0  0  0  0  0  0
   10.4290    0.1750   24.4140 C   0  0  0  0  0  0  0  0  0  0  0  0
    4.3820   -1.1580   24.6810 C   0  0  0  0  0  0  0  0  0  0  0  0
  1  4  1  0
  2  4  1  0
  3  4  2  0
  2  7  1  0
  7 10  1  1
  5 11  1  0
  6 11  2  0
 10 11  1  0
  7 12  1  0
  8 12  1  0
  9 12  2  3
  8 13  1  0
 13 14  1  0
 14 15  2  3
  9 16  1  0
 16 17  1  0
 18 19  1  0
 19 20  2  0
 18 21  1  0
 22 23  3  0
 24 25  1  0
 25 26  1  0
 19 27  1  0
 26 27  1  0
 27 28  1  0
 24 29  1  0
 28 29  1  0
 30 31  2  0
 23 32  1  0
 31 32  1  0
 32 33  2  0
 33 34  1  0
 21 35  1  0
 30 35  1  0
 34 35  2  0
 17 36  1  0
 29 36  1  6
M  END
