x1249-x2912
     RDKit          3D

 29 33  0  0  0  0  0  0  0  0999 V2000
    6.6260    0.3150   21.9740 N   0  0  0  0  0  0  0  0  0  0  0  0
    8.0290   -0.0140   24.8750 C   0  0  0  0  0  0  0  0  0  0  0  0
    8.8220    0.2750   21.3480 O   0  0  0  0  0  0  0  0  0  0  0  0
    8.6540    0.0750   23.6210 C   0  0  0  0  0  0  0  0  0  0  0  0
    7.9410    0.2350   22.1930 C   0  0  0  0  0  0  0  0  0  0  0  0
   13.1150   -3.0630   21.1560 N   0  0  0  0  0  0  0  0  0  0  0  0
    4.1010    0.4450   22.1300 C   0  0  0  0  0  0  0  0  0  0  0  0
   12.6530   -2.1960   21.7600 C   0  0  0  0  0  0  0  0  0  0  0  0
    6.8030    0.1340   23.9200 C   0  0  0  0  0  0  0  0  0  0  0  0
    7.2640    0.2190   22.8040 O   0  0  0  0  0  0  0  0  0  0  0  0
    9.4460   -0.1250   25.3640 C   0  0  0  0  0  0  0  0  0  0  0  0
    6.1550    0.6470   18.3120 N   0  0  0  0  0  0  0  0  0  0  0  0
    4.8150    0.7480   18.3260 C   0  0  0  0  0  0  0  0  0  0  0  0
    3.9690    0.6990   19.6020 C   0  0  0  0  0  0  0  0  0  0  0  0
    4.6640    0.5390   20.7810 C   0  0  0  0  0  0  0  0  0  0  0  0
    6.0300    0.4510   20.7630 C   0  0  0  0  0  0  0  0  0  0  0  0
    6.7190    0.5050   19.5460 C   0  0  0  0  0  0  0  0  0  0  0  0
   10.9180    1.1400   23.6710 C   0  0  0  0  0  0  0  0  0  0  0  0
   12.2780    1.1250   23.3860 C   0  0  0  0  0  0  0  0  0  0  0  0
   12.8510    0.0190   22.7610 C   0  0  0  0  0  0  0  0  0  0  0  0
   12.0590   -1.0760   22.4170 C   0  0  0  0  0  0  0  0  0  0  0  0
   10.6910   -1.0810   22.6970 C   0  0  0  0  0  0  0  0  0  0  0  0
   10.1060    0.0440   23.3340 C   0  0  0  0  0  0  0  0  0  0  0  0
    2.6500    0.3010   24.4960 O   0  0  0  0  0  0  0  0  0  0  0  0
    3.1180    0.4020   23.1810 C   0  0  0  0  0  0  0  0  0  0  0  0
    4.4840    0.3120   23.3040 C   0  0  0  0  0  0  0  0  0  0  0  0
    5.4340    0.1710   24.2190 N   0  0  0  0  0  0  0  0  0  0  0  0
    4.8590    0.0770   25.4710 C   0  0  0  0  0  0  0  0  0  0  0  0
    3.5130    0.1410   25.5870 C   0  0  0  0  0  0  0  0  0  0  0  0
  2  4  2  0
  1  5  1  0
  3  5  2  0
  4  5  1  0
  6  8  3  0
  2  9  1  0
  9 10  2  0
  2 11  1  0
 12 13  1  0
 13 14  2  0
  7 15  2  0
 14 15  1  0
  1 16  2  0
 15 16  1  0
 12 17  2  0
 16 17  1  0
 18 19  2  0
 19 20  1  0
  8 21  1  0
 20 21  2  0
 21 22  1  0
  4 23  1  0
 18 23  1  0
 22 23  2  0
  7 25  1  0
 24 25  1  0
  7 26  1  0
 25 26  2  0
  9 27  1  0
 26 27  1  0
 27 28  1  0
 24 29  1  0
 28 29  2  0
M  END
