x1249-x0161
     RDKit          3D

 28 30  0  0  0  0  0  0  0  0999 V2000
   13.3480   -2.3130   24.2500 C   0  0  0  0  0  0  0  0  0  0  0  0
   13.8980   -1.2670   23.8630 O   0  0  0  0  0  0  0  0  0  0  0  0
   13.3110   -0.6040   23.0220 C   0  0  1  0  0  0  0  0  0  0  0  0
   13.4800   -0.7260   21.8250 O   0  0  0  0  0  0  0  0  0  0  0  0
   10.4900    5.1770   23.6890 S   0  0  0  0  0  0  0  0  0  0  0  0
   11.4730    6.0250   23.0610 O   0  0  0  0  0  0  0  0  0  0  0  0
    9.9920    5.5020   25.0050 O   0  0  0  0  0  0  0  0  0  0  0  0
    9.1220    5.3100   22.7290 N   0  0  0  0  0  0  0  0  0  0  0  0
   13.0650   -2.0260   21.2850 N   0  0  0  0  0  0  0  0  0  0  0  0
    8.1210    1.6030   24.6450 N   0  0  0  0  0  0  0  0  0  0  0  0
    7.4980    1.2260   23.5300 C   0  0  0  0  0  0  0  0  0  0  0  0
    8.2410    1.0630   22.3730 O   0  0  0  0  0  0  0  0  0  0  0  0
    8.7880    2.7430   24.3480 C   0  0  0  0  0  0  0  0  0  0  0  0
   11.6870    0.5990   23.2240 C   0  0  2  0  0  0  0  0  0  0  0  0
   12.6150    1.6450   23.0390 C   0  0  0  0  0  0  0  0  0  0  0  0
   12.2750    3.0060   23.1680 C   0  0  0  0  0  0  0  0  0  0  0  0
   11.0020    3.4430   23.5610 C   0  0  0  0  0  0  0  0  0  0  0  0
   10.0620    2.4450   23.9020 C   0  0  0  0  0  0  0  0  0  0  0  0
   10.4650    0.9750   23.7660 C   0  0  0  0  0  0  0  0  0  0  0  0
    3.3490    0.8020   23.8010 O   0  0  0  0  0  0  0  0  0  0  0  0
    4.0640    0.7540   22.5660 C   0  0  0  0  0  0  0  0  0  0  0  0
    5.3740    1.5350   22.7280 C   0  0  0  0  0  0  0  0  0  0  0  0
    6.0320    1.0670   23.5690 N   0  0  0  0  0  0  0  0  0  0  0  0
    5.4790    0.7180   24.7630 C   0  0  0  0  0  0  0  0  0  0  0  0
    4.1760    0.2450   24.8320 C   0  0  0  0  0  0  0  0  0  0  0  0
   11.9640   -0.9990   23.4140 C   0  0  0  0  0  0  0  0  0  0  0  0
   10.6550   -1.2660   23.7870 C   0  0  0  0  0  0  0  0  0  0  0  0
    9.7910   -0.2800   24.0360 C   0  0  0  0  0  0  0  0  0  0  0  0
  1  2  1  0
  3  2  1  1
  3  4  1  0
  5  6  2  0
  5  7  2  0
  5  8  1  0
  4  9  1  0
 10 11  1  0
 11 12  2  0
 10 13  1  0
 14 15  1  1
 15 16  2  0
  5 17  1  0
 16 17  1  0
 13 18  1  0
 17 18  2  0
 14 19  1  0
 18 19  1  0
 20 21  1  0
 21 22  1  0
 11 23  1  0
 22 23  1  0
 23 24  1  0
 20 25  1  0
 24 25  1  0
  3 26  1  0
 14 26  1  0
 26 27  2  0
 19 28  2  0
 27 28  1  0
M  END
