x1249-x0786
     RDKit          3D

 40 44  0  0  0  0  0  0  0  0999 V2000
    6.8570   -4.3210   21.9140 N   0  0  0  0  0  0  0  0  0  0  0  0
    7.7790   -4.7720   19.8340 C   0  0  0  0  0  0  0  0  0  0  0  0
    5.4640   -4.2480   20.1170 O   0  0  0  0  0  0  0  0  0  0  0  0
    6.5600   -4.4160   20.6200 C   0  0  0  0  0  0  0  0  0  0  0  0
    3.7650   -7.8680   24.7790 O   0  0  0  0  0  0  0  0  0  0  0  0
    3.3330   -6.8120   24.3220 C   0  0  0  0  0  0  0  0  0  0  0  0
    6.4650   -3.2680   22.2770 C   0  0  0  0  0  0  0  0  0  0  0  0
    6.0730   -2.2160   22.6410 C   0  0  0  0  0  0  0  0  0  0  0  0
    5.6810   -1.1640   23.0040 C   0  0  0  0  0  0  0  0  0  0  0  0
    5.9790   -4.4620   23.0000 C   0  0  0  0  0  0  0  0  0  0  0  0
    5.1220   -5.5520   23.1050 C   0  0  0  0  0  0  0  0  0  0  0  0
    4.2610   -5.6390   24.1990 C   0  0  0  0  0  0  0  0  0  0  0  0
    4.2560   -4.6240   25.1480 C   0  0  0  0  0  0  0  0  0  0  0  0
    5.1060   -3.5380   25.0230 C   0  0  0  0  0  0  0  0  0  0  0  0
    5.9690   -3.4500   23.9540 C   0  0  0  0  0  0  0  0  0  0  0  0
    1.5580   -5.4650   23.2350 C   0  0  0  0  0  0  0  0  0  0  0  0
    0.4650   -4.8160   24.0540 C   0  0  0  0  0  0  0  0  0  0  0  0
   -0.9740   -5.8780   24.2380 S   0  0  0  0  0  0  0  0  0  0  0  0
   -0.0870   -7.2920   24.9110 C   0  0  0  0  0  0  0  0  0  0  0  0
    1.0610   -7.7310   24.0310 C   0  0  0  0  0  0  0  0  0  0  0  0
    2.0650   -6.6690   23.9060 N   0  0  0  0  0  0  0  0  0  0  0  0
    8.4840    0.6560   24.9200 N   0  0  0  0  0  0  0  0  0  0  0  0
    7.7390    1.4150   24.0160 C   0  0  0  0  0  0  0  0  0  0  0  0
    8.2110    2.4130   23.4480 O   0  0  0  0  0  0  0  0  0  0  0  0
    9.8680    0.9900   25.2470 C   0  0  0  0  0  0  0  0  0  0  0  0
   14.0100   -1.7960   20.5670 N   0  0  0  0  0  0  0  0  0  0  0  0
   13.3060   -1.3600   21.3680 C   0  0  0  0  0  0  0  0  0  0  0  0
    3.5090    1.0290   23.6580 O   0  0  0  0  0  0  0  0  0  0  0  0
    4.2550    0.9960   22.4580 C   0  0  0  0  0  0  0  0  0  0  0  0
    5.6490    1.6050   22.7030 C   0  0  0  0  0  0  0  0  0  0  0  0
    6.3700    0.9150   23.8060 C   0  0  0  0  0  0  0  0  0  0  0  0
    5.5150    0.8020   25.0320 C   0  0  0  0  0  0  0  0  0  0  0  0
    4.0830    0.3020   24.7300 C   0  0  0  0  0  0  0  0  0  0  0  0
   11.9520    1.0280   23.8510 C   0  0  0  0  0  0  0  0  0  0  0  0
   12.8010    0.4500   22.9110 C   0  0  0  0  0  0  0  0  0  0  0  0
   12.4670   -0.7870   22.3500 C   0  0  0  0  0  0  0  0  0  0  0  0
   11.3090   -1.4570   22.7350 C   0  0  0  0  0  0  0  0  0  0  0  0
   10.4710   -0.8790   23.6800 C   0  0  0  0  0  0  0  0  0  0  0  0
   10.7890    0.3670   24.2360 C   0  0  0  0  0  0  0  0  0  0  0  0
    6.0250   -0.1240   23.4050 C   0  0  0  0  0  0  0  0  0  0  0  0
  1  4  1  0
  2  4  1  0
  3  4  2  0
  5  6  2  0
  1  7  1  0
  7  8  2  0
  8  9  1  0
  1 10  1  0
 10 11  2  0
  6 12  1  0
 11 12  1  0
 12 13  2  0
 13 14  1  0
  8 15  1  0
 10 15  1  0
 14 15  2  0
 16 17  1  0
 17 18  1  0
 18 19  1  0
 19 20  1  0
  6 21  1  0
 16 21  1  0
 20 21  1  0
 22 23  1  0
 23 24  2  0
 22 25  1  0
 26 27  3  0
 28 29  1  0
 29 30  1  0
 31 23  1  0
 30 31  1  0
 31 32  1  0
 28 33  1  0
 32 33  1  0
 34 35  2  0
 27 36  1  0
 35 36  1  0
 36 37  2  0
 37 38  1  0
 25 39  1  0
 34 39  1  0
 38 39  2  0
  9 40  1  0
 31 40  1  0
M  END
