x1249-x2052
     RDKit          3D

 39 43  0  0  0  0  0  0  0  0999 V2000
    5.8110   -1.2540   24.6790 C   0  0  0  0  0  0  0  0  0  0  0  0
    4.6520   -0.5890   24.3950 N   0  0  0  0  0  0  0  0  0  0  0  0
    6.6490   -0.8630   25.7210 N   0  0  0  0  0  0  0  0  0  0  0  0
    5.5070   -4.7150   20.0100 O   0  0  0  0  0  0  0  0  0  0  0  0
    5.2650    1.9120   30.4940 O   0  0  0  0  0  0  0  0  0  0  0  0
    6.4070   -3.9280   20.3210 C   0  0  0  0  0  0  0  0  0  0  0  0
    7.1900   -3.1980   19.2320 C   0  0  0  0  0  0  0  0  0  0  0  0
    5.9100    2.9520   30.6470 C   0  0  0  0  0  0  0  0  0  0  0  0
    8.2110    0.6970   25.0880 N   0  0  0  0  0  0  0  0  0  0  0  0
    7.4910    1.3760   24.1690 C   0  0  0  0  0  0  0  0  0  0  0  0
    8.0540    2.1540   23.3950 O   0  0  0  0  0  0  0  0  0  0  0  0
    9.5490    1.0060   25.1460 C   0  0  0  0  0  0  0  0  0  0  0  0
   13.5330   -2.9500   20.6990 N   0  0  0  0  0  0  0  0  0  0  0  0
   12.9710   -1.9540   21.5680 C   0  0  0  0  0  0  0  0  0  0  0  0
    7.9260   -0.5680   25.5070 C   0  0  0  0  0  0  0  0  0  0  0  0
    6.8060   -3.7000   21.6650 N   0  0  0  0  0  0  0  0  0  0  0  0
    7.6330   -2.5340   21.8980 C   0  0  0  0  0  0  0  0  0  0  0  0
    7.0550   -1.5340   22.8830 C   0  0  0  0  0  0  0  0  0  0  0  0
    6.1120   -2.2820   23.6310 C   0  0  0  0  0  0  0  0  0  0  0  0
    6.5970   -3.6970   23.9250 C   0  0  0  0  0  0  0  0  0  0  0  0
    6.5850   -4.4990   22.7570 C   0  0  0  0  0  0  0  0  0  0  0  0
    6.3400    1.8910   28.2500 N   0  0  0  0  0  0  0  0  0  0  0  0
    6.6290    1.1540   27.1460 C   0  0  0  0  0  0  0  0  0  0  0  0
    6.2820   -0.2330   26.8850 C   0  0  0  0  0  0  0  0  0  0  0  0
    5.5600   -0.8150   27.9500 C   0  0  0  0  0  0  0  0  0  0  0  0
    5.2250   -0.1050   29.1380 C   0  0  0  0  0  0  0  0  0  0  0  0
    5.5940    1.2390   29.3290 C   0  0  0  0  0  0  0  0  0  0  0  0
    3.3840    1.2640   24.0290 O   0  0  0  0  0  0  0  0  0  0  0  0
    4.1040    1.1590   22.7760 C   0  0  0  0  0  0  0  0  0  0  0  0
    5.4530    1.5850   22.8640 C   0  0  0  0  0  0  0  0  0  0  0  0
    6.1040    1.1980   24.1280 N   0  0  0  0  0  0  0  0  0  0  0  0
    5.2160    1.4100   25.2760 C   0  0  0  0  0  0  0  0  0  0  0  0
    4.1560    0.5550   24.9940 C   0  0  2  0  0  0  0  0  0  0  0  0
   11.6220    0.8980   23.8010 C   0  0  0  0  0  0  0  0  0  0  0  0
   12.5130    0.2280   22.9230 C   0  0  0  0  0  0  0  0  0  0  0  0
   12.2030   -1.0710   22.4860 C   0  0  0  0  0  0  0  0  0  0  0  0
   11.0530   -1.6710   22.9200 C   0  0  0  0  0  0  0  0  0  0  0  0
   10.1250   -0.9750   23.8390 C   0  0  0  0  0  0  0  0  0  0  0  0
   10.4180    0.2970   24.2650 C   0  0  0  0  0  0  0  0  0  0  0  0
  1  2  2  0
  1  3  1  0
  4  6  2  0
  6  7  1  0
  5  8  1  0
  9 10  1  0
 10 11  2  0
  9 12  1  0
 13 14  3  0
  3 15  1  0
  9 15  1  0
  6 16  1  0
 16 17  1  0
 17 18  1  0
  1 19  1  0
 18 19  1  0
 19 20  1  0
 16 21  1  0
 20 21  1  0
 22 23  2  0
  3 24  1  0
 23 24  1  0
 24 25  2  0
 25 26  1  0
  5 27  1  0
 22 27  1  0
 26 27  2  0
 28 29  1  0
 29 30  1  0
 10 31  1  0
 30 31  1  0
 31 32  1  0
 33  2  1  6
 28 33  1  0
 32 33  1  0
 34 35  2  0
 14 36  1  0
 35 36  1  0
 36 37  2  0
 37 38  1  0
 12 39  1  0
 34 39  1  0
 38 39  2  0
M  END
