x1249-x2540
     RDKit          3D

 38 40  0  0  0  0  0  0  0  0999 V2000
    6.9660   -1.4520   21.7170 N   0  0  0  0  0  0  0  0  0  0  0  0
    7.2190   -3.3350   19.4180 C   0  0  0  0  0  0  0  0  0  0  0  0
    4.7850   -2.9880   21.3370 O   0  0  0  0  0  0  0  0  0  0  0  0
    6.9500   -3.7450   20.8500 C   0  0  0  0  0  0  0  0  0  0  0  0
    8.0570    1.5080   22.8800 C   0  0  0  0  0  0  0  0  0  0  0  0
    8.2250    1.5610   20.4450 O   0  0  0  0  0  0  0  0  0  0  0  0
    6.1000   -2.6500   21.3420 C   0  0  0  0  0  0  0  0  0  0  0  0
    6.6480   -0.0360   21.4390 C   0  0  1  0  0  0  0  0  0  0  0  0
    7.6530    0.9940   21.5410 C   0  0  0  0  0  0  0  0  0  0  0  0
    9.1650    2.3420   23.4320 C   0  0  0  0  0  0  0  0  0  0  0  0
    8.9520    2.7240   24.7290 C   0  0  0  0  0  0  0  0  0  0  0  0
    9.1650    3.4720   22.5890 C   0  0  0  0  0  0  0  0  0  0  0  0
   10.5020    1.7910   23.0570 C   0  0  0  0  0  0  0  0  0  0  0  0
   11.9170   -1.3260   23.4940 C   0  0  0  0  0  0  0  0  0  0  0  0
   12.7870   -0.8210   22.3210 C   0  0  0  0  0  0  0  0  0  0  0  0
   12.0680   -0.2490   24.5810 C   0  0  0  0  0  0  0  0  0  0  0  0
   12.5810   -2.5960   24.0600 C   0  0  0  0  0  0  0  0  0  0  0  0
    7.8090    1.7600   25.3210 N   0  0  0  0  0  0  0  0  0  0  0  0
    7.3350    1.4020   24.1620 C   0  0  0  0  0  0  0  0  0  0  0  0
    8.5830    0.7190   26.0440 C   0  0  0  0  0  0  0  0  0  0  0  0
   13.1590   -1.8860   21.3790 N   0  0  0  0  0  0  0  0  0  0  0  0
    6.3000    0.4220   17.7210 N   0  0  0  0  0  0  0  0  0  0  0  0
    5.1960    1.2030   17.7310 C   0  0  0  0  0  0  0  0  0  0  0  0
    4.5420    1.5690   18.8740 C   0  0  0  0  0  0  0  0  0  0  0  0
    4.9920    1.1620   20.0800 C   0  0  0  0  0  0  0  0  0  0  0  0
    6.1260    0.3680   20.1220 C   0  0  0  0  0  0  0  0  0  0  0  0
    6.7570    0.0070   18.9200 C   0  0  0  0  0  0  0  0  0  0  0  0
    9.5060   -2.2050   24.1710 O   0  0  0  0  0  0  0  0  0  0  0  0
    8.1800   -2.2220   23.6590 N   0  0  0  0  0  0  0  0  0  0  0  0
    8.2630   -1.5790   22.4560 C   0  0  0  0  0  0  0  0  0  0  0  0
    9.5660   -1.1520   22.1580 C   0  0  0  0  0  0  0  0  0  0  0  0
   10.3790   -1.5260   23.2220 C   0  0  0  0  0  0  0  0  0  0  0  0
    3.3970    0.2750   23.8750 O   0  0  0  0  0  0  0  0  0  0  0  0
    4.0500    0.7920   22.9060 C   0  0  0  0  0  0  0  0  0  0  0  0
    5.1710    1.5850   23.1560 C   0  0  0  0  0  0  0  0  0  0  0  0
    6.1080    0.8730   24.0830 N   0  0  0  0  0  0  0  0  0  0  0  0
    5.3980    0.2530   25.2400 C   0  0  0  0  0  0  0  0  0  0  0  0
    4.0230    0.5630   25.1460 C   0  0  0  0  0  0  0  0  0  0  0  0
  2  4  1  0
  1  7  1  0
  3  7  2  0
  4  7  1  0
  1  8  1  0
  5  9  1  0
  6  9  2  0
  8  9  1  6
 10  5  1  0
 10 11  1  0
 10 12  1  0
 10 13  1  0
 14 15  1  0
 14 16  1  0
 14 17  1  0
  5 19  2  3
 18 19  1  0
 18 20  1  0
 15 21  3  0
 22 23  2  0
 23 24  1  0
 24 25  2  0
  8 26  1  0
 25 26  1  0
 22 27  1  0
 26 27  2  0
 28 29  1  0
  1 30  1  0
 29 30  2  0
 30 31  1  0
 14 32  1  0
 28 32  1  0
 31 32  2  0
 33 34  1  0
 34 35  1  0
 19 36  1  0
 35 36  1  0
 36 37  1  0
 33 38  1  0
 37 38  1  0
M  END
