x1249-x2119
     RDKit          3D

 27 29  0  0  0  0  0  0  0  0999 V2000
    8.2510    0.6740   24.9220 N   0  0  0  0  0  0  0  0  0  0  0  0
    7.5650    1.5130   24.0970 C   0  0  0  0  0  0  0  0  0  0  0  0
    8.1070    2.4580   23.5120 O   0  0  0  0  0  0  0  0  0  0  0  0
    9.5320    0.9500   25.2560 C   0  0  0  0  0  0  0  0  0  0  0  0
   13.5500   -2.7300   20.7140 N   0  0  0  0  0  0  0  0  0  0  0  0
   12.9440   -1.8990   21.5820 C   0  0  0  0  0  0  0  0  0  0  0  0
    3.4850    1.2200   23.7520 O   0  0  0  0  0  0  0  0  0  0  0  0
    4.1960    1.1620   22.7530 C   0  0  1  0  0  0  0  0  0  0  0  0
    5.5430    1.5150   22.8710 C   0  0  0  0  0  0  0  0  0  0  0  0
    6.1780    1.1820   23.9980 N   0  0  0  0  0  0  0  0  0  0  0  0
    5.3660    0.8490   25.0780 C   0  0  0  0  0  0  0  0  0  0  0  0
    3.9910    0.6650   24.8910 C   0  0  0  0  0  0  0  0  0  0  0  0
   11.6410    0.8890   23.8380 C   0  0  0  0  0  0  0  0  0  0  0  0
   12.5400    0.2820   22.9460 C   0  0  0  0  0  0  0  0  0  0  0  0
   12.1930   -1.1410   22.4690 C   0  0  0  0  0  0  0  0  0  0  0  0
   11.0350   -1.7340   22.9490 C   0  0  0  0  0  0  0  0  0  0  0  0
   10.1470   -0.9930   23.9070 C   0  0  0  0  0  0  0  0  0  0  0  0
   10.4640    0.2730   24.3150 C   0  0  0  0  0  0  0  0  0  0  0  0
    5.9190   -5.4110   20.0550 N   0  0  0  0  0  0  0  0  0  0  0  0
    6.5740   -4.2970   20.0210 C   0  0  0  0  0  0  0  0  0  0  0  0
    6.4020   -3.3100   21.0240 C   0  0  0  0  0  0  0  0  0  0  0  0
    5.1220   -2.9170   21.5700 N   0  0  0  0  0  0  0  0  0  0  0  0
    5.4190   -2.0110   22.3990 C   0  0  0  0  0  0  0  0  0  0  0  0
    6.7560   -1.7340   22.5180 C   0  0  0  0  0  0  0  0  0  0  0  0
    7.3720   -2.5570   21.6450 N   0  0  0  0  0  0  0  0  0  0  0  0
    4.1890   -0.3050   22.2550 C   0  0  0  0  0  0  0  0  0  0  0  0
    4.5690   -1.2810   23.1730 C   0  0  0  0  0  0  0  0  0  0  0  0
  1  2  1  0
  2  3  2  0
  1  4  1  0
  5  6  3  0
  7  8  1  0
  8  9  1  0
  2 10  1  0
  9 10  1  0
 10 11  1  0
  7 12  1  0
 11 12  1  0
 13 14  2  0
  6 15  1  0
 14 15  1  0
 15 16  2  0
 16 17  1  0
  4 18  1  0
 13 18  1  0
 17 18  2  0
 19 20  2  3
 20 21  1  0
 21 22  2  0
 22 23  1  0
 23 24  2  0
 21 25  1  0
 24 25  1  0
  8 26  1  1
 23 27  1  0
 26 27  1  0
M  END
