x1249-x1334
     RDKit          3D

 36 40  0  0  0  0  0  0  0  0999 V2000
    8.6170    1.0040   24.5330 N   0  0  0  0  0  0  0  0  0  0  0  0
    7.4500    1.4850   24.9990 C   0  0  0  0  0  0  0  0  0  0  0  0
    7.4230    2.4650   25.7190 O   0  0  0  0  0  0  0  0  0  0  0  0
    9.6310    1.8940   24.3870 C   0  0  0  0  0  0  0  0  0  0  0  0
   13.6120   -2.4160   20.8110 N   0  0  0  0  0  0  0  0  0  0  0  0
   13.0990   -1.6460   21.7790 C   0  0  0  0  0  0  0  0  0  0  0  0
    7.3920   -3.0290   18.7680 C   0  0  0  0  0  0  0  0  0  0  0  0
    5.3800   -4.0420   19.6550 O   0  0  0  0  0  0  0  0  0  0  0  0
    7.5100   -5.9160   28.4290 Cl  0  0  0  0  0  0  0  0  0  0  0  0
    6.3530   -3.3150   19.8460 C   0  0  0  0  0  0  0  0  0  0  0  0
    8.9830   -2.8230   23.9920 C   0  0  2  0  0  0  0  0  0  0  0  0
    8.9790   -0.3570   24.1240 C   0  0  0  0  0  0  0  0  0  0  0  0
    8.2110   -1.5030   24.1970 C   0  0  0  0  0  0  0  0  0  0  0  0
    3.5310    0.9370   23.6350 O   0  0  0  0  0  0  0  0  0  0  0  0
    4.5020    0.8780   22.6090 C   0  0  0  0  0  0  0  0  0  0  0  0
    5.8840    1.3450   23.1170 C   0  0  0  0  0  0  0  0  0  0  0  0
    6.2760    0.8330   24.4740 N   0  0  0  0  0  0  0  0  0  0  0  0
    5.1720    0.5290   25.4070 C   0  0  0  0  0  0  0  0  0  0  0  0
    3.9080    0.0390   24.6790 C   0  0  0  0  0  0  0  0  0  0  0  0
   11.9870    1.5290   23.3920 C   0  0  0  0  0  0  0  0  0  0  0  0
   12.8240    0.6560   22.7710 C   0  0  0  0  0  0  0  0  0  0  0  0
   12.3290   -0.6810   22.5380 C   0  0  0  0  0  0  0  0  0  0  0  0
   11.0880   -1.0770   22.9860 C   0  0  0  0  0  0  0  0  0  0  0  0
   10.2820   -0.1660   23.6120 C   0  0  0  0  0  0  0  0  0  0  0  0
   10.7290    1.1090   23.7740 C   0  0  0  0  0  0  0  0  0  0  0  0
    6.6220   -2.7100   21.1400 N   0  0  0  0  0  0  0  0  0  0  0  0
    7.5760   -1.7700   21.2920 C   0  0  0  0  0  0  0  0  0  0  0  0
    8.7860   -2.3350   21.7700 C   0  0  0  0  0  0  0  0  0  0  0  0
    8.6540   -3.3210   22.6940 N   0  0  0  0  0  0  0  0  0  0  0  0
    7.5520   -4.0840   22.7160 C   0  0  0  0  0  0  0  0  0  0  0  0
    6.3750   -3.4450   22.3590 C   0  0  0  0  0  0  0  0  0  0  0  0
    9.6460   -5.0380   25.1890 C   0  0  0  0  0  0  0  0  0  0  0  0
    8.8500   -3.8980   25.1150 C   0  0  0  0  0  0  0  0  0  0  0  0
    7.7150   -3.8410   26.4040 S   0  0  0  0  0  0  0  0  0  0  0  0
    8.2680   -5.3040   27.0290 C   0  0  0  0  0  0  0  0  0  0  0  0
    9.3190   -5.8650   26.2960 C   0  0  0  0  0  0  0  0  0  0  0  0
  1  2  1  0
  2  3  2  0
  1  4  1  0
  5  6  3  0
  7 10  1  0
  8 10  2  0
  1 12  1  0
 11 13  1  1
 12 13  1  0
 14 15  1  0
 15 16  1  0
  2 17  1  0
 16 17  1  0
 17 18  1  0
 14 19  1  0
 18 19  1  0
 20 21  2  0
  6 22  1  0
 21 22  1  0
 22 23  2  0
 12 24  2  0
 23 24  1  0
  4 25  2  0
 20 25  1  0
 24 25  1  0
 10 26  1  0
 26 27  1  0
 27 28  1  0
 11 29  1  0
 28 29  1  0
 29 30  1  0
 26 31  1  0
 30 31  1  0
 11 33  1  0
 32 33  2  0
 33 34  1  0
  9 35  1  0
 34 35  1  0
 32 36  1  0
 35 36  2  0
M  END
