x1249-x1402
     RDKit          3D

 38 41  0  0  0  0  0  0  0  0999 V2000
    7.8040   -3.6970   20.3700 C   0  0  0  0  0  0  0  0  0  0  0  0
    5.5880   -4.6200   19.9770 O   0  0  0  0  0  0  0  0  0  0  0  0
    1.0250   -1.3230   26.0760 Cl  0  0  0  0  0  0  0  0  0  0  0  0
    6.6010   -4.5960   20.7000 C   0  0  0  0  0  0  0  0  0  0  0  0
    4.2350   -6.6230   26.2400 O   0  0  0  0  0  0  0  0  0  0  0  0
    6.2300   -5.0280   27.0020 O   0  0  0  0  0  0  0  0  0  0  0  0
    5.0780   -5.3020   25.9470 S   0  0  0  0  0  0  0  0  0  0  0  0
    8.1800    0.4490   24.7650 N   0  0  0  0  0  0  0  0  0  0  0  0
    7.6010    1.4450   23.9050 C   0  0  0  0  0  0  0  0  0  0  0  0
    8.3470    2.2930   23.1040 O   0  0  0  0  0  0  0  0  0  0  0  0
    9.4680    0.7850   25.3170 C   0  0  0  0  0  0  0  0  0  0  0  0
   13.7250   -2.0270   20.6620 N   0  0  0  0  0  0  0  0  0  0  0  0
   13.1160   -1.4670   21.6650 C   0  0  0  0  0  0  0  0  0  0  0  0
    2.4380   -0.5750   25.4880 C   0  0  2  0  0  0  0  0  0  0  0  0
    2.4300    0.0940   24.2590 C   0  0  0  0  0  0  0  0  0  0  0  0
    6.7280   -5.3920   21.8500 N   0  0  0  0  0  0  0  0  0  0  0  0
    7.3940   -5.0340   22.9720 C   0  0  0  0  0  0  0  0  0  0  0  0
    6.4540   -4.4150   23.8250 C   0  0  0  0  0  0  0  0  0  0  0  0
    5.7290   -5.4440   24.3810 N   0  0  0  0  0  0  0  0  0  0  0  0
    4.9870   -6.0790   23.4300 C   0  0  0  0  0  0  0  0  0  0  0  0
    5.6790   -6.3340   22.2320 C   0  0  0  0  0  0  0  0  0  0  0  0
    2.3470   -4.0120   26.3590 S   0  0  0  0  0  0  0  0  0  0  0  0
    3.9410   -3.9340   25.9420 C   0  0  0  0  0  0  0  0  0  0  0  0
    4.3110   -2.6830   25.5670 C   0  0  0  0  0  0  0  0  0  0  0  0
    3.4890   -1.5440   25.4820 C   0  0  0  0  0  0  0  0  0  0  0  0
    2.3100   -2.3380   25.9620 C   0  0  0  0  0  0  0  0  0  0  0  0
    3.6560    0.9250   24.2500 N   0  0  0  0  0  0  0  0  0  0  0  0
    4.2790    0.8430   23.1040 C   0  0  0  0  0  0  0  0  0  0  0  0
    5.4870    1.5320   22.8620 C   0  0  0  0  0  0  0  0  0  0  0  0
    6.2420    1.4820   23.9750 N   0  0  0  0  0  0  0  0  0  0  0  0
    5.5610    1.4780   25.2660 C   0  0  0  0  0  0  0  0  0  0  0  0
    4.4600    0.7030   25.4470 C   0  0  0  0  0  0  0  0  0  0  0  0
   11.5580    1.0340   23.9400 C   0  0  0  0  0  0  0  0  0  0  0  0
   12.4790    0.5010   23.0420 C   0  0  0  0  0  0  0  0  0  0  0  0
   12.2640   -0.8000   22.6080 C   0  0  0  0  0  0  0  0  0  0  0  0
   11.1960   -1.5730   23.0340 C   0  0  0  0  0  0  0  0  0  0  0  0
   10.2970   -1.0460   23.9220 C   0  0  0  0  0  0  0  0  0  0  0  0
   10.4720    0.2470   24.3700 C   0  0  0  0  0  0  0  0  0  0  0  0
  1  4  1  0
  2  4  2  0
  5  7  2  0
  6  7  2  0
  8  9  1  0
  9 10  2  0
  8 11  1  0
 12 13  3  0
  3 14  1  0
 14 15  1  6
  4 16  1  0
 16 17  1  0
 17 18  1  0
  7 19  1  0
 18 19  1  0
 19 20  1  0
 16 21  1  0
 20 21  1  0
  7 23  1  0
 22 23  1  0
 23 24  2  0
 14 25  1  0
 24 25  1  0
 22 26  1  0
 25 26  2  0
 15 27  1  0
 27 28  1  0
 28 29  1  0
  9 30  1  0
 29 30  1  0
 30 31  1  0
 27 32  1  0
 31 32  1  0
 33 34  2  0
 13 35  1  0
 34 35  1  0
 35 36  2  0
 36 37  1  0
 11 38  1  0
 33 38  1  0
 37 38  2  0
M  END
