x1249-x2908
     RDKit          3D

 29 32  0  0  0  0  0  0  0  0999 V2000
    8.2020    0.5040   24.9100 N   0  0  0  0  0  0  0  0  0  0  0  0
    7.5170    1.3070   24.0370 C   0  0  0  0  0  0  0  0  0  0  0  0
    7.9610    2.3800   23.6180 O   0  0  0  0  0  0  0  0  0  0  0  0
    9.5540    0.8050   25.2940 C   0  0  0  0  0  0  0  0  0  0  0  0
   13.6330   -2.0530   20.7580 N   0  0  0  0  0  0  0  0  0  0  0  0
   13.0700   -1.5660   21.5920 C   0  0  0  0  0  0  0  0  0  0  0  0
    4.7410    1.6590   21.5200 C   0  0  1  0  0  0  0  0  0  0  0  0
    8.9580    1.1320   21.1640 O   0  0  0  0  0  0  0  0  0  0  0  0
    7.0990   -0.2770   21.0730 N   0  0  0  0  0  0  0  0  0  0  0  0
    8.9610   -0.9290   22.1050 N   0  0  0  0  0  0  0  0  0  0  0  0
    8.3650    0.0760   21.4190 C   0  0  0  0  0  0  0  0  0  0  0  0
    3.3240    0.8400   23.5740 O   0  0  0  0  0  0  0  0  0  0  0  0
    4.2940    0.6770   22.5500 C   0  0  2  0  0  0  0  0  0  0  0  0
    5.3890    1.6430   22.9100 C   0  0  1  0  0  0  0  0  0  0  0  0
    6.2750    0.8120   23.6800 N   0  0  0  0  0  0  0  0  0  0  0  0
    5.4410    0.0620   24.6580 C   0  0  0  0  0  0  0  0  0  0  0  0
    3.9880    0.6010   24.8220 C   0  0  0  0  0  0  0  0  0  0  0  0
   11.6150    0.9520   23.8400 C   0  0  0  0  0  0  0  0  0  0  0  0
   12.4860    0.3710   22.9330 C   0  0  0  0  0  0  0  0  0  0  0  0
   12.2520   -0.9440   22.5290 C   0  0  0  0  0  0  0  0  0  0  0  0
   11.1940   -1.6800   23.0260 C   0  0  0  0  0  0  0  0  0  0  0  0
   10.3330   -1.1030   23.9320 C   0  0  0  0  0  0  0  0  0  0  0  0
   10.5290    0.2120   24.3360 C   0  0  0  0  0  0  0  0  0  0  0  0
    6.2170    0.5210   17.6160 N   0  0  0  0  0  0  0  0  0  0  0  0
    6.8050    0.0020   18.7060 C   0  0  0  0  0  0  0  0  0  0  0  0
    6.4290    0.2870   20.0020 C   0  0  0  0  0  0  0  0  0  0  0  0
    5.3470    1.1810   20.2030 C   0  0  0  0  0  0  0  0  0  0  0  0
    4.7490    1.7070   19.0500 C   0  0  0  0  0  0  0  0  0  0  0  0
    5.2070    1.3620   17.8100 C   0  0  0  0  0  0  0  0  0  0  0  0
  1  2  1  0
  2  3  2  0
  1  4  1  0
  5  6  3  0
  8 11  2  0
  9 11  1  0
 10 11  1  0
  7 13  1  0
 13 12  1  1
  7 14  1  0
 13 14  1  0
  2 15  1  0
 14 15  1  6
 15 16  1  0
 12 17  1  0
 16 17  1  0
 18 19  2  0
  6 20  1  0
 19 20  1  0
 20 21  2  0
 21 22  1  0
  4 23  1  0
 18 23  1  0
 22 23  2  0
 24 25  2  0
  9 26  1  0
 25 26  1  0
  7 27  1  6
 26 27  2  0
 27 28  1  0
 24 29  1  0
 28 29  2  0
M  END
