x1249-x1375
     RDKit          3D

 38 41  0  0  0  0  0  0  0  0999 V2000
    5.6960   -4.6050   19.9880 O   0  0  0  0  0  0  0  0  0  0  0  0
    6.5640   -4.3990   20.8610 C   0  0  0  0  0  0  0  0  0  0  0  0
    8.0190   -3.8950   20.6190 C   0  0  0  0  0  0  0  0  0  0  0  0
    6.3020   -4.6280   22.2250 N   0  0  0  0  0  0  0  0  0  0  0  0
    2.2700   -6.6080   24.1980 O   0  0  0  0  0  0  0  0  0  0  0  0
    4.5010   -8.0150   24.5130 O   0  0  0  0  0  0  0  0  0  0  0  0
   10.7820   -4.4250   25.7230 F   0  0  0  0  0  0  0  0  0  0  0  0
    8.1550    0.7030   24.8420 N   0  0  0  0  0  0  0  0  0  0  0  0
    7.4580    1.4910   23.9620 C   0  0  0  0  0  0  0  0  0  0  0  0
    8.0470    2.5780   23.3350 O   0  0  0  0  0  0  0  0  0  0  0  0
    9.4010    1.1700   25.1890 C   0  0  0  0  0  0  0  0  0  0  0  0
   13.7330   -1.7680   20.7830 N   0  0  0  0  0  0  0  0  0  0  0  0
   13.1190   -1.3430   21.8440 C   0  0  0  0  0  0  0  0  0  0  0  0
   10.6460   -3.2960   25.0020 C   0  0  1  0  0  0  0  0  0  0  0  0
   11.5420   -2.9950   23.9810 C   0  0  0  0  0  0  0  0  0  0  0  0
    8.1540   -3.5150   23.4230 C   0  0  0  0  0  0  0  0  0  0  0  0
    9.3550   -3.2610   24.1790 C   0  0  0  0  0  0  0  0  0  0  0  0
    9.7940   -4.7040   24.5610 C   0  0  0  0  0  0  0  0  0  0  0  0
    9.1500   -5.8730   24.2130 C   0  0  0  0  0  0  0  0  0  0  0  0
    7.9160   -5.8670   23.3950 C   0  0  0  0  0  0  0  0  0  0  0  0
    7.4560   -4.6720   23.0230 C   0  0  0  0  0  0  0  0  0  0  0  0
    5.1530   -4.3520   24.3180 C   0  0  0  0  0  0  0  0  0  0  0  0
    5.0510   -4.6820   22.8920 C   0  0  2  0  0  0  0  0  0  0  0  0
    4.5170   -5.9950   22.7650 C   0  0  0  0  0  0  0  0  0  0  0  0
    3.8560   -6.6220   24.2210 S   0  0  0  0  0  0  0  0  0  0  0  0
    4.5230   -5.3430   25.2480 C   0  0  0  0  0  0  0  0  0  0  0  0
    3.3790    0.4430   23.5700 O   0  0  0  0  0  0  0  0  0  0  0  0
    4.2180    0.6410   22.4180 C   0  0  0  0  0  0  0  0  0  0  0  0
    5.1960    1.6000   22.6610 C   0  0  0  0  0  0  0  0  0  0  0  0
    6.0510    1.1030   23.7440 N   0  0  0  0  0  0  0  0  0  0  0  0
    5.4270    0.5050   24.7970 C   0  0  0  0  0  0  0  0  0  0  0  0
    4.0140    0.6570   24.8460 C   0  0  0  0  0  0  0  0  0  0  0  0
   11.2000    1.2770   23.4600 C   0  0  0  0  0  0  0  0  0  0  0  0
   12.0920    0.5760   22.6850 C   0  0  0  0  0  0  0  0  0  0  0  0
   12.2300   -0.8000   22.7710 C   0  0  0  0  0  0  0  0  0  0  0  0
   11.5000   -1.5260   23.6960 C   0  0  0  0  0  0  0  0  0  0  0  0
   10.6030   -0.8860   24.4740 C   0  0  0  0  0  0  0  0  0  0  0  0
   10.4230    0.5770   24.3460 C   0  0  0  0  0  0  0  0  0  0  0  0
  1  2  2  0
  2  3  1  0
  2  4  1  0
  8  9  1  0
  9 10  2  0
  8 11  1  0
 12 13  3  0
 14  7  1  6
 14 15  1  0
 14 17  1  0
 16 17  2  0
 17 18  1  0
 18 19  2  0
 19 20  1  0
  4 21  1  0
 16 21  1  0
 20 21  2  0
 23  4  1  1
 22 23  1  0
 23 24  1  0
 25  5  1  0
  6 25  1  0
 24 25  1  0
 22 26  2  0
 25 26  1  0
 27 28  1  0
 28 29  1  0
  9 30  1  0
 29 30  1  0
 30 31  1  0
 27 32  1  0
 31 32  1  0
 33 34  2  0
 13 35  1  0
 34 35  1  0
 15 36  1  0
 35 36  2  0
 36 37  1  0
 11 38  1  0
 33 38  1  0
 37 38  2  0
M  END
