x1249-x2646
     RDKit          3D

 29 32  0  0  0  0  0  0  0  0999 V2000
    8.1730    0.4830   24.8730 N   0  0  0  0  0  0  0  0  0  0  0  0
    7.5350    1.3710   24.0410 C   0  0  0  0  0  0  0  0  0  0  0  0
    8.1160    2.3390   23.5470 O   0  0  0  0  0  0  0  0  0  0  0  0
    9.5190    0.7450   25.3320 C   0  0  0  0  0  0  0  0  0  0  0  0
   13.6720   -1.9690   20.7590 N   0  0  0  0  0  0  0  0  0  0  0  0
   13.1040   -1.5130   21.6090 C   0  0  0  0  0  0  0  0  0  0  0  0
    4.8690    1.5000   21.3090 C   0  0  1  0  0  0  0  0  0  0  0  0
    8.9300    1.0920   21.2570 O   0  0  0  0  0  0  0  0  0  0  0  0
    7.3580   -0.6080   20.9370 N   0  0  0  0  0  0  0  0  0  0  0  0
    8.4380   -0.0250   21.4990 C   0  0  0  0  0  0  0  0  0  0  0  0
    9.0380   -0.9510   22.5090 C   0  0  0  0  0  0  0  0  0  0  0  0
    3.4120    0.9370   23.4740 O   0  0  0  0  0  0  0  0  0  0  0  0
    4.3480    0.6440   22.4340 C   0  0  2  0  0  0  0  0  0  0  0  0
    5.4450    1.6980   22.6970 C   0  0  1  0  0  0  0  0  0  0  0  0
    6.1900    1.1050   23.8150 N   0  0  0  0  0  0  0  0  0  0  0  0
    5.2670    0.8010   24.9590 C   0  0  0  0  0  0  0  0  0  0  0  0
    3.9930    0.3160   24.6400 C   0  0  0  0  0  0  0  0  0  0  0  0
   11.5490    0.9630   23.8430 C   0  0  0  0  0  0  0  0  0  0  0  0
   12.4370    0.4080   22.9300 C   0  0  0  0  0  0  0  0  0  0  0  0
   12.2720   -0.9230   22.5550 C   0  0  0  0  0  0  0  0  0  0  0  0
   11.2690   -1.7080   23.0850 C   0  0  0  0  0  0  0  0  0  0  0  0
   10.3850   -1.1600   23.9990 C   0  0  0  0  0  0  0  0  0  0  0  0
   10.5090    0.1730   24.3740 C   0  0  0  0  0  0  0  0  0  0  0  0
    6.0720    0.6590   17.6380 N   0  0  0  0  0  0  0  0  0  0  0  0
    6.9030   -0.1170   18.5970 C   0  0  0  0  0  0  0  0  0  0  0  0
    6.6470    0.0370   19.9460 C   0  0  0  0  0  0  0  0  0  0  0  0
    5.6280    0.8990   20.2490 C   0  0  0  0  0  0  0  0  0  0  0  0
    4.8130    1.6480   19.4560 C   0  0  0  0  0  0  0  0  0  0  0  0
    5.0910    1.4890   18.0980 C   0  0  0  0  0  0  0  0  0  0  0  0
  1  2  1  0
  2  3  2  0
  1  4  1  0
  5  6  3  0
  8 10  2  0
  9 10  1  0
 10 11  1  0
  7 13  1  0
 13 12  1  1
  7 14  1  0
 13 14  1  0
  2 15  1  0
 14 15  1  6
 15 16  1  0
 12 17  1  0
 16 17  1  0
 18 19  2  0
  6 20  1  0
 19 20  1  0
 20 21  2  0
 21 22  1  0
  4 23  1  0
 18 23  1  0
 22 23  2  0
 24 25  2  0
  9 26  1  0
 25 26  1  0
  7 27  1  6
 26 27  2  0
 27 28  1  0
 24 29  1  0
 28 29  2  0
M  END
