x1308-x0769
     RDKit          3D

 20 21  0  0  0  0  0  0  0  0999 V2000
    7.6430   -3.6110   20.3010 C   0  0  0  0  0  0  0  0  0  0  0  0
    5.5080   -4.6830   19.9780 O   0  0  0  0  0  0  0  0  0  0  0  0
    0.6980   -1.0880   26.3550 Cl  0  0  0  0  0  0  0  0  0  0  0  0
    6.5300   -4.5420   20.6780 C   0  0  0  0  0  0  0  0  0  0  0  0
    6.2410   -5.1510   27.0580 O   0  0  0  0  0  0  0  0  0  0  0  0
    4.5380   -6.9940   26.2660 O   0  0  0  0  0  0  0  0  0  0  0  0
    5.0900   -5.5200   26.0350 S   0  0  0  0  0  0  0  0  0  0  0  0
    5.5250   -2.6590   26.4860 F   0  0  0  0  0  0  0  0  0  0  0  0
    6.7110   -5.2640   21.8690 N   0  0  0  0  0  0  0  0  0  0  0  0
    7.3470   -4.7670   23.0980 C   0  0  0  0  0  0  0  0  0  0  0  0
    6.3720   -4.3560   24.0060 C   0  0  0  0  0  0  0  0  0  0  0  0
    5.7150   -5.4760   24.4610 N   0  0  0  0  0  0  0  0  0  0  0  0
    5.0500   -5.8850   23.5820 C   0  0  0  0  0  0  0  0  0  0  0  0
    5.8210   -6.2390   22.3020 C   0  0  0  0  0  0  0  0  0  0  0  0
    4.2420   -3.0060   26.3230 C   0  0  0  0  0  0  0  0  0  0  0  0
    3.2150   -2.0570   26.3870 C   0  0  0  0  0  0  0  0  0  0  0  0
    1.8650   -2.3360   26.2330 C   0  0  0  0  0  0  0  0  0  0  0  0
    1.4070   -3.7760   25.9560 C   0  0  0  0  0  0  0  0  0  0  0  0
    2.5750   -4.7740   25.9010 C   0  0  0  0  0  0  0  0  0  0  0  0
    3.8970   -4.3610   26.0850 C   0  0  0  0  0  0  0  0  0  0  0  0
  1  4  1  0
  2  4  2  0
  5  7  2  0
  6  7  2  0
  4  9  1  0
  9 10  1  0
 10 11  1  0
  7 12  1  0
 11 12  1  0
 12 13  1  0
  9 14  1  0
 13 14  1  0
  8 15  1  0
 15 16  2  0
  3 17  1  0
 16 17  1  0
 17 18  2  0
 18 19  1  0
  7 20  1  0
 15 20  1  0
 19 20  2  0
M  END
