x1308-x1093
     RDKit          3D

 40 44  0  0  0  0  0  0  0  0999 V2000
    7.2320   -3.4000   19.4310 C   0  0  0  0  0  0  0  0  0  0  0  0
    5.7010   -5.1180   20.0320 O   0  0  0  0  0  0  0  0  0  0  0  0
    0.7170   -1.3190   26.4190 Cl  0  0  0  0  0  0  0  0  0  0  0  0
    6.4490   -4.2230   20.4220 C   0  0  0  0  0  0  0  0  0  0  0  0
    6.5580   -5.1260   26.8620 O   0  0  0  0  0  0  0  0  0  0  0  0
    4.7470   -6.8800   26.0680 O   0  0  0  0  0  0  0  0  0  0  0  0
    5.3240   -5.4060   25.9040 S   0  0  0  0  0  0  0  0  0  0  0  0
   13.3620   -1.7900   23.6840 C   0  0  0  0  0  0  0  0  0  0  0  0
    8.8730    1.3890   21.2170 O   0  0  0  0  0  0  0  0  0  0  0  0
    8.8490    0.2590   21.7370 C   0  0  0  0  0  0  0  0  0  0  0  0
    7.6680   -0.7380   21.5710 C   0  0  2  0  0  0  0  0  0  0  0  0
    6.7350   -2.3610   21.8960 C   0  0  0  0  0  0  0  0  0  0  0  0
    8.1470   -2.2040   21.7520 C   0  0  0  0  0  0  0  0  0  0  0  0
    6.4790   -3.9160   21.9160 C   0  0  0  0  0  0  0  0  0  0  0  0
    7.4370   -4.6730   22.5780 C   0  0  0  0  0  0  0  0  0  0  0  0
    7.2820   -4.8910   24.1040 C   0  0  0  0  0  0  0  0  0  0  0  0
    5.8570   -5.2070   24.3120 N   0  0  0  0  0  0  0  0  0  0  0  0
    4.9880   -4.2340   23.6190 C   0  0  0  0  0  0  0  0  0  0  0  0
    5.1520   -4.2350   22.2450 C   0  0  0  0  0  0  0  0  0  0  0  0
    4.3980   -2.9040   26.4370 C   0  0  0  0  0  0  0  0  0  0  0  0
    3.3250   -2.0230   26.5380 C   0  0  0  0  0  0  0  0  0  0  0  0
    2.0040   -2.4500   26.2720 C   0  0  0  0  0  0  0  0  0  0  0  0
    1.7080   -3.7760   25.8900 C   0  0  0  0  0  0  0  0  0  0  0  0
    2.7020   -4.6570   25.7800 C   0  0  0  0  0  0  0  0  0  0  0  0
    4.1500   -4.2280   26.0660 C   0  0  0  0  0  0  0  0  0  0  0  0
   12.2670   -1.1580   23.6480 N   0  0  0  0  0  0  0  0  0  0  0  0
   12.0800    0.2150   23.3430 C   0  0  0  0  0  0  0  0  0  0  0  0
   10.7490    0.6120   23.1480 C   0  0  0  0  0  0  0  0  0  0  0  0
    9.8930   -0.2500   22.5330 N   0  0  0  0  0  0  0  0  0  0  0  0
   10.0600   -1.5360   22.8500 C   0  0  0  0  0  0  0  0  0  0  0  0
   11.3460   -1.9750   22.9830 C   0  0  0  0  0  0  0  0  0  0  0  0
    6.2630   -0.0250   18.0980 N   0  0  0  0  0  0  0  0  0  0  0  0
    7.1960   -0.6440   18.9140 C   0  0  0  0  0  0  0  0  0  0  0  0
    6.9560   -0.3430   20.2800 C   0  0  0  0  0  0  0  0  0  0  0  0
    5.8580    0.4650   20.2500 C   0  0  0  0  0  0  0  0  0  0  0  0
    5.4660    0.6440   18.9550 C   0  0  0  0  0  0  0  0  0  0  0  0
    4.3810    1.4270   18.6690 N   0  0  0  0  0  0  0  0  0  0  0  0
    3.7110    2.0050   19.7130 C   0  0  0  0  0  0  0  0  0  0  0  0
    4.1040    1.8210   21.0230 C   0  0  0  0  0  0  0  0  0  0  0  0
    5.1990    1.0420   21.3310 C   0  0  0  0  0  0  0  0  0  0  0  0
  1  4  1  0
  2  4  2  0
  5  7  2  0
  6  7  2  0
  9 10  2  0
 10 11  1  0
 11 13  1  6
 12 13  1  0
 14  4  1  0
 12 14  1  0
 14 15  1  0
 15 16  1  0
  7 17  1  0
 16 17  1  0
 17 18  1  0
 14 19  1  0
 18 19  1  0
 20 21  2  0
  3 22  1  0
 21 22  1  0
 22 23  2  0
 23 24  1  0
  7 25  1  0
 20 25  1  0
 24 25  2  0
  8 26  1  0
 26 27  1  0
 27 28  1  0
 10 29  1  0
 28 29  1  0
 29 30  1  0
 26 31  1  0
 30 31  1  0
 32 33  1  0
 11 34  1  0
 33 34  2  0
 34 35  1  0
 32 36  1  0
 35 36  2  0
 36 37  1  0
 37 38  2  0
 38 39  1  0
 35 40  1  0
 39 40  2  0
M  END
