x1308-x0689
     RDKit          3D

 19 20  0  0  0  0  0  0  0  0999 V2000
    7.6380   -3.6160   20.3170 C   0  0  0  0  0  0  0  0  0  0  0  0
    5.5060   -4.6890   19.9770 O   0  0  0  0  0  0  0  0  0  0  0  0
    0.7590   -1.0510   26.3430 Cl  0  0  0  0  0  0  0  0  0  0  0  0
    6.5230   -4.5520   20.6810 C   0  0  0  0  0  0  0  0  0  0  0  0
    6.2910   -5.1440   27.0470 O   0  0  0  0  0  0  0  0  0  0  0  0
    4.5750   -7.0050   26.3010 O   0  0  0  0  0  0  0  0  0  0  0  0
    5.1200   -5.5310   26.0520 S   0  0  0  0  0  0  0  0  0  0  0  0
    6.7010   -5.2820   21.8710 N   0  0  0  0  0  0  0  0  0  0  0  0
    7.3570   -4.7960   23.0980 C   0  0  0  0  0  0  0  0  0  0  0  0
    6.4010   -4.3750   24.0210 C   0  0  0  0  0  0  0  0  0  0  0  0
    5.7230   -5.4880   24.4740 N   0  0  0  0  0  0  0  0  0  0  0  0
    5.0460   -5.8830   23.6020 C   0  0  0  0  0  0  0  0  0  0  0  0
    5.7970   -6.2430   22.3110 C   0  0  0  0  0  0  0  0  0  0  0  0
    4.2360   -3.0600   26.4710 C   0  0  0  0  0  0  0  0  0  0  0  0
    3.2410   -2.0850   26.5280 C   0  0  0  0  0  0  0  0  0  0  0  0
    1.9070   -2.3180   26.2260 C   0  0  0  0  0  0  0  0  0  0  0  0
    1.4590   -3.7250   25.7880 C   0  0  0  0  0  0  0  0  0  0  0  0
    2.6140   -4.7490   25.7520 C   0  0  0  0  0  0  0  0  0  0  0  0
    3.9230   -4.3780   26.0910 C   0  0  0  0  0  0  0  0  0  0  0  0
  1  4  1  0
  2  4  2  0
  5  7  2  0
  6  7  2  0
  4  8  1  0
  8  9  1  0
  9 10  1  0
  7 11  1  0
 10 11  1  0
 11 12  1  0
  8 13  1  0
 12 13  1  0
 14 15  2  0
  3 16  1  0
 15 16  1  0
 16 17  2  0
 17 18  1  0
  7 19  1  0
 14 19  1  0
 18 19  2  0
M  END
