x1308-x0426
     RDKit          3D

 39 42  0  0  0  0  0  0  0  0999 V2000
    7.0640   -3.4850   19.9190 C   0  0  0  0  0  0  0  0  0  0  0  0
    5.3840   -5.1100   20.0170 O   0  0  0  0  0  0  0  0  0  0  0  0
    0.9880   -1.4610   26.5300 C   0  0  0  0  0  0  0  0  0  0  0  0
    6.3190   -4.5930   20.6160 C   0  0  0  0  0  0  0  0  0  0  0  0
    6.3650   -5.4420   27.1590 O   0  0  0  0  0  0  0  0  0  0  0  0
    4.5720   -7.0530   26.1090 O   0  0  0  0  0  0  0  0  0  0  0  0
    5.2450   -5.6130   26.0530 S   0  0  0  0  0  0  0  0  0  0  0  0
    2.3410    2.0640   23.7660 C   0  0  0  0  0  0  0  0  0  0  0  0
    2.2090    0.7340   23.9400 N   0  0  0  0  0  0  0  0  0  0  0  0
    3.3840    2.5540   22.9830 N   0  0  0  0  0  0  0  0  0  0  0  0
    3.9620    1.6660   22.4650 C   0  0  0  0  0  0  0  0  0  0  0  0
    3.4560    1.3220   21.0410 C   0  0  0  0  0  0  0  0  0  0  0  0
    2.8450    4.4520   25.4010 F   0  0  0  0  0  0  0  0  0  0  0  0
    0.8630   -0.9370   25.1210 C   0  0  0  0  0  0  0  0  0  0  0  0
    1.0960    0.3730   24.7920 C   0  0  0  0  0  0  0  0  0  0  0  0
    6.6410   -5.0650   21.8750 N   0  0  0  0  0  0  0  0  0  0  0  0
    7.4170   -4.4380   22.9170 C   0  0  0  0  0  0  0  0  0  0  0  0
    6.4910   -4.1090   24.1040 C   0  0  0  0  0  0  0  0  0  0  0  0
    5.9220   -5.4120   24.4960 N   0  0  0  0  0  0  0  0  0  0  0  0
    5.3000   -6.0110   23.4620 C   0  0  0  0  0  0  0  0  0  0  0  0
    6.0850   -6.3250   22.3500 C   0  0  0  0  0  0  0  0  0  0  0  0
    4.4680   -3.0230   26.3110 C   0  0  0  0  0  0  0  0  0  0  0  0
    3.3990   -2.1390   26.4210 C   0  0  0  0  0  0  0  0  0  0  0  0
    2.0440   -2.5110   26.4270 C   0  0  0  0  0  0  0  0  0  0  0  0
    1.7230   -3.8690   26.3190 C   0  0  0  0  0  0  0  0  0  0  0  0
    2.6720   -4.7740   26.2080 C   0  0  0  0  0  0  0  0  0  0  0  0
    4.1510   -4.3820   26.1970 C   0  0  0  0  0  0  0  0  0  0  0  0
    1.5880    4.0170   25.2640 C   0  0  0  0  0  0  0  0  0  0  0  0
    1.3090    2.8930   24.4910 C   0  0  0  0  0  0  0  0  0  0  0  0
   -0.0320    2.4610   24.3670 C   0  0  0  0  0  0  0  0  0  0  0  0
   -1.0360    3.1570   25.0160 C   0  0  0  0  0  0  0  0  0  0  0  0
   -0.7840    4.2880   25.8020 C   0  0  0  0  0  0  0  0  0  0  0  0
    0.5550    4.6980   25.9050 C   0  0  0  0  0  0  0  0  0  0  0  0
    5.5810    0.0420   20.2700 C   0  0  0  0  0  0  0  0  0  0  0  0
    6.5310   -0.2200   19.2620 C   0  0  0  0  0  0  0  0  0  0  0  0
    6.4820    0.4070   18.0390 N   0  0  0  0  0  0  0  0  0  0  0  0
    5.4830    1.3040   17.8240 C   0  0  0  0  0  0  0  0  0  0  0  0
    4.5470    1.5800   18.7820 C   0  0  0  0  0  0  0  0  0  0  0  0
    4.5450    0.9730   20.0260 C   0  0  0  0  0  0  0  0  0  0  0  0
  1  4  1  0
  2  4  2  0
  5  7  2  0
  6  7  2  0
  8  9  2  3
  8 10  1  0
 10 11  1  0
 11 12  1  0
  3 14  1  0
  9 15  1  0
 14 15  1  0
  4 16  1  0
 16 17  1  0
 17 18  1  0
  7 19  1  0
 18 19  1  0
 19 20  1  0
 16 21  1  0
 20 21  1  0
 22 23  2  0
  3 24  1  0
 23 24  1  0
 24 25  2  0
 25 26  1  0
  7 27  1  0
 22 27  1  0
 26 27  2  0
 13 28  1  0
  8 29  1  0
 28 29  2  0
 29 30  1  0
 30 31  2  0
 31 32  1  0
 28 33  1  0
 32 33  2  0
 34 35  2  0
 35 36  1  0
 36 37  2  0
 37 38  1  0
 12 39  1  0
 34 39  1  0
 38 39  2  0
M  END
