x1308-x2572
     RDKit          3D

 40 43  0  0  0  0  0  0  0  0999 V2000
    6.9510   -3.4660   19.8040 C   0  0  0  0  0  0  0  0  0  0  0  0
    5.3850   -5.1790   20.0180 O   0  0  0  0  0  0  0  0  0  0  0  0
    0.7430   -1.2640   26.2150 Cl  0  0  0  0  0  0  0  0  0  0  0  0
    6.2680   -4.5600   20.5940 C   0  0  0  0  0  0  0  0  0  0  0  0
    6.2920   -5.3420   27.1420 O   0  0  0  0  0  0  0  0  0  0  0  0
    4.5310   -7.0400   26.1350 O   0  0  0  0  0  0  0  0  0  0  0  0
    5.1650   -5.5850   26.0490 S   0  0  0  0  0  0  0  0  0  0  0  0
    4.5230    1.2450   21.5720 C   0  0  0  0  0  0  0  0  0  0  0  0
    8.7230    1.1140   21.6730 O   0  0  0  0  0  0  0  0  0  0  0  0
    6.9570   -0.3260   21.2630 N   0  0  0  0  0  0  0  0  0  0  0  0
   14.0500   -1.4540   20.3740 N   0  0  0  0  0  0  0  0  0  0  0  0
    8.1970    0.0060   21.7400 C   0  0  0  0  0  0  0  0  0  0  0  0
    8.8990   -1.1850   22.3770 C   0  0  2  0  0  0  0  0  0  0  0  0
   13.3610   -1.3020   21.4840 C   0  0  0  0  0  0  0  0  0  0  0  0
    7.1210   -2.6140   22.5000 C   0  0  0  0  0  0  0  0  0  0  0  0
    7.9780   -1.8930   23.3250 C   0  0  0  0  0  0  0  0  0  0  0  0
    6.5790   -4.9140   21.9010 N   0  0  0  0  0  0  0  0  0  0  0  0
    7.1380   -4.0730   22.9440 C   0  0  2  0  0  0  0  0  0  0  0  0
    6.3400   -4.0640   24.2480 C   0  0  0  0  0  0  0  0  0  0  0  0
    5.9010   -5.4190   24.5340 N   0  0  0  0  0  0  0  0  0  0  0  0
    5.3260   -5.9950   23.4670 C   0  0  0  0  0  0  0  0  0  0  0  0
    6.1950   -6.2300   22.4020 C   0  0  0  0  0  0  0  0  0  0  0  0
    4.3430   -3.0210   26.4330 C   0  0  0  0  0  0  0  0  0  0  0  0
    3.3120   -2.0840   26.4580 C   0  0  0  0  0  0  0  0  0  0  0  0
    1.9820   -2.4570   26.1580 C   0  0  0  0  0  0  0  0  0  0  0  0
    1.6370   -3.7820   25.8150 C   0  0  0  0  0  0  0  0  0  0  0  0
    2.5880   -4.7160   25.7770 C   0  0  0  0  0  0  0  0  0  0  0  0
    4.0420   -4.3470   26.1050 C   0  0  0  0  0  0  0  0  0  0  0  0
    6.4170    0.5160   17.7980 N   0  0  0  0  0  0  0  0  0  0  0  0
    6.9820   -0.0290   18.8780 C   0  0  0  0  0  0  0  0  0  0  0  0
    6.3840    0.2070   20.1250 C   0  0  0  0  0  0  0  0  0  0  0  0
    5.2090    0.9790   20.2510 C   0  0  0  0  0  0  0  0  0  0  0  0
    4.6270    1.5340   19.1370 C   0  0  0  0  0  0  0  0  0  0  0  0
    5.2180    1.3190   17.9100 C   0  0  0  0  0  0  0  0  0  0  0  0
   10.5330   -0.4950   24.3100 C   0  0  0  0  0  0  0  0  0  0  0  0
   11.8980   -0.3530   24.6310 C   0  0  0  0  0  0  0  0  0  0  0  0
   12.8780   -0.6100   23.7270 C   0  0  0  0  0  0  0  0  0  0  0  0
   12.5010   -1.0200   22.4910 C   0  0  0  0  0  0  0  0  0  0  0  0
   11.2140   -1.1780   22.1490 C   0  0  0  0  0  0  0  0  0  0  0  0
   10.2130   -0.9320   23.0020 C   0  0  0  0  0  0  0  0  0  0  0  0
  1  4  1  0
  2  4  2  0
  5  7  2  0
  6  7  2  0
  9 12  2  0
 10 12  1  0
 12 13  1  0
 11 14  3  0
 13 16  1  1
 15 16  1  0
  4 17  1  0
 18 15  1  6
 17 18  1  0
 18 19  1  0
  7 20  1  0
 19 20  1  0
 20 21  1  0
 17 22  1  0
 21 22  1  0
 23 24  2  0
  3 25  1  0
 24 25  1  0
 25 26  2  0
 26 27  1  0
  7 28  1  0
 23 28  1  0
 27 28  2  0
 29 30  2  0
 10 31  1  0
 30 31  1  0
  8 32  1  0
 31 32  2  0
 32 33  1  0
 29 34  1  0
 33 34  2  0
 35 36  2  0
 36 37  1  0
 14 38  1  0
 37 38  2  0
 38 39  1  0
 13 40  1  0
 35 40  1  0
 39 40  2  0
M  END
