x1308-x1249
     RDKit          3D

 39 42  0  0  0  0  0  0  0  0999 V2000
    7.7620   -3.6330   20.4040 C   0  0  0  0  0  0  0  0  0  0  0  0
    5.5780   -4.5610   19.9450 O   0  0  0  0  0  0  0  0  0  0  0  0
    1.2900   -0.5770   27.5700 Cl  0  0  0  0  0  0  0  0  0  0  0  0
    6.5350   -4.4480   20.7340 C   0  0  0  0  0  0  0  0  0  0  0  0
    6.1900   -5.1130   27.1960 O   0  0  0  0  0  0  0  0  0  0  0  0
    4.5190   -6.9960   26.3070 O   0  0  0  0  0  0  0  0  0  0  0  0
    5.1710   -5.5650   26.0670 S   0  0  0  0  0  0  0  0  0  0  0  0
    8.3870    0.6090   24.8710 N   0  0  0  0  0  0  0  0  0  0  0  0
    7.5630    1.4370   24.0000 C   0  0  0  0  0  0  0  0  0  0  0  0
    8.1980    2.3490   23.4740 O   0  0  0  0  0  0  0  0  0  0  0  0
    9.6820    0.8600   25.1120 C   0  0  0  0  0  0  0  0  0  0  0  0
   13.7090   -1.4170   20.6850 N   0  0  0  0  0  0  0  0  0  0  0  0
   13.1900   -2.0480   21.4840 C   0  0  0  0  0  0  0  0  0  0  0  0
    2.2960   -0.7330   26.0990 C   0  0  1  0  0  0  0  0  0  0  0  0
    2.7280    0.5510   25.6610 C   0  0  0  0  0  0  0  0  0  0  0  0
    6.4970   -5.0680   21.9600 N   0  0  0  0  0  0  0  0  0  0  0  0
    7.4310   -4.7750   23.0330 C   0  0  0  0  0  0  0  0  0  0  0  0
    6.5750   -4.3170   24.0230 C   0  0  0  0  0  0  0  0  0  0  0  0
    5.8610   -5.5260   24.5110 N   0  0  0  0  0  0  0  0  0  0  0  0
    5.1640   -6.1310   23.5250 C   0  0  0  0  0  0  0  0  0  0  0  0
    5.9200   -6.3700   22.2010 C   0  0  0  0  0  0  0  0  0  0  0  0
    4.2190   -2.9550   26.2160 C   0  0  0  0  0  0  0  0  0  0  0  0
    3.3780   -1.7910   26.1880 C   0  0  0  0  0  0  0  0  0  0  0  0
    2.1110   -2.4070   25.8780 C   0  0  0  0  0  0  0  0  0  0  0  0
    1.7530   -3.7330   25.6570 C   0  0  0  0  0  0  0  0  0  0  0  0
    2.7050   -4.6640   25.7240 C   0  0  0  0  0  0  0  0  0  0  0  0
    3.9120   -4.3360   25.9900 C   0  0  0  0  0  0  0  0  0  0  0  0
    3.5120    0.5130   24.3770 N   0  0  0  0  0  0  0  0  0  0  0  0
    3.8540    1.6880   23.7630 C   0  0  0  0  0  0  0  0  0  0  0  0
    5.3190    1.8000   23.2620 C   0  0  0  0  0  0  0  0  0  0  0  0
    6.2500    1.0820   23.9150 N   0  0  0  0  0  0  0  0  0  0  0  0
    5.7710    0.3940   24.9730 C   0  0  0  0  0  0  0  0  0  0  0  0
    4.6090   -0.2300   24.5380 C   0  0  0  0  0  0  0  0  0  0  0  0
   11.8560    0.7330   23.7410 C   0  0  0  0  0  0  0  0  0  0  0  0
   12.7230    0.0570   22.8680 C   0  0  0  0  0  0  0  0  0  0  0  0
   12.3590   -1.2280   22.4150 C   0  0  0  0  0  0  0  0  0  0  0  0
   11.1560   -1.7850   22.8500 C   0  0  0  0  0  0  0  0  0  0  0  0
   10.3210   -1.1090   23.7070 C   0  0  0  0  0  0  0  0  0  0  0  0
   10.6520    0.1550   24.1660 C   0  0  0  0  0  0  0  0  0  0  0  0
  1  4  1  0
  2  4  2  0
  5  7  2  0
  6  7  2  0
  8  9  1  0
  9 10  2  0
  8 11  1  0
 12 13  3  0
  3 14  1  0
 14 15  1  1
  4 16  1  0
 16 17  1  0
 17 18  1  0
  7 19  1  0
 18 19  1  0
 19 20  1  0
 16 21  1  0
 20 21  1  0
 14 23  1  0
 22 23  2  0
 23 24  1  0
 24 25  2  0
 25 26  1  0
  7 27  1  0
 22 27  1  0
 26 27  2  0
 15 28  1  0
 28 29  1  0
 29 30  1  0
  9 31  1  0
 30 31  1  0
 31 32  1  0
 28 33  1  0
 32 33  1  0
 34 35  2  0
 13 36  1  0
 35 36  1  0
 36 37  2  0
 37 38  1  0
 11 39  1  0
 34 39  1  0
 38 39  2  0
M  END
