x1308-x1382
     RDKit          3D

 31 33  0  0  0  0  0  0  0  0999 V2000
    7.9760   -3.8010   20.4520 C   0  0  0  0  0  0  0  0  0  0  0  0
    5.6690   -4.4000   19.9260 O   0  0  0  0  0  0  0  0  0  0  0  0
    0.6460   -1.2370   26.3600 Cl  0  0  0  0  0  0  0  0  0  0  0  0
    6.6460   -4.4760   20.7020 C   0  0  0  0  0  0  0  0  0  0  0  0
    6.3570   -5.1490   26.9410 O   0  0  0  0  0  0  0  0  0  0  0  0
    4.5800   -6.9500   26.1280 O   0  0  0  0  0  0  0  0  0  0  0  0
    5.2260   -5.5140   25.8900 S   0  0  0  0  0  0  0  0  0  0  0  0
   13.3910   -1.9190   21.0600 Cl  0  0  0  0  0  0  0  0  0  0  0  0
    7.7420   -0.4840   23.3910 C   0  0  0  0  0  0  0  0  0  0  0  0
    8.5890   -1.5850   23.3820 C   0  0  1  0  0  0  0  0  0  0  0  0
    8.0890   -2.5060   22.5210 N   0  0  0  0  0  0  0  0  0  0  0  0
    8.0080   -2.3660   21.0390 C   0  0  0  0  0  0  0  0  0  0  0  0
    7.9480   -1.2870   20.4210 O   0  0  0  0  0  0  0  0  0  0  0  0
    6.5810   -5.2230   21.8560 N   0  0  0  0  0  0  0  0  0  0  0  0
    7.3210   -4.8320   22.9490 C   0  0  0  0  0  0  0  0  0  0  0  0
    6.4240   -4.5070   23.9630 C   0  0  0  0  0  0  0  0  0  0  0  0
    5.8050   -5.4410   24.2840 N   0  0  0  0  0  0  0  0  0  0  0  0
    4.8770   -5.9890   23.2970 C   0  0  0  0  0  0  0  0  0  0  0  0
    5.6810   -6.3140   22.1960 C   0  0  0  0  0  0  0  0  0  0  0  0
    4.3650   -3.0150   26.3840 C   0  0  0  0  0  0  0  0  0  0  0  0
    3.2340   -1.9980   26.4900 C   0  0  0  0  0  0  0  0  0  0  0  0
    1.9240   -2.3780   26.2250 C   0  0  0  0  0  0  0  0  0  0  0  0
    1.6600   -3.6950   25.8560 C   0  0  0  0  0  0  0  0  0  0  0  0
    2.6770   -4.6490   25.7520 C   0  0  0  0  0  0  0  0  0  0  0  0
    4.0170   -4.3170   26.0160 C   0  0  0  0  0  0  0  0  0  0  0  0
   10.0470   -1.1700   23.1260 C   0  0  0  0  0  0  0  0  0  0  0  0
   10.9190   -1.7130   22.3040 C   0  0  0  0  0  0  0  0  0  0  0  0
   12.3450   -1.1920   22.1380 C   0  0  0  0  0  0  0  0  0  0  0  0
   12.7440    0.0360   23.0010 C   0  0  0  0  0  0  0  0  0  0  0  0
   11.7440    0.5120   23.8250 C   0  0  0  0  0  0  0  0  0  0  0  0
   10.4760   -0.0720   23.8710 C   0  0  0  0  0  0  0  0  0  0  0  0
  1  4  1  0
  2  4  2  0
  5  7  2  0
  6  7  2  0
 10  9  1  6
 10 11  1  0
  1 12  1  0
 11 12  1  0
 12 13  2  0
  4 14  1  0
 14 15  1  0
 15 16  1  0
  7 17  1  0
 16 17  1  0
 17 18  1  0
 14 19  1  0
 18 19  1  0
 20 21  2  0
  3 22  1  0
 21 22  1  0
 22 23  2  0
 23 24  1  0
  7 25  1  0
 20 25  1  0
 24 25  2  0
 10 26  1  0
 26 27  2  0
  8 28  1  0
 27 28  1  0
 28 29  2  0
 29 30  1  0
 26 31  1  0
 30 31  2  0
M  END
