x1308-x2910
     RDKit          3D

 45 49  0  0  0  0  0  0  0  0999 V2000
    6.9220   -1.0740   21.7910 N   0  0  0  0  0  0  0  0  0  0  0  0
   10.1840    2.8540   23.2000 C   0  0  0  0  0  0  0  0  0  0  0  0
    9.9440    1.4420   23.1820 O   0  0  0  0  0  0  0  0  0  0  0  0
    9.3960   -1.0290   22.7440 O   0  0  0  0  0  0  0  0  0  0  0  0
    4.9310   -1.9720   21.2330 O   0  0  0  0  0  0  0  0  0  0  0  0
    6.3530    1.4030   16.6670 O   0  0  0  0  0  0  0  0  0  0  0  0
    9.0890   -2.3280   22.2540 C   0  0  0  0  0  0  0  0  0  0  0  0
    7.5580   -2.3590   21.9780 C   0  0  1  0  0  0  0  0  0  0  0  0
    5.8180   -1.1790   21.0170 C   0  0  0  0  0  0  0  0  0  0  0  0
    7.4500   -3.5610   19.8910 C   0  0  0  0  0  0  0  0  0  0  0  0
    5.7780   -5.2630   20.0300 O   0  0  0  0  0  0  0  0  0  0  0  0
    0.7510   -1.3500   26.2850 Cl  0  0  0  0  0  0  0  0  0  0  0  0
    6.5700   -4.5550   20.6500 C   0  0  0  0  0  0  0  0  0  0  0  0
    6.5920   -4.9150   26.9220 O   0  0  0  0  0  0  0  0  0  0  0  0
    4.9340   -6.7300   26.4000 O   0  0  0  0  0  0  0  0  0  0  0  0
    5.5220   -5.4400   26.1140 S   0  0  0  0  0  0  0  0  0  0  0  0
    6.5970   -3.3070   22.6880 C   0  0  0  0  0  0  0  0  0  0  0  0
   11.0120    0.6230   22.9170 C   0  0  0  0  0  0  0  0  0  0  0  0
   10.7020   -0.7050   22.6800 C   0  0  0  0  0  0  0  0  0  0  0  0
   11.7650   -1.7520   22.3630 C   0  0  0  0  0  0  0  0  0  0  0  0
   13.1580   -1.1540   22.3490 C   0  0  0  0  0  0  0  0  0  0  0  0
   13.3620    0.2000   22.6050 C   0  0  0  0  0  0  0  0  0  0  0  0
   12.3410    1.0600   22.8790 C   0  0  0  0  0  0  0  0  0  0  0  0
    4.7280    1.8390   18.3230 N   0  0  0  0  0  0  0  0  0  0  0  0
    4.1480    1.4750   19.6370 C   0  0  0  0  0  0  0  0  0  0  0  0
    4.7260    0.3840   20.3670 C   0  0  0  0  0  0  0  0  0  0  0  0
    5.8300   -0.3010   19.7700 C   0  0  0  0  0  0  0  0  0  0  0  0
    6.4060   -0.0810   18.6500 C   0  0  0  0  0  0  0  0  0  0  0  0
    5.8590    1.0500   17.8410 C   0  0  0  0  0  0  0  0  0  0  0  0
    3.0650    2.2110   20.1130 C   0  0  0  0  0  0  0  0  0  0  0  0
    2.5080    1.9030   21.3370 C   0  0  0  0  0  0  0  0  0  0  0  0
    3.0400    0.8510   22.0910 C   0  0  0  0  0  0  0  0  0  0  0  0
    4.1230    0.0980   21.6310 C   0  0  0  0  0  0  0  0  0  0  0  0
    6.4960   -4.7030   22.1890 C   0  0  0  0  0  0  0  0  0  0  0  0
    7.5230   -5.5000   22.6730 C   0  0  0  0  0  0  0  0  0  0  0  0
    7.4490   -5.3220   24.0820 C   0  0  0  0  0  0  0  0  0  0  0  0
    6.0200   -5.4340   24.4800 N   0  0  0  0  0  0  0  0  0  0  0  0
    5.1130   -6.0020   23.5090 C   0  0  0  0  0  0  0  0  0  0  0  0
    5.2460   -5.2690   22.3520 C   0  0  0  0  0  0  0  0  0  0  0  0
    4.4540   -2.8870   26.2180 C   0  0  0  0  0  0  0  0  0  0  0  0
    3.3840   -1.9830   26.2580 C   0  0  0  0  0  0  0  0  0  0  0  0
    2.0690   -2.4580   26.2420 C   0  0  0  0  0  0  0  0  0  0  0  0
    1.8140   -3.8340   26.1880 C   0  0  0  0  0  0  0  0  0  0  0  0
    2.8670   -4.7380   26.1470 C   0  0  0  0  0  0  0  0  0  0  0  0
    4.1770   -4.2650   26.1620 C   0  0  0  0  0  0  0  0  0  0  0  0
  2  3  1  0
  4  7  1  0
  1  8  1  0
  8  7  1  1
  1  9  1  0
  5  9  2  0
 10 13  1  0
 11 13  2  0
 14 16  2  0
 15 16  2  0
  8 17  1  0
  3 18  1  0
  4 19  1  0
 18 19  2  0
 19 20  1  0
 20 21  2  0
 21 22  1  0
 18 23  1  0
 22 23  2  0
 24 25  2  0
 25 26  1  0
  9 27  1  0
 26 27  2  0
 27 28  1  0
  6 29  1  0
 24 29  1  0
 28 29  2  0
 25 30  1  0
 30 31  2  0
 31 32  1  0
 26 33  1  0
 32 33  2  0
 34 13  1  0
 17 34  1  0
 34 35  1  0
 35 36  1  0
 16 37  1  0
 36 37  1  0
 37 38  1  0
 34 39  1  0
 38 39  1  0
 40 41  2  0
 12 42  1  0
 41 42  1  0
 42 43  2  0
 43 44  1  0
 16 45  1  0
 40 45  1  0
 44 45  2  0
M  END
