x1308-x1425
     RDKit          3D

 21 22  0  0  0  0  0  0  0  0999 V2000
    7.4150   -3.4270   19.8690 C   0  0  0  0  0  0  0  0  0  0  0  0
    5.3910   -4.6670   19.9540 O   0  0  0  0  0  0  0  0  0  0  0  0
    0.5430   -1.5520   26.6560 Cl  0  0  0  0  0  0  0  0  0  0  0  0
    6.4550   -4.4070   20.5130 C   0  0  0  0  0  0  0  0  0  0  0  0
    6.5710   -5.0780   26.8350 O   0  0  0  0  0  0  0  0  0  0  0  0
    4.8420   -6.9780   26.0550 O   0  0  0  0  0  0  0  0  0  0  0  0
    5.3950   -5.5010   25.8500 S   0  0  0  0  0  0  0  0  0  0  0  0
    1.6500   -1.6020   28.7060 C   0  0  0  0  0  0  0  0  0  0  0  0
    2.2780   -1.3720   27.6680 O   0  0  0  0  0  0  0  0  0  0  0  0
    6.7640   -5.0740   21.7260 N   0  0  0  0  0  0  0  0  0  0  0  0
    7.6350   -4.7330   22.7280 C   0  0  0  0  0  0  0  0  0  0  0  0
    6.9440   -4.3620   24.0480 C   0  0  0  0  0  0  0  0  0  0  0  0
    5.9430   -5.2760   24.2620 N   0  0  0  0  0  0  0  0  0  0  0  0
    5.2260   -5.8620   23.2330 C   0  0  0  0  0  0  0  0  0  0  0  0
    6.0090   -6.2790   22.1570 C   0  0  0  0  0  0  0  0  0  0  0  0
    4.1210   -3.3150   26.9580 C   0  0  0  0  0  0  0  0  0  0  0  0
    3.2310   -2.2860   27.3740 C   0  0  0  0  0  0  0  0  0  0  0  0
    1.9200   -2.5790   26.4990 C   0  0  0  0  0  0  0  0  0  0  0  0
    1.8040   -3.7440   25.5040 C   0  0  0  0  0  0  0  0  0  0  0  0
    2.8610   -4.5540   25.3660 C   0  0  0  0  0  0  0  0  0  0  0  0
    3.9920   -4.3740   26.0520 C   0  0  0  0  0  0  0  0  0  0  0  0
  1  4  1  0
  2  4  2  0
  5  7  2  0
  6  7  2  0
  8  9  1  0
  4 10  1  0
 10 11  1  0
 11 12  1  0
  7 13  1  0
 12 13  1  0
 13 14  1  0
 10 15  1  0
 14 15  1  0
  9 17  1  0
 16 17  2  0
  3 18  1  0
 17 18  1  0
 18 19  2  0
 19 20  1  0
  7 21  1  0
 16 21  1  0
 20 21  2  0
M  END
