x1308-x0991
     RDKit          3D

 24 25  0  0  0  0  0  0  0  0999 V2000
    7.3200   -3.3840   19.7760 C   0  0  0  0  0  0  0  0  0  0  0  0
    5.3360   -4.6580   19.9400 O   0  0  0  0  0  0  0  0  0  0  0  0
    0.5960   -1.2530   26.5170 Cl  0  0  0  0  0  0  0  0  0  0  0  0
    6.3660   -4.3130   20.5070 C   0  0  0  0  0  0  0  0  0  0  0  0
    6.3940   -5.1240   26.8670 O   0  0  0  0  0  0  0  0  0  0  0  0
    4.5990   -6.9070   25.9920 O   0  0  0  0  0  0  0  0  0  0  0  0
    5.2210   -5.4470   25.8420 S   0  0  0  0  0  0  0  0  0  0  0  0
   10.6000   -4.8110   25.6850 N   0  0  0  0  0  0  0  0  0  0  0  0
    8.5640   -4.1930   23.3810 C   0  0  0  0  0  0  0  0  0  0  0  0
    8.5510   -5.3740   24.1210 C   0  0  0  0  0  0  0  0  0  0  0  0
    8.5970   -5.6010   26.4240 N   0  0  0  0  0  0  0  0  0  0  0  0
    9.2150   -5.2850   25.4900 C   0  0  0  0  0  0  0  0  0  0  0  0
    6.6010   -4.8040   21.7740 N   0  0  0  0  0  0  0  0  0  0  0  0
    7.1780   -3.9110   22.8020 C   0  0  1  0  0  0  0  0  0  0  0  0
    6.2150   -3.8610   23.8170 C   0  0  0  0  0  0  0  0  0  0  0  0
    5.7710   -5.1990   24.2510 N   0  0  0  0  0  0  0  0  0  0  0  0
    5.3520   -5.9670   23.2670 C   0  0  0  0  0  0  0  0  0  0  0  0
    6.3110   -6.1340   22.2720 C   0  0  0  0  0  0  0  0  0  0  0  0
    4.3590   -2.9750   26.4360 C   0  0  0  0  0  0  0  0  0  0  0  0
    3.1900   -2.0080   26.5800 C   0  0  0  0  0  0  0  0  0  0  0  0
    1.8800   -2.3800   26.3280 C   0  0  0  0  0  0  0  0  0  0  0  0
    1.6280   -3.6850   25.9220 C   0  0  0  0  0  0  0  0  0  0  0  0
    2.6630   -4.6130   25.7740 C   0  0  0  0  0  0  0  0  0  0  0  0
    4.0050   -4.2680   26.0280 C   0  0  0  0  0  0  0  0  0  0  0  0
  1  4  1  0
  2  4  2  0
  5  7  2  0
  6  7  2  0
  9 10  1  0
  8 12  2  3
 10 12  1  0
 11 12  1  0
  4 13  1  0
 14  9  1  1
 13 14  1  0
 14 15  1  0
  7 16  1  0
 15 16  1  0
 16 17  1  0
 13 18  1  0
 17 18  1  0
 19 20  2  0
  3 21  1  0
 20 21  1  0
 21 22  2  0
 22 23  1  0
  7 24  1  0
 19 24  1  0
 23 24  2  0
M  END
