x1308-x1402
     RDKit          3D

 19 20  0  0  0  0  0  0  0  0999 V2000
    7.1850   -3.4450   19.9040 C   0  0  0  0  0  0  0  0  0  0  0  0
    5.3150   -4.8650   19.9760 O   0  0  0  0  0  0  0  0  0  0  0  0
    0.7810   -1.0890   26.4020 Cl  0  0  0  0  0  0  0  0  0  0  0  0
    6.3360   -4.5080   20.5430 C   0  0  0  0  0  0  0  0  0  0  0  0
    6.5160   -5.0560   26.9060 O   0  0  0  0  0  0  0  0  0  0  0  0
    4.7600   -6.9390   26.2910 O   0  0  0  0  0  0  0  0  0  0  0  0
    5.2750   -5.4590   26.0000 S   0  0  0  0  0  0  0  0  0  0  0  0
    6.7000   -5.1240   21.7600 N   0  0  0  0  0  0  0  0  0  0  0  0
    7.3090   -4.5070   22.9500 C   0  0  0  0  0  0  0  0  0  0  0  0
    6.3440   -4.2280   23.9200 C   0  0  0  0  0  0  0  0  0  0  0  0
    5.8290   -5.4130   24.4030 N   0  0  0  0  0  0  0  0  0  0  0  0
    5.1750   -5.8790   23.5530 C   0  0  0  0  0  0  0  0  0  0  0  0
    5.9440   -6.1850   22.2610 C   0  0  0  0  0  0  0  0  0  0  0  0
    4.3210   -3.0070   26.4680 C   0  0  0  0  0  0  0  0  0  0  0  0
    3.2950   -2.0600   26.5450 C   0  0  0  0  0  0  0  0  0  0  0  0
    1.9650   -2.3240   26.2540 C   0  0  0  0  0  0  0  0  0  0  0  0
    1.5510   -3.7360   25.8040 C   0  0  0  0  0  0  0  0  0  0  0  0
    2.7380   -4.7290   25.7430 C   0  0  0  0  0  0  0  0  0  0  0  0
    4.0430   -4.3310   26.0740 C   0  0  0  0  0  0  0  0  0  0  0  0
  1  4  1  0
  2  4  2  0
  5  7  2  0
  6  7  2  0
  4  8  1  0
  8  9  1  0
  9 10  1  0
  7 11  1  0
 10 11  1  0
 11 12  1  0
  8 13  1  0
 12 13  1  0
 14 15  2  0
  3 16  1  0
 15 16  1  0
 16 17  2  0
 17 18  1  0
  7 19  1  0
 14 19  1  0
 18 19  2  0
M  END
