x1308-x3110-x3113-x0426-x1077
     RDKit          3D

 67 73  0  0  0  0  0  0  0  0999 V2000
    8.0220    1.4130   23.2650 N   0  0  0  0  0  0  0  0  0  0  0  0
   13.4200    5.2060   22.7840 C   0  0  0  0  0  0  0  0  0  0  0  0
   12.0280    3.3470   22.3880 O   0  0  0  0  0  0  0  0  0  0  0  0
   12.4310    4.4280   21.9720 C   0  0  0  0  0  0  0  0  0  0  0  0
    7.5530   -1.4250   21.6410 N   0  0  0  0  0  0  0  0  0  0  0  0
   11.0670    4.4200   24.1500 O   0  0  0  0  0  0  0  0  0  0  0  0
   11.1730    3.4350   23.4320 C   0  0  0  0  0  0  0  0  0  0  0  0
    8.6140    1.5910   21.0610 O   0  0  0  0  0  0  0  0  0  0  0  0
   10.3460    2.1550   23.5970 C   0  0  0  0  0  0  0  0  0  0  0  0
    8.8290    2.4450   23.7290 C   0  0  0  0  0  0  0  0  0  0  0  0
    7.9180    1.0490   21.9360 C   0  0  0  0  0  0  0  0  0  0  0  0
    6.8880   -0.0520   21.6500 C   0  0  1  0  0  0  0  0  0  0  0  0
   12.4010   -1.9810   24.3840 C   0  0  0  0  0  0  0  0  0  0  0  0
   12.6440   -0.6370   24.9390 C   0  0  0  0  0  0  0  0  0  0  0  0
   13.4680   -1.9510   23.3720 C   0  0  0  0  0  0  0  0  0  0  0  0
   12.1720   -3.1620   25.1990 C   0  0  0  0  0  0  0  0  0  0  0  0
    2.3250    1.8970   23.8370 C   0  0  0  0  0  0  0  0  0  0  0  0
    2.2130    0.6920   23.6560 O   0  0  0  0  0  0  0  0  0  0  0  0
    3.4120    2.6360   23.4050 N   0  0  0  0  0  0  0  0  0  0  0  0
    4.5110    2.0510   22.5910 C   0  0  0  0  0  0  0  0  0  0  0  0
    3.9310    1.1750   21.5030 C   0  0  0  0  0  0  0  0  0  0  0  0
    2.7310    4.3970   25.2850 F   0  0  0  0  0  0  0  0  0  0  0  0
    6.3970    0.5600   17.7830 N   0  0  0  0  0  0  0  0  0  0  0  0
    5.1920    1.1180   17.7610 C   0  0  0  0  0  0  0  0  0  0  0  0
    4.3530    1.3300   18.9970 C   0  0  0  0  0  0  0  0  0  0  0  0
    4.8900    0.9240   20.3170 C   0  0  0  0  0  0  0  0  0  0  0  0
    6.1770    0.3650   20.3720 C   0  0  0  0  0  0  0  0  0  0  0  0
    6.8900    0.1870   19.0290 C   0  0  0  0  0  0  0  0  0  0  0  0
    9.9070   -1.2540   21.7570 C   0  0  0  0  0  0  0  0  0  0  0  0
   11.1060   -1.3530   22.3190 C   0  0  0  0  0  0  0  0  0  0  0  0
   11.1490   -1.8080   23.5810 C   0  0  0  0  0  0  0  0  0  0  0  0
    9.9440   -2.1370   24.1850 C   0  0  0  0  0  0  0  0  0  0  0  0
    8.5790   -2.1080   23.7480 C   0  0  0  0  0  0  0  0  0  0  0  0
    8.7380   -1.6000   22.3990 C   0  0  0  0  0  0  0  0  0  0  0  0
    1.5020    3.8540   25.2490 C   0  0  0  0  0  0  0  0  0  0  0  0
    1.2550    2.6410   24.5610 C   0  0  0  0  0  0  0  0  0  0  0  0
   -0.0600    2.1280   24.5650 C   0  0  0  0  0  0  0  0  0  0  0  0
   -1.0900    2.7920   25.2260 C   0  0  0  0  0  0  0  0  0  0  0  0
   -0.8320    3.9810   25.8970 C   0  0  0  0  0  0  0  0  0  0  0  0
    0.4610    4.5270   25.9200 C   0  0  0  0  0  0  0  0  0  0  0  0
    8.0190   -3.9140   20.5630 C   0  0  0  0  0  0  0  0  0  0  0  0
    5.7270   -4.6350   19.9980 O   0  0  0  0  0  0  0  0  0  0  0  0
    0.6100   -1.0230   26.6850 Cl  0  0  0  0  0  0  0  0  0  0  0  0
    6.6930   -4.6460   20.8010 C   0  0  0  0  0  0  0  0  0  0  0  0
    6.2070   -5.2670   26.3250 N   0  0  0  0  0  0  0  0  0  0  0  0
    4.1680   -6.9020   26.0270 O   0  0  0  0  0  0  0  0  0  0  0  0
    4.8290   -5.6350   25.8290 S   0  0  2  0  0  0  0  0  0  0  0  0
    7.4420   -5.5870   25.4360 N   0  0  0  0  0  0  0  0  0  0  0  0
    7.8550   -4.7940   24.2850 C   0  0  1  0  0  0  0  0  0  0  0  0
    9.0420   -5.2180   23.7990 C   0  0  0  0  0  0  0  0  0  0  0  0
   10.1620   -4.5870   24.5750 C   0  0  0  0  0  0  0  0  0  0  0  0
    9.6490   -3.6740   25.6020 N   0  0  0  0  0  0  0  0  0  0  0  0
    9.0950   -4.4370   26.7200 C   0  0  0  0  0  0  0  0  0  0  0  0
    8.5640   -5.6790   26.3910 C   0  0  0  0  0  0  0  0  0  0  0  0
    6.6270   -5.3620   22.0100 N   0  0  0  0  0  0  0  0  0  0  0  0
    6.9000   -4.6650   23.2750 C   0  0  1  0  0  0  0  0  0  0  0  0
    5.6700   -4.3430   23.7850 C   0  0  0  0  0  0  0  0  0  0  0  0
    5.2870   -5.6630   24.2330 N   0  0  0  0  0  0  0  0  0  0  0  0
    4.7550   -6.3440   23.2130 C   0  0  0  0  0  0  0  0  0  0  0  0
    5.6900   -6.5080   22.1900 C   0  0  0  0  0  0  0  0  0  0  0  0
    4.0960   -2.9870   26.2130 C   0  0  0  0  0  0  0  0  0  0  0  0
    3.1200   -2.0100   26.3970 C   0  0  0  0  0  0  0  0  0  0  0  0
    1.7570   -2.2790   26.4660 C   0  0  0  0  0  0  0  0  0  0  0  0
    1.3280   -3.5920   26.3550 C   0  0  0  0  0  0  0  0  0  0  0  0
    2.1790   -4.6830   26.1670 C   0  0  0  0  0  0  0  0  0  0  0  0
    3.6900   -4.3190   26.0890 C   0  0  0  0  0  0  0  0  0  0  0  0
    8.6560   -2.6250   25.1820 C   0  0  0  0  0  0  0  0  0  0  0  0
  2  4  1  0
  3  4  1  0
  3  7  1  0
  6  7  2  0
  7  9  1  0
  1 10  1  0
  9 10  1  0
  1 11  1  0
  8 11  2  0
 12  5  1  6
 11 12  1  0
 13 14  1  0
 13 15  1  0
 13 16  1  0
 17 18  2  0
 17 19  1  0
 19 20  1  0
 20 21  1  0
 23 24  2  0
 24 25  1  0
 21 26  1  0
 25 26  2  0
 12 27  1  0
 26 27  1  0
 23 28  1  0
 27 28  2  0
 29 30  2  0
 13 31  1  0
 30 31  1  0
 31 32  2  0
 32 33  1  0
  5 34  1  0
 29 34  1  0
 33 34  2  0
 22 35  1  0
 17 36  1  0
 35 36  2  0
 36 37  1  0
 37 38  2  0
 38 39  1  0
 35 40  1  0
 39 40  2  0
 41 44  1  0
 42 44  2  0
 45 47  2  0
 46 47  2  0
 45 48  1  0
 48 49  1  0
 49 50  1  6
 50 51  1  0
 51 52  1  0
 52 53  1  0
 48 54  1  0
 53 54  1  0
 44 55  1  0
 49 56  1  0
 56 55  1  1
 56 57  1  0
 47 58  1  0
 57 58  1  0
 58 59  1  0
 55 60  1  0
 59 60  1  0
 61 62  2  0
 43 63  1  0
 62 63  1  0
 63 64  2  0
 64 65  1  0
 47 66  1  6
 61 66  1  0
 65 66  2  0
 33 67  1  0
 52 67  1  0
M  END
