x1308-x3077
     RDKit          3D

 30 33  0  0  0  0  0  0  0  0999 V2000
    7.3220   -3.2580   19.5360 C   0  0  0  0  0  0  0  0  0  0  0  0
    5.7060   -4.9440   20.0150 O   0  0  0  0  0  0  0  0  0  0  0  0
    0.5500   -1.3040   26.4920 Cl  0  0  0  0  0  0  0  0  0  0  0  0
    6.4460   -4.0600   20.4540 C   0  0  0  0  0  0  0  0  0  0  0  0
    6.2110   -5.3120   27.0290 O   0  0  0  0  0  0  0  0  0  0  0  0
    4.5190   -6.9700   25.9090 O   0  0  0  0  0  0  0  0  0  0  0  0
    5.1210   -5.4960   25.9040 S   0  0  0  0  0  0  0  0  0  0  0  0
   13.2190   -1.9960   21.1490 Cl  0  0  0  0  0  0  0  0  0  0  0  0
    8.8110   -2.4500   23.7990 C   0  0  0  0  0  0  0  0  0  0  0  0
    6.3300   -3.8020   21.9150 C   0  0  2  0  0  0  0  0  0  0  0  0
    7.5220   -4.0860   22.7950 C   0  0  2  0  0  0  0  0  0  0  0  0
    7.1310   -4.6420   24.1870 C   0  0  0  0  0  0  0  0  0  0  0  0
    5.7360   -5.1690   24.3550 N   0  0  0  0  0  0  0  0  0  0  0  0
    4.7000   -4.8390   23.3660 C   0  0  0  0  0  0  0  0  0  0  0  0
    5.3520   -4.9800   22.1740 C   0  0  0  0  0  0  0  0  0  0  0  0
    4.3060   -3.0360   26.4130 C   0  0  0  0  0  0  0  0  0  0  0  0
    3.2870   -1.9110   26.5890 C   0  0  0  0  0  0  0  0  0  0  0  0
    1.8570   -2.4060   26.3310 C   0  0  0  0  0  0  0  0  0  0  0  0
    1.5970   -3.7370   25.9700 C   0  0  0  0  0  0  0  0  0  0  0  0
    2.6180   -4.6710   25.8410 C   0  0  0  0  0  0  0  0  0  0  0  0
    3.9460   -4.3390   26.0580 C   0  0  0  0  0  0  0  0  0  0  0  0
    8.1530   -2.8730   22.7320 N   0  0  0  0  0  0  0  0  0  0  0  0
    7.1510   -2.3750   22.4260 C   0  0  0  0  0  0  0  0  0  0  0  0
    5.7400   -2.3500   22.1670 C   0  0  0  0  0  0  0  0  0  0  0  0
   10.2900   -0.3350   24.2540 C   0  0  0  0  0  0  0  0  0  0  0  0
   11.5820    0.4810   23.9440 C   0  0  0  0  0  0  0  0  0  0  0  0
   12.5860   -0.0690   22.8980 C   0  0  0  0  0  0  0  0  0  0  0  0
   12.2180   -1.2800   22.3150 C   0  0  0  0  0  0  0  0  0  0  0  0
   11.0350   -1.9430   22.6520 C   0  0  0  0  0  0  0  0  0  0  0  0
   10.0790   -1.5590   23.5560 C   0  0  0  0  0  0  0  0  0  0  0  0
  1  4  1  0
  2  4  2  0
  5  7  2  0
  6  7  2  0
 10  4  1  6
 10 11  1  0
 11 12  1  1
  7 13  1  0
 12 13  1  0
 13 14  1  0
 10 15  1  0
 14 15  1  0
 16 17  2  0
  3 18  1  0
 17 18  1  0
 18 19  2  0
 19 20  1  0
  7 21  1  0
 16 21  1  0
 20 21  2  0
  9 22  1  0
 11 22  1  0
 22 23  1  0
 10 24  1  0
 23 24  1  0
 25 26  2  0
 26 27  1  0
  8 28  1  0
 27 28  2  0
 28 29  1  0
  9 30  1  0
 25 30  1  0
 29 30  2  0
M  END
