x1308-x0434
     RDKit          3D

 37 40  0  0  0  0  0  0  0  0999 V2000
    7.1920   -3.3970   19.7000 C   0  0  0  0  0  0  0  0  0  0  0  0
    5.6580   -5.2010   20.0060 O   0  0  0  0  0  0  0  0  0  0  0  0
    0.7320   -1.2870   26.3870 Cl  0  0  0  0  0  0  0  0  0  0  0  0
    6.3600   -4.3590   20.5320 C   0  0  0  0  0  0  0  0  0  0  0  0
    6.6030   -4.9350   26.9840 O   0  0  0  0  0  0  0  0  0  0  0  0
    4.9130   -6.8590   26.3020 O   0  0  0  0  0  0  0  0  0  0  0  0
    5.4090   -5.3690   26.0300 S   0  0  0  0  0  0  0  0  0  0  0  0
    8.5580    0.7030   21.1540 O   0  0  0  0  0  0  0  0  0  0  0  0
    8.2380   -0.4400   21.5030 C   0  0  0  0  0  0  0  0  0  0  0  0
    9.1190   -1.1570   22.4140 N   0  0  0  0  0  0  0  0  0  0  0  0
    7.1580   -0.9470   21.0710 N   0  0  0  0  0  0  0  0  0  0  0  0
    5.7020   -2.8620   22.2620 C   0  0  0  0  0  0  0  0  0  0  0  0
    6.6830   -1.7890   21.7400 C   0  0  0  0  0  0  0  0  0  0  0  0
    6.2410   -4.3040   22.0520 C   0  0  0  0  0  0  0  0  0  0  0  0
    7.4140   -4.6560   22.7330 C   0  0  0  0  0  0  0  0  0  0  0  0
    7.2730   -4.6360   24.1460 C   0  0  0  0  0  0  0  0  0  0  0  0
    5.9570   -5.3040   24.4190 N   0  0  0  0  0  0  0  0  0  0  0  0
    5.3800   -6.1440   23.4240 C   0  0  0  0  0  0  0  0  0  0  0  0
    5.1540   -5.2550   22.2230 C   0  0  0  0  0  0  0  0  0  0  0  0
    4.3540   -2.9580   26.4600 C   0  0  0  0  0  0  0  0  0  0  0  0
    3.3130   -2.0290   26.5470 C   0  0  0  0  0  0  0  0  0  0  0  0
    2.0180   -2.4250   26.2630 C   0  0  0  0  0  0  0  0  0  0  0  0
    1.7460   -3.7270   25.8850 C   0  0  0  0  0  0  0  0  0  0  0  0
    2.7880   -4.6570   25.7990 C   0  0  0  0  0  0  0  0  0  0  0  0
    4.1200   -4.3030   26.0890 C   0  0  0  0  0  0  0  0  0  0  0  0
   10.4710    0.4770   23.4220 C   0  0  0  0  0  0  0  0  0  0  0  0
   11.8520    1.0400   23.6950 C   0  0  0  0  0  0  0  0  0  0  0  0
   13.0590    0.2680   23.1190 C   0  0  0  0  0  0  0  0  0  0  0  0
   12.7920   -0.8880   22.4050 C   0  0  0  0  0  0  0  0  0  0  0  0
   11.5050   -1.3740   22.1720 C   0  0  0  0  0  0  0  0  0  0  0  0
   10.4030   -0.6970   22.6650 C   0  0  0  0  0  0  0  0  0  0  0  0
    5.2150    0.4840   20.3590 C   0  0  0  0  0  0  0  0  0  0  0  0
    4.6000    1.2000   19.3060 C   0  0  0  0  0  0  0  0  0  0  0  0
    5.2210    1.2000   18.0460 C   0  0  0  0  0  0  0  0  0  0  0  0
    6.3720    0.5430   17.8040 N   0  0  0  0  0  0  0  0  0  0  0  0
    6.9200   -0.1300   18.8360 C   0  0  0  0  0  0  0  0  0  0  0  0
    6.4080   -0.1980   20.1230 C   0  0  0  0  0  0  0  0  0  0  0  0
  1  4  1  0
  2  4  2  0
  5  7  2  0
  6  7  2  0
  8  9  2  0
  9 10  1  0
  9 11  1  0
 11 13  1  0
 12 13  1  0
 14  4  1  0
 12 14  1  0
 14 15  1  0
 15 16  1  0
  7 17  1  0
 16 17  1  0
 17 18  1  0
 14 19  1  0
 18 19  1  0
 20 21  2  0
  3 22  1  0
 21 22  1  0
 22 23  2  0
 23 24  1  0
  7 25  1  0
 20 25  1  0
 24 25  2  0
 26 27  2  0
 27 28  1  0
 28 29  2  0
 29 30  1  0
 10 31  1  0
 26 31  1  0
 30 31  2  0
 32 33  2  0
 33 34  1  0
 34 35  2  0
 35 36  1  0
 11 37  1  0
 32 37  1  0
 36 37  2  0
M  END
