x1308-x0771
     RDKit          3D

 20 21  0  0  0  0  0  0  0  0999 V2000
    0.5420   -1.2950   26.1740 C   0  0  0  0  0  0  0  0  0  0  0  0
    4.4030   -6.9550   25.6740 O   0  0  0  0  0  0  0  0  0  0  0  0
    6.0660   -5.2900   26.9170 O   0  0  0  0  0  0  0  0  0  0  0  0
    5.3300   -4.4190   19.8720 O   0  0  0  0  0  0  0  0  0  0  0  0
    2.0510   -6.1570   24.9860 C   0  0  0  0  0  0  0  0  0  0  0  0
    6.3840   -4.2340   20.4730 C   0  0  0  0  0  0  0  0  0  0  0  0
    7.4240   -3.3350   19.8240 C   0  0  0  0  0  0  0  0  0  0  0  0
    5.0080   -5.6450   25.7910 S   0  0  0  0  0  0  0  0  0  0  0  0
    1.6450   -2.3560   26.0680 C   0  0  0  0  0  0  0  0  0  0  0  0
    1.4150   -3.7900   25.5780 C   0  0  0  0  0  0  0  0  0  0  0  0
    2.4090   -4.7570   25.4910 C   0  0  0  0  0  0  0  0  0  0  0  0
    3.7260   -4.4180   25.8750 C   0  0  0  0  0  0  0  0  0  0  0  0
    4.0480   -3.1340   26.3270 C   0  0  0  0  0  0  0  0  0  0  0  0
    2.9600   -2.0440   26.4320 C   0  0  0  0  0  0  0  0  0  0  0  0
    6.5920   -4.8680   21.7260 N   0  0  0  0  0  0  0  0  0  0  0  0
    6.0530   -6.1780   22.1540 C   0  0  0  0  0  0  0  0  0  0  0  0
    5.0820   -5.9830   23.1380 C   0  0  0  0  0  0  0  0  0  0  0  0
    5.7560   -5.3690   24.3020 N   0  0  0  0  0  0  0  0  0  0  0  0
    6.2890   -4.0470   23.9300 C   0  0  0  0  0  0  0  0  0  0  0  0
    7.1240   -4.1430   22.8390 C   0  0  0  0  0  0  0  0  0  0  0  0
  4  6  2  0
  6  7  1  0
  2  8  2  0
  3  8  2  0
  1  9  1  0
  9 10  2  0
  5 11  1  0
 10 11  1  0
  8 12  1  0
 11 12  2  0
 12 13  1  0
  9 14  1  0
 13 14  2  0
  6 15  1  0
 15 16  1  0
 16 17  1  0
  8 18  1  0
 17 18  1  0
 18 19  1  0
 15 20  1  0
 19 20  1  0
M  END
