x1308-x0978-x2776-x2694-x0426
     RDKit          3D

 73 78  0  0  0  0  0  0  0  0999 V2000
    7.2310   -1.0320   21.6410 N   0  0  0  0  0  0  0  0  0  0  0  0
    7.7060    2.1110   22.9270 N   0  0  0  0  0  0  0  0  0  0  0  0
    8.9620    1.4340   20.9580 O   0  0  0  0  0  0  0  0  0  0  0  0
   10.7730    6.7090   23.8490 O   0  0  0  0  0  0  0  0  0  0  0  0
    6.6870    0.3610   21.5100 C   0  0  1  0  0  0  0  0  0  0  0  0
   13.7710   -2.7340   24.1980 O   0  0  0  0  0  0  0  0  0  0  0  0
    7.8430    1.3300   21.7970 C   0  0  0  0  0  0  0  0  0  0  0  0
   10.4370    1.8060   23.8570 C   0  0  0  0  0  0  0  0  0  0  0  0
   11.8300    6.6640   24.8050 C   0  0  0  0  0  0  0  0  0  0  0  0
   12.6320   -1.9420   23.9170 C   0  0  1  0  0  0  0  0  0  0  0  0
   12.9300   -0.4990   24.2970 C   0  0  0  0  0  0  0  0  0  0  0  0
   13.7610   -3.0920   25.5610 C   0  0  0  0  0  0  0  0  0  0  0  0
   12.0180   -1.9890   22.5200 C   0  0  0  0  0  0  0  0  0  0  0  0
    2.4200    2.1120   24.2290 C   0  0  0  0  0  0  0  0  0  0  0  0
    2.5180    0.9670   24.6160 O   0  0  0  0  0  0  0  0  0  0  0  0
    3.2940    2.6910   23.3190 N   0  0  0  0  0  0  0  0  0  0  0  0
    4.2980    1.9250   22.5770 C   0  0  0  0  0  0  0  0  0  0  0  0
    3.8480    1.7690   21.1100 C   0  0  0  0  0  0  0  0  0  0  0  0
    2.7870    4.6550   25.4650 F   0  0  0  0  0  0  0  0  0  0  0  0
    2.2470   -5.6820   23.2270 N   0  0  0  0  0  0  0  0  0  0  0  0
    2.1080   -8.2840   24.5760 C   0  0  0  0  0  0  0  0  0  0  0  0
    4.3950   -7.9750   24.8180 O   0  0  0  0  0  0  0  0  0  0  0  0
    3.2020   -7.2630   24.5920 C   0  0  1  0  0  0  0  0  0  0  0  0
    0.9400   -7.4120   21.9170 O   0  0  0  0  0  0  0  0  0  0  0  0
    3.4080   -6.3820   23.3870 C   0  0  2  0  0  0  0  0  0  0  0  0
    4.3080   -4.0800   23.3890 O   0  0  0  0  0  0  0  0  0  0  0  0
    1.0960   -6.2090   22.6810 C   0  0  0  0  0  0  0  0  0  0  0  0
   -0.2330   -5.4780   22.8530 C   0  0  0  0  0  0  0  0  0  0  0  0
    6.2040   -2.0870   21.4400 C   0  0  0  0  0  0  0  0  0  0  0  0
    6.1640   -3.1740   22.5180 C   0  0  0  0  0  0  0  0  0  0  0  0
    8.1610   -3.7470   20.3610 C   0  0  0  0  0  0  0  0  0  0  0  0
    6.0360   -4.3650   19.8030 O   0  0  0  0  0  0  0  0  0  0  0  0
    0.6690   -1.2150   26.4470 Cl  0  0  0  0  0  0  0  0  0  0  0  0
    6.9460   -4.2340   20.6140 C   0  0  0  0  0  0  0  0  0  0  0  0
    6.3790   -4.9780   26.8480 O   0  0  0  0  0  0  0  0  0  0  0  0
    4.6850   -6.7680   26.4420 O   0  0  0  0  0  0  0  0  0  0  0  0
    5.2610   -5.4890   26.0820 S   0  0  0  0  0  0  0  0  0  0  0  0
    6.3710    0.7350   17.7610 N   0  0  0  0  0  0  0  0  0  0  0  0
    5.2090    1.3530   17.6640 C   0  0  0  0  0  0  0  0  0  0  0  0
    4.4280    1.6680   18.7250 C   0  0  0  0  0  0  0  0  0  0  0  0
    4.8220    1.3690   20.0010 C   0  0  0  0  0  0  0  0  0  0  0  0
    6.0720    0.7320   20.1750 C   0  0  0  0  0  0  0  0  0  0  0  0
    6.7570    0.4510   18.9900 C   0  0  0  0  0  0  0  0  0  0  0  0
    9.8050    3.1520   23.6040 C   0  0  0  0  0  0  0  0  0  0  0  0
   10.5920    4.2690   23.8360 C   0  0  0  0  0  0  0  0  0  0  0  0
   10.0880    5.5430   23.6380 C   0  0  0  0  0  0  0  0  0  0  0  0
    8.7810    5.7020   23.1880 C   0  0  0  0  0  0  0  0  0  0  0  0
    7.9780    4.5780   22.9460 C   0  0  0  0  0  0  0  0  0  0  0  0
    8.4780    3.2720   23.1550 C   0  0  0  0  0  0  0  0  0  0  0  0
    9.5880   -1.5380   22.0230 C   0  0  0  0  0  0  0  0  0  0  0  0
   10.6490   -1.6090   22.9040 C   0  0  0  0  0  0  0  0  0  0  0  0
   10.4290   -1.3040   24.2380 C   0  0  0  0  0  0  0  0  0  0  0  0
    9.1920   -0.9350   24.6980 C   0  0  0  0  0  0  0  0  0  0  0  0
    8.1370   -0.8640   23.8180 C   0  0  0  0  0  0  0  0  0  0  0  0
    8.3120   -1.1560   22.4720 C   0  0  0  0  0  0  0  0  0  0  0  0
    1.5270    4.1960   25.4190 C   0  0  0  0  0  0  0  0  0  0  0  0
    1.3230    2.9390   24.8060 C   0  0  0  0  0  0  0  0  0  0  0  0
   -0.1780    2.5190   24.8140 C   0  0  0  0  0  0  0  0  0  0  0  0
   -1.3280    3.3630   25.4200 C   0  0  0  0  0  0  0  0  0  0  0  0
   -0.9500    4.6910   26.0470 C   0  0  0  0  0  0  0  0  0  0  0  0
    0.5570    5.0450   26.0010 C   0  0  0  0  0  0  0  0  0  0  0  0
    6.4900   -4.6080   22.0110 C   0  0  1  0  0  0  0  0  0  0  0  0
    7.4750   -5.0400   22.8530 C   0  0  0  0  0  0  0  0  0  0  0  0
    7.1140   -5.0890   24.2120 C   0  0  0  0  0  0  0  0  0  0  0  0
    5.6990   -5.5720   24.4460 N   0  0  0  0  0  0  0  0  0  0  0  0
    4.7120   -5.4170   23.3880 C   0  0  1  0  0  0  0  0  0  0  0  0
    5.3360   -5.5860   22.1700 C   0  0  0  0  0  0  0  0  0  0  0  0
    4.2760   -2.9400   26.4940 C   0  0  0  0  0  0  0  0  0  0  0  0
    3.2550   -1.9970   26.5740 C   0  0  0  0  0  0  0  0  0  0  0  0
    1.9310   -2.3760   26.3350 C   0  0  0  0  0  0  0  0  0  0  0  0
    1.6190   -3.6980   26.0090 C   0  0  0  0  0  0  0  0  0  0  0  0
    2.6370   -4.6430   25.9280 C   0  0  0  0  0  0  0  0  0  0  0  0
    3.9650   -4.2670   26.1740 C   0  0  0  0  0  0  0  0  0  0  0  0
  1  5  1  0
  2  7  1  0
  3  7  2  0
  5  7  1  6
  4  9  1  0
  6 10  1  0
 10 11  1  6
  6 12  1  0
 10 13  1  0
 14 15  2  0
 14 16  1  0
 16 17  1  0
 17 18  1  0
 23 21  1  6
 22 23  1  0
 25 20  1  1
 23 25  1  0
 20 27  1  0
 24 27  2  0
 27 28  1  0
  1 29  1  0
 29 30  1  0
 31 34  1  0
 32 34  2  0
 35 37  2  0
 36 37  2  0
 38 39  2  0
 39 40  1  0
 18 41  1  0
 40 41  2  0
  5 42  1  0
 41 42  1  0
 38 43  1  0
 42 43  2  0
  8 44  1  0
 44 45  2  0
  4 46  1  0
 45 46  1  0
 46 47  2  0
 47 48  1  0
  2 49  1  0
 44 49  1  0
 48 49  2  0
 13 51  1  0
 50 51  2  0
 51 52  1  0
 52 53  2  0
 53 54  1  0
  1 55  1  0
 50 55  1  0
 54 55  2  0
 19 56  1  0
 14 57  1  0
 56 57  2  0
 57 58  1  0
 58 59  2  0
 59 60  1  0
 56 61  1  0
 60 61  2  0
 62 30  1  1
 62 34  1  0
 62 63  1  0
 63 64  1  0
 37 65  1  0
 64 65  1  0
 25 66  1  0
 66 26  1  6
 65 66  1  0
 62 67  1  0
 66 67  1  0
 68 69  2  0
 33 70  1  0
 69 70  1  0
 70 71  2  0
 71 72  1  0
 37 73  1  0
 68 73  1  0
 72 73  2  0
M  END
