x1308-x1077-x3113
     RDKit          3D

 53 58  0  0  0  0  0  0  0  0999 V2000
    7.5650   -1.4020   21.7510 N   0  0  0  0  0  0  0  0  0  0  0  0
    8.2380    1.4240   23.3410 N   0  0  0  0  0  0  0  0  0  0  0  0
    8.8800    1.5900   21.0040 O   0  0  0  0  0  0  0  0  0  0  0  0
   11.7890    3.8530   22.3530 O   0  0  0  0  0  0  0  0  0  0  0  0
    6.9900   -0.0280   21.7640 C   0  0  1  0  0  0  0  0  0  0  0  0
    8.0820    1.0090   22.0410 C   0  0  0  0  0  0  0  0  0  0  0  0
    9.1840    2.4920   23.6130 C   0  0  0  0  0  0  0  0  0  0  0  0
   10.5870    1.9990   23.3420 C   0  0  0  0  0  0  0  0  0  0  0  0
   11.6520    3.1050   23.3120 C   0  0  0  0  0  0  0  0  0  0  0  0
   12.9910    4.6100   22.4990 C   0  0  0  0  0  0  0  0  0  0  0  0
   12.6110   -2.0440   24.3210 C   0  0  0  0  0  0  0  0  0  0  0  0
   13.6000   -2.2170   23.2000 C   0  0  0  0  0  0  0  0  0  0  0  0
   12.8730   -3.1520   25.3550 C   0  0  0  0  0  0  0  0  0  0  0  0
   12.7760   -0.6960   25.0000 C   0  0  0  0  0  0  0  0  0  0  0  0
    6.4160    0.2620   17.9820 N   0  0  0  0  0  0  0  0  0  0  0  0
    5.3350    1.0610   17.8700 C   0  0  0  0  0  0  0  0  0  0  0  0
    4.5860    1.6410   19.0500 C   0  0  0  0  0  0  0  0  0  0  0  0
    5.1440    1.2660   20.3990 C   0  0  0  0  0  0  0  0  0  0  0  0
    6.3750    0.3640   20.4430 C   0  0  0  0  0  0  0  0  0  0  0  0
    6.8970   -0.0610   19.2110 C   0  0  0  0  0  0  0  0  0  0  0  0
    9.9110   -1.3130   21.7700 C   0  0  0  0  0  0  0  0  0  0  0  0
   11.2690   -1.4350   22.2910 C   0  0  0  0  0  0  0  0  0  0  0  0
   11.2950   -1.9170   23.6700 C   0  0  0  0  0  0  0  0  0  0  0  0
   10.1080   -2.2010   24.2780 C   0  0  0  0  0  0  0  0  0  0  0  0
    8.7250   -2.1400   23.8830 C   0  0  0  0  0  0  0  0  0  0  0  0
    8.8150   -1.6400   22.5230 C   0  0  0  0  0  0  0  0  0  0  0  0
    8.0320   -3.7740   20.4530 C   0  0  0  0  0  0  0  0  0  0  0  0
    5.7420   -4.4620   19.9420 O   0  0  0  0  0  0  0  0  0  0  0  0
    0.7980   -1.0620   26.6940 Cl  0  0  0  0  0  0  0  0  0  0  0  0
    6.7160   -4.4840   20.7370 C   0  0  0  0  0  0  0  0  0  0  0  0
    6.2510   -5.6290   26.1230 N   0  0  0  0  0  0  0  0  0  0  0  0
    4.0740   -7.0210   25.8460 O   0  0  0  0  0  0  0  0  0  0  0  0
    4.8340   -5.8040   25.7140 S   0  0  2  0  0  0  0  0  0  0  0  0
    6.9870   -4.7320   25.7130 N   0  0  0  0  0  0  0  0  0  0  0  0
    7.6800   -4.6840   24.3170 C   0  0  1  0  0  0  0  0  0  0  0  0
    8.7880   -5.4750   24.1410 C   0  0  0  0  0  0  0  0  0  0  0  0
    9.9280   -4.8220   24.5520 C   0  0  0  0  0  0  0  0  0  0  0  0
    9.7240   -3.8630   25.6370 N   0  0  0  0  0  0  0  0  0  0  0  0
    9.1190   -4.5560   26.7650 C   0  0  0  0  0  0  0  0  0  0  0  0
    7.7770   -4.2300   26.8420 C   0  0  0  0  0  0  0  0  0  0  0  0
    6.6330   -5.1880   21.9300 N   0  0  0  0  0  0  0  0  0  0  0  0
    6.7830   -4.5400   23.2210 C   0  0  1  0  0  0  0  0  0  0  0  0
    5.5050   -4.2490   23.6550 C   0  0  0  0  0  0  0  0  0  0  0  0
    4.9250   -5.5410   24.0140 N   0  0  0  0  0  0  0  0  0  0  0  0
    4.9890   -6.5920   22.9870 C   0  0  0  0  0  0  0  0  0  0  0  0
    5.9760   -6.5080   22.0310 C   0  0  0  0  0  0  0  0  0  0  0  0
    4.2420   -3.1760   26.5080 C   0  0  0  0  0  0  0  0  0  0  0  0
    3.3010   -2.1370   26.7070 C   0  0  0  0  0  0  0  0  0  0  0  0
    1.9310   -2.3290   26.4450 C   0  0  0  0  0  0  0  0  0  0  0  0
    1.4910   -3.5440   25.9880 C   0  0  0  0  0  0  0  0  0  0  0  0
    2.3970   -4.5690   25.7880 C   0  0  0  0  0  0  0  0  0  0  0  0
    3.7840   -4.4160   26.0400 C   0  0  0  0  0  0  0  0  0  0  0  0
    8.9380   -2.6440   25.2960 C   0  0  0  0  0  0  0  0  0  0  0  0
  5  1  1  6
  2  6  1  0
  3  6  2  0
  5  6  1  0
  2  7  1  0
  7  8  1  0
  4  9  1  0
  8  9  1  0
  4 10  1  0
 11 12  1  0
 11 13  1  0
 11 14  1  0
 15 16  2  0
 16 17  1  0
 17 18  2  0
  5 19  1  0
 18 19  1  0
 15 20  1  0
 19 20  2  0
 21 22  2  0
 11 23  1  0
 22 23  1  0
 23 24  2  0
 24 25  1  0
  1 26  1  0
 21 26  1  0
 25 26  2  0
 27 30  1  0
 28 30  2  0
 31 33  2  0
 32 33  2  0
 31 34  1  0
 34 35  1  0
 35 36  1  6
 36 37  1  0
 37 38  1  0
 38 39  1  0
 34 40  1  0
 39 40  1  0
 30 41  1  0
 35 42  1  0
 42 41  1  1
 42 43  1  0
 33 44  1  0
 43 44  1  0
 44 45  1  0
 41 46  1  0
 45 46  1  0
 47 48  2  0
 29 49  1  0
 48 49  1  0
 49 50  2  0
 50 51  1  0
 33 52  1  1
 47 52  1  0
 51 52  2  0
 25 53  1  0
 38 53  1  0
M  END
