x1308-x2193
     RDKit          3D

 35 38  0  0  0  0  0  0  0  0999 V2000
    7.4150   -3.3940   19.8530 C   0  0  0  0  0  0  0  0  0  0  0  0
    5.3140   -4.5160   19.8980 O   0  0  0  0  0  0  0  0  0  0  0  0
    0.5890   -1.1330   26.5780 Cl  0  0  0  0  0  0  0  0  0  0  0  0
    6.3880   -4.3360   20.4600 C   0  0  0  0  0  0  0  0  0  0  0  0
    6.5670   -5.2430   26.6170 N   0  0  0  0  0  0  0  0  0  0  0  0
    4.7330   -6.9490   26.1490 O   0  0  0  0  0  0  0  0  0  0  0  0
    5.3010   -5.5090   25.7830 S   0  0  2  0  0  0  0  0  0  0  0  0
   11.0750    2.5160   23.0350 C   0  0  0  0  0  0  0  0  0  0  0  0
    9.2740    1.7990   21.2160 O   0  0  0  0  0  0  0  0  0  0  0  0
    8.4730    2.6320   23.4240 O   0  0  0  0  0  0  0  0  0  0  0  0
    9.4520    1.9060   22.6470 S   0  0  0  0  0  0  0  0  0  0  0  0
    6.6210   -5.0400   21.6110 N   0  0  0  0  0  0  0  0  0  0  0  0
    7.4540   -4.6080   22.6220 C   0  0  0  0  0  0  0  0  0  0  0  0
    6.4250   -4.2890   23.7090 C   0  0  0  0  0  0  0  0  0  0  0  0
    5.7890   -5.4180   24.1510 N   0  0  0  0  0  0  0  0  0  0  0  0
    5.0180   -6.1220   23.1380 C   0  0  0  0  0  0  0  0  0  0  0  0
    5.9330   -6.3290   22.0930 C   0  0  0  0  0  0  0  0  0  0  0  0
    4.3330   -2.9580   26.4300 C   0  0  0  0  0  0  0  0  0  0  0  0
    3.3320   -2.0150   26.6000 C   0  0  0  0  0  0  0  0  0  0  0  0
    1.8450   -2.2850   26.3640 C   0  0  0  0  0  0  0  0  0  0  0  0
    1.6290   -3.7360   25.9140 C   0  0  0  0  0  0  0  0  0  0  0  0
    2.6780   -4.6490   25.7580 C   0  0  0  0  0  0  0  0  0  0  0  0
    3.9930   -4.2650   26.0120 C   0  0  0  0  0  0  0  0  0  0  0  0
    9.4520    0.2390   23.2480 C   0  0  0  0  0  0  0  0  0  0  0  0
    9.1900   -0.0180   24.6050 C   0  0  0  0  0  0  0  0  0  0  0  0
    9.1550   -1.3210   25.1320 C   0  0  0  0  0  0  0  0  0  0  0  0
    9.3720   -2.3970   24.3680 C   0  0  0  0  0  0  0  0  0  0  0  0
    9.6890   -2.3070   22.8550 C   0  0  0  0  0  0  0  0  0  0  0  0
    9.7020   -0.8340   22.3760 C   0  0  0  0  0  0  0  0  0  0  0  0
    8.6480   -5.8660   26.1790 N   0  0  0  0  0  0  0  0  0  0  0  0
    7.7260   -4.9570   25.9000 C   0  0  2  0  0  0  0  0  0  0  0  0
    8.1960   -3.6710   25.9000 C   0  0  0  0  0  0  0  0  0  0  0  0
    9.2860   -3.5430   25.0370 N   0  0  0  0  0  0  0  0  0  0  0  0
    9.6440   -4.7360   24.2660 C   0  0  0  0  0  0  0  0  0  0  0  0
    9.6610   -5.7100   25.2980 C   0  0  0  0  0  0  0  0  0  0  0  0
  1  4  1  0
  2  4  2  0
  5  7  2  0
  6  7  2  0
 11  8  1  0
  9 11  2  0
 10 11  2  0
  4 12  1  0
 12 13  1  0
 13 14  1  0
  7 15  1  0
 14 15  1  0
 15 16  1  0
 12 17  1  0
 16 17  1  0
 18 19  2  0
  3 20  1  0
 19 20  1  0
 20 21  2  0
 21 22  1  0
  7 23  1  6
 18 23  1  0
 22 23  2  0
 11 24  1  0
 24 25  2  0
 25 26  1  0
 26 27  2  0
 27 28  1  0
 24 29  1  0
 28 29  2  0
 31  5  1  1
 30 31  1  0
 31 32  1  0
 27 33  1  0
 32 33  1  0
 33 34  1  0
 30 35  1  0
 34 35  1  0
M  END
