x1308-x2694
     RDKit          3D

 50 54  0  0  0  0  0  0  0  0999 V2000
    7.4760   -1.0830   22.0340 N   0  0  0  0  0  0  0  0  0  0  0  0
    7.7080    2.4040   22.8580 N   0  0  0  0  0  0  0  0  0  0  0  0
    9.1600    1.6180   21.1700 O   0  0  0  0  0  0  0  0  0  0  0  0
   10.9710    6.8200   23.8890 O   0  0  0  0  0  0  0  0  0  0  0  0
    7.0090    0.2330   21.7320 C   0  0  1  0  0  0  0  0  0  0  0  0
    7.9780    1.4230   21.9330 C   0  0  0  0  0  0  0  0  0  0  0  0
   10.3100    1.9590   24.0210 C   0  0  0  0  0  0  0  0  0  0  0  0
   11.8760    6.7150   24.9840 C   0  0  0  0  0  0  0  0  0  0  0  0
   12.3590   -1.3980   23.2800 C   0  0  0  0  0  0  0  0  0  0  0  0
   12.9520   -0.0840   23.7410 C   0  0  0  0  0  0  0  0  0  0  0  0
   12.9190   -1.8910   21.9490 C   0  0  0  0  0  0  0  0  0  0  0  0
   12.7550   -2.4250   24.3490 C   0  0  0  0  0  0  0  0  0  0  0  0
    7.1750   -3.4500   19.7420 C   0  0  0  0  0  0  0  0  0  0  0  0
    5.6760   -5.3060   20.0010 O   0  0  0  0  0  0  0  0  0  0  0  0
    0.6470   -1.2580   26.4700 Cl  0  0  0  0  0  0  0  0  0  0  0  0
    6.3260   -4.4250   20.5270 C   0  0  0  0  0  0  0  0  0  0  0  0
    6.1250   -5.0910   26.9640 O   0  0  0  0  0  0  0  0  0  0  0  0
    4.5970   -6.8020   25.9680 O   0  0  0  0  0  0  0  0  0  0  0  0
    5.2030   -5.4870   25.9460 S   0  0  0  0  0  0  0  0  0  0  0  0
    6.6610   -2.0020   22.8950 C   0  0  0  0  0  0  0  0  0  0  0  0
    5.7680   -2.8200   22.2010 C   0  0  0  0  0  0  0  0  0  0  0  0
    6.3600    0.1480   17.9810 N   0  0  0  0  0  0  0  0  0  0  0  0
    5.1800    1.0060   17.9070 C   0  0  0  0  0  0  0  0  0  0  0  0
    4.6560    1.5400   19.0540 C   0  0  0  0  0  0  0  0  0  0  0  0
    5.2610    1.2650   20.2790 C   0  0  0  0  0  0  0  0  0  0  0  0
    6.4010    0.4500   20.3860 C   0  0  0  0  0  0  0  0  0  0  0  0
    6.9480   -0.1050   19.3000 C   0  0  0  0  0  0  0  0  0  0  0  0
    8.7460   -1.3950   23.9350 N   0  0  0  0  0  0  0  0  0  0  0  0
   10.0990   -1.4900   24.2950 O   0  0  0  0  0  0  0  0  0  0  0  0
   10.8940   -1.3590   23.1830 C   0  0  0  0  0  0  0  0  0  0  0  0
    9.9530   -1.1650   21.9970 C   0  0  0  0  0  0  0  0  0  0  0  0
    8.7440   -1.2070   22.5860 C   0  0  0  0  0  0  0  0  0  0  0  0
    9.7770    3.3300   23.6630 C   0  0  0  0  0  0  0  0  0  0  0  0
   10.6010    4.3990   23.9190 C   0  0  0  0  0  0  0  0  0  0  0  0
   10.2090    5.7140   23.6420 C   0  0  0  0  0  0  0  0  0  0  0  0
    8.9440    5.9560   23.0680 C   0  0  0  0  0  0  0  0  0  0  0  0
    8.1080    4.8490   22.8010 C   0  0  0  0  0  0  0  0  0  0  0  0
    8.5070    3.5490   23.0950 C   0  0  0  0  0  0  0  0  0  0  0  0
    6.1750   -4.3190   22.0280 C   0  0  0  0  0  0  0  0  0  0  0  0
    7.3600   -4.6530   22.6910 C   0  0  0  0  0  0  0  0  0  0  0  0
    7.2130   -4.8540   24.0690 C   0  0  0  0  0  0  0  0  0  0  0  0
    5.7800   -5.1710   24.3680 N   0  0  0  0  0  0  0  0  0  0  0  0
    5.1940   -6.0180   23.3340 C   0  0  0  0  0  0  0  0  0  0  0  0
    5.0620   -5.1530   22.2630 C   0  0  0  0  0  0  0  0  0  0  0  0
    4.2170   -3.0070   26.4610 C   0  0  0  0  0  0  0  0  0  0  0  0
    3.2050   -2.0660   26.5770 C   0  0  0  0  0  0  0  0  0  0  0  0
    1.8940   -2.4260   26.3070 C   0  0  0  0  0  0  0  0  0  0  0  0
    1.5790   -3.7310   25.9090 C   0  0  0  0  0  0  0  0  0  0  0  0
    2.5810   -4.6740   25.7910 C   0  0  0  0  0  0  0  0  0  0  0  0
    3.8960   -4.3100   26.0720 C   0  0  0  0  0  0  0  0  0  0  0  0
  1  5  1  0
  2  6  1  0
  3  6  2  0
  5  6  1  6
  4  8  1  0
  9 10  1  0
  9 11  1  0
  9 12  1  0
 13 16  1  0
 14 16  2  0
 17 19  2  0
 18 19  2  0
  1 20  1  0
 20 21  1  0
 22 23  2  0
 23 24  1  0
 24 25  2  0
  5 26  1  0
 25 26  1  0
 22 27  1  0
 26 27  2  0
 28 29  1  0
  9 30  1  0
 29 30  1  0
 30 31  2  0
  1 32  1  0
 28 32  2  0
 31 32  1  0
  7 33  1  0
 33 34  2  0
  4 35  1  0
 34 35  1  0
 35 36  2  0
 36 37  1  0
  2 38  1  0
 33 38  1  0
 37 38  2  0
 39 16  1  0
 21 39  1  0
 39 40  1  0
 40 41  1  0
 19 42  1  0
 41 42  1  0
 42 43  1  0
 39 44  1  0
 43 44  1  0
 45 46  2  0
 15 47  1  0
 46 47  1  0
 47 48  2  0
 48 49  1  0
 19 50  1  0
 45 50  1  0
 49 50  2  0
M  END
