x1308-x0072
     RDKit          3D

 31 34  0  0  0  0  0  0  0  0999 V2000
    8.0430   -3.6490   20.3150 C   0  0  0  0  0  0  0  0  0  0  0  0
    5.8880   -4.6750   20.0560 O   0  0  0  0  0  0  0  0  0  0  0  0
    0.4350   -1.2890   26.6030 Cl  0  0  0  0  0  0  0  0  0  0  0  0
    6.9330   -4.5450   20.7970 C   0  0  0  0  0  0  0  0  0  0  0  0
    6.5140   -4.5790   26.2300 N   0  0  0  0  0  0  0  0  0  0  0  0
    4.9920   -6.7290   26.3410 O   0  0  0  0  0  0  0  0  0  0  0  0
    5.1960   -5.2720   25.7350 S   0  0  2  0  0  0  0  0  0  0  0  0
    7.9590   -4.5360   25.6260 S   0  0  0  0  0  0  0  0  0  0  0  0
    8.6000   -5.8400   25.5890 O   0  0  0  0  0  0  0  0  0  0  0  0
    8.7410   -3.4610   26.2040 O   0  0  0  0  0  0  0  0  0  0  0  0
    7.9080   -4.1760   23.9080 N   0  0  0  0  0  0  0  0  0  0  0  0
    9.1220   -3.7840   23.2420 C   0  0  0  0  0  0  0  0  0  0  0  0
    9.2540   -2.4030   23.0780 C   0  0  0  0  0  0  0  0  0  0  0  0
    7.0980   -5.2690   22.0080 N   0  0  0  0  0  0  0  0  0  0  0  0
    7.0510   -4.7340   23.3160 C   0  0  2  0  0  0  0  0  0  0  0  0
    5.7400   -4.0690   23.4780 C   0  0  0  0  0  0  0  0  0  0  0  0
    5.0500   -5.2110   24.0540 N   0  0  0  0  0  0  0  0  0  0  0  0
    5.1790   -6.3820   23.1510 C   0  0  0  0  0  0  0  0  0  0  0  0
    6.2480   -6.4370   22.2100 C   0  0  0  0  0  0  0  0  0  0  0  0
    4.3060   -2.8820   26.4900 C   0  0  0  0  0  0  0  0  0  0  0  0
    3.2110   -1.8340   26.7280 C   0  0  0  0  0  0  0  0  0  0  0  0
    1.7940   -2.3170   26.4080 C   0  0  0  0  0  0  0  0  0  0  0  0
    1.6620   -3.6230   25.9510 C   0  0  0  0  0  0  0  0  0  0  0  0
    2.6780   -4.5340   25.7510 C   0  0  0  0  0  0  0  0  0  0  0  0
    3.9970   -4.1690   26.0150 C   0  0  0  0  0  0  0  0  0  0  0  0
   10.5960   -1.8890   23.4650 C   0  0  0  0  0  0  0  0  0  0  0  0
   10.9170   -2.0400   22.1340 C   0  0  0  0  0  0  0  0  0  0  0  0
   12.1550   -1.6940   21.7930 C   0  0  0  0  0  0  0  0  0  0  0  0
   13.1590   -1.1510   22.8340 C   0  0  0  0  0  0  0  0  0  0  0  0
   12.6290   -1.0580   24.2970 C   0  0  0  0  0  0  0  0  0  0  0  0
   11.3140   -1.4540   24.5230 C   0  0  0  0  0  0  0  0  0  0  0  0
  1  4  1  0
  2  4  2  0
  5  7  2  0
  6  7  2  0
  8  5  1  0
  8  9  2  0
  8 10  2  0
  8 11  1  0
 11 12  1  0
 12 13  1  0
  4 14  1  0
 15 11  1  6
 14 15  1  0
 15 16  1  0
  7 17  1  0
 16 17  1  0
 17 18  1  0
 14 19  1  0
 18 19  1  0
 20 21  2  0
  3 22  1  0
 21 22  1  0
 22 23  2  0
 23 24  1  0
  7 25  1  1
 20 25  1  0
 24 25  2  0
 13 26  1  0
 26 27  2  0
 27 28  1  0
 28 29  2  0
 29 30  1  0
 26 31  1  0
 30 31  2  0
M  END
