x1308-x0395
     RDKit          3D

 34 37  0  0  0  0  0  0  0  0999 V2000
    7.4490   -3.4540   19.9550 C   0  0  0  0  0  0  0  0  0  0  0  0
    5.4160   -4.7000   19.9620 O   0  0  0  0  0  0  0  0  0  0  0  0
    0.6110   -1.3920   26.4670 Cl  0  0  0  0  0  0  0  0  0  0  0  0
    6.4680   -4.4540   20.5480 C   0  0  0  0  0  0  0  0  0  0  0  0
    6.5950   -4.8870   26.8010 N   0  0  0  0  0  0  0  0  0  0  0  0
    4.9530   -6.8230   26.3300 O   0  0  0  0  0  0  0  0  0  0  0  0
    5.4540   -5.3810   25.8800 S   0  0  2  0  0  0  0  0  0  0  0  0
    8.9490   -5.2860   26.0200 C   0  0  0  0  0  0  0  0  0  0  0  0
    9.2260   -0.5580   23.4190 C   0  0  0  0  0  0  0  0  0  0  0  0
   13.6590   -1.4440   21.5590 F   0  0  0  0  0  0  0  0  0  0  0  0
    7.8390   -5.6950   27.0080 C   0  0  0  0  0  0  0  0  0  0  0  0
    6.7030   -5.1360   21.7250 N   0  0  0  0  0  0  0  0  0  0  0  0
    7.3870   -4.5280   22.7480 C   0  0  0  0  0  0  0  0  0  0  0  0
    6.6160   -4.4250   23.9190 C   0  0  0  0  0  0  0  0  0  0  0  0
    6.0180   -5.3690   24.2560 N   0  0  0  0  0  0  0  0  0  0  0  0
    5.1010   -5.9670   23.2980 C   0  0  0  0  0  0  0  0  0  0  0  0
    5.9290   -6.2780   22.2140 C   0  0  0  0  0  0  0  0  0  0  0  0
    4.4450   -2.9480   26.4280 C   0  0  0  0  0  0  0  0  0  0  0  0
    3.2310   -2.0350   26.5530 C   0  0  0  0  0  0  0  0  0  0  0  0
    1.9420   -2.4650   26.2910 C   0  0  0  0  0  0  0  0  0  0  0  0
    1.7560   -3.7830   25.8870 C   0  0  0  0  0  0  0  0  0  0  0  0
    2.8360   -4.6670   25.7560 C   0  0  0  0  0  0  0  0  0  0  0  0
    4.1640   -4.2630   26.0250 C   0  0  0  0  0  0  0  0  0  0  0  0
    8.8250   -3.8620   25.4450 C   0  0  0  0  0  0  0  0  0  0  0  0
    7.9410   -2.8470   26.0060 N   0  0  0  0  0  0  0  0  0  0  0  0
    8.0400   -1.6970   25.3160 N   0  0  0  0  0  0  0  0  0  0  0  0
    8.9190   -1.7630   24.3010 C   0  0  0  0  0  0  0  0  0  0  0  0
    9.6920   -3.2790   24.0860 S   0  0  0  0  0  0  0  0  0  0  0  0
   10.5960   -0.1070   23.9280 C   0  0  2  0  0  0  0  0  0  0  0  0
   11.5350    1.0070   23.3390 C   0  0  0  0  0  0  0  0  0  0  0  0
   12.5950    0.3940   22.6540 C   0  0  0  0  0  0  0  0  0  0  0  0
   12.6290   -0.9450   22.2390 C   0  0  0  0  0  0  0  0  0  0  0  0
   11.5910   -1.7460   22.5450 C   0  0  0  0  0  0  0  0  0  0  0  0
   11.3110   -1.3710   23.9250 N   0  0  0  0  0  0  0  0  0  0  0  0
  1  4  1  0
  2  4  2  0
  5  7  2  0
  6  7  2  0
  5 11  1  0
  8 11  1  0
  4 12  1  0
 12 13  1  0
 13 14  1  0
  7 15  1  0
 14 15  1  0
 15 16  1  0
 12 17  1  0
 16 17  1  0
 18 19  2  0
  3 20  1  0
 19 20  1  0
 20 21  2  0
 21 22  1  0
  7 23  1  6
 18 23  1  0
 22 23  2  0
  8 24  1  0
 24 25  2  0
 25 26  1  0
  9 27  1  0
 26 27  2  0
 24 28  1  0
 27 28  1  0
 29  9  1  6
 29 30  1  0
 30 31  1  0
 10 32  1  0
 31 32  2  0
 32 33  1  0
 29 34  1  0
 33 34  1  0
M  END
