x1308-x0759
     RDKit          3D

 31 34  0  0  0  0  0  0  0  0999 V2000
    7.1630   -3.5230   19.7730 C   0  0  0  0  0  0  0  0  0  0  0  0
    5.4090   -5.0960   20.0110 O   0  0  0  0  0  0  0  0  0  0  0  0
    0.7270   -1.1620   26.5520 Cl  0  0  0  0  0  0  0  0  0  0  0  0
    6.4180   -4.6120   20.5100 C   0  0  0  0  0  0  0  0  0  0  0  0
    6.4870   -5.0910   26.8520 O   0  0  0  0  0  0  0  0  0  0  0  0
    4.7180   -6.9490   26.1540 O   0  0  0  0  0  0  0  0  0  0  0  0
    5.2200   -5.4510   25.9620 S   0  0  0  0  0  0  0  0  0  0  0  0
   13.1790    0.3740   23.6430 F   0  0  0  0  0  0  0  0  0  0  0  0
    6.8810   -5.0910   21.7540 N   0  0  0  0  0  0  0  0  0  0  0  0
    7.0790   -4.1940   22.8790 C   0  0  1  0  0  0  0  0  0  0  0  0
    6.9830   -4.8720   24.0850 C   0  0  0  0  0  0  0  0  0  0  0  0
    5.6910   -5.2400   24.3510 N   0  0  0  0  0  0  0  0  0  0  0  0
    5.2980   -5.9510   23.5030 C   0  0  0  0  0  0  0  0  0  0  0  0
    6.2550   -6.2190   22.3200 C   0  0  0  0  0  0  0  0  0  0  0  0
    4.2870   -3.0170   26.5180 C   0  0  0  0  0  0  0  0  0  0  0  0
    3.2640   -2.0570   26.6460 C   0  0  0  0  0  0  0  0  0  0  0  0
    1.9320   -2.3690   26.3650 C   0  0  0  0  0  0  0  0  0  0  0  0
    1.5090   -3.7690   25.8920 C   0  0  0  0  0  0  0  0  0  0  0  0
    2.6980   -4.7330   25.7880 C   0  0  0  0  0  0  0  0  0  0  0  0
    3.9950   -4.3310   26.0970 C   0  0  0  0  0  0  0  0  0  0  0  0
    6.1470   -2.1980   21.7490 N   0  0  0  0  0  0  0  0  0  0  0  0
    7.5130   -1.6870   21.8650 C   0  0  0  0  0  0  0  0  0  0  0  0
    8.1550   -2.2770   22.9300 C   0  0  1  0  0  0  0  0  0  0  0  0
    8.2050   -3.7020   22.7380 O   0  0  0  0  0  0  0  0  0  0  0  0
    6.0080   -3.1050   22.8960 C   0  0  0  0  0  0  0  0  0  0  0  0
    9.6430   -0.7140   24.1250 C   0  0  0  0  0  0  0  0  0  0  0  0
   10.7860   -0.0700   24.3270 C   0  0  0  0  0  0  0  0  0  0  0  0
   12.0450   -0.2690   23.4500 C   0  0  0  0  0  0  0  0  0  0  0  0
   11.8290   -1.3050   22.3130 C   0  0  0  0  0  0  0  0  0  0  0  0
   10.5780   -1.8890   22.2300 C   0  0  0  0  0  0  0  0  0  0  0  0
    9.5070   -1.6270   23.0800 C   0  0  0  0  0  0  0  0  0  0  0  0
  1  4  1  0
  2  4  2  0
  5  7  2  0
  6  7  2  0
  4  9  1  0
  9 10  1  0
 10 11  1  1
  7 12  1  0
 11 12  1  0
 12 13  1  0
  9 14  1  0
 13 14  1  0
 15 16  2  0
  3 17  1  0
 16 17  1  0
 17 18  2  0
 18 19  1  0
  7 20  1  0
 15 20  1  0
 19 20  2  0
 21 22  1  0
 22 23  1  0
 10 24  1  0
 23 24  1  0
 10 25  1  0
 21 25  1  0
 26 27  2  0
  8 28  1  0
 27 28  1  0
 28 29  2  0
 29 30  1  0
 23 31  1  6
 26 31  1  0
 30 31  2  0
M  END
