x1308-x2776
     RDKit          3D

 51 55  0  0  0  0  0  0  0  0999 V2000
    7.1660   -1.0870   21.8220 N   0  0  0  0  0  0  0  0  0  0  0  0
    7.8360    2.1120   22.9820 N   0  0  0  0  0  0  0  0  0  0  0  0
    9.0430    1.5460   21.0500 O   0  0  0  0  0  0  0  0  0  0  0  0
   10.7660    6.9210   23.8080 O   0  0  0  0  0  0  0  0  0  0  0  0
    6.8280    0.2540   21.5960 C   0  0  1  0  0  0  0  0  0  0  0  0
   12.3540   -2.8870   24.8310 O   0  0  0  0  0  0  0  0  0  0  0  0
    7.9190    1.3050   21.8830 C   0  0  0  0  0  0  0  0  0  0  0  0
   10.5530    1.7510   23.7910 C   0  0  0  0  0  0  0  0  0  0  0  0
   11.8460    6.9080   24.7380 C   0  0  0  0  0  0  0  0  0  0  0  0
   12.1450   -1.5240   24.4910 C   0  0  1  0  0  0  0  0  0  0  0  0
   13.1950   -1.0680   23.4780 C   0  0  0  0  0  0  0  0  0  0  0  0
   13.6070   -3.0590   25.4310 C   0  0  0  0  0  0  0  0  0  0  0  0
    8.0890   -3.7200   20.2860 C   0  0  0  0  0  0  0  0  0  0  0  0
    5.8530   -4.6970   19.9640 O   0  0  0  0  0  0  0  0  0  0  0  0
    0.7210   -1.3090   26.4570 Cl  0  0  0  0  0  0  0  0  0  0  0  0
    6.8000   -4.3960   20.7040 C   0  0  0  0  0  0  0  0  0  0  0  0
    6.4320   -5.0930   26.9470 O   0  0  0  0  0  0  0  0  0  0  0  0
    4.7480   -6.7800   26.1020 O   0  0  0  0  0  0  0  0  0  0  0  0
    5.3750   -5.4790   26.0350 S   0  0  0  0  0  0  0  0  0  0  0  0
    6.1050   -2.1120   21.7670 C   0  0  0  0  0  0  0  0  0  0  0  0
    6.2090   -3.2850   22.7520 C   0  0  0  0  0  0  0  0  0  0  0  0
    6.3440    0.3830   17.8090 N   0  0  0  0  0  0  0  0  0  0  0  0
    5.1840    1.2330   17.8040 C   0  0  0  0  0  0  0  0  0  0  0  0
    4.5850    1.7200   18.9240 C   0  0  0  0  0  0  0  0  0  0  0  0
    5.1070    1.4010   20.1490 C   0  0  0  0  0  0  0  0  0  0  0  0
    6.2390    0.5840   20.2490 C   0  0  0  0  0  0  0  0  0  0  0  0
    6.8830    0.0490   19.1200 C   0  0  0  0  0  0  0  0  0  0  0  0
    9.9230    3.1070   23.5840 C   0  0  0  0  0  0  0  0  0  0  0  0
   10.7990    4.3370   23.8230 C   0  0  0  0  0  0  0  0  0  0  0  0
   10.1490    5.7220   23.6240 C   0  0  0  0  0  0  0  0  0  0  0  0
    8.8090    5.7300   23.2230 C   0  0  0  0  0  0  0  0  0  0  0  0
    8.0560    4.5530   23.0100 C   0  0  0  0  0  0  0  0  0  0  0  0
    8.5880    3.2800   23.1880 C   0  0  0  0  0  0  0  0  0  0  0  0
    9.5000   -1.7900   21.8930 C   0  0  0  0  0  0  0  0  0  0  0  0
   10.7340   -1.8950   22.5550 C   0  0  0  0  0  0  0  0  0  0  0  0
   10.8050   -1.4150   23.8790 C   0  0  0  0  0  0  0  0  0  0  0  0
    9.7050   -0.8810   24.5140 C   0  0  0  0  0  0  0  0  0  0  0  0
    8.5320   -0.8100   23.7980 C   0  0  0  0  0  0  0  0  0  0  0  0
    8.3690   -1.2320   22.4920 C   0  0  0  0  0  0  0  0  0  0  0  0
    6.6120   -4.6850   22.1960 C   0  0  0  0  0  0  0  0  0  0  0  0
    7.7140   -5.1150   22.9150 C   0  0  0  0  0  0  0  0  0  0  0  0
    7.4150   -5.0410   24.2830 C   0  0  0  0  0  0  0  0  0  0  0  0
    5.9510   -5.2690   24.4570 N   0  0  0  0  0  0  0  0  0  0  0  0
    5.2430   -6.0780   23.4270 C   0  0  0  0  0  0  0  0  0  0  0  0
    5.4710   -5.4960   22.1970 C   0  0  0  0  0  0  0  0  0  0  0  0
    4.3470   -2.9700   26.5020 C   0  0  0  0  0  0  0  0  0  0  0  0
    3.3000   -2.0490   26.5920 C   0  0  0  0  0  0  0  0  0  0  0  0
    2.0000   -2.4460   26.3220 C   0  0  0  0  0  0  0  0  0  0  0  0
    1.7200   -3.7660   25.9500 C   0  0  0  0  0  0  0  0  0  0  0  0
    2.7580   -4.6930   25.8580 C   0  0  0  0  0  0  0  0  0  0  0  0
    4.0680   -4.2880   26.1400 C   0  0  0  0  0  0  0  0  0  0  0  0
  1  5  1  0
  2  7  1  0
  3  7  2  0
  5  7  1  6
  4  9  1  0
  6 10  1  0
 10 11  1  6
  6 12  1  0
 13 16  1  0
 14 16  2  0
 17 19  2  0
 18 19  2  0
  1 20  1  0
 20 21  1  0
 22 23  2  0
 23 24  1  0
 24 25  2  0
  5 26  1  0
 25 26  1  0
 22 27  1  0
 26 27  2  0
  8 28  1  0
 28 29  2  0
  4 30  1  0
 29 30  1  0
 30 31  2  0
 31 32  1  0
  2 33  1  0
 28 33  1  0
 32 33  2  0
 34 35  2  0
 10 36  1  0
 35 36  1  0
 36 37  2  0
 37 38  1  0
  1 39  1  0
 34 39  1  0
 38 39  2  0
 40 16  1  0
 21 40  1  0
 40 41  1  0
 41 42  1  0
 19 43  1  0
 42 43  1  0
 43 44  1  0
 40 45  1  0
 44 45  1  0
 46 47  2  0
 15 48  1  0
 47 48  1  0
 48 49  2  0
 49 50  1  0
 19 51  1  0
 46 51  1  0
 50 51  2  0
M  END
