x1308-x3305
     RDKit          3D

 37 40  0  0  0  0  0  0  0  0999 V2000
    3.6210   -7.4560   24.1760 C   0  0  0  0  0  0  0  0  0  0  0  0
    5.9010   -3.6780   20.5870 C   0  0  0  0  0  0  0  0  0  0  0  0
    7.9470   -3.7390   21.8790 N   0  0  0  0  0  0  0  0  0  0  0  0
    7.4380   -1.7840   20.5980 N   0  0  0  0  0  0  0  0  0  0  0  0
    7.1240   -3.7190   23.1240 C   0  0  0  0  0  0  0  0  0  0  0  0
    7.3830   -3.2900   20.5860 C   0  0  2  0  0  0  0  0  0  0  0  0
    8.1790   -1.1790   21.3280 C   0  0  0  0  0  0  0  0  0  0  0  0
    9.3990   -1.9270   21.9490 C   0  0  0  0  0  0  0  0  0  0  0  0
    7.1380   -1.1800   19.2030 C   0  0  0  0  0  0  0  0  0  0  0  0
    5.2910   -4.4470   19.8590 O   0  0  0  0  0  0  0  0  0  0  0  0
    0.5160   -1.1470   26.4630 Cl  0  0  0  0  0  0  0  0  0  0  0  0
    6.6630   -4.5330   26.4370 O   0  0  0  0  0  0  0  0  0  0  0  0
    4.9180   -6.5420   26.6480 O   0  0  0  0  0  0  0  0  0  0  0  0
    5.3000   -5.1720   25.9310 S   0  0  0  0  0  0  0  0  0  0  0  0
    4.5910   -6.5410   23.5690 N   0  0  0  0  0  0  0  0  0  0  0  0
    5.3580   -5.5190   24.2060 C   0  0  0  0  0  0  0  0  0  0  0  0
    6.0950   -4.9200   23.1790 C   0  0  0  0  0  0  0  0  0  0  0  0
    5.7480   -5.6570   21.9450 N   0  0  0  0  0  0  0  0  0  0  0  0
    4.8450   -6.6080   22.2610 N   0  0  0  0  0  0  0  0  0  0  0  0
    5.3610    1.8080   17.8910 N   0  0  0  0  0  0  0  0  0  0  0  0
    6.2690    0.8600   18.0730 C   0  0  0  0  0  0  0  0  0  0  0  0
    6.1520   -0.2100   19.1380 C   0  0  0  0  0  0  0  0  0  0  0  0
    5.0530   -0.1510   19.9660 C   0  0  0  0  0  0  0  0  0  0  0  0
    4.1410    0.8720   19.7520 C   0  0  0  0  0  0  0  0  0  0  0  0
    4.3250    1.7990   18.7340 C   0  0  0  0  0  0  0  0  0  0  0  0
   10.5960    0.1700   22.7870 C   0  0  0  0  0  0  0  0  0  0  0  0
   11.7530    0.9260   23.0870 C   0  0  0  0  0  0  0  0  0  0  0  0
   12.9730    0.4520   22.9110 C   0  0  0  0  0  0  0  0  0  0  0  0
   13.1480   -0.9540   22.3660 C   0  0  0  0  0  0  0  0  0  0  0  0
   11.8850   -1.7560   22.0390 C   0  0  0  0  0  0  0  0  0  0  0  0
   10.6570   -1.1440   22.2690 C   0  0  0  0  0  0  0  0  0  0  0  0
    4.1940   -2.6990   26.4340 C   0  0  0  0  0  0  0  0  0  0  0  0
    3.1460   -1.8150   26.5490 C   0  0  0  0  0  0  0  0  0  0  0  0
    1.8280   -2.2430   26.3130 C   0  0  0  0  0  0  0  0  0  0  0  0
    1.5980   -3.5840   25.9570 C   0  0  0  0  0  0  0  0  0  0  0  0
    2.6750   -4.4830   25.8420 C   0  0  0  0  0  0  0  0  0  0  0  0
    3.9680   -4.0410   26.0810 C   0  0  0  0  0  0  0  0  0  0  0  0
  3  5  1  0
  6  2  1  1
  3  6  1  0
  4  6  1  0
  4  7  1  0
  7  8  1  0
  4  9  1  0
  2 10  2  0
 12 14  2  0
 13 14  2  0
  1 15  1  0
 14 16  1  0
 15 16  1  0
  5 17  1  0
 16 17  2  0
 17 18  1  0
 15 19  1  0
 18 19  2  0
 20 21  2  0
  9 22  1  0
 21 22  1  0
 22 23  2  0
 23 24  1  0
 20 25  1  0
 24 25  2  0
 26 27  2  0
 27 28  1  0
 28 29  2  0
 29 30  1  0
  8 31  1  0
 26 31  1  0
 30 31  2  0
 32 33  2  0
 11 34  1  0
 33 34  1  0
 34 35  2  0
 35 36  1  0
 14 37  1  0
 32 37  1  0
 36 37  2  0
M  END
