x1311-x2908
     RDKit          3D

 38 41  0  0  0  0  0  0  0  0999 V2000
    5.7870   -4.7300   20.0150 O   0  0  0  0  0  0  0  0  0  0  0  0
    6.6400   -4.5300   20.9070 C   0  0  0  0  0  0  0  0  0  0  0  0
    8.1470   -4.2800   20.7240 C   0  0  0  0  0  0  0  0  0  0  0  0
    6.2690   -4.4600   22.4070 C   0  0  2  0  0  0  0  0  0  0  0  0
    4.0860   -7.6700   25.2110 O   0  0  0  0  0  0  0  0  0  0  0  0
    1.9750   -6.0940   24.8120 O   0  0  0  0  0  0  0  0  0  0  0  0
    4.4580    1.4170   21.6140 C   0  0  0  0  0  0  0  0  0  0  0  0
    8.7160    1.2940   21.1990 O   0  0  0  0  0  0  0  0  0  0  0  0
   13.4210   -1.6270   21.3250 Cl  0  0  0  0  0  0  0  0  0  0  0  0
    6.9510   -0.3110   21.0570 N   0  0  0  0  0  0  0  0  0  0  0  0
    8.7450   -0.5330   22.7090 N   0  0  0  0  0  0  0  0  0  0  0  0
    8.1850    0.2470   21.6270 C   0  0  0  0  0  0  0  0  0  0  0  0
    5.8100   -3.0280   22.6330 C   0  0  0  0  0  0  0  0  0  0  0  0
    5.7730   -2.3550   21.4150 C   0  0  0  0  0  0  0  0  0  0  0  0
    6.9520   -1.7240   21.0450 C   0  0  0  0  0  0  0  0  0  0  0  0
    8.2060   -5.7580   23.1580 C   0  0  0  0  0  0  0  0  0  0  0  0
    9.2590   -5.9530   24.0270 C   0  0  0  0  0  0  0  0  0  0  0  0
    9.6510   -5.1220   25.0690 C   0  0  0  0  0  0  0  0  0  0  0  0
    8.7640   -3.8600   25.2030 C   0  0  0  0  0  0  0  0  0  0  0  0
    7.6080   -3.5830   24.3050 C   0  0  0  0  0  0  0  0  0  0  0  0
    7.3830   -4.6500   23.2490 C   0  0  0  0  0  0  0  0  0  0  0  0
    4.5480   -6.3910   22.1670 C   0  0  0  0  0  0  0  0  0  0  0  0
    5.3880   -5.5860   23.0420 C   0  0  2  0  0  0  0  0  0  0  0  0
    4.5020   -5.1300   24.2290 C   0  0  0  0  0  0  0  0  0  0  0  0
    3.4180   -6.5330   24.3120 S   0  0  0  0  0  0  0  0  0  0  0  0
    3.4600   -6.9340   22.7160 C   0  0  0  0  0  0  0  0  0  0  0  0
    6.3010    0.7160   17.4790 N   0  0  0  0  0  0  0  0  0  0  0  0
    6.8150    0.1580   18.5640 C   0  0  0  0  0  0  0  0  0  0  0  0
    6.3330    0.2940   19.9800 C   0  0  0  0  0  0  0  0  0  0  0  0
    5.1160    1.1420   20.2880 C   0  0  0  0  0  0  0  0  0  0  0  0
    4.5030    1.7990   19.0530 C   0  0  0  0  0  0  0  0  0  0  0  0
    5.1600    1.5350   17.7170 C   0  0  0  0  0  0  0  0  0  0  0  0
   10.5350    0.5670   23.8080 C   0  0  0  0  0  0  0  0  0  0  0  0
   11.8860    0.7940   23.9630 C   0  0  0  0  0  0  0  0  0  0  0  0
   12.7810    0.1050   23.1960 C   0  0  0  0  0  0  0  0  0  0  0  0
   12.3440   -0.8070   22.2850 C   0  0  0  0  0  0  0  0  0  0  0  0
   11.0050   -1.0620   22.1130 C   0  0  0  0  0  0  0  0  0  0  0  0
   10.1100   -0.3610   22.8740 C   0  0  0  0  0  0  0  0  0  0  0  0
  1  2  2  0
  2  3  1  0
  4  2  1  0
  8 12  2  0
 10 12  1  0
 11 12  1  0
  4 13  1  6
 13 14  1  0
 10 15  1  0
 14 15  1  0
 16 17  2  0
 17 18  1  0
 18 19  2  0
 19 20  1  0
  4 21  1  0
 16 21  1  0
 20 21  2  0
  4 23  1  0
 23 22  1  6
 23 24  1  0
 25  5  1  0
  6 25  1  0
 24 25  1  0
 22 26  2  0
 25 26  1  0
 27 28  2  0
 10 29  1  0
 28 29  1  0
  7 30  1  0
 29 30  2  0
 30 31  1  0
 27 32  1  0
 31 32  2  0
 33 34  2  0
 34 35  1  0
  9 36  1  0
 35 36  2  0
 36 37  1  0
 11 38  1  0
 33 38  1  0
 37 38  2  0
M  END
