x1311-x0731
     RDKit          3D

 25 27  0  0  0  0  0  0  0  0999 V2000
    0.8220   -0.6790   26.1640 C   0  0  0  0  0  0  0  0  0  0  0  0
    5.9640   -4.7380   26.9150 O   0  0  0  0  0  0  0  0  0  0  0  0
    4.4620   -6.6150   25.8360 N   0  0  0  0  0  0  0  0  0  0  0  0
    5.4790   -4.5900   19.9570 O   0  0  0  0  0  0  0  0  0  0  0  0
    6.4380   -4.6750   20.7450 C   0  0  0  0  0  0  0  0  0  0  0  0
    7.7290   -3.8860   20.5130 C   0  0  0  0  0  0  0  0  0  0  0  0
    4.9890   -5.1750   25.9470 S   0  0  1  0  0  0  0  0  0  0  0  0
    1.8190   -1.8110   26.0830 C   0  0  0  0  0  0  0  0  0  0  0  0
    1.4510   -3.1040   25.4270 C   0  0  0  0  0  0  0  0  0  0  0  0
    2.4820   -4.1820   25.3890 C   0  0  0  0  0  0  0  0  0  0  0  0
    3.7310   -3.9440   25.9600 C   0  0  0  0  0  0  0  0  0  0  0  0
    4.0200   -2.7040   26.5590 C   0  0  0  0  0  0  0  0  0  0  0  0
    3.1040   -1.6610   26.6250 C   0  0  0  0  0  0  0  0  0  0  0  0
    6.3790   -5.5070   21.8480 N   0  0  0  0  0  0  0  0  0  0  0  0
    7.3600   -5.5180   22.9110 C   0  0  0  0  0  0  0  0  0  0  0  0
    6.8510   -5.1930   24.1830 C   0  0  0  0  0  0  0  0  0  0  0  0
    5.5950   -4.9030   24.3880 N   0  0  0  0  0  0  0  0  0  0  0  0
    4.6070   -5.1150   23.3180 C   0  0  0  0  0  0  0  0  0  0  0  0
    5.1730   -5.9930   22.4220 C   0  0  0  0  0  0  0  0  0  0  0  0
    8.7890   -5.8920   22.6130 C   0  0  0  0  0  0  0  0  0  0  0  0
    9.6070   -5.8850   23.9040 C   0  0  0  0  0  0  0  0  0  0  0  0
    9.0530   -5.5400   25.2430 C   0  0  0  0  0  0  0  0  0  0  0  0
    7.6000   -5.1800   25.2920 C   0  0  0  0  0  0  0  0  0  0  0  0
    2.6700   -6.7860   24.5870 O   0  0  0  0  0  0  0  0  0  0  0  0
    3.0770   -6.8770   25.7500 C   0  0  0  0  0  0  0  0  0  0  0  0
  4  5  2  0
  5  6  1  0
  2  7  2  0
  3  7  2  0
  1  8  1  0
  8  9  2  0
  9 10  1  0
  7 11  1  1
 10 11  2  0
 11 12  1  0
  8 13  1  0
 12 13  2  0
  5 14  1  0
 14 15  1  0
 15 16  2  0
  7 17  1  0
 16 17  1  0
 17 18  1  0
 14 19  1  0
 18 19  1  0
 15 20  1  0
 20 21  2  0
 21 22  1  0
 16 23  1  0
 22 23  2  0
  3 25  1  0
 24 25  1  0
M  END
