x1311-x1380
     RDKit          3D

 25 27  0  0  0  0  0  0  0  0999 V2000
    5.7410   -4.7300   20.0990 O   0  0  0  0  0  0  0  0  0  0  0  0
    6.5780   -4.6330   21.0810 C   0  0  0  0  0  0  0  0  0  0  0  0
    8.0940   -4.4240   20.8280 C   0  0  0  0  0  0  0  0  0  0  0  0
    6.2350   -4.7050   22.4960 N   0  0  0  0  0  0  0  0  0  0  0  0
    4.1600   -7.6820   25.0610 O   0  0  0  0  0  0  0  0  0  0  0  0
    2.2760   -6.0200   24.8070 O   0  0  0  0  0  0  0  0  0  0  0  0
    5.5800   -2.8190   24.5150 O   0  0  0  0  0  0  0  0  0  0  0  0
    6.4120   -3.3770   25.2160 C   0  0  0  0  0  0  0  0  0  0  0  0
    8.3310   -5.7090   22.9460 C   0  0  0  0  0  0  0  0  0  0  0  0
    9.4910   -5.9740   23.8120 C   0  0  0  0  0  0  0  0  0  0  0  0
    9.5430   -5.2970   25.1130 C   0  0  0  0  0  0  0  0  0  0  0  0
    8.5090   -4.4560   25.4760 C   0  0  0  0  0  0  0  0  0  0  0  0
    7.3920   -4.2260   24.6470 C   0  0  0  0  0  0  0  0  0  0  0  0
    7.3170   -4.8550   23.3690 C   0  0  0  0  0  0  0  0  0  0  0  0
    4.6010   -6.3690   22.1500 C   0  0  0  0  0  0  0  0  0  0  0  0
    5.4100   -5.7730   23.0570 C   0  0  2  0  0  0  0  0  0  0  0  0
    4.6790   -5.2580   24.1610 C   0  0  0  0  0  0  0  0  0  0  0  0
    3.5270   -6.5860   24.3650 S   0  0  0  0  0  0  0  0  0  0  0  0
    3.4630   -6.9010   22.6480 C   0  0  0  0  0  0  0  0  0  0  0  0
    7.7590   -3.2710   27.3910 C   0  0  0  0  0  0  0  0  0  0  0  0
    8.0650   -4.7070   27.9420 C   0  0  0  0  0  0  0  0  0  0  0  0
    6.7810   -5.2730   28.6280 C   0  0  0  0  0  0  0  0  0  0  0  0
    5.6640   -4.2000   28.7100 C   0  0  0  0  0  0  0  0  0  0  0  0
    5.3180   -3.6330   27.4740 C   0  0  0  0  0  0  0  0  0  0  0  0
    6.4840   -3.2530   26.6730 N   0  0  0  0  0  0  0  0  0  0  0  0
  1  2  2  0
  2  3  1  0
  2  4  1  0
  7  8  2  0
  9 10  2  0
 10 11  1  0
 11 12  2  0
  8 13  1  0
 12 13  1  0
  4 14  1  0
  9 14  1  0
 13 14  2  0
 16  4  1  6
 15 16  1  0
 16 17  1  0
 18  5  1  0
  6 18  1  0
 17 18  1  0
 15 19  2  0
 18 19  1  0
 20 21  1  0
 21 22  1  0
 22 23  1  0
 23 24  1  0
  8 25  1  0
 20 25  1  0
 24 25  1  0
M  END
