x1311-x0755-x3110-x1077
     RDKit          3D

 64 71  0  0  0  0  0  0  0  0999 V2000
    8.1590    1.4180   23.3760 N   0  0  0  0  0  0  0  0  0  0  0  0
   13.4290    5.2460   22.7930 C   0  0  0  0  0  0  0  0  0  0  0  0
   12.0370    3.4040   22.3590 O   0  0  0  0  0  0  0  0  0  0  0  0
   12.4500    4.4830   21.9580 C   0  0  0  0  0  0  0  0  0  0  0  0
    7.3740   -1.4090   22.0760 N   0  0  0  0  0  0  0  0  0  0  0  0
   11.1710    4.4560   24.1860 O   0  0  0  0  0  0  0  0  0  0  0  0
   11.2450    3.4820   23.4490 C   0  0  0  0  0  0  0  0  0  0  0  0
    8.7600    1.5810   21.1710 O   0  0  0  0  0  0  0  0  0  0  0  0
   10.4420    2.1970   23.6380 C   0  0  0  0  0  0  0  0  0  0  0  0
    8.9350    2.4710   23.8190 C   0  0  0  0  0  0  0  0  0  0  0  0
    8.0460    1.0760   22.0510 C   0  0  0  0  0  0  0  0  0  0  0  0
    6.9570    0.0580   21.7720 C   0  0  1  0  0  0  0  0  0  0  0  0
   12.7320   -1.9360   24.3340 C   0  0  0  0  0  0  0  0  0  0  0  0
   12.8300   -0.5470   24.7730 C   0  0  0  0  0  0  0  0  0  0  0  0
   13.5070   -1.8650   23.1060 C   0  0  0  0  0  0  0  0  0  0  0  0
   12.9190   -3.0450   25.2730 C   0  0  0  0  0  0  0  0  0  0  0  0
    6.3770    0.2370   17.8990 N   0  0  0  0  0  0  0  0  0  0  0  0
    5.2820    1.0170   17.8540 C   0  0  0  0  0  0  0  0  0  0  0  0
    4.5330    1.6010   19.0140 C   0  0  0  0  0  0  0  0  0  0  0  0
    5.0600    1.2950   20.3900 C   0  0  0  0  0  0  0  0  0  0  0  0
    6.3150    0.4130   20.4530 C   0  0  0  0  0  0  0  0  0  0  0  0
    6.9070   -0.0810   19.1170 C   0  0  0  0  0  0  0  0  0  0  0  0
    9.9670   -1.0220   21.8750 C   0  0  0  0  0  0  0  0  0  0  0  0
   11.2380   -1.1350   22.3780 C   0  0  0  0  0  0  0  0  0  0  0  0
   11.3940   -1.8200   23.7230 C   0  0  0  0  0  0  0  0  0  0  0  0
   10.3530   -2.3010   24.3660 C   0  0  0  0  0  0  0  0  0  0  0  0
    9.0890   -2.2140   23.8920 C   0  0  0  0  0  0  0  0  0  0  0  0
    8.7430   -1.5780   22.6540 C   0  0  0  0  0  0  0  0  0  0  0  0
    6.1360   -5.0440   20.0200 O   0  0  0  0  0  0  0  0  0  0  0  0
    6.9120   -4.6820   20.9160 C   0  0  0  0  0  0  0  0  0  0  0  0
    8.3700   -4.3440   20.6940 C   0  0  0  0  0  0  0  0  0  0  0  0
    4.2210   -7.8710   24.8030 O   0  0  0  0  0  0  0  0  0  0  0  0
    2.2830   -6.8330   23.1950 O   0  0  0  0  0  0  0  0  0  0  0  0
    4.4110   -6.0340   26.6350 O   0  0  0  0  0  0  0  0  0  0  0  0
    6.5030   -4.4400   26.2860 N   0  0  0  0  0  0  0  0  0  0  0  0
    4.6470   -3.4820   20.6870 O   0  0  0  0  0  0  0  0  0  0  0  0
    5.7120   -3.2840   21.2360 C   0  0  0  0  0  0  0  0  0  0  0  0
    6.4480   -2.1680   20.9610 C   0  0  0  0  0  0  0  0  0  0  0  0
    1.9340   -5.1890   26.0390 F   0  0  0  0  0  0  0  0  0  0  0  0
    5.3760   -1.7340   26.4670 F   0  0  0  0  0  0  0  0  0  0  0  0
    5.0440   -4.7650   26.3590 S   0  0  2  0  0  0  0  0  0  0  0  0
    7.2690   -5.3680   25.6220 N   0  0  0  0  0  0  0  0  0  0  0  0
    7.4900   -5.4210   24.2030 C   0  0  2  0  0  0  0  0  0  0  0  0
    8.8630   -5.5450   23.8910 C   0  0  0  0  0  0  0  0  0  0  0  0
    9.7700   -4.8250   24.6640 C   0  0  0  0  0  0  0  0  0  0  0  0
    9.3420   -3.8880   25.5620 N   0  0  0  0  0  0  0  0  0  0  0  0
    8.9750   -4.4350   26.7320 C   0  0  0  0  0  0  0  0  0  0  0  0
    8.3770   -5.6460   26.4980 C   0  0  0  0  0  0  0  0  0  0  0  0
    4.9090   -5.2230   22.3460 C   0  0  1  0  0  0  0  0  0  0  0  0
    3.8980   -4.5860   22.8550 C   0  0  0  0  0  0  0  0  0  0  0  0
    4.3650   -5.3150   23.8870 C   0  0  1  0  0  0  0  0  0  0  0  0
    3.8050   -6.8840   23.6420 S   0  0  0  0  0  0  0  0  0  0  0  0
    4.9760   -6.7150   22.3710 C   0  0  0  0  0  0  0  0  0  0  0  0
    2.3480   -3.9110   26.1150 C   0  0  0  0  0  0  0  0  0  0  0  0
    3.8320   -3.5450   26.2790 C   0  0  0  0  0  0  0  0  0  0  0  0
    4.1280   -2.1800   26.3340 C   0  0  0  0  0  0  0  0  0  0  0  0
    3.0220   -1.1150   26.2410 C   0  0  0  0  0  0  0  0  0  0  0  0
    1.7260   -1.5950   26.0990 C   0  0  0  0  0  0  0  0  0  0  0  0
    1.4000   -2.9500   26.0360 C   0  0  0  0  0  0  0  0  0  0  0  0
    6.2120   -4.4360   22.1190 C   0  0  0  0  0  0  0  0  0  0  0  0
    6.9440   -4.1760   23.3040 C   0  0  1  0  0  0  0  0  0  0  0  0
    6.0470   -3.7030   24.2200 C   0  0  0  0  0  0  0  0  0  0  0  0
    5.3320   -4.8810   24.7570 N   0  0  0  0  0  0  0  0  0  0  0  0
    8.3310   -2.9180   24.9650 C   0  0  0  0  0  0  0  0  0  0  0  0
  2  4  1  0
  3  4  1  0
  3  7  1  0
  6  7  2  0
  7  9  1  0
  1 10  1  0
  9 10  1  0
  1 11  1  0
  8 11  2  0
 12  5  1  6
 11 12  1  0
 13 14  1  0
 13 15  1  0
 13 16  1  0
 17 18  2  0
 18 19  1  0
 19 20  2  0
 12 21  1  0
 20 21  1  0
 17 22  1  0
 21 22  2  0
 23 24  2  0
 13 25  1  0
 24 25  1  0
 25 26  2  0
 26 27  1  0
  5 28  1  0
 23 28  1  0
 27 28  2  0
 29 30  2  0
 30 31  1  0
 36 37  2  0
 37 38  1  0
 34 41  2  0
 35 41  2  0
 35 42  1  0
 42 43  1  0
 43 44  1  1
 44 45  1  0
 45 46  1  0
 46 47  1  0
 42 48  1  0
 47 48  1  0
 49 50  1  6
 49 51  1  0
 51 50  1  6
 52 32  1  0
 33 52  1  0
 51 52  1  0
 49 53  1  0
 52 53  1  0
 39 54  1  0
 41 55  1  6
 54 55  2  0
 40 56  1  0
 55 56  1  0
 56 57  2  0
 57 58  1  0
 54 59  1  0
 58 59  2  0
 60 30  1  0
 37 60  1  0
 49 60  1  0
 43 61  1  0
 61 60  1  6
 61 62  1  0
 41 63  1  0
 51 63  1  0
 62 63  1  0
 27 64  1  0
 46 64  1  0
M  END
