x1311-x2776-x3117-x2694-x2705
     RDKit          3D

 53 57  0  0  0  0  0  0  0  0999 V2000
    7.1340   -1.1770   21.8020 N   0  0  0  0  0  0  0  0  0  0  0  0
    7.8210    2.0830   22.8970 N   0  0  0  0  0  0  0  0  0  0  0  0
    9.2160    1.2930   21.0890 O   0  0  0  0  0  0  0  0  0  0  0  0
   10.8000    6.6710   23.8440 O   0  0  0  0  0  0  0  0  0  0  0  0
    6.8710    0.3020   21.5400 C   0  0  1  0  0  0  0  0  0  0  0  0
   13.8270   -2.3620   24.2200 O   0  0  0  0  0  0  0  0  0  0  0  0
    8.0340    1.2260   21.8440 C   0  0  0  0  0  0  0  0  0  0  0  0
   10.3230    1.9080   24.0350 C   0  0  0  0  0  0  0  0  0  0  0  0
   11.8070    6.4700   24.8400 C   0  0  0  0  0  0  0  0  0  0  0  0
   12.8870   -1.3940   23.7310 C   0  0  0  0  0  0  0  0  0  0  0  0
   13.3070   -0.2790   22.8220 C   0  0  0  0  0  0  0  0  0  0  0  0
   13.4620   -2.9790   25.4540 C   0  0  0  0  0  0  0  0  0  0  0  0
   11.9530   -2.1880   22.8350 C   0  0  0  0  0  0  0  0  0  0  0  0
    9.4120    1.2420   25.0570 C   0  0  0  0  0  0  0  0  0  0  0  0
    6.6100    4.8790   22.0630 C   0  0  0  0  0  0  0  0  0  0  0  0
   12.1870   -0.7540   24.9380 C   0  0  0  0  0  0  0  0  0  0  0  0
    5.8240   -4.7580   20.0120 O   0  0  0  0  0  0  0  0  0  0  0  0
    6.6760   -4.5200   20.8910 C   0  0  0  0  0  0  0  0  0  0  0  0
    8.1580   -4.2000   20.7290 C   0  0  0  0  0  0  0  0  0  0  0  0
    6.2950   -4.4540   22.4010 C   0  0  2  0  0  0  0  0  0  0  0  0
    4.0900   -7.6950   25.2520 O   0  0  0  0  0  0  0  0  0  0  0  0
    2.2310   -5.8200   24.8750 O   0  0  0  0  0  0  0  0  0  0  0  0
    6.0450   -1.7430   22.6460 C   0  0  0  0  0  0  0  0  0  0  0  0
    5.4840   -3.1250   22.3540 C   0  0  0  0  0  0  0  0  0  0  0  0
    6.3360    0.4530   17.8120 N   0  0  0  0  0  0  0  0  0  0  0  0
    5.2160    1.2580   17.7350 C   0  0  0  0  0  0  0  0  0  0  0  0
    4.5860    1.7650   18.9550 C   0  0  0  0  0  0  0  0  0  0  0  0
    5.1100    1.4510   20.1550 C   0  0  0  0  0  0  0  0  0  0  0  0
    6.2210    0.6650   20.2230 C   0  0  0  0  0  0  0  0  0  0  0  0
    6.7970    0.1850   19.0750 C   0  0  0  0  0  0  0  0  0  0  0  0
    9.7440    3.2460   23.6520 C   0  0  0  0  0  0  0  0  0  0  0  0
   10.5010    4.3560   23.8950 C   0  0  0  0  0  0  0  0  0  0  0  0
    9.9610    5.6220   23.5430 C   0  0  0  0  0  0  0  0  0  0  0  0
    8.7220    5.7680   22.9610 C   0  0  0  0  0  0  0  0  0  0  0  0
    7.9570    4.6460   22.7090 C   0  0  0  0  0  0  0  0  0  0  0  0
    8.4880    3.3190   23.0800 C   0  0  0  0  0  0  0  0  0  0  0  0
    9.5780   -1.7190   22.1440 C   0  0  0  0  0  0  0  0  0  0  0  0
   10.5710   -1.7800   23.0770 C   0  0  0  0  0  0  0  0  0  0  0  0
   10.3290   -1.4470   24.3710 C   0  0  0  0  0  0  0  0  0  0  0  0
    9.1050   -1.0530   24.7300 C   0  0  0  0  0  0  0  0  0  0  0  0
    8.0740   -0.9690   23.8520 C   0  0  0  0  0  0  0  0  0  0  0  0
    8.3030   -1.3030   22.5640 C   0  0  0  0  0  0  0  0  0  0  0  0
    8.2170   -5.7070   23.2950 C   0  0  0  0  0  0  0  0  0  0  0  0
    9.3040   -5.8800   24.0660 C   0  0  0  0  0  0  0  0  0  0  0  0
    9.7480   -4.7380   24.9100 C   0  0  0  0  0  0  0  0  0  0  0  0
    9.0000   -3.5820   24.8360 C   0  0  0  0  0  0  0  0  0  0  0  0
    7.9190   -3.4600   24.0580 C   0  0  0  0  0  0  0  0  0  0  0  0
    7.5190   -4.4760   23.3010 C   0  0  0  0  0  0  0  0  0  0  0  0
    4.6290   -6.4140   22.1070 C   0  0  0  0  0  0  0  0  0  0  0  0
    5.4630   -5.6150   23.0140 C   0  0  2  0  0  0  0  0  0  0  0  0
    4.8630   -5.2640   24.2400 C   0  0  0  0  0  0  0  0  0  0  0  0
    3.5850   -6.4770   24.3570 S   0  0  0  0  0  0  0  0  0  0  0  0
    3.5250   -6.9330   22.6780 C   0  0  0  0  0  0  0  0  0  0  0  0
  1  5  1  0
  2  7  1  0
  3  7  2  0
  5  7  1  6
  4  9  1  0
 10  6  1  0
 10 11  1  0
  6 12  1  0
 10 13  1  0
  8 14  1  0
 10 16  1  0
 17 18  2  0
 18 19  1  0
 20 18  1  0
  1 23  1  0
 20 24  1  6
 23 24  1  0
 25 26  2  0
 26 27  1  0
 27 28  2  0
  5 29  1  0
 28 29  1  0
 25 30  1  0
 29 30  2  0
  8 31  1  0
 31 32  2  0
  4 33  1  0
 32 33  1  0
 33 34  2  0
 15 35  1  0
 34 35  1  0
  2 36  1  0
 31 36  1  0
 35 36  2  0
 13 38  1  0
 37 38  2  0
 38 39  1  0
 39 40  2  0
 40 41  1  0
  1 42  1  0
 37 42  1  0
 41 42  2  0
 43 44  2  0
 44 45  1  0
 45 46  2  0
 46 47  1  0
 20 48  1  0
 43 48  1  0
 47 48  2  0
 20 50  1  0
 50 49  1  6
 50 51  1  0
 52 21  1  0
 22 52  1  0
 51 52  1  0
 49 53  2  0
 52 53  1  0
M  END
