x1311-x1402
     RDKit          3D

 24 26  0  0  0  0  0  0  0  0999 V2000
    7.9430   -3.8110   20.4140 C   0  0  0  0  0  0  0  0  0  0  0  0
    5.6170   -4.4140   19.9010 O   0  0  0  0  0  0  0  0  0  0  0  0
    0.7540   -1.0300   26.1150 Cl  0  0  0  0  0  0  0  0  0  0  0  0
    6.5840   -4.4470   20.6860 C   0  0  0  0  0  0  0  0  0  0  0  0
    3.8950   -6.6180   26.2180 N   0  0  0  0  0  0  0  0  0  0  0  0
    5.7680   -5.3550   27.0180 O   0  0  0  0  0  0  0  0  0  0  0  0
    4.7760   -5.3880   25.9660 S   0  0  1  0  0  0  0  0  0  0  0  0
    6.4690   -5.0980   21.9000 N   0  0  0  0  0  0  0  0  0  0  0  0
    7.4780   -4.9700   22.9650 C   0  0  0  0  0  0  0  0  0  0  0  0
    6.9750   -5.2550   24.3410 C   0  0  0  0  0  0  0  0  0  0  0  0
    5.5690   -5.6200   24.4720 N   0  0  0  0  0  0  0  0  0  0  0  0
    4.8890   -5.9620   23.3440 C   0  0  0  0  0  0  0  0  0  0  0  0
    5.6760   -6.2410   22.0910 C   0  0  0  0  0  0  0  0  0  0  0  0
    2.1250   -3.7960   25.9640 S   0  0  0  0  0  0  0  0  0  0  0  0
    3.8910   -3.8500   26.0260 C   0  0  0  0  0  0  0  0  0  0  0  0
    4.4720   -2.5730   26.1210 C   0  0  0  0  0  0  0  0  0  0  0  0
    3.4870   -1.5730   26.1490 C   0  0  0  0  0  0  0  0  0  0  0  0
    2.1470   -2.0270   26.0790 C   0  0  0  0  0  0  0  0  0  0  0  0
    8.9030   -4.5960   22.7890 C   0  0  0  0  0  0  0  0  0  0  0  0
    9.7510   -4.5290   23.9110 C   0  0  0  0  0  0  0  0  0  0  0  0
    9.3170   -4.7920   25.2030 C   0  0  0  0  0  0  0  0  0  0  0  0
    7.8600   -5.1730   25.4610 C   0  0  0  0  0  0  0  0  0  0  0  0
    2.3190   -6.1820   24.5210 O   0  0  0  0  0  0  0  0  0  0  0  0
    3.0790   -7.1790   25.1550 C   0  0  0  0  0  0  0  0  0  0  0  0
  1  4  1  0
  2  4  2  0
  5  7  2  0
  6  7  2  0
  4  8  1  0
  8  9  1  0
  9 10  2  0
  7 11  1  0
 10 11  1  0
 11 12  1  0
  8 13  1  0
 12 13  1  0
  7 15  1  6
 14 15  1  0
 15 16  2  0
 16 17  1  0
  3 18  1  0
 14 18  1  0
 17 18  2  0
  9 19  1  0
 19 20  2  0
 20 21  1  0
 10 22  1  0
 21 22  2  0
  5 24  1  0
 23 24  1  0
M  END
