x1311-x2705
     RDKit          3D

 48 52  0  0  0  0  0  0  0  0999 V2000
    7.4980   -1.0650   21.7490 N   0  0  0  0  0  0  0  0  0  0  0  0
    7.5910    2.2850   22.6550 N   0  0  0  0  0  0  0  0  0  0  0  0
    9.0640    1.4360   21.1650 O   0  0  0  0  0  0  0  0  0  0  0  0
    7.0330    0.2330   21.6070 C   0  0  1  0  0  0  0  0  0  0  0  0
    8.0070    1.3330   21.7700 C   0  0  0  0  0  0  0  0  0  0  0  0
   10.3750    2.2630   23.9040 C   0  0  0  0  0  0  0  0  0  0  0  0
    9.5180    1.3630   24.7970 C   0  0  0  0  0  0  0  0  0  0  0  0
    6.2970    4.9810   21.8870 C   0  0  0  0  0  0  0  0  0  0  0  0
   12.2310   -1.3960   23.3960 C   0  0  0  0  0  0  0  0  0  0  0  0
   12.7380   -0.2080   23.9260 C   0  0  0  0  0  0  0  0  0  0  0  0
   12.7310   -2.5670   24.2550 C   0  0  0  0  0  0  0  0  0  0  0  0
   12.8250   -1.4880   22.1020 C   0  0  0  0  0  0  0  0  0  0  0  0
    5.8470   -4.6080   20.0080 O   0  0  0  0  0  0  0  0  0  0  0  0
    6.6980   -4.3960   20.9190 C   0  0  0  0  0  0  0  0  0  0  0  0
    8.1910   -4.1750   20.6700 C   0  0  0  0  0  0  0  0  0  0  0  0
    6.2700   -4.3050   22.4490 C   0  0  2  0  0  0  0  0  0  0  0  0
    4.1210   -7.5290   25.1350 O   0  0  0  0  0  0  0  0  0  0  0  0
    2.0930   -6.1630   24.7330 O   0  0  0  0  0  0  0  0  0  0  0  0
    6.5510   -2.0630   21.4290 C   0  0  0  0  0  0  0  0  0  0  0  0
    5.8600   -2.8730   22.5420 C   0  0  0  0  0  0  0  0  0  0  0  0
    6.3500    0.2030   17.9350 N   0  0  0  0  0  0  0  0  0  0  0  0
    5.0960    0.9440   17.7970 C   0  0  0  0  0  0  0  0  0  0  0  0
    4.4220    1.4720   19.0870 C   0  0  0  0  0  0  0  0  0  0  0  0
    5.1280    1.1910   20.4130 C   0  0  0  0  0  0  0  0  0  0  0  0
    6.3180    0.4880   20.4010 C   0  0  0  0  0  0  0  0  0  0  0  0
    6.8510    0.0350   19.1930 C   0  0  0  0  0  0  0  0  0  0  0  0
    9.8200   -1.4490   24.3360 N   0  0  0  0  0  0  0  0  0  0  0  0
    8.3810   -1.3740   24.0370 N   0  0  0  0  0  0  0  0  0  0  0  0
    8.5360   -1.2290   22.6920 C   0  0  0  0  0  0  0  0  0  0  0  0
    9.8510   -1.2220   22.2240 C   0  0  0  0  0  0  0  0  0  0  0  0
   10.6960   -1.3610   23.3240 C   0  0  0  0  0  0  0  0  0  0  0  0
    9.6400    3.5280   23.5020 C   0  0  0  0  0  0  0  0  0  0  0  0
   10.2140    4.7650   23.6830 C   0  0  0  0  0  0  0  0  0  0  0  0
    9.5810    5.9310   23.3210 C   0  0  0  0  0  0  0  0  0  0  0  0
    8.3120    5.9770   22.7410 C   0  0  0  0  0  0  0  0  0  0  0  0
    7.6520    4.8190   22.5190 C   0  0  0  0  0  0  0  0  0  0  0  0
    8.2470    3.5280   22.8760 C   0  0  0  0  0  0  0  0  0  0  0  0
    8.3310   -5.8380   23.2200 C   0  0  0  0  0  0  0  0  0  0  0  0
    9.3660   -6.0070   24.1080 C   0  0  0  0  0  0  0  0  0  0  0  0
    9.7050   -5.1200   25.1330 C   0  0  0  0  0  0  0  0  0  0  0  0
    9.0230   -3.9370   25.3920 C   0  0  0  0  0  0  0  0  0  0  0  0
    7.8600   -3.6690   24.4680 C   0  0  0  0  0  0  0  0  0  0  0  0
    7.4760   -4.6060   23.3500 C   0  0  0  0  0  0  0  0  0  0  0  0
    4.5980   -6.3520   22.2100 C   0  0  0  0  0  0  0  0  0  0  0  0
    5.3920   -5.4440   23.0780 C   0  0  2  0  0  0  0  0  0  0  0  0
    4.4450   -5.0350   24.2350 C   0  0  0  0  0  0  0  0  0  0  0  0
    3.4530   -6.4910   24.3690 S   0  0  0  0  0  0  0  0  0  0  0  0
    3.5230   -6.9370   22.7760 C   0  0  0  0  0  0  0  0  0  0  0  0
  1  4  1  0
  2  5  1  0
  3  5  2  0
  4  5  1  6
  6  7  1  0
  9 10  1  0
  9 11  1  0
  9 12  1  0
 13 14  2  0
 14 15  1  0
 16 14  1  0
  1 19  1  0
 16 20  1  1
 19 20  1  0
 21 22  2  0
 22 23  1  0
 23 24  2  0
  4 25  1  0
 24 25  1  0
 21 26  1  0
 25 26  2  0
 27 28  1  0
  1 29  1  0
 28 29  2  0
 29 30  1  0
  9 31  1  0
 27 31  1  0
 30 31  2  0
  6 32  1  0
 32 33  2  0
 33 34  1  0
 34 35  2  0
  8 36  1  0
 35 36  1  0
  2 37  1  0
 32 37  1  0
 36 37  2  0
 38 39  2  0
 39 40  1  0
 40 41  2  0
 41 42  1  0
 16 43  1  0
 38 43  1  0
 42 43  2  0
 16 45  1  0
 45 44  1  6
 45 46  1  0
 47 17  1  0
 18 47  1  0
 46 47  1  0
 44 48  2  0
 47 48  1  0
M  END
