x1311-x1374
     RDKit          3D

 18 19  0  0  0  0  0  0  0  0999 V2000
   11.4420   -3.4380   24.6100 C   0  0  0  0  0  0  0  0  0  0  0  0
    6.4070   -4.4220   22.1200 N   0  0  0  0  0  0  0  0  0  0  0  0
    6.2640   -4.4060   20.6770 C   0  0  0  0  0  0  0  0  0  0  0  0
    5.4460   -5.1090   20.0740 O   0  0  0  0  0  0  0  0  0  0  0  0
    7.1800   -3.4520   19.8550 C   0  0  0  0  0  0  0  0  0  0  0  0
    2.6000   -7.5230   22.9180 O   0  0  0  0  0  0  0  0  0  0  0  0
    4.2070   -7.6960   24.9650 O   0  0  0  0  0  0  0  0  0  0  0  0
   10.1100   -3.7850   24.0160 C   0  0  0  0  0  0  0  0  0  0  0  0
    9.4730   -2.7490   23.1620 C   0  0  0  0  0  0  0  0  0  0  0  0
    8.2640   -3.0030   22.5660 C   0  0  0  0  0  0  0  0  0  0  0  0
    7.6400   -4.2160   22.7580 C   0  0  0  0  0  0  0  0  0  0  0  0
    8.2070   -5.2190   23.5690 C   0  0  0  0  0  0  0  0  0  0  0  0
    9.4410   -5.0080   24.2030 C   0  0  0  0  0  0  0  0  0  0  0  0
    4.4770   -4.4740   23.5820 C   0  0  0  0  0  0  0  0  0  0  0  0
    5.5210   -5.1900   22.9970 C   0  0  1  0  0  0  0  0  0  0  0  0
    5.1060   -6.6020   22.6220 C   0  0  0  0  0  0  0  0  0  0  0  0
    3.7480   -6.7990   23.7340 S   0  0  0  0  0  0  0  0  0  0  0  0
    3.4450   -5.1880   24.0600 C   0  0  0  0  0  0  0  0  0  0  0  0
  2  3  1  0
  3  4  2  0
  3  5  1  0
  1  8  1  0
  8  9  2  0
  9 10  1  0
  2 11  1  0
 10 11  2  0
 11 12  1  0
  8 13  1  0
 12 13  2  0
 15  2  1  6
 14 15  1  0
 15 16  1  0
 17  6  1  0
  7 17  1  0
 16 17  1  0
 14 18  2  0
 17 18  1  0
M  END
