x1311-x0395
     RDKit          3D

 28 30  0  0  0  0  0  0  0  0999 V2000
    5.7940   -4.4460   19.9670 O   0  0  0  0  0  0  0  0  0  0  0  0
    6.6970   -4.4530   20.8580 C   0  0  0  0  0  0  0  0  0  0  0  0
    8.1580   -4.0110   20.6450 C   0  0  0  0  0  0  0  0  0  0  0  0
    6.4610   -4.8900   22.1790 N   0  0  0  0  0  0  0  0  0  0  0  0
    4.1050   -7.4190   25.2820 O   0  0  0  0  0  0  0  0  0  0  0  0
    2.5570   -5.4940   24.7060 O   0  0  0  0  0  0  0  0  0  0  0  0
   10.3900   -4.9270   26.0670 C   0  0  0  0  0  0  0  0  0  0  0  0
    8.1720   -6.0640   23.2700 C   0  0  0  0  0  0  0  0  0  0  0  0
    9.1660   -5.9890   24.2890 C   0  0  0  0  0  0  0  0  0  0  0  0
    9.3170   -4.7100   25.0080 C   0  0  0  0  0  0  0  0  0  0  0  0
    8.6810   -3.4630   24.8820 C   0  0  0  0  0  0  0  0  0  0  0  0
    7.7320   -3.7500   23.8270 C   0  0  0  0  0  0  0  0  0  0  0  0
    7.4820   -4.9190   23.0980 C   0  0  0  0  0  0  0  0  0  0  0  0
    4.5730   -6.1580   22.1120 C   0  0  0  0  0  0  0  0  0  0  0  0
    5.1450   -5.1080   22.7630 C   0  0  1  0  0  0  0  0  0  0  0  0
    5.1350   -5.2420   24.1800 C   0  0  0  0  0  0  0  0  0  0  0  0
    3.7200   -6.3020   24.4310 S   0  0  0  0  0  0  0  0  0  0  0  0
    3.6780   -6.8870   22.7970 C   0  0  0  0  0  0  0  0  0  0  0  0
    8.8830   -0.0840   23.9170 C   0  0  0  0  0  0  0  0  0  0  0  0
   13.7050   -1.4480   21.4810 F   0  0  0  0  0  0  0  0  0  0  0  0
   10.3600   -0.3790   23.6360 C   0  0  2  0  0  0  0  0  0  0  0  0
   11.4350    0.7630   23.5250 C   0  0  0  0  0  0  0  0  0  0  0  0
   12.6860    0.2320   22.7830 C   0  0  0  0  0  0  0  0  0  0  0  0
   12.6520   -1.0070   22.1280 C   0  0  0  0  0  0  0  0  0  0  0  0
   11.5150   -1.8130   22.1100 C   0  0  0  0  0  0  0  0  0  0  0  0
   10.3260   -0.9970   22.2970 N   0  0  0  0  0  0  0  0  0  0  0  0
    7.8100   -2.2750   24.4810 C   0  0  0  0  0  0  0  0  0  0  0  0
    8.3150   -1.0710   24.9090 C   0  0  0  0  0  0  0  0  0  0  0  0
  1  2  2  0
  2  3  1  0
  2  4  1  0
  8  9  2  0
  7 10  1  0
  9 10  1  0
 10 11  2  0
 11 12  1  0
  4 13  1  0
  8 13  1  0
 12 13  2  0
 15  4  1  6
 14 15  1  0
 15 16  1  0
 17  5  1  0
  6 17  1  0
 16 17  1  0
 14 18  2  0
 17 18  1  0
 21 19  1  6
 21 22  1  0
 22 23  1  0
 20 24  1  0
 23 24  2  0
 24 25  1  0
 21 26  1  0
 25 26  1  0
 11 27  1  0
 19 28  1  0
 27 28  1  0
M  END
