x1311-x0967
     RDKit          3D

 40 42  0  0  0  0  0  0  0  0999 V2000
    7.8050    5.0830   22.5750 C   0  0  0  0  0  0  0  0  0  0  0  0
    7.2610    2.7000   22.6810 N   0  0  0  0  0  0  0  0  0  0  0  0
    6.1140    4.1000   24.0450 O   0  0  0  0  0  0  0  0  0  0  0  0
    6.9700    3.9160   23.1830 C   0  0  0  0  0  0  0  0  0  0  0  0
    9.5010   -0.5230   23.0460 N   0  0  0  0  0  0  0  0  0  0  0  0
    5.5320    0.7930   17.1060 O   0  0  0  0  0  0  0  0  0  0  0  0
    7.9070    1.5650   23.2500 C   0  0  1  0  0  0  0  0  0  0  0  0
    9.2130    1.1340   21.1800 O   0  0  0  0  0  0  0  0  0  0  0  0
    7.1120    0.3410   22.6670 C   0  0  0  0  0  0  0  0  0  0  0  0
    8.8790    0.6870   22.4850 C   0  0  0  0  0  0  0  0  0  0  0  0
    9.8750   -1.4570   22.0670 C   0  0  1  0  0  0  0  0  0  0  0  0
   11.2580   -1.6060   21.9120 C   0  0  0  0  0  0  0  0  0  0  0  0
   12.1120   -1.8450   22.9750 C   0  0  0  0  0  0  0  0  0  0  0  0
   13.2690   -2.2500   24.4210 Br  0  0  0  0  0  0  0  0  0  0  0  0
    5.7670   -4.4960   19.9800 O   0  0  0  0  0  0  0  0  0  0  0  0
    6.6480   -4.3830   20.8820 C   0  0  0  0  0  0  0  0  0  0  0  0
    8.1920   -4.2430   20.6880 C   0  0  0  0  0  0  0  0  0  0  0  0
    6.3410   -4.3450   22.2860 N   0  0  0  0  0  0  0  0  0  0  0  0
    4.1030   -7.5740   25.2730 O   0  0  0  0  0  0  0  0  0  0  0  0
    2.5080   -5.4940   24.7040 O   0  0  0  0  0  0  0  0  0  0  0  0
    9.0930   -2.5780   22.2730 C   0  0  0  0  0  0  0  0  0  0  0  0
    7.5650   -2.3660   22.0640 C   0  0  0  0  0  0  0  0  0  0  0  0
    6.7160   -3.2610   22.9330 C   0  0  2  0  0  0  0  0  0  0  0  0
    6.6710    0.4790   21.2310 C   0  0  0  0  0  0  0  0  0  0  0  0
    7.2710   -0.4640   20.2200 C   0  0  0  0  0  0  0  0  0  0  0  0
    6.8930   -0.3860   18.7910 C   0  0  0  0  0  0  0  0  0  0  0  0
    5.8800    0.6890   18.3810 C   0  0  0  0  0  0  0  0  0  0  0  0
    5.3320    1.5900   19.5090 C   0  0  0  0  0  0  0  0  0  0  0  0
    5.7300    1.4610   20.8460 C   0  0  0  0  0  0  0  0  0  0  0  0
    8.4740   -5.7920   22.9720 C   0  0  0  0  0  0  0  0  0  0  0  0
    9.3060   -6.1910   24.1010 C   0  0  0  0  0  0  0  0  0  0  0  0
    9.2420   -5.2910   25.2710 C   0  0  0  0  0  0  0  0  0  0  0  0
    8.3570   -4.0620   25.2210 C   0  0  0  0  0  0  0  0  0  0  0  0
    7.5160   -3.5630   24.1800 C   0  0  0  0  0  0  0  0  0  0  0  0
    7.6620   -4.5050   23.1340 C   0  0  0  0  0  0  0  0  0  0  0  0
    4.6570   -6.0550   22.0910 C   0  0  0  0  0  0  0  0  0  0  0  0
    5.2150   -5.0530   22.8200 C   0  0  1  0  0  0  0  0  0  0  0  0
    5.2380   -5.2640   24.2130 C   0  0  0  0  0  0  0  0  0  0  0  0
    3.8120   -6.3220   24.3210 S   0  0  0  0  0  0  0  0  0  0  0  0
    3.7720   -6.8100   22.7600 C   0  0  0  0  0  0  0  0  0  0  0  0
  1  4  1  0
  2  4  1  0
  3  4  2  0
  2  7  1  0
  7  9  1  6
  5 10  1  0
  7 10  1  0
  8 10  2  0
  5 11  1  0
 11 12  1  1
 12 13  3  0
 13 14  1  0
 15 16  2  0
 16 17  1  0
 16 18  1  0
 11 21  1  0
 21 22  1  0
 18 23  1  0
 23 22  1  6
  9 24  1  0
 24 25  2  0
 25 26  1  0
  6 27  1  0
 26 27  2  0
 27 28  1  0
 24 29  1  0
 28 29  2  0
 30 31  2  0
 31 32  1  0
 32 33  2  0
 23 34  1  0
 33 34  1  0
 30 35  1  0
 34 35  2  0
 37 18  1  6
 36 37  1  0
 37 38  1  0
 39 19  1  0
 20 39  1  0
 38 39  1  0
 36 40  2  0
 39 40  1  0
M  END
