x1311-x3117-x2776-x2694
     RDKit          3D

 51 55  0  0  0  0  0  0  0  0999 V2000
    7.2420   -1.2250   21.7260 N   0  0  0  0  0  0  0  0  0  0  0  0
    7.8630    2.1180   22.8370 N   0  0  0  0  0  0  0  0  0  0  0  0
    9.0360    1.3910   21.0260 O   0  0  0  0  0  0  0  0  0  0  0  0
   10.8190    6.7220   23.9340 O   0  0  0  0  0  0  0  0  0  0  0  0
    6.9450    0.2340   21.5290 C   0  0  1  0  0  0  0  0  0  0  0  0
   13.8180   -2.4410   24.2240 O   0  0  0  0  0  0  0  0  0  0  0  0
    8.0730    1.2860   21.7540 C   0  0  0  0  0  0  0  0  0  0  0  0
   10.5570    1.8370   23.8080 C   0  0  0  0  0  0  0  0  0  0  0  0
   11.7770    6.6350   24.7180 C   0  0  0  0  0  0  0  0  0  0  0  0
   12.8920   -1.4540   23.7630 C   0  0  0  0  0  0  0  0  0  0  0  0
   13.3340   -0.3890   22.8040 C   0  0  0  0  0  0  0  0  0  0  0  0
   13.4890   -3.0370   25.4820 C   0  0  0  0  0  0  0  0  0  0  0  0
   11.9610   -2.2760   22.8980 C   0  0  0  0  0  0  0  0  0  0  0  0
   12.2590   -0.7540   24.9680 C   0  0  0  0  0  0  0  0  0  0  0  0
    5.8230   -4.8050   20.0230 O   0  0  0  0  0  0  0  0  0  0  0  0
    6.6580   -4.5610   20.9130 C   0  0  0  0  0  0  0  0  0  0  0  0
    8.1790   -4.2650   20.7410 C   0  0  0  0  0  0  0  0  0  0  0  0
    6.2490   -4.4400   22.4090 C   0  0  2  0  0  0  0  0  0  0  0  0
    4.0740   -7.7370   25.1860 O   0  0  0  0  0  0  0  0  0  0  0  0
    2.1150   -5.9740   24.7910 O   0  0  0  0  0  0  0  0  0  0  0  0
    6.1180   -1.7100   22.6110 C   0  0  0  0  0  0  0  0  0  0  0  0
    5.4540   -3.0950   22.3610 C   0  0  0  0  0  0  0  0  0  0  0  0
    6.3420    0.4390   17.7880 N   0  0  0  0  0  0  0  0  0  0  0  0
    5.2390    1.2460   17.7180 C   0  0  0  0  0  0  0  0  0  0  0  0
    4.5730    1.7860   18.9570 C   0  0  0  0  0  0  0  0  0  0  0  0
    5.1970    1.3990   20.2720 C   0  0  0  0  0  0  0  0  0  0  0  0
    6.3140    0.5900   20.2210 C   0  0  0  0  0  0  0  0  0  0  0  0
    6.8320    0.1410   19.0030 C   0  0  0  0  0  0  0  0  0  0  0  0
    9.8960    3.1750   23.5700 C   0  0  0  0  0  0  0  0  0  0  0  0
   10.6460    4.2910   23.8430 C   0  0  0  0  0  0  0  0  0  0  0  0
   10.1450    5.5590   23.6720 C   0  0  0  0  0  0  0  0  0  0  0  0
    8.8350    5.7070   23.1920 C   0  0  0  0  0  0  0  0  0  0  0  0
    8.0470    4.5670   22.9000 C   0  0  0  0  0  0  0  0  0  0  0  0
    8.5850    3.2790   23.0970 C   0  0  0  0  0  0  0  0  0  0  0  0
    9.5530   -1.7830   22.1880 C   0  0  0  0  0  0  0  0  0  0  0  0
   10.6090   -1.7900   23.0860 C   0  0  0  0  0  0  0  0  0  0  0  0
   10.3550   -1.2490   24.3650 C   0  0  0  0  0  0  0  0  0  0  0  0
    9.1520   -0.7240   24.7650 C   0  0  0  0  0  0  0  0  0  0  0  0
    8.1440   -0.7410   23.8450 C   0  0  0  0  0  0  0  0  0  0  0  0
    8.3370   -1.2580   22.5860 C   0  0  0  0  0  0  0  0  0  0  0  0
    8.2750   -5.6700   23.3080 C   0  0  0  0  0  0  0  0  0  0  0  0
    9.4160   -5.7640   24.0880 C   0  0  0  0  0  0  0  0  0  0  0  0
    9.8720   -4.6910   24.8340 C   0  0  0  0  0  0  0  0  0  0  0  0
    9.2570   -3.4740   24.8750 C   0  0  0  0  0  0  0  0  0  0  0  0
    8.0040   -3.3060   24.0620 C   0  0  0  0  0  0  0  0  0  0  0  0
    7.5120   -4.4800   23.2440 C   0  0  0  0  0  0  0  0  0  0  0  0
    4.6750   -6.3190   22.1140 C   0  0  0  0  0  0  0  0  0  0  0  0
    5.4990   -5.5890   23.0890 C   0  0  2  0  0  0  0  0  0  0  0  0
    4.6990   -5.2210   24.3200 C   0  0  0  0  0  0  0  0  0  0  0  0
    3.5230   -6.5290   24.2900 S   0  0  0  0  0  0  0  0  0  0  0  0
    3.5530   -6.8680   22.6660 C   0  0  0  0  0  0  0  0  0  0  0  0
  1  5  1  0
  2  7  1  0
  3  7  2  0
  5  7  1  6
  4  9  1  0
 10  6  1  0
 10 11  1  0
  6 12  1  0
 10 13  1  0
 10 14  1  0
 15 16  2  0
 16 17  1  0
 18 16  1  0
  1 21  1  0
 18 22  1  6
 21 22  1  0
 23 24  2  0
 24 25  1  0
 25 26  2  0
  5 27  1  0
 26 27  1  0
 23 28  1  0
 27 28  2  0
  8 29  1  0
 29 30  2  0
  4 31  1  0
 30 31  1  0
 31 32  2  0
 32 33  1  0
  2 34  1  0
 29 34  1  0
 33 34  2  0
 13 36  1  0
 35 36  2  0
 36 37  1  0
 37 38  2  0
 38 39  1  0
  1 40  1  0
 35 40  1  0
 39 40  2  0
 41 42  2  0
 42 43  1  0
 43 44  2  0
 44 45  1  0
 18 46  1  0
 41 46  1  0
 45 46  2  0
 18 48  1  0
 48 47  1  6
 48 49  1  0
 50 19  1  0
 20 50  1  0
 49 50  1  0
 47 51  2  0
 50 51  1  0
M  END
