x1311-x2912
     RDKit          3D

 40 43  0  0  0  0  0  0  0  0999 V2000
    7.0770   -0.5550   21.1220 N   0  0  0  0  0  0  0  0  0  0  0  0
    7.8980   -0.5400   24.1430 C   0  0  0  0  0  0  0  0  0  0  0  0
    8.7540    1.0570   21.5320 O   0  0  0  0  0  0  0  0  0  0  0  0
    8.5810   -0.7720   22.8230 C   0  0  1  0  0  0  0  0  0  0  0  0
    8.2060    0.0020   21.8270 C   0  0  0  0  0  0  0  0  0  0  0  0
   13.7980   -2.1450   20.6250 N   0  0  0  0  0  0  0  0  0  0  0  0
    4.7360    1.4090   21.6970 C   0  0  0  0  0  0  0  0  0  0  0  0
   13.1480   -1.4990   21.5280 C   0  0  0  0  0  0  0  0  0  0  0  0
    5.7490   -4.7790   20.0580 O   0  0  0  0  0  0  0  0  0  0  0  0
    6.5890   -4.5880   20.9890 C   0  0  0  0  0  0  0  0  0  0  0  0
    8.1050   -4.4920   20.7310 C   0  0  0  0  0  0  0  0  0  0  0  0
    6.2180   -4.3870   22.5190 C   0  0  2  0  0  0  0  0  0  0  0  0
    3.9060   -7.6080   25.2290 O   0  0  0  0  0  0  0  0  0  0  0  0
    2.2160   -5.7970   24.6180 O   0  0  0  0  0  0  0  0  0  0  0  0
    6.8480   -1.8900   20.9320 C   0  0  0  0  0  0  0  0  0  0  0  0
    5.7040   -2.3900   21.5050 C   0  0  0  0  0  0  0  0  0  0  0  0
    5.9840   -3.0460   22.6850 C   0  0  0  0  0  0  0  0  0  0  0  0
    6.2460    0.7130   17.5790 N   0  0  0  0  0  0  0  0  0  0  0  0
    5.1380    1.6450   17.8340 C   0  0  0  0  0  0  0  0  0  0  0  0
    4.6910    1.8340   19.1530 C   0  0  0  0  0  0  0  0  0  0  0  0
    5.2540    1.1580   20.3970 C   0  0  0  0  0  0  0  0  0  0  0  0
    6.3980    0.2050   20.1270 C   0  0  0  0  0  0  0  0  0  0  0  0
    6.9190   -0.0390   18.7010 C   0  0  0  0  0  0  0  0  0  0  0  0
   10.4120    0.5750   23.9120 C   0  0  0  0  0  0  0  0  0  0  0  0
   11.7670    0.8320   23.9730 C   0  0  0  0  0  0  0  0  0  0  0  0
   12.7420    0.1990   23.2350 C   0  0  0  0  0  0  0  0  0  0  0  0
   12.2930   -0.7610   22.3770 C   0  0  0  0  0  0  0  0  0  0  0  0
   10.9660   -1.0590   22.2710 C   0  0  0  0  0  0  0  0  0  0  0  0
   10.0230   -0.4150   23.0110 C   0  0  0  0  0  0  0  0  0  0  0  0
    8.4450   -5.7960   23.0380 C   0  0  0  0  0  0  0  0  0  0  0  0
    9.4270   -5.9900   23.9560 C   0  0  0  0  0  0  0  0  0  0  0  0
    9.4990   -5.2960   25.1240 C   0  0  0  0  0  0  0  0  0  0  0  0
    8.5690   -4.3300   25.4580 C   0  0  0  0  0  0  0  0  0  0  0  0
    7.5590   -4.0420   24.6470 C   0  0  0  0  0  0  0  0  0  0  0  0
    7.4040   -4.7420   23.3820 C   0  0  0  0  0  0  0  0  0  0  0  0
    4.4740   -6.1590   22.2450 C   0  0  0  0  0  0  0  0  0  0  0  0
    4.9410   -5.1430   22.9920 C   0  0  1  0  0  0  0  0  0  0  0  0
    4.8100   -5.3020   24.3700 C   0  0  0  0  0  0  0  0  0  0  0  0
    3.4870   -6.4670   24.4310 S   0  0  0  0  0  0  0  0  0  0  0  0
    3.5700   -6.9500   22.8670 C   0  0  0  0  0  0  0  0  0  0  0  0
  4  2  1  1
  1  5  1  0
  3  5  2  0
  4  5  1  0
  6  8  3  0
  9 10  2  0
 10 11  1  0
 12 10  1  0
  1 15  1  0
 15 16  1  0
 12 17  1  6
 16 17  1  0
 18 19  2  0
 19 20  1  0
  7 21  1  0
 20 21  2  0
  1 22  1  0
 21 22  1  0
 18 23  1  0
 22 23  2  0
 24 25  2  0
 25 26  1  0
  8 27  1  0
 26 27  2  0
 27 28  1  0
  4 29  1  0
 24 29  1  0
 28 29  2  0
 30 31  2  0
 31 32  1  0
 32 33  2  0
 33 34  1  0
 12 35  1  0
 30 35  1  0
 34 35  2  0
 12 37  1  0
 37 36  1  6
 37 38  1  0
 39 13  1  0
 14 39  1  0
 38 39  1  0
 36 40  2  0
 39 40  1  0
M  END
