x1311-x0771
     RDKit          3D

 24 26  0  0  0  0  0  0  0  0999 V2000
    0.7010   -1.3270   26.2120 C   0  0  0  0  0  0  0  0  0  0  0  0
    4.1450   -7.1240   25.8220 O   0  0  0  0  0  0  0  0  0  0  0  0
    5.8150   -5.5240   26.7650 O   0  0  0  0  0  0  0  0  0  0  0  0
    5.3720   -4.1720   19.7390 O   0  0  0  0  0  0  0  0  0  0  0  0
    2.0630   -6.1350   25.0380 C   0  0  0  0  0  0  0  0  0  0  0  0
    6.3380   -4.1030   20.4890 C   0  0  0  0  0  0  0  0  0  0  0  0
    7.6250   -3.3730   20.0810 C   0  0  0  0  0  0  0  0  0  0  0  0
    4.8240   -5.8560   25.7660 S   0  0  0  0  0  0  0  0  0  0  0  0
    1.7140   -2.4210   26.0860 C   0  0  0  0  0  0  0  0  0  0  0  0
    1.3260   -3.7860   25.5820 C   0  0  0  0  0  0  0  0  0  0  0  0
    2.2940   -4.7900   25.4950 C   0  0  0  0  0  0  0  0  0  0  0  0
    3.6300   -4.5270   25.8770 C   0  0  0  0  0  0  0  0  0  0  0  0
    3.9850   -3.2470   26.3340 C   0  0  0  0  0  0  0  0  0  0  0  0
    3.0420   -2.2050   26.4380 C   0  0  0  0  0  0  0  0  0  0  0  0
    6.2480   -4.6680   21.7650 N   0  0  0  0  0  0  0  0  0  0  0  0
    5.6360   -5.9860   21.8810 C   0  0  0  0  0  0  0  0  0  0  0  0
    4.8140   -6.0610   23.0170 C   0  0  0  0  0  0  0  0  0  0  0  0
    5.5670   -5.7810   24.2680 N   0  0  0  0  0  0  0  0  0  0  0  0
    6.8570   -5.1000   24.2040 C   0  0  0  0  0  0  0  0  0  0  0  0
    7.1820   -4.4920   22.8520 C   0  0  0  0  0  0  0  0  0  0  0  0
    8.4690   -3.7350   22.6690 C   0  0  0  0  0  0  0  0  0  0  0  0
    9.3860   -3.6710   23.9050 C   0  0  0  0  0  0  0  0  0  0  0  0
    8.9390   -4.3600   25.2060 C   0  0  0  0  0  0  0  0  0  0  0  0
    7.7330   -5.0130   25.2960 C   0  0  0  0  0  0  0  0  0  0  0  0
  4  6  2  0
  6  7  1  0
  2  8  2  0
  3  8  2  0
  1  9  1  0
  9 10  2  0
  5 11  1  0
 10 11  1  0
  8 12  1  0
 11 12  2  0
 12 13  1  0
  9 14  1  0
 13 14  2  0
  6 15  1  0
 15 16  1  0
 16 17  1  0
  8 18  1  0
 17 18  1  0
 18 19  1  0
 15 20  1  0
 19 20  2  0
 20 21  1  0
 21 22  2  0
 22 23  1  0
 19 24  1  0
 23 24  2  0
M  END
