x1311-x3113-x0540
     RDKit          3D

 57 61  0  0  0  0  0  0  0  0999 V2000
    7.3790   -1.4720   22.0300 N   0  0  0  0  0  0  0  0  0  0  0  0
    8.3940    1.3110   23.2340 N   0  0  0  0  0  0  0  0  0  0  0  0
    8.8460    1.4490   21.0270 O   0  0  0  0  0  0  0  0  0  0  0  0
   11.7550    4.1300   23.3700 O   0  0  0  0  0  0  0  0  0  0  0  0
    7.0740   -0.1050   21.6820 C   0  0  1  0  0  0  0  0  0  0  0  0
    8.1580    0.8950   21.9060 C   0  0  0  0  0  0  0  0  0  0  0  0
    9.3370    2.3570   23.5000 C   0  0  0  0  0  0  0  0  0  0  0  0
   10.7480    1.8950   23.4930 C   0  0  0  0  0  0  0  0  0  0  0  0
   11.8100    2.8000   23.0020 C   0  0  0  0  0  0  0  0  0  0  0  0
   12.9320    4.7330   22.8900 C   0  0  0  0  0  0  0  0  0  0  0  0
   12.5480   -1.9040   24.3270 C   0  0  0  0  0  0  0  0  0  0  0  0
   13.5130   -1.9930   23.2030 C   0  0  0  0  0  0  0  0  0  0  0  0
   12.8660   -3.0520   25.2430 C   0  0  0  0  0  0  0  0  0  0  0  0
   12.6820   -0.6470   25.0820 C   0  0  0  0  0  0  0  0  0  0  0  0
    2.6280    1.6000   24.3170 O   0  0  0  0  0  0  0  0  0  0  0  0
    2.8320    2.4590   23.4710 C   0  0  0  0  0  0  0  0  0  0  0  0
    4.0900    2.8260   23.0400 N   0  0  0  0  0  0  0  0  0  0  0  0
    4.8930    1.8950   22.4850 C   0  0  0  0  0  0  0  0  0  0  0  0
    4.2950    0.9250   21.5560 C   0  0  0  0  0  0  0  0  0  0  0  0
    1.8770    3.1930   22.8070 N   0  0  0  0  0  0  0  0  0  0  0  0
    5.8500   -4.7470   20.0270 O   0  0  0  0  0  0  0  0  0  0  0  0
    6.7110   -4.4970   20.9130 C   0  0  0  0  0  0  0  0  0  0  0  0
    8.1730   -4.1610   20.6160 C   0  0  0  0  0  0  0  0  0  0  0  0
    6.3440   -4.4380   22.4330 C   0  0  2  0  0  0  0  0  0  0  0  0
    4.2440   -7.6960   25.0660 O   0  0  0  0  0  0  0  0  0  0  0  0
    2.4720   -5.9450   24.9050 O   0  0  0  0  0  0  0  0  0  0  0  0
    6.4520   -1.9630   23.0630 C   0  0  0  0  0  0  0  0  0  0  0  0
    5.6850   -3.0700   22.7050 C   0  0  0  0  0  0  0  0  0  0  0  0
    6.4120    0.2340   17.9970 N   0  0  0  0  0  0  0  0  0  0  0  0
    5.1500    0.7660   17.9340 C   0  0  0  0  0  0  0  0  0  0  0  0
    4.4600    0.9870   19.1250 C   0  0  0  0  0  0  0  0  0  0  0  0
    5.1000    0.6740   20.3120 C   0  0  0  0  0  0  0  0  0  0  0  0
    6.3710    0.1730   20.3550 C   0  0  0  0  0  0  0  0  0  0  0  0
    6.9600   -0.0390   19.1830 C   0  0  0  0  0  0  0  0  0  0  0  0
    9.7310   -2.0540   21.8770 C   0  0  0  0  0  0  0  0  0  0  0  0
   10.9520   -2.1530   22.4330 C   0  0  0  0  0  0  0  0  0  0  0  0
   11.1880   -1.8210   23.7400 C   0  0  0  0  0  0  0  0  0  0  0  0
   10.0830   -1.3930   24.4170 C   0  0  0  0  0  0  0  0  0  0  0  0
    8.8270   -1.2770   23.8750 C   0  0  0  0  0  0  0  0  0  0  0  0
    8.6480   -1.6080   22.5750 C   0  0  0  0  0  0  0  0  0  0  0  0
    0.6690    4.4270   24.6990 C   0  0  0  0  0  0  0  0  0  0  0  0
   -0.5450    4.8770   25.1190 C   0  0  0  0  0  0  0  0  0  0  0  0
   -1.6590    4.4240   24.3790 C   0  0  0  0  0  0  0  0  0  0  0  0
   -1.6470    3.1500   23.8150 C   0  0  0  0  0  0  0  0  0  0  0  0
   -0.4160    2.7300   23.3210 C   0  0  0  0  0  0  0  0  0  0  0  0
    0.6040    3.6810   23.3500 C   0  0  0  0  0  0  0  0  0  0  0  0
    8.3480   -5.7640   23.2560 C   0  0  0  0  0  0  0  0  0  0  0  0
    9.4100   -5.8820   24.0920 C   0  0  0  0  0  0  0  0  0  0  0  0
    9.7920   -4.9510   24.9990 C   0  0  0  0  0  0  0  0  0  0  0  0
    9.0080   -3.8070   25.0420 C   0  0  0  0  0  0  0  0  0  0  0  0
    7.9480   -3.6440   24.2480 C   0  0  0  0  0  0  0  0  0  0  0  0
    7.5740   -4.6130   23.3210 C   0  0  0  0  0  0  0  0  0  0  0  0
    4.6680   -6.2810   22.1540 C   0  0  0  0  0  0  0  0  0  0  0  0
    5.4900   -5.6400   23.0130 C   0  0  2  0  0  0  0  0  0  0  0  0
    4.9380   -5.3490   24.2640 C   0  0  0  0  0  0  0  0  0  0  0  0
    3.6600   -6.5730   24.3660 S   0  0  0  0  0  0  0  0  0  0  0  0
    3.5790   -6.8490   22.7330 C   0  0  0  0  0  0  0  0  0  0  0  0
  1  5  1  0
  2  6  1  0
  3  6  2  0
  5  6  1  6
  2  7  1  0
  7  8  1  0
  4  9  1  0
  8  9  1  0
  4 10  1  0
 11 12  1  0
 11 13  1  0
 11 14  1  0
 15 16  2  0
 16 17  1  0
 17 18  1  0
 18 19  1  0
 16 20  1  0
 21 22  2  0
 22 23  1  0
 24 22  1  0
  1 27  1  0
 24 28  1  6
 27 28  1  0
 29 30  2  0
 30 31  1  0
 19 32  1  0
 31 32  2  0
  5 33  1  0
 32 33  1  0
 29 34  1  0
 33 34  2  0
 35 36  2  0
 11 37  1  0
 36 37  1  0
 37 38  2  0
 38 39  1  0
  1 40  1  0
 35 40  1  0
 39 40  2  0
 41 42  1  0
 42 43  1  0
 43 44  1  0
 44 45  1  0
 20 46  1  0
 41 46  1  0
 45 46  1  0
 47 48  2  0
 48 49  1  0
 49 50  2  0
 50 51  1  0
 24 52  1  0
 47 52  1  0
 51 52  2  0
 24 54  1  0
 54 53  1  6
 54 55  1  0
 56 25  1  0
 26 56  1  0
 55 56  1  0
 53 57  2  0
 56 57  1  0
M  END
