x1311-x1493
     RDKit          3D

 19 20  0  0  0  0  0  0  0  0999 V2000
    5.6490   -4.5080   19.9700 O   0  0  0  0  0  0  0  0  0  0  0  0
    6.4960   -4.4250   20.8940 C   0  0  0  0  0  0  0  0  0  0  0  0
    8.0430   -4.2860   20.7430 C   0  0  0  0  0  0  0  0  0  0  0  0
    6.1890   -4.4360   22.2640 N   0  0  0  0  0  0  0  0  0  0  0  0
    4.2620   -6.7110   25.3810 O   0  0  0  0  0  0  0  0  0  0  0  0
    2.1080   -5.7110   24.5360 O   0  0  0  0  0  0  0  0  0  0  0  0
    6.1920   -5.7250   26.7120 O   0  0  0  0  0  0  0  0  0  0  0  0
    5.3310   -6.0700   25.9270 C   0  0  0  0  0  0  0  0  0  0  0  0
    8.0260   -5.6670   23.1060 C   0  0  0  0  0  0  0  0  0  0  0  0
    9.3450   -5.7040   23.7270 C   0  0  0  0  0  0  0  0  0  0  0  0
    9.9520   -4.3760   24.0550 C   0  0  0  0  0  0  0  0  0  0  0  0
    9.2640   -3.2010   23.8000 C   0  0  0  0  0  0  0  0  0  0  0  0
    7.9980   -3.2230   23.2130 C   0  0  0  0  0  0  0  0  0  0  0  0
    7.4180   -4.4350   22.8730 C   0  0  0  0  0  0  0  0  0  0  0  0
    4.7300   -6.3440   22.1690 C   0  0  0  0  0  0  0  0  0  0  0  0
    5.3190   -5.3820   22.9590 C   0  0  2  0  0  0  0  0  0  0  0  0
    4.3870   -4.6940   23.7780 C   0  0  0  0  0  0  0  0  0  0  0  0
    3.4770   -6.1060   24.3320 S   0  0  1  0  0  0  0  0  0  0  0  0
    3.6580   -6.8760   22.7680 C   0  0  0  0  0  0  0  0  0  0  0  0
  1  2  2  0
  2  3  1  0
  2  4  1  0
  5  8  1  0
  7  8  2  0
  9 10  2  0
 10 11  1  0
 11 12  2  0
 12 13  1  0
  4 14  1  0
  9 14  1  0
 13 14  2  0
 16  4  1  6
 15 16  1  0
 16 17  1  0
 18  5  1  0
 18  6  1  1
 17 18  1  0
 15 19  2  0
 18 19  1  0
M  END
