x1311-x0755-x2776-x2705-x1077
     RDKit          3D

 70 78  0  0  0  0  0  0  0  0999 V2000
    7.7030   -0.8740   21.1010 N   0  0  0  0  0  0  0  0  0  0  0  0
    7.6430    2.2310   22.8210 N   0  0  0  0  0  0  0  0  0  0  0  0
    9.1890    1.5390   21.0900 O   0  0  0  0  0  0  0  0  0  0  0  0
   10.8210    6.8180   23.7890 O   0  0  0  0  0  0  0  0  0  0  0  0
    6.9620    0.3820   21.4190 C   0  0  1  0  0  0  0  0  0  0  0  0
   13.8340   -2.5750   24.1970 O   0  0  0  0  0  0  0  0  0  0  0  0
    7.9930    1.4170   21.7840 C   0  0  0  0  0  0  0  0  0  0  0  0
   10.3230    1.7990   23.8690 C   0  0  0  0  0  0  0  0  0  0  0  0
   11.8500    6.7430   24.7730 C   0  0  0  0  0  0  0  0  0  0  0  0
   12.7260   -1.7580   23.8300 C   0  0  1  0  0  0  0  0  0  0  0  0
   12.8100   -0.4330   24.5600 C   0  0  0  0  0  0  0  0  0  0  0  0
   13.7050   -3.0900   25.5200 C   0  0  0  0  0  0  0  0  0  0  0  0
   12.3490   -1.5110   22.3550 C   0  0  0  0  0  0  0  0  0  0  0  0
    9.3970    1.0290   24.7990 C   0  0  0  0  0  0  0  0  0  0  0  0
    6.5630    4.7740   22.2080 C   0  0  0  0  0  0  0  0  0  0  0  0
    6.2680    0.6720   17.6420 N   0  0  0  0  0  0  0  0  0  0  0  0
    5.1840    1.4580   17.6560 C   0  0  0  0  0  0  0  0  0  0  0  0
    4.4790    2.0080   18.8990 C   0  0  0  0  0  0  0  0  0  0  0  0
    5.0560    1.6510   20.2000 C   0  0  0  0  0  0  0  0  0  0  0  0
    6.2800    0.7820   20.1750 C   0  0  0  0  0  0  0  0  0  0  0  0
    6.7930    0.3450   18.8240 C   0  0  0  0  0  0  0  0  0  0  0  0
    9.7570    3.1720   23.5710 C   0  0  0  0  0  0  0  0  0  0  0  0
   10.6080    4.2430   23.8360 C   0  0  0  0  0  0  0  0  0  0  0  0
   10.1310    5.6610   23.5750 C   0  0  0  0  0  0  0  0  0  0  0  0
    8.7130    5.7460   23.0070 C   0  0  0  0  0  0  0  0  0  0  0  0
    7.9540    4.6060   22.7770 C   0  0  0  0  0  0  0  0  0  0  0  0
    8.4640    3.3440   23.0620 C   0  0  0  0  0  0  0  0  0  0  0  0
    9.9160   -1.1840   21.7310 C   0  0  0  0  0  0  0  0  0  0  0  0
   10.8880   -1.5270   22.6200 C   0  0  0  0  0  0  0  0  0  0  0  0
   10.7340   -1.9520   23.9360 C   0  0  0  0  0  0  0  0  0  0  0  0
    9.3400   -1.9390   24.1160 C   0  0  0  0  0  0  0  0  0  0  0  0
    8.3430   -1.6030   23.2330 C   0  0  0  0  0  0  0  0  0  0  0  0
    8.6530   -1.2160   22.0040 C   0  0  0  0  0  0  0  0  0  0  0  0
    6.0840   -4.9420   20.0040 O   0  0  0  0  0  0  0  0  0  0  0  0
    6.8790   -4.6720   20.9060 C   0  0  0  0  0  0  0  0  0  0  0  0
    8.3680   -4.4030   20.7540 C   0  0  0  0  0  0  0  0  0  0  0  0
    4.2810   -7.8060   24.9180 O   0  0  0  0  0  0  0  0  0  0  0  0
    2.2690   -7.0450   23.2480 O   0  0  0  0  0  0  0  0  0  0  0  0
    4.2300   -6.1160   26.7190 O   0  0  0  0  0  0  0  0  0  0  0  0
    6.2980   -4.3790   26.5720 N   0  0  0  0  0  0  0  0  0  0  0  0
    4.7450   -3.3600   20.6300 O   0  0  0  0  0  0  0  0  0  0  0  0
    5.7690   -3.3020   21.2890 C   0  0  0  0  0  0  0  0  0  0  0  0
    6.6280   -2.2370   21.1020 C   0  0  0  0  0  0  0  0  0  0  0  0
    1.7130   -5.1960   26.0980 F   0  0  0  0  0  0  0  0  0  0  0  0
    5.3420   -1.7370   26.5070 F   0  0  0  0  0  0  0  0  0  0  0  0
    4.8480   -4.8420   26.4400 S   0  0  2  0  0  0  0  0  0  0  0  0
    7.2270   -5.0850   25.8620 N   0  0  0  0  0  0  0  0  0  0  0  0
    7.7200   -4.7160   24.4480 C   0  0  1  0  0  0  0  0  0  0  0  0
    8.5560   -5.6000   23.7930 C   0  0  0  0  0  0  0  0  0  0  0  0
    9.6780   -5.6080   24.5760 C   0  0  0  0  0  0  0  0  0  0  0  0
    9.6640   -4.5540   25.5690 N   0  0  0  0  0  0  0  0  0  0  0  0
    9.3600   -4.9990   26.9120 C   0  0  0  0  0  0  0  0  0  0  0  0
    8.1280   -5.5700   26.8090 C   0  0  0  0  0  0  0  0  0  0  0  0
    4.8210   -5.2590   22.3800 C   0  0  1  0  0  0  0  0  0  0  0  0
    3.7860   -4.6360   22.8890 C   0  0  0  0  0  0  0  0  0  0  0  0
    4.1860   -5.2840   23.9020 C   0  0  1  0  0  0  0  0  0  0  0  0
    3.7760   -6.9090   23.7170 S   0  0  0  0  0  0  0  0  0  0  0  0
    4.9340   -6.7290   22.4310 C   0  0  0  0  0  0  0  0  0  0  0  0
    2.1760   -3.9380   26.1580 C   0  0  0  0  0  0  0  0  0  0  0  0
    3.6640   -3.6060   26.3300 C   0  0  0  0  0  0  0  0  0  0  0  0
    4.0690   -2.1330   26.3720 C   0  0  0  0  0  0  0  0  0  0  0  0
    3.0700   -1.1780   26.2620 C   0  0  0  0  0  0  0  0  0  0  0  0
    1.7190   -1.5420   26.1120 C   0  0  0  0  0  0  0  0  0  0  0  0
    1.2830   -2.8820   26.0600 C   0  0  0  0  0  0  0  0  0  0  0  0
    6.1110   -4.4830   22.1890 C   0  0  0  0  0  0  0  0  0  0  0  0
    6.5360   -4.2430   23.4910 C   0  0  1  0  0  0  0  0  0  0  0  0
    5.7070   -3.6310   24.2960 C   0  0  0  0  0  0  0  0  0  0  0  0
    5.1060   -4.8220   24.8270 N   0  0  0  0  0  0  0  0  0  0  0  0
   10.3650   -2.3710   25.2690 C   0  0  0  0  0  0  0  0  0  0  0  0
   10.7710   -3.6530   25.5030 C   0  0  0  0  0  0  0  0  0  0  0  0
  5  1  1  6
  2  7  1  0
  3  7  2  0
  5  7  1  0
  4  9  1  0
  6 10  1  0
 10 11  1  6
  6 12  1  0
 10 13  1  0
  8 14  1  0
 16 17  2  0
 17 18  1  0
 18 19  2  0
  5 20  1  0
 19 20  1  0
 16 21  1  0
 20 21  2  0
  8 22  1  0
 22 23  2  0
  4 24  1  0
 23 24  1  0
 24 25  2  0
 15 26  1  0
 25 26  1  0
  2 27  1  0
 22 27  1  0
 26 27  2  0
 13 29  1  0
 28 29  2  0
 29 30  1  0
 30 31  2  0
 31 32  1  0
  1 33  1  0
 28 33  1  0
 32 33  2  0
 34 35  2  0
 35 36  1  0
 41 42  2  0
 42 43  1  0
 39 46  2  0
 40 46  2  0
 40 47  1  0
 47 48  1  0
 48 49  1  6
 49 50  1  0
 50 51  1  0
 51 52  1  0
 47 53  1  0
 52 53  1  0
 54 55  1  6
 54 56  1  0
 56 55  1  6
 57 37  1  0
 38 57  1  0
 56 57  1  0
 54 58  1  0
 57 58  1  0
 44 59  1  0
 46 60  1  6
 59 60  2  0
 45 61  1  0
 60 61  1  0
 61 62  2  0
 62 63  1  0
 59 64  1  0
 63 64  2  0
 65 35  1  0
 42 65  1  0
 54 65  1  0
 48 66  1  0
 66 65  1  1
 66 67  1  0
 46 68  1  0
 56 68  1  0
 67 68  1  0
 30 69  1  0
 51 70  1  0
 69 70  1  0
M  END
