x1311-x0978-x0755-x3110-x1077
     RDKit          3D

 71 79  0  0  0  0  0  0  0  0999 V2000
    6.2230   -4.4820   19.8760 O   0  0  0  0  0  0  0  0  0  0  0  0
    6.9530   -4.5640   20.8790 C   0  0  0  0  0  0  0  0  0  0  0  0
    8.4120   -4.3160   20.7340 C   0  0  0  0  0  0  0  0  0  0  0  0
    5.0340   -7.2520   26.5740 O   0  0  0  0  0  0  0  0  0  0  0  0
    1.4420   -5.5600   23.1980 N   0  0  0  0  0  0  0  0  0  0  0  0
    2.3330   -8.3920   23.3190 C   0  0  0  0  0  0  0  0  0  0  0  0
    3.4220   -7.1910   25.8480 O   0  0  0  0  0  0  0  0  0  0  0  0
    0.7180   -7.3210   21.7580 O   0  0  0  0  0  0  0  0  0  0  0  0
    2.7980   -5.7590   23.4150 C   0  0  2  0  0  0  0  0  0  0  0  0
    0.5000   -6.2050   22.3160 C   0  0  0  0  0  0  0  0  0  0  0  0
   -0.8120   -5.5500   22.0330 C   0  0  0  0  0  0  0  0  0  0  0  0
    4.5950   -6.0340   27.0090 N   0  0  0  0  0  0  0  0  0  0  0  0
    6.4440   -4.4570   26.5050 N   0  0  0  0  0  0  0  0  0  0  0  0
    4.8620   -4.4100   20.3660 O   0  0  0  0  0  0  0  0  0  0  0  0
    5.5590   -3.8830   21.1760 C   0  0  0  0  0  0  0  0  0  0  0  0
    5.7980   -2.4390   21.0460 C   0  0  0  0  0  0  0  0  0  0  0  0
    1.9930   -5.0960   26.3850 F   0  0  0  0  0  0  0  0  0  0  0  0
    5.4130   -1.5760   26.1170 F   0  0  0  0  0  0  0  0  0  0  0  0
    4.9750   -4.7380   26.1250 S   0  0  2  0  0  0  0  0  0  0  0  0
    7.3680   -4.9070   25.5670 N   0  0  0  0  0  0  0  0  0  0  0  0
    7.6660   -4.5660   24.1970 C   0  0  1  0  0  0  0  0  0  0  0  0
    8.7900   -5.4070   23.6750 C   0  0  0  0  0  0  0  0  0  0  0  0
    9.9440   -4.7960   24.3400 C   0  0  0  0  0  0  0  0  0  0  0  0
    9.5700   -3.8780   25.3990 N   0  0  0  0  0  0  0  0  0  0  0  0
    9.4310   -4.5370   26.6200 C   0  0  0  0  0  0  0  0  0  0  0  0
    8.2940   -5.4920   26.5460 C   0  0  0  0  0  0  0  0  0  0  0  0
    5.0490   -5.7520   22.2460 C   0  0  1  0  0  0  0  0  0  0  0  0
    3.9000   -5.0070   22.7910 C   0  0  2  0  0  0  0  0  0  0  0  0
    4.5270   -5.7800   23.8190 C   0  0  1  0  0  0  0  0  0  0  0  0
    3.6260   -7.2090   23.7370 S   0  0  0  0  0  0  0  0  0  0  0  0
    5.3820   -7.0310   23.0460 C   0  0  0  0  0  0  0  0  0  0  0  0
    2.4420   -3.7840   26.3440 C   0  0  0  0  0  0  0  0  0  0  0  0
    3.7940   -3.5240   26.2430 C   0  0  0  0  0  0  0  0  0  0  0  0
    4.1570   -2.0540   26.2090 C   0  0  0  0  0  0  0  0  0  0  0  0
    3.1510   -1.1000   26.2690 C   0  0  0  0  0  0  0  0  0  0  0  0
    1.8310   -1.4700   26.3620 C   0  0  0  0  0  0  0  0  0  0  0  0
    1.4730   -2.8250   26.4010 C   0  0  0  0  0  0  0  0  0  0  0  0
    6.1990   -4.7910   22.0830 C   0  0  0  0  0  0  0  0  0  0  0  0
    6.6170   -4.1850   23.2500 C   0  0  1  0  0  0  0  0  0  0  0  0
    5.5730   -3.8760   24.0760 C   0  0  0  0  0  0  0  0  0  0  0  0
    5.2250   -5.1580   24.6680 N   0  0  0  0  0  0  0  0  0  0  0  0
    2.8430   -5.0450   24.6120 O   0  0  0  0  0  0  0  0  0  0  0  0
    8.1320    1.3460   23.2910 N   0  0  0  0  0  0  0  0  0  0  0  0
   13.3560    5.1770   22.8780 C   0  0  0  0  0  0  0  0  0  0  0  0
   12.0920    3.2990   22.4370 O   0  0  0  0  0  0  0  0  0  0  0  0
   12.5530    4.5610   21.9510 C   0  0  0  0  0  0  0  0  0  0  0  0
    7.7100   -1.3270   21.6950 N   0  0  0  0  0  0  0  0  0  0  0  0
   11.0410    4.3210   24.1240 O   0  0  0  0  0  0  0  0  0  0  0  0
   11.1190    3.2840   23.4040 C   0  0  0  0  0  0  0  0  0  0  0  0
    8.7210    1.6440   21.0810 O   0  0  0  0  0  0  0  0  0  0  0  0
   10.2430    2.2150   23.6030 C   0  0  0  0  0  0  0  0  0  0  0  0
    8.8900    2.5010   23.7710 C   0  0  0  0  0  0  0  0  0  0  0  0
    8.0460    1.0110   21.9270 C   0  0  0  0  0  0  0  0  0  0  0  0
    7.1830   -0.0040   21.4930 C   0  0  1  0  0  0  0  0  0  0  0  0
   12.5690   -1.8940   24.3390 C   0  0  0  0  0  0  0  0  0  0  0  0
   12.7190   -0.6830   24.9660 C   0  0  0  0  0  0  0  0  0  0  0  0
   13.5310   -1.9780   23.2110 C   0  0  0  0  0  0  0  0  0  0  0  0
   12.8550   -3.0300   25.2650 C   0  0  0  0  0  0  0  0  0  0  0  0
    6.2660    0.2940   17.7780 N   0  0  0  0  0  0  0  0  0  0  0  0
    5.2370    1.1230   17.8610 C   0  0  0  0  0  0  0  0  0  0  0  0
    4.7400    1.6390   19.0570 C   0  0  0  0  0  0  0  0  0  0  0  0
    5.3340    1.2980   20.2720 C   0  0  0  0  0  0  0  0  0  0  0  0
    6.5400    0.3460   20.2650 C   0  0  0  0  0  0  0  0  0  0  0  0
    6.9420   -0.1300   18.8630 C   0  0  0  0  0  0  0  0  0  0  0  0
    9.9950   -1.1800   21.8330 C   0  0  0  0  0  0  0  0  0  0  0  0
   11.3220   -1.2790   22.4150 C   0  0  0  0  0  0  0  0  0  0  0  0
   11.3070   -1.8000   23.6930 C   0  0  0  0  0  0  0  0  0  0  0  0
   10.1430   -2.1700   24.2600 C   0  0  0  0  0  0  0  0  0  0  0  0
    8.6610   -2.1420   23.7740 C   0  0  0  0  0  0  0  0  0  0  0  0
    8.8620   -1.5610   22.4590 C   0  0  0  0  0  0  0  0  0  0  0  0
    8.7690   -2.7100   25.1370 C   0  0  0  0  0  0  0  0  0  0  0  0
  1  2  2  0
  2  3  1  0
  5  9  1  0
  5 10  1  0
  8 10  2  0
 10 11  1  0
  4 12  1  0
 14 15  2  0
 15 16  1  0
 12 19  2  0
 13 19  2  0
 13 20  1  0
 20 21  1  0
 21 22  1  6
 22 23  1  0
 23 24  1  0
 24 25  1  0
 20 26  1  0
 25 26  1  0
 28  9  1  6
 27 28  1  0
 27 29  1  0
 28 29  1  0
  6 30  1  0
  7 30  1  0
  9 30  1  0
 29 30  1  0
 27 31  1  6
 30 31  1  0
 17 32  1  0
 19 33  1  6
 32 33  2  0
 18 34  1  0
 33 34  1  0
 34 35  2  0
 35 36  1  0
 32 37  1  0
 36 37  2  0
 38  2  1  0
 15 38  1  0
 27 38  1  0
 21 39  1  0
 39 38  1  6
 39 40  1  0
 19 41  1  0
 29 41  1  1
 40 41  1  0
  9 42  1  1
 44 46  1  0
 45 46  1  0
 45 49  1  0
 48 49  2  0
 49 51  1  0
 43 52  1  0
 51 52  1  0
 43 53  1  0
 50 53  2  0
 54 47  1  6
 53 54  1  0
 55 56  1  0
 55 57  1  0
 55 58  1  0
 59 60  2  0
 60 61  1  0
 61 62  2  0
 54 63  1  0
 62 63  1  0
 59 64  1  0
 63 64  2  0
 65 66  2  0
 55 67  1  0
 66 67  1  0
 67 68  2  0
 68 69  1  0
 47 70  1  0
 65 70  1  0
 69 70  2  0
 24 71  1  0
 69 71  1  0
M  END
