x1311-x2776-x3117
     RDKit          3D

 50 54  0  0  0  0  0  0  0  0999 V2000
    7.2460   -1.1400   21.7930 N   0  0  0  0  0  0  0  0  0  0  0  0
    7.8200    2.0220   23.0050 N   0  0  0  0  0  0  0  0  0  0  0  0
    9.0000    1.4960   21.1110 O   0  0  0  0  0  0  0  0  0  0  0  0
   10.9070    6.6870   23.7780 O   0  0  0  0  0  0  0  0  0  0  0  0
    6.9860    0.2290   21.6330 C   0  0  1  0  0  0  0  0  0  0  0  0
   12.2020   -2.7840   25.0440 O   0  0  0  0  0  0  0  0  0  0  0  0
    8.0480    1.2800   21.8560 C   0  0  0  0  0  0  0  0  0  0  0  0
   10.5640    1.8010   23.8610 C   0  0  0  0  0  0  0  0  0  0  0  0
   11.7670    6.6280   24.6640 C   0  0  0  0  0  0  0  0  0  0  0  0
   12.3000   -1.7830   24.3520 C   0  0  0  0  0  0  0  0  0  0  0  0
   13.3460   -1.6560   23.2890 C   0  0  0  0  0  0  0  0  0  0  0  0
   13.4300   -3.2090   25.5700 C   0  0  0  0  0  0  0  0  0  0  0  0
   12.4650   -0.5500   25.2100 C   0  0  0  0  0  0  0  0  0  0  0  0
    5.6850   -4.7830   20.0210 O   0  0  0  0  0  0  0  0  0  0  0  0
    6.5040   -4.5470   20.9330 C   0  0  0  0  0  0  0  0  0  0  0  0
    8.0300   -4.4590   20.7930 C   0  0  0  0  0  0  0  0  0  0  0  0
    6.0770   -4.2580   22.3420 C   0  0  2  0  0  0  0  0  0  0  0  0
    4.0680   -7.3940   25.3970 O   0  0  0  0  0  0  0  0  0  0  0  0
    2.4010   -5.5960   24.7420 O   0  0  0  0  0  0  0  0  0  0  0  0
    6.3500   -1.8330   22.7100 C   0  0  0  0  0  0  0  0  0  0  0  0
    5.6420   -2.8310   22.0950 C   0  0  0  0  0  0  0  0  0  0  0  0
    6.3610    0.4000   17.8210 N   0  0  0  0  0  0  0  0  0  0  0  0
    5.1790    1.2850   17.7320 C   0  0  0  0  0  0  0  0  0  0  0  0
    4.5060    1.8610   18.9930 C   0  0  0  0  0  0  0  0  0  0  0  0
    5.1180    1.4940   20.3700 C   0  0  0  0  0  0  0  0  0  0  0  0
    6.3450    0.5820   20.3190 C   0  0  0  0  0  0  0  0  0  0  0  0
    6.8770    0.1000   19.1520 C   0  0  0  0  0  0  0  0  0  0  0  0
    9.9290    3.0830   23.6010 C   0  0  0  0  0  0  0  0  0  0  0  0
   10.6710    4.2510   23.7840 C   0  0  0  0  0  0  0  0  0  0  0  0
   10.1460    5.5080   23.5710 C   0  0  0  0  0  0  0  0  0  0  0  0
    8.8280    5.6590   23.1380 C   0  0  0  0  0  0  0  0  0  0  0  0
    8.0850    4.4810   22.9530 C   0  0  0  0  0  0  0  0  0  0  0  0
    8.5850    3.2000   23.1740 C   0  0  0  0  0  0  0  0  0  0  0  0
    9.5880   -1.9030   21.8910 C   0  0  0  0  0  0  0  0  0  0  0  0
   10.7880   -2.0350   22.5470 C   0  0  0  0  0  0  0  0  0  0  0  0
   10.9710   -1.5860   23.7830 C   0  0  0  0  0  0  0  0  0  0  0  0
    9.8500   -0.9500   24.4230 C   0  0  0  0  0  0  0  0  0  0  0  0
    8.6400   -0.8100   23.7630 C   0  0  0  0  0  0  0  0  0  0  0  0
    8.4900   -1.2840   22.4750 C   0  0  0  0  0  0  0  0  0  0  0  0
    8.0630   -5.7950   23.2070 C   0  0  0  0  0  0  0  0  0  0  0  0
    9.1980   -6.0110   23.9660 C   0  0  0  0  0  0  0  0  0  0  0  0
    9.8280   -4.9600   24.8410 C   0  0  0  0  0  0  0  0  0  0  0  0
    9.1670   -3.5880   24.8800 C   0  0  0  0  0  0  0  0  0  0  0  0
    7.9150   -3.3300   24.0640 C   0  0  0  0  0  0  0  0  0  0  0  0
    7.3440   -4.4440   23.2050 C   0  0  0  0  0  0  0  0  0  0  0  0
    4.4310   -6.2870   22.2680 C   0  0  0  0  0  0  0  0  0  0  0  0
    4.9300   -5.0190   22.8940 C   0  0  1  0  0  0  0  0  0  0  0  0
    4.9680   -5.1830   24.2820 C   0  0  0  0  0  0  0  0  0  0  0  0
    3.6210   -6.3380   24.4990 S   0  0  0  0  0  0  0  0  0  0  0  0
    3.6190   -7.0330   23.0200 C   0  0  0  0  0  0  0  0  0  0  0  0
  1  5  1  0
  2  7  1  0
  3  7  2  0
  5  7  1  6
  4  9  1  0
 10  6  1  0
 10 11  1  0
  6 12  1  0
 10 13  1  0
 14 15  2  0
 15 16  1  0
 17 15  1  0
  1 20  1  0
 17 21  1  6
 20 21  1  0
 22 23  2  0
 23 24  1  0
 24 25  2  0
  5 26  1  0
 25 26  1  0
 22 27  1  0
 26 27  2  0
  8 28  1  0
 28 29  2  0
  4 30  1  0
 29 30  1  0
 30 31  2  0
 31 32  1  0
  2 33  1  0
 28 33  1  0
 32 33  2  0
 34 35  2  0
 10 36  1  0
 35 36  1  0
 36 37  2  0
 37 38  1  0
  1 39  1  0
 34 39  1  0
 38 39  2  0
 40 41  2  0
 41 42  1  0
 42 43  2  0
 43 44  1  0
 17 45  1  0
 40 45  1  0
 44 45  2  0
 17 47  1  0
 47 46  1  6
 47 48  1  0
 49 18  1  0
 19 49  1  0
 48 49  1  0
 46 50  2  0
 49 50  1  0
M  END
