x1311-x0755-x0689-x3110-x1077
     RDKit          3D

 65 74  0  0  0  0  0  0  0  0999 V2000
    8.0940    1.4170   23.2900 N   0  0  0  0  0  0  0  0  0  0  0  0
   13.3800    5.1870   22.9160 C   0  0  0  0  0  0  0  0  0  0  0  0
   12.0590    3.2760   22.4270 O   0  0  0  0  0  0  0  0  0  0  0  0
   12.4460    4.5530   21.9130 C   0  0  0  0  0  0  0  0  0  0  0  0
    7.8300   -1.2590   21.3440 N   0  0  0  0  0  0  0  0  0  0  0  0
   11.0300    4.3200   24.1770 O   0  0  0  0  0  0  0  0  0  0  0  0
   11.1860    3.3470   23.4560 C   0  0  0  0  0  0  0  0  0  0  0  0
    8.7870    1.8090   21.1430 O   0  0  0  0  0  0  0  0  0  0  0  0
   10.4300    2.0600   23.5860 C   0  0  0  0  0  0  0  0  0  0  0  0
    8.9830    2.3860   23.8920 C   0  0  0  0  0  0  0  0  0  0  0  0
    8.0810    1.1730   21.9340 C   0  0  0  0  0  0  0  0  0  0  0  0
    7.1170    0.0480   21.4630 C   0  0  1  0  0  0  0  0  0  0  0  0
   12.5070   -1.9370   24.3080 C   0  0  0  0  0  0  0  0  0  0  0  0
   12.7520   -0.5780   24.9290 C   0  0  0  0  0  0  0  0  0  0  0  0
   13.4870   -2.1020   23.1700 C   0  0  0  0  0  0  0  0  0  0  0  0
   12.8060   -3.0320   25.3440 C   0  0  0  0  0  0  0  0  0  0  0  0
    6.3340    0.4070   17.7650 N   0  0  0  0  0  0  0  0  0  0  0  0
    5.2680    1.2240   17.8350 C   0  0  0  0  0  0  0  0  0  0  0  0
    4.7280    1.6950   19.0060 C   0  0  0  0  0  0  0  0  0  0  0  0
    5.3230    1.3120   20.2010 C   0  0  0  0  0  0  0  0  0  0  0  0
    6.4370    0.4700   20.1800 C   0  0  0  0  0  0  0  0  0  0  0  0
    6.8840    0.0540   18.9440 C   0  0  0  0  0  0  0  0  0  0  0  0
   10.0950   -1.1060   21.7640 C   0  0  0  0  0  0  0  0  0  0  0  0
   11.2360   -1.2410   22.4150 C   0  0  0  0  0  0  0  0  0  0  0  0
   11.1780   -1.8330   23.6060 C   0  0  0  0  0  0  0  0  0  0  0  0
    9.9300   -2.2610   24.0500 C   0  0  0  0  0  0  0  0  0  0  0  0
    8.5850   -2.2020   23.4710 C   0  0  0  0  0  0  0  0  0  0  0  0
    8.8860   -1.5350   22.2360 C   0  0  0  0  0  0  0  0  0  0  0  0
    6.1100   -4.3070   19.7810 O   0  0  0  0  0  0  0  0  0  0  0  0
    6.8990   -4.4940   20.6990 C   0  0  0  0  0  0  0  0  0  0  0  0
    8.3890   -4.1900   20.5780 C   0  0  0  0  0  0  0  0  0  0  0  0
    3.5980   -6.3110   25.9310 N   0  0  0  0  0  0  0  0  0  0  0  0
    1.9080   -5.6080   23.9510 O   0  0  0  0  0  0  0  0  0  0  0  0
    5.5710   -5.2070   27.5130 N   0  0  0  0  0  0  0  0  0  0  0  0
    4.4550   -5.0480   26.2310 S   0  0  2  0  0  0  0  0  0  0  0  0
    4.4390   -7.6300   24.8810 O   0  0  0  0  0  0  0  0  0  0  0  0
    5.9300   -5.3950   26.3820 C   0  0  0  0  0  0  0  0  0  0  0  0
    4.6490   -3.5810   20.9530 O   0  0  0  0  0  0  0  0  0  0  0  0
    5.7540   -3.5950   21.4520 C   0  0  0  0  0  0  0  0  0  0  0  0
    6.5530   -2.4950   21.4250 C   0  0  0  0  0  0  0  0  0  0  0  0
    1.4260   -4.8250   25.9430 F   0  0  0  0  0  0  0  0  0  0  0  0
    4.7750   -1.8330   26.8840 F   0  0  0  0  0  0  0  0  0  0  0  0
    4.9080   -6.6960   26.0790 S   0  0  0  0  0  0  0  0  0  0  0  0
    6.8300   -4.6980   25.6020 N   0  0  0  0  0  0  0  0  0  0  0  0
    7.6860   -5.4570   24.4660 C   0  0  2  0  0  0  0  0  0  0  0  0
    9.1830   -5.7890   24.4830 C   0  0  0  0  0  0  0  0  0  0  0  0
   10.0680   -4.7210   24.6420 C   0  0  0  0  0  0  0  0  0  0  0  0
    9.6000   -3.6340   25.4540 N   0  0  0  0  0  0  0  0  0  0  0  0
    8.9710   -4.2700   26.6080 C   0  0  0  0  0  0  0  0  0  0  0  0
    7.6100   -4.0180   26.6480 C   0  0  0  0  0  0  0  0  0  0  0  0
    4.7600   -5.4590   22.4460 C   0  0  1  0  0  0  0  0  0  0  0  0
    4.1280   -4.3730   22.9610 C   0  0  0  0  0  0  0  0  0  0  0  0
    4.4080   -5.1310   23.9730 C   0  0  1  0  0  0  0  0  0  0  0  0
    3.2790   -6.3350   24.3480 S   0  0  2  0  0  0  0  0  0  0  0  0
    4.1570   -6.8270   22.8760 C   0  0  0  0  0  0  0  0  0  0  0  0
    4.0560   -2.3240   25.8360 C   0  0  1  0  0  0  0  0  0  0  0  0
    3.5720   -3.6410   25.9820 C   0  0  0  0  0  0  0  0  0  0  0  0
    2.1970   -3.7260   25.8730 C   0  0  0  0  0  0  0  0  0  0  0  0
    1.7040   -2.4750   25.6860 C   0  0  0  0  0  0  0  0  0  0  0  0
    2.7380   -1.5490   25.6630 C   0  0  0  0  0  0  0  0  0  0  0  0
    6.3120   -4.9200   22.0340 C   0  0  0  0  0  0  0  0  0  0  0  0
    7.2610   -4.5360   23.2660 C   0  0  1  0  0  0  0  0  0  0  0  0
    6.4100   -4.1670   24.4960 C   0  0  0  0  0  0  0  0  0  0  0  0
    5.5000   -5.4450   24.8190 C   0  0  1  0  0  0  0  0  0  0  0  0
    8.4740   -2.8890   24.8070 C   0  0  0  0  0  0  0  0  0  0  0  0
  2  4  1  0
  3  4  1  0
  3  7  1  0
  6  7  2  0
  7  9  1  0
  1 10  1  0
  9 10  1  0
  1 11  1  0
  8 11  2  0
 12  5  1  6
 11 12  1  0
 13 14  1  0
 13 15  1  0
 13 16  1  0
 17 18  2  0
 18 19  1  0
 19 20  2  0
 12 21  1  0
 20 21  1  0
 17 22  1  0
 21 22  2  0
 23 24  2  0
 13 25  1  0
 24 25  1  0
 25 26  2  0
 26 27  1  0
  5 28  1  0
 23 28  1  0
 27 28  2  0
 29 30  2  0
 30 31  1  0
 32 35  2  0
 34 35  2  0
 34 37  1  0
 38 39  2  0
 39 40  1  0
 36 43  2  0
 37 43  2  0
 37 44  1  0
 44 45  1  0
 45 46  1  1
 46 47  1  0
 47 48  1  0
 48 49  1  0
 44 50  1  0
 49 50  1  0
 51 52  1  6
 51 53  1  0
 53 52  1  6
 32 54  1  0
 54 33  1  1
 53 54  1  0
 51 55  1  0
 54 55  1  0
 56 42  1  1
 35 57  1  6
 56 57  1  0
 41 58  1  0
 57 58  2  0
 58 59  1  0
 56 60  1  0
 59 60  2  0
 61 30  1  0
 39 61  1  0
 51 61  1  0
 45 62  1  0
 62 61  1  6
 62 63  1  0
 35 64  1  0
 43 64  1  0
 53 64  1  0
 64 63  1  6
 27 65  1  0
 48 65  1  0
M  END
