x1311-x3110-x1077
     RDKit          3D

 48 51  0  0  0  0  0  0  0  0999 V2000
    5.7750   -4.3870   19.9490 O   0  0  0  0  0  0  0  0  0  0  0  0
    6.7020   -4.3900   20.8170 C   0  0  0  0  0  0  0  0  0  0  0  0
    8.1430   -3.9060   20.5590 C   0  0  0  0  0  0  0  0  0  0  0  0
    6.5120   -4.8640   22.1490 N   0  0  0  0  0  0  0  0  0  0  0  0
    4.1520   -7.6490   25.3450 O   0  0  0  0  0  0  0  0  0  0  0  0
    2.5190   -5.7680   24.9140 O   0  0  0  0  0  0  0  0  0  0  0  0
    4.6100   -6.1100   22.0550 C   0  0  0  0  0  0  0  0  0  0  0  0
    5.1900   -5.0510   22.8140 C   0  0  1  0  0  0  0  0  0  0  0  0
    5.0950   -5.3020   24.2720 C   0  0  0  0  0  0  0  0  0  0  0  0
    3.7160   -6.4200   24.4310 S   0  0  0  0  0  0  0  0  0  0  0  0
    3.6230   -6.9430   22.8800 C   0  0  0  0  0  0  0  0  0  0  0  0
    7.2050   -4.6920   24.6700 O   0  0  0  0  0  0  0  0  0  0  0  0
    8.0390   -5.5900   23.9700 C   0  0  2  0  0  0  0  0  0  0  0  0
    9.5030   -5.3490   24.0520 C   0  0  0  0  0  0  0  0  0  0  0  0
   10.0340   -4.7560   25.3410 C   0  0  0  0  0  0  0  0  0  0  0  0
    9.4640   -3.4810   25.7140 N   0  0  0  0  0  0  0  0  0  0  0  0
    8.2300   -3.6040   26.5060 C   0  0  0  0  0  0  0  0  0  0  0  0
    7.3210   -4.6580   26.0560 C   0  0  0  0  0  0  0  0  0  0  0  0
    7.5150   -5.8180   22.5610 C   0  0  0  0  0  0  0  0  0  0  0  0
    8.1590    1.3640   23.2070 N   0  0  0  0  0  0  0  0  0  0  0  0
   13.3540    5.1730   22.8920 C   0  0  0  0  0  0  0  0  0  0  0  0
   11.9960    3.2080   22.4900 O   0  0  0  0  0  0  0  0  0  0  0  0
   12.3170    4.5120   21.9950 C   0  0  0  0  0  0  0  0  0  0  0  0
    7.5690   -1.2570   21.7340 N   0  0  0  0  0  0  0  0  0  0  0  0
   10.8820    4.3540   24.1370 O   0  0  0  0  0  0  0  0  0  0  0  0
   11.1270    3.2040   23.3480 C   0  0  0  0  0  0  0  0  0  0  0  0
    8.7280    1.5580   21.0400 O   0  0  0  0  0  0  0  0  0  0  0  0
   10.3750    2.0590   23.5430 C   0  0  0  0  0  0  0  0  0  0  0  0
    9.0020    2.2980   23.5660 C   0  0  0  0  0  0  0  0  0  0  0  0
    8.0350    1.0120   21.9090 C   0  0  0  0  0  0  0  0  0  0  0  0
    7.0080   -0.0090   21.6300 C   0  0  1  0  0  0  0  0  0  0  0  0
   12.4350   -1.8750   24.3170 C   0  0  0  0  0  0  0  0  0  0  0  0
   12.6770   -0.7090   24.9800 C   0  0  0  0  0  0  0  0  0  0  0  0
   13.4160   -1.9470   23.1540 C   0  0  0  0  0  0  0  0  0  0  0  0
   12.7570   -3.0270   25.2800 C   0  0  0  0  0  0  0  0  0  0  0  0
    6.3750    0.2030   17.9250 N   0  0  0  0  0  0  0  0  0  0  0  0
    5.3140    1.0160   17.9370 C   0  0  0  0  0  0  0  0  0  0  0  0
    4.7510    1.5180   19.0690 C   0  0  0  0  0  0  0  0  0  0  0  0
    5.2470    1.2220   20.3260 C   0  0  0  0  0  0  0  0  0  0  0  0
    6.3490    0.3840   20.3150 C   0  0  0  0  0  0  0  0  0  0  0  0
    6.8700   -0.0960   19.1330 C   0  0  0  0  0  0  0  0  0  0  0  0
    9.8750   -1.1500   21.9340 C   0  0  0  0  0  0  0  0  0  0  0  0
   11.0290   -1.2880   22.5180 C   0  0  0  0  0  0  0  0  0  0  0  0
   11.0450   -1.8030   23.7050 C   0  0  0  0  0  0  0  0  0  0  0  0
    9.8300   -2.2110   24.3100 C   0  0  0  0  0  0  0  0  0  0  0  0
    8.4490   -2.1590   23.8560 C   0  0  0  0  0  0  0  0  0  0  0  0
    8.6890   -1.5380   22.5440 C   0  0  0  0  0  0  0  0  0  0  0  0
    9.5730   -2.4030   24.6610 C   0  0  0  0  0  0  0  0  0  0  0  0
  1  2  2  0
  2  3  1  0
  2  4  1  0
  8  4  1  6
  7  8  1  0
  8  9  1  0
 10  5  1  0
  6 10  1  0
  9 10  1  0
  7 11  2  0
 10 11  1  0
 12 13  1  0
 13 14  1  0
 14 15  1  0
 15 16  1  0
 16 17  1  0
 12 18  1  0
 17 18  1  0
  4 19  1  0
 13 19  1  6
 21 23  1  0
 22 23  1  0
 22 26  1  0
 25 26  2  0
 26 28  1  0
 20 29  1  0
 28 29  1  0
 20 30  1  0
 27 30  2  0
 31 24  1  6
 30 31  1  0
 32 33  1  0
 32 34  1  0
 32 35  1  0
 36 37  2  0
 37 38  1  0
 38 39  2  0
 31 40  1  0
 39 40  1  0
 36 41  1  0
 40 41  2  0
 42 43  2  0
 32 44  1  0
 43 44  1  0
 44 45  2  0
 45 46  1  0
 24 47  1  0
 42 47  1  0
 46 47  2  0
 16 48  1  0
 46 48  1  0
M  END
