x1311-x2705-x0978
     RDKit          3D

 56 61  0  0  0  0  0  0  0  0999 V2000
    7.5540   -1.3450   21.9310 N   0  0  0  0  0  0  0  0  0  0  0  0
    7.6920    2.1960   22.6560 N   0  0  0  0  0  0  0  0  0  0  0  0
    9.0140    1.2330   21.1360 O   0  0  0  0  0  0  0  0  0  0  0  0
    6.9530    0.0100   21.7020 C   0  0  1  0  0  0  0  0  0  0  0  0
    7.9900    1.1680   21.8030 C   0  0  0  0  0  0  0  0  0  0  0  0
   10.2770    2.1820   23.8820 C   0  0  0  0  0  0  0  0  0  0  0  0
    9.4160    1.3080   24.8270 C   0  0  0  0  0  0  0  0  0  0  0  0
    6.2300    4.4580   21.8650 C   0  0  0  0  0  0  0  0  0  0  0  0
   12.3080   -1.4290   23.3700 C   0  0  0  0  0  0  0  0  0  0  0  0
   12.7800   -0.0600   23.8500 C   0  0  0  0  0  0  0  0  0  0  0  0
   12.9360   -2.4980   24.3420 C   0  0  0  0  0  0  0  0  0  0  0  0
   12.8370   -1.6820   21.9490 C   0  0  0  0  0  0  0  0  0  0  0  0
    1.7290   -5.4910   23.3170 N   0  0  0  0  0  0  0  0  0  0  0  0
    1.9030   -7.7520   25.0590 C   0  0  0  0  0  0  0  0  0  0  0  0
    4.4150   -7.8150   25.0340 O   0  0  0  0  0  0  0  0  0  0  0  0
    0.9180   -7.3850   21.9110 O   0  0  0  0  0  0  0  0  0  0  0  0
    3.0940   -6.0000   23.2360 C   0  0  1  0  0  0  0  0  0  0  0  0
    0.7080   -6.1830   22.5210 C   0  0  0  0  0  0  0  0  0  0  0  0
   -0.4800   -5.4580   22.4740 C   0  0  0  0  0  0  0  0  0  0  0  0
    6.2130   -4.5650   22.5310 C   0  0  1  0  0  0  0  0  0  0  0  0
    6.9380   -2.6440   21.6650 C   0  0  0  0  0  0  0  0  0  0  0  0
    5.9660   -3.0140   22.6090 C   0  0  0  0  0  0  0  0  0  0  0  0
    5.1480   -4.0640   19.6430 O   0  0  0  0  0  0  0  0  0  0  0  0
    6.2720   -4.1410   20.0960 C   0  0  0  0  0  0  0  0  0  0  0  0
    7.4060   -3.3200   19.4570 C   0  0  0  0  0  0  0  0  0  0  0  0
    6.5240   -4.9720   21.1860 N   0  0  0  0  0  0  0  0  0  0  0  0
    6.2930    0.2630   17.8680 N   0  0  0  0  0  0  0  0  0  0  0  0
    5.1550    0.9750   17.7880 C   0  0  0  0  0  0  0  0  0  0  0  0
    4.5240    1.3900   19.1000 C   0  0  0  0  0  0  0  0  0  0  0  0
    5.1130    1.0560   20.3030 C   0  0  0  0  0  0  0  0  0  0  0  0
    6.2960    0.3320   20.3820 C   0  0  0  0  0  0  0  0  0  0  0  0
    6.8530   -0.0540   19.1640 C   0  0  0  0  0  0  0  0  0  0  0  0
   10.0000   -1.3920   24.4710 N   0  0  0  0  0  0  0  0  0  0  0  0
    8.7310   -1.3680   24.0510 N   0  0  0  0  0  0  0  0  0  0  0  0
    8.7150   -1.3710   22.7090 C   0  0  0  0  0  0  0  0  0  0  0  0
   10.0420   -1.4020   22.3290 C   0  0  0  0  0  0  0  0  0  0  0  0
   10.8830   -1.4120   23.4140 C   0  0  0  0  0  0  0  0  0  0  0  0
    9.5200    3.4580   23.4740 C   0  0  0  0  0  0  0  0  0  0  0  0
   10.2350    4.7810   23.7500 C   0  0  0  0  0  0  0  0  0  0  0  0
    9.5850    6.1120   23.3810 C   0  0  0  0  0  0  0  0  0  0  0  0
    8.1980    6.0300   22.7290 C   0  0  0  0  0  0  0  0  0  0  0  0
    7.6280    4.6280   22.5260 C   0  0  0  0  0  0  0  0  0  0  0  0
    8.2590    3.4280   22.8810 C   0  0  0  0  0  0  0  0  0  0  0  0
    8.2470   -5.8520   23.3830 C   0  0  0  0  0  0  0  0  0  0  0  0
    9.3150   -5.9620   24.2580 C   0  0  0  0  0  0  0  0  0  0  0  0
    9.6000   -4.9920   25.2140 C   0  0  0  0  0  0  0  0  0  0  0  0
    8.7840   -3.8730   25.2970 C   0  0  0  0  0  0  0  0  0  0  0  0
    7.7210   -3.7830   24.4190 C   0  0  0  0  0  0  0  0  0  0  0  0
    7.4200   -4.7410   23.4570 C   0  0  0  0  0  0  0  0  0  0  0  0
    5.1580   -5.4530   23.1850 C   0  0  0  0  0  0  0  0  0  0  0  0
    3.9680   -4.8750   23.8220 C   0  0  2  0  0  0  0  0  0  0  0  0
    3.3580   -5.5280   24.8550 C   0  0  0  0  0  0  0  0  0  0  0  0
    3.3620   -7.1660   24.3870 S   0  0  0  0  0  0  0  0  0  0  0  0
    4.8920   -6.7600   23.4340 C   0  0  0  0  0  0  0  0  0  0  0  0
    4.2200   -7.6260   26.2300 O   0  0  0  0  0  0  0  0  0  0  0  0
    3.7830   -5.9930   22.1320 O   0  0  0  0  0  0  0  0  0  0  0  0
  1  4  1  0
  2  5  1  0
  3  5  2  0
  4  5  1  6
  6  7  1  0
  9 10  1  0
  9 11  1  0
  9 12  1  0
 13 17  1  0
 13 18  1  0
 16 18  2  0
 18 19  1  0
  1 21  1  0
 20 22  1  6
 21 22  1  0
 23 24  2  0
 24 25  1  0
 20 26  1  0
 24 26  1  0
 27 28  2  0
 28 29  1  0
 29 30  2  0
  4 31  1  0
 30 31  1  0
 27 32  1  0
 31 32  2  0
 33 34  1  0
  1 35  1  0
 34 35  1  0
 35 36  2  0
  9 37  1  0
 33 37  2  0
 36 37  1  0
  6 38  1  0
 38 39  2  0
 39 40  1  0
 40 41  2  0
  8 42  1  0
 41 42  1  0
  2 43  1  0
 38 43  1  0
 42 43  2  0
 44 45  2  0
 45 46  1  0
 46 47  2  0
 47 48  1  0
 20 49  1  0
 44 49  1  0
 48 49  2  0
 20 50  1  0
 17 51  1  0
 50 51  1  0
 51 52  1  1
 14 53  1  0
 15 53  1  0
 17 53  1  0
 52 53  1  0
 50 54  2  0
 53 54  1  0
 15 55  1  0
 17 56  1  6
M  END
