x1311-x2705-x2694
     RDKit          3D

 50 54  0  0  0  0  0  0  0  0999 V2000
    7.4590   -0.9780   21.8580 N   0  0  0  0  0  0  0  0  0  0  0  0
    7.6220    2.4020   22.6570 N   0  0  0  0  0  0  0  0  0  0  0  0
    9.0440    1.4910   21.1720 O   0  0  0  0  0  0  0  0  0  0  0  0
    6.9840    0.3340   21.6470 C   0  0  1  0  0  0  0  0  0  0  0  0
    7.9890    1.4170   21.7860 C   0  0  0  0  0  0  0  0  0  0  0  0
   10.3330    2.1640   23.8640 C   0  0  0  0  0  0  0  0  0  0  0  0
    9.4610    1.3110   24.8290 C   0  0  0  0  0  0  0  0  0  0  0  0
    6.4310    4.9160   21.9900 C   0  0  0  0  0  0  0  0  0  0  0  0
   12.2580   -1.3810   23.4120 C   0  0  0  0  0  0  0  0  0  0  0  0
   12.6810   -0.1260   24.1190 C   0  0  0  0  0  0  0  0  0  0  0  0
   12.8070   -2.5500   24.2530 C   0  0  0  0  0  0  0  0  0  0  0  0
   12.8240   -1.4480   22.1140 C   0  0  0  0  0  0  0  0  0  0  0  0
   10.6970    6.8590   23.8520 O   0  0  0  0  0  0  0  0  0  0  0  0
   11.7730    6.5530   24.7800 C   0  0  0  0  0  0  0  0  0  0  0  0
    5.6870   -4.7320   20.0490 O   0  0  0  0  0  0  0  0  0  0  0  0
    6.5410   -4.5050   20.9370 C   0  0  0  0  0  0  0  0  0  0  0  0
    8.0570   -4.3790   20.7060 C   0  0  0  0  0  0  0  0  0  0  0  0
    6.2210   -4.2620   22.4440 C   0  0  2  0  0  0  0  0  0  0  0  0
    3.8320   -7.5540   25.1890 O   0  0  0  0  0  0  0  0  0  0  0  0
    2.5140   -5.4740   24.6300 O   0  0  0  0  0  0  0  0  0  0  0  0
    6.5880   -2.0780   21.4660 C   0  0  0  0  0  0  0  0  0  0  0  0
    6.0550   -2.7810   22.5260 C   0  0  0  0  0  0  0  0  0  0  0  0
    6.2830    0.2370   17.8790 N   0  0  0  0  0  0  0  0  0  0  0  0
    5.1550    0.9830   17.8080 C   0  0  0  0  0  0  0  0  0  0  0  0
    4.6150    1.5010   18.9950 C   0  0  0  0  0  0  0  0  0  0  0  0
    5.1940    1.2880   20.2290 C   0  0  0  0  0  0  0  0  0  0  0  0
    6.3370    0.5470   20.3150 C   0  0  0  0  0  0  0  0  0  0  0  0
    6.8280    0.0470   19.1280 C   0  0  0  0  0  0  0  0  0  0  0  0
    9.8070   -1.4250   24.4790 N   0  0  0  0  0  0  0  0  0  0  0  0
    8.6090   -1.3120   24.0180 N   0  0  0  0  0  0  0  0  0  0  0  0
    8.6120   -1.1490   22.6860 C   0  0  0  0  0  0  0  0  0  0  0  0
    9.8920   -1.1580   22.2260 C   0  0  0  0  0  0  0  0  0  0  0  0
   10.6520   -1.3270   23.3840 C   0  0  0  0  0  0  0  0  0  0  0  0
    9.5850    3.4530   23.4820 C   0  0  0  0  0  0  0  0  0  0  0  0
   10.3540    4.5690   23.7810 C   0  0  0  0  0  0  0  0  0  0  0  0
    9.8400    5.8410   23.4990 C   0  0  0  0  0  0  0  0  0  0  0  0
    8.5540    5.9680   22.9090 C   0  0  0  0  0  0  0  0  0  0  0  0
    7.8030    4.8020   22.6210 C   0  0  0  0  0  0  0  0  0  0  0  0
    8.3450    3.5530   22.9250 C   0  0  0  0  0  0  0  0  0  0  0  0
    8.0830   -5.8650   23.0940 C   0  0  0  0  0  0  0  0  0  0  0  0
    9.2870   -6.1110   24.0000 C   0  0  0  0  0  0  0  0  0  0  0  0
    9.6940   -5.1760   24.9090 C   0  0  0  0  0  0  0  0  0  0  0  0
    8.9930   -4.0050   24.9940 C   0  0  0  0  0  0  0  0  0  0  0  0
    7.8940   -3.7610   24.1860 C   0  0  0  0  0  0  0  0  0  0  0  0
    7.4140   -4.6610   23.2310 C   0  0  0  0  0  0  0  0  0  0  0  0
    4.5180   -5.9920   22.2160 C   0  0  0  0  0  0  0  0  0  0  0  0
    4.9650   -4.9930   23.0170 C   0  0  1  0  0  0  0  0  0  0  0  0
    5.3870   -5.3340   24.5180 C   0  0  0  0  0  0  0  0  0  0  0  0
    3.6540   -6.3270   24.4110 S   0  0  0  0  0  0  0  0  0  0  0  0
    3.6670   -6.8230   22.7690 C   0  0  0  0  0  0  0  0  0  0  0  0
  1  4  1  0
  2  5  1  0
  3  5  2  0
  4  5  1  6
  6  7  1  0
  9 10  1  0
  9 11  1  0
  9 12  1  0
 13 14  1  0
 15 16  2  0
 16 17  1  0
 18 16  1  0
  1 21  1  0
 18 22  1  6
 21 22  1  0
 23 24  2  0
 24 25  1  0
 25 26  2  0
  4 27  1  0
 26 27  1  0
 23 28  1  0
 27 28  2  0
 29 30  1  0
  1 31  1  0
 30 31  1  0
 31 32  2  0
  9 33  1  0
 29 33  2  0
 32 33  1  0
  6 34  1  0
 34 35  2  0
 13 36  1  0
 35 36  1  0
 36 37  2  0
  8 38  1  0
 37 38  1  0
  2 39  1  0
 34 39  1  0
 38 39  2  0
 40 41  2  0
 41 42  1  0
 42 43  2  0
 43 44  1  0
 18 45  1  0
 40 45  1  0
 44 45  2  0
 18 47  1  0
 47 46  1  6
 47 48  1  0
 49 19  1  0
 20 49  1  0
 48 49  1  0
 46 50  2  0
 49 50  1  0
M  END
