x1311-x2540
     RDKit          3D

 43 46  0  0  0  0  0  0  0  0999 V2000
    7.3520   -0.9100   22.0000 N   0  0  0  0  0  0  0  0  0  0  0  0
    8.0270    1.9800   23.1400 N   0  0  0  0  0  0  0  0  0  0  0  0
    8.7320    1.9120   20.9750 O   0  0  0  0  0  0  0  0  0  0  0  0
    6.9640    0.4010   21.6970 C   0  0  1  0  0  0  0  0  0  0  0  0
    7.9970    1.4830   21.8590 C   0  0  0  0  0  0  0  0  0  0  0  0
    8.9750    3.0690   23.3790 C   0  0  0  0  0  0  0  0  0  0  0  0
    8.9780    3.3220   24.8590 C   0  0  0  0  0  0  0  0  0  0  0  0
    8.5880    4.3070   22.6570 C   0  0  0  0  0  0  0  0  0  0  0  0
   10.3800    2.6540   22.8710 C   0  0  0  0  0  0  0  0  0  0  0  0
   12.1630   -1.2890   23.6190 C   0  0  0  0  0  0  0  0  0  0  0  0
   12.8900   -1.2380   22.4150 C   0  0  0  0  0  0  0  0  0  0  0  0
   12.3810   -0.2510   24.7210 C   0  0  0  0  0  0  0  0  0  0  0  0
   12.6230   -2.5930   24.2190 C   0  0  0  0  0  0  0  0  0  0  0  0
    5.8070   -4.7480   20.0520 O   0  0  0  0  0  0  0  0  0  0  0  0
    6.6550   -4.5220   20.9700 C   0  0  0  0  0  0  0  0  0  0  0  0
    8.1410   -4.3070   20.7080 C   0  0  0  0  0  0  0  0  0  0  0  0
    6.2740   -4.3760   22.4920 C   0  0  2  0  0  0  0  0  0  0  0  0
    4.2190   -7.4960   25.0820 O   0  0  0  0  0  0  0  0  0  0  0  0
    2.2090   -6.0540   24.6680 O   0  0  0  0  0  0  0  0  0  0  0  0
    6.4570   -1.9970   21.5310 C   0  0  0  0  0  0  0  0  0  0  0  0
    5.8850   -2.8790   22.7000 C   0  0  0  0  0  0  0  0  0  0  0  0
    6.3480    0.2410   17.8830 N   0  0  0  0  0  0  0  0  0  0  0  0
    5.2170    1.2310   17.7890 C   0  0  0  0  0  0  0  0  0  0  0  0
    4.7590    1.8640   19.1030 C   0  0  0  0  0  0  0  0  0  0  0  0
    5.3830    1.5230   20.2850 C   0  0  0  0  0  0  0  0  0  0  0  0
    6.4380    0.5970   20.3080 C   0  0  0  0  0  0  0  0  0  0  0  0
    6.9380   -0.0540   19.1790 C   0  0  0  0  0  0  0  0  0  0  0  0
    9.8840   -1.6370   24.4760 O   0  0  0  0  0  0  0  0  0  0  0  0
    8.5390   -1.5560   24.1200 N   0  0  0  0  0  0  0  0  0  0  0  0
    8.4920   -1.1460   22.7760 C   0  0  0  0  0  0  0  0  0  0  0  0
    9.8080   -1.0020   22.3810 C   0  0  0  0  0  0  0  0  0  0  0  0
   10.6750   -1.2900   23.4170 C   0  0  0  0  0  0  0  0  0  0  0  0
    8.2890   -5.8010   23.2270 C   0  0  0  0  0  0  0  0  0  0  0  0
    9.3640   -5.9860   24.0480 C   0  0  0  0  0  0  0  0  0  0  0  0
    9.7910   -5.0910   25.0320 C   0  0  0  0  0  0  0  0  0  0  0  0
    9.0870   -3.9640   25.1800 C   0  0  0  0  0  0  0  0  0  0  0  0
    7.9400   -3.7650   24.3170 C   0  0  0  0  0  0  0  0  0  0  0  0
    7.5130   -4.6580   23.3310 C   0  0  0  0  0  0  0  0  0  0  0  0
    4.6430   -6.2440   22.1720 C   0  0  0  0  0  0  0  0  0  0  0  0
    5.3500   -5.5260   23.0760 C   0  0  2  0  0  0  0  0  0  0  0  0
    4.5440   -5.0500   24.1090 C   0  0  0  0  0  0  0  0  0  0  0  0
    3.5320   -6.4960   24.2850 S   0  0  0  0  0  0  0  0  0  0  0  0
    3.5560   -6.8600   22.6790 C   0  0  0  0  0  0  0  0  0  0  0  0
  1  4  1  0
  2  5  1  0
  3  5  2  0
  4  5  1  6
  6  2  1  0
  6  7  1  0
  6  8  1  0
  6  9  1  0
 10 11  1  0
 10 12  1  0
 10 13  1  0
 14 15  2  0
 15 16  1  0
 17 15  1  0
  1 20  1  0
 17 21  1  6
 20 21  1  0
 22 23  2  0
 23 24  1  0
 24 25  2  0
  4 26  1  0
 25 26  1  0
 22 27  1  0
 26 27  2  0
 28 29  1  0
  1 30  1  0
 29 30  2  0
 30 31  1  0
 10 32  1  0
 28 32  1  0
 31 32  2  0
 33 34  2  0
 34 35  1  0
 35 36  2  0
 36 37  1  0
 17 38  1  0
 33 38  1  0
 37 38  2  0
 17 40  1  0
 40 39  1  6
 40 41  1  0
 42 18  1  0
 19 42  1  0
 41 42  1  0
 39 43  2  0
 42 43  1  0
M  END
