x1311-x0689
     RDKit          3D

 24 26  0  0  0  0  0  0  0  0999 V2000
    5.6270   -4.5140   19.9890 O   0  0  0  0  0  0  0  0  0  0  0  0
    6.4770   -4.4560   20.9200 C   0  0  0  0  0  0  0  0  0  0  0  0
    8.0260   -4.2540   20.7710 C   0  0  0  0  0  0  0  0  0  0  0  0
    6.1910   -4.5780   22.3290 N   0  0  0  0  0  0  0  0  0  0  0  0
    4.2740   -6.1480   26.6460 O   0  0  0  0  0  0  0  0  0  0  0  0
    2.4760   -6.2850   24.8420 O   0  0  0  0  0  0  0  0  0  0  0  0
    6.1720   -4.2140   26.2120 O   0  0  0  0  0  0  0  0  0  0  0  0
    4.8170   -4.9110   25.7880 S   0  0  0  0  0  0  0  0  0  0  0  0
    7.9280   -6.0310   23.2050 C   0  0  0  0  0  0  0  0  0  0  0  0
    9.2800   -6.0890   23.9260 C   0  0  0  0  0  0  0  0  0  0  0  0
    9.9240   -4.8310   24.3140 C   0  0  0  0  0  0  0  0  0  0  0  0
    9.2850   -3.6440   24.0120 C   0  0  0  0  0  0  0  0  0  0  0  0
    8.0740   -3.6270   23.3760 C   0  0  0  0  0  0  0  0  0  0  0  0
    7.3900   -4.7580   22.9710 C   0  0  0  0  0  0  0  0  0  0  0  0
    4.3610   -5.8270   22.2000 C   0  0  0  0  0  0  0  0  0  0  0  0
    4.9790   -5.0470   23.0600 C   0  0  1  0  0  0  0  0  0  0  0  0
    5.0470   -5.7060   24.3070 C   0  0  2  0  0  0  0  0  0  0  0  0
    3.8410   -6.9490   24.3050 S   0  0  2  0  0  0  0  0  0  0  0  0
    3.6460   -6.8430   22.6420 C   0  0  0  0  0  0  0  0  0  0  0  0
    4.0110   -2.0130   25.9670 S   0  0  0  0  0  0  0  0  0  0  0  0
    3.6770   -3.6840   25.7160 C   0  0  0  0  0  0  0  0  0  0  0  0
    2.2060   -3.9730   25.4270 C   0  0  0  0  0  0  0  0  0  0  0  0
    1.4030   -2.7010   25.4390 C   0  0  0  0  0  0  0  0  0  0  0  0
    2.3640   -1.5430   25.7400 C   0  0  0  0  0  0  0  0  0  0  0  0
  1  2  2  0
  2  3  1  0
  2  4  1  0
  5  8  2  0
  7  8  2  0
  9 10  2  0
 10 11  1  0
 11 12  2  0
 12 13  1  0
  4 14  1  0
  9 14  1  0
 13 14  2  0
 16  4  1  6
 15 16  1  0
 17  8  1  1
 16 17  1  0
 18  6  1  1
 17 18  1  0
 15 19  2  0
 18 19  1  0
  8 21  1  0
 20 21  1  0
 21 22  2  0
 22 23  1  0
 20 24  1  0
 23 24  2  0
M  END
