x1311-x1249
     RDKit          3D

 39 42  0  0  0  0  0  0  0  0999 V2000
    5.8380   -4.7570   20.0330 O   0  0  0  0  0  0  0  0  0  0  0  0
    6.6880   -4.4810   20.9190 C   0  0  0  0  0  0  0  0  0  0  0  0
    8.1580   -4.1670   20.6470 C   0  0  0  0  0  0  0  0  0  0  0  0
    6.3310   -4.3520   22.4170 C   0  0  2  0  0  0  0  0  0  0  0  0
    4.1960   -7.5600   25.3860 O   0  0  0  0  0  0  0  0  0  0  0  0
    2.5530   -5.6970   24.9710 O   0  0  0  0  0  0  0  0  0  0  0  0
    6.4020   -2.8700   22.3620 C   0  0  0  0  0  0  0  0  0  0  0  0
    5.0910   -2.4150   22.7990 C   0  0  0  0  0  0  0  0  0  0  0  0
    4.9760   -0.9500   22.6530 C   0  0  0  0  0  0  0  0  0  0  0  0
    8.1980   -5.8500   23.0770 C   0  0  0  0  0  0  0  0  0  0  0  0
    9.2460   -6.1710   23.9700 C   0  0  0  0  0  0  0  0  0  0  0  0
    9.5080   -5.3590   25.0760 C   0  0  0  0  0  0  0  0  0  0  0  0
    8.7080   -4.2380   25.2650 C   0  0  0  0  0  0  0  0  0  0  0  0
    7.6890   -3.9340   24.3930 C   0  0  0  0  0  0  0  0  0  0  0  0
    7.4200   -4.7330   23.2900 C   0  0  0  0  0  0  0  0  0  0  0  0
    4.5340   -6.1720   22.1780 C   0  0  0  0  0  0  0  0  0  0  0  0
    5.0810   -5.0030   22.9030 C   0  0  1  0  0  0  0  0  0  0  0  0
    5.1280   -5.2620   24.4350 C   0  0  0  0  0  0  0  0  0  0  0  0
    3.7530   -6.4090   24.6280 S   0  0  0  0  0  0  0  0  0  0  0  0
    3.6200   -7.0480   23.0010 C   0  0  0  0  0  0  0  0  0  0  0  0
    8.0750    0.5510   24.9740 N   0  0  0  0  0  0  0  0  0  0  0  0
    7.3980    1.4750   24.0730 C   0  0  0  0  0  0  0  0  0  0  0  0
    8.0620    2.6440   23.5580 O   0  0  0  0  0  0  0  0  0  0  0  0
    9.3890    0.8240   25.3460 C   0  0  0  0  0  0  0  0  0  0  0  0
   13.9050   -1.6570   20.5260 N   0  0  0  0  0  0  0  0  0  0  0  0
   13.1230   -1.3060   21.5650 C   0  0  0  0  0  0  0  0  0  0  0  0
    3.4290    1.2100   23.7570 O   0  0  0  0  0  0  0  0  0  0  0  0
    4.1450    1.3920   22.5220 C   0  0  0  0  0  0  0  0  0  0  0  0
    5.4320    1.8770   22.7530 C   0  0  0  0  0  0  0  0  0  0  0  0
    6.0810    1.1370   23.7480 C   0  0  0  0  0  0  0  0  0  0  0  0
    5.4050    1.1040   24.9650 C   0  0  0  0  0  0  0  0  0  0  0  0
    4.1580    0.5340   24.7950 C   0  0  0  0  0  0  0  0  0  0  0  0
   11.5280    0.9260   23.9980 C   0  0  0  0  0  0  0  0  0  0  0  0
   12.4360    0.4150   23.0970 C   0  0  0  0  0  0  0  0  0  0  0  0
   12.1700   -0.7640   22.5480 C   0  0  0  0  0  0  0  0  0  0  0  0
   10.9790   -1.5070   22.8700 C   0  0  0  0  0  0  0  0  0  0  0  0
   10.0760   -0.9920   23.7810 C   0  0  0  0  0  0  0  0  0  0  0  0
   10.3550    0.2340   24.3480 C   0  0  0  0  0  0  0  0  0  0  0  0
    6.1870   -0.3260   23.2870 C   0  0  0  0  0  0  0  0  0  0  0  0
  1  2  2  0
  2  3  1  0
  4  2  1  0
  4  7  1  6
  7  8  1  0
  8  9  1  0
 10 11  2  0
 11 12  1  0
 12 13  2  0
 13 14  1  0
  4 15  1  0
 10 15  1  0
 14 15  2  0
  4 17  1  0
 17 16  1  6
 17 18  1  0
 19  5  1  0
  6 19  1  0
 18 19  1  0
 16 20  2  0
 19 20  1  0
 21 22  1  0
 22 23  2  0
 21 24  1  0
 25 26  3  0
 27 28  1  0
 28 29  1  0
 30 22  1  0
 29 30  1  0
 30 31  1  0
 27 32  1  0
 31 32  1  0
 33 34  2  0
 26 35  1  0
 34 35  1  0
 35 36  2  0
 36 37  1  0
 24 38  1  0
 33 38  1  0
 37 38  2  0
  9 39  1  0
 30 39  1  0
M  END
