x1311-x2600
     RDKit          3D

 38 41  0  0  0  0  0  0  0  0999 V2000
    5.7400   -4.9270   20.0500 O   0  0  0  0  0  0  0  0  0  0  0  0
    6.5720   -4.7140   20.9570 C   0  0  0  0  0  0  0  0  0  0  0  0
    8.0800   -4.4710   20.7410 C   0  0  0  0  0  0  0  0  0  0  0  0
    6.1470   -4.6140   22.4320 C   0  0  2  0  0  0  0  0  0  0  0  0
    3.8680   -7.8850   25.1810 O   0  0  0  0  0  0  0  0  0  0  0  0
    1.9920   -6.0780   24.8890 O   0  0  0  0  0  0  0  0  0  0  0  0
   13.7470   -2.3420   20.6120 N   0  0  0  0  0  0  0  0  0  0  0  0
    8.0870    0.3660   21.6770 C   0  0  0  0  0  0  0  0  0  0  0  0
    8.5840    1.3550   21.0950 O   0  0  0  0  0  0  0  0  0  0  0  0
    8.5290   -0.0790   23.0430 C   0  0  0  0  0  0  0  0  0  0  0  0
    7.0890   -0.4620   21.1980 N   0  0  0  0  0  0  0  0  0  0  0  0
   13.0290   -1.5740   21.5530 C   0  0  0  0  0  0  0  0  0  0  0  0
    5.6160   -3.2690   22.6530 C   0  0  0  0  0  0  0  0  0  0  0  0
    6.4920   -2.2410   22.3870 C   0  0  0  0  0  0  0  0  0  0  0  0
    6.2370   -1.6330   21.1750 C   0  0  0  0  0  0  0  0  0  0  0  0
    8.1690   -5.8390   23.0480 C   0  0  0  0  0  0  0  0  0  0  0  0
    9.3330   -6.0810   23.7780 C   0  0  0  0  0  0  0  0  0  0  0  0
    9.7410   -5.0310   24.8280 C   0  0  0  0  0  0  0  0  0  0  0  0
    8.9270   -3.7810   25.0610 C   0  0  0  0  0  0  0  0  0  0  0  0
    7.7050   -3.6450   24.2190 C   0  0  0  0  0  0  0  0  0  0  0  0
    7.3720   -4.7070   23.2310 C   0  0  0  0  0  0  0  0  0  0  0  0
    4.5150   -6.4520   22.2210 C   0  0  0  0  0  0  0  0  0  0  0  0
    5.4650   -5.8730   23.1930 C   0  0  2  0  0  0  0  0  0  0  0  0
    4.6200   -5.3400   24.3630 C   0  0  0  0  0  0  0  0  0  0  0  0
    3.3900   -6.6100   24.3540 S   0  0  0  0  0  0  0  0  0  0  0  0
    3.3570   -6.8980   22.7210 C   0  0  0  0  0  0  0  0  0  0  0  0
    6.2830    0.7150   17.5790 N   0  0  0  0  0  0  0  0  0  0  0  0
    6.9350    0.0350   18.6830 C   0  0  0  0  0  0  0  0  0  0  0  0
    6.5500    0.1380   20.1210 C   0  0  0  0  0  0  0  0  0  0  0  0
    5.3460    1.0670   20.3370 C   0  0  0  0  0  0  0  0  0  0  0  0
    4.6980    1.7600   19.1350 C   0  0  0  0  0  0  0  0  0  0  0  0
    5.2410    1.5110   17.8760 C   0  0  0  0  0  0  0  0  0  0  0  0
   10.6280    0.8360   23.9870 C   0  0  0  0  0  0  0  0  0  0  0  0
   11.9950    0.8750   24.0210 C   0  0  0  0  0  0  0  0  0  0  0  0
   12.7740    0.0950   23.2420 C   0  0  0  0  0  0  0  0  0  0  0  0
   12.1730   -0.7640   22.3890 C   0  0  0  0  0  0  0  0  0  0  0  0
   10.8120   -0.8720   22.2860 C   0  0  0  0  0  0  0  0  0  0  0  0
   10.0020   -0.0300   23.1200 C   0  0  0  0  0  0  0  0  0  0  0  0
  1  2  2  0
  2  3  1  0
  4  2  1  0
  8  9  2  0
  8 10  1  0
  8 11  1  0
  7 12  3  0
  4 13  1  6
 13 14  1  0
 11 15  1  0
 14 15  1  0
 16 17  2  0
 17 18  1  0
 18 19  2  0
 19 20  1  0
  4 21  1  0
 16 21  1  0
 20 21  2  0
  4 23  1  0
 23 22  1  6
 23 24  1  0
 25  5  1  0
  6 25  1  0
 24 25  1  0
 22 26  2  0
 25 26  1  0
 27 28  2  0
 11 29  1  0
 28 29  1  0
 29 30  2  0
 30 31  1  0
 27 32  1  0
 31 32  2  0
 33 34  2  0
 34 35  1  0
 12 36  1  0
 35 36  2  0
 36 37  1  0
 10 38  1  0
 33 38  1  0
 37 38  2  0
M  END
