x1311-x2703
     RDKit          3D

 48 52  0  0  0  0  0  0  0  0999 V2000
    7.3470   -1.1990   21.7970 N   0  0  0  0  0  0  0  0  0  0  0  0
    7.5280    2.1150   22.8240 N   0  0  0  0  0  0  0  0  0  0  0  0
    8.8780    1.4140   21.1270 O   0  0  0  0  0  0  0  0  0  0  0  0
    6.9140    0.1130   21.6830 C   0  0  1  0  0  0  0  0  0  0  0  0
    7.8820    1.2390   21.8300 C   0  0  0  0  0  0  0  0  0  0  0  0
   10.1700    2.0780   23.9500 C   0  0  0  0  0  0  0  0  0  0  0  0
    9.2380    1.3310   24.9000 C   0  0  0  0  0  0  0  0  0  0  0  0
    6.1860    4.5910   21.8790 C   0  0  0  0  0  0  0  0  0  0  0  0
   12.5660   -2.0590   24.2910 C   0  0  0  0  0  0  0  0  0  0  0  0
   12.7740   -3.0840   25.2050 C   0  0  0  0  0  0  0  0  0  0  0  0
   12.8030   -0.7180   24.9460 C   0  0  0  0  0  0  0  0  0  0  0  0
    5.7840   -4.6550   20.0170 O   0  0  0  0  0  0  0  0  0  0  0  0
    6.6270   -4.4870   20.9420 C   0  0  0  0  0  0  0  0  0  0  0  0
    8.1450   -4.3040   20.7440 C   0  0  0  0  0  0  0  0  0  0  0  0
    6.2390   -4.4100   22.4180 C   0  0  2  0  0  0  0  0  0  0  0  0
    3.8740   -7.3900   25.4850 O   0  0  0  0  0  0  0  0  0  0  0  0
    2.0920   -5.8400   24.6960 O   0  0  0  0  0  0  0  0  0  0  0  0
    6.3500   -2.2090   21.5280 C   0  0  0  0  0  0  0  0  0  0  0  0
    6.1400   -2.9500   22.6670 C   0  0  0  0  0  0  0  0  0  0  0  0
    6.3230    0.3290   17.8810 N   0  0  0  0  0  0  0  0  0  0  0  0
    5.0620    1.0890   17.7930 C   0  0  0  0  0  0  0  0  0  0  0  0
    4.3010    1.5550   19.0550 C   0  0  0  0  0  0  0  0  0  0  0  0
    4.9180    1.2110   20.4360 C   0  0  0  0  0  0  0  0  0  0  0  0
    6.2360    0.4360   20.3820 C   0  0  0  0  0  0  0  0  0  0  0  0
    6.8370    0.0460   19.2120 C   0  0  0  0  0  0  0  0  0  0  0  0
   11.1110   -1.4770   22.3420 N   0  0  0  0  0  0  0  0  0  0  0  0
   11.2090   -1.9040   23.7040 C   0  0  0  0  0  0  0  0  0  0  0  0
    9.9950   -2.1040   24.3640 C   0  0  0  0  0  0  0  0  0  0  0  0
    8.7350   -1.9040   23.7980 C   0  0  0  0  0  0  0  0  0  0  0  0
    8.6320   -1.4630   22.4610 C   0  0  0  0  0  0  0  0  0  0  0  0
    9.8020   -1.2640   21.7620 C   0  0  0  0  0  0  0  0  0  0  0  0
    9.5000    3.3780   23.4890 C   0  0  0  0  0  0  0  0  0  0  0  0
   10.1410    4.6050   23.5940 C   0  0  0  0  0  0  0  0  0  0  0  0
    9.5520    5.7980   23.1720 C   0  0  0  0  0  0  0  0  0  0  0  0
    8.3210    5.8060   22.6370 C   0  0  0  0  0  0  0  0  0  0  0  0
    7.5680    4.5660   22.4870 C   0  0  0  0  0  0  0  0  0  0  0  0
    8.2060    3.3850   22.9330 C   0  0  0  0  0  0  0  0  0  0  0  0
    8.3300   -5.7260   23.0630 C   0  0  0  0  0  0  0  0  0  0  0  0
    9.2530   -6.1400   23.9960 C   0  0  0  0  0  0  0  0  0  0  0  0
    9.2810   -5.7890   25.3140 C   0  0  0  0  0  0  0  0  0  0  0  0
    8.2190   -4.8770   25.8400 C   0  0  0  0  0  0  0  0  0  0  0  0
    7.1810   -4.3830   24.8480 C   0  0  0  0  0  0  0  0  0  0  0  0
    7.2910   -4.8680   23.4110 C   0  0  0  0  0  0  0  0  0  0  0  0
    4.4160   -6.3480   22.3150 C   0  0  0  0  0  0  0  0  0  0  0  0
    4.8550   -4.9890   22.8520 C   0  0  1  0  0  0  0  0  0  0  0  0
    4.6370   -5.1010   24.3840 C   0  0  0  0  0  0  0  0  0  0  0  0
    3.4280   -6.3700   24.5530 S   0  0  0  0  0  0  0  0  0  0  0  0
    3.6040   -7.0810   23.1030 C   0  0  0  0  0  0  0  0  0  0  0  0
  1  4  1  0
  2  5  1  0
  3  5  2  0
  4  5  1  6
  6  7  1  0
  9 10  1  0
  9 11  1  0
 12 13  2  0
 13 14  1  0
 15 13  1  0
  1 18  1  0
 15 19  1  1
 18 19  1  0
 20 21  2  0
 21 22  1  0
 22 23  2  0
  4 24  1  0
 23 24  1  0
 20 25  1  0
 24 25  2  0
  9 27  1  0
 26 27  2  0
 27 28  1  0
 28 29  2  0
  1 30  1  0
 29 30  1  0
 26 31  1  0
 30 31  2  0
  6 32  1  0
 32 33  2  0
 33 34  1  0
 34 35  2  0
  8 36  1  0
 35 36  1  0
  2 37  1  0
 32 37  1  0
 36 37  2  0
 38 39  2  0
 39 40  1  0
 40 41  2  0
 41 42  1  0
 15 43  1  0
 38 43  1  0
 42 43  2  0
 15 45  1  0
 45 44  1  6
 45 46  1  0
 47 16  1  0
 17 47  1  0
 46 47  1  0
 44 48  2  0
 47 48  1  0
M  END
