x1311-x3117-x2052
     RDKit          3D

 63 69  0  0  0  0  0  0  0  0999 V2000
    7.7850    1.8520   22.6620 N   0  0  0  0  0  0  0  0  0  0  0  0
    9.2470    1.3700   21.1050 O   0  0  0  0  0  0  0  0  0  0  0  0
    7.4070   -0.1480   21.1160 C   0  0  2  0  0  0  0  0  0  0  0  0
    8.2150    1.0510   21.6270 C   0  0  0  0  0  0  0  0  0  0  0  0
   12.4480   -1.8400   24.4190 C   0  0  0  0  0  0  0  0  0  0  0  0
   12.6090   -0.6050   25.2340 C   0  0  0  0  0  0  0  0  0  0  0  0
   13.4180   -1.8530   23.3160 C   0  0  0  0  0  0  0  0  0  0  0  0
   12.7440   -3.1060   25.2390 C   0  0  0  0  0  0  0  0  0  0  0  0
    5.6010   -1.2590   25.1470 C   0  0  0  0  0  0  0  0  0  0  0  0
    4.1840   -1.1910   25.3640 O   0  0  0  0  0  0  0  0  0  0  0  0
    6.5120   -0.7280   26.1230 N   0  0  0  0  0  0  0  0  0  0  0  0
    5.6940   -3.9750   19.7850 O   0  0  0  0  0  0  0  0  0  0  0  0
    5.4370    2.3940   30.7050 O   0  0  0  0  0  0  0  0  0  0  0  0
    6.6720   -3.2350   20.1100 C   0  0  0  0  0  0  0  0  0  0  0  0
    7.6280   -2.9630   18.9560 C   0  0  0  0  0  0  0  0  0  0  0  0
    6.3230    3.5030   30.7680 C   0  0  0  0  0  0  0  0  0  0  0  0
    5.2790   -4.9330   20.9260 O   0  0  0  0  0  0  0  0  0  0  0  0
    6.2980   -4.8200   21.6100 C   0  0  0  0  0  0  0  0  0  0  0  0
    7.3150   -5.7450   21.5770 C   0  0  0  0  0  0  0  0  0  0  0  0
    6.2530    0.6370   17.5620 N   0  0  0  0  0  0  0  0  0  0  0  0
    5.0620    1.4490   17.7390 C   0  0  0  0  0  0  0  0  0  0  0  0
    4.5040    1.7650   19.1250 C   0  0  0  0  0  0  0  0  0  0  0  0
    5.1890    1.2650   20.3950 C   0  0  0  0  0  0  0  0  0  0  0  0
    6.4770    0.4290   20.1850 C   0  0  0  0  0  0  0  0  0  0  0  0
    6.9090    0.1630   18.7470 C   0  0  0  0  0  0  0  0  0  0  0  0
    9.6210    5.2120   24.1280 O   0  0  0  0  0  0  0  0  0  0  0  0
   10.4560    4.0820   23.8970 C   0  0  0  0  0  0  0  0  0  0  0  0
    9.6590    2.9290   23.9420 C   0  0  0  0  0  0  0  0  0  0  0  0
    8.6480    2.9380   22.9750 C   0  0  0  0  0  0  0  0  0  0  0  0
    7.9060    4.1190   23.0120 C   0  0  0  0  0  0  0  0  0  0  0  0
    8.6040    5.3310   23.2230 C   0  0  0  0  0  0  0  0  0  0  0  0
    9.6630   -2.1950   21.8940 C   0  0  0  0  0  0  0  0  0  0  0  0
   10.8660   -2.2620   22.5410 C   0  0  0  0  0  0  0  0  0  0  0  0
   11.1090   -1.7730   23.7920 C   0  0  0  0  0  0  0  0  0  0  0  0
   10.0730   -1.1710   24.4790 C   0  0  0  0  0  0  0  0  0  0  0  0
    8.8550   -1.0370   23.9600 C   0  0  0  0  0  0  0  0  0  0  0  0
    8.5070   -1.5150   22.6270 C   0  0  0  0  0  0  0  0  0  0  0  0
    6.9010   -2.7060   21.4620 N   0  0  0  0  0  0  0  0  0  0  0  0
    7.2590   -1.3750   22.0100 C   0  0  2  0  0  0  0  0  0  0  0  0
    6.1700   -1.0920   22.8080 C   0  0  0  0  0  0  0  0  0  0  0  0
    6.2580   -1.8560   23.9660 C   0  0  2  0  0  0  0  0  0  0  0  0
    5.9120   -3.1790   23.8190 C   0  0  2  0  0  0  0  0  0  0  0  0
    6.5750   -3.6490   22.5290 C   0  0  1  0  0  0  0  0  0  0  0  0
    6.2440    2.1000   28.6370 N   0  0  0  0  0  0  0  0  0  0  0  0
    6.5380    1.3490   27.4370 C   0  0  0  0  0  0  0  0  0  0  0  0
    6.1750   -0.1060   27.3040 C   0  0  0  0  0  0  0  0  0  0  0  0
    5.4670   -0.8140   28.4670 C   0  0  0  0  0  0  0  0  0  0  0  0
    5.1650    0.0360   29.7400 C   0  0  0  0  0  0  0  0  0  0  0  0
    5.6240    1.5170   29.6780 C   0  0  0  0  0  0  0  0  0  0  0  0
    8.1720   -5.6630   23.1490 C   0  0  0  0  0  0  0  0  0  0  0  0
    9.2310   -6.1510   23.9000 C   0  0  0  0  0  0  0  0  0  0  0  0
    9.9300   -5.3550   24.7980 C   0  0  0  0  0  0  0  0  0  0  0  0
    9.6530   -4.0210   25.0150 C   0  0  0  0  0  0  0  0  0  0  0  0
    8.4930   -3.4730   24.2070 C   0  0  0  0  0  0  0  0  0  0  0  0
    7.7430   -4.3500   23.2470 C   0  0  0  0  0  0  0  0  0  0  0  0
    4.2580   -6.7590   25.5450 O   0  0  0  0  0  0  0  0  0  0  0  0
    1.8500   -5.8450   24.7430 O   0  0  0  0  0  0  0  0  0  0  0  0
    4.5840   -6.5900   22.3360 C   0  0  0  0  0  0  0  0  0  0  0  0
    5.2650   -5.6250   22.9850 C   0  0  0  0  0  0  0  0  0  0  0  0
    4.1140   -4.8060   23.5140 C   0  0  1  0  0  0  0  0  0  0  0  0
    3.3650   -6.1600   24.3670 S   0  0  0  0  0  0  0  0  0  0  0  0
    3.4610   -7.0350   22.9590 C   0  0  0  0  0  0  0  0  0  0  0  0
    4.4290   -3.4490   24.0620 C   0  0  0  0  0  0  0  0  0  0  0  0
  1  4  1  0
  2  4  2  0
  3  4  1  1
  5  6  1  0
  5  7  1  0
  5  8  1  0
  9 10  2  0
  9 11  1  0
 12 14  2  0
 14 15  1  0
 13 16  1  0
 17 18  2  0
 18 19  1  0
 20 21  2  0
 21 22  1  0
 22 23  2  0
  3 24  1  0
 23 24  1  0
 20 25  1  0
 24 25  2  0
 26 27  1  0
 27 28  1  0
  1 29  1  0
 28 29  1  0
 29 30  1  0
 26 31  1  0
 30 31  1  0
 32 33  2  0
  5 34  1  0
 33 34  1  0
 34 35  2  0
 35 36  1  0
 32 37  1  0
 36 37  2  0
 14 38  1  0
  3 39  1  0
 39 37  1  1
 38 39  1  0
 39 40  1  0
 41  9  1  1
 40 41  1  0
 41 42  1  0
 43 18  1  6
 38 43  1  0
 42 43  1  0
 44 45  2  0
 11 46  1  0
 45 46  1  0
 46 47  2  0
 47 48  1  0
 13 49  1  0
 44 49  1  0
 48 49  2  0
 50 51  2  0
 51 52  1  0
 52 53  2  0
 53 54  1  0
 43 55  1  0
 50 55  1  0
 54 55  2  0
 58 59  1  0
 59 60  1  0
 61 56  1  0
 57 61  1  0
 60 61  1  0
 58 62  2  0
 61 62  1  0
 42 63  1  6
 60 63  1  1
M  END
