x1311-x3113-x2052
     RDKit          3D

 62 67  0  0  0  0  0  0  0  0999 V2000
    8.5160    1.0690   23.1630 N   0  0  0  0  0  0  0  0  0  0  0  0
    8.9190    2.1490   21.0010 O   0  0  0  0  0  0  0  0  0  0  0  0
   11.7590    3.9850   23.4410 O   0  0  0  0  0  0  0  0  0  0  0  0
    7.7650   -0.2000   21.0400 C   0  0  2  0  0  0  0  0  0  0  0  0
    8.4160    1.0430   21.7250 C   0  0  0  0  0  0  0  0  0  0  0  0
    9.3320    2.1510   23.7660 C   0  0  0  0  0  0  0  0  0  0  0  0
   10.7070    1.9250   23.5660 C   0  0  0  0  0  0  0  0  0  0  0  0
   11.4800    2.9990   22.7790 C   0  0  0  0  0  0  0  0  0  0  0  0
   12.7490    4.5700   22.9830 C   0  0  0  0  0  0  0  0  0  0  0  0
   12.6460   -2.0900   24.3320 C   0  0  0  0  0  0  0  0  0  0  0  0
   13.5290   -2.2070   23.2810 C   0  0  0  0  0  0  0  0  0  0  0  0
   12.9540   -3.1480   25.4060 C   0  0  0  0  0  0  0  0  0  0  0  0
   12.8120   -0.7330   25.0020 C   0  0  0  0  0  0  0  0  0  0  0  0
    5.5070   -1.2990   24.9810 C   0  0  0  0  0  0  0  0  0  0  0  0
    4.3010   -1.1430   25.0830 O   0  0  0  0  0  0  0  0  0  0  0  0
    6.5130   -0.8960   25.9680 N   0  0  0  0  0  0  0  0  0  0  0  0
    5.7570   -3.9250   19.8340 O   0  0  0  0  0  0  0  0  0  0  0  0
    5.2860    2.0390   30.5030 O   0  0  0  0  0  0  0  0  0  0  0  0
    6.7680   -3.2100   20.1960 C   0  0  0  0  0  0  0  0  0  0  0  0
    7.6480   -2.9490   19.0180 C   0  0  0  0  0  0  0  0  0  0  0  0
    6.1710    3.1540   30.6060 C   0  0  0  0  0  0  0  0  0  0  0  0
    4.7990   -5.2110   21.0730 O   0  0  0  0  0  0  0  0  0  0  0  0
    5.8860   -5.1310   21.6210 C   0  0  0  0  0  0  0  0  0  0  0  0
    6.8080   -6.1690   21.5370 C   0  0  0  0  0  0  0  0  0  0  0  0
    6.2770    0.4840   17.6910 N   0  0  0  0  0  0  0  0  0  0  0  0
    5.1380    1.3570   17.8840 C   0  0  0  0  0  0  0  0  0  0  0  0
    4.7550    1.7880   19.3130 C   0  0  0  0  0  0  0  0  0  0  0  0
    5.6850    1.2270   20.4340 C   0  0  0  0  0  0  0  0  0  0  0  0
    6.7500    0.4080   20.0690 C   0  0  0  0  0  0  0  0  0  0  0  0
    6.9540    0.1000   18.7460 C   0  0  0  0  0  0  0  0  0  0  0  0
    9.8560   -1.4380   21.9040 C   0  0  0  0  0  0  0  0  0  0  0  0
   11.1140   -1.6180   22.4860 C   0  0  0  0  0  0  0  0  0  0  0  0
   11.2440   -1.9770   23.8470 C   0  0  0  0  0  0  0  0  0  0  0  0
   10.0680   -2.1510   24.5530 C   0  0  0  0  0  0  0  0  0  0  0  0
    8.8540   -1.9690   23.9580 C   0  0  0  0  0  0  0  0  0  0  0  0
    8.6930   -1.6070   22.6280 C   0  0  0  0  0  0  0  0  0  0  0  0
    7.1240   -2.7790   21.5630 N   0  0  0  0  0  0  0  0  0  0  0  0
    7.4490   -1.4140   22.0550 C   0  0  2  0  0  0  0  0  0  0  0  0
    6.4850   -0.9700   22.9330 C   0  0  0  0  0  0  0  0  0  0  0  0
    6.0900   -1.9960   23.7410 C   0  0  2  0  0  0  0  0  0  0  0  0
    5.5010   -3.0430   23.0660 C   0  0  1  0  0  0  0  0  0  0  0  0
    6.5460   -3.7440   22.4250 C   0  0  1  0  0  0  0  0  0  0  0  0
    6.1890    1.9360   28.3100 N   0  0  0  0  0  0  0  0  0  0  0  0
    6.4450    1.1340   27.2330 C   0  0  0  0  0  0  0  0  0  0  0  0
    6.1510   -0.2000   27.1580 C   0  0  0  0  0  0  0  0  0  0  0  0
    5.5310   -0.8190   28.2460 C   0  0  0  0  0  0  0  0  0  0  0  0
    5.2430   -0.0520   29.3660 C   0  0  0  0  0  0  0  0  0  0  0  0
    5.5830    1.3080   29.3660 C   0  0  0  0  0  0  0  0  0  0  0  0
    8.3200   -5.5240   22.9160 C   0  0  0  0  0  0  0  0  0  0  0  0
    9.1540   -6.2130   23.8120 C   0  0  0  0  0  0  0  0  0  0  0  0
    9.1690   -5.8800   25.1370 C   0  0  0  0  0  0  0  0  0  0  0  0
    8.2960   -4.8100   25.6260 C   0  0  0  0  0  0  0  0  0  0  0  0
    7.4830   -4.1450   24.7330 C   0  0  0  0  0  0  0  0  0  0  0  0
    7.4850   -4.4910   23.3780 C   0  0  0  0  0  0  0  0  0  0  0  0
    4.1990   -7.4840   25.2520 O   0  0  0  0  0  0  0  0  0  0  0  0
    1.8860   -6.2590   24.9540 O   0  0  0  0  0  0  0  0  0  0  0  0
    4.5310   -6.6720   22.3370 C   0  0  0  0  0  0  0  0  0  0  0  0
    5.3160   -5.9250   23.1380 C   0  0  0  0  0  0  0  0  0  0  0  0
    4.2040   -5.1270   23.7760 C   0  0  1  0  0  0  0  0  0  0  0  0
    3.4060   -6.5180   24.5170 S   0  0  0  0  0  0  0  0  0  0  0  0
    3.3700   -7.1050   22.9340 C   0  0  0  0  0  0  0  0  0  0  0  0
    4.7870   -3.8260   24.1760 C   0  0  0  0  0  0  0  0  0  0  0  0
  1  5  1  0
  2  5  2  0
  4  5  1  1
  1  6  1  0
  6  7  1  0
  3  8  1  0
  7  8  1  0
  3  9  1  0
 10 11  1  0
 10 12  1  0
 10 13  1  0
 14 15  2  0
 14 16  1  0
 17 19  2  0
 19 20  1  0
 18 21  1  0
 22 23  2  0
 23 24  1  0
 25 26  2  0
 26 27  1  0
 27 28  2  0
  4 29  1  0
 28 29  1  0
 25 30  1  0
 29 30  2  0
 31 32  2  0
 10 33  1  0
 32 33  1  0
 33 34  2  0
 34 35  1  0
 31 36  1  0
 35 36  2  0
 19 37  1  0
  4 38  1  0
 38 36  1  1
 37 38  1  0
 38 39  1  0
 40 14  1  1
 39 40  1  0
 40 41  1  0
 42 23  1  6
 37 42  1  0
 41 42  1  0
 43 44  2  0
 16 45  1  0
 44 45  1  0
 45 46  2  0
 46 47  1  0
 18 48  1  0
 43 48  1  0
 47 48  2  0
 49 50  2  0
 50 51  1  0
 51 52  2  0
 52 53  1  0
 42 54  1  0
 49 54  1  0
 53 54  2  0
 57 58  1  0
 58 59  1  0
 60 55  1  0
 56 60  1  0
 59 60  1  0
 57 61  2  0
 60 61  1  0
 41 62  1  1
 59 62  1  1
M  END
