x1334-x3113-x0540
     RDKit          3D

 52 57  0  0  0  0  0  0  0  0999 V2000
    8.2290    1.0400   23.1890 N   0  0  0  0  0  0  0  0  0  0  0  0
    8.8600    1.8090   21.1820 O   0  0  0  0  0  0  0  0  0  0  0  0
   11.7310    3.7990   22.2650 O   0  0  0  0  0  0  0  0  0  0  0  0
    7.4870   -0.1380   21.0980 C   0  0  1  0  0  0  0  0  0  0  0  0
    8.2240    0.9440   21.8210 C   0  0  0  0  0  0  0  0  0  0  0  0
    9.1330    2.0390   23.7810 C   0  0  0  0  0  0  0  0  0  0  0  0
   10.5290    1.8980   23.2830 C   0  0  0  0  0  0  0  0  0  0  0  0
   11.4630    3.0410   23.3860 C   0  0  0  0  0  0  0  0  0  0  0  0
   12.9260    4.5060   22.5070 C   0  0  0  0  0  0  0  0  0  0  0  0
   12.0500   -2.1600   24.6110 C   0  0  0  0  0  0  0  0  0  0  0  0
   13.4730   -2.3810   24.1360 C   0  0  0  0  0  0  0  0  0  0  0  0
   11.7440   -3.2950   25.5420 C   0  0  0  0  0  0  0  0  0  0  0  0
   11.9650   -0.7640   25.1360 C   0  0  0  0  0  0  0  0  0  0  0  0
    2.8250    1.5250   24.4330 O   0  0  0  0  0  0  0  0  0  0  0  0
    2.9190    2.4320   23.6060 C   0  0  0  0  0  0  0  0  0  0  0  0
    4.0860    2.8160   22.9960 N   0  0  0  0  0  0  0  0  0  0  0  0
    5.1090    1.8400   22.6760 C   0  0  0  0  0  0  0  0  0  0  0  0
    4.5630    0.8700   21.7190 C   0  0  0  0  0  0  0  0  0  0  0  0
    1.8570    3.2040   23.1710 N   0  0  0  0  0  0  0  0  0  0  0  0
    7.2530   -3.1810   19.0060 C   0  0  0  0  0  0  0  0  0  0  0  0
    5.7350   -4.3820   19.9030 O   0  0  0  0  0  0  0  0  0  0  0  0
    7.6640   -5.6710   27.8310 Cl  0  0  0  0  0  0  0  0  0  0  0  0
    6.5680   -3.4560   19.9590 C   0  0  0  0  0  0  0  0  0  0  0  0
    9.4300   -2.3040   23.7360 C   0  0  1  0  0  0  0  0  0  0  0  0
    6.2290    0.6590   17.7830 N   0  0  0  0  0  0  0  0  0  0  0  0
    5.0440    1.1260   17.9400 C   0  0  0  0  0  0  0  0  0  0  0  0
    4.4700    1.2140   19.1740 C   0  0  0  0  0  0  0  0  0  0  0  0
    5.1930    0.7980   20.3430 C   0  0  0  0  0  0  0  0  0  0  0  0
    6.4700    0.3330   20.1550 C   0  0  0  0  0  0  0  0  0  0  0  0
    6.9240    0.2720   18.8340 C   0  0  0  0  0  0  0  0  0  0  0  0
    9.0390   -3.1120   22.6080 C   0  0  0  0  0  0  0  0  0  0  0  0
   10.2510   -3.3790   23.2690 C   0  0  0  0  0  0  0  0  0  0  0  0
   11.2030   -2.4190   23.5050 C   0  0  1  0  0  0  0  0  0  0  0  0
   10.6710   -1.5310   22.8110 C   0  0  0  0  0  0  0  0  0  0  0  0
    9.6460   -0.9660   22.1620 C   0  0  0  0  0  0  0  0  0  0  0  0
    8.6270   -1.7940   22.2200 C   0  0  1  0  0  0  0  0  0  0  0  0
    0.5380    4.6370   24.5500 C   0  0  0  0  0  0  0  0  0  0  0  0
   -0.6860    4.9460   25.0730 C   0  0  0  0  0  0  0  0  0  0  0  0
   -1.7290    4.5280   24.2840 C   0  0  0  0  0  0  0  0  0  0  0  0
   -1.7310    3.2960   23.7300 C   0  0  0  0  0  0  0  0  0  0  0  0
   -0.4690    2.8390   23.3200 C   0  0  0  0  0  0  0  0  0  0  0  0
    0.6330    3.3320   24.0190 C   0  0  0  0  0  0  0  0  0  0  0  0
    6.7880   -2.5690   21.1930 C   0  0  0  0  0  0  0  0  0  0  0  0
    7.7540   -1.6310   20.9540 C   0  0  0  0  0  0  0  0  0  0  0  0
    8.0660   -1.7120   23.4290 N   0  0  0  0  0  0  0  0  0  0  0  0
    6.9480   -2.7010   23.4410 C   0  0  0  0  0  0  0  0  0  0  0  0
    6.0780   -2.7020   22.3200 C   0  0  0  0  0  0  0  0  0  0  0  0
   10.1140   -4.7340   24.8190 C   0  0  0  0  0  0  0  0  0  0  0  0
    9.3580   -3.5600   24.6920 C   0  0  0  0  0  0  0  0  0  0  0  0
    8.0770   -3.5030   25.8550 S   0  0  0  0  0  0  0  0  0  0  0  0
    8.5600   -5.0380   26.5110 C   0  0  0  0  0  0  0  0  0  0  0  0
    9.6460   -5.6570   25.9240 C   0  0  0  0  0  0  0  0  0  0  0  0
  1  5  1  0
  2  5  2  0
  4  5  1  6
  1  6  1  0
  6  7  1  0
  3  8  1  0
  7  8  1  0
  3  9  1  0
 10 11  1  0
 10 12  1  0
 10 13  1  0
 14 15  2  0
 15 16  1  0
 16 17  1  0
 17 18  1  0
 15 19  1  0
 20 23  1  0
 21 23  2  0
 25 26  2  0
 26 27  1  0
 18 28  1  0
 27 28  2  0
  4 29  1  0
 28 29  1  0
 25 30  1  0
 29 30  2  0
 31 32  2  0
 33 10  1  1
 32 33  1  0
 24 34  1  0
 33 34  1  0
 34 35  2  0
 36 31  1  6
 35 36  1  0
 37 38  1  0
 38 39  1  0
 39 40  1  0
 40 41  1  0
 19 42  1  0
 37 42  1  0
 41 42  1  0
 23 43  1  0
  4 44  1  0
 36 44  1  0
 43 44  2  0
 24 45  1  0
 36 45  1  0
 45 46  1  0
 43 47  1  0
 46 47  1  0
 24 49  1  6
 48 49  2  0
 49 50  1  0
 22 51  1  0
 50 51  1  0
 48 52  1  0
 51 52  2  0
M  END
