x1334-x2643
     RDKit          3D

 32 36  0  0  0  0  0  0  0  0999 V2000
    7.4390   -3.0460   18.5890 C   0  0  0  0  0  0  0  0  0  0  0  0
    5.5780   -4.0950   19.7160 O   0  0  0  0  0  0  0  0  0  0  0  0
    7.2280   -5.9340   28.3590 Cl  0  0  0  0  0  0  0  0  0  0  0  0
    6.5190   -3.2900   19.7890 C   0  0  0  0  0  0  0  0  0  0  0  0
    9.3340   -2.9310   24.2720 C   0  0  0  0  0  0  0  0  0  0  0  0
    6.7010   -1.0950   21.0910 N   0  0  0  0  0  0  0  0  0  0  0  0
    8.4180    0.7060   21.9600 O   0  0  0  0  0  0  0  0  0  0  0  0
    7.8670   -0.5920   21.7570 C   0  0  0  0  0  0  0  0  0  0  0  0
    6.8330   -2.5200   21.0850 C   0  0  2  0  0  0  0  0  0  0  0  0
    8.2080   -2.6170   21.2200 C   0  0  0  0  0  0  0  0  0  0  0  0
    8.6330   -1.8700   22.2440 C   0  0  2  0  0  0  0  0  0  0  0  0
    8.1750   -2.4320   23.5080 N   0  0  0  0  0  0  0  0  0  0  0  0
    7.2860   -3.5420   23.1150 C   0  0  0  0  0  0  0  0  0  0  0  0
    6.1460   -3.1260   22.3760 C   0  0  0  0  0  0  0  0  0  0  0  0
    9.7420   -5.2010   25.4720 C   0  0  0  0  0  0  0  0  0  0  0  0
    9.0480   -4.0110   25.2780 C   0  0  0  0  0  0  0  0  0  0  0  0
    7.7600   -3.8600   26.3790 S   0  0  0  0  0  0  0  0  0  0  0  0
    8.1620   -5.3440   27.0540 C   0  0  0  0  0  0  0  0  0  0  0  0
    9.2490   -5.9520   26.4600 C   0  0  0  0  0  0  0  0  0  0  0  0
    6.3630    0.7230   17.6200 N   0  0  0  0  0  0  0  0  0  0  0  0
    6.9020   -0.1360   18.6840 C   0  0  0  0  0  0  0  0  0  0  0  0
    6.1850   -0.2850   20.0450 C   0  0  0  0  0  0  0  0  0  0  0  0
    4.8720    0.5340   20.1750 C   0  0  0  0  0  0  0  0  0  0  0  0
    4.3290    1.4100   19.0800 C   0  0  0  0  0  0  0  0  0  0  0  0
    5.1250    1.4790   17.7950 C   0  0  0  0  0  0  0  0  0  0  0  0
   13.3590   -0.2560   22.5670 Cl  0  0  0  0  0  0  0  0  0  0  0  0
   11.8420   -0.1090   23.2260 C   0  0  0  0  0  0  0  0  0  0  0  0
   11.5790    0.2670   24.4800 C   0  0  0  0  0  0  0  0  0  0  0  0
   10.2710    0.3000   24.7720 C   0  0  0  0  0  0  0  0  0  0  0  0
    9.6530   -0.0730   23.6380 C   0  0  0  0  0  0  0  0  0  0  0  0
   10.5080   -0.3690   22.5680 C   0  0  2  0  0  0  0  0  0  0  0  0
   10.0990   -1.6490   22.2530 C   0  0  0  0  0  0  0  0  0  0  0  0
  1  4  1  0
  2  4  2  0
  6  8  1  0
  7  8  2  0
  9  4  1  6
  6  9  1  0
  9 10  1  0
  8 11  1  0
 10 11  1  0
  5 12  1  0
 11 12  1  0
 12 13  1  0
  9 14  1  0
 13 14  1  0
  5 16  1  0
 15 16  2  0
 16 17  1  0
  3 18  1  0
 17 18  1  0
 15 19  1  0
 18 19  2  0
 20 21  2  0
  6 22  1  0
 21 22  1  0
 22 23  2  0
 23 24  1  0
 20 25  1  0
 24 25  2  0
 26 27  1  0
 27 28  2  0
 28 29  1  0
 29 30  2  0
 27 31  1  0
 30 31  1  0
 11 32  1  1
 31 32  1  1
M  END
