x1334-x0978-x2694-x0426-x0691
     RDKit          3D

 83 90  0  0  0  0  0  0  0  0999 V2000
    7.7050    2.2130   22.5790 N   0  0  0  0  0  0  0  0  0  0  0  0
    9.2470    1.6170   21.1220 O   0  0  0  0  0  0  0  0  0  0  0  0
   10.8200    6.7880   24.0430 O   0  0  0  0  0  0  0  0  0  0  0  0
    7.3970    0.1360   21.1140 C   0  0  2  0  0  0  0  0  0  0  0  0
    8.1840    1.3660   21.6140 C   0  0  0  0  0  0  0  0  0  0  0  0
   10.2790    1.8230   23.9700 C   0  0  0  0  0  0  0  0  0  0  0  0
   11.8750    6.5960   24.9810 C   0  0  0  0  0  0  0  0  0  0  0  0
   12.3990   -1.2290   23.0140 C   0  0  0  0  0  0  0  0  0  0  0  0
   12.8580    0.1970   23.2870 C   0  0  0  0  0  0  0  0  0  0  0  0
   12.9670   -1.7160   21.6880 C   0  0  0  0  0  0  0  0  0  0  0  0
   12.9480   -2.1460   24.1390 C   0  0  0  0  0  0  0  0  0  0  0  0
    2.3400    2.2990   23.8640 C   0  0  0  0  0  0  0  0  0  0  0  0
    2.6150    1.1800   24.2500 O   0  0  0  0  0  0  0  0  0  0  0  0
    2.9760    2.9190   22.7890 N   0  0  0  0  0  0  0  0  0  0  0  0
    4.3230    2.5530   22.3380 C   0  0  0  0  0  0  0  0  0  0  0  0
    4.3630    1.2160   21.6130 C   0  0  0  0  0  0  0  0  0  0  0  0
    3.0370    4.5830   25.5490 F   0  0  0  0  0  0  0  0  0  0  0  0
    1.7580   -5.7490   23.2590 N   0  0  0  0  0  0  0  0  0  0  0  0
    2.0580   -7.7850   25.3130 C   0  0  0  0  0  0  0  0  0  0  0  0
    4.2510   -8.0580   24.3690 O   0  0  0  0  0  0  0  0  0  0  0  0
    2.9160   -7.6970   24.0410 C   0  0  2  0  0  0  0  0  0  0  0  0
    0.6990   -7.2430   21.8780 O   0  0  0  0  0  0  0  0  0  0  0  0
    2.9610   -6.3980   23.2030 C   0  0  2  0  0  0  0  0  0  0  0  0
    3.9210   -4.1660   22.9670 O   0  0  0  0  0  0  0  0  0  0  0  0
    0.6660   -6.2310   22.5660 C   0  0  0  0  0  0  0  0  0  0  0  0
   -0.6130   -5.4020   22.7180 C   0  0  0  0  0  0  0  0  0  0  0  0
    3.8750   -6.7360   26.3300 O   0  0  0  0  0  0  0  0  0  0  0  0
    5.6160   -5.0590   26.9650 O   0  0  0  0  0  0  0  0  0  0  0  0
    6.0340   -5.5550   19.8500 O   0  0  0  0  0  0  0  0  0  0  0  0
    6.7670   -4.9510   20.5860 C   0  0  0  0  0  0  0  0  0  0  0  0
    7.9650   -3.9930   20.2630 C   0  0  0  0  0  0  0  0  0  0  0  0
    3.3360   -0.7790   26.2320 F   0  0  0  0  0  0  0  0  0  0  0  0
    4.5770   -5.4980   26.0650 S   0  0  0  0  0  0  0  0  0  0  0  0
    6.5470   -1.7710   19.0630 C   0  0  0  0  0  0  0  0  0  0  0  0
    5.5530   -3.7180   19.7290 O   0  0  0  0  0  0  0  0  0  0  0  0
    7.3400   -5.8490   28.3020 Cl  0  0  0  0  0  0  0  0  0  0  0  0
    6.1290   -2.6510   20.0760 C   0  0  0  0  0  0  0  0  0  0  0  0
    9.9060   -2.7590   24.3760 C   0  0  0  0  0  0  0  0  0  0  0  0
    6.2900    0.7790   17.6790 N   0  0  0  0  0  0  0  0  0  0  0  0
    5.0730    1.2690   17.8300 C   0  0  0  0  0  0  0  0  0  0  0  0
    4.4320    1.4200   19.0600 C   0  0  0  0  0  0  0  0  0  0  0  0
    5.0640    1.0680   20.2520 C   0  0  0  0  0  0  0  0  0  0  0  0
    6.3790    0.5720   20.0870 C   0  0  0  0  0  0  0  0  0  0  0  0
    6.8820    0.4560   18.8030 C   0  0  0  0  0  0  0  0  0  0  0  0
    9.1410   -1.4630   24.1770 N   0  0  0  0  0  0  0  0  0  0  0  0
   10.2900   -0.5840   24.0260 O   0  0  0  0  0  0  0  0  0  0  0  0
   10.8980   -1.2940   23.0310 C   0  0  0  0  0  0  0  0  0  0  0  0
    9.7270   -1.9630   22.2270 C   0  0  0  0  0  0  0  0  0  0  0  0
    8.5330   -1.5940   22.8750 C   0  0  2  0  0  0  0  0  0  0  0  0
    9.6620    3.2190   23.5800 C   0  0  0  0  0  0  0  0  0  0  0  0
   10.5000    4.3290   23.9690 C   0  0  0  0  0  0  0  0  0  0  0  0
   10.0950    5.6700   23.7000 C   0  0  0  0  0  0  0  0  0  0  0  0
    8.8620    5.9360   23.0330 C   0  0  0  0  0  0  0  0  0  0  0  0
    8.0360    4.8580   22.6410 C   0  0  0  0  0  0  0  0  0  0  0  0
    8.4420    3.3790   22.9260 C   0  0  0  0  0  0  0  0  0  0  0  0
    1.8030    4.1100   25.3710 C   0  0  0  0  0  0  0  0  0  0  0  0
    1.2840    3.0450   24.6090 C   0  0  0  0  0  0  0  0  0  0  0  0
   -0.1360    2.5010   24.4010 C   0  0  0  0  0  0  0  0  0  0  0  0
   -1.2390    3.0740   25.0370 C   0  0  0  0  0  0  0  0  0  0  0  0
   -0.9250    4.1370   25.8340 C   0  0  0  0  0  0  0  0  0  0  0  0
    0.4290    4.5580   25.9500 C   0  0  0  0  0  0  0  0  0  0  0  0
    2.9770   -2.0630   26.1260 C   0  0  0  0  0  0  0  0  0  0  0  0
    4.0060   -3.0050   26.1420 C   0  0  0  0  0  0  0  0  0  0  0  0
    3.4090   -4.1490   26.0330 C   0  0  0  0  0  0  0  0  0  0  0  0
    2.0930   -4.6440   25.9040 C   0  0  0  0  0  0  0  0  0  0  0  0
    1.0790   -3.7580   25.8810 C   0  0  0  0  0  0  0  0  0  0  0  0
    1.5870   -2.3320   26.0120 C   0  0  0  0  0  0  0  0  0  0  0  0
    6.3350   -5.1340   21.9840 C   0  0  1  0  0  0  0  0  0  0  0  0
    5.1640   -5.7960   22.0390 C   0  0  0  0  0  0  0  0  0  0  0  0
    4.2870   -5.5060   23.2660 C   0  0  2  0  0  0  0  0  0  0  0  0
    5.1720   -5.5710   24.4920 N   0  0  0  0  0  0  0  0  0  0  0  0
    6.6630   -5.2880   24.3920 C   0  0  0  0  0  0  0  0  0  0  0  0
    7.2130   -5.7570   23.0490 C   0  0  0  0  0  0  0  0  0  0  0  0
    6.3550   -2.3770   21.5050 N   0  0  0  0  0  0  0  0  0  0  0  0
    7.1570   -1.0840   22.1260 C   0  0  2  0  0  0  0  0  0  0  0  0
    7.9480   -2.5500   23.7600 N   0  0  0  0  0  0  0  0  0  0  0  0
    7.6760   -3.7280   23.1490 C   0  0  0  0  0  0  0  0  0  0  0  0
    6.3430   -3.6280   22.4240 C   0  0  2  0  0  0  0  0  0  0  0  0
    9.9190   -5.1420   25.4050 C   0  0  0  0  0  0  0  0  0  0  0  0
    9.4060   -3.8620   25.3170 C   0  0  0  0  0  0  0  0  0  0  0  0
    8.1260   -3.7000   26.4420 S   0  0  0  0  0  0  0  0  0  0  0  0
    8.3270   -5.2710   27.0280 C   0  0  0  0  0  0  0  0  0  0  0  0
    9.3070   -5.9600   26.3940 C   0  0  0  0  0  0  0  0  0  0  0  0
  1  5  1  0
  2  5  2  0
  4  5  1  1
  3  7  1  0
  8  9  1  0
  8 10  1  0
  8 11  1  0
 12 13  2  0
 12 14  1  0
 14 15  1  0
 15 16  1  0
 21 19  1  1
 20 21  1  0
 23 18  1  1
 21 23  1  0
 18 25  1  0
 22 25  2  0
 25 26  1  0
 29 30  2  0
 30 31  1  0
 27 33  2  0
 28 33  2  0
 34 37  1  0
 35 37  2  0
 39 40  2  0
 40 41  1  0
 16 42  1  0
 41 42  2  0
  4 43  1  0
 42 43  1  0
 39 44  1  0
 43 44  2  0
 38 45  1  0
 45 46  1  0
  8 47  1  0
 46 47  1  0
 47 48  2  0
 45 49  1  0
 49 48  1  6
  6 50  1  0
 50 51  2  0
  3 52  1  0
 51 52  1  0
 52 53  2  0
 53 54  1  0
  1 55  1  0
 50 55  1  0
 54 55  2  0
 17 56  1  0
 12 57  1  0
 56 57  2  0
 57 58  1  0
 58 59  2  0
 59 60  1  0
 56 61  1  0
 60 61  2  0
 32 62  1  0
 62 63  2  0
 33 64  1  0
 63 64  1  0
 64 65  2  0
 65 66  1  0
 62 67  1  0
 66 67  2  0
 68 30  1  6
 68 69  1  0
 23 70  1  0
 70 24  1  6
 69 70  1  0
 33 71  1  0
 70 71  1  0
 71 72  1  0
 68 73  1  0
 72 73  1  0
 37 74  1  0
  4 75  1  0
 49 75  1  0
 75 74  1  6
 49 76  1  0
 76 77  1  0
 68 78  1  0
 74 78  1  0
 78 77  1  1
 38 80  1  0
 79 80  2  0
 80 81  1  0
 36 82  1  0
 81 82  1  0
 79 83  1  0
 82 83  2  0
M  END
