x1336-x3077
     RDKit          3D

 29 33  0  0  0  0  0  0  0  0999 V2000
    5.9560   -5.2340   29.0290 C   0  0  0  0  0  0  0  0  0  0  0  0
    8.3080   -0.5050   24.8400 N   0  0  0  0  0  0  0  0  0  0  0  0
    5.9520   -1.3430   25.5600 O   0  0  0  0  0  0  0  0  0  0  0  0
    5.4740   -4.2070   19.8660 O   0  0  0  0  0  0  0  0  0  0  0  0
   10.2770   -3.5730   25.0260 C   0  0  0  0  0  0  0  0  0  0  0  0
    6.5390   -3.6330   20.1270 C   0  0  0  0  0  0  0  0  0  0  0  0
    7.4200   -3.1040   18.9970 C   0  0  0  0  0  0  0  0  0  0  0  0
    7.2610   -1.6490   25.0280 S   0  0  2  0  0  0  0  0  0  0  0  0
    7.0600   -4.7800   27.9640 C   0  0  0  0  0  0  0  0  0  0  0  0
    6.7770   -3.5670   27.0340 C   0  0  0  0  0  0  0  0  0  0  0  0
    7.7990   -3.0900   26.0090 C   0  0  0  0  0  0  0  0  0  0  0  0
    9.1290   -3.8580   25.9320 C   0  0  0  0  0  0  0  0  0  0  0  0
    9.3280   -5.0410   26.8730 C   0  0  0  0  0  0  0  0  0  0  0  0
    8.2660   -5.4640   27.8720 C   0  0  0  0  0  0  0  0  0  0  0  0
    7.1690   -3.4920   21.5000 C   0  0  2  0  0  0  0  0  0  0  0  0
    7.0760   -4.5500   22.1840 C   0  0  2  0  0  0  0  0  0  0  0  0
    6.6210   -3.5270   23.0750 C   0  0  2  0  0  0  0  0  0  0  0  0
    6.9600   -2.1210   23.4240 N   0  0  0  0  0  0  0  0  0  0  0  0
    7.8050   -1.6700   22.4810 C   0  0  0  0  0  0  0  0  0  0  0  0
    8.3520   -2.5780   21.6470 C   0  0  0  0  0  0  0  0  0  0  0  0
    7.5370   -4.4450   23.6980 C   0  0  0  0  0  0  0  0  0  0  0  0
   13.4580   -1.6590   21.0060 Cl  0  0  0  0  0  0  0  0  0  0  0  0
   10.6760   -0.6610   24.2300 C   0  0  0  0  0  0  0  0  0  0  0  0
   11.7310    0.2430   24.0300 C   0  0  0  0  0  0  0  0  0  0  0  0
   12.6380   -0.0290   23.0180 C   0  0  0  0  0  0  0  0  0  0  0  0
   12.4350   -1.1950   22.2540 C   0  0  0  0  0  0  0  0  0  0  0  0
   11.3960   -2.0460   22.4610 C   0  0  0  0  0  0  0  0  0  0  0  0
   10.5130   -1.7870   23.4460 C   0  0  0  0  0  0  0  0  0  0  0  0
    9.6400   -0.4970   25.3160 C   0  0  0  0  0  0  0  0  0  0  0  0
  4  6  2  0
  6  7  1  0
  2  8  2  0
  3  8  2  0
  1  9  1  0
  9 10  2  0
  8 11  1  1
 10 11  1  0
  5 12  1  0
 11 12  2  0
 12 13  1  0
  9 14  1  0
 13 14  2  0
 15  6  1  6
 15 16  1  0
 15 17  1  0
 16 17  1  0
  8 18  1  0
 17 18  1  0
 18 19  1  0
 15 20  1  0
 19 20  1  0
 16 21  1  1
 17 21  1  6
 23 24  2  0
 24 25  1  0
 22 26  1  0
 25 26  2  0
 26 27  1  0
 23 28  1  0
 27 28  2  0
  2 29  1  0
 23 29  1  0
M  END
