x1336-x0107
     RDKit          3D

 31 33  0  0  0  0  0  0  0  0999 V2000
    6.0750   -5.3350   28.8450 C   0  0  0  0  0  0  0  0  0  0  0  0
    8.5760   -0.9210   25.2750 O   0  0  0  0  0  0  0  0  0  0  0  0
    6.1970   -1.1180   25.9500 O   0  0  0  0  0  0  0  0  0  0  0  0
    5.4190   -4.1890   19.7580 O   0  0  0  0  0  0  0  0  0  0  0  0
   10.0760   -3.5320   25.0090 C   0  0  0  0  0  0  0  0  0  0  0  0
    6.5170   -3.6740   20.0110 C   0  0  0  0  0  0  0  0  0  0  0  0
    7.4000   -3.1300   18.9000 C   0  0  0  0  0  0  0  0  0  0  0  0
    7.3560   -1.6830   25.2980 S   0  0  0  0  0  0  0  0  0  0  0  0
   10.1710   -0.4680   22.2390 C   0  0  0  0  0  0  0  0  0  0  0  0
    8.9710    0.2740   21.6760 C   0  0  0  0  0  0  0  0  0  0  0  0
    9.0930    1.4330   21.2410 O   0  0  0  0  0  0  0  0  0  0  0  0
    7.7360   -0.3930   21.6560 N   0  0  0  0  0  0  0  0  0  0  0  0
    5.2400    1.0140   22.1110 C   0  0  0  0  0  0  0  0  0  0  0  0
    7.0810   -4.8500   27.8470 C   0  0  0  0  0  0  0  0  0  0  0  0
    6.8520   -3.6860   27.1000 C   0  0  0  0  0  0  0  0  0  0  0  0
    7.7990   -3.2190   26.1590 C   0  0  0  0  0  0  0  0  0  0  0  0
    8.9990   -3.9390   25.9660 C   0  0  0  0  0  0  0  0  0  0  0  0
    9.2070   -5.1080   26.7250 C   0  0  0  0  0  0  0  0  0  0  0  0
    8.2650   -5.5560   27.6510 C   0  0  0  0  0  0  0  0  0  0  0  0
    7.0230   -3.6130   21.2870 N   0  0  0  0  0  0  0  0  0  0  0  0
    6.3830   -4.2900   22.3820 C   0  0  0  0  0  0  0  0  0  0  0  0
    6.0030   -3.2920   23.5060 C   0  0  0  0  0  0  0  0  0  0  0  0
    6.8810   -2.0240   23.6610 N   0  0  0  0  0  0  0  0  0  0  0  0
    7.7780   -1.6480   22.4640 C   0  0  1  0  0  0  0  0  0  0  0  0
    8.2190   -2.8770   21.7000 C   0  0  0  0  0  0  0  0  0  0  0  0
    6.8860   -0.0650   20.5360 C   0  0  0  0  0  0  0  0  0  0  0  0
    5.6830    0.6280   20.7360 C   0  0  0  0  0  0  0  0  0  0  0  0
    4.8890    0.9670   19.6250 C   0  0  0  0  0  0  0  0  0  0  0  0
    5.3090    0.6080   18.3550 C   0  0  0  0  0  0  0  0  0  0  0  0
    6.4470   -0.0620   18.1270 N   0  0  0  0  0  0  0  0  0  0  0  0
    7.1990   -0.3870   19.2030 C   0  0  0  0  0  0  0  0  0  0  0  0
  4  6  2  0
  6  7  1  0
  2  8  2  0
  3  8  2  0
  9 10  1  0
 10 11  2  0
 10 12  1  0
  1 14  1  0
 14 15  2  0
  8 16  1  0
 15 16  1  0
  5 17  1  0
 16 17  2  0
 17 18  1  0
 14 19  1  0
 18 19  2  0
  6 20  1  0
 20 21  1  0
 21 22  1  0
  8 23  1  0
 22 23  1  0
 24 12  1  6
 23 24  1  0
 20 25  1  0
 24 25  1  0
 12 26  1  0
 13 27  1  0
 26 27  2  0
 27 28  1  0
 28 29  2  0
 29 30  1  0
 26 31  1  0
 30 31  2  0
M  END
