x1336-x3108
     RDKit          3D

 33 37  0  0  0  0  0  0  0  0999 V2000
    6.0470   -5.1770   29.0140 C   0  0  0  0  0  0  0  0  0  0  0  0
    8.6370   -0.9930   24.7710 N   0  0  0  0  0  0  0  0  0  0  0  0
    6.3600   -1.1870   25.9260 O   0  0  0  0  0  0  0  0  0  0  0  0
    5.5220   -4.1540   19.7740 O   0  0  0  0  0  0  0  0  0  0  0  0
   10.0930   -3.7710   25.0140 C   0  0  0  0  0  0  0  0  0  0  0  0
    6.6170   -3.6060   19.9990 C   0  0  0  0  0  0  0  0  0  0  0  0
    7.4670   -3.1200   18.8530 C   0  0  0  0  0  0  0  0  0  0  0  0
    7.4330   -1.8180   25.2040 S   0  0  0  0  0  0  0  0  0  0  0  0
    9.0780    0.2880   25.0250 O   0  0  0  0  0  0  0  0  0  0  0  0
    5.7550    1.6690   22.0180 C   0  0  0  0  0  0  0  0  0  0  0  0
    9.2910    1.6280   21.4370 O   0  0  0  0  0  0  0  0  0  0  0  0
    7.8450   -0.2310   21.6860 N   0  0  0  0  0  0  0  0  0  0  0  0
    9.1440   -1.1980   23.4310 N   0  0  0  0  0  0  0  0  0  0  0  0
    9.0090    0.5440   21.9640 C   0  0  0  0  0  0  0  0  0  0  0  0
    9.8700   -0.0460   22.9130 C   0  0  0  0  0  0  0  0  0  0  0  0
    7.0630   -4.8000   27.9820 C   0  0  0  0  0  0  0  0  0  0  0  0
    6.9080   -3.6940   27.1460 C   0  0  0  0  0  0  0  0  0  0  0  0
    7.8380   -3.2990   26.1620 C   0  0  0  0  0  0  0  0  0  0  0  0
    9.0120   -4.0700   26.0060 C   0  0  0  0  0  0  0  0  0  0  0  0
    9.1860   -5.1980   26.8410 C   0  0  0  0  0  0  0  0  0  0  0  0
    8.2240   -5.5320   27.7950 C   0  0  0  0  0  0  0  0  0  0  0  0
    7.1410   -3.4860   21.2810 N   0  0  0  0  0  0  0  0  0  0  0  0
    6.3010   -3.9420   22.4990 C   0  0  0  0  0  0  0  0  0  0  0  0
    5.8490   -2.6420   23.1800 C   0  0  0  0  0  0  0  0  0  0  0  0
    6.9560   -1.7940   23.5310 N   0  0  0  0  0  0  0  0  0  0  0  0
    7.9510   -1.4610   22.5150 C   0  0  1  0  0  0  0  0  0  0  0  0
    8.2700   -2.6520   21.5740 C   0  0  0  0  0  0  0  0  0  0  0  0
    6.4700   -0.0380   18.2290 N   0  0  0  0  0  0  0  0  0  0  0  0
    7.2280   -0.4130   19.2480 C   0  0  0  0  0  0  0  0  0  0  0  0
    7.0480    0.1160   20.5430 C   0  0  0  0  0  0  0  0  0  0  0  0
    6.0200    1.0520   20.6900 C   0  0  0  0  0  0  0  0  0  0  0  0
    5.2370    1.4200   19.5950 C   0  0  0  0  0  0  0  0  0  0  0  0
    5.4850    0.8500   18.3460 C   0  0  0  0  0  0  0  0  0  0  0  0
  4  6  2  0
  6  7  1  0
  2  8  1  0
  3  8  2  0
  2  9  1  0
  2 13  1  0
 11 14  2  0
 12 14  1  0
 13 15  1  0
 14 15  1  0
  1 16  1  0
 16 17  2  0
  8 18  1  0
 17 18  1  0
  5 19  1  0
 18 19  2  0
 19 20  1  0
 16 21  1  0
 20 21  2  0
  6 22  1  0
 22 23  1  0
 23 24  1  0
  8 25  1  0
 24 25  1  0
 26 12  1  0
 13 26  1  0
 25 26  1  0
 22 27  1  0
 26 27  1  6
 28 29  2  0
 12 30  1  0
 29 30  1  0
 10 31  1  0
 30 31  2  0
 31 32  1  0
 28 33  1  0
 32 33  2  0
M  END
