x1334-x1418
     RDKit          3D

 21 23  0  0  0  0  0  0  0  0999 V2000
    7.3580   -3.0350   18.7900 C   0  0  0  0  0  0  0  0  0  0  0  0
    5.4330   -4.0900   19.7300 O   0  0  0  0  0  0  0  0  0  0  0  0
    7.6270   -5.8700   28.3080 Cl  0  0  0  0  0  0  0  0  0  0  0  0
    6.3840   -3.3150   19.9200 C   0  0  0  0  0  0  0  0  0  0  0  0
    9.2780   -2.5720   24.1500 C   0  0  1  0  0  0  0  0  0  0  0  0
    6.6140   -2.7230   21.1560 N   0  0  0  0  0  0  0  0  0  0  0  0
    7.5660   -1.6080   21.2290 C   0  0  0  0  0  0  0  0  0  0  0  0
    8.7740   -1.9880   21.8010 C   0  0  0  0  0  0  0  0  0  0  0  0
    8.7840   -3.0320   22.8450 N   0  0  0  0  0  0  0  0  0  0  0  0
    7.6180   -3.9470   22.9090 C   0  0  0  0  0  0  0  0  0  0  0  0
    6.4180   -3.4020   22.4360 C   0  0  0  0  0  0  0  0  0  0  0  0
    9.9610   -4.9140   25.2280 C   0  0  0  0  0  0  0  0  0  0  0  0
    9.2230   -3.7450   25.1110 C   0  0  0  0  0  0  0  0  0  0  0  0
    8.0160   -3.7390   26.3420 S   0  0  0  0  0  0  0  0  0  0  0  0
    8.4840   -5.2370   26.9720 C   0  0  0  0  0  0  0  0  0  0  0  0
    9.5540   -5.7710   26.2770 C   0  0  0  0  0  0  0  0  0  0  0  0
   11.6160   -1.9320   22.9970 C   0  0  0  0  0  0  0  0  0  0  0  0
   10.5370   -1.7400   23.8760 C   0  0  0  0  0  0  0  0  0  0  0  0
   10.7200   -0.2600   24.7550 S   0  0  0  0  0  0  0  0  0  0  0  0
   12.1910    0.1470   23.9970 C   0  0  0  0  0  0  0  0  0  0  0  0
   12.6190   -0.9130   22.9860 C   0  0  0  0  0  0  0  0  0  0  0  0
  1  4  1  0
  2  4  2  0
  4  6  1  0
  6  7  1  0
  7  8  1  0
  5  9  1  0
  8  9  1  0
  9 10  1  0
  6 11  1  0
 10 11  1  0
  5 13  1  1
 12 13  2  0
 13 14  1  0
  3 15  1  0
 14 15  1  0
 12 16  1  0
 15 16  2  0
  5 18  1  0
 17 18  2  0
 18 19  1  0
 19 20  1  0
 17 21  1  0
 20 21  2  0
M  END
