x1336-x0770
     RDKit          3D

 28 30  0  0  0  0  0  0  0  0999 V2000
    5.8450   -5.5470   29.1060 C   0  0  0  0  0  0  0  0  0  0  0  0
    8.3600   -0.8200   25.3700 O   0  0  0  0  0  0  0  0  0  0  0  0
    5.9460   -1.3580   25.7210 O   0  0  0  0  0  0  0  0  0  0  0  0
    5.3530   -4.1940   19.7570 O   0  0  0  0  0  0  0  0  0  0  0  0
   10.2480   -3.4940   25.3890 C   0  0  0  0  0  0  0  0  0  0  0  0
    6.3520   -3.5240   19.9780 C   0  0  0  0  0  0  0  0  0  0  0  0
    7.3090   -3.0750   18.8790 C   0  0  0  0  0  0  0  0  0  0  0  0
    7.2780   -1.7820   25.3500 S   0  0  0  0  0  0  0  0  0  0  0  0
    6.9750   -5.0010   28.1180 C   0  0  0  0  0  0  0  0  0  0  0  0
    6.6850   -3.7620   27.2440 C   0  0  0  0  0  0  0  0  0  0  0  0
    7.7370   -3.2260   26.3100 C   0  0  0  0  0  0  0  0  0  0  0  0
    9.0990   -3.9200   26.2440 C   0  0  0  0  0  0  0  0  0  0  0  0
    9.3080   -5.1340   27.1220 C   0  0  0  0  0  0  0  0  0  0  0  0
    8.2110   -5.6350   28.0420 C   0  0  0  0  0  0  0  0  0  0  0  0
    6.7070   -3.1620   21.2640 N   0  0  0  0  0  0  0  0  0  0  0  0
    6.5600   -4.1340   22.3330 C   0  0  0  0  0  0  0  0  0  0  0  0
    6.2380   -3.5030   23.5140 C   0  0  0  0  0  0  0  0  0  0  0  0
    7.1870   -2.3810   23.7940 N   0  0  0  0  0  0  0  0  0  0  0  0
    7.6370   -1.6330   22.7560 C   0  0  0  0  0  0  0  0  0  0  0  0
    7.7850   -2.2010   21.4930 C   0  0  0  0  0  0  0  0  0  0  0  0
   13.4260   -1.6610   21.0910 Cl  0  0  0  0  0  0  0  0  0  0  0  0
   10.8730   -0.5140   24.5870 C   0  0  0  0  0  0  0  0  0  0  0  0
   11.8780    0.3470   24.1410 C   0  0  0  0  0  0  0  0  0  0  0  0
   12.7050    0.0430   23.0630 C   0  0  0  0  0  0  0  0  0  0  0  0
   12.5150   -1.1580   22.4120 C   0  0  0  0  0  0  0  0  0  0  0  0
   11.5430   -2.0030   22.8310 C   0  0  0  0  0  0  0  0  0  0  0  0
   10.7140   -1.7240   23.8970 C   0  0  0  0  0  0  0  0  0  0  0  0
    9.7550   -2.6650   24.2240 C   0  0  0  0  0  0  0  0  0  0  0  0
  4  6  2  0
  6  7  1  0
  2  8  2  0
  3  8  2  0
  1  9  1  0
  9 10  2  0
  8 11  1  0
 10 11  1  0
  5 12  1  0
 11 12  2  0
 12 13  1  0
  9 14  1  0
 13 14  2  0
  6 15  1  0
 15 16  1  0
 16 17  1  0
  8 18  1  0
 17 18  1  0
 18 19  1  0
 15 20  1  0
 19 20  1  0
 22 23  2  0
 23 24  1  0
 21 25  1  0
 24 25  2  0
 25 26  1  0
 22 27  1  0
 26 27  2  0
  5 28  1  0
 27 28  1  0
M  END
