x1334-x2646
     RDKit          3D

 34 38  0  0  0  0  0  0  0  0999 V2000
    7.5020   -2.9210   18.6550 C   0  0  0  0  0  0  0  0  0  0  0  0
    5.6920   -3.9350   19.7530 O   0  0  0  0  0  0  0  0  0  0  0  0
    7.3470   -5.8780   28.5740 Cl  0  0  0  0  0  0  0  0  0  0  0  0
    6.6000   -3.0600   19.8630 C   0  0  0  0  0  0  0  0  0  0  0  0
    9.2880   -3.0600   24.3010 C   0  0  0  0  0  0  0  0  0  0  0  0
    4.1700    1.0220   21.3750 C   0  0  0  0  0  0  0  0  0  0  0  0
    8.3360    1.0790   21.4100 O   0  0  0  0  0  0  0  0  0  0  0  0
   13.3050   -1.9350   21.2520 Cl  0  0  0  0  0  0  0  0  0  0  0  0
    6.7550   -0.6660   21.0560 N   0  0  0  0  0  0  0  0  0  0  0  0
    7.9040   -0.0470   21.6180 C   0  0  0  0  0  0  0  0  0  0  0  0
    8.4780   -0.9660   22.4390 C   0  0  1  0  0  0  0  0  0  0  0  0
    6.8810   -2.1570   21.1630 C   0  0  2  0  0  0  0  0  0  0  0  0
    8.2450   -2.1250   21.4580 C   0  0  2  0  0  0  0  0  0  0  0  0
    8.7680   -3.2720   21.9260 C   0  0  0  0  0  0  0  0  0  0  0  0
    8.3280   -3.4780   23.2740 N   0  0  0  0  0  0  0  0  0  0  0  0
    6.9900   -3.0860   23.4640 C   0  0  0  0  0  0  0  0  0  0  0  0
    6.1460   -2.7630   22.3950 C   0  0  0  0  0  0  0  0  0  0  0  0
    9.8310   -5.2830   25.4390 C   0  0  0  0  0  0  0  0  0  0  0  0
    9.1210   -4.1070   25.3260 C   0  0  0  0  0  0  0  0  0  0  0  0
    7.9020   -3.8950   26.5140 S   0  0  0  0  0  0  0  0  0  0  0  0
    8.2540   -5.3660   27.2260 C   0  0  0  0  0  0  0  0  0  0  0  0
    9.3980   -6.0770   26.5150 C   0  0  0  0  0  0  0  0  0  0  0  0
    6.3530    0.7270   17.5970 N   0  0  0  0  0  0  0  0  0  0  0  0
    6.8290    0.0470   18.6400 C   0  0  0  0  0  0  0  0  0  0  0  0
    6.1930    0.0530   19.9900 C   0  0  0  0  0  0  0  0  0  0  0  0
    4.9360    0.8920   20.1180 C   0  0  0  0  0  0  0  0  0  0  0  0
    4.5160    1.5640   18.9700 C   0  0  0  0  0  0  0  0  0  0  0  0
    5.2390    1.4470   17.7880 C   0  0  0  0  0  0  0  0  0  0  0  0
   10.3900    0.2350   23.6390 C   0  0  0  0  0  0  0  0  0  0  0  0
   11.7410    0.4990   23.8550 C   0  0  0  0  0  0  0  0  0  0  0  0
   12.7420   -0.1430   23.1520 C   0  0  0  0  0  0  0  0  0  0  0  0
   12.2380   -1.0710   22.2170 C   0  0  0  0  0  0  0  0  0  0  0  0
   10.9170   -1.3430   21.9920 C   0  0  0  0  0  0  0  0  0  0  0  0
    9.9500   -0.6920   22.6950 C   0  0  0  0  0  0  0  0  0  0  0  0
  1  4  1  0
  2  4  2  0
  7 10  2  0
  9 10  1  0
 10 11  1  0
 12  4  1  6
  9 12  1  0
 11 13  1  0
 12 13  1  0
 13 14  1  1
  5 15  1  0
 14 15  1  0
 15 16  1  0
 12 17  1  0
 16 17  1  0
  5 19  1  0
 18 19  2  0
 19 20  1  0
  3 21  1  0
 20 21  1  0
 18 22  1  0
 21 22  2  0
 23 24  2  0
  9 25  1  0
 24 25  1  0
  6 26  1  0
 25 26  2  0
 26 27  1  0
 23 28  1  0
 27 28  2  0
 29 30  2  0
 30 31  1  0
  8 32  1  0
 31 32  2  0
 32 33  1  0
 11 34  1  6
 29 34  1  0
 33 34  2  0
M  END
