x1336-x1386
     RDKit          3D

 26 28  0  0  0  0  0  0  0  0999 V2000
    5.9030   -5.3740   29.1210 C   0  0  0  0  0  0  0  0  0  0  0  0
    8.5650   -0.8770   25.2620 O   0  0  0  0  0  0  0  0  0  0  0  0
    6.1330   -1.2830   25.6860 O   0  0  0  0  0  0  0  0  0  0  0  0
    5.4430   -4.1780   19.7480 O   0  0  0  0  0  0  0  0  0  0  0  0
   10.3260   -3.7190   25.1670 C   0  0  0  0  0  0  0  0  0  0  0  0
    6.4610   -3.5320   19.9440 C   0  0  0  0  0  0  0  0  0  0  0  0
    7.4090   -3.0640   18.8300 C   0  0  0  0  0  0  0  0  0  0  0  0
    7.4310   -1.7700   25.2700 S   0  0  0  0  0  0  0  0  0  0  0  0
    7.0340   -4.9300   28.0810 C   0  0  0  0  0  0  0  0  0  0  0  0
    6.8020   -3.6840   27.2020 C   0  0  0  0  0  0  0  0  0  0  0  0
    7.8490   -3.2300   26.2120 C   0  0  0  0  0  0  0  0  0  0  0  0
    9.1610   -4.0170   26.0810 C   0  0  0  0  0  0  0  0  0  0  0  0
    9.3070   -5.2340   26.9770 C   0  0  0  0  0  0  0  0  0  0  0  0
    8.2190   -5.6480   27.9580 C   0  0  0  0  0  0  0  0  0  0  0  0
    6.8510   -3.2010   21.2220 N   0  0  0  0  0  0  0  0  0  0  0  0
    6.6460   -4.1420   22.3120 C   0  0  0  0  0  0  0  0  0  0  0  0
    6.3030   -3.4690   23.4660 C   0  0  0  0  0  0  0  0  0  0  0  0
    7.2640   -2.3530   23.7220 N   0  0  0  0  0  0  0  0  0  0  0  0
    7.7110   -1.6150   22.6780 C   0  0  0  0  0  0  0  0  0  0  0  0
    7.9040   -2.2170   21.4410 C   0  0  0  0  0  0  0  0  0  0  0  0
   12.0660   -1.7120   22.7540 C   0  0  0  0  0  0  0  0  0  0  0  0
   11.0660   -1.6630   23.7220 C   0  0  0  0  0  0  0  0  0  0  0  0
   11.0400   -0.4670   24.4410 C   0  0  0  0  0  0  0  0  0  0  0  0
   12.2620    0.5920   23.8920 S   0  0  0  0  0  0  0  0  0  0  0  0
   12.8050   -0.5420   22.7350 C   0  0  0  0  0  0  0  0  0  0  0  0
   10.1020   -2.8000   23.9540 C   0  0  0  0  0  0  0  0  0  0  0  0
  4  6  2  0
  6  7  1  0
  2  8  2  0
  3  8  2  0
  1  9  1  0
  9 10  2  0
  8 11  1  0
 10 11  1  0
  5 12  1  0
 11 12  2  0
 12 13  1  0
  9 14  1  0
 13 14  2  0
  6 15  1  0
 15 16  1  0
 16 17  1  0
  8 18  1  0
 17 18  1  0
 18 19  1  0
 15 20  1  0
 19 20  1  0
 21 22  1  0
 22 23  2  0
 23 24  1  0
 21 25  2  0
 24 25  1  0
  5 26  1  0
 22 26  1  0
M  END
