x1334-x2694
     RDKit          3D

 43 47  0  0  0  0  0  0  0  0999 V2000
    7.7000    2.2010   22.7790 N   0  0  0  0  0  0  0  0  0  0  0  0
    9.2720    1.2700   21.1770 O   0  0  0  0  0  0  0  0  0  0  0  0
   10.8760    6.7750   23.8740 O   0  0  0  0  0  0  0  0  0  0  0  0
    7.0160    0.0970   21.6140 C   0  0  1  0  0  0  0  0  0  0  0  0
    8.0550    1.1990   21.8770 C   0  0  0  0  0  0  0  0  0  0  0  0
   10.4290    1.8810   24.0130 C   0  0  0  0  0  0  0  0  0  0  0  0
   11.8670    6.6680   24.8960 C   0  0  0  0  0  0  0  0  0  0  0  0
   12.3320   -1.0690   23.1400 C   0  0  0  0  0  0  0  0  0  0  0  0
   12.6840    0.2690   23.2680 C   0  0  0  0  0  0  0  0  0  0  0  0
   13.0100   -1.6590   21.8880 C   0  0  0  0  0  0  0  0  0  0  0  0
   12.8900   -1.8330   24.3670 C   0  0  0  0  0  0  0  0  0  0  0  0
    7.4320   -2.9160   18.8960 C   0  0  0  0  0  0  0  0  0  0  0  0
    5.5010   -3.9590   19.7190 O   0  0  0  0  0  0  0  0  0  0  0  0
    7.1890   -5.8600   28.4140 Cl  0  0  0  0  0  0  0  0  0  0  0  0
    6.4190   -3.1520   19.9990 C   0  0  0  0  0  0  0  0  0  0  0  0
    9.7000   -3.1290   24.2950 C   0  0  0  0  0  0  0  0  0  0  0  0
    6.3730    0.4290   17.7970 N   0  0  0  0  0  0  0  0  0  0  0  0
    5.1920    1.2960   17.8200 C   0  0  0  0  0  0  0  0  0  0  0  0
    4.6500    1.7130   19.0240 C   0  0  0  0  0  0  0  0  0  0  0  0
    5.1630    1.3700   20.2640 C   0  0  0  0  0  0  0  0  0  0  0  0
    6.4080    0.4720   20.3000 C   0  0  0  0  0  0  0  0  0  0  0  0
    6.9320    0.0460   18.9360 C   0  0  0  0  0  0  0  0  0  0  0  0
    8.9020   -1.9790   23.8680 N   0  0  0  0  0  0  0  0  0  0  0  0
    9.9630   -0.9800   24.0420 O   0  0  0  0  0  0  0  0  0  0  0  0
   10.8340   -1.3390   23.0200 C   0  0  0  0  0  0  0  0  0  0  0  0
    9.9670   -1.9850   21.9570 C   0  0  0  0  0  0  0  0  0  0  0  0
    8.7270   -2.0550   22.5350 C   0  0  2  0  0  0  0  0  0  0  0  0
    9.8430    3.2610   23.6480 C   0  0  0  0  0  0  0  0  0  0  0  0
   10.5930    4.3810   23.8960 C   0  0  0  0  0  0  0  0  0  0  0  0
   10.1460    5.6450   23.6160 C   0  0  0  0  0  0  0  0  0  0  0  0
    8.9010    5.8680   23.0460 C   0  0  0  0  0  0  0  0  0  0  0  0
    8.0860    4.7160   22.7620 C   0  0  0  0  0  0  0  0  0  0  0  0
    8.4580    3.3790   23.0280 C   0  0  0  0  0  0  0  0  0  0  0  0
    6.4900   -2.5700   21.3140 N   0  0  0  0  0  0  0  0  0  0  0  0
    7.3390   -1.4420   21.9100 C   0  0  2  0  0  0  0  0  0  0  0  0
    8.4950   -3.4910   22.3570 N   0  0  0  0  0  0  0  0  0  0  0  0
    7.3110   -4.0050   23.0210 C   0  0  0  0  0  0  0  0  0  0  0  0
    6.1620   -3.5040   22.3990 C   0  0  0  0  0  0  0  0  0  0  0  0
    9.7980   -5.3700   25.4850 C   0  0  0  0  0  0  0  0  0  0  0  0
    9.2620   -4.1380   25.3050 C   0  0  0  0  0  0  0  0  0  0  0  0
    7.9800   -3.8580   26.4140 S   0  0  0  0  0  0  0  0  0  0  0  0
    8.1900   -5.3760   27.1090 C   0  0  0  0  0  0  0  0  0  0  0  0
    9.1880   -6.0950   26.5280 C   0  0  0  0  0  0  0  0  0  0  0  0
  1  5  1  0
  2  5  2  0
  4  5  1  6
  3  7  1  0
  8  9  1  0
  8 10  1  0
  8 11  1  0
 12 15  1  0
 13 15  2  0
 17 18  2  0
 18 19  1  0
 19 20  2  0
  4 21  1  0
 20 21  1  0
 17 22  1  0
 21 22  2  0
 16 23  1  0
 23 24  1  0
  8 25  1  0
 24 25  1  0
 25 26  2  0
 23 27  1  0
 27 26  1  6
  6 28  1  0
 28 29  2  0
  3 30  1  0
 29 30  1  0
 30 31  2  0
 31 32  1  0
  1 33  1  0
 28 33  1  0
 32 33  2  0
 15 34  1  0
  4 35  1  0
 27 35  1  0
 35 34  1  6
 27 36  1  0
 36 37  1  0
 34 38  1  0
 37 38  1  0
 16 40  1  0
 39 40  2  0
 40 41  1  0
 14 42  1  0
 41 42  1  0
 39 43  1  0
 42 43  2  0
M  END
