x1334-x3117
     RDKit          3D

 41 46  0  0  0  0  0  0  0  0999 V2000
    7.5770    1.6060   22.8760 N   0  0  0  0  0  0  0  0  0  0  0  0
    9.2090    1.7920   21.1240 O   0  0  0  0  0  0  0  0  0  0  0  0
    7.4960   -0.0960   20.9240 C   0  0  2  0  0  0  0  0  0  0  0  0
    8.1060    1.1160   21.6840 C   0  0  0  0  0  0  0  0  0  0  0  0
   12.3780   -1.8880   24.5980 C   0  0  0  0  0  0  0  0  0  0  0  0
   12.5660   -0.6800   25.2540 C   0  0  0  0  0  0  0  0  0  0  0  0
   13.2060   -1.9990   23.4350 C   0  0  0  0  0  0  0  0  0  0  0  0
   12.8010   -2.9870   25.3930 C   0  0  0  0  0  0  0  0  0  0  0  0
    7.3810   -2.9570   18.6840 C   0  0  0  0  0  0  0  0  0  0  0  0
    5.3910   -3.8450   19.6670 O   0  0  0  0  0  0  0  0  0  0  0  0
    7.7930   -5.8800   28.1860 Cl  0  0  0  0  0  0  0  0  0  0  0  0
    6.4490   -3.2060   19.8450 C   0  0  0  0  0  0  0  0  0  0  0  0
    9.2840   -2.3740   24.2160 C   0  0  2  0  0  0  0  0  0  0  0  0
    6.1570    0.4150   17.6400 N   0  0  0  0  0  0  0  0  0  0  0  0
    5.0320    1.1610   17.9840 C   0  0  0  0  0  0  0  0  0  0  0  0
    4.5930    1.5290   19.2510 C   0  0  0  0  0  0  0  0  0  0  0  0
    5.3740    1.1230   20.3300 C   0  0  0  0  0  0  0  0  0  0  0  0
    6.4880    0.4030   19.9680 C   0  0  0  0  0  0  0  0  0  0  0  0
    6.8410    0.0710   18.7080 C   0  0  0  0  0  0  0  0  0  0  0  0
    9.6210    5.0470   24.1430 O   0  0  0  0  0  0  0  0  0  0  0  0
   10.4690    3.9880   23.7250 C   0  0  0  0  0  0  0  0  0  0  0  0
    9.6710    2.6530   23.7730 C   0  0  0  0  0  0  0  0  0  0  0  0
    8.1790    2.7940   23.4750 C   0  0  0  0  0  0  0  0  0  0  0  0
    8.0470    4.1030   22.6560 C   0  0  0  0  0  0  0  0  0  0  0  0
    8.5730    5.2990   23.1990 C   0  0  0  0  0  0  0  0  0  0  0  0
    9.3910   -2.6250   22.4050 C   0  0  0  0  0  0  0  0  0  0  0  0
   10.6080   -2.7620   23.0730 C   0  0  0  0  0  0  0  0  0  0  0  0
   10.8750   -1.9510   24.1190 C   0  0  2  0  0  0  0  0  0  0  0  0
   10.0720   -0.8860   24.2020 C   0  0  0  0  0  0  0  0  0  0  0  0
    8.8490   -0.6280   23.5610 C   0  0  0  0  0  0  0  0  0  0  0  0
    8.2510   -1.6380   22.8220 C   0  0  1  0  0  0  0  0  0  0  0  0
    7.0500   -2.7670   21.1520 C   0  0  0  0  0  0  0  0  0  0  0  0
    7.4900   -1.5130   21.5490 C   0  0  0  0  0  0  0  0  0  0  0  0
    7.7960   -2.3160   23.8600 N   0  0  0  0  0  0  0  0  0  0  0  0
    7.1940   -3.6170   23.5770 C   0  0  0  0  0  0  0  0  0  0  0  0
    7.2260   -3.9440   22.0760 C   0  0  0  0  0  0  0  0  0  0  0  0
   10.0870   -4.7860   25.1120 C   0  0  0  0  0  0  0  0  0  0  0  0
    9.3400   -3.6400   25.0750 C   0  0  0  0  0  0  0  0  0  0  0  0
    8.1530   -3.7030   26.3200 S   0  0  0  0  0  0  0  0  0  0  0  0
    8.6390   -5.1990   26.8650 C   0  0  0  0  0  0  0  0  0  0  0  0
    9.6840   -5.7030   26.1510 C   0  0  0  0  0  0  0  0  0  0  0  0
  1  4  1  0
  2  4  2  0
  3  4  1  1
  5  6  1  0
  5  7  1  0
  5  8  1  0
  9 12  1  0
 10 12  2  0
 14 15  2  0
 15 16  1  0
 16 17  2  0
  3 18  1  0
 17 18  1  0
 14 19  1  0
 18 19  2  0
 20 21  1  0
 21 22  1  0
  1 23  1  0
 22 23  1  0
 23 24  1  0
 20 25  1  0
 24 25  1  0
 26 27  2  0
 28  5  1  6
 27 28  1  0
 13 29  1  0
 28 29  1  0
 29 30  2  0
 31 26  1  6
 30 31  1  0
 12 32  1  0
  3 33  1  0
 31 33  1  0
 32 33  2  0
 13 34  1  0
 31 34  1  0
 34 35  1  0
 32 36  1  0
 35 36  1  0
 13 38  1  1
 37 38  2  0
 38 39  1  0
 11 40  1  0
 39 40  1  0
 37 41  1  0
 40 41  2  0
M  END
