x1334-x0540
     RDKit          3D

 35 38  0  0  0  0  0  0  0  0999 V2000
    7.2790   -3.0200   18.8570 C   0  0  0  0  0  0  0  0  0  0  0  0
    5.2960   -4.0900   19.6890 O   0  0  0  0  0  0  0  0  0  0  0  0
    7.3860   -5.7610   28.4840 Cl  0  0  0  0  0  0  0  0  0  0  0  0
    6.2110   -3.2930   19.9120 C   0  0  0  0  0  0  0  0  0  0  0  0
    9.2740   -3.0650   24.0220 C   0  0  0  0  0  0  0  0  0  0  0  0
    2.8830    1.2980   24.7170 O   0  0  0  0  0  0  0  0  0  0  0  0
    3.0030    2.0760   23.5370 C   0  0  0  0  0  0  0  0  0  0  0  0
    4.0290    1.8890   22.6220 N   0  0  0  0  0  0  0  0  0  0  0  0
    5.2590    1.2170   22.9520 C   0  0  0  0  0  0  0  0  0  0  0  0
    5.3270   -0.0990   22.4000 C   0  0  0  0  0  0  0  0  0  0  0  0
    2.0910    3.0720   23.2000 N   0  0  0  0  0  0  0  0  0  0  0  0
    6.4210   -0.3280   21.5210 C   0  0  1  0  0  0  0  0  0  0  0  0
    6.3120   -2.6570   21.1510 N   0  0  0  0  0  0  0  0  0  0  0  0
    7.0950   -1.5600   21.3550 C   0  0  2  0  0  0  0  0  0  0  0  0
    8.2400   -1.8100   22.1500 C   0  0  0  0  0  0  0  0  0  0  0  0
    8.0830   -2.7630   23.2500 N   0  0  0  0  0  0  0  0  0  0  0  0
    7.2840   -3.8010   22.9630 C   0  0  0  0  0  0  0  0  0  0  0  0
    6.1630   -3.5540   22.1970 C   0  0  0  0  0  0  0  0  0  0  0  0
    9.7450   -5.3160   25.2310 C   0  0  0  0  0  0  0  0  0  0  0  0
    9.0800   -4.1030   25.0920 C   0  0  0  0  0  0  0  0  0  0  0  0
    7.9080   -3.8270   26.3280 S   0  0  0  0  0  0  0  0  0  0  0  0
    8.2370   -5.2960   27.0780 C   0  0  0  0  0  0  0  0  0  0  0  0
    9.3280   -6.0670   26.3480 C   0  0  0  0  0  0  0  0  0  0  0  0
    6.0170    0.2290   20.1850 C   0  0  0  0  0  0  0  0  0  0  0  0
    6.7720    0.0740   18.8840 C   0  0  0  0  0  0  0  0  0  0  0  0
    6.3380    0.6240   17.7430 N   0  0  0  0  0  0  0  0  0  0  0  0
    5.1890    1.3260   17.7990 C   0  0  0  0  0  0  0  0  0  0  0  0
    4.4240    1.5110   18.9360 C   0  0  0  0  0  0  0  0  0  0  0  0
    4.8410    0.9610   20.1270 C   0  0  0  0  0  0  0  0  0  0  0  0
    0.7560    4.5490   24.5080 C   0  0  0  0  0  0  0  0  0  0  0  0
   -0.4970    4.9480   24.9440 C   0  0  0  0  0  0  0  0  0  0  0  0
   -1.5880    4.6720   24.1410 C   0  0  0  0  0  0  0  0  0  0  0  0
   -1.5240    3.3220   23.6930 C   0  0  0  0  0  0  0  0  0  0  0  0
   -0.2740    2.8070   23.3130 C   0  0  0  0  0  0  0  0  0  0  0  0
    0.8670    3.2490   24.0030 C   0  0  0  0  0  0  0  0  0  0  0  0
  1  4  1  0
  2  4  2  0
  6  7  2  0
  7  8  1  0
  8  9  1  0
  9 10  1  0
  7 11  1  0
 12 10  1  1
  4 13  1  0
 12 14  1  0
 13 14  1  0
 14 15  1  1
  5 16  1  0
 15 16  1  0
 16 17  1  0
 13 18  1  0
 17 18  1  0
  5 20  1  0
 19 20  2  0
 20 21  1  0
  3 22  1  0
 21 22  1  0
 19 23  1  0
 22 23  2  0
 12 24  1  0
 24 25  2  0
 25 26  1  0
 26 27  2  0
 27 28  1  0
 24 29  1  0
 28 29  2  0
 30 31  1  0
 31 32  1  0
 32 33  1  0
 33 34  1  0
 11 35  1  0
 30 35  1  0
 34 35  1  0
M  END
