x1334-x1382
     RDKit          3D

 26 28  0  0  0  0  0  0  0  0999 V2000
   13.4070   -2.0190   21.2100 Cl  0  0  0  0  0  0  0  0  0  0  0  0
    7.4740   -0.7530   22.9470 C   0  0  0  0  0  0  0  0  0  0  0  0
    7.8770   -0.6170   20.4040 O   0  0  0  0  0  0  0  0  0  0  0  0
    7.4840   -3.0490   19.7730 C   0  0  0  0  0  0  0  0  0  0  0  0
    5.1140   -4.2900   19.7870 O   0  0  0  0  0  0  0  0  0  0  0  0
    6.1870   -3.7790   20.0450 C   0  0  0  0  0  0  0  0  0  0  0  0
    9.7730   -1.3020   22.3990 C   0  0  0  0  0  0  0  0  0  0  0  0
   10.8910   -1.8630   21.8550 C   0  0  0  0  0  0  0  0  0  0  0  0
   12.1370   -1.2890   21.9470 C   0  0  0  0  0  0  0  0  0  0  0  0
   12.3430   -0.1100   22.6080 C   0  0  0  0  0  0  0  0  0  0  0  0
   11.2840    0.4990   23.1620 C   0  0  0  0  0  0  0  0  0  0  0  0
   10.0070   -0.0600   23.0810 C   0  0  0  0  0  0  0  0  0  0  0  0
    6.2940   -1.9250   21.3890 N   0  0  0  0  0  0  0  0  0  0  0  0
    7.7160   -1.9200   20.9900 C   0  0  2  0  0  0  0  0  0  0  0  0
    8.3260   -1.8960   22.3120 C   0  0  2  0  0  0  0  0  0  0  0  0
    8.1700   -2.8150   23.2180 N   0  0  0  0  0  0  0  0  0  0  0  0
    7.1450   -3.7090   22.6430 C   0  0  0  0  0  0  0  0  0  0  0  0
    6.0160   -2.9870   22.2520 C   0  0  0  0  0  0  0  0  0  0  0  0
    7.4750   -5.1390   28.2520 Cl  0  0  0  0  0  0  0  0  0  0  0  0
    9.7330   -5.7820   25.0160 C   0  0  0  0  0  0  0  0  0  0  0  0
    8.8090   -4.7560   24.4350 C   0  0  0  0  0  0  0  0  0  0  0  0
    7.8280   -4.3310   25.5260 C   0  0  1  0  0  0  0  0  0  0  0  0
    8.2350   -5.1680   26.7430 C   0  0  0  0  0  0  0  0  0  0  0  0
    9.4140   -6.0500   26.3820 C   0  0  0  0  0  0  0  0  0  0  0  0
    7.6960   -2.3520   24.4310 C   0  0  0  0  0  0  0  0  0  0  0  0
    7.9500   -2.9700   25.6590 C   0  0  0  0  0  0  0  0  0  0  0  0
  4  6  1  0
  5  6  2  0
  7  8  2  0
  1  9  1  0
  8  9  1  0
  9 10  2  0
 10 11  1  0
  7 12  1  0
 11 12  2  0
 14  3  1  6
  4 14  1  0
 13 14  1  0
 15  2  1  1
  7 15  1  0
 14 15  1  0
 15 16  1  0
 16 17  1  0
 13 18  1  0
 17 18  1  0
 20 21  2  0
 21 22  1  0
 19 23  1  0
 22 23  1  0
 20 24  1  0
 23 24  2  0
 16 25  1  0
 22 26  1  1
 25 26  1  0
M  END
