x1334-x0830
     RDKit          3D

 28 31  0  0  0  0  0  0  0  0999 V2000
    7.3050   -2.9920   18.7800 C   0  0  0  0  0  0  0  0  0  0  0  0
    5.3950   -4.0830   19.7110 O   0  0  0  0  0  0  0  0  0  0  0  0
    7.4270   -5.9800   28.4180 Cl  0  0  0  0  0  0  0  0  0  0  0  0
    6.3280   -3.2950   19.9080 C   0  0  0  0  0  0  0  0  0  0  0  0
    9.0660   -2.8520   24.1780 C   0  0  1  0  0  0  0  0  0  0  0  0
    6.5270   -2.7030   21.1460 N   0  0  0  0  0  0  0  0  0  0  0  0
    7.5350   -1.6460   21.2600 C   0  0  0  0  0  0  0  0  0  0  0  0
    8.6960   -2.1000   21.8700 C   0  0  0  0  0  0  0  0  0  0  0  0
    8.6260   -3.2300   22.8380 N   0  0  0  0  0  0  0  0  0  0  0  0
    7.4050   -4.0590   22.8420 C   0  0  0  0  0  0  0  0  0  0  0  0
    6.2620   -3.3870   22.4100 C   0  0  0  0  0  0  0  0  0  0  0  0
    9.7500   -5.1240   25.3110 C   0  0  0  0  0  0  0  0  0  0  0  0
    8.9890   -3.9760   25.1650 C   0  0  0  0  0  0  0  0  0  0  0  0
    7.7790   -3.9250   26.3770 S   0  0  0  0  0  0  0  0  0  0  0  0
    8.2750   -5.3880   27.0590 C   0  0  0  0  0  0  0  0  0  0  0  0
    9.3540   -5.9410   26.3880 C   0  0  0  0  0  0  0  0  0  0  0  0
   12.2990   -1.9840   22.7570 C   0  0  0  0  0  0  0  0  0  0  0  0
   13.1790   -0.9130   22.5480 C   0  0  0  0  0  0  0  0  0  0  0  0
   13.1780    0.4670   22.7430 C   0  0  0  0  0  0  0  0  0  0  0  0
   11.9490    1.1130   23.3160 C   0  0  0  0  0  0  0  0  0  0  0  0
   10.8970    0.1180   23.6070 C   0  0  0  0  0  0  0  0  0  0  0  0
   11.1960   -1.2990   23.2950 C   0  0  0  0  0  0  0  0  0  0  0  0
   11.5500    2.4890   23.6480 C   0  0  0  0  0  0  0  0  0  0  0  0
   10.3180    2.8010   24.1850 C   0  0  0  0  0  0  0  0  0  0  0  0
    9.3860    1.8050   24.4390 C   0  0  0  0  0  0  0  0  0  0  0  0
    9.6610    0.4860   24.1520 C   0  0  0  0  0  0  0  0  0  0  0  0
   10.5240   -2.3280   24.1610 C   0  0  0  0  0  0  0  0  0  0  0  0
   11.1570   -2.8520   23.1030 C   0  0  0  0  0  0  0  0  0  0  0  0
  1  4  1  0
  2  4  2  0
  4  6  1  0
  6  7  1  0
  7  8  1  0
  5  9  1  0
  8  9  1  0
  9 10  1  0
  6 11  1  0
 10 11  1  0
  5 13  1  0
 12 13  2  0
 13 14  1  0
  3 15  1  0
 14 15  1  0
 12 16  1  0
 15 16  2  0
 17 18  2  0
 18 19  1  0
 19 20  2  0
 20 21  1  0
 17 22  1  0
 21 22  2  0
 20 23  1  0
 23 24  2  0
 24 25  1  0
 21 26  1  0
 25 26  2  0
  5 27  1  6
 17 28  1  0
 27 28  1  0
M  END
