x1334-x1358
     RDKit          3D

 26 28  0  0  0  0  0  0  0  0999 V2000
    6.8590   -2.9950   26.0240 N   0  0  0  0  0  0  0  0  0  0  0  0
    5.4430   -0.5280   25.1890 O   0  0  0  0  0  0  0  0  0  0  0  0
    4.6390   -3.3070   25.5210 O   0  0  0  0  0  0  0  0  0  0  0  0
    5.1930   -4.1020   19.6750 O   0  0  0  0  0  0  0  0  0  0  0  0
    5.8250   -3.2500   25.1170 C   0  0  0  0  0  0  0  0  0  0  0  0
    6.3280   -3.8310   20.0250 C   0  0  0  0  0  0  0  0  0  0  0  0
    7.3650   -3.1740   19.1090 C   0  0  0  0  0  0  0  0  0  0  0  0
    7.2310   -5.3750   28.3480 Cl  0  0  0  0  0  0  0  0  0  0  0  0
    9.4550   -2.8450   24.1670 C   0  0  0  0  0  0  0  0  0  0  0  0
    6.0880   -0.6370   26.3900 C   0  0  0  0  0  0  0  0  0  0  0  0
    6.7630   -1.8120   26.7820 C   0  0  0  0  0  0  0  0  0  0  0  0
    7.4070   -1.8380   28.0380 C   0  0  0  0  0  0  0  0  0  0  0  0
    7.3820   -0.7250   28.8840 C   0  0  0  0  0  0  0  0  0  0  0  0
    6.7080    0.4310   28.4770 C   0  0  0  0  0  0  0  0  0  0  0  0
    6.0680    0.4690   27.2400 C   0  0  0  0  0  0  0  0  0  0  0  0
    6.7700   -4.1700   21.2930 N   0  0  0  0  0  0  0  0  0  0  0  0
    7.6120   -3.2840   21.9820 C   0  0  0  0  0  0  0  0  0  0  0  0
    7.1030   -2.8610   23.2030 C   0  0  0  0  0  0  0  0  0  0  0  0
    5.9440   -3.4850   23.6210 C   0  0  0  0  0  0  0  0  0  0  0  0
    5.8680   -4.8700   23.5130 C   0  0  0  0  0  0  0  0  0  0  0  0
    6.2210   -5.1410   22.0340 C   0  0  0  0  0  0  0  0  0  0  0  0
    9.6400   -5.3290   25.2550 C   0  0  0  0  0  0  0  0  0  0  0  0
    9.1150   -3.9180   25.1620 C   0  0  0  0  0  0  0  0  0  0  0  0
    8.1280   -3.7240   26.3330 C   0  0  2  0  0  0  0  0  0  0  0  0
    8.1440   -4.9910   26.9790 C   0  0  0  0  0  0  0  0  0  0  0  0
    9.0230   -5.8960   26.3600 C   0  0  0  0  0  0  0  0  0  0  0  0
  1  5  1  0
  3  5  2  0
  4  6  2  0
  6  7  1  0
  2 10  1  0
  1 11  1  0
 10 11  2  0
 11 12  1  0
 12 13  2  0
 13 14  1  0
 10 15  1  0
 14 15  2  0
  6 16  1  0
 16 17  1  0
 17 18  1  0
  5 19  1  0
 18 19  1  0
 19 20  1  0
 16 21  1  0
 20 21  1  0
  9 23  1  0
 22 23  2  0
 24  1  1  6
 23 24  1  0
  8 25  1  0
 24 25  1  0
 22 26  1  0
 25 26  2  0
M  END
