x1336-x2779
     RDKit          3D

 26 28  0  0  0  0  0  0  0  0999 V2000
    5.8980   -5.3320   29.1310 C   0  0  0  0  0  0  0  0  0  0  0  0
    8.5830   -0.8820   25.2530 O   0  0  0  0  0  0  0  0  0  0  0  0
    6.1480   -1.2610   25.6910 O   0  0  0  0  0  0  0  0  0  0  0  0
    5.4240   -4.1720   19.7500 O   0  0  0  0  0  0  0  0  0  0  0  0
   10.3160   -3.7680   25.1290 C   0  0  0  0  0  0  0  0  0  0  0  0
    6.4460   -3.5270   19.9370 C   0  0  0  0  0  0  0  0  0  0  0  0
    7.3790   -3.0670   18.8120 C   0  0  0  0  0  0  0  0  0  0  0  0
    7.4370   -1.7620   25.2620 S   0  0  0  0  0  0  0  0  0  0  0  0
    7.0280   -4.9110   28.0780 C   0  0  0  0  0  0  0  0  0  0  0  0
    6.8050   -3.6640   27.2010 C   0  0  0  0  0  0  0  0  0  0  0  0
    7.8480   -3.2270   26.1960 C   0  0  0  0  0  0  0  0  0  0  0  0
    9.1450   -4.0340   26.0520 C   0  0  0  0  0  0  0  0  0  0  0  0
    9.2790   -5.2510   26.9490 C   0  0  0  0  0  0  0  0  0  0  0  0
    8.1970   -5.6500   27.9450 C   0  0  0  0  0  0  0  0  0  0  0  0
    6.8500   -3.1960   21.2170 N   0  0  0  0  0  0  0  0  0  0  0  0
    6.6550   -4.1380   22.3070 C   0  0  0  0  0  0  0  0  0  0  0  0
    6.3050   -3.4670   23.4610 C   0  0  0  0  0  0  0  0  0  0  0  0
    7.2480   -2.3320   23.7110 N   0  0  0  0  0  0  0  0  0  0  0  0
    7.7000   -1.5980   22.6690 C   0  0  0  0  0  0  0  0  0  0  0  0
    7.8950   -2.2040   21.4300 C   0  0  0  0  0  0  0  0  0  0  0  0
   12.1090   -1.6150   22.7540 C   0  0  0  0  0  0  0  0  0  0  0  0
   11.0820   -1.7180   23.7050 C   0  0  0  0  0  0  0  0  0  0  0  0
   10.9850   -0.3300   24.7010 S   0  0  0  0  0  0  0  0  0  0  0  0
   12.2830    0.3810   23.8590 C   0  0  0  0  0  0  0  0  0  0  0  0
   12.7910   -0.4170   22.8470 C   0  0  0  0  0  0  0  0  0  0  0  0
   10.1310   -2.8750   23.8860 C   0  0  0  0  0  0  0  0  0  0  0  0
  4  6  2  0
  6  7  1  0
  2  8  2  0
  3  8  2  0
  1  9  1  0
  9 10  2  0
  8 11  1  0
 10 11  1  0
  5 12  1  0
 11 12  2  0
 12 13  1  0
  9 14  1  0
 13 14  2  0
  6 15  1  0
 15 16  1  0
 16 17  1  0
  8 18  1  0
 17 18  1  0
 18 19  1  0
 15 20  1  0
 19 20  1  0
 21 22  2  0
 22 23  1  0
 23 24  1  0
 21 25  1  0
 24 25  2  0
  5 26  1  0
 22 26  1  0
M  END
