x1334-x2964
     RDKit          3D

 34 38  0  0  0  0  0  0  0  0999 V2000
    7.2920   -3.0270   18.7670 C   0  0  0  0  0  0  0  0  0  0  0  0
    5.3820   -4.1480   19.7110 O   0  0  0  0  0  0  0  0  0  0  0  0
    7.3850   -5.8600   28.4100 Cl  0  0  0  0  0  0  0  0  0  0  0  0
    6.3040   -3.3480   19.8860 C   0  0  0  0  0  0  0  0  0  0  0  0
    9.4000   -3.0180   24.0980 C   0  0  0  0  0  0  0  0  0  0  0  0
    3.3380    2.0850   19.2000 N   0  0  0  0  0  0  0  0  0  0  0  0
    8.8260    1.5870   21.1940 O   0  0  0  0  0  0  0  0  0  0  0  0
   13.3610   -2.0200   21.3450 Cl  0  0  0  0  0  0  0  0  0  0  0  0
    7.1690   -0.3520   21.2090 N   0  0  0  0  0  0  0  0  0  0  0  0
    8.9210   -0.4460   22.5380 N   0  0  0  0  0  0  0  0  0  0  0  0
    8.3250    0.3210   21.6380 C   0  0  0  0  0  0  0  0  0  0  0  0
    6.4720   -2.7490   21.1180 N   0  0  0  0  0  0  0  0  0  0  0  0
    7.5080   -1.7040   21.1640 C   0  0  2  0  0  0  0  0  0  0  0  0
    8.4670   -1.7740   22.2300 C   0  0  2  0  0  0  0  0  0  0  0  0
    8.1760   -2.6470   23.3820 N   0  0  0  0  0  0  0  0  0  0  0  0
    7.4800   -3.8650   22.9210 C   0  0  0  0  0  0  0  0  0  0  0  0
    6.3660   -3.5230   22.2030 C   0  0  0  0  0  0  0  0  0  0  0  0
    9.7700   -5.2990   25.3150 C   0  0  0  0  0  0  0  0  0  0  0  0
    9.1340   -4.0620   25.1410 C   0  0  0  0  0  0  0  0  0  0  0  0
    7.9070   -3.7920   26.3300 S   0  0  0  0  0  0  0  0  0  0  0  0
    8.2640   -5.3570   27.0600 C   0  0  0  0  0  0  0  0  0  0  0  0
    9.2700   -6.0300   26.4110 C   0  0  0  0  0  0  0  0  0  0  0  0
    4.5370    1.4080   19.1930 C   0  0  0  0  0  0  0  0  0  0  0  0
    5.1030    0.9260   20.3750 C   0  0  0  0  0  0  0  0  0  0  0  0
    6.4520    0.1810   20.2080 C   0  0  0  0  0  0  0  0  0  0  0  0
    6.9590    0.0750   18.7540 C   0  0  0  0  0  0  0  0  0  0  0  0
    6.3280    0.5840   17.7030 N   0  0  0  0  0  0  0  0  0  0  0  0
    5.1820    1.2140   17.9290 C   0  0  0  0  0  0  0  0  0  0  0  0
   10.8570    0.9220   23.4600 C   0  0  0  0  0  0  0  0  0  0  0  0
   12.2170    1.0820   23.5290 C   0  0  0  0  0  0  0  0  0  0  0  0
   12.9860    0.1580   22.8740 C   0  0  0  0  0  0  0  0  0  0  0  0
   12.4530   -0.8970   22.1730 C   0  0  0  0  0  0  0  0  0  0  0  0
   11.1250   -1.0840   22.0860 C   0  0  0  0  0  0  0  0  0  0  0  0
   10.2810   -0.2240   22.6880 C   0  0  0  0  0  0  0  0  0  0  0  0
  1  4  1  0
  2  4  2  0
  7 11  2  0
  9 11  1  0
 10 11  1  0
  4 12  1  0
 13  9  1  1
 12 13  1  0
 14 10  1  1
 13 14  1  0
  5 15  1  0
 14 15  1  0
 15 16  1  0
 12 17  1  0
 16 17  1  0
  5 19  1  0
 18 19  2  0
 19 20  1  0
  3 21  1  0
 20 21  1  0
 18 22  1  0
 21 22  2  0
  6 23  1  0
 23 24  2  0
  9 25  1  0
 24 25  1  0
 25 26  2  0
 26 27  1  0
 23 28  1  0
 27 28  2  0
 29 30  2  0
 30 31  1  0
  8 32  1  0
 31 32  2  0
 32 33  1  0
 10 34  1  0
 29 34  1  0
 33 34  2  0
M  END
