x1334-x0736
     RDKit          3D

 23 25  0  0  0  0  0  0  0  0999 V2000
    7.3400   -3.0020   18.8070 C   0  0  0  0  0  0  0  0  0  0  0  0
    5.3090   -3.9820   19.6110 O   0  0  0  0  0  0  0  0  0  0  0  0
    7.4580   -5.8450   28.4280 Cl  0  0  0  0  0  0  0  0  0  0  0  0
    6.2780   -3.2680   19.8630 C   0  0  0  0  0  0  0  0  0  0  0  0
    9.3220   -3.3390   23.9290 C   0  0  0  0  0  0  0  0  0  0  0  0
    5.9460   -2.3470   24.5010 O   0  0  0  0  0  0  0  0  0  0  0  0
    7.3450   -2.1230   24.4100 C   0  0  0  0  0  0  0  0  0  0  0  0
    6.4240   -2.7490   21.1230 N   0  0  0  0  0  0  0  0  0  0  0  0
    7.3070   -1.6450   21.3090 C   0  0  0  0  0  0  0  0  0  0  0  0
    8.3640   -2.0360   22.1400 C   0  0  0  0  0  0  0  0  0  0  0  0
    8.0520   -2.8860   23.2130 C   0  0  0  0  0  0  0  0  0  0  0  0
    7.2150   -3.9470   22.9640 C   0  0  0  0  0  0  0  0  0  0  0  0
    6.0780   -3.5560   22.2770 C   0  0  0  0  0  0  0  0  0  0  0  0
    9.7820   -5.4860   25.3070 C   0  0  0  0  0  0  0  0  0  0  0  0
    9.1110   -4.3030   25.0560 C   0  0  0  0  0  0  0  0  0  0  0  0
    7.9120   -3.9970   26.2320 S   0  0  0  0  0  0  0  0  0  0  0  0
    8.3160   -5.4130   27.0160 C   0  0  0  0  0  0  0  0  0  0  0  0
    9.3380   -6.1040   26.4030 C   0  0  0  0  0  0  0  0  0  0  0  0
    8.5700   -0.0780   24.8700 O   0  0  0  0  0  0  0  0  0  0  0  0
    8.0870   -1.2930   25.3240 C   0  0  0  0  0  0  0  0  0  0  0  0
    8.4880   -1.4980   26.8070 C   0  0  0  0  0  0  0  0  0  0  0  0
    9.2730   -0.2500   27.1600 C   0  0  0  0  0  0  0  0  0  0  0  0
    9.2390    0.5320   25.8730 C   0  0  0  0  0  0  0  0  0  0  0  0
  1  4  1  0
  2  4  2  0
  6  7  2  0
  4  8  1  0
  8  9  1  0
  9 10  1  0
  5 11  1  0
 11  7  1  0
 10 11  1  0
 11 12  1  0
  8 13  1  0
 12 13  1  0
  5 15  1  0
 14 15  2  0
 15 16  1  0
  3 17  1  0
 16 17  1  0
 14 18  1  0
 17 18  2  0
  7 20  1  0
 19 20  1  0
 20 21  2  0
 21 22  1  0
 19 23  1  0
 22 23  2  0
M  END
