x1336-x2572
     RDKit          3D

 40 45  0  0  0  0  0  0  0  0999 V2000
    6.0550   -5.4340   28.9640 C   0  0  0  0  0  0  0  0  0  0  0  0
    8.2740   -1.2590   24.7960 N   0  0  0  0  0  0  0  0  0  0  0  0
    5.9720   -1.2400   25.9430 O   0  0  0  0  0  0  0  0  0  0  0  0
    5.3830   -4.2020   19.7720 O   0  0  0  0  0  0  0  0  0  0  0  0
    9.9190   -3.6910   24.9380 C   0  0  0  0  0  0  0  0  0  0  0  0
    6.4570   -3.6680   20.0200 C   0  0  0  0  0  0  0  0  0  0  0  0
    7.3910   -3.0770   18.9560 C   0  0  0  0  0  0  0  0  0  0  0  0
    7.0150   -1.9020   25.1940 S   0  0  2  0  0  0  0  0  0  0  0  0
    4.3040    1.0300   21.7620 C   0  0  0  0  0  0  0  0  0  0  0  0
    8.6710    1.5140   21.1520 O   0  0  0  0  0  0  0  0  0  0  0  0
    6.9210   -0.2890   21.7970 N   0  0  0  0  0  0  0  0  0  0  0  0
   13.7310   -2.3910   20.6450 N   0  0  0  0  0  0  0  0  0  0  0  0
    8.2650    0.2780   21.7500 C   0  0  0  0  0  0  0  0  0  0  0  0
    9.1010   -0.6980   22.4390 C   0  0  2  0  0  0  0  0  0  0  0  0
   13.3210   -1.7190   21.3920 C   0  0  0  0  0  0  0  0  0  0  0  0
    8.1190   -0.7540   23.4570 C   0  0  1  0  0  0  0  0  0  0  0  0
    7.0090   -4.9470   27.9200 C   0  0  0  0  0  0  0  0  0  0  0  0
    6.6810   -3.8320   27.1220 C   0  0  0  0  0  0  0  0  0  0  0  0
    7.5280   -3.3440   26.1400 C   0  0  0  0  0  0  0  0  0  0  0  0
    8.8690   -4.0740   25.9450 C   0  0  0  0  0  0  0  0  0  0  0  0
    9.1250   -5.1690   26.7730 C   0  0  0  0  0  0  0  0  0  0  0  0
    8.2320   -5.5900   27.7240 C   0  0  0  0  0  0  0  0  0  0  0  0
    6.9800   -3.6020   21.3850 N   0  0  0  0  0  0  0  0  0  0  0  0
    6.2680   -4.0710   22.4260 C   0  0  0  0  0  0  0  0  0  0  0  0
    5.6330   -3.1680   23.2850 C   0  0  0  0  0  0  0  0  0  0  0  0
    6.3320   -2.0540   23.5580 N   0  0  0  0  0  0  0  0  0  0  0  0
    7.1370   -1.5260   22.5320 C   0  0  1  0  0  0  0  0  0  0  0  0
    7.8240   -2.4610   21.7540 C   0  0  0  0  0  0  0  0  0  0  0  0
    6.3620    0.1280   18.0840 N   0  0  0  0  0  0  0  0  0  0  0  0
    6.8890   -0.2090   19.2900 C   0  0  0  0  0  0  0  0  0  0  0  0
    6.2910    0.0460   20.5440 C   0  0  0  0  0  0  0  0  0  0  0  0
    5.0610    0.6840   20.5180 C   0  0  0  0  0  0  0  0  0  0  0  0
    4.4990    1.0370   19.2860 C   0  0  0  0  0  0  0  0  0  0  0  0
    5.1740    0.7490   18.1050 C   0  0  0  0  0  0  0  0  0  0  0  0
   10.8630    0.4950   23.6150 C   0  0  0  0  0  0  0  0  0  0  0  0
   12.1900    0.7310   23.8160 C   0  0  0  0  0  0  0  0  0  0  0  0
   13.1040    0.0130   23.0900 C   0  0  0  0  0  0  0  0  0  0  0  0
   12.6210   -0.9160   22.2080 C   0  0  0  0  0  0  0  0  0  0  0  0
   11.3340   -1.1360   22.0270 C   0  0  0  0  0  0  0  0  0  0  0  0
   10.4550   -0.4330   22.7100 C   0  0  0  0  0  0  0  0  0  0  0  0
  4  6  2  0
  6  7  1  0
  2  8  2  0
  3  8  2  0
 10 13  2  0
 11 13  1  0
 13 14  1  0
 12 15  3  0
 16  2  1  1
 14 16  1  0
  1 17  1  0
 17 18  2  0
  8 19  1  1
 18 19  1  0
  5 20  1  0
 19 20  2  0
 20 21  1  0
 17 22  1  0
 21 22  2  0
  6 23  1  0
 23 24  1  0
 24 25  1  0
  8 26  1  0
 25 26  1  0
 27 11  1  0
 16 27  1  0
 26 27  1  0
 23 28  1  0
 27 28  1  6
 29 30  2  0
 11 31  1  0
 30 31  1  0
  9 32  1  0
 31 32  2  0
 32 33  1  0
 29 34  1  0
 33 34  2  0
 35 36  2  0
 36 37  1  0
 15 38  1  0
 37 38  2  0
 38 39  1  0
 14 40  1  1
 35 40  1  0
 39 40  2  0
M  END
