x1336-x2908
     RDKit          3D

 38 42  0  0  0  0  0  0  0  0999 V2000
    6.1340   -5.4750   29.0400 C   0  0  0  0  0  0  0  0  0  0  0  0
    8.2030   -0.8220   25.1970 O   0  0  0  0  0  0  0  0  0  0  0  0
    5.8720   -1.1710   25.9790 O   0  0  0  0  0  0  0  0  0  0  0  0
    5.6660   -4.0350   19.7970 O   0  0  0  0  0  0  0  0  0  0  0  0
    9.9160   -3.5300   24.9060 C   0  0  0  0  0  0  0  0  0  0  0  0
    6.7380   -3.4260   20.0300 C   0  0  0  0  0  0  0  0  0  0  0  0
    7.5760   -2.9960   18.8590 C   0  0  0  0  0  0  0  0  0  0  0  0
    7.0170   -1.6530   25.2420 S   0  0  0  0  0  0  0  0  0  0  0  0
    4.4940    1.4810   21.6920 C   0  0  0  0  0  0  0  0  0  0  0  0
    8.7340    1.0570   21.1560 O   0  0  0  0  0  0  0  0  0  0  0  0
   13.4190   -2.1580   21.5270 Cl  0  0  0  0  0  0  0  0  0  0  0  0
    6.9110   -0.2220   21.6660 N   0  0  0  0  0  0  0  0  0  0  0  0
    8.8530   -1.3170   21.4610 N   0  0  0  0  0  0  0  0  0  0  0  0
    8.2020   -0.0160   21.4000 C   0  0  0  0  0  0  0  0  0  0  0  0
    7.0430   -4.9400   27.9810 C   0  0  0  0  0  0  0  0  0  0  0  0
    6.6630   -3.7080   27.1840 C   0  0  0  0  0  0  0  0  0  0  0  0
    7.5620   -3.1490   26.1140 C   0  0  0  0  0  0  0  0  0  0  0  0
    8.8740   -3.9160   25.9020 C   0  0  0  0  0  0  0  0  0  0  0  0
    9.1340   -5.0630   26.7020 C   0  0  0  0  0  0  0  0  0  0  0  0
    8.2710   -5.5510   27.6880 C   0  0  0  0  0  0  0  0  0  0  0  0
    7.2530   -3.2470   21.3730 N   0  0  0  0  0  0  0  0  0  0  0  0
    6.6950   -4.0590   22.4240 C   0  0  0  0  0  0  0  0  0  0  0  0
    6.0050   -3.4070   23.4520 C   0  0  0  0  0  0  0  0  0  0  0  0
    6.4020   -1.9480   23.6310 N   0  0  0  0  0  0  0  0  0  0  0  0
    7.1960   -1.3350   22.6750 C   0  0  1  0  0  0  0  0  0  0  0  0
    7.9440   -2.1850   21.9850 C   0  0  2  0  0  0  0  0  0  0  0  0
    6.1950    0.0220   17.9910 N   0  0  0  0  0  0  0  0  0  0  0  0
    6.6990   -0.2750   19.2090 C   0  0  0  0  0  0  0  0  0  0  0  0
    6.2020    0.1510   20.4500 C   0  0  0  0  0  0  0  0  0  0  0  0
    5.0840    0.9520   20.3990 C   0  0  0  0  0  0  0  0  0  0  0  0
    4.5250    1.2800   19.1480 C   0  0  0  0  0  0  0  0  0  0  0  0
    5.1050    0.8040   17.9850 C   0  0  0  0  0  0  0  0  0  0  0  0
   10.1370    0.0360   23.1480 C   0  0  0  0  0  0  0  0  0  0  0  0
   11.3900    0.3550   23.7230 C   0  0  0  0  0  0  0  0  0  0  0  0
   12.5360   -0.2940   23.2830 C   0  0  0  0  0  0  0  0  0  0  0  0
   12.3140   -1.2370   22.2830 C   0  0  0  0  0  0  0  0  0  0  0  0
   11.1450   -1.5520   21.7440 C   0  0  0  0  0  0  0  0  0  0  0  0
   10.0350   -0.9560   22.1150 C   0  0  0  0  0  0  0  0  0  0  0  0
  4  6  2  0
  6  7  1  0
  2  8  2  0
  3  8  2  0
 10 14  2  0
 12 14  1  0
 13 14  1  0
  1 15  1  0
 15 16  2  0
  8 17  1  0
 16 17  1  0
  5 18  1  0
 17 18  2  0
 18 19  1  0
 15 20  1  0
 19 20  2  0
  6 21  1  0
 21 22  1  0
 22 23  1  0
  8 24  1  0
 23 24  1  0
 25 12  1  6
 24 25  1  0
 26 13  1  6
 21 26  1  0
 25 26  1  0
 27 28  2  0
 12 29  1  0
 28 29  1  0
  9 30  1  0
 29 30  2  0
 30 31  1  0
 27 32  1  0
 31 32  2  0
 33 34  2  0
 34 35  1  0
 11 36  1  0
 35 36  2  0
 36 37  1  0
 13 38  1  0
 33 38  1  0
 37 38  2  0
M  END
