x1334-x1385
     RDKit          3D

 16 17  0  0  0  0  0  0  0  0999 V2000
    7.3640   -3.0000   18.7690 C   0  0  0  0  0  0  0  0  0  0  0  0
    5.4370   -4.0570   19.7090 O   0  0  0  0  0  0  0  0  0  0  0  0
    7.3400   -5.6830   28.4070 Cl  0  0  0  0  0  0  0  0  0  0  0  0
    6.4020   -3.3050   19.9060 C   0  0  0  0  0  0  0  0  0  0  0  0
    9.6310   -3.0540   24.0670 C   0  0  0  0  0  0  0  0  0  0  0  0
    6.6560   -2.7540   21.1530 N   0  0  0  0  0  0  0  0  0  0  0  0
    7.6310   -1.6450   21.2500 C   0  0  0  0  0  0  0  0  0  0  0  0
    8.7470   -1.9990   22.0050 C   0  0  0  0  0  0  0  0  0  0  0  0
    8.4370   -2.6630   23.2920 N   0  0  0  0  0  0  0  0  0  0  0  0
    7.5650   -3.8250   23.0590 C   0  0  0  0  0  0  0  0  0  0  0  0
    6.3780   -3.4730   22.4050 C   0  0  0  0  0  0  0  0  0  0  0  0
    9.8560   -5.3290   25.3340 C   0  0  0  0  0  0  0  0  0  0  0  0
    9.2960   -4.0740   25.1270 C   0  0  0  0  0  0  0  0  0  0  0  0
    8.0660   -3.7580   26.2950 S   0  0  0  0  0  0  0  0  0  0  0  0
    8.2870   -5.2500   27.0480 C   0  0  0  0  0  0  0  0  0  0  0  0
    9.2720   -5.9830   26.4320 C   0  0  0  0  0  0  0  0  0  0  0  0
  1  4  1  0
  2  4  2  0
  4  6  1  0
  6  7  1  0
  7  8  1  0
  5  9  1  0
  8  9  1  0
  9 10  1  0
  6 11  1  0
 10 11  1  0
  5 13  1  0
 12 13  2  0
 13 14  1  0
  3 15  1  0
 14 15  1  0
 12 16  1  0
 15 16  2  0
M  END
