x1334-x3113
     RDKit          3D

 40 44  0  0  0  0  0  0  0  0999 V2000
    8.3810    1.3740   23.2210 N   0  0  0  0  0  0  0  0  0  0  0  0
    8.9280    1.6310   20.8790 O   0  0  0  0  0  0  0  0  0  0  0  0
   11.6290    3.9070   23.4560 O   0  0  0  0  0  0  0  0  0  0  0  0
    7.0670   -0.0300   21.5610 C   0  0  1  0  0  0  0  0  0  0  0  0
    8.1730    1.0040   21.8970 C   0  0  0  0  0  0  0  0  0  0  0  0
    9.1250    2.2550   23.4700 C   0  0  0  0  0  0  0  0  0  0  0  0
   10.5170    1.9820   23.5750 C   0  0  0  0  0  0  0  0  0  0  0  0
   11.3380    2.8710   22.8770 C   0  0  0  0  0  0  0  0  0  0  0  0
   12.8040    4.5270   22.9160 C   0  0  0  0  0  0  0  0  0  0  0  0
   12.5330   -2.1900   24.5340 C   0  0  0  0  0  0  0  0  0  0  0  0
   13.3450   -2.3080   23.4110 C   0  0  0  0  0  0  0  0  0  0  0  0
   13.1700   -3.1100   25.6030 C   0  0  0  0  0  0  0  0  0  0  0  0
   12.6560   -0.7170   24.9510 C   0  0  0  0  0  0  0  0  0  0  0  0
    7.4400   -2.9680   18.6320 C   0  0  0  0  0  0  0  0  0  0  0  0
    5.4450   -3.8180   19.6590 O   0  0  0  0  0  0  0  0  0  0  0  0
    7.5980   -5.5870   28.3260 Cl  0  0  0  0  0  0  0  0  0  0  0  0
    6.5240   -3.2070   19.8130 C   0  0  0  0  0  0  0  0  0  0  0  0
    9.5430   -3.0010   23.7800 C   0  0  2  0  0  0  0  0  0  0  0  0
    6.3300    0.4770   17.7060 N   0  0  0  0  0  0  0  0  0  0  0  0
    5.2330    1.2580   17.7650 C   0  0  0  0  0  0  0  0  0  0  0  0
    4.5170    1.7470   19.0240 C   0  0  0  0  0  0  0  0  0  0  0  0
    5.1510    1.2900   20.3550 C   0  0  0  0  0  0  0  0  0  0  0  0
    6.3900    0.4210   20.3130 C   0  0  0  0  0  0  0  0  0  0  0  0
    6.9290    0.0390   18.9600 C   0  0  0  0  0  0  0  0  0  0  0  0
    9.6820   -2.3950   22.1330 C   0  0  0  0  0  0  0  0  0  0  0  0
   10.9140   -2.6960   22.7790 C   0  0  0  0  0  0  0  0  0  0  0  0
   11.0370   -2.5060   24.1480 C   0  0  2  0  0  0  0  0  0  0  0  0
   10.1580   -1.5250   24.1900 C   0  0  0  0  0  0  0  0  0  0  0  0
    8.9520   -1.0090   23.7620 C   0  0  0  0  0  0  0  0  0  0  0  0
    8.3750   -1.8750   22.8680 C   0  0  1  0  0  0  0  0  0  0  0  0
    7.1870   -2.7840   21.0860 C   0  0  0  0  0  0  0  0  0  0  0  0
    7.4380   -1.5450   21.7520 C   0  0  0  0  0  0  0  0  0  0  0  0
    8.0880   -2.8660   23.7240 N   0  0  0  0  0  0  0  0  0  0  0  0
    7.3880   -3.9820   23.1260 C   0  0  0  0  0  0  0  0  0  0  0  0
    7.7210   -3.9870   21.7820 C   0  0  0  0  0  0  0  0  0  0  0  0
    9.9770   -5.2480   25.1710 C   0  0  0  0  0  0  0  0  0  0  0  0
    9.3800   -4.0480   24.8990 C   0  0  0  0  0  0  0  0  0  0  0  0
    8.1810   -3.7520   26.1040 S   0  0  0  0  0  0  0  0  0  0  0  0
    8.4960   -5.1870   26.9190 C   0  0  0  0  0  0  0  0  0  0  0  0
    9.4780   -5.9080   26.3320 C   0  0  0  0  0  0  0  0  0  0  0  0
  1  5  1  0
  2  5  2  0
  4  5  1  6
  1  6  1  0
  6  7  1  0
  3  8  1  0
  7  8  1  0
  3  9  1  0
 10 11  1  0
 10 12  1  0
 10 13  1  0
 14 17  1  0
 15 17  2  0
 19 20  2  0
 20 21  1  0
 21 22  2  0
  4 23  1  0
 22 23  1  0
 19 24  1  0
 23 24  2  0
 25 26  2  0
 27 10  1  6
 26 27  1  0
 18 28  1  0
 27 28  1  0
 28 29  2  0
 30 25  1  6
 29 30  1  0
 17 31  1  0
  4 32  1  0
 30 32  1  0
 31 32  2  0
 18 33  1  0
 30 33  1  0
 33 34  1  0
 31 35  1  0
 34 35  1  0
 18 37  1  1
 36 37  2  0
 37 38  1  0
 16 39  1  0
 38 39  1  0
 36 40  1  0
 39 40  2  0
M  END
