x1334-x1336
     RDKit          3D

 20 21  0  0  0  0  0  0  0  0999 V2000
    6.0590   -5.3410   29.0390 C   0  0  0  0  0  0  0  0  0  0  0  0
    8.6050   -0.9760   25.3450 O   0  0  0  0  0  0  0  0  0  0  0  0
    6.1420   -1.3960   25.6720 O   0  0  0  0  0  0  0  0  0  0  0  0
    5.3170   -4.0940   19.7020 O   0  0  0  0  0  0  0  0  0  0  0  0
   10.1260   -3.5930   25.2130 C   0  0  0  0  0  0  0  0  0  0  0  0
    6.3530   -3.4900   19.9760 C   0  0  0  0  0  0  0  0  0  0  0  0
    7.3580   -3.0940   18.9150 C   0  0  0  0  0  0  0  0  0  0  0  0
    7.4670   -1.8680   25.3440 S   0  0  0  0  0  0  0  0  0  0  0  0
    7.0850   -4.8850   28.0510 C   0  0  0  0  0  0  0  0  0  0  0  0
    6.8810   -3.7680   27.2510 C   0  0  0  0  0  0  0  0  0  0  0  0
    7.8250   -3.3170   26.3210 C   0  0  0  0  0  0  0  0  0  0  0  0
    9.0290   -4.0110   26.1850 C   0  0  0  0  0  0  0  0  0  0  0  0
    9.2330   -5.1380   26.9850 C   0  0  0  0  0  0  0  0  0  0  0  0
    8.2830   -5.5740   27.9040 C   0  0  0  0  0  0  0  0  0  0  0  0
    6.6860   -3.2010   21.2740 N   0  0  0  0  0  0  0  0  0  0  0  0
    6.4960   -4.1700   22.3450 C   0  0  0  0  0  0  0  0  0  0  0  0
    6.3170   -3.5120   23.5480 C   0  0  0  0  0  0  0  0  0  0  0  0
    7.4370   -2.5560   23.7970 N   0  0  0  0  0  0  0  0  0  0  0  0
    7.7470   -1.6930   22.7440 C   0  0  0  0  0  0  0  0  0  0  0  0
    7.8180   -2.2790   21.5010 C   0  0  0  0  0  0  0  0  0  0  0  0
  4  6  2  0
  6  7  1  0
  2  8  2  0
  3  8  2  0
  1  9  1  0
  9 10  2  0
  8 11  1  0
 10 11  1  0
  5 12  1  0
 11 12  2  0
 12 13  1  0
  9 14  1  0
 13 14  2  0
  6 15  1  0
 15 16  1  0
 16 17  1  0
  8 18  1  0
 17 18  1  0
 18 19  1  0
 15 20  1  0
 19 20  1  0
M  END
