x1334-x0771-x3115-x3110-x3113
     RDKit          3D

 64 71  0  0  0  0  0  0  0  0999 V2000
    8.0380    1.4790   23.0480 N   0  0  0  0  0  0  0  0  0  0  0  0
   13.4150    5.1150   22.7030 C   0  0  0  0  0  0  0  0  0  0  0  0
   11.8850    3.4280   22.5480 O   0  0  0  0  0  0  0  0  0  0  0  0
   12.2830    4.4390   21.9580 C   0  0  0  0  0  0  0  0  0  0  0  0
   11.2060    4.5940   24.3450 O   0  0  0  0  0  0  0  0  0  0  0  0
   11.0840    3.5630   23.6620 C   0  0  0  0  0  0  0  0  0  0  0  0
    9.0140    1.7650   20.9640 O   0  0  0  0  0  0  0  0  0  0  0  0
   10.0440    2.4620   24.0650 C   0  0  0  0  0  0  0  0  0  0  0  0
    8.8510    2.6050   23.1790 C   0  0  2  0  0  0  0  0  0  0  0  0
    8.1520    0.9660   21.7340 C   0  0  0  0  0  0  0  0  0  0  0  0
    7.4550   -0.2210   21.1030 C   0  0  2  0  0  0  0  0  0  0  0  0
   12.4550   -1.7640   24.3030 C   0  0  0  0  0  0  0  0  0  0  0  0
   12.3370   -0.4940   25.0700 C   0  0  0  0  0  0  0  0  0  0  0  0
   13.3660   -1.6330   23.1240 C   0  0  0  0  0  0  0  0  0  0  0  0
   13.1300   -2.7880   25.2240 C   0  0  0  0  0  0  0  0  0  0  0  0
    8.7340    5.0820   23.1610 O   0  0  0  0  0  0  0  0  0  0  0  0
    8.0050    3.8800   23.4530 C   0  0  0  0  0  0  0  0  0  0  0  0
    8.1320    5.8530   22.3690 C   0  0  0  0  0  0  0  0  0  0  0  0
    0.6250   -1.3490   26.2990 C   0  0  0  0  0  0  0  0  0  0  0  0
    4.2740   -7.0180   25.5340 O   0  0  0  0  0  0  0  0  0  0  0  0
    5.7710   -5.4660   26.8460 O   0  0  0  0  0  0  0  0  0  0  0  0
    5.8690   -4.7480   20.0190 O   0  0  0  0  0  0  0  0  0  0  0  0
    1.8230   -6.0480   24.9600 C   0  0  0  0  0  0  0  0  0  0  0  0
    6.8850   -4.3770   20.6770 C   0  0  0  0  0  0  0  0  0  0  0  0
    8.0320   -3.5550   20.1110 C   0  0  0  0  0  0  0  0  0  0  0  0
    4.8520   -5.7160   25.7650 S   0  0  0  0  0  0  0  0  0  0  0  0
    6.3290   -1.6840   18.6930 C   0  0  0  0  0  0  0  0  0  0  0  0
    5.0730   -3.4620   19.3370 O   0  0  0  0  0  0  0  0  0  0  0  0
    7.2530   -6.1590   28.6640 Cl  0  0  0  0  0  0  0  0  0  0  0  0
    5.9200   -2.6110   19.6320 C   0  0  0  0  0  0  0  0  0  0  0  0
    8.7320   -2.5790   24.8700 C   0  0  1  0  0  0  0  0  0  0  0  0
    6.1910    0.7250   17.5170 N   0  0  0  0  0  0  0  0  0  0  0  0
    5.0890    1.3750   17.8770 C   0  0  0  0  0  0  0  0  0  0  0  0
    4.6010    1.5640   19.1600 C   0  0  0  0  0  0  0  0  0  0  0  0
    5.2470    1.0870   20.3100 C   0  0  0  0  0  0  0  0  0  0  0  0
    6.5710    0.3220   20.0760 C   0  0  0  0  0  0  0  0  0  0  0  0
    6.9600    0.1830   18.6230 C   0  0  0  0  0  0  0  0  0  0  0  0
    9.8090   -2.3200   21.8450 C   0  0  0  0  0  0  0  0  0  0  0  0
   11.0760   -2.4890   22.5770 C   0  0  0  0  0  0  0  0  0  0  0  0
   11.1110   -2.2590   23.8990 C   0  0  2  0  0  0  0  0  0  0  0  0
    9.9080   -1.7850   24.4180 C   0  0  0  0  0  0  0  0  0  0  0  0
    8.7770   -1.5600   23.7090 C   0  0  0  0  0  0  0  0  0  0  0  0
    8.6750   -1.8970   22.4860 C   0  0  1  0  0  0  0  0  0  0  0  0
    1.6380   -2.4360   26.1410 C   0  0  0  0  0  0  0  0  0  0  0  0
    1.2620   -3.6840   25.6330 C   0  0  0  0  0  0  0  0  0  0  0  0
    2.2570   -4.6670   25.5230 C   0  0  0  0  0  0  0  0  0  0  0  0
    3.5790   -4.4820   25.8840 C   0  0  0  0  0  0  0  0  0  0  0  0
    3.9390   -3.2300   26.3780 C   0  0  0  0  0  0  0  0  0  0  0  0
    2.9710   -2.2320   26.4990 C   0  0  0  0  0  0  0  0  0  0  0  0
    7.0150   -4.6620   22.0470 N   0  0  0  0  0  0  0  0  0  0  0  0
    6.5180   -5.9870   22.4550 C   0  0  0  0  0  0  0  0  0  0  0  0
    5.3720   -5.9780   23.1190 C   0  0  0  0  0  0  0  0  0  0  0  0
    5.6200   -5.2580   24.3490 N   0  0  0  0  0  0  0  0  0  0  0  0
    5.9520   -3.8360   24.1910 C   0  0  0  0  0  0  0  0  0  0  0  0
    6.5750   -2.5390   20.8640 N   0  0  0  0  0  0  0  0  0  0  0  0
    7.3870   -1.6340   21.7250 C   0  0  2  0  0  0  0  0  0  0  0  0
    8.2860   -3.0270   23.3860 N   0  0  0  0  0  0  0  0  0  0  0  0
    6.9230   -3.4690   23.0160 C   0  0  1  0  0  0  0  0  0  0  0  0
    6.1780   -2.5410   22.1980 C   0  0  2  0  0  0  0  0  0  0  0  0
    9.9030   -4.8650   25.8680 C   0  0  0  0  0  0  0  0  0  0  0  0
    8.8510   -3.7710   25.7340 C   0  0  0  0  0  0  0  0  0  0  0  0
    7.5490   -3.9940   26.8140 S   0  0  0  0  0  0  0  0  0  0  0  0
    8.1760   -5.3990   27.4540 C   0  0  0  0  0  0  0  0  0  0  0  0
    9.4980   -5.7850   26.8390 C   0  0  0  0  0  0  0  0  0  0  0  0
  2  4  1  0
  3  4  1  0
  3  6  1  0
  5  6  2  0
  6  8  1  0
  1  9  1  0
  9  8  1  1
  1 10  1  0
  7 10  2  0
 11 10  1  1
 12 13  1  0
 12 14  1  0
 12 15  1  0
  9 17  1  0
 16 17  1  0
 16 18  1  0
 22 24  2  0
 24 25  1  0
 20 26  2  0
 21 26  2  0
 27 30  1  0
 28 30  2  0
 32 33  2  0
 33 34  1  0
 34 35  2  0
 11 36  1  0
 35 36  1  0
 32 37  1  0
 36 37  2  0
 38 39  2  0
 40 12  1  6
 39 40  1  0
 31 41  1  0
 40 41  1  0
 41 42  2  0
 43 38  1  6
 42 43  1  0
 19 44  1  0
 44 45  2  0
 23 46  1  0
 45 46  1  0
 26 47  1  0
 46 47  2  0
 47 48  1  0
 44 49  1  0
 48 49  2  0
 24 50  1  0
 50 51  1  0
 51 52  1  0
 26 53  1  0
 52 53  1  0
 53 54  1  0
 30 55  1  0
 11 56  1  0
 43 56  1  0
 56 55  1  6
 31 57  1  0
 43 57  1  0
 58 50  1  0
 58 54  1  1
 57 58  1  0
 59 55  1  6
 56 59  1  0
 58 59  1  0
 31 61  1  1
 60 61  2  0
 61 62  1  0
 29 63  1  0
 62 63  1  0
 60 64  1  0
 63 64  2  0
M  END
