x1336-x1418
     RDKit          3D

 25 27  0  0  0  0  0  0  0  0999 V2000
    5.9150   -5.0110   29.1630 C   0  0  0  0  0  0  0  0  0  0  0  0
    9.1230   -0.8610   24.8620 N   0  0  0  0  0  0  0  0  0  0  0  0
    6.6030   -1.0530   25.6970 O   0  0  0  0  0  0  0  0  0  0  0  0
    5.4740   -4.1520   19.7480 O   0  0  0  0  0  0  0  0  0  0  0  0
   10.2660   -4.0060   24.9970 C   0  0  0  0  0  0  0  0  0  0  0  0
    6.5030   -3.5140   19.9520 C   0  0  0  0  0  0  0  0  0  0  0  0
    7.4460   -3.0860   18.8230 C   0  0  0  0  0  0  0  0  0  0  0  0
    7.8020   -1.6740   25.1640 S   0  0  2  0  0  0  0  0  0  0  0  0
    7.0530   -4.7380   28.0720 C   0  0  0  0  0  0  0  0  0  0  0  0
    6.9560   -3.4710   27.1870 C   0  0  0  0  0  0  0  0  0  0  0  0
    8.0120   -3.1770   26.1390 C   0  0  0  0  0  0  0  0  0  0  0  0
    9.1630   -4.1520   25.9760 C   0  0  0  0  0  0  0  0  0  0  0  0
    9.1990   -5.3750   26.8760 C   0  0  0  0  0  0  0  0  0  0  0  0
    8.1150   -5.6250   27.9140 C   0  0  0  0  0  0  0  0  0  0  0  0
    6.9080   -3.1720   21.2350 N   0  0  0  0  0  0  0  0  0  0  0  0
    6.7780   -3.9820   22.2980 C   0  0  0  0  0  0  0  0  0  0  0  0
    6.5380   -3.4490   23.5450 C   0  0  0  0  0  0  0  0  0  0  0  0
    7.2990   -2.1910   23.6580 N   0  0  0  0  0  0  0  0  0  0  0  0
    7.9270   -1.6110   22.4830 C   0  0  0  0  0  0  0  0  0  0  0  0
    7.9680   -2.3350   21.3070 C   0  0  0  0  0  0  0  0  0  0  0  0
   11.7910   -1.5510   22.6110 C   0  0  0  0  0  0  0  0  0  0  0  0
   10.8630   -1.9180   23.5770 C   0  0  0  0  0  0  0  0  0  0  0  0
   10.6010   -1.0420   24.6360 C   0  0  0  0  0  0  0  0  0  0  0  0
   11.4640    0.0050   24.2030 C   0  0  0  0  0  0  0  0  0  0  0  0
   12.2030   -0.2420   23.0400 C   0  0  0  0  0  0  0  0  0  0  0  0
  4  6  2  0
  6  7  1  0
  2  8  2  0
  3  8  2  0
  1  9  1  0
  9 10  2  0
  8 11  1  1
 10 11  1  0
  5 12  1  0
 11 12  2  0
 12 13  1  0
  9 14  1  0
 13 14  2  0
  6 15  1  0
 15 16  1  0
 16 17  1  0
  8 18  1  0
 17 18  1  0
 18 19  1  0
 15 20  1  0
 19 20  1  0
 21 22  2  0
  2 23  1  0
 22 23  1  0
 23 24  1  0
 21 25  1  0
 24 25  2  0
M  END
