x1336-x1358
     RDKit          3D

 28 30  0  0  0  0  0  0  0  0999 V2000
    6.0820   -5.6490   29.4160 C   0  0  0  0  0  0  0  0  0  0  0  0
    8.1840   -1.4050   25.0410 O   0  0  0  0  0  0  0  0  0  0  0  0
    5.7540   -1.2880   26.2050 N   0  0  0  0  0  0  0  0  0  0  0  0
    5.2970   -4.0290   19.6040 O   0  0  0  0  0  0  0  0  0  0  0  0
    9.4390   -3.8870   24.9880 C   0  0  0  0  0  0  0  0  0  0  0  0
    6.3250   -3.4080   19.8100 C   0  0  0  0  0  0  0  0  0  0  0  0
    7.3240   -3.0200   18.7290 C   0  0  0  0  0  0  0  0  0  0  0  0
    6.9720   -1.9760   25.6080 S   0  0  1  0  0  0  0  0  0  0  0  0
    4.9110   -3.0440   24.4010 O   0  0  0  0  0  0  0  0  0  0  0  0
    6.1470   -2.9700   24.3700 C   0  0  0  0  0  0  0  0  0  0  0  0
    6.9100   -5.1250   28.2910 C   0  0  0  0  0  0  0  0  0  0  0  0
    6.5740   -3.8750   27.5700 C   0  0  0  0  0  0  0  0  0  0  0  0
    7.4090   -3.3820   26.4190 C   0  0  0  0  0  0  0  0  0  0  0  0
    8.6250   -4.2170   26.0090 C   0  0  0  0  0  0  0  0  0  0  0  0
    8.9440   -5.4930   26.7920 C   0  0  0  0  0  0  0  0  0  0  0  0
    8.1310   -5.9060   27.8590 C   0  0  0  0  0  0  0  0  0  0  0  0
    6.6410   -3.0820   21.0970 N   0  0  0  0  0  0  0  0  0  0  0  0
    6.2600   -4.0140   22.1590 C   0  0  0  0  0  0  0  0  0  0  0  0
    7.0220   -3.7040   23.4050 C   0  0  1  0  0  0  0  0  0  0  0  0
    8.1210   -2.8910   23.2950 N   0  0  0  0  0  0  0  0  0  0  0  0
    8.0480   -1.7700   22.5320 C   0  0  0  0  0  0  0  0  0  0  0  0
    7.5260   -2.0600   21.3070 C   0  0  0  0  0  0  0  0  0  0  0  0
    5.9110   -0.0250   26.8710 C   0  0  0  0  0  0  0  0  0  0  0  0
    6.5790   -1.2120   27.3640 C   0  0  0  0  0  0  0  0  0  0  0  0
    7.4220   -1.3780   28.4610 C   0  0  0  0  0  0  0  0  0  0  0  0
    7.7060   -0.3240   29.2320 C   0  0  0  0  0  0  0  0  0  0  0  0
    7.1510    0.8750   28.9030 C   0  0  0  0  0  0  0  0  0  0  0  0
    6.3190    0.9970   27.8000 C   0  0  0  0  0  0  0  0  0  0  0  0
  4  6  2  0
  6  7  1  0
  2  8  2  0
  3  8  2  0
  8 10  1  6
  9 10  2  0
  1 11  1  0
 11 12  2  0
  8 13  1  0
 12 13  1  0
  5 14  1  0
 13 14  2  0
 14 15  1  0
 11 16  1  0
 15 16  2  0
  6 17  1  0
 17 18  1  0
 19 10  1  1
 18 19  1  0
 19 20  1  0
 20 21  1  0
 17 22  1  0
 21 22  1  0
  3 23  1  0
 23 24  2  0
 24 25  1  0
 25 26  2  0
 26 27  1  0
 23 28  1  0
 27 28  2  0
M  END
