x1334-x3110
     RDKit          3D

 42 46  0  0  0  0  0  0  0  0999 V2000
    8.2620    0.8880   22.9910 N   0  0  0  0  0  0  0  0  0  0  0  0
   13.3440    5.0930   22.8570 C   0  0  0  0  0  0  0  0  0  0  0  0
   11.9590    3.1710   22.5230 O   0  0  0  0  0  0  0  0  0  0  0  0
   12.2760    4.4630   21.9820 C   0  0  0  0  0  0  0  0  0  0  0  0
   10.6600    4.1560   24.1000 O   0  0  0  0  0  0  0  0  0  0  0  0
   10.9570    3.1740   23.4380 C   0  0  0  0  0  0  0  0  0  0  0  0
    8.8170    1.7480   21.0150 O   0  0  0  0  0  0  0  0  0  0  0  0
   10.2970    1.9270   23.5490 C   0  0  0  0  0  0  0  0  0  0  0  0
    8.9070    1.9540   23.6910 C   0  0  0  0  0  0  0  0  0  0  0  0
    8.2850    0.8100   21.6110 C   0  0  0  0  0  0  0  0  0  0  0  0
    7.7050   -0.2810   20.8720 C   0  0  2  0  0  0  0  0  0  0  0  0
   12.4650   -1.6580   24.2510 C   0  0  0  0  0  0  0  0  0  0  0  0
   12.6360   -0.4230   24.8160 C   0  0  0  0  0  0  0  0  0  0  0  0
   13.3800   -1.7810   23.0360 C   0  0  0  0  0  0  0  0  0  0  0  0
   12.8510   -2.7220   25.1200 C   0  0  0  0  0  0  0  0  0  0  0  0
    7.4010   -2.9460   18.7070 C   0  0  0  0  0  0  0  0  0  0  0  0
    5.3890   -3.8120   19.6530 O   0  0  0  0  0  0  0  0  0  0  0  0
    7.3390   -5.7200   28.6140 Cl  0  0  0  0  0  0  0  0  0  0  0  0
    6.4570   -3.2030   19.8550 C   0  0  0  0  0  0  0  0  0  0  0  0
    9.1690   -3.6790   23.9180 C   0  0  2  0  0  0  0  0  0  0  0  0
    6.2020    0.6170   17.5940 N   0  0  0  0  0  0  0  0  0  0  0  0
    5.0760    1.2640   17.8450 C   0  0  0  0  0  0  0  0  0  0  0  0
    4.5310    1.5210   19.2620 C   0  0  0  0  0  0  0  0  0  0  0  0
    5.3910    0.9890   20.3870 C   0  0  0  0  0  0  0  0  0  0  0  0
    6.6760    0.2790   19.9460 C   0  0  0  0  0  0  0  0  0  0  0  0
    6.9340    0.1640   18.6090 C   0  0  0  0  0  0  0  0  0  0  0  0
    9.6510   -1.2200   22.0170 C   0  0  0  0  0  0  0  0  0  0  0  0
   10.9130   -1.3100   22.4500 C   0  0  0  0  0  0  0  0  0  0  0  0
   11.0070   -1.6840   23.7210 C   0  0  1  0  0  0  0  0  0  0  0  0
   10.4240   -2.8360   24.0050 C   0  0  0  0  0  0  0  0  0  0  0  0
    9.1570   -2.4990   23.4930 C   0  0  0  0  0  0  0  0  0  0  0  0
    8.4120   -1.5140   22.9150 C   0  0  1  0  0  0  0  0  0  0  0  0
    7.0540   -2.8340   21.1920 C   0  0  0  0  0  0  0  0  0  0  0  0
    7.6260   -1.6210   21.6080 C   0  0  0  0  0  0  0  0  0  0  0  0
    7.9850   -2.7280   23.7560 N   0  0  0  0  0  0  0  0  0  0  0  0
    6.7740   -3.4320   23.4590 C   0  0  0  0  0  0  0  0  0  0  0  0
    7.0250   -4.0040   22.0860 C   0  0  0  0  0  0  0  0  0  0  0  0
    9.7160   -5.5450   25.4820 C   0  0  0  0  0  0  0  0  0  0  0  0
    8.9840   -4.4740   25.1210 C   0  0  0  0  0  0  0  0  0  0  0  0
    7.7500   -4.1010   26.2400 S   0  0  0  0  0  0  0  0  0  0  0  0
    8.2110   -5.4030   27.1860 C   0  0  0  0  0  0  0  0  0  0  0  0
    9.2730   -6.0910   26.6810 C   0  0  0  0  0  0  0  0  0  0  0  0
  2  4  1  0
  3  4  1  0
  3  6  1  0
  5  6  2  0
  6  8  1  0
  1  9  1  0
  8  9  1  0
  1 10  1  0
  7 10  2  0
 11 10  1  1
 12 13  1  0
 12 14  1  0
 12 15  1  0
 16 19  1  0
 17 19  2  0
 21 22  2  0
 22 23  1  0
 23 24  2  0
 11 25  1  0
 24 25  1  0
 21 26  1  0
 25 26  2  0
 27 28  2  0
 29 12  1  6
 28 29  1  0
 20 30  1  0
 29 30  1  0
 30 31  2  0
 32 27  1  1
 31 32  1  0
 19 33  1  0
 11 34  1  0
 32 34  1  0
 33 34  2  0
 20 35  1  0
 32 35  1  0
 35 36  1  0
 33 37  1  0
 36 37  1  0
 20 39  1  1
 38 39  2  0
 39 40  1  0
 18 41  1  0
 40 41  1  0
 38 42  1  0
 41 42  2  0
M  END
