x1336-x1380
     RDKit          3D

 21 22  0  0  0  0  0  0  0  0999 V2000
    7.3490   -5.8810   28.1850 C   0  0  0  0  0  0  0  0  0  0  0  0
    9.4480   -0.6600   25.0770 O   0  0  0  0  0  0  0  0  0  0  0  0
    7.0300   -0.8980   25.9500 C   0  0  0  0  0  0  0  0  0  0  0  0
    5.3940   -4.1190   19.7520 O   0  0  0  0  0  0  0  0  0  0  0  0
   11.0540   -3.0380   24.4380 C   0  0  0  0  0  0  0  0  0  0  0  0
    6.3860   -3.4090   19.9190 C   0  0  0  0  0  0  0  0  0  0  0  0
    7.3520   -3.0420   18.7900 C   0  0  0  0  0  0  0  0  0  0  0  0
    8.3420   -1.5810   25.1230 S   0  0  2  0  0  0  0  0  0  0  0  0
    6.0220   -0.3730   26.5860 C   0  0  0  0  0  0  0  0  0  0  0  0
    8.2350   -5.1300   27.2400 C   0  0  0  0  0  0  0  0  0  0  0  0
    7.8020   -3.7520   26.6830 C   0  0  0  0  0  0  0  0  0  0  0  0
    8.7200   -3.0100   25.7300 C   0  0  0  0  0  0  0  0  0  0  0  0
   10.0540   -3.6650   25.3590 C   0  0  0  0  0  0  0  0  0  0  0  0
   10.3750   -5.0390   25.9670 C   0  0  0  0  0  0  0  0  0  0  0  0
    9.5350   -5.7200   26.8380 C   0  0  0  0  0  0  0  0  0  0  0  0
    6.7470   -2.9080   21.1750 N   0  0  0  0  0  0  0  0  0  0  0  0
    6.6680   -3.8600   22.2910 C   0  0  0  0  0  0  0  0  0  0  0  0
    6.8170   -3.2250   23.5340 C   0  0  0  0  0  0  0  0  0  0  0  0
    7.8910   -2.2120   23.6090 N   0  0  0  0  0  0  0  0  0  0  0  0
    7.8320   -1.2770   22.4850 C   0  0  0  0  0  0  0  0  0  0  0  0
    7.8510   -1.9520   21.2960 C   0  0  0  0  0  0  0  0  0  0  0  0
  4  6  2  0
  6  7  1  0
  2  8  2  0
  3  8  2  0
  3  9  2  0
  1 10  1  0
 10 11  2  0
  8 12  1  1
 11 12  1  0
  5 13  1  0
 12 13  2  0
 13 14  1  0
 10 15  1  0
 14 15  2  0
  6 16  1  0
 16 17  1  0
 17 18  1  0
  8 19  1  0
 18 19  1  0
 19 20  1  0
 16 21  1  0
 20 21  1  0
M  END
