x1334-x2779
     RDKit          3D

 21 23  0  0  0  0  0  0  0  0999 V2000
    7.3320   -3.0100   18.7720 C   0  0  0  0  0  0  0  0  0  0  0  0
    5.4330   -4.0890   19.7290 O   0  0  0  0  0  0  0  0  0  0  0  0
    7.6170   -5.8720   28.3220 Cl  0  0  0  0  0  0  0  0  0  0  0  0
    6.3810   -3.3130   19.9190 C   0  0  0  0  0  0  0  0  0  0  0  0
    9.2940   -2.5780   24.1600 C   0  0  1  0  0  0  0  0  0  0  0  0
    6.6260   -2.7310   21.1550 N   0  0  0  0  0  0  0  0  0  0  0  0
    7.5750   -1.6130   21.2240 C   0  0  0  0  0  0  0  0  0  0  0  0
    8.7790   -1.9850   21.8100 C   0  0  0  0  0  0  0  0  0  0  0  0
    8.7830   -3.0290   22.8600 N   0  0  0  0  0  0  0  0  0  0  0  0
    7.6190   -3.9440   22.9260 C   0  0  0  0  0  0  0  0  0  0  0  0
    6.4210   -3.4040   22.4410 C   0  0  0  0  0  0  0  0  0  0  0  0
    9.9670   -4.9180   25.2530 C   0  0  0  0  0  0  0  0  0  0  0  0
    9.2300   -3.7490   25.1280 C   0  0  0  0  0  0  0  0  0  0  0  0
    8.0150   -3.7360   26.3510 S   0  0  0  0  0  0  0  0  0  0  0  0
    8.4790   -5.2330   26.9890 C   0  0  0  0  0  0  0  0  0  0  0  0
    9.5510   -5.7700   26.3030 C   0  0  0  0  0  0  0  0  0  0  0  0
   11.6120   -1.9680   22.9720 C   0  0  0  0  0  0  0  0  0  0  0  0
   10.5600   -1.7710   23.8770 C   0  0  0  0  0  0  0  0  0  0  0  0
   10.7930   -0.3140   24.7830 S   0  0  0  0  0  0  0  0  0  0  0  0
   12.2520    0.0800   23.9990 C   0  0  0  0  0  0  0  0  0  0  0  0
   12.6350   -0.9700   22.9580 C   0  0  0  0  0  0  0  0  0  0  0  0
  1  4  1  0
  2  4  2  0
  4  6  1  0
  6  7  1  0
  7  8  1  0
  5  9  1  0
  8  9  1  0
  9 10  1  0
  6 11  1  0
 10 11  1  0
  5 13  1  1
 12 13  2  0
 13 14  1  0
  3 15  1  0
 14 15  1  0
 12 16  1  0
 15 16  2  0
  5 18  1  0
 17 18  2  0
 18 19  1  0
 19 20  1  0
 17 21  1  0
 20 21  2  0
M  END
