x1336-x3080
     RDKit          3D

 42 48  0  0  0  0  0  0  0  0999 V2000
    9.5630   -0.2170   23.5520 N   0  0  0  0  0  0  0  0  0  0  0  0
   10.7570    0.5740   23.5270 C   0  0  0  0  0  0  0  0  0  0  0  0
    8.9300    1.2720   21.0930 O   0  0  0  0  0  0  0  0  0  0  0  0
    9.2830   -0.7500   22.3380 C   0  0  2  0  0  0  0  0  0  0  0  0
    7.4040   -0.5820   21.1230 N   0  0  0  0  0  0  0  0  0  0  0  0
    7.4750   -1.1810   24.1900 N   0  0  0  0  0  0  0  0  0  0  0  0
    8.6020    0.1100   21.4770 C   0  0  0  0  0  0  0  0  0  0  0  0
    9.7940   -0.0470   25.7450 O   0  0  0  0  0  0  0  0  0  0  0  0
    5.1410    0.9030   21.8940 C   0  0  0  0  0  0  0  0  0  0  0  0
    8.9440   -0.7390   24.8120 S   0  0  0  0  0  0  0  0  0  0  0  0
    6.4670   -1.3660   25.1090 O   0  0  0  0  0  0  0  0  0  0  0  0
    6.2780   -6.2440   28.2450 C   0  0  0  0  0  0  0  0  0  0  0  0
    9.8590   -3.2500   25.8290 C   0  0  0  0  0  0  0  0  0  0  0  0
    5.4310   -4.1330   19.7020 O   0  0  0  0  0  0  0  0  0  0  0  0
    6.4280   -3.4320   19.8400 C   0  0  0  0  0  0  0  0  0  0  0  0
    7.3790   -3.0800   18.7020 C   0  0  0  0  0  0  0  0  0  0  0  0
    6.2850    0.5300   17.6760 N   0  0  0  0  0  0  0  0  0  0  0  0
    5.2150    1.2580   17.9960 C   0  0  0  0  0  0  0  0  0  0  0  0
    4.7670    1.4190   19.4420 C   0  0  0  0  0  0  0  0  0  0  0  0
    5.4990    0.7960   20.4630 C   0  0  0  0  0  0  0  0  0  0  0  0
    6.5910    0.0680   20.0840 C   0  0  0  0  0  0  0  0  0  0  0  0
    7.0010   -0.0780   18.6360 C   0  0  0  0  0  0  0  0  0  0  0  0
   11.6680   -1.4980   24.7490 N   0  0  0  0  0  0  0  0  0  0  0  0
   10.8000   -2.5420   25.4020 C   0  0  0  0  0  0  0  0  0  0  0  0
   11.4310   -3.6440   25.9100 C   0  0  0  0  0  0  0  0  0  0  0  0
   12.8050   -3.7110   25.8240 C   0  0  0  0  0  0  0  0  0  0  0  0
   13.6080   -2.7340   25.2330 C   0  0  0  0  0  0  0  0  0  0  0  0
   12.9900   -1.6300   24.6900 C   0  0  0  0  0  0  0  0  0  0  0  0
    8.5680   -3.2610   26.1060 C   0  0  0  0  0  0  0  0  0  0  0  0
    9.1620   -4.4360   26.6460 C   0  0  0  0  0  0  0  0  0  0  0  0
   10.5080   -4.4290   26.4440 C   0  0  0  0  0  0  0  0  0  0  0  0
    9.4180   -2.2860   25.4670 C   0  0  0  0  0  0  0  0  0  0  0  0
    7.1250   -5.2570   27.4950 C   0  0  0  0  0  0  0  0  0  0  0  0
    6.4980   -4.1170   26.9630 C   0  0  0  0  0  0  0  0  0  0  0  0
    7.2170   -3.1320   26.2700 C   0  0  0  0  0  0  0  0  0  0  0  0
    8.4760   -5.4270   27.3220 C   0  0  0  0  0  0  0  0  0  0  0  0
    6.7690   -2.9560   21.0960 N   0  0  0  0  0  0  0  0  0  0  0  0
    6.6530   -3.8670   22.1850 C   0  0  0  0  0  0  0  0  0  0  0  0
    6.5120   -3.1360   23.3290 C   0  0  0  0  0  0  0  0  0  0  0  0
    7.6890   -2.3750   23.5510 N   0  0  0  0  0  0  0  0  0  0  0  0
    8.4580   -2.0960   22.3560 C   0  0  1  0  0  0  0  0  0  0  0  0
    7.7870   -1.9710   21.1040 C   0  0  2  0  0  0  0  0  0  0  0  0
  1  2  1  0
  1  4  1  0
  3  7  2  0
  4  7  1  6
  5  7  1  0
  1 10  1  0
  6 10  1  0
  8 10  2  0
  6 11  1  0
 14 15  2  0
 15 16  1  0
 17 18  2  0
 18 19  1  0
  9 20  1  0
 19 20  2  0
  5 21  1  0
 20 21  1  0
 17 22  1  0
 21 22  2  0
 23 24  2  0
 24 25  1  0
 25 26  2  0
 26 27  1  0
 23 28  1  0
 27 28  2  0
 29 30  1  0
 13 31  1  0
 25 31  1  0
 30 31  2  0
 10 32  1  0
 24 32  1  0
 29 32  2  0
 12 33  1  0
 33 34  1  0
 29 35  1  0
 34 35  2  0
 30 36  1  0
 33 36  2  0
 15 37  1  0
 37 38  1  0
 38 39  1  0
  6 40  1  0
 39 40  1  0
  4 41  1  0
 41 40  1  1
 42  5  1  1
 37 42  1  0
 41 42  1  0
M  END
