x1334-x2776
     RDKit          3D

 44 49  0  0  0  0  0  0  0  0999 V2000
    7.6700    1.9650   22.6970 N   0  0  0  0  0  0  0  0  0  0  0  0
    9.3720    1.5200   21.1450 O   0  0  0  0  0  0  0  0  0  0  0  0
   10.5600    6.7870   23.8870 O   0  0  0  0  0  0  0  0  0  0  0  0
    7.3790    0.0240   20.9690 C   0  0  2  0  0  0  0  0  0  0  0  0
   12.8170   -1.5720   25.3610 O   0  0  0  0  0  0  0  0  0  0  0  0
    8.1380    1.1750   21.6610 C   0  0  0  0  0  0  0  0  0  0  0  0
   10.4370    1.6760   23.6700 C   0  0  0  0  0  0  0  0  0  0  0  0
   11.7210    6.7310   24.7210 C   0  0  0  0  0  0  0  0  0  0  0  0
   11.5500   -2.1700   25.1330 C   0  0  2  0  0  0  0  0  0  0  0  0
   11.9010   -3.4130   24.8510 C   0  0  0  0  0  0  0  0  0  0  0  0
   13.7770   -2.6090   25.6240 C   0  0  0  0  0  0  0  0  0  0  0  0
    7.3790   -2.9560   18.6670 C   0  0  0  0  0  0  0  0  0  0  0  0
    5.3440   -3.8290   19.6130 O   0  0  0  0  0  0  0  0  0  0  0  0
    7.8250   -5.7730   28.1430 Cl  0  0  0  0  0  0  0  0  0  0  0  0
    6.4030   -3.2110   19.7980 C   0  0  0  0  0  0  0  0  0  0  0  0
    9.1870   -2.3700   24.0290 C   0  0  2  0  0  0  0  0  0  0  0  0
    6.2320    0.7520   17.5090 N   0  0  0  0  0  0  0  0  0  0  0  0
    5.0660    1.4540   17.7420 C   0  0  0  0  0  0  0  0  0  0  0  0
    4.5690    1.6900   19.0190 C   0  0  0  0  0  0  0  0  0  0  0  0
    5.2520    1.2410   20.1300 C   0  0  0  0  0  0  0  0  0  0  0  0
    6.4380    0.5550   19.9820 C   0  0  0  0  0  0  0  0  0  0  0  0
    6.8720    0.3320   18.5550 C   0  0  0  0  0  0  0  0  0  0  0  0
    9.7530    3.0010   23.4680 C   0  0  0  0  0  0  0  0  0  0  0  0
   10.5820    4.2250   23.7890 C   0  0  0  0  0  0  0  0  0  0  0  0
    9.9470    5.5900   23.6230 C   0  0  0  0  0  0  0  0  0  0  0  0
    8.6260    5.6180   23.1620 C   0  0  0  0  0  0  0  0  0  0  0  0
    7.8950    4.4420   22.8650 C   0  0  0  0  0  0  0  0  0  0  0  0
    8.4220    3.1510   23.0100 C   0  0  0  0  0  0  0  0  0  0  0  0
    9.3670   -2.4720   22.3790 C   0  0  0  0  0  0  0  0  0  0  0  0
   10.6770   -2.5320   22.8740 C   0  0  0  0  0  0  0  0  0  0  0  0
   10.8690   -1.6670   23.9200 C   0  0  1  0  0  0  0  0  0  0  0  0
    9.8880   -0.8120   23.8470 C   0  0  0  0  0  0  0  0  0  0  0  0
    8.5940   -0.5000   23.4870 C   0  0  0  0  0  0  0  0  0  0  0  0
    8.1130   -1.5880   22.8710 C   0  0  1  0  0  0  0  0  0  0  0  0
    6.9660   -2.7910   21.1130 C   0  0  0  0  0  0  0  0  0  0  0  0
    7.4100   -1.3840   21.6040 C   0  0  0  0  0  0  0  0  0  0  0  0
    7.7550   -2.4240   23.7790 N   0  0  0  0  0  0  0  0  0  0  0  0
    7.0960   -3.6500   23.3630 C   0  0  0  0  0  0  0  0  0  0  0  0
    7.1730   -3.9730   22.0150 C   0  0  0  0  0  0  0  0  0  0  0  0
   10.0610   -4.7610   24.9980 C   0  0  0  0  0  0  0  0  0  0  0  0
    9.3180   -3.6260   24.9110 C   0  0  0  0  0  0  0  0  0  0  0  0
    8.1350   -3.6450   26.1790 S   0  0  0  0  0  0  0  0  0  0  0  0
    8.6380   -5.1200   26.7840 C   0  0  0  0  0  0  0  0  0  0  0  0
    9.6810   -5.6410   26.0770 C   0  0  0  0  0  0  0  0  0  0  0  0
  1  6  1  0
  2  6  2  0
  4  6  1  1
  3  8  1  0
  5  9  1  0
  9 10  1  6
  5 11  1  0
 12 15  1  0
 13 15  2  0
 17 18  2  0
 18 19  1  0
 19 20  2  0
  4 21  1  0
 20 21  1  0
 17 22  1  0
 21 22  2  0
  7 23  1  0
 23 24  2  0
  3 25  1  0
 24 25  1  0
 25 26  2  0
 26 27  1  0
  1 28  1  0
 23 28  1  0
 27 28  2  0
 29 30  2  0
  9 31  1  0
 31 30  1  1
 16 32  1  0
 31 32  1  0
 32 33  2  0
 34 29  1  6
 33 34  1  0
 15 35  1  0
  4 36  1  0
 34 36  1  0
 35 36  2  0
 16 37  1  0
 34 37  1  0
 37 38  1  0
 35 39  1  0
 38 39  1  0
 16 41  1  1
 40 41  2  0
 41 42  1  0
 14 43  1  0
 42 43  1  0
 40 44  1  0
 43 44  2  0
M  END
