x1334-x0434
     RDKit          3D

 32 36  0  0  0  0  0  0  0  0999 V2000
    7.5340   -2.9780   18.6820 C   0  0  0  0  0  0  0  0  0  0  0  0
    5.6900   -3.9840   19.7630 O   0  0  0  0  0  0  0  0  0  0  0  0
    7.3290   -5.9070   28.4980 Cl  0  0  0  0  0  0  0  0  0  0  0  0
    6.6120   -3.1310   19.8730 C   0  0  0  0  0  0  0  0  0  0  0  0
    9.3020   -3.2620   24.1800 C   0  0  0  0  0  0  0  0  0  0  0  0
    8.3130    1.1710   21.3600 O   0  0  0  0  0  0  0  0  0  0  0  0
    7.9540   -0.1960   21.5140 C   0  0  0  0  0  0  0  0  0  0  0  0
    8.6930   -1.0880   22.1110 N   0  0  0  0  0  0  0  0  0  0  0  0
    6.8090   -0.8070   21.0300 N   0  0  0  0  0  0  0  0  0  0  0  0
    6.8950   -2.2510   21.1580 C   0  0  2  0  0  0  0  0  0  0  0  0
    8.2830   -2.0970   21.3030 C   0  0  2  0  0  0  0  0  0  0  0  0
    8.8040   -3.1690   21.8790 C   0  0  0  0  0  0  0  0  0  0  0  0
    8.2820   -3.0290   23.1840 N   0  0  0  0  0  0  0  0  0  0  0  0
    7.0840   -3.6110   23.2070 C   0  0  0  0  0  0  0  0  0  0  0  0
    6.1460   -2.8190   22.4740 C   0  0  0  0  0  0  0  0  0  0  0  0
    9.6620   -5.4840   25.4000 C   0  0  0  0  0  0  0  0  0  0  0  0
    9.0350   -4.2630   25.2310 C   0  0  0  0  0  0  0  0  0  0  0  0
    7.8520   -3.9590   26.4160 S   0  0  0  0  0  0  0  0  0  0  0  0
    8.2040   -5.4370   27.1110 C   0  0  0  0  0  0  0  0  0  0  0  0
    9.1970   -6.1410   26.4570 C   0  0  0  0  0  0  0  0  0  0  0  0
   10.3410    0.4650   23.3700 C   0  0  0  0  0  0  0  0  0  0  0  0
   11.7290    0.9670   23.7800 C   0  0  0  0  0  0  0  0  0  0  0  0
   12.9430    0.1900   23.2040 C   0  0  0  0  0  0  0  0  0  0  0  0
   12.6440   -0.9890   22.3060 C   0  0  0  0  0  0  0  0  0  0  0  0
   11.2100   -1.3800   21.9780 C   0  0  0  0  0  0  0  0  0  0  0  0
   10.0610   -0.7340   22.4390 C   0  0  0  0  0  0  0  0  0  0  0  0
    5.0400    0.6060   20.0990 C   0  0  0  0  0  0  0  0  0  0  0  0
    4.4940    1.3350   19.0510 C   0  0  0  0  0  0  0  0  0  0  0  0
    5.1540    1.3720   17.8460 C   0  0  0  0  0  0  0  0  0  0  0  0
    6.2990    0.7360   17.6140 N   0  0  0  0  0  0  0  0  0  0  0  0
    6.9010   -0.0560   18.7240 C   0  0  0  0  0  0  0  0  0  0  0  0
    6.2420   -0.0900   19.9550 C   0  0  0  0  0  0  0  0  0  0  0  0
  1  4  1  0
  2  4  2  0
  6  7  2  0
  7  8  1  0
  7  9  1  0
 10  4  1  6
  9 10  1  0
  8 11  1  0
 10 11  1  0
 11 12  1  1
  5 13  1  0
 12 13  1  0
 13 14  1  0
 10 15  1  0
 14 15  1  0
  5 17  1  0
 16 17  2  0
 17 18  1  0
  3 19  1  0
 18 19  1  0
 16 20  1  0
 19 20  2  0
 21 22  2  0
 22 23  1  0
 23 24  2  0
 24 25  1  0
  8 26  1  0
 21 26  1  0
 25 26  2  0
 27 28  2  0
 28 29  1  0
 29 30  2  0
 30 31  1  0
  9 32  1  0
 27 32  1  0
 31 32  2  0
M  END
