x1334-x0981
     RDKit          3D

 29 30  0  0  0  0  0  0  0  0999 V2000
    1.1110   -8.6440   21.4070 C   0  0  0  0  0  0  0  0  0  0  0  0
    2.6430   -7.3880   22.9220 N   0  0  0  0  0  0  0  0  0  0  0  0
    0.4120   -6.4040   22.1550 O   0  0  0  0  0  0  0  0  0  0  0  0
    1.4350   -7.4040   22.2340 C   0  0  0  0  0  0  0  0  0  0  0  0
    2.5260   -8.0730   26.3610 N   0  0  0  0  0  0  0  0  0  0  0  0
    4.0000   -8.2370   24.5870 O   0  0  0  0  0  0  0  0  0  0  0  0
    3.1840   -6.4030   23.2370 C   0  0  1  0  0  0  0  0  0  0  0  0
    5.4970   -5.9220   22.7300 N   0  0  0  0  0  0  0  0  0  0  0  0
    4.1370   -4.3150   23.7610 O   0  0  0  0  0  0  0  0  0  0  0  0
    2.9470   -6.3860   24.6370 C   0  0  0  0  0  0  0  0  0  0  0  0
    3.1780   -7.6230   25.2080 C   0  0  0  0  0  0  0  0  0  0  0  0
    4.2560   -5.4420   23.2860 C   0  0  0  0  0  0  0  0  0  0  0  0
    6.2470   -5.2200   21.7930 C   0  0  0  0  0  0  0  0  0  0  0  0
    7.3780   -2.9810   18.7380 C   0  0  0  0  0  0  0  0  0  0  0  0
    5.3510   -3.8930   19.5780 O   0  0  0  0  0  0  0  0  0  0  0  0
    7.3320   -5.7310   28.4800 Cl  0  0  0  0  0  0  0  0  0  0  0  0
    6.3850   -3.2800   19.8460 C   0  0  0  0  0  0  0  0  0  0  0  0
    9.5120   -2.8980   24.1250 C   0  0  0  0  0  0  0  0  0  0  0  0
    6.6690   -2.9220   21.1600 N   0  0  0  0  0  0  0  0  0  0  0  0
    7.4630   -1.8170   21.3270 C   0  0  0  0  0  0  0  0  0  0  0  0
    8.6710   -2.1450   21.9600 C   0  0  0  0  0  0  0  0  0  0  0  0
    8.3300   -2.7020   23.2790 N   0  0  0  0  0  0  0  0  0  0  0  0
    7.6450   -3.8530   23.1430 C   0  0  0  0  0  0  0  0  0  0  0  0
    6.6280   -3.7740   22.2070 C   0  0  2  0  0  0  0  0  0  0  0  0
    9.9120   -5.3400   25.2970 C   0  0  0  0  0  0  0  0  0  0  0  0
    9.2350   -3.9630   25.1560 C   0  0  0  0  0  0  0  0  0  0  0  0
    8.0280   -3.7650   26.3930 S   0  0  0  0  0  0  0  0  0  0  0  0
    8.2670   -5.2750   27.1260 C   0  0  0  0  0  0  0  0  0  0  0  0
    9.3450   -6.0750   26.4340 C   0  0  0  0  0  0  0  0  0  0  0  0
  1  4  1  0
  2  4  1  0
  3  4  2  0
  2  7  1  0
  7 10  1  1
  5 11  1  0
  6 11  2  0
 10 11  1  0
  7 12  1  0
  8 12  1  0
  9 12  2  0
  8 13  1  0
 14 17  1  0
 15 17  2  0
 17 19  1  0
 19 20  1  0
 20 21  1  0
 18 22  1  0
 21 22  1  0
 22 23  1  0
 24 13  1  6
 19 24  1  0
 23 24  1  0
 18 26  1  0
 25 26  2  0
 26 27  1  0
 16 28  1  0
 27 28  1  0
 25 29  1  0
 28 29  2  0
M  END
