x1336-x0395
     RDKit          3D

 29 33  0  0  0  0  0  0  0  0999 V2000
    6.1560   -5.2110   29.2610 C   0  0  0  0  0  0  0  0  0  0  0  0
    6.6490   -1.2590   25.9740 O   0  0  0  0  0  0  0  0  0  0  0  0
    5.5030   -4.0460   19.6930 O   0  0  0  0  0  0  0  0  0  0  0  0
   10.0640   -5.0500   25.5080 C   0  0  0  0  0  0  0  0  0  0  0  0
    6.5390   -3.3900   19.8800 C   0  0  0  0  0  0  0  0  0  0  0  0
    7.4640   -3.0210   18.7490 C   0  0  0  0  0  0  0  0  0  0  0  0
    8.8170   -0.8160   23.8570 C   0  0  1  0  0  0  0  0  0  0  0  0
   13.7000   -1.3720   21.7230 F   0  0  0  0  0  0  0  0  0  0  0  0
    7.0830   -4.7880   28.1710 C   0  0  0  0  0  0  0  0  0  0  0  0
    6.8450   -3.5940   27.4920 C   0  0  0  0  0  0  0  0  0  0  0  0
    7.6720   -3.2070   26.4250 C   0  0  0  0  0  0  0  0  0  0  0  0
    8.7330   -4.0160   25.9900 C   0  0  0  0  0  0  0  0  0  0  0  0
    8.9990   -5.2030   26.7390 C   0  0  0  0  0  0  0  0  0  0  0  0
    8.1680   -5.5630   27.8060 C   0  0  0  0  0  0  0  0  0  0  0  0
    6.9290   -3.0060   21.1430 N   0  0  0  0  0  0  0  0  0  0  0  0
    6.6110   -3.9880   22.1680 C   0  0  0  0  0  0  0  0  0  0  0  0
    7.5240   -3.8080   23.1750 C   0  0  0  0  0  0  0  0  0  0  0  0
    7.4270   -2.4350   23.6990 N   0  0  0  0  0  0  0  0  0  0  0  0
    7.7500   -1.3810   22.7780 C   0  0  2  0  0  0  0  0  0  0  0  0
    8.0750   -2.1120   21.4480 C   0  0  0  0  0  0  0  0  0  0  0  0
    7.5480   -2.1420   25.7460 N   0  0  0  0  0  0  0  0  0  0  0  0
    8.4800   -2.0810   24.6160 C   0  0  2  0  0  0  0  0  0  0  0  0
    9.7620   -3.5950   24.5250 S   0  0  0  0  0  0  0  0  0  0  0  0
   10.2480   -0.6110   23.4590 C   0  0  2  0  0  0  0  0  0  0  0  0
   11.1040    0.5210   23.4500 C   0  0  0  0  0  0  0  0  0  0  0  0
   12.3970    0.1990   22.9620 C   0  0  0  0  0  0  0  0  0  0  0  0
   12.5380   -0.9880   22.2300 C   0  0  0  0  0  0  0  0  0  0  0  0
   11.4410   -1.7630   22.0150 C   0  0  0  0  0  0  0  0  0  0  0  0
   10.2650   -1.1670   22.1160 N   0  0  0  0  0  0  0  0  0  0  0  0
  3  5  2  0
  5  6  1  0
  1  9  1  0
  9 10  2  0
 10 11  1  0
 11 12  1  0
 12 13  1  0
  9 14  1  0
 13 14  2  0
  5 15  1  0
 15 16  1  0
 16 17  1  0
 17 18  1  0
  7 19  1  0
 18 19  1  0
 15 20  1  0
 19 20  1  6
  2 21  1  0
 11 21  2  0
  7 22  1  0
 18 22  1  0
 22 21  1  1
  4 23  1  0
 12 23  2  0
 22 23  1  0
  7 24  1  6
 24 25  1  6
 25 26  1  0
  8 27  1  0
 26 27  2  0
 27 28  1  0
 24 29  1  0
 28 29  1  0
M  CHG  2   2  -1  21   1
M  END
