x1336-x2562
     RDKit          3D

 42 46  0  0  0  0  0  0  0  0999 V2000
    6.0580   -5.4530   28.9170 C   0  0  0  0  0  0  0  0  0  0  0  0
    8.5120   -0.9100   25.0050 O   0  0  0  0  0  0  0  0  0  0  0  0
    6.1380   -1.0790   25.7970 O   0  0  0  0  0  0  0  0  0  0  0  0
    5.2850   -4.1990   19.7230 O   0  0  0  0  0  0  0  0  0  0  0  0
   10.1410   -3.5120   25.0820 C   0  0  0  0  0  0  0  0  0  0  0  0
    6.3090   -3.5800   19.9490 C   0  0  0  0  0  0  0  0  0  0  0  0
    7.2800   -3.1050   18.8670 C   0  0  0  0  0  0  0  0  0  0  0  0
    7.2900   -1.6690   25.1500 S   0  0  0  0  0  0  0  0  0  0  0  0
    8.4520    0.3350   21.5010 C   0  0  0  0  0  0  0  0  0  0  0  0
    8.5510    1.5050   21.0880 O   0  0  0  0  0  0  0  0  0  0  0  0
    7.1160   -0.2590   21.9040 C   0  0  2  0  0  0  0  0  0  0  0  0
   12.1250    2.9240   23.3580 O   0  0  0  0  0  0  0  0  0  0  0  0
    9.4430   -0.6110   21.6510 N   0  0  0  0  0  0  0  0  0  0  0  0
   13.4540    6.7250   22.1190 O   0  0  0  0  0  0  0  0  0  0  0  0
    7.0440   -4.9190   27.9300 C   0  0  0  0  0  0  0  0  0  0  0  0
    6.7270   -3.6910   27.1000 C   0  0  0  0  0  0  0  0  0  0  0  0
    7.7150   -3.1430   26.1040 C   0  0  0  0  0  0  0  0  0  0  0  0
    9.0340   -3.9070   26.0030 C   0  0  0  0  0  0  0  0  0  0  0  0
    9.2290   -5.0460   26.8260 C   0  0  0  0  0  0  0  0  0  0  0  0
    8.2920   -5.5310   27.7410 C   0  0  0  0  0  0  0  0  0  0  0  0
    6.6860   -3.3030   21.2410 N   0  0  0  0  0  0  0  0  0  0  0  0
    6.3360   -4.1250   22.2060 C   0  0  0  0  0  0  0  0  0  0  0  0
    6.2770   -3.6040   23.4910 C   0  0  0  0  0  0  0  0  0  0  0  0
    6.7820   -2.1780   23.5970 N   0  0  0  0  0  0  0  0  0  0  0  0
    7.5680   -1.6510   22.5630 C   0  0  1  0  0  0  0  0  0  0  0  0
    7.7370   -2.5650   21.5680 C   0  0  0  0  0  0  0  0  0  0  0  0
    4.5340    1.0670   19.4450 N   0  0  0  0  0  0  0  0  0  0  0  0
    5.1070    0.7200   18.2630 C   0  0  0  0  0  0  0  0  0  0  0  0
    6.2690    0.0550   18.1200 N   0  0  0  0  0  0  0  0  0  0  0  0
    6.9190   -0.2890   19.2580 C   0  0  0  0  0  0  0  0  0  0  0  0
    6.4430    0.0200   20.5310 C   0  0  0  0  0  0  0  0  0  0  0  0
    5.2170    0.7080   20.5480 C   0  0  0  0  0  0  0  0  0  0  0  0
   12.5020    4.5500   21.7430 N   0  0  0  0  0  0  0  0  0  0  0  0
   12.6420    5.6980   22.6050 C   0  0  1  0  0  0  0  0  0  0  0  0
   13.3270    4.8780   23.4440 C   0  0  0  0  0  0  0  0  0  0  0  0
   13.0600    3.8260   22.7300 C   0  0  1  0  0  0  0  0  0  0  0  0
   11.7420   -1.1220   22.1920 C   0  0  0  0  0  0  0  0  0  0  0  0
   12.9500   -0.6180   22.6390 C   0  0  0  0  0  0  0  0  0  0  0  0
   13.0500    0.7220   23.0070 C   0  0  0  0  0  0  0  0  0  0  0  0
   11.9770    1.6060   22.9760 C   0  0  0  0  0  0  0  0  0  0  0  0
   10.7890    1.0920   22.5370 C   0  0  0  0  0  0  0  0  0  0  0  0
   10.6770   -0.2350   22.1380 C   0  0  0  0  0  0  0  0  0  0  0  0
  4  6  2  0
  6  7  1  0
  2  8  2  0
  3  8  2  0
  9 10  2  0
 11  9  1  6
  9 13  1  0
  1 15  1  0
 15 16  2  0
  8 17  1  0
 16 17  1  0
  5 18  1  0
 17 18  2  0
 18 19  1  0
 15 20  1  0
 19 20  2  0
  6 21  1  0
 21 22  1  0
 22 23  1  0
  8 24  1  0
 23 24  1  0
 11 25  1  0
 24 25  1  0
 21 26  1  0
 25 26  1  6
 27 28  2  0
 28 29  1  0
 29 30  2  0
 11 31  1  0
 30 31  1  0
 27 32  1  0
 31 32  2  0
 34 14  1  6
 33 34  1  0
 34 35  1  0
 36 12  1  1
 33 36  1  0
 35 36  1  0
 37 38  2  0
 38 39  1  0
 12 40  1  0
 39 40  2  0
 40 41  1  0
 13 42  1  0
 37 42  1  0
 41 42  2  0
M  END
