x1334-x2908
     RDKit          3D

 34 38  0  0  0  0  0  0  0  0999 V2000
    7.5430   -2.8730   18.5940 C   0  0  0  0  0  0  0  0  0  0  0  0
    5.8340   -3.9460   19.7640 O   0  0  0  0  0  0  0  0  0  0  0  0
    7.2740   -5.9040   28.6130 Cl  0  0  0  0  0  0  0  0  0  0  0  0
    6.7060   -3.0240   19.8520 C   0  0  0  0  0  0  0  0  0  0  0  0
    9.1420   -3.1570   24.2140 C   0  0  0  0  0  0  0  0  0  0  0  0
    4.4740    1.4220   21.5070 C   0  0  0  0  0  0  0  0  0  0  0  0
    8.1910    1.2030   21.0830 O   0  0  0  0  0  0  0  0  0  0  0  0
   13.3700   -2.0010   21.3460 Cl  0  0  0  0  0  0  0  0  0  0  0  0
    6.7730   -0.6880   20.9600 N   0  0  0  0  0  0  0  0  0  0  0  0
    8.6480   -0.8510   22.0100 N   0  0  0  0  0  0  0  0  0  0  0  0
    7.9070    0.0370   21.3280 C   0  0  0  0  0  0  0  0  0  0  0  0
    6.9120   -2.0620   21.1470 C   0  0  2  0  0  0  0  0  0  0  0  0
    8.0940   -2.0780   21.8660 C   0  0  1  0  0  0  0  0  0  0  0  0
    8.7250   -3.2070   21.9200 C   0  0  0  0  0  0  0  0  0  0  0  0
    8.2490   -3.6790   23.1660 N   0  0  0  0  0  0  0  0  0  0  0  0
    6.8960   -3.3900   23.3480 C   0  0  0  0  0  0  0  0  0  0  0  0
    6.1190   -2.7110   22.3230 C   0  0  0  0  0  0  0  0  0  0  0  0
    9.9000   -5.2080   25.5580 C   0  0  0  0  0  0  0  0  0  0  0  0
    9.0600   -4.1440   25.2980 C   0  0  0  0  0  0  0  0  0  0  0  0
    7.7430   -4.0220   26.4140 S   0  0  0  0  0  0  0  0  0  0  0  0
    8.2080   -5.3860   27.2820 C   0  0  0  0  0  0  0  0  0  0  0  0
    9.3360   -5.9140   26.7510 C   0  0  0  0  0  0  0  0  0  0  0  0
    6.0960    0.5870   17.4640 N   0  0  0  0  0  0  0  0  0  0  0  0
    6.6050   -0.1100   18.4990 C   0  0  0  0  0  0  0  0  0  0  0  0
    6.1550    0.0550   19.9500 C   0  0  0  0  0  0  0  0  0  0  0  0
    5.0750    1.0640   20.1900 C   0  0  0  0  0  0  0  0  0  0  0  0
    4.6010    1.7660   18.9380 C   0  0  0  0  0  0  0  0  0  0  0  0
    5.1320    1.4910   17.6940 C   0  0  0  0  0  0  0  0  0  0  0  0
   10.3980    0.4350   23.4930 C   0  0  0  0  0  0  0  0  0  0  0  0
   11.7260    0.6100   23.7940 C   0  0  0  0  0  0  0  0  0  0  0  0
   12.7060   -0.1140   23.1730 C   0  0  0  0  0  0  0  0  0  0  0  0
   12.3330   -1.0450   22.2220 C   0  0  0  0  0  0  0  0  0  0  0  0
   10.9980   -1.2410   21.9060 C   0  0  0  0  0  0  0  0  0  0  0  0
    9.9570   -0.5800   22.4430 C   0  0  0  0  0  0  0  0  0  0  0  0
  1  4  1  0
  2  4  2  0
  7 11  2  0
  9 11  1  0
 10 11  1  0
 12  4  1  6
  9 12  1  0
 10 13  1  0
 12 13  1  0
 13 14  1  6
  5 15  1  0
 14 15  1  0
 15 16  1  0
 12 17  1  0
 16 17  1  0
  5 19  1  0
 18 19  2  0
 19 20  1  0
  3 21  1  0
 20 21  1  0
 18 22  1  0
 21 22  2  0
 23 24  2  0
  9 25  1  0
 24 25  1  0
  6 26  1  0
 25 26  2  0
 26 27  1  0
 23 28  1  0
 27 28  2  0
 29 30  2  0
 30 31  1  0
  8 32  1  0
 31 32  2  0
 32 33  1  0
 10 34  1  0
 29 34  1  0
 33 34  2  0
M  END
