x1334-x0771-x0978-x2694-x3124
     RDKit          3D

 72 79  0  0  0  0  0  0  0  0999 V2000
    7.7480    2.1860   22.6910 N   0  0  0  0  0  0  0  0  0  0  0  0
    9.3300    1.6760   21.2380 O   0  0  0  0  0  0  0  0  0  0  0  0
   10.9150    6.8780   24.0400 O   0  0  0  0  0  0  0  0  0  0  0  0
    7.5940    0.1110   21.1310 C   0  0  2  0  0  0  0  0  0  0  0  0
    8.2750    1.3720   21.7230 C   0  0  0  0  0  0  0  0  0  0  0  0
   10.2260    1.9050   24.0430 C   0  0  0  0  0  0  0  0  0  0  0  0
   11.8660    6.5650   25.0510 C   0  0  0  0  0  0  0  0  0  0  0  0
   12.3800   -1.3430   23.0700 C   0  0  0  0  0  0  0  0  0  0  0  0
   12.8070    0.0370   23.6500 C   0  0  0  0  0  0  0  0  0  0  0  0
   12.9470   -1.5290   21.6650 C   0  0  0  0  0  0  0  0  0  0  0  0
   12.9550   -2.5600   23.8520 C   0  0  0  0  0  0  0  0  0  0  0  0
   13.2640   -2.4500   25.3360 C   0  0  0  0  0  0  0  0  0  0  0  0
    1.9280   -5.6720   23.2010 N   0  0  0  0  0  0  0  0  0  0  0  0
    2.0460   -8.3650   24.3310 C   0  0  0  0  0  0  0  0  0  0  0  0
    4.3780   -8.0930   24.5110 O   0  0  0  0  0  0  0  0  0  0  0  0
    3.1960   -7.3670   24.4090 C   0  0  1  0  0  0  0  0  0  0  0  0
    0.7040   -7.3920   21.8150 O   0  0  0  0  0  0  0  0  0  0  0  0
    3.2360   -6.3900   23.2220 C   0  0  2  0  0  0  0  0  0  0  0  0
    3.9720   -4.1330   22.9660 O   0  0  0  0  0  0  0  0  0  0  0  0
    0.8090   -6.1780   22.5750 C   0  0  0  0  0  0  0  0  0  0  0  0
   -0.3770   -5.4570   22.6630 C   0  0  0  0  0  0  0  0  0  0  0  0
    0.6110   -1.1530   26.1540 C   0  0  0  0  0  0  0  0  0  0  0  0
    4.3130   -6.8430   26.3090 O   0  0  0  0  0  0  0  0  0  0  0  0
    5.9160   -5.0000   26.9000 O   0  0  0  0  0  0  0  0  0  0  0  0
    6.0680   -5.2050   19.9380 O   0  0  0  0  0  0  0  0  0  0  0  0
    1.6910   -6.0830   25.7430 C   0  0  0  0  0  0  0  0  0  0  0  0
    6.8570   -4.6480   20.6540 C   0  0  0  0  0  0  0  0  0  0  0  0
    8.2450   -4.0130   20.3720 C   0  0  0  0  0  0  0  0  0  0  0  0
    4.8820   -5.5460   26.0590 S   0  0  0  0  0  0  0  0  0  0  0  0
    6.7050   -1.8960   18.9160 C   0  0  0  0  0  0  0  0  0  0  0  0
    5.3720   -3.6090   19.6350 O   0  0  0  0  0  0  0  0  0  0  0  0
    7.3550   -5.8840   28.4950 Cl  0  0  0  0  0  0  0  0  0  0  0  0
    6.0480   -2.6000   19.9250 C   0  0  0  0  0  0  0  0  0  0  0  0
    9.8410   -3.0260   24.3680 C   0  0  0  0  0  0  0  0  0  0  0  0
    6.2420    0.7370   17.6390 N   0  0  0  0  0  0  0  0  0  0  0  0
    5.1410    1.4430   17.8800 C   0  0  0  0  0  0  0  0  0  0  0  0
    4.7150    1.7690   19.1650 C   0  0  0  0  0  0  0  0  0  0  0  0
    5.4820    1.3480   20.2450 C   0  0  0  0  0  0  0  0  0  0  0  0
    6.6550    0.6120   20.0110 C   0  0  0  0  0  0  0  0  0  0  0  0
    6.9550    0.3470   18.6940 C   0  0  0  0  0  0  0  0  0  0  0  0
    8.9880   -1.8850   24.0270 N   0  0  0  0  0  0  0  0  0  0  0  0
   10.0910   -0.9260   24.0180 O   0  0  0  0  0  0  0  0  0  0  0  0
   10.8630   -1.4580   23.0060 C   0  0  0  0  0  0  0  0  0  0  0  0
    9.9080   -2.1030   21.9970 C   0  0  0  0  0  0  0  0  0  0  0  0
    8.5180   -1.9960   22.6110 C   0  0  2  0  0  0  0  0  0  0  0  0
    9.6940    3.2550   23.6580 C   0  0  0  0  0  0  0  0  0  0  0  0
   10.5580    4.4550   24.0180 C   0  0  0  0  0  0  0  0  0  0  0  0
   10.0520    5.8870   23.6520 C   0  0  0  0  0  0  0  0  0  0  0  0
    8.7080    6.1340   22.9250 C   0  0  0  0  0  0  0  0  0  0  0  0
    7.9320    4.7800   22.6120 C   0  0  0  0  0  0  0  0  0  0  0  0
    8.4600    3.3870   22.9950 C   0  0  0  0  0  0  0  0  0  0  0  0
    1.6400   -2.2400   26.1180 C   0  0  0  0  0  0  0  0  0  0  0  0
    1.2430   -3.6840   25.9380 C   0  0  0  0  0  0  0  0  0  0  0  0
    2.2020   -4.6860   25.9190 C   0  0  0  0  0  0  0  0  0  0  0  0
    3.5480   -4.3350   26.0650 C   0  0  0  0  0  0  0  0  0  0  0  0
    3.9420   -3.0000   26.2270 C   0  0  0  0  0  0  0  0  0  0  0  0
    2.9950   -1.9620   26.2540 C   0  0  0  0  0  0  0  0  0  0  0  0
    6.2260   -4.5720   21.9300 C   0  0  1  0  0  0  0  0  0  0  0  0
    5.4340   -5.7090   22.2310 C   0  0  0  0  0  0  0  0  0  0  0  0
    4.5030   -5.4210   23.2500 C   0  0  2  0  0  0  0  0  0  0  0  0
    5.4160   -5.3730   24.4630 N   0  0  0  0  0  0  0  0  0  0  0  0
    6.6290   -4.4720   24.4030 C   0  0  0  0  0  0  0  0  0  0  0  0
    6.1410   -2.1670   21.3070 N   0  0  0  0  0  0  0  0  0  0  0  0
    7.2470   -1.2180   21.8880 C   0  0  2  0  0  0  0  0  0  0  0  0
    8.2880   -3.4340   22.7180 N   0  0  0  0  0  0  0  0  0  0  0  0
    6.9330   -3.8780   23.0540 C   0  0  1  0  0  0  0  0  0  0  0  0
    5.7940   -3.1820   22.2840 C   0  0  2  0  0  0  0  0  0  0  0  0
    9.8560   -5.4350   25.4700 C   0  0  0  0  0  0  0  0  0  0  0  0
    9.3630   -4.0460   25.3500 C   0  0  0  0  0  0  0  0  0  0  0  0
    8.1630   -3.8150   26.5410 S   0  0  0  0  0  0  0  0  0  0  0  0
    8.3210   -5.4010   27.1690 C   0  0  0  0  0  0  0  0  0  0  0  0
    9.2590   -6.1650   26.5020 C   0  0  0  0  0  0  0  0  0  0  0  0
  1  5  1  0
  2  5  2  0
  4  5  1  1
  3  7  1  0
  8  9  1  0
  8 10  1  0
  8 11  1  0
 11 12  1  0
 16 14  1  6
 15 16  1  0
 18 13  1  1
 16 18  1  0
 13 20  1  0
 17 20  2  0
 20 21  1  0
 25 27  2  0
 27 28  1  0
 23 29  2  0
 24 29  2  0
 30 33  1  0
 31 33  2  0
 35 36  2  0
 36 37  1  0
 37 38  2  0
  4 39  1  0
 38 39  1  0
 35 40  1  0
 39 40  2  0
 34 41  1  0
 41 42  1  0
  8 43  1  0
 42 43  1  0
 43 44  2  0
 41 45  1  0
 45 44  1  6
  6 46  1  0
 46 47  2  0
  3 48  1  0
 47 48  1  0
 48 49  2  0
 49 50  1  0
  1 51  1  0
 46 51  1  0
 50 51  2  0
 22 52  1  0
 52 53  2  0
 26 54  1  0
 53 54  1  0
 29 55  1  0
 54 55  2  0
 55 56  1  0
 52 57  1  0
 56 57  2  0
 58 27  1  6
 58 59  1  0
 18 60  1  0
 60 19  1  6
 59 60  1  0
 29 61  1  0
 60 61  1  0
 61 62  1  0
 33 63  1  0
  4 64  1  0
 45 64  1  0
 64 63  1  6
 45 65  1  0
 58 66  1  0
 66 62  1  1
 66 65  1  0
 58 67  1  0
 67 63  1  6
 66 67  1  0
 34 69  1  0
 68 69  2  0
 69 70  1  0
 32 71  1  0
 70 71  1  0
 68 72  1  0
 71 72  2  0
M  END
