x1334-x0770
     RDKit          3D

 23 25  0  0  0  0  0  0  0  0999 V2000
    7.3290   -3.0120   18.8230 C   0  0  0  0  0  0  0  0  0  0  0  0
    5.3570   -4.0590   19.6790 O   0  0  0  0  0  0  0  0  0  0  0  0
    7.4870   -5.5890   28.4750 Cl  0  0  0  0  0  0  0  0  0  0  0  0
    6.2970   -3.2910   19.9040 C   0  0  0  0  0  0  0  0  0  0  0  0
    9.4250   -3.0600   23.8870 C   0  0  2  0  0  0  0  0  0  0  0  0
   13.5200   -1.5700   21.0290 Cl  0  0  0  0  0  0  0  0  0  0  0  0
    6.4430   -2.7070   21.1460 N   0  0  0  0  0  0  0  0  0  0  0  0
    7.3550   -1.5570   21.2730 C   0  0  0  0  0  0  0  0  0  0  0  0
    8.4400   -1.8630   22.0800 C   0  0  0  0  0  0  0  0  0  0  0  0
    8.1580   -2.6060   23.3310 N   0  0  0  0  0  0  0  0  0  0  0  0
    7.3280   -3.7820   23.0460 C   0  0  0  0  0  0  0  0  0  0  0  0
    6.1490   -3.4260   22.3870 C   0  0  0  0  0  0  0  0  0  0  0  0
    9.8720   -5.1670   25.3550 C   0  0  0  0  0  0  0  0  0  0  0  0
    9.2070   -3.9890   25.0550 C   0  0  0  0  0  0  0  0  0  0  0  0
    7.9880   -3.7220   26.2440 S   0  0  0  0  0  0  0  0  0  0  0  0
    8.3700   -5.1510   27.0810 C   0  0  0  0  0  0  0  0  0  0  0  0
    9.4130   -5.8330   26.4930 C   0  0  0  0  0  0  0  0  0  0  0  0
   10.7020   -0.7900   24.5260 C   0  0  0  0  0  0  0  0  0  0  0  0
   11.7270    0.1300   24.2440 C   0  0  0  0  0  0  0  0  0  0  0  0
   12.6530    0.0190   23.2240 C   0  0  0  0  0  0  0  0  0  0  0  0
   12.5310   -1.2180   22.3330 C   0  0  0  0  0  0  0  0  0  0  0  0
   11.4310   -2.2060   22.6270 C   0  0  0  0  0  0  0  0  0  0  0  0
   10.5120   -1.9530   23.7590 C   0  0  0  0  0  0  0  0  0  0  0  0
  1  4  1  0
  2  4  2  0
  4  7  1  0
  7  8  1  0
  8  9  1  0
  5 10  1  0
  9 10  1  0
 10 11  1  0
  7 12  1  0
 11 12  1  0
  5 14  1  1
 13 14  2  0
 14 15  1  0
  3 16  1  0
 15 16  1  0
 13 17  1  0
 16 17  2  0
 18 19  2  0
 19 20  1  0
  6 21  1  0
 20 21  2  0
 21 22  1  0
  5 23  1  0
 18 23  1  0
 22 23  2  0
M  END
