x1334-x0831
     RDKit          3D

 25 27  0  0  0  0  0  0  0  0999 V2000
    7.3170   -2.9730   18.7210 C   0  0  0  0  0  0  0  0  0  0  0  0
    5.3900   -4.0260   19.6620 O   0  0  0  0  0  0  0  0  0  0  0  0
    7.6110   -6.0290   28.5220 Cl  0  0  0  0  0  0  0  0  0  0  0  0
    6.3510   -3.2750   19.8570 C   0  0  0  0  0  0  0  0  0  0  0  0
    8.3380   -2.8620   24.1750 C   0  0  1  0  0  0  0  0  0  0  0  0
    6.5820   -2.7430   21.1110 N   0  0  0  0  0  0  0  0  0  0  0  0
    7.6040   -1.6860   21.2590 C   0  0  0  0  0  0  0  0  0  0  0  0
    8.7800   -2.1400   21.8700 C   0  0  0  0  0  0  0  0  0  0  0  0
    8.6930   -3.2640   22.8350 N   0  0  0  0  0  0  0  0  0  0  0  0
    7.6470   -4.2290   22.4910 C   0  0  0  0  0  0  0  0  0  0  0  0
    6.4320   -3.5910   22.2860 C   0  0  0  0  0  0  0  0  0  0  0  0
    9.5330   -5.0050   25.2050 C   0  0  0  0  0  0  0  0  0  0  0  0
    8.6030   -3.9640   25.1410 C   0  0  0  0  0  0  0  0  0  0  0  0
    7.5480   -4.0340   26.4800 S   0  0  0  0  0  0  0  0  0  0  0  0
    8.2860   -5.4090   27.0970 C   0  0  0  0  0  0  0  0  0  0  0  0
    9.3580   -5.8430   26.3270 C   0  0  0  0  0  0  0  0  0  0  0  0
   12.8590   -2.0490   22.4830 C   0  0  0  0  0  0  0  0  0  0  0  0
   12.3710   -0.8630   22.9860 C   0  0  0  0  0  0  0  0  0  0  0  0
   11.2940   -0.9410   23.8390 C   0  0  0  0  0  0  0  0  0  0  0  0
   10.4850    0.1930   24.5940 C   0  0  0  0  0  0  0  0  0  0  0  0
   11.2620    1.4520   24.0520 C   0  0  0  0  0  0  0  0  0  0  0  0
   12.4410    1.5380   23.1310 C   0  0  0  0  0  0  0  0  0  0  0  0
   12.9820    0.2720   22.6080 C   0  0  0  0  0  0  0  0  0  0  0  0
    8.6870   -1.4380   24.6140 C   0  0  0  0  0  0  0  0  0  0  0  0
    9.9700   -1.1840   24.9240 C   0  0  0  0  0  0  0  0  0  0  0  0
  1  4  1  0
  2  4  2  0
  4  6  1  0
  6  7  1  0
  7  8  1  0
  5  9  1  0
  8  9  1  0
  9 10  1  0
  6 11  1  0
 10 11  1  0
  5 13  1  0
 12 13  2  0
 13 14  1  0
  3 15  1  0
 14 15  1  0
 12 16  1  0
 15 16  2  0
 17 18  1  0
 18 19  2  0
 19 20  1  0
 20 21  2  0
 21 22  1  0
 18 23  1  0
 22 23  2  0
  5 24  1  1
 20 25  1  0
 24 25  1  0
M  END
