x1336-x2646
     RDKit          3D

 38 42  0  0  0  0  0  0  0  0999 V2000
    5.9960   -5.5050   28.9830 C   0  0  0  0  0  0  0  0  0  0  0  0
    8.1030   -0.8780   25.0030 O   0  0  0  0  0  0  0  0  0  0  0  0
    5.8430   -1.3220   25.8900 O   0  0  0  0  0  0  0  0  0  0  0  0
    5.8480   -4.3380   19.9430 O   0  0  0  0  0  0  0  0  0  0  0  0
    9.8730   -3.3720   24.8400 C   0  0  0  0  0  0  0  0  0  0  0  0
    6.8860   -3.6430   20.1040 C   0  0  0  0  0  0  0  0  0  0  0  0
    7.5690   -3.0990   18.8700 C   0  0  0  0  0  0  0  0  0  0  0  0
    6.9760   -1.7800   25.1200 S   0  0  0  0  0  0  0  0  0  0  0  0
    4.0620    1.2710   21.5080 C   0  0  0  0  0  0  0  0  0  0  0  0
    8.6740    1.2390   21.5130 O   0  0  0  0  0  0  0  0  0  0  0  0
   13.3300   -2.3430   21.0700 Cl  0  0  0  0  0  0  0  0  0  0  0  0
    6.7750   -0.0890   21.8030 N   0  0  0  0  0  0  0  0  0  0  0  0
    8.1070    0.2070   21.8460 C   0  0  0  0  0  0  0  0  0  0  0  0
    8.7350   -1.0660   22.3950 C   0  0  1  0  0  0  0  0  0  0  0  0
    6.9400   -4.9680   27.9550 C   0  0  0  0  0  0  0  0  0  0  0  0
    6.6420   -3.7820   27.0700 C   0  0  0  0  0  0  0  0  0  0  0  0
    7.5820   -3.2160   26.0160 C   0  0  0  0  0  0  0  0  0  0  0  0
    8.8510   -3.8380   25.8340 C   0  0  0  0  0  0  0  0  0  0  0  0
    9.2320   -4.9470   26.6000 C   0  0  0  0  0  0  0  0  0  0  0  0
    8.3220   -5.5580   27.6760 C   0  0  0  0  0  0  0  0  0  0  0  0
    7.5800   -3.3460   21.3420 N   0  0  0  0  0  0  0  0  0  0  0  0
    7.1480   -4.0260   22.4160 C   0  0  0  0  0  0  0  0  0  0  0  0
    6.1690   -3.5030   23.2280 C   0  0  0  0  0  0  0  0  0  0  0  0
    6.3550   -2.0250   23.5090 N   0  0  0  0  0  0  0  0  0  0  0  0
    6.9850   -1.3580   22.4910 C   0  0  1  0  0  0  0  0  0  0  0  0
    7.7770   -2.0130   21.6310 C   0  0  1  0  0  0  0  0  0  0  0  0
    6.3890    0.3040   18.0560 N   0  0  0  0  0  0  0  0  0  0  0  0
    6.8360   -0.0110   19.3000 C   0  0  0  0  0  0  0  0  0  0  0  0
    6.1750    0.2550   20.5000 C   0  0  0  0  0  0  0  0  0  0  0  0
    4.9480    0.8880   20.3710 C   0  0  0  0  0  0  0  0  0  0  0  0
    4.4580    1.2270   19.1160 C   0  0  0  0  0  0  0  0  0  0  0  0
    5.2080    0.9220   17.9930 C   0  0  0  0  0  0  0  0  0  0  0  0
   10.6760   -0.0790   23.6620 C   0  0  0  0  0  0  0  0  0  0  0  0
   12.0370    0.0890   23.8950 C   0  0  0  0  0  0  0  0  0  0  0  0
   12.8910   -0.6220   23.0850 C   0  0  0  0  0  0  0  0  0  0  0  0
   12.3780   -1.4610   22.1010 C   0  0  0  0  0  0  0  0  0  0  0  0
   11.0480   -1.6290   21.8820 C   0  0  0  0  0  0  0  0  0  0  0  0
   10.1880   -0.9390   22.6440 C   0  0  0  0  0  0  0  0  0  0  0  0
  4  6  2  0
  6  7  1  0
  2  8  2  0
  3  8  2  0
 10 13  2  0
 12 13  1  0
 13 14  1  0
  1 15  1  0
 15 16  2  0
  8 17  1  0
 16 17  1  0
  5 18  1  0
 17 18  2  0
 18 19  1  0
 15 20  1  0
 19 20  2  0
  6 21  1  0
 21 22  1  0
 22 23  1  0
  8 24  1  0
 23 24  1  0
 25 12  1  6
 24 25  1  0
 14 26  1  0
 26 21  1  1
 25 26  1  0
 27 28  2  0
 12 29  1  0
 28 29  1  0
  9 30  1  0
 29 30  2  0
 30 31  1  0
 27 32  1  0
 31 32  2  0
 33 34  2  0
 34 35  1  0
 11 36  1  0
 35 36  2  0
 36 37  1  0
 14 38  1  6
 33 38  1  0
 37 38  2  0
M  END
