x1334-x2703
     RDKit          3D

 43 48  0  0  0  0  0  0  0  0999 V2000
    7.4610    1.8480   22.3650 N   0  0  0  0  0  0  0  0  0  0  0  0
    9.6070    0.8410   21.7320 O   0  0  0  0  0  0  0  0  0  0  0  0
    7.4780   -0.2720   20.9360 C   0  0  2  0  0  0  0  0  0  0  0  0
    8.1890    0.8340   21.7260 C   0  0  0  0  0  0  0  0  0  0  0  0
   10.2600    2.1390   23.8720 C   0  0  0  0  0  0  0  0  0  0  0  0
    9.4780    1.2520   24.6270 C   0  0  0  0  0  0  0  0  0  0  0  0
    5.9980    4.2950   21.5920 C   0  0  0  0  0  0  0  0  0  0  0  0
   11.8220   -2.2510   25.0100 C   0  0  0  0  0  0  0  0  0  0  0  0
   12.4130   -3.1200   24.1840 C   0  0  0  0  0  0  0  0  0  0  0  0
   12.9360   -1.2220   25.2400 C   0  0  0  0  0  0  0  0  0  0  0  0
    7.2970   -2.9940   18.7350 C   0  0  0  0  0  0  0  0  0  0  0  0
    5.2190   -3.8900   19.6150 O   0  0  0  0  0  0  0  0  0  0  0  0
    7.5920   -5.7500   28.2770 Cl  0  0  0  0  0  0  0  0  0  0  0  0
    6.2890   -3.3200   19.8350 C   0  0  0  0  0  0  0  0  0  0  0  0
    9.5390   -2.6240   24.0960 C   0  0  2  0  0  0  0  0  0  0  0  0
    6.2110    0.7170   17.5470 N   0  0  0  0  0  0  0  0  0  0  0  0
    4.9980    1.4410   17.8630 C   0  0  0  0  0  0  0  0  0  0  0  0
    4.5750    1.5580   19.1810 C   0  0  0  0  0  0  0  0  0  0  0  0
    5.2260    1.0570   20.2950 C   0  0  0  0  0  0  0  0  0  0  0  0
    6.5320    0.3170   19.9820 C   0  0  0  0  0  0  0  0  0  0  0  0
    6.9060    0.2080   18.5290 C   0  0  0  0  0  0  0  0  0  0  0  0
   10.7680   -1.8380   22.9240 N   0  0  0  0  0  0  0  0  0  0  0  0
   10.7290   -1.6860   24.3710 C   0  0  1  0  0  0  0  0  0  0  0  0
    9.3600   -1.1460   24.7860 C   0  0  0  0  0  0  0  0  0  0  0  0
    8.1980   -1.0920   24.0090 C   0  0  0  0  0  0  0  0  0  0  0  0
    8.2180   -1.7710   22.8290 C   0  0  2  0  0  0  0  0  0  0  0  0
    9.4800   -1.8560   22.2150 C   0  0  0  0  0  0  0  0  0  0  0  0
    9.3920    3.3400   23.3860 C   0  0  0  0  0  0  0  0  0  0  0  0
    9.9660    4.5500   23.6730 C   0  0  0  0  0  0  0  0  0  0  0  0
    9.2080    5.6510   23.2550 C   0  0  0  0  0  0  0  0  0  0  0  0
    7.9830    5.5060   22.6130 C   0  0  0  0  0  0  0  0  0  0  0  0
    7.3450    4.2800   22.2950 C   0  0  0  0  0  0  0  0  0  0  0  0
    8.0280    3.1380   22.6640 C   0  0  0  0  0  0  0  0  0  0  0  0
    6.8660   -3.0040   21.1560 C   0  0  0  0  0  0  0  0  0  0  0  0
    7.4290   -1.6530   21.6050 C   0  0  0  0  0  0  0  0  0  0  0  0
    8.2650   -2.9440   23.5080 N   0  0  0  0  0  0  0  0  0  0  0  0
    8.2210   -4.1100   22.6750 C   0  0  0  0  0  0  0  0  0  0  0  0
    6.9890   -4.1600   22.0740 C   0  0  0  0  0  0  0  0  0  0  0  0
   10.0090   -4.9880   25.2190 C   0  0  0  0  0  0  0  0  0  0  0  0
    9.3760   -3.7890   25.0870 C   0  0  0  0  0  0  0  0  0  0  0  0
    8.1450   -3.6700   26.2940 S   0  0  0  0  0  0  0  0  0  0  0  0
    8.5010   -5.1800   26.9410 C   0  0  0  0  0  0  0  0  0  0  0  0
    9.5180   -5.8040   26.2880 C   0  0  0  0  0  0  0  0  0  0  0  0
  1  4  1  0
  2  4  2  0
  3  4  1  1
  5  6  1  0
  8  9  1  0
  8 10  1  0
 11 14  1  0
 12 14  2  0
 16 17  2  0
 17 18  1  0
 18 19  2  0
  3 20  1  0
 19 20  1  0
 16 21  1  0
 20 21  2  0
 23  8  1  1
 22 23  1  0
 15 24  1  0
 23 24  1  0
 24 25  2  0
 25 26  1  0
 22 27  2  0
 26 27  1  6
  5 28  1  0
 28 29  2  0
 29 30  1  0
 30 31  2  0
  7 32  1  0
 31 32  1  0
  1 33  1  0
 28 33  1  0
 32 33  2  0
 14 34  1  0
  3 35  1  0
 26 35  1  0
 34 35  2  0
 15 36  1  0
 26 36  1  0
 36 37  1  0
 34 38  1  0
 37 38  1  0
 15 40  1  1
 39 40  2  0
 40 41  1  0
 13 42  1  0
 41 42  1  0
 39 43  1  0
 42 43  2  0
M  END
