x1336-x0734
     RDKit          3D

 25 26  0  0  0  0  0  0  0  0999 V2000
    6.0010   -5.3830   29.1790 C   0  0  0  0  0  0  0  0  0  0  0  0
    8.7610   -1.0190   25.1570 O   0  0  0  0  0  0  0  0  0  0  0  0
    6.2100   -1.0750   25.7760 N   0  0  0  0  0  0  0  0  0  0  0  0
    5.4300   -4.1360   19.7460 O   0  0  0  0  0  0  0  0  0  0  0  0
   10.1810   -3.6010   25.0700 C   0  0  0  0  0  0  0  0  0  0  0  0
    6.4630   -3.5020   19.9620 C   0  0  0  0  0  0  0  0  0  0  0  0
    7.4070   -3.0910   18.8360 C   0  0  0  0  0  0  0  0  0  0  0  0
    7.5070   -1.7300   25.2910 S   0  0  2  0  0  0  0  0  0  0  0  0
    7.1000   -4.9360   28.1060 C   0  0  0  0  0  0  0  0  0  0  0  0
    6.8360   -3.6660   27.2730 C   0  0  0  0  0  0  0  0  0  0  0  0
    7.8420   -3.2030   26.2470 C   0  0  0  0  0  0  0  0  0  0  0  0
    9.1170   -3.9890   26.0490 C   0  0  0  0  0  0  0  0  0  0  0  0
    9.3170   -5.2320   26.8960 C   0  0  0  0  0  0  0  0  0  0  0  0
    8.2670   -5.6630   27.9180 C   0  0  0  0  0  0  0  0  0  0  0  0
    6.8640   -3.1660   21.2560 N   0  0  0  0  0  0  0  0  0  0  0  0
    6.7610   -4.0070   22.2920 C   0  0  0  0  0  0  0  0  0  0  0  0
    6.4480   -3.5200   23.5330 C   0  0  0  0  0  0  0  0  0  0  0  0
    7.1440   -2.2330   23.7220 N   0  0  0  0  0  0  0  0  0  0  0  0
    7.9190   -1.6820   22.6120 C   0  0  0  0  0  0  0  0  0  0  0  0
    7.8990   -2.2950   21.3620 C   0  0  0  0  0  0  0  0  0  0  0  0
    4.9310   -5.2800   26.4420 N   0  0  0  0  0  0  0  0  0  0  0  0
    4.4060   -6.0000   25.3350 O   0  0  0  0  0  0  0  0  0  0  0  0
    4.4020   -3.9920   26.7780 O   0  0  0  0  0  0  0  0  0  0  0  0
    5.2040   -1.8510   26.5210 C   0  0  0  0  0  0  0  0  0  0  0  0
    4.8660   -3.0130   25.8480 C   0  0  0  0  0  0  0  0  0  0  0  0
  4  6  2  0
  6  7  1  0
  2  8  2  0
  3  8  2  0
  1  9  1  0
  9 10  2  0
  8 11  1  1
 10 11  1  0
  5 12  1  0
 11 12  2  0
 12 13  1  0
  9 14  1  0
 13 14  2  0
  6 15  1  0
 15 16  1  0
 16 17  1  0
  8 18  1  0
 17 18  1  0
 18 19  1  0
 15 20  1  0
 19 20  1  0
 21 22  2  0
 21 23  1  0
  3 24  1  0
 23 25  1  0
 24 25  1  0
M  CHG  1  21   1
M  END
