x1334-x2572
     RDKit          3D

 35 39  0  0  0  0  0  0  0  0999 V2000
    4.5360    0.8920   21.5810 C   0  0  0  0  0  0  0  0  0  0  0  0
    8.7480    1.4690   21.1500 O   0  0  0  0  0  0  0  0  0  0  0  0
    7.2210   -0.5680   20.8230 N   0  0  0  0  0  0  0  0  0  0  0  0
   13.7520   -2.4900   20.6250 N   0  0  0  0  0  0  0  0  0  0  0  0
    8.1430    0.1990   21.4900 C   0  0  0  0  0  0  0  0  0  0  0  0
    8.5540   -0.4700   22.7740 C   0  0  2  0  0  0  0  0  0  0  0  0
   13.1220   -1.7030   21.5210 C   0  0  0  0  0  0  0  0  0  0  0  0
    7.3360   -2.9270   18.8450 C   0  0  0  0  0  0  0  0  0  0  0  0
    5.2920   -3.9040   19.5780 O   0  0  0  0  0  0  0  0  0  0  0  0
    7.3780   -5.8130   28.4970 Cl  0  0  0  0  0  0  0  0  0  0  0  0
    6.2780   -3.2370   19.8920 C   0  0  0  0  0  0  0  0  0  0  0  0
    9.3120   -3.1770   24.0830 C   0  0  0  0  0  0  0  0  0  0  0  0
    6.3170    0.6600   17.5950 N   0  0  0  0  0  0  0  0  0  0  0  0
    6.8940    0.0690   18.6390 C   0  0  0  0  0  0  0  0  0  0  0  0
    6.3590    0.1270   19.9150 C   0  0  0  0  0  0  0  0  0  0  0  0
    5.1680    0.7940   20.2250 C   0  0  0  0  0  0  0  0  0  0  0  0
    4.5400    1.4210   19.1690 C   0  0  0  0  0  0  0  0  0  0  0  0
    5.0980    1.3580   17.9150 C   0  0  0  0  0  0  0  0  0  0  0  0
   10.4900    0.7260   23.7850 C   0  0  0  0  0  0  0  0  0  0  0  0
   11.8280    0.9770   23.9430 C   0  0  0  0  0  0  0  0  0  0  0  0
   12.8950    0.1780   23.1960 C   0  0  0  0  0  0  0  0  0  0  0  0
   12.3510   -0.9010   22.2830 C   0  0  0  0  0  0  0  0  0  0  0  0
   10.9100   -1.1190   22.1590 C   0  0  0  0  0  0  0  0  0  0  0  0
    9.9950   -0.2570   22.9420 C   0  0  0  0  0  0  0  0  0  0  0  0
    6.4070   -2.8680   21.2270 N   0  0  0  0  0  0  0  0  0  0  0  0
    6.9120   -1.6860   21.7060 C   0  0  1  0  0  0  0  0  0  0  0  0
    8.1320   -1.8840   22.3730 C   0  0  2  0  0  0  0  0  0  0  0  0
    8.0520   -2.8550   23.4540 N   0  0  0  0  0  0  0  0  0  0  0  0
    7.3080   -4.0330   23.0090 C   0  0  0  0  0  0  0  0  0  0  0  0
    6.2340   -3.8010   22.1860 C   0  0  0  0  0  0  0  0  0  0  0  0
    9.7530   -5.4210   25.3350 C   0  0  0  0  0  0  0  0  0  0  0  0
    9.1110   -4.1960   25.1410 C   0  0  0  0  0  0  0  0  0  0  0  0
    7.9250   -3.9080   26.3490 S   0  0  0  0  0  0  0  0  0  0  0  0
    8.2610   -5.3750   27.1020 C   0  0  0  0  0  0  0  0  0  0  0  0
    9.2670   -6.1010   26.4660 C   0  0  0  0  0  0  0  0  0  0  0  0
  2  5  2  0
  3  5  1  0
  5  6  1  0
  4  7  3  0
  8 11  1  0
  9 11  2  0
 13 14  2  0
  3 15  1  0
 14 15  1  0
  1 16  1  0
 15 16  2  0
 16 17  1  0
 13 18  1  0
 17 18  2  0
 19 20  2  0
 20 21  1  0
  7 22  1  0
 21 22  2  0
 22 23  1  0
  6 24  1  6
 19 24  1  0
 23 24  2  0
 11 25  1  0
 26  3  1  6
 25 26  1  0
  6 27  1  0
 26 27  1  0
 12 28  1  0
 27 28  1  1
 28 29  1  0
 25 30  1  0
 29 30  1  0
 12 32  1  0
 31 32  2  0
 32 33  1  0
 10 34  1  0
 33 34  1  0
 31 35  1  0
 34 35  2  0
M  END
