x1334-x1392
     RDKit          3D

 22 24  0  0  0  0  0  0  0  0999 V2000
    7.4160   -2.9830   18.7200 C   0  0  0  0  0  0  0  0  0  0  0  0
    5.4900   -3.9920   19.6900 O   0  0  0  0  0  0  0  0  0  0  0  0
    7.3190   -5.8520   28.4430 Cl  0  0  0  0  0  0  0  0  0  0  0  0
    6.4770   -3.2540   19.8740 C   0  0  0  0  0  0  0  0  0  0  0  0
    9.5420   -3.1880   24.1370 C   0  0  0  0  0  0  0  0  0  0  0  0
    6.7650   -2.7140   21.1260 N   0  0  0  0  0  0  0  0  0  0  0  0
    7.8700   -1.7060   21.2750 C   0  0  0  0  0  0  0  0  0  0  0  0
    8.9040   -2.1880   22.0980 C   0  0  2  0  0  0  0  0  0  0  0  0
    8.4030   -2.8290   23.3000 N   0  0  0  0  0  0  0  0  0  0  0  0
    7.5140   -3.9420   22.9920 C   0  0  0  0  0  0  0  0  0  0  0  0
    6.3810   -3.4490   22.3420 C   0  0  0  0  0  0  0  0  0  0  0  0
    9.7550   -5.4400   25.3620 C   0  0  0  0  0  0  0  0  0  0  0  0
    9.2100   -4.1960   25.1680 C   0  0  0  0  0  0  0  0  0  0  0  0
    7.9990   -3.8890   26.3560 S   0  0  0  0  0  0  0  0  0  0  0  0
    8.2430   -5.4010   27.0820 C   0  0  0  0  0  0  0  0  0  0  0  0
    9.2200   -6.1300   26.4420 C   0  0  0  0  0  0  0  0  0  0  0  0
   11.3990   -1.4730   22.1130 C   0  0  0  0  0  0  0  0  0  0  0  0
   12.4540   -0.6580   22.5110 C   0  0  0  0  0  0  0  0  0  0  0  0
   12.3290    0.4400   23.3590 C   0  0  0  0  0  0  0  0  0  0  0  0
   10.9250    0.7970   23.9190 C   0  0  0  0  0  0  0  0  0  0  0  0
    9.7640   -0.1290   23.4600 C   0  0  0  0  0  0  0  0  0  0  0  0
   10.0700   -1.2830   22.5240 C   0  0  0  0  0  0  0  0  0  0  0  0
  1  4  1  0
  2  4  2  0
  4  6  1  0
  6  7  1  0
  7  8  1  0
  5  9  1  0
  8  9  1  0
  9 10  1  0
  6 11  1  0
 10 11  1  0
  5 13  1  0
 12 13  2  0
 13 14  1  0
  3 15  1  0
 14 15  1  0
 12 16  1  0
 15 16  2  0
 17 18  2  0
 18 19  1  0
 19 20  2  0
 20 21  1  0
  8 22  1  1
 17 22  1  0
 21 22  2  0
M  END
