x1336-x0305
     RDKit          3D

 30 32  0  0  0  0  0  0  0  0999 V2000
    5.5690   -4.9400   29.2960 C   0  0  0  0  0  0  0  0  0  0  0  0
    8.8230   -0.5120   26.0100 C   0  0  0  0  0  0  0  0  0  0  0  0
    8.0350   -2.2130   26.8310 O   0  0  0  0  0  0  0  0  0  0  0  0
    5.4800   -4.2600   19.8050 O   0  0  0  0  0  0  0  0  0  0  0  0
    9.7170   -4.5250   24.9190 C   0  0  0  0  0  0  0  0  0  0  0  0
    6.4670   -3.5620   20.0160 C   0  0  0  0  0  0  0  0  0  0  0  0
    7.3910   -3.0690   18.8860 C   0  0  0  0  0  0  0  0  0  0  0  0
    8.2060   -2.0120   25.4250 S   0  0  2  0  0  0  0  0  0  0  0  0
    8.9510   -0.3590   27.4940 C   0  0  0  0  0  0  0  0  0  0  0  0
    9.2430    0.4280   25.0260 N   0  0  0  0  0  0  0  0  0  0  0  0
   13.1670   -1.4160   21.5390 C   0  0  0  0  0  0  0  0  0  0  0  0
   13.7730   -1.7930   20.6850 N   0  0  0  0  0  0  0  0  0  0  0  0
    6.5820   -4.7980   28.2130 C   0  0  0  0  0  0  0  0  0  0  0  0
    6.8070   -3.5530   27.3950 C   0  0  0  0  0  0  0  0  0  0  0  0
    7.8590   -3.4730   26.3130 C   0  0  0  0  0  0  0  0  0  0  0  0
    8.6720   -4.5720   26.0010 C   0  0  0  0  0  0  0  0  0  0  0  0
    8.5580   -5.7550   26.6920 C   0  0  0  0  0  0  0  0  0  0  0  0
    7.5330   -5.9230   27.8160 C   0  0  0  0  0  0  0  0  0  0  0  0
    6.8080   -3.2020   21.3300 N   0  0  0  0  0  0  0  0  0  0  0  0
    6.8360   -4.0940   22.3850 C   0  0  0  0  0  0  0  0  0  0  0  0
    6.8180   -3.4810   23.6350 C   0  0  0  0  0  0  0  0  0  0  0  0
    7.8540   -2.5860   23.8290 N   0  0  0  0  0  0  0  0  0  0  0  0
    7.8050   -1.7000   22.7870 C   0  0  0  0  0  0  0  0  0  0  0  0
    7.6550   -2.1650   21.4870 C   0  0  0  0  0  0  0  0  0  0  0  0
   10.3460    0.0690   24.1720 C   0  0  0  0  0  0  0  0  0  0  0  0
   11.4500    0.8390   23.9930 N   0  0  0  0  0  0  0  0  0  0  0  0
   12.3820    0.3530   23.1460 C   0  0  0  0  0  0  0  0  0  0  0  0
   12.2120   -0.8660   22.4940 C   0  0  0  0  0  0  0  0  0  0  0  0
   11.1100   -1.6410   22.6870 C   0  0  0  0  0  0  0  0  0  0  0  0
   10.1400   -1.1910   23.5410 C   0  0  0  0  0  0  0  0  0  0  0  0
  4  6  2  0
  6  7  1  0
  2  8  2  0
  3  8  2  0
  2  9  1  0
  2 10  1  0
 11 12  3  0
  1 13  1  0
 13 14  2  0
  8 15  1  1
 14 15  1  0
  5 16  1  0
 15 16  2  0
 16 17  1  0
 13 18  1  0
 17 18  2  0
  6 19  1  0
 19 20  1  0
 20 21  1  0
  8 22  1  0
 21 22  1  0
 22 23  1  0
 19 24  1  0
 23 24  1  0
 10 25  1  0
 25 26  2  0
 26 27  1  0
 11 28  1  0
 27 28  2  0
 28 29  1  0
 25 30  1  0
 29 30  2  0
M  END
