x1334-x2119
     RDKit          3D

 16 17  0  0  0  0  0  0  0  0999 V2000
    7.3570   -3.0060   18.7660 C   0  0  0  0  0  0  0  0  0  0  0  0
    5.4370   -4.0650   19.7160 O   0  0  0  0  0  0  0  0  0  0  0  0
    7.3580   -5.7010   28.4080 Cl  0  0  0  0  0  0  0  0  0  0  0  0
    6.4010   -3.3120   19.9090 C   0  0  0  0  0  0  0  0  0  0  0  0
    9.6270   -3.0450   24.0820 C   0  0  0  0  0  0  0  0  0  0  0  0
    6.6590   -2.7620   21.1520 N   0  0  0  0  0  0  0  0  0  0  0  0
    7.6320   -1.6480   21.2530 C   0  0  0  0  0  0  0  0  0  0  0  0
    8.7470   -1.9990   22.0120 C   0  0  0  0  0  0  0  0  0  0  0  0
    8.4340   -2.6610   23.2970 N   0  0  0  0  0  0  0  0  0  0  0  0
    7.5670   -3.8290   23.0650 C   0  0  0  0  0  0  0  0  0  0  0  0
    6.3810   -3.4800   22.4080 C   0  0  0  0  0  0  0  0  0  0  0  0
    9.8570   -5.3260   25.3310 C   0  0  0  0  0  0  0  0  0  0  0  0
    9.2970   -4.0690   25.1330 C   0  0  0  0  0  0  0  0  0  0  0  0
    8.0720   -3.7610   26.3100 S   0  0  0  0  0  0  0  0  0  0  0  0
    8.2990   -5.2570   27.0520 C   0  0  0  0  0  0  0  0  0  0  0  0
    9.2810   -5.9880   26.4260 C   0  0  0  0  0  0  0  0  0  0  0  0
  1  4  1  0
  2  4  2  0
  4  6  1  0
  6  7  1  0
  7  8  1  0
  5  9  1  0
  8  9  1  0
  9 10  1  0
  6 11  1  0
 10 11  1  0
  5 13  1  0
 12 13  2  0
 13 14  1  0
  3 15  1  0
 14 15  1  0
 12 16  1  0
 15 16  2  0
M  END
