x1336-x2581
     RDKit          3D

 41 45  0  0  0  0  0  0  0  0999 V2000
    6.6780   -5.4770   28.9160 C   0  0  0  0  0  0  0  0  0  0  0  0
    8.1500   -0.6580   25.0070 O   0  0  0  0  0  0  0  0  0  0  0  0
    5.8350   -1.2490   25.8290 O   0  0  0  0  0  0  0  0  0  0  0  0
    5.3490   -4.1790   19.7330 O   0  0  0  0  0  0  0  0  0  0  0  0
   10.0030   -2.9940   24.4670 C   0  0  0  0  0  0  0  0  0  0  0  0
    6.3800   -3.5720   19.9730 C   0  0  0  0  0  0  0  0  0  0  0  0
    7.3360   -3.0690   18.8780 C   0  0  0  0  0  0  0  0  0  0  0  0
    7.0730   -1.6060   25.1710 S   0  0  0  0  0  0  0  0  0  0  0  0
   10.3790   -1.5380   24.4610 O   0  0  0  0  0  0  0  0  0  0  0  0
   10.4610    3.0650   22.2560 N   0  0  0  0  0  0  0  0  0  0  0  0
   11.1270    3.3990   24.3490 O   0  0  0  0  0  0  0  0  0  0  0  0
   11.1060    3.7780   23.2210 C   0  0  0  0  0  0  0  0  0  0  0  0
   11.7670    5.0930   22.7470 C   0  0  0  0  0  0  0  0  0  0  0  0
    7.4890   -4.8440   27.8280 C   0  0  0  0  0  0  0  0  0  0  0  0
    6.9640   -3.6450   27.0930 C   0  0  0  0  0  0  0  0  0  0  0  0
    7.7620   -3.0060   25.9880 C   0  0  0  0  0  0  0  0  0  0  0  0
    9.1210   -3.5800   25.6080 C   0  0  0  0  0  0  0  0  0  0  0  0
    9.5340   -4.7230   26.3780 C   0  0  0  0  0  0  0  0  0  0  0  0
    8.7560   -5.3020   27.4150 C   0  0  0  0  0  0  0  0  0  0  0  0
    6.7580   -3.3410   21.2850 N   0  0  0  0  0  0  0  0  0  0  0  0
    6.3820   -4.1840   22.2370 C   0  0  0  0  0  0  0  0  0  0  0  0
    6.5390   -3.7830   23.5650 C   0  0  0  0  0  0  0  0  0  0  0  0
    6.7170   -2.2880   23.6710 N   0  0  0  0  0  0  0  0  0  0  0  0
    7.4880   -1.6870   22.7310 C   0  0  0  0  0  0  0  0  0  0  0  0
    7.7500   -2.5470   21.6700 C   0  0  0  0  0  0  0  0  0  0  0  0
    9.2000    1.2950   21.4040 N   0  0  0  0  0  0  0  0  0  0  0  0
   10.0480    1.6580   22.3930 C   0  0  0  0  0  0  0  0  0  0  0  0
   10.4830    0.7810   23.4320 C   0  0  0  0  0  0  0  0  0  0  0  0
   10.0370   -0.5610   23.4670 C   0  0  0  0  0  0  0  0  0  0  0  0
    9.1790   -0.9260   22.4160 C   0  0  0  0  0  0  0  0  0  0  0  0
    8.7920    0.0050   21.4360 C   0  0  0  0  0  0  0  0  0  0  0  0
    9.8260    6.7120   22.8210 C   0  0  0  0  0  0  0  0  0  0  0  0
    9.1420    7.7990   23.3550 C   0  0  0  0  0  0  0  0  0  0  0  0
    9.6660    8.5070   24.4420 C   0  0  0  0  0  0  0  0  0  0  0  0
   10.9070    8.0750   24.9760 C   0  0  0  0  0  0  0  0  0  0  0  0
   11.5870    6.9770   24.4360 C   0  0  0  0  0  0  0  0  0  0  0  0
   11.0590    6.2790   23.3470 C   0  0  0  0  0  0  0  0  0  0  0  0
    8.9720    9.6160   24.9650 C   0  0  0  0  0  0  0  0  0  0  0  0
    9.4750   10.3500   26.0430 C   0  0  0  0  0  0  0  0  0  0  0  0
   10.6930    9.9830   26.6260 C   0  0  0  0  0  0  0  0  0  0  0  0
   11.4550    8.7730   26.0610 C   0  0  0  0  0  0  0  0  0  0  0  0
  4  6  2  0
  6  7  1  0
  2  8  2  0
  3  8  2  0
  5  9  1  0
 10 12  1  0
 11 12  2  0
 12 13  1  0
  1 14  1  0
 14 15  2  0
  8 16  1  0
 15 16  1  0
  5 17  1  0
 16 17  2  0
 17 18  1  0
 14 19  1  0
 18 19  2  0
  6 20  1  0
 20 21  1  0
 21 22  1  0
  8 23  1  0
 22 23  1  0
 23 24  1  0
 20 25  1  0
 24 25  1  0
 10 27  1  0
 26 27  2  0
 27 28  1  0
  9 29  1  0
 28 29  2  0
 29 30  1  0
 26 31  1  0
 30 31  2  0
 32 33  2  0
 33 34  1  0
 34 35  2  0
 35 36  1  0
 13 37  1  0
 32 37  1  0
 36 37  2  0
 34 38  1  0
 38 39  2  0
 39 40  1  0
 35 41  1  0
 40 41  2  0
M  END
