x1348-x0305
     RDKit          3D

 29 31  0  0  0  0  0  0  0  0999 V2000
    7.0420   -3.7070   21.3620 N   0  0  0  0  0  0  0  0  0  0  0  0
    8.1240   -5.2260   27.6550 C   0  0  0  0  0  0  0  0  0  0  0  0
    7.5080   -4.7830   26.4040 N   0  0  0  0  0  0  0  0  0  0  0  0
    5.4010   -4.2040   19.7910 O   0  0  0  0  0  0  0  0  0  0  0  0
    6.4970   -3.7150   20.0830 C   0  0  0  0  0  0  0  0  0  0  0  0
    7.3900   -3.1180   19.0400 C   0  0  0  0  0  0  0  0  0  0  0  0
    8.7020    0.4240   27.5470 C   0  0  0  0  0  0  0  0  0  0  0  0
    9.1670   -0.3990   26.3650 C   0  0  2  0  0  0  0  0  0  0  0  0
    9.6420    0.2370   25.5320 N   0  0  0  0  0  0  0  0  0  0  0  0
   13.1100   -1.3870   21.5160 C   0  0  0  0  0  0  0  0  0  0  0  0
   13.9230   -1.5940   20.4920 N   0  0  0  0  0  0  0  0  0  0  0  0
    8.0610   -3.5860   25.7320 C   0  0  0  0  0  0  0  0  0  0  0  0
    7.7940   -2.5040   26.5570 C   0  0  0  0  0  0  0  0  0  0  0  0
    7.9910   -1.1960   25.7990 C   0  0  0  0  0  0  0  0  0  0  0  0
    6.3590   -5.4720   25.8690 C   0  0  0  0  0  0  0  0  0  0  0  0
    6.1510   -5.2670   24.5090 C   0  0  0  0  0  0  0  0  0  0  0  0
    4.9840   -5.9560   23.8420 C   0  0  0  0  0  0  0  0  0  0  0  0
    4.1420   -6.7640   24.5740 C   0  0  0  0  0  0  0  0  0  0  0  0
    4.3650   -6.9540   25.9700 C   0  0  0  0  0  0  0  0  0  0  0  0
    5.4660   -6.3180   26.6320 C   0  0  0  0  0  0  0  0  0  0  0  0
    6.9670   -4.4340   23.6710 N   0  0  0  0  0  0  0  0  0  0  0  0
    6.4490   -4.4740   22.4150 C   0  0  0  0  0  0  0  0  0  0  0  0
    5.0680   -5.4560   22.1500 S   0  0  0  0  0  0  0  0  0  0  0  0
   10.4590   -0.2160   24.5000 C   0  0  0  0  0  0  0  0  0  0  0  0
   11.6610    0.4130   24.4070 N   0  0  0  0  0  0  0  0  0  0  0  0
   12.4560   -0.0040   23.4430 C   0  0  0  0  0  0  0  0  0  0  0  0
   12.1670   -1.0160   22.5350 C   0  0  0  0  0  0  0  0  0  0  0  0
   10.9560   -1.6800   22.5860 C   0  0  0  0  0  0  0  0  0  0  0  0
   10.0190   -1.3430   23.5520 C   0  0  0  0  0  0  0  0  0  0  0  0
  2  3  1  0
  1  5  1  0
  4  5  2  0
  5  6  1  0
  8  7  1  1
  8  9  1  0
 10 11  3  0
  3 12  1  0
 12 13  1  0
  8 14  1  0
 13 14  1  0
  3 15  1  0
 15 16  2  0
 16 17  1  0
 17 18  2  0
 18 19  1  0
 15 20  1  0
 19 20  2  0
 16 21  1  0
  1 22  1  0
 21 22  2  0
 17 23  1  0
 22 23  1  0
  9 24  1  0
 24 25  2  0
 25 26  1  0
 10 27  1  0
 26 27  2  0
 27 28  1  0
 24 29  1  0
 28 29  2  0
M  END
