x1348-x2705
     RDKit          3D

 45 49  0  0  0  0  0  0  0  0999 V2000
    7.5290   -1.2220   22.0770 N   0  0  0  0  0  0  0  0  0  0  0  0
    7.5400    2.2360   22.8700 N   0  0  0  0  0  0  0  0  0  0  0  0
    8.9910    1.5540   21.0950 O   0  0  0  0  0  0  0  0  0  0  0  0
    7.0220    0.0560   21.7160 C   0  0  1  0  0  0  0  0  0  0  0  0
    7.8530    1.2960   21.9250 C   0  0  0  0  0  0  0  0  0  0  0  0
   10.1930    2.1930   23.9910 C   0  0  0  0  0  0  0  0  0  0  0  0
    9.2520    1.5110   24.9580 C   0  0  0  0  0  0  0  0  0  0  0  0
    6.2520    4.6780   21.9400 C   0  0  0  0  0  0  0  0  0  0  0  0
   12.3420   -1.4150   23.3150 C   0  0  0  0  0  0  0  0  0  0  0  0
   12.9780   -0.0150   23.4870 C   0  0  0  0  0  0  0  0  0  0  0  0
   12.9120   -2.2190   24.2840 C   0  0  0  0  0  0  0  0  0  0  0  0
   12.7850   -1.9350   21.9170 C   0  0  0  0  0  0  0  0  0  0  0  0
    6.6730   -3.2790   21.2330 N   0  0  0  0  0  0  0  0  0  0  0  0
    7.9980   -4.9320   27.6220 C   0  0  0  0  0  0  0  0  0  0  0  0
    7.5040   -4.5280   26.3450 O   0  0  0  0  0  0  0  0  0  0  0  0
    5.3150   -4.3200   19.7630 O   0  0  0  0  0  0  0  0  0  0  0  0
    6.3140   -3.6460   19.9730 C   0  0  0  0  0  0  0  0  0  0  0  0
    7.2430   -3.1760   18.8690 C   0  0  0  0  0  0  0  0  0  0  0  0
    7.7490   -2.3200   21.2690 C   0  0  0  0  0  0  0  0  0  0  0  0
    6.3540    0.0690   17.9660 N   0  0  0  0  0  0  0  0  0  0  0  0
    5.2140    0.8340   17.9760 C   0  0  0  0  0  0  0  0  0  0  0  0
    4.6290    1.3370   19.1230 C   0  0  0  0  0  0  0  0  0  0  0  0
    5.2870    1.0200   20.3060 C   0  0  0  0  0  0  0  0  0  0  0  0
    6.4410    0.2500   20.2880 C   0  0  0  0  0  0  0  0  0  0  0  0
    7.0970   -0.3100   19.1760 C   0  0  0  0  0  0  0  0  0  0  0  0
   10.1920   -1.1020   24.6710 N   0  0  0  0  0  0  0  0  0  0  0  0
    8.9030   -1.0590   24.2210 N   0  0  0  0  0  0  0  0  0  0  0  0
    8.6900   -1.1990   22.8590 C   0  0  0  0  0  0  0  0  0  0  0  0
   10.0200   -1.3410   22.4630 C   0  0  0  0  0  0  0  0  0  0  0  0
   10.8190   -1.2780   23.5410 C   0  0  0  0  0  0  0  0  0  0  0  0
    9.5240    3.4690   23.5270 C   0  0  0  0  0  0  0  0  0  0  0  0
   10.2420    4.6700   23.6590 C   0  0  0  0  0  0  0  0  0  0  0  0
    9.6260    5.8610   23.2220 C   0  0  0  0  0  0  0  0  0  0  0  0
    8.3410    5.8490   22.6710 C   0  0  0  0  0  0  0  0  0  0  0  0
    7.6400    4.6490   22.5470 C   0  0  0  0  0  0  0  0  0  0  0  0
    8.2350    3.4540   22.9830 C   0  0  0  0  0  0  0  0  0  0  0  0
    6.4590   -5.2360   25.7980 C   0  0  0  0  0  0  0  0  0  0  0  0
    6.1580   -5.0180   24.4440 C   0  0  0  0  0  0  0  0  0  0  0  0
    5.0980   -5.7410   23.8690 C   0  0  0  0  0  0  0  0  0  0  0  0
    4.3020   -6.6730   24.5640 C   0  0  0  0  0  0  0  0  0  0  0  0
    4.6150   -6.8630   25.9300 C   0  0  0  0  0  0  0  0  0  0  0  0
    5.6750   -6.1480   26.5020 C   0  0  0  0  0  0  0  0  0  0  0  0
    6.8160   -4.1230   23.5790 N   0  0  0  0  0  0  0  0  0  0  0  0
    6.2780   -4.1340   22.3780 C   0  0  0  0  0  0  0  0  0  0  0  0
    4.9980   -5.2390   22.1870 S   0  0  0  0  0  0  0  0  0  0  0  0
  1  4  1  0
  2  5  1  0
  3  5  2  0
  4  5  1  6
  6  7  1  0
  9 10  1  0
  9 11  1  0
  9 12  1  0
 14 15  1  0
 13 17  1  0
 16 17  2  0
 17 18  1  0
  1 19  1  0
 13 19  1  0
 20 21  2  0
 21 22  1  0
 22 23  2  0
  4 24  1  0
 23 24  1  0
 20 25  1  0
 24 25  2  0
 26 27  1  0
  1 28  1  0
 27 28  1  0
 28 29  2  0
  9 30  1  0
 26 30  2  0
 29 30  1  0
  6 31  1  0
 31 32  2  0
 32 33  1  0
 33 34  2  0
  8 35  1  0
 34 35  1  0
  2 36  1  0
 31 36  1  0
 35 36  2  0
 15 37  1  0
 37 38  2  0
 38 39  1  0
 39 40  2  0
 40 41  1  0
 37 42  1  0
 41 42  2  0
 38 43  1  0
 13 44  1  0
 43 44  2  0
 39 45  1  0
 44 45  1  0
M  END
