x1348-x3115
     RDKit          3D

 41 44  0  0  0  0  0  0  0  0999 V2000
    7.2820   -1.1810   21.6740 N   0  0  0  0  0  0  0  0  0  0  0  0
    7.8380    2.1070   22.9080 N   0  0  0  0  0  0  0  0  0  0  0  0
    9.0450    1.4180   21.0180 O   0  0  0  0  0  0  0  0  0  0  0  0
    7.7340    5.3570   22.4800 O   0  0  0  0  0  0  0  0  0  0  0  0
    6.9340    0.1440   21.5420 C   0  0  1  0  0  0  0  0  0  0  0  0
    7.9270    1.2290   21.8660 C   0  0  0  0  0  0  0  0  0  0  0  0
    8.5520    3.2800   22.6930 C   0  0  0  0  0  0  0  0  0  0  0  0
    7.8470    4.4550   23.3000 C   0  0  0  0  0  0  0  0  0  0  0  0
    8.6180    6.2080   22.5140 C   0  0  0  0  0  0  0  0  0  0  0  0
   12.2450   -2.0360   24.3610 C   0  0  0  0  0  0  0  0  0  0  0  0
   13.3990   -2.3770   23.3800 C   0  0  0  0  0  0  0  0  0  0  0  0
   12.1470   -3.0630   25.2410 C   0  0  0  0  0  0  0  0  0  0  0  0
   12.6680   -0.7620   25.0960 C   0  0  0  0  0  0  0  0  0  0  0  0
    6.6520   -3.4510   21.5100 N   0  0  0  0  0  0  0  0  0  0  0  0
    7.9460   -5.0380   27.6900 C   0  0  0  0  0  0  0  0  0  0  0  0
    7.3910   -4.6450   26.4340 O   0  0  0  0  0  0  0  0  0  0  0  0
    5.4300   -4.4870   19.8860 O   0  0  0  0  0  0  0  0  0  0  0  0
    6.3680   -3.7510   20.1840 C   0  0  0  0  0  0  0  0  0  0  0  0
    7.2240   -3.1440   19.1060 C   0  0  0  0  0  0  0  0  0  0  0  0
    6.2710   -2.1140   21.8710 C   0  0  0  0  0  0  0  0  0  0  0  0
    6.2440    0.3220   17.8520 N   0  0  0  0  0  0  0  0  0  0  0  0
    5.1690    1.1720   17.8990 C   0  0  0  0  0  0  0  0  0  0  0  0
    4.6390    1.6830   19.0650 C   0  0  0  0  0  0  0  0  0  0  0  0
    5.2720    1.2910   20.2250 C   0  0  0  0  0  0  0  0  0  0  0  0
    6.3570    0.4400   20.1560 C   0  0  0  0  0  0  0  0  0  0  0  0
    6.9740   -0.1500   19.0340 C   0  0  0  0  0  0  0  0  0  0  0  0
    9.7200   -1.2420   21.7570 C   0  0  0  0  0  0  0  0  0  0  0  0
   10.9620   -1.4350   22.3430 C   0  0  0  0  0  0  0  0  0  0  0  0
   10.9020   -1.8350   23.6560 C   0  0  0  0  0  0  0  0  0  0  0  0
    9.7400   -2.0580   24.3840 C   0  0  0  0  0  0  0  0  0  0  0  0
    8.5030   -1.8600   23.7580 C   0  0  0  0  0  0  0  0  0  0  0  0
    8.5030   -1.4350   22.4080 C   0  0  0  0  0  0  0  0  0  0  0  0
    6.3510   -5.3980   25.9310 C   0  0  0  0  0  0  0  0  0  0  0  0
    6.0360   -5.2460   24.5740 C   0  0  0  0  0  0  0  0  0  0  0  0
    5.0220   -5.9510   23.9400 C   0  0  0  0  0  0  0  0  0  0  0  0
    4.2840   -6.8400   24.6970 C   0  0  0  0  0  0  0  0  0  0  0  0
    4.5450   -7.0180   26.0520 C   0  0  0  0  0  0  0  0  0  0  0  0
    5.5810   -6.3040   26.6820 C   0  0  0  0  0  0  0  0  0  0  0  0
    6.7530   -4.3100   23.7220 N   0  0  0  0  0  0  0  0  0  0  0  0
    6.2160   -4.3590   22.5290 C   0  0  0  0  0  0  0  0  0  0  0  0
    4.9450   -5.4920   22.2950 S   0  0  0  0  0  0  0  0  0  0  0  0
  1  5  1  0
  2  6  1  0
  3  6  2  0
  5  6  1  6
  2  7  1  0
  4  8  1  0
  7  8  1  0
  4  9  1  0
 10 11  1  0
 10 12  1  0
 10 13  1  0
 15 16  1  0
 14 18  1  0
 17 18  2  0
 18 19  1  0
  1 20  1  0
 14 20  1  0
 21 22  2  0
 22 23  1  0
 23 24  2  0
  5 25  1  0
 24 25  1  0
 21 26  1  0
 25 26  2  0
 27 28  2  0
 10 29  1  0
 28 29  1  0
 29 30  2  0
 30 31  1  0
  1 32  1  0
 27 32  1  0
 31 32  2  0
 16 33  1  0
 33 34  2  0
 34 35  1  0
 35 36  2  0
 36 37  1  0
 33 38  1  0
 37 38  2  0
 34 39  1  0
 14 40  1  0
 39 40  2  0
 35 41  1  0
 40 41  1  0
M  END
