x1348-x2703
     RDKit          3D

 45 49  0  0  0  0  0  0  0  0999 V2000
    7.4500   -1.2440   21.6010 N   0  0  0  0  0  0  0  0  0  0  0  0
    7.5410    2.0920   22.8940 N   0  0  0  0  0  0  0  0  0  0  0  0
    8.9420    1.4980   21.0510 O   0  0  0  0  0  0  0  0  0  0  0  0
    6.9340    0.0330   21.5700 C   0  0  1  0  0  0  0  0  0  0  0  0
    7.8050    1.2230   21.8710 C   0  0  0  0  0  0  0  0  0  0  0  0
   10.1190    2.0760   24.0110 C   0  0  0  0  0  0  0  0  0  0  0  0
    9.1780    1.3710   24.9520 C   0  0  0  0  0  0  0  0  0  0  0  0
    6.1760    4.5720   21.8770 C   0  0  0  0  0  0  0  0  0  0  0  0
   12.1630   -1.6120   24.6920 C   0  0  0  0  0  0  0  0  0  0  0  0
   12.7030   -3.0170   25.0340 C   0  0  0  0  0  0  0  0  0  0  0  0
   13.1540   -1.0930   23.9400 C   0  0  0  0  0  0  0  0  0  0  0  0
    6.8270   -3.5280   21.5060 N   0  0  0  0  0  0  0  0  0  0  0  0
    7.8290   -5.4960   27.6310 C   0  0  0  0  0  0  0  0  0  0  0  0
    7.3080   -4.7290   26.5380 O   0  0  0  0  0  0  0  0  0  0  0  0
    5.4470   -4.4280   19.8860 O   0  0  0  0  0  0  0  0  0  0  0  0
    6.4450   -3.7690   20.1940 C   0  0  0  0  0  0  0  0  0  0  0  0
    7.3230   -3.1930   19.1310 C   0  0  0  0  0  0  0  0  0  0  0  0
    6.4930   -2.3150   21.9050 C   0  0  0  0  0  0  0  0  0  0  0  0
    6.3270    0.4210   17.7790 N   0  0  0  0  0  0  0  0  0  0  0  0
    5.1090    1.2500   17.7810 C   0  0  0  0  0  0  0  0  0  0  0  0
    4.5440    1.6040   18.9990 C   0  0  0  0  0  0  0  0  0  0  0  0
    5.1260    1.2000   20.1980 C   0  0  0  0  0  0  0  0  0  0  0  0
    6.2930    0.4240   20.2010 C   0  0  0  0  0  0  0  0  0  0  0  0
    6.9190    0.0040   19.0580 C   0  0  0  0  0  0  0  0  0  0  0  0
   11.0330   -1.2470   22.6120 N   0  0  0  0  0  0  0  0  0  0  0  0
   10.8830   -1.5890   23.9080 C   0  0  0  0  0  0  0  0  0  0  0  0
    9.6500   -1.8810   24.5170 C   0  0  0  0  0  0  0  0  0  0  0  0
    8.5080   -1.7790   23.7330 C   0  0  0  0  0  0  0  0  0  0  0  0
    8.6280   -1.3990   22.3970 C   0  0  0  0  0  0  0  0  0  0  0  0
    9.9020   -1.1610   21.9020 C   0  0  0  0  0  0  0  0  0  0  0  0
    9.4530    3.3770   23.5210 C   0  0  0  0  0  0  0  0  0  0  0  0
   10.1410    4.6100   23.6270 C   0  0  0  0  0  0  0  0  0  0  0  0
    9.5570    5.7980   23.1790 C   0  0  0  0  0  0  0  0  0  0  0  0
    8.2860    5.7180   22.6290 C   0  0  0  0  0  0  0  0  0  0  0  0
    7.5680    4.5300   22.5040 C   0  0  0  0  0  0  0  0  0  0  0  0
    8.1570    3.3420   22.9600 C   0  0  0  0  0  0  0  0  0  0  0  0
    6.2920   -5.4270   25.9070 C   0  0  0  0  0  0  0  0  0  0  0  0
    6.0620   -5.2490   24.5430 C   0  0  0  0  0  0  0  0  0  0  0  0
    5.0490   -5.9420   23.8550 C   0  0  0  0  0  0  0  0  0  0  0  0
    4.2600   -6.8300   24.6130 C   0  0  0  0  0  0  0  0  0  0  0  0
    4.4720   -7.0050   25.9820 C   0  0  0  0  0  0  0  0  0  0  0  0
    5.4890   -6.3070   26.6310 C   0  0  0  0  0  0  0  0  0  0  0  0
    6.7650   -4.3940   23.7310 N   0  0  0  0  0  0  0  0  0  0  0  0
    6.3000   -4.4210   22.5110 C   0  0  0  0  0  0  0  0  0  0  0  0
    5.0250   -5.5080   22.1980 S   0  0  0  0  0  0  0  0  0  0  0  0
  1  4  1  0
  2  5  1  0
  3  5  2  0
  4  5  1  6
  6  7  1  0
  9 10  1  0
  9 11  1  0
 13 14  1  0
 12 16  1  0
 15 16  2  0
 16 17  1  0
  1 18  1  0
 12 18  1  0
 19 20  2  0
 20 21  1  0
 21 22  2  0
  4 23  1  0
 22 23  1  0
 19 24  1  0
 23 24  2  0
  9 26  1  0
 25 26  2  0
 26 27  1  0
 27 28  2  0
  1 29  1  0
 28 29  1  0
 25 30  1  0
 29 30  2  0
  6 31  1  0
 31 32  2  0
 32 33  1  0
 33 34  2  0
  8 35  1  0
 34 35  1  0
  2 36  1  0
 31 36  1  0
 35 36  2  0
 14 37  1  0
 37 38  2  0
 38 39  1  0
 39 40  2  0
 40 41  1  0
 37 42  1  0
 41 42  2  0
 38 43  1  0
 12 44  1  0
 43 44  2  0
 39 45  1  0
 44 45  1  0
M  END
