x1348-x1425
     RDKit          3D

 24 26  0  0  0  0  0  0  0  0999 V2000
    6.4490   -3.2560   21.5070 N   0  0  0  0  0  0  0  0  0  0  0  0
    7.8880   -6.0070   27.4560 C   0  0  0  0  0  0  0  0  0  0  0  0
    7.6360   -5.4170   26.4050 O   0  0  0  0  0  0  0  0  0  0  0  0
    5.2890   -4.5300   19.9110 O   0  0  0  0  0  0  0  0  0  0  0  0
    6.1610   -3.7110   20.2110 C   0  0  0  0  0  0  0  0  0  0  0  0
    7.0440   -3.1260   19.1350 C   0  0  0  0  0  0  0  0  0  0  0  0
    6.3190   -5.2360   26.0890 C   0  0  0  0  0  0  0  0  0  0  0  0
    5.9060   -4.6290   24.6990 C   0  0  0  0  0  0  0  0  0  0  0  0
    4.5720   -4.4530   24.3900 C   0  0  0  0  0  0  0  0  0  0  0  0
    3.6230   -4.8910   25.4880 C   0  0  0  0  0  0  0  0  0  0  0  0
    3.6560   -5.4170   26.7300 C   0  0  0  0  0  0  0  0  0  0  0  0
    5.1530   -5.6270   27.1020 C   0  0  0  0  0  0  0  0  0  0  0  0
    6.6730   -4.3020   23.8760 N   0  0  0  0  0  0  0  0  0  0  0  0
    5.9370   -3.7810   22.7240 C   0  0  0  0  0  0  0  0  0  0  0  0
    4.2190   -3.7970   22.8720 S   0  0  0  0  0  0  0  0  0  0  0  0
    3.3620   -1.5550   30.4210 C   0  0  0  0  0  0  0  0  0  0  0  0
    4.5160   -2.3830   30.3500 O   0  0  0  0  0  0  0  0  0  0  0  0
    5.0200   -2.6690   29.0450 C   0  0  0  0  0  0  0  0  0  0  0  0
    5.9190   -1.7420   28.5740 C   0  0  0  0  0  0  0  0  0  0  0  0
    6.5210   -1.8520   27.3180 C   0  0  0  0  0  0  0  0  0  0  0  0
    6.1860   -2.9580   26.5070 C   0  0  0  0  0  0  0  0  0  0  0  0
    5.2560   -3.9220   26.9840 C   0  0  0  0  0  0  0  0  0  0  0  0
    4.6770   -3.7770   28.2510 C   0  0  0  0  0  0  0  0  0  0  0  0
    4.8720   -5.1370   26.1010 C   0  0  0  0  0  0  0  0  0  0  0  0
  2  3  1  0
  1  5  1  0
  4  5  2  0
  5  6  1  0
  3  7  1  0
  7  8  2  0
  8  9  1  0
  9 10  2  0
 10 11  1  0
  7 12  1  0
 11 12  2  0
  8 13  1  0
  1 14  1  0
 13 14  2  0
  9 15  1  0
 14 15  1  0
 16 17  1  0
 17 18  1  0
 18 19  2  0
 19 20  1  0
 20 21  2  0
 21 22  1  0
 18 23  1  0
 22 23  2  0
 10 24  1  0
 22 24  1  0
M  END
