x1348-x0749
     RDKit          3D

 26 29  0  0  0  0  0  0  0  0999 V2000
    6.8900   -3.8140   21.4050 N   0  0  0  0  0  0  0  0  0  0  0  0
    7.1120   -5.1200   28.0570 C   0  0  0  0  0  0  0  0  0  0  0  0
    6.9050   -4.7880   26.6500 N   0  0  0  0  0  0  0  0  0  0  0  0
    5.2920   -4.2800   19.8000 O   0  0  0  0  0  0  0  0  0  0  0  0
    6.3700   -3.7850   20.1150 C   0  0  0  0  0  0  0  0  0  0  0  0
    7.2540   -3.1370   19.0900 C   0  0  0  0  0  0  0  0  0  0  0  0
    5.9990   -5.4650   25.9360 C   0  0  0  0  0  0  0  0  0  0  0  0
    5.9030   -5.2880   24.4280 C   0  0  0  0  0  0  0  0  0  0  0  0
    4.9940   -5.9870   23.6660 C   0  0  0  0  0  0  0  0  0  0  0  0
    3.9960   -6.9970   24.2930 C   0  0  0  0  0  0  0  0  0  0  0  0
    4.0060   -7.2190   25.6720 C   0  0  0  0  0  0  0  0  0  0  0  0
    5.0150   -6.4580   26.5440 C   0  0  0  0  0  0  0  0  0  0  0  0
    6.6090   -4.5440   23.8790 N   0  0  0  0  0  0  0  0  0  0  0  0
    6.3040   -4.5660   22.4430 C   0  0  0  0  0  0  0  0  0  0  0  0
    5.0600   -5.6480   22.0020 S   0  0  0  0  0  0  0  0  0  0  0  0
    9.8810   -2.3510   23.9590 N   0  0  0  0  0  0  0  0  0  0  0  0
    9.5030   -3.5740   24.6480 C   0  0  0  0  0  0  0  0  0  0  0  0
   10.6560   -4.4150   25.5710 S   0  0  0  0  0  0  0  0  0  0  0  0
   11.7730   -3.2490   25.1650 C   0  0  0  0  0  0  0  0  0  0  0  0
   11.2680   -2.2630   24.3550 C   0  0  0  0  0  0  0  0  0  0  0  0
   11.9810   -1.1940   23.8900 C   0  0  0  0  0  0  0  0  0  0  0  0
   13.2970   -1.1800   24.3070 C   0  0  0  0  0  0  0  0  0  0  0  0
   13.8080   -2.2150   25.1480 C   0  0  0  0  0  0  0  0  0  0  0  0
   13.0630   -3.2290   25.5700 C   0  0  0  0  0  0  0  0  0  0  0  0
    8.0730   -4.8460   25.9050 C   0  0  0  0  0  0  0  0  0  0  0  0
    8.2320   -4.2010   24.6850 C   0  0  0  0  0  0  0  0  0  0  0  0
  2  3  1  0
  1  5  1  0
  4  5  2  0
  5  6  1  0
  3  7  1  0
  7  8  2  0
  8  9  1  0
  9 10  2  0
 10 11  1  0
  7 12  1  0
 11 12  2  0
  8 13  1  0
  1 14  1  0
 13 14  2  0
  9 15  1  0
 14 15  1  0
 16 17  2  0
 17 18  1  0
 18 19  1  0
 16 20  1  0
 19 20  2  0
 20 21  1  0
 21 22  2  0
 22 23  1  0
 19 24  1  0
 23 24  2  0
  3 25  1  0
 17 26  1  0
 25 26  1  0
M  END
