x1348-x0830
     RDKit          3D

 32 37  0  0  0  0  0  0  0  0999 V2000
    6.9820   -3.4170   21.1510 N   0  0  0  0  0  0  0  0  0  0  0  0
    8.2050   -5.3280   27.4310 C   0  0  0  0  0  0  0  0  0  0  0  0
    7.8390   -5.1100   26.0600 O   0  0  0  0  0  0  0  0  0  0  0  0
    5.3730   -4.3070   19.7770 O   0  0  0  0  0  0  0  0  0  0  0  0
    6.4270   -3.6990   19.9360 C   0  0  0  0  0  0  0  0  0  0  0  0
    7.3120   -3.1630   18.8400 C   0  0  0  0  0  0  0  0  0  0  0  0
    9.7840   -2.5100   23.8580 C   0  0  0  0  0  0  0  0  0  0  0  0
    6.7150   -5.4720   25.6910 C   0  0  0  0  0  0  0  0  0  0  0  0
    6.4650   -5.2360   24.3350 C   0  0  0  0  0  0  0  0  0  0  0  0
    5.2140   -5.5900   23.8260 C   0  0  0  0  0  0  0  0  0  0  0  0
    4.2170   -6.1980   24.6130 C   0  0  0  0  0  0  0  0  0  0  0  0
    4.5250   -6.4590   26.0950 C   0  0  0  0  0  0  0  0  0  0  0  0
    5.7840   -6.0640   26.5580 C   0  0  0  0  0  0  0  0  0  0  0  0
    7.3080   -4.6670   23.3230 N   0  0  0  0  0  0  0  0  0  0  0  0
    6.5300   -4.0070   22.4360 C   0  0  2  0  0  0  0  0  0  0  0  0
    5.1710   -5.1230   22.1250 S   0  0  0  0  0  0  0  0  0  0  0  0
    6.5560   -2.1690   21.6350 N   0  0  0  0  0  0  0  0  0  0  0  0
    6.3750   -2.7010   22.8640 C   0  0  2  0  0  0  0  0  0  0  0  0
    7.4430   -2.3850   23.7400 C   0  0  0  0  0  0  0  0  0  0  0  0
    8.6590   -2.4690   23.0510 N   0  0  0  0  0  0  0  0  0  0  0  0
    8.8670   -1.6850   21.9180 C   0  0  0  0  0  0  0  0  0  0  0  0
    7.6420   -1.2420   21.4800 C   0  0  0  0  0  0  0  0  0  0  0  0
   12.0170   -2.0120   22.7670 C   0  0  0  0  0  0  0  0  0  0  0  0
   13.1400   -1.0570   22.3600 C   0  0  0  0  0  0  0  0  0  0  0  0
   13.0140    0.2830   22.6700 C   0  0  0  0  0  0  0  0  0  0  0  0
   11.7580    0.6890   23.3790 C   0  0  0  0  0  0  0  0  0  0  0  0
   10.8000   -0.2080   23.7310 C   0  0  0  0  0  0  0  0  0  0  0  0
   10.8750   -1.5520   23.4540 C   0  0  0  0  0  0  0  0  0  0  0  0
   11.6000    2.1770   23.6810 C   0  0  0  0  0  0  0  0  0  0  0  0
   10.4380    2.5500   24.3340 C   0  0  0  0  0  0  0  0  0  0  0  0
    9.4420    1.6300   24.7300 C   0  0  0  0  0  0  0  0  0  0  0  0
    9.5740    0.2810   24.4600 C   0  0  0  0  0  0  0  0  0  0  0  0
  2  3  1  0
  1  5  1  0
  4  5  2  0
  5  6  1  0
  3  8  1  0
  8  9  2  0
  9 10  1  0
 10 11  2  0
 11 12  1  0
  8 13  1  0
 12 13  2  0
  9 14  1  0
  1 15  1  0
 15 14  1  1
 10 16  1  0
 15 16  1  0
  1 17  1  0
 15 18  1  0
 17 18  1  0
 18 19  1  1
  7 20  1  0
 19 20  1  0
 20 21  1  0
 17 22  1  0
 21 22  1  0
 23 24  2  0
 24 25  1  0
 25 26  2  0
 26 27  1  0
  7 28  1  0
 23 28  1  0
 27 28  2  0
 26 29  1  0
 29 30  2  0
 30 31  1  0
 27 32  1  0
 31 32  2  0
M  END
