x1348-x2193
     RDKit          3D

 30 33  0  0  0  0  0  0  0  0999 V2000
    7.0890   -3.6430   21.3600 N   0  0  0  0  0  0  0  0  0  0  0  0
    7.8320   -5.1370   27.9330 C   0  0  0  0  0  0  0  0  0  0  0  0
    5.4640   -4.1760   19.7880 O   0  0  0  0  0  0  0  0  0  0  0  0
    6.5660   -3.6950   20.0780 C   0  0  0  0  0  0  0  0  0  0  0  0
    7.5120   -3.1380   19.0480 C   0  0  0  0  0  0  0  0  0  0  0  0
   11.0390    2.5270   23.0290 C   0  0  0  0  0  0  0  0  0  0  0  0
    9.3110    1.7810   21.1370 O   0  0  0  0  0  0  0  0  0  0  0  0
    8.3080    2.7250   23.2160 O   0  0  0  0  0  0  0  0  0  0  0  0
    9.5040    1.9170   22.5480 S   0  0  0  0  0  0  0  0  0  0  0  0
    6.6080   -5.5630   25.8090 C   0  0  0  0  0  0  0  0  0  0  0  0
    6.3620   -5.2290   24.4840 C   0  0  0  0  0  0  0  0  0  0  0  0
    5.0790   -5.7090   23.8140 C   0  0  0  0  0  0  0  0  0  0  0  0
    4.1900   -6.4680   24.5730 C   0  0  0  0  0  0  0  0  0  0  0  0
    4.5440   -6.7760   26.0520 C   0  0  0  0  0  0  0  0  0  0  0  0
    5.7560   -6.3150   26.6470 C   0  0  0  0  0  0  0  0  0  0  0  0
    7.2040   -4.4900   23.7420 N   0  0  0  0  0  0  0  0  0  0  0  0
    6.5920   -4.3630   22.4630 C   0  0  0  0  0  0  0  0  0  0  0  0
    5.0680   -5.1480   22.1890 S   0  0  0  0  0  0  0  0  0  0  0  0
    9.3700    0.2840   23.2130 C   0  0  0  0  0  0  0  0  0  0  0  0
    8.9010   -0.0180   24.4680 C   0  0  0  0  0  0  0  0  0  0  0  0
    8.7750   -1.3090   24.9640 C   0  0  0  0  0  0  0  0  0  0  0  0
    9.1620   -2.3540   24.1220 C   0  0  0  0  0  0  0  0  0  0  0  0
    9.6580   -2.0840   22.8380 C   0  0  0  0  0  0  0  0  0  0  0  0
    9.7640   -0.7870   22.3770 C   0  0  0  0  0  0  0  0  0  0  0  0
    8.9580   -6.0620   25.9510 N   0  0  0  0  0  0  0  0  0  0  0  0
    7.9540   -5.0680   26.3870 C   0  0  2  0  0  0  0  0  0  0  0  0
    8.4690   -3.7770   26.1050 C   0  0  0  0  0  0  0  0  0  0  0  0
    8.9860   -3.7080   24.7230 N   0  0  0  0  0  0  0  0  0  0  0  0
    9.8140   -4.6580   24.3140 C   0  0  0  0  0  0  0  0  0  0  0  0
    9.2550   -5.8880   24.5880 C   0  0  0  0  0  0  0  0  0  0  0  0
  1  4  1  0
  3  4  2  0
  4  5  1  0
  9  6  1  0
  7  9  2  0
  8  9  2  0
 10 11  2  0
 11 12  1  0
 12 13  2  0
 13 14  1  0
 10 15  1  0
 14 15  2  0
 11 16  1  0
  1 17  1  0
 16 17  2  0
 12 18  1  0
 17 18  1  0
  9 19  1  0
 19 20  2  0
 20 21  1  0
 21 22  2  0
 22 23  1  0
 19 24  1  0
 23 24  2  0
 26  2  1  1
 10 26  1  0
 25 26  1  0
 26 27  1  0
 22 28  1  0
 27 28  1  0
 28 29  1  0
 25 30  1  0
 29 30  1  0
M  END
