x1348-x0678
     RDKit          3D

 33 36  0  0  0  0  0  0  0  0999 V2000
    7.0820   -3.7480   21.3900 N   0  0  0  0  0  0  0  0  0  0  0  0
    7.7960   -5.1640   27.6010 C   0  0  0  0  0  0  0  0  0  0  0  0
    7.4190   -4.6470   26.5460 O   0  0  0  0  0  0  0  0  0  0  0  0
    5.4390   -4.2580   19.8190 O   0  0  0  0  0  0  0  0  0  0  0  0
    6.5330   -3.7590   20.1100 C   0  0  0  0  0  0  0  0  0  0  0  0
    7.4240   -3.1490   19.0680 C   0  0  0  0  0  0  0  0  0  0  0  0
    9.2660    1.5980   21.3540 O   0  0  0  0  0  0  0  0  0  0  0  0
    8.6760    0.4110   21.8770 C   0  0  0  0  0  0  0  0  0  0  0  0
    9.1050   -0.1800   23.2360 C   0  0  0  0  0  0  0  0  0  0  0  0
    7.6620   -0.2640   21.2260 N   0  0  0  0  0  0  0  0  0  0  0  0
    7.9030   -2.6780   21.6990 C   0  0  0  0  0  0  0  0  0  0  0  0
    7.0480   -1.4140   21.9180 C   0  0  0  0  0  0  0  0  0  0  0  0
    6.3780   -5.3610   25.9650 C   0  0  0  0  0  0  0  0  0  0  0  0
    6.1020   -5.2680   24.4660 C   0  0  0  0  0  0  0  0  0  0  0  0
    5.1040   -5.9310   23.7950 C   0  0  0  0  0  0  0  0  0  0  0  0
    4.2980   -6.7430   24.5870 C   0  0  0  0  0  0  0  0  0  0  0  0
    4.4970   -6.8980   26.1200 C   0  0  0  0  0  0  0  0  0  0  0  0
    5.5390   -6.1920   26.7350 C   0  0  0  0  0  0  0  0  0  0  0  0
    6.9630   -4.4040   23.7010 N   0  0  0  0  0  0  0  0  0  0  0  0
    6.5160   -4.4720   22.4090 C   0  0  0  0  0  0  0  0  0  0  0  0
    5.1750   -5.5230   22.1260 S   0  0  0  0  0  0  0  0  0  0  0  0
   11.3270   -0.8310   22.2840 C   0  0  0  0  0  0  0  0  0  0  0  0
   12.4830   -1.6030   22.4640 C   0  0  0  0  0  0  0  0  0  0  0  0
   13.2000   -1.1520   23.5470 C   0  0  0  0  0  0  0  0  0  0  0  0
   12.4220   -1.0460   24.7020 C   0  0  0  0  0  0  0  0  0  0  0  0
   11.2290   -0.3120   24.5050 C   0  0  0  0  0  0  0  0  0  0  0  0
   10.5100   -0.7530   23.3900 C   0  0  0  0  0  0  0  0  0  0  0  0
    5.8570    1.1280   20.4110 C   0  0  0  0  0  0  0  0  0  0  0  0
    5.1070    1.6110   19.3580 C   0  0  0  0  0  0  0  0  0  0  0  0
    5.3680    1.2270   18.0510 C   0  0  0  0  0  0  0  0  0  0  0  0
    6.3910    0.3480   17.8240 N   0  0  0  0  0  0  0  0  0  0  0  0
    7.1360   -0.1420   18.8450 C   0  0  0  0  0  0  0  0  0  0  0  0
    6.8890    0.2400   20.1620 C   0  0  0  0  0  0  0  0  0  0  0  0
  2  3  1  0
  1  5  1  0
  4  5  2  0
  5  6  1  0
  7  8  2  0
  8  9  1  0
  8 10  1  0
  1 11  1  0
 10 12  1  0
 11 12  1  0
  3 13  1  0
 13 14  2  0
 14 15  1  0
 15 16  2  0
 16 17  1  0
 13 18  1  0
 17 18  2  0
 14 19  1  0
  1 20  1  0
 19 20  2  0
 15 21  1  0
 20 21  1  0
 22 23  1  0
 23 24  1  0
 24 25  1  0
 25 26  1  0
  9 27  1  0
 22 27  1  0
 26 27  1  0
 28 29  2  0
 29 30  1  0
 30 31  2  0
 31 32  1  0
 10 33  1  0
 28 33  1  0
 32 33  2  0
M  END
