x1348-x1384
     RDKit          3D

 23 25  0  0  0  0  0  0  0  0999 V2000
    6.7240   -3.8400   21.6230 N   0  0  0  0  0  0  0  0  0  0  0  0
    6.9740   -5.4730   27.7630 C   0  0  0  0  0  0  0  0  0  0  0  0
    6.2530   -4.8410   26.9860 O   0  0  0  0  0  0  0  0  0  0  0  0
    5.2960   -4.5350   19.9120 O   0  0  0  0  0  0  0  0  0  0  0  0
    6.2890   -3.9100   20.2880 C   0  0  0  0  0  0  0  0  0  0  0  0
    7.1420   -3.1880   19.2750 C   0  0  0  0  0  0  0  0  0  0  0  0
    5.4840   -5.5890   26.1260 C   0  0  0  0  0  0  0  0  0  0  0  0
    5.5350   -5.4140   24.5550 C   0  0  0  0  0  0  0  0  0  0  0  0
    4.7540   -6.1890   23.6210 C   0  0  0  0  0  0  0  0  0  0  0  0
    3.7500   -7.3020   24.0880 C   0  0  0  0  0  0  0  0  0  0  0  0
    3.8070   -7.3410   25.4340 C   0  0  0  0  0  0  0  0  0  0  0  0
    4.4930   -6.6880   26.5980 C   0  0  0  0  0  0  0  0  0  0  0  0
    6.2430   -4.6050   24.0720 N   0  0  0  0  0  0  0  0  0  0  0  0
    6.1060   -4.6300   22.6200 C   0  0  0  0  0  0  0  0  0  0  0  0
    5.0180   -5.7920   21.9960 S   0  0  0  0  0  0  0  0  0  0  0  0
    1.8550   -4.0050   26.8560 O   0  0  0  0  0  0  0  0  0  0  0  0
    1.6750   -5.9110   23.9830 C   0  0  0  0  0  0  0  0  0  0  0  0
    2.4550   -5.2860   24.9530 N   0  0  0  0  0  0  0  0  0  0  0  0
    1.8100   -4.2020   25.4500 C   0  0  1  0  0  0  0  0  0  0  0  0
    0.4810   -4.2010   25.1010 C   0  0  0  0  0  0  0  0  0  0  0  0
    0.2960   -5.2480   24.2030 C   0  0  0  0  0  0  0  0  0  0  0  0
    4.7100   -6.2400   24.8890 C   0  0  0  0  0  0  0  0  0  0  0  0
    3.7860   -5.1350   24.7360 C   0  0  0  0  0  0  0  0  0  0  0  0
  2  3  1  0
  1  5  1  0
  4  5  2  0
  5  6  1  0
  3  7  1  0
  7  8  2  0
  8  9  1  0
  9 10  2  0
 10 11  1  0
  7 12  1  0
 11 12  2  0
  8 13  1  0
  1 14  1  0
 13 14  2  0
  9 15  1  0
 14 15  1  0
 17 18  1  0
 19 16  1  1
 18 19  1  0
 19 20  1  0
 17 21  1  0
 20 21  1  0
 11 22  1  0
 18 23  1  0
 22 23  1  0
M  END
