x1348-x2912
     RDKit          3D

 37 40  0  0  0  0  0  0  0  0999 V2000
    6.9950   -0.1950   21.2870 N   0  0  0  0  0  0  0  0  0  0  0  0
    7.8720   -0.4880   23.8730 C   0  0  0  0  0  0  0  0  0  0  0  0
    8.8890    1.3480   21.2040 O   0  0  0  0  0  0  0  0  0  0  0  0
    8.7290   -0.5110   22.6190 C   0  0  1  0  0  0  0  0  0  0  0  0
    8.2250    0.2480   21.6880 C   0  0  0  0  0  0  0  0  0  0  0  0
   13.5390   -3.2780   20.6600 N   0  0  0  0  0  0  0  0  0  0  0  0
    4.8860    1.3960   21.6750 C   0  0  0  0  0  0  0  0  0  0  0  0
   13.0030   -2.2810   21.4280 C   0  0  0  0  0  0  0  0  0  0  0  0
    7.0090   -3.7790   21.3480 N   0  0  0  0  0  0  0  0  0  0  0  0
    7.8160   -5.2360   27.5720 C   0  0  0  0  0  0  0  0  0  0  0  0
    7.4110   -4.6890   26.5400 O   0  0  0  0  0  0  0  0  0  0  0  0
    5.3680   -4.3240   19.8230 O   0  0  0  0  0  0  0  0  0  0  0  0
    6.4530   -3.8050   20.0820 C   0  0  0  0  0  0  0  0  0  0  0  0
    7.3020   -3.1830   19.0220 C   0  0  0  0  0  0  0  0  0  0  0  0
    6.4580   -1.4870   21.6280 C   0  0  0  0  0  0  0  0  0  0  0  0
    7.4650   -2.4460   21.6470 C   0  0  0  0  0  0  0  0  0  0  0  0
    6.2870    0.6340   17.6070 N   0  0  0  0  0  0  0  0  0  0  0  0
    5.1420    1.5190   17.8240 C   0  0  0  0  0  0  0  0  0  0  0  0
    4.7030    1.7360   19.2750 C   0  0  0  0  0  0  0  0  0  0  0  0
    5.3450    1.1480   20.3400 C   0  0  0  0  0  0  0  0  0  0  0  0
    6.4530    0.3060   20.1280 C   0  0  0  0  0  0  0  0  0  0  0  0
    6.9290    0.0300   18.8410 C   0  0  0  0  0  0  0  0  0  0  0  0
   10.8640    0.6870   23.6840 C   0  0  0  0  0  0  0  0  0  0  0  0
   12.2200    0.6650   23.7320 C   0  0  0  0  0  0  0  0  0  0  0  0
   12.9710   -0.2660   23.0300 C   0  0  0  0  0  0  0  0  0  0  0  0
   12.3460   -1.2370   22.2340 C   0  0  0  0  0  0  0  0  0  0  0  0
   10.9700   -1.2750   22.1420 C   0  0  0  0  0  0  0  0  0  0  0  0
   10.1830   -0.3610   22.8240 C   0  0  0  0  0  0  0  0  0  0  0  0
    6.3660   -5.3970   25.9640 C   0  0  0  0  0  0  0  0  0  0  0  0
    6.0990   -5.3110   24.5860 C   0  0  0  0  0  0  0  0  0  0  0  0
    5.0610   -5.9960   23.9210 C   0  0  0  0  0  0  0  0  0  0  0  0
    4.2620   -6.8000   24.7110 C   0  0  0  0  0  0  0  0  0  0  0  0
    4.4890   -6.9070   26.0800 C   0  0  0  0  0  0  0  0  0  0  0  0
    5.5290   -6.2240   26.7420 C   0  0  0  0  0  0  0  0  0  0  0  0
    6.9120   -4.4750   23.7730 N   0  0  0  0  0  0  0  0  0  0  0  0
    6.4460   -4.5280   22.4100 C   0  0  0  0  0  0  0  0  0  0  0  0
    5.0310   -5.6520   22.2120 S   0  0  0  0  0  0  0  0  0  0  0  0
  4  2  1  1
  1  5  1  0
  3  5  2  0
  4  5  1  0
  6  8  3  0
 10 11  1  0
  9 13  1  0
 12 13  2  0
 13 14  1  0
  1 15  1  0
  9 16  1  0
 15 16  1  0
 17 18  2  0
 18 19  1  0
  7 20  1  0
 19 20  2  0
  1 21  1  0
 20 21  1  0
 17 22  1  0
 21 22  2  0
 23 24  2  0
 24 25  1  0
  8 26  1  0
 25 26  2  0
 26 27  1  0
  4 28  1  0
 23 28  1  0
 27 28  2  0
 11 29  1  0
 29 30  2  0
 30 31  1  0
 31 32  2  0
 32 33  1  0
 29 34  1  0
 33 34  2  0
 30 35  1  0
  9 36  1  0
 35 36  2  0
 31 37  1  0
 36 37  1  0
M  END
