x1348-x2779
     RDKit          3D

 27 31  0  0  0  0  0  0  0  0999 V2000
    6.9680   -3.5280   21.2330 N   0  0  0  0  0  0  0  0  0  0  0  0
    7.9460   -5.1260   27.3260 C   0  0  0  0  0  0  0  0  0  0  0  0
    7.8260   -5.1670   26.0940 O   0  0  0  0  0  0  0  0  0  0  0  0
    5.3750   -4.3690   19.8130 O   0  0  0  0  0  0  0  0  0  0  0  0
    6.4200   -3.7590   20.0090 C   0  0  0  0  0  0  0  0  0  0  0  0
    7.2630   -3.1780   18.9210 C   0  0  0  0  0  0  0  0  0  0  0  0
   10.0260   -2.5130   23.8350 C   0  0  0  0  0  0  0  0  0  0  0  0
    6.7140   -5.5170   25.6720 C   0  0  0  0  0  0  0  0  0  0  0  0
    6.4840   -5.3580   24.3060 C   0  0  0  0  0  0  0  0  0  0  0  0
    5.1510   -5.7340   23.7220 C   0  0  0  0  0  0  0  0  0  0  0  0
    4.1760   -6.2690   24.5610 C   0  0  0  0  0  0  0  0  0  0  0  0
    4.5120   -6.4320   26.0660 C   0  0  0  0  0  0  0  0  0  0  0  0
    5.7780   -6.0450   26.6000 C   0  0  0  0  0  0  0  0  0  0  0  0
    7.3850   -4.8740   23.3970 N   0  0  0  0  0  0  0  0  0  0  0  0
    6.5950   -4.1980   22.4160 C   0  0  2  0  0  0  0  0  0  0  0  0
    5.2400   -5.3500   22.0650 S   0  0  0  0  0  0  0  0  0  0  0  0
    6.5600   -2.2940   21.6760 N   0  0  0  0  0  0  0  0  0  0  0  0
    7.5630   -1.4190   21.4940 C   0  0  0  0  0  0  0  0  0  0  0  0
    8.7840   -1.8800   21.9190 C   0  0  0  0  0  0  0  0  0  0  0  0
    8.7700   -2.0100   23.2830 N   0  0  0  0  0  0  0  0  0  0  0  0
    7.6200   -2.5760   23.8020 C   0  0  0  0  0  0  0  0  0  0  0  0
    6.5540   -2.8610   22.9230 C   0  0  2  0  0  0  0  0  0  0  0  0
   12.2000   -1.4980   22.7500 C   0  0  0  0  0  0  0  0  0  0  0  0
   11.0960   -1.4780   23.5900 C   0  0  0  0  0  0  0  0  0  0  0  0
   10.9820    0.0080   24.4580 S   0  0  0  0  0  0  0  0  0  0  0  0
   12.3800    0.6430   23.7190 C   0  0  0  0  0  0  0  0  0  0  0  0
   12.9680   -0.2390   22.8220 C   0  0  0  0  0  0  0  0  0  0  0  0
  2  3  1  0
  1  5  1  0
  4  5  2  0
  5  6  1  0
  3  8  1  0
  8  9  2  0
  9 10  1  0
 10 11  2  0
 11 12  1  0
  8 13  1  0
 12 13  2  0
  9 14  1  0
  1 15  1  0
 15 14  1  1
 10 16  1  0
 15 16  1  0
  1 17  1  0
 17 18  1  0
 18 19  1  0
  7 20  1  0
 19 20  1  0
 20 21  1  0
 15 22  1  0
 17 22  1  0
 22 21  1  1
  7 24  1  0
 23 24  2  0
 24 25  1  0
 25 26  1  0
 23 27  1  0
 26 27  2  0
M  END
