x1348-x1382
     RDKit          3D

 26 29  0  0  0  0  0  0  0  0999 V2000
    7.7650   -3.4000   21.4330 C   0  0  0  0  0  0  0  0  0  0  0  0
    7.5640   -5.5650   27.6460 C   0  0  0  0  0  0  0  0  0  0  0  0
    7.1800   -4.8700   26.6930 O   0  0  0  0  0  0  0  0  0  0  0  0
    5.7890   -4.2390   19.9280 O   0  0  0  0  0  0  0  0  0  0  0  0
    6.8800   -3.6410   20.1460 C   0  0  0  0  0  0  0  0  0  0  0  0
    7.6190   -3.0930   19.0820 C   0  0  0  0  0  0  0  0  0  0  0  0
   13.2100   -2.2660   21.3950 Cl  0  0  0  0  0  0  0  0  0  0  0  0
    7.1680   -1.3310   22.7160 C   0  0  0  0  0  0  0  0  0  0  0  0
    8.1560   -2.2740   22.4280 C   0  0  2  0  0  0  0  0  0  0  0  0
    7.6050   -2.2300   20.3790 C   0  0  0  0  0  0  0  0  0  0  0  0
    7.5080   -1.0170   20.5220 O   0  0  0  0  0  0  0  0  0  0  0  0
    6.2260   -5.4300   25.8740 C   0  0  0  0  0  0  0  0  0  0  0  0
    6.2190   -5.1370   24.3520 C   0  0  0  0  0  0  0  0  0  0  0  0
    5.2430   -5.7180   23.5070 C   0  0  0  0  0  0  0  0  0  0  0  0
    4.2990   -6.5570   24.1180 C   0  0  0  0  0  0  0  0  0  0  0  0
    4.3130   -6.8350   25.6290 C   0  0  0  0  0  0  0  0  0  0  0  0
    5.2630   -6.2740   26.4540 C   0  0  0  0  0  0  0  0  0  0  0  0
    7.1150   -4.3200   23.6820 N   0  0  0  0  0  0  0  0  0  0  0  0
    6.8200   -4.2780   22.3250 C   0  0  0  0  0  0  0  0  0  0  0  0
    5.4670   -5.2270   21.8600 S   0  0  0  0  0  0  0  0  0  0  0  0
    9.5150   -1.5170   22.4490 C   0  0  0  0  0  0  0  0  0  0  0  0
   10.6930   -2.0820   21.9780 C   0  0  0  0  0  0  0  0  0  0  0  0
   11.8940   -1.4310   22.0210 C   0  0  0  0  0  0  0  0  0  0  0  0
   12.0260   -0.1440   22.5410 C   0  0  0  0  0  0  0  0  0  0  0  0
   10.8510    0.4640   23.0040 C   0  0  0  0  0  0  0  0  0  0  0  0
    9.6290   -0.2140   22.9620 C   0  0  0  0  0  0  0  0  0  0  0  0
  2  3  1  0
  1  5  1  0
  4  5  2  0
  5  6  1  0
  1  9  1  0
  9  8  1  6
  1 10  1  0
  6 10  1  0
 10 11  2  0
  3 12  1  0
 12 13  2  0
 13 14  1  0
 14 15  2  0
 15 16  1  0
 12 17  1  0
 16 17  2  0
 13 18  1  0
  1 19  1  0
 18 19  2  0
 14 20  1  0
 19 20  1  0
  9 21  1  0
 21 22  2  0
  7 23  1  0
 22 23  1  0
 23 24  2  0
 24 25  1  0
 21 26  1  0
 25 26  2  0
M  END
