x1348-x2097
     RDKit          3D

 20 22  0  0  0  0  0  0  0  0999 V2000
    8.0880   -5.1980   27.5730 C   0  0  0  0  0  0  0  0  0  0  0  0
    7.5250   -4.6560   26.6180 O   0  0  0  0  0  0  0  0  0  0  0  0
    5.4160   -4.4840   19.8620 O   0  0  0  0  0  0  0  0  0  0  0  0
    6.3030   -3.6850   20.1230 C   0  0  0  0  0  0  0  0  0  0  0  0
    7.2630   -3.1540   19.0810 C   0  0  0  0  0  0  0  0  0  0  0  0
    6.4900   -5.3290   26.0100 C   0  0  0  0  0  0  0  0  0  0  0  0
    6.1110   -5.0730   24.5640 C   0  0  0  0  0  0  0  0  0  0  0  0
    5.0970   -5.7240   23.9140 C   0  0  0  0  0  0  0  0  0  0  0  0
    4.2200   -6.7900   24.6030 C   0  0  0  0  0  0  0  0  0  0  0  0
    4.4500   -7.1050   25.9370 C   0  0  0  0  0  0  0  0  0  0  0  0
    5.5970   -6.3870   26.6890 C   0  0  0  0  0  0  0  0  0  0  0  0
    6.8080   -4.0860   23.7770 N   0  0  0  0  0  0  0  0  0  0  0  0
    6.1550   -4.0840   22.5180 C   0  0  0  0  0  0  0  0  0  0  0  0
    4.8850   -5.2390   22.2970 S   0  0  0  0  0  0  0  0  0  0  0  0
    6.4950   -3.1490   21.5340 C   0  0  1  0  0  0  0  0  0  0  0  0
    7.6310   -2.5150   21.6310 N   0  0  0  0  0  0  0  0  0  0  0  0
    7.7000   -2.1000   22.9890 C   0  0  0  0  0  0  0  0  0  0  0  0
    6.5730   -1.5630   23.5900 C   0  0  0  0  0  0  0  0  0  0  0  0
    5.4180   -1.4470   22.8150 C   0  0  0  0  0  0  0  0  0  0  0  0
    5.4300   -2.3230   21.6760 N   0  0  0  0  0  0  0  0  0  0  0  0
  1  2  1  0
  3  4  2  0
  4  5  1  0
  2  6  1  0
  6  7  2  0
  7  8  1  0
  8  9  2  0
  9 10  1  0
  6 11  1  0
 10 11  2  0
  7 12  1  0
 12 13  2  0
  8 14  1  0
 13 14  1  0
 15  4  1  6
 13 15  1  0
 15 16  1  0
 16 17  1  0
 17 18  2  0
 18 19  1  0
 15 20  1  0
 19 20  2  0
M  END
