x1348-x3113-x2052
     RDKit          3D

 57 62  0  0  0  0  0  0  0  0999 V2000
    8.5140    0.8730   23.2030 N   0  0  0  0  0  0  0  0  0  0  0  0
    8.8390    1.8170   20.9580 O   0  0  0  0  0  0  0  0  0  0  0  0
   11.7200    3.9430   23.4510 O   0  0  0  0  0  0  0  0  0  0  0  0
    7.6550   -0.5390   21.1630 C   0  0  2  0  0  0  0  0  0  0  0  0
    8.3550    0.7470   21.7690 C   0  0  0  0  0  0  0  0  0  0  0  0
    9.2670    2.0530   23.7150 C   0  0  0  0  0  0  0  0  0  0  0  0
   10.6580    1.8820   23.5770 C   0  0  0  0  0  0  0  0  0  0  0  0
   11.4230    2.9630   22.7860 C   0  0  0  0  0  0  0  0  0  0  0  0
   12.7090    4.5230   22.9810 C   0  0  0  0  0  0  0  0  0  0  0  0
   12.6900   -2.1790   24.3080 C   0  0  0  0  0  0  0  0  0  0  0  0
   13.5440   -2.4250   23.2480 C   0  0  0  0  0  0  0  0  0  0  0  0
   13.0710   -3.0850   25.4850 C   0  0  0  0  0  0  0  0  0  0  0  0
   12.8710   -0.7440   24.8010 C   0  0  0  0  0  0  0  0  0  0  0  0
    5.0990   -1.2610   25.0320 C   0  0  0  0  0  0  0  0  0  0  0  0
    3.9180   -1.1730   25.3040 O   0  0  0  0  0  0  0  0  0  0  0  0
    6.1530   -1.0540   26.0310 N   0  0  0  0  0  0  0  0  0  0  0  0
    6.1210   -4.7850   20.0460 O   0  0  0  0  0  0  0  0  0  0  0  0
    5.5280    2.0380   30.6420 O   0  0  0  0  0  0  0  0  0  0  0  0
    6.8630   -3.8080   20.3550 C   0  0  0  0  0  0  0  0  0  0  0  0
    7.6600   -3.2130   19.2320 C   0  0  0  0  0  0  0  0  0  0  0  0
    6.2130    3.2900   30.6740 C   0  0  0  0  0  0  0  0  0  0  0  0
    8.1550   -4.5650   27.2000 C   0  0  0  0  0  0  0  0  0  0  0  0
    7.4480   -4.0470   26.0670 O   0  0  0  0  0  0  0  0  0  0  0  0
    4.5250   -3.3910   21.0870 O   0  0  0  0  0  0  0  0  0  0  0  0
    5.5840   -2.8750   20.8850 C   0  0  0  0  0  0  0  0  0  0  0  0
    5.7830   -2.1130   19.7990 C   0  0  0  0  0  0  0  0  0  0  0  0
    6.2360    0.3240   17.7680 N   0  0  0  0  0  0  0  0  0  0  0  0
    5.1380    1.0270   18.0910 C   0  0  0  0  0  0  0  0  0  0  0  0
    4.6860    1.3060   19.5510 C   0  0  0  0  0  0  0  0  0  0  0  0
    5.5640    0.7460   20.4740 C   0  0  0  0  0  0  0  0  0  0  0  0
    6.7060    0.0240   20.1070 C   0  0  0  0  0  0  0  0  0  0  0  0
    6.9800   -0.1540   18.7760 C   0  0  0  0  0  0  0  0  0  0  0  0
    9.8580   -1.6480   21.9830 C   0  0  0  0  0  0  0  0  0  0  0  0
   11.1500   -1.6990   22.4620 C   0  0  0  0  0  0  0  0  0  0  0  0
   11.3230   -2.1620   23.7700 C   0  0  0  0  0  0  0  0  0  0  0  0
   10.2730   -2.5750   24.5540 C   0  0  0  0  0  0  0  0  0  0  0  0
    9.0050   -2.5050   24.0300 C   0  0  0  0  0  0  0  0  0  0  0  0
    8.7680   -2.0390   22.7510 C   0  0  0  0  0  0  0  0  0  0  0  0
    6.7520   -3.1700   21.7880 C   0  0  0  0  0  0  0  0  0  0  0  0
    7.3960   -1.9150   22.2110 C   0  0  2  0  0  0  0  0  0  0  0  0
    6.7870   -1.2640   23.2910 C   0  0  0  0  0  0  0  0  0  0  0  0
    5.4890   -1.6070   23.5780 C   0  0  1  0  0  0  0  0  0  0  0  0
    5.0270   -2.9030   23.3660 C   0  0  0  0  0  0  0  0  0  0  0  0
    5.9400   -3.7890   22.8290 C   0  0  2  0  0  0  0  0  0  0  0  0
    6.2260    1.9580   28.3920 N   0  0  0  0  0  0  0  0  0  0  0  0
    6.3680    1.1220   27.2110 C   0  0  0  0  0  0  0  0  0  0  0  0
    6.0220   -0.2120   27.1620 C   0  0  0  0  0  0  0  0  0  0  0  0
    5.4990   -0.7860   28.3250 C   0  0  0  0  0  0  0  0  0  0  0  0
    5.3430   -0.0100   29.4810 C   0  0  0  0  0  0  0  0  0  0  0  0
    5.7150    1.3440   29.4690 C   0  0  0  0  0  0  0  0  0  0  0  0
    6.5070   -4.8840   25.5800 C   0  0  0  0  0  0  0  0  0  0  0  0
    5.9550   -4.6960   24.1480 C   0  0  0  0  0  0  0  0  0  0  0  0
    5.0110   -5.6590   23.7170 C   0  0  0  0  0  0  0  0  0  0  0  0
    4.5040   -6.6860   24.5220 C   0  0  0  0  0  0  0  0  0  0  0  0
    4.9740   -6.7930   25.8240 C   0  0  0  0  0  0  0  0  0  0  0  0
    5.9610   -5.9330   26.3350 C   0  0  0  0  0  0  0  0  0  0  0  0
    4.8410   -5.1190   22.1490 S   0  0  0  0  0  0  0  0  0  0  0  0
  1  5  1  0
  2  5  2  0
  4  5  1  1
  1  6  1  0
  6  7  1  0
  3  8  1  0
  7  8  1  0
  3  9  1  0
 10 11  1  0
 10 12  1  0
 10 13  1  0
 14 15  2  0
 14 16  1  0
 17 19  2  0
 19 20  1  0
 18 21  1  0
 22 23  1  0
 24 25  2  0
 25 26  1  0
 27 28  2  0
 28 29  1  0
 29 30  2  0
  4 31  1  0
 30 31  1  0
 27 32  1  0
 31 32  2  0
 33 34  2  0
 10 35  1  0
 34 35  1  0
 35 36  2  0
 36 37  1  0
 33 38  1  0
 37 38  2  0
 39 19  1  0
 25 39  1  0
  4 40  1  0
 40 38  1  1
 39 40  1  0
 40 41  1  0
 42 14  1  1
 41 42  1  0
 42 43  1  0
 39 44  1  0
 44 43  1  1
 45 46  2  0
 16 47  1  0
 46 47  1  0
 47 48  2  0
 48 49  1  0
 18 50  1  0
 45 50  1  0
 49 50  2  0
 23 51  1  0
 44 52  1  0
 51 52  2  0
 52 53  1  0
 53 54  2  0
 54 55  1  0
 51 56  1  0
 55 56  2  0
 44 57  1  0
 53 57  1  0
M  END
