x1348-x3117
     RDKit          3D

 43 47  0  0  0  0  0  0  0  0999 V2000
    7.3120   -1.0760   21.9690 N   0  0  0  0  0  0  0  0  0  0  0  0
    7.9100    2.2340   23.0400 N   0  0  0  0  0  0  0  0  0  0  0  0
    8.9830    1.5500   21.0120 O   0  0  0  0  0  0  0  0  0  0  0  0
    6.9460    0.2420   21.7650 C   0  0  1  0  0  0  0  0  0  0  0  0
    7.9490    1.3590   21.9730 C   0  0  0  0  0  0  0  0  0  0  0  0
   12.5260   -1.7940   24.3510 C   0  0  0  0  0  0  0  0  0  0  0  0
   12.6470   -0.5760   25.1760 C   0  0  0  0  0  0  0  0  0  0  0  0
   13.3570   -1.9660   23.2500 C   0  0  0  0  0  0  0  0  0  0  0  0
   12.8020   -3.0650   25.2180 C   0  0  0  0  0  0  0  0  0  0  0  0
    6.7480   -3.5380   21.5250 N   0  0  0  0  0  0  0  0  0  0  0  0
    7.8620   -5.1350   27.6710 C   0  0  0  0  0  0  0  0  0  0  0  0
    7.4370   -4.5760   26.4210 O   0  0  0  0  0  0  0  0  0  0  0  0
    5.4340   -4.4550   19.8830 O   0  0  0  0  0  0  0  0  0  0  0  0
    6.4130   -3.7770   20.2000 C   0  0  0  0  0  0  0  0  0  0  0  0
    7.2940   -3.1850   19.1450 C   0  0  0  0  0  0  0  0  0  0  0  0
    6.4430   -2.1560   21.8520 C   0  0  0  0  0  0  0  0  0  0  0  0
    6.3540    0.2670   17.8600 N   0  0  0  0  0  0  0  0  0  0  0  0
    5.1870    1.1610   17.8430 C   0  0  0  0  0  0  0  0  0  0  0  0
    4.6270    1.7110   19.1450 C   0  0  0  0  0  0  0  0  0  0  0  0
    5.2100    1.3870   20.3310 C   0  0  0  0  0  0  0  0  0  0  0  0
    6.3320    0.5430   20.3950 C   0  0  0  0  0  0  0  0  0  0  0  0
    6.9310   -0.0350   19.2510 C   0  0  0  0  0  0  0  0  0  0  0  0
    9.7940    5.1720   24.2140 O   0  0  0  0  0  0  0  0  0  0  0  0
   10.1400    3.7860   24.1480 C   0  0  0  0  0  0  0  0  0  0  0  0
    9.8430    3.1850   22.9470 C   0  0  0  0  0  0  0  0  0  0  0  0
    8.5230    3.4420   22.5570 C   0  0  0  0  0  0  0  0  0  0  0  0
    8.0090    4.6760   23.0050 C   0  0  0  0  0  0  0  0  0  0  0  0
    9.0720    5.5810   23.1220 C   0  0  0  0  0  0  0  0  0  0  0  0
    9.6230   -1.8000   21.8690 C   0  0  0  0  0  0  0  0  0  0  0  0
   10.8830   -1.9820   22.4170 C   0  0  0  0  0  0  0  0  0  0  0  0
   11.1330   -1.6500   23.7500 C   0  0  0  0  0  0  0  0  0  0  0  0
   10.0540   -1.1510   24.5030 C   0  0  0  0  0  0  0  0  0  0  0  0
    8.7910   -0.9710   23.9350 C   0  0  0  0  0  0  0  0  0  0  0  0
    8.5800   -1.2880   22.5960 C   0  0  0  0  0  0  0  0  0  0  0  0
    6.4030   -5.3150   25.8620 C   0  0  0  0  0  0  0  0  0  0  0  0
    6.0300   -5.2490   24.5130 C   0  0  0  0  0  0  0  0  0  0  0  0
    5.0200   -5.9630   23.9080 C   0  0  0  0  0  0  0  0  0  0  0  0
    4.2850   -6.8290   24.6900 C   0  0  0  0  0  0  0  0  0  0  0  0
    4.5170   -7.0050   26.0560 C   0  0  0  0  0  0  0  0  0  0  0  0
    5.5570   -6.2910   26.7230 C   0  0  0  0  0  0  0  0  0  0  0  0
    6.7320   -4.3910   23.7510 N   0  0  0  0  0  0  0  0  0  0  0  0
    6.2460   -4.4240   22.5340 C   0  0  0  0  0  0  0  0  0  0  0  0
    4.9680   -5.5300   22.2530 S   0  0  0  0  0  0  0  0  0  0  0  0
  1  4  1  0
  2  5  1  0
  3  5  2  0
  4  5  1  6
  6  7  1  0
  6  8  1  0
  6  9  1  0
 11 12  1  0
 10 14  1  0
 13 14  2  0
 14 15  1  0
  1 16  1  0
 10 16  1  0
 17 18  2  0
 18 19  1  0
 19 20  2  0
  4 21  1  0
 20 21  1  0
 17 22  1  0
 21 22  2  0
 23 24  1  0
 24 25  1  0
  2 26  1  0
 25 26  1  0
 26 27  1  0
 23 28  1  0
 27 28  1  0
 29 30  2  0
  6 31  1  0
 30 31  1  0
 31 32  2  0
 32 33  1  0
  1 34  1  0
 29 34  1  0
 33 34  2  0
 12 35  1  0
 35 36  2  0
 36 37  1  0
 37 38  2  0
 38 39  1  0
 35 40  1  0
 39 40  2  0
 36 41  1  0
 10 42  1  0
 41 42  2  0
 37 43  1  0
 42 43  1  0
M  END
