x1348-x2776
     RDKit          3D

 46 50  0  0  0  0  0  0  0  0999 V2000
    7.2990   -1.0920   21.6760 N   0  0  0  0  0  0  0  0  0  0  0  0
    7.8570    2.1740   22.9500 N   0  0  0  0  0  0  0  0  0  0  0  0
    9.0980    1.5120   21.0500 O   0  0  0  0  0  0  0  0  0  0  0  0
   10.9920    6.7790   23.9820 O   0  0  0  0  0  0  0  0  0  0  0  0
    6.9660    0.2530   21.5620 C   0  0  1  0  0  0  0  0  0  0  0  0
   12.6720   -2.8610   24.4350 O   0  0  0  0  0  0  0  0  0  0  0  0
    7.9710    1.3230   21.8870 C   0  0  0  0  0  0  0  0  0  0  0  0
   10.5900    1.8380   23.8290 C   0  0  0  0  0  0  0  0  0  0  0  0
   11.8160    6.6000   24.8790 C   0  0  0  0  0  0  0  0  0  0  0  0
   12.3420   -1.6830   24.3910 C   0  0  1  0  0  0  0  0  0  0  0  0
   13.0990   -0.8740   23.5590 C   0  0  0  0  0  0  0  0  0  0  0  0
   13.2530   -3.2210   25.6750 C   0  0  0  0  0  0  0  0  0  0  0  0
    6.7100   -3.3520   21.4750 N   0  0  0  0  0  0  0  0  0  0  0  0
    7.8740   -5.1600   27.7000 C   0  0  0  0  0  0  0  0  0  0  0  0
    7.4230   -4.5660   26.4760 O   0  0  0  0  0  0  0  0  0  0  0  0
    5.4550   -4.4390   19.8800 O   0  0  0  0  0  0  0  0  0  0  0  0
    6.4100   -3.7110   20.1680 C   0  0  0  0  0  0  0  0  0  0  0  0
    7.3020   -3.1640   19.0890 C   0  0  0  0  0  0  0  0  0  0  0  0
    6.3400   -2.1060   21.7720 C   0  0  0  0  0  0  0  0  0  0  0  0
    6.3250    0.3820   17.8230 N   0  0  0  0  0  0  0  0  0  0  0  0
    5.2250    1.1610   17.8430 C   0  0  0  0  0  0  0  0  0  0  0  0
    4.6350    1.6610   18.9780 C   0  0  0  0  0  0  0  0  0  0  0  0
    5.2070    1.3560   20.2110 C   0  0  0  0  0  0  0  0  0  0  0  0
    6.3520    0.5510   20.1950 C   0  0  0  0  0  0  0  0  0  0  0  0
    6.8940    0.0680   19.0030 C   0  0  0  0  0  0  0  0  0  0  0  0
    9.9210    3.2200   23.6140 C   0  0  0  0  0  0  0  0  0  0  0  0
   10.6650    4.3790   23.8550 C   0  0  0  0  0  0  0  0  0  0  0  0
   10.1350    5.6800   23.6900 C   0  0  0  0  0  0  0  0  0  0  0  0
    8.8120    5.7560   23.2540 C   0  0  0  0  0  0  0  0  0  0  0  0
    8.0400    4.6210   23.0010 C   0  0  0  0  0  0  0  0  0  0  0  0
    8.5840    3.3440   23.1830 C   0  0  0  0  0  0  0  0  0  0  0  0
    9.7190   -1.2040   21.7760 C   0  0  0  0  0  0  0  0  0  0  0  0
   10.9380   -1.3510   22.4170 C   0  0  0  0  0  0  0  0  0  0  0  0
   10.9810   -1.5690   23.7780 C   0  0  0  0  0  0  0  0  0  0  0  0
    9.7920   -1.6590   24.4980 C   0  0  0  0  0  0  0  0  0  0  0  0
    8.5590   -1.5140   23.8330 C   0  0  0  0  0  0  0  0  0  0  0  0
    8.5200   -1.2770   22.4460 C   0  0  0  0  0  0  0  0  0  0  0  0
    6.3650   -5.3250   25.8530 C   0  0  0  0  0  0  0  0  0  0  0  0
    6.0260   -5.2040   24.5170 C   0  0  0  0  0  0  0  0  0  0  0  0
    5.0290   -5.9010   23.8610 C   0  0  0  0  0  0  0  0  0  0  0  0
    4.2720   -6.8260   24.6200 C   0  0  0  0  0  0  0  0  0  0  0  0
    4.5900   -6.9560   25.9940 C   0  0  0  0  0  0  0  0  0  0  0  0
    5.6190   -6.2240   26.6040 C   0  0  0  0  0  0  0  0  0  0  0  0
    6.7570   -4.2550   23.7170 N   0  0  0  0  0  0  0  0  0  0  0  0
    6.2580   -4.2720   22.5040 C   0  0  0  0  0  0  0  0  0  0  0  0
    4.9940   -5.4060   22.2170 S   0  0  0  0  0  0  0  0  0  0  0  0
  1  5  1  0
  2  7  1  0
  3  7  2  0
  5  7  1  6
  4  9  1  0
  6 10  1  0
 10 11  1  6
  6 12  1  0
 14 15  1  0
 13 17  1  0
 16 17  2  0
 17 18  1  0
  1 19  1  0
 13 19  1  0
 20 21  2  0
 21 22  1  0
 22 23  2  0
  5 24  1  0
 23 24  1  0
 20 25  1  0
 24 25  2  0
  8 26  1  0
 26 27  2  0
  4 28  1  0
 27 28  1  0
 28 29  2  0
 29 30  1  0
  2 31  1  0
 26 31  1  0
 30 31  2  0
 32 33  2  0
 10 34  1  0
 33 34  1  0
 34 35  2  0
 35 36  1  0
  1 37  1  0
 32 37  1  0
 36 37  2  0
 15 38  1  0
 38 39  2  0
 39 40  1  0
 40 41  2  0
 41 42  1  0
 38 43  1  0
 42 43  2  0
 39 44  1  0
 13 45  1  0
 44 45  2  0
 40 46  1  0
 45 46  1  0
M  END
