x1348-x3110
     RDKit          3D

 44 47  0  0  0  0  0  0  0  0999 V2000
    8.1710    1.3430   23.2830 N   0  0  0  0  0  0  0  0  0  0  0  0
   13.3880    5.2350   22.9390 C   0  0  0  0  0  0  0  0  0  0  0  0
   12.0840    3.3110   22.3480 O   0  0  0  0  0  0  0  0  0  0  0  0
   12.5430    4.5830   21.8760 C   0  0  0  0  0  0  0  0  0  0  0  0
    7.4360   -1.2670   21.6590 N   0  0  0  0  0  0  0  0  0  0  0  0
   11.0420    4.3640   24.0760 O   0  0  0  0  0  0  0  0  0  0  0  0
   11.2210    3.3760   23.3810 C   0  0  0  0  0  0  0  0  0  0  0  0
    8.8570    1.7920   21.1590 O   0  0  0  0  0  0  0  0  0  0  0  0
   10.4930    2.0750   23.5690 C   0  0  0  0  0  0  0  0  0  0  0  0
    9.0370    2.3130   23.9000 C   0  0  0  0  0  0  0  0  0  0  0  0
    8.1130    1.1720   21.9210 C   0  0  0  0  0  0  0  0  0  0  0  0
    7.0220    0.1540   21.4980 C   0  0  1  0  0  0  0  0  0  0  0  0
   12.2380   -1.9560   24.5720 C   0  0  0  0  0  0  0  0  0  0  0  0
   12.7460   -0.5980   24.9590 C   0  0  0  0  0  0  0  0  0  0  0  0
   13.3620   -1.4650   23.7360 C   0  0  0  0  0  0  0  0  0  0  0  0
   12.6550   -3.1360   25.1420 C   0  0  0  0  0  0  0  0  0  0  0  0
    6.7260   -3.4870   21.4890 N   0  0  0  0  0  0  0  0  0  0  0  0
    8.0190   -5.4560   27.4540 C   0  0  0  0  0  0  0  0  0  0  0  0
    7.4050   -4.7070   26.3990 O   0  0  0  0  0  0  0  0  0  0  0  0
    5.4440   -4.4730   19.8800 O   0  0  0  0  0  0  0  0  0  0  0  0
    6.4050   -3.7620   20.1710 C   0  0  0  0  0  0  0  0  0  0  0  0
    7.2620   -3.1570   19.0960 C   0  0  0  0  0  0  0  0  0  0  0  0
    6.4330   -2.2080   21.8440 C   0  0  0  0  0  0  0  0  0  0  0  0
    6.2910    0.3950   17.8220 N   0  0  0  0  0  0  0  0  0  0  0  0
    5.2030    1.1850   17.8560 C   0  0  0  0  0  0  0  0  0  0  0  0
    4.6240    1.6750   18.9890 C   0  0  0  0  0  0  0  0  0  0  0  0
    5.2080    1.3380   20.1960 C   0  0  0  0  0  0  0  0  0  0  0  0
    6.3550    0.5170   20.2020 C   0  0  0  0  0  0  0  0  0  0  0  0
    6.8510    0.0710   18.9870 C   0  0  0  0  0  0  0  0  0  0  0  0
    9.8280   -1.2180   21.8390 C   0  0  0  0  0  0  0  0  0  0  0  0
   10.9890   -1.3940   22.5500 C   0  0  0  0  0  0  0  0  0  0  0  0
   10.9070   -1.8320   23.8660 C   0  0  0  0  0  0  0  0  0  0  0  0
    9.6980   -2.1080   24.4720 C   0  0  0  0  0  0  0  0  0  0  0  0
    8.5290   -1.9280   23.7430 C   0  0  0  0  0  0  0  0  0  0  0  0
    8.6030   -1.4740   22.4160 C   0  0  0  0  0  0  0  0  0  0  0  0
    6.3510   -5.3870   25.8500 C   0  0  0  0  0  0  0  0  0  0  0  0
    5.9980   -5.2470   24.4940 C   0  0  0  0  0  0  0  0  0  0  0  0
    4.9620   -5.9100   23.8700 C   0  0  0  0  0  0  0  0  0  0  0  0
    4.1920   -6.7770   24.6170 C   0  0  0  0  0  0  0  0  0  0  0  0
    4.4030   -7.0110   25.9730 C   0  0  0  0  0  0  0  0  0  0  0  0
    5.4580   -6.3600   26.6650 C   0  0  0  0  0  0  0  0  0  0  0  0
    6.7290   -4.3840   23.7430 N   0  0  0  0  0  0  0  0  0  0  0  0
    6.2300   -4.3700   22.5200 C   0  0  0  0  0  0  0  0  0  0  0  0
    4.9190   -5.4310   22.2320 S   0  0  0  0  0  0  0  0  0  0  0  0
  2  4  1  0
  3  4  1  0
  3  7  1  0
  6  7  2  0
  7  9  1  0
  1 10  1  0
  9 10  1  0
  1 11  1  0
  8 11  2  0
  5 12  1  0
 12 11  1  6
 13 14  1  0
 13 15  1  0
 13 16  1  0
 18 19  1  0
 17 21  1  0
 20 21  2  0
 21 22  1  0
  5 23  1  0
 17 23  1  0
 24 25  2  0
 25 26  1  0
 26 27  2  0
 12 28  1  0
 27 28  1  0
 24 29  1  0
 28 29  2  0
 30 31  2  0
 13 32  1  0
 31 32  1  0
 32 33  2  0
 33 34  1  0
  5 35  1  0
 30 35  1  0
 34 35  2  0
 19 36  1  0
 36 37  2  0
 37 38  1  0
 38 39  2  0
 39 40  1  0
 36 41  1  0
 40 41  2  0
 37 42  1  0
 17 43  1  0
 42 43  2  0
 38 44  1  0
 43 44  1  0
M  END
