x1348-x3113
     RDKit          3D

 42 45  0  0  0  0  0  0  0  0999 V2000
    7.5590   -1.2680   21.6240 N   0  0  0  0  0  0  0  0  0  0  0  0
    8.2810    1.5760   23.3330 N   0  0  0  0  0  0  0  0  0  0  0  0
    8.8730    1.7830   21.0180 O   0  0  0  0  0  0  0  0  0  0  0  0
   11.8230    3.8540   22.3680 O   0  0  0  0  0  0  0  0  0  0  0  0
    7.1240    0.0450   21.6790 C   0  0  1  0  0  0  0  0  0  0  0  0
    8.1070    1.1370   22.0390 C   0  0  0  0  0  0  0  0  0  0  0  0
    9.2140    2.5700   23.5930 C   0  0  0  0  0  0  0  0  0  0  0  0
   10.5920    2.0270   23.3350 C   0  0  0  0  0  0  0  0  0  0  0  0
   11.6320    3.1280   23.3280 C   0  0  0  0  0  0  0  0  0  0  0  0
   12.8650    4.5240   22.4340 C   0  0  0  0  0  0  0  0  0  0  0  0
   12.4230   -2.2370   24.3520 C   0  0  0  0  0  0  0  0  0  0  0  0
   13.3710   -2.4250   23.3500 C   0  0  0  0  0  0  0  0  0  0  0  0
   12.2190   -3.1240   25.3900 C   0  0  0  0  0  0  0  0  0  0  0  0
   12.8570   -0.8870   24.9550 C   0  0  0  0  0  0  0  0  0  0  0  0
    6.7220   -3.4970   21.4520 N   0  0  0  0  0  0  0  0  0  0  0  0
    8.1120   -4.9560   27.5510 C   0  0  0  0  0  0  0  0  0  0  0  0
    7.4490   -4.5850   26.3420 O   0  0  0  0  0  0  0  0  0  0  0  0
    5.3870   -4.3680   19.8330 O   0  0  0  0  0  0  0  0  0  0  0  0
    6.3880   -3.7190   20.1320 C   0  0  0  0  0  0  0  0  0  0  0  0
    7.2870   -3.1620   19.0710 C   0  0  0  0  0  0  0  0  0  0  0  0
    6.5450   -2.1840   21.7650 C   0  0  0  0  0  0  0  0  0  0  0  0
    6.4450    0.2640   17.9340 N   0  0  0  0  0  0  0  0  0  0  0  0
    5.2360    1.2110   17.8910 C   0  0  0  0  0  0  0  0  0  0  0  0
    4.7400    1.6880   19.1040 C   0  0  0  0  0  0  0  0  0  0  0  0
    5.3480    1.3060   20.2680 C   0  0  0  0  0  0  0  0  0  0  0  0
    6.4430    0.4570   20.3540 C   0  0  0  0  0  0  0  0  0  0  0  0
    7.0450   -0.1100   19.2180 C   0  0  0  0  0  0  0  0  0  0  0  0
   10.0160   -1.2380   21.7950 C   0  0  0  0  0  0  0  0  0  0  0  0
   11.1770   -1.5000   22.5020 C   0  0  0  0  0  0  0  0  0  0  0  0
   11.0940   -2.0530   23.7620 C   0  0  0  0  0  0  0  0  0  0  0  0
    9.8800   -2.3710   24.3610 C   0  0  0  0  0  0  0  0  0  0  0  0
    8.7210   -2.1040   23.6380 C   0  0  0  0  0  0  0  0  0  0  0  0
    8.7890   -1.5420   22.3680 C   0  0  0  0  0  0  0  0  0  0  0  0
    6.3560   -5.3850   25.9330 C   0  0  0  0  0  0  0  0  0  0  0  0
    6.0160   -5.2600   24.5810 C   0  0  0  0  0  0  0  0  0  0  0  0
    4.9870   -5.9620   23.9720 C   0  0  0  0  0  0  0  0  0  0  0  0
    4.2170   -6.8500   24.7290 C   0  0  0  0  0  0  0  0  0  0  0  0
    4.5450   -6.9670   26.0840 C   0  0  0  0  0  0  0  0  0  0  0  0
    5.5870   -6.2680   26.7080 C   0  0  0  0  0  0  0  0  0  0  0  0
    6.7590   -4.3380   23.7370 N   0  0  0  0  0  0  0  0  0  0  0  0
    6.2500   -4.3640   22.5160 C   0  0  0  0  0  0  0  0  0  0  0  0
    4.9040   -5.5000   22.2270 S   0  0  0  0  0  0  0  0  0  0  0  0
  1  5  1  0
  2  6  1  0
  3  6  2  0
  5  6  1  6
  2  7  1  0
  7  8  1  0
  4  9  1  0
  8  9  1  0
  4 10  1  0
 11 12  1  0
 11 13  1  0
 11 14  1  0
 16 17  1  0
 15 19  1  0
 18 19  2  0
 19 20  1  0
  1 21  1  0
 15 21  1  0
 22 23  2  0
 23 24  1  0
 24 25  2  0
  5 26  1  0
 25 26  1  0
 22 27  1  0
 26 27  2  0
 28 29  2  0
 11 30  1  0
 29 30  1  0
 30 31  2  0
 31 32  1  0
  1 33  1  0
 28 33  1  0
 32 33  2  0
 17 34  1  0
 34 35  2  0
 35 36  1  0
 36 37  2  0
 37 38  1  0
 34 39  1  0
 38 39  2  0
 35 40  1  0
 15 41  1  0
 40 41  2  0
 36 42  1  0
 41 42  1  0
M  END
