x1348-x2964
     RDKit          3D

 35 38  0  0  0  0  0  0  0  0999 V2000
    6.9740   -3.7620   21.4150 N   0  0  0  0  0  0  0  0  0  0  0  0
    7.8400   -5.1920   27.5970 C   0  0  0  0  0  0  0  0  0  0  0  0
    7.4450   -4.6860   26.5400 O   0  0  0  0  0  0  0  0  0  0  0  0
    5.3470   -4.3370   19.8420 O   0  0  0  0  0  0  0  0  0  0  0  0
    6.4250   -3.8160   20.1330 C   0  0  0  0  0  0  0  0  0  0  0  0
    7.3140   -3.2200   19.0780 C   0  0  0  0  0  0  0  0  0  0  0  0
    3.4070    2.3640   19.5020 N   0  0  0  0  0  0  0  0  0  0  0  0
    8.7150    1.7970   21.1240 O   0  0  0  0  0  0  0  0  0  0  0  0
   13.1820   -2.3720   21.4410 Cl  0  0  0  0  0  0  0  0  0  0  0  0
    7.2040   -0.2410   21.0570 N   0  0  0  0  0  0  0  0  0  0  0  0
    8.9030   -0.1140   22.6280 N   0  0  0  0  0  0  0  0  0  0  0  0
    8.2900    0.5240   21.6100 C   0  0  0  0  0  0  0  0  0  0  0  0
    7.6080   -2.5230   21.7810 C   0  0  0  0  0  0  0  0  0  0  0  0
    7.5750   -1.5630   20.7920 C   0  0  0  0  0  0  0  0  0  0  0  0
    6.4120   -5.3720   25.9410 C   0  0  0  0  0  0  0  0  0  0  0  0
    6.2090   -5.2110   24.5670 C   0  0  0  0  0  0  0  0  0  0  0  0
    5.0800   -5.9490   23.8320 C   0  0  0  0  0  0  0  0  0  0  0  0
    4.2290   -6.7990   24.5450 C   0  0  0  0  0  0  0  0  0  0  0  0
    4.4120   -6.9660   25.9250 C   0  0  0  0  0  0  0  0  0  0  0  0
    5.5570   -6.2200   26.6550 C   0  0  0  0  0  0  0  0  0  0  0  0
    6.9490   -4.4100   23.7310 N   0  0  0  0  0  0  0  0  0  0  0  0
    6.4570   -4.4930   22.4840 C   0  0  0  0  0  0  0  0  0  0  0  0
    5.0760   -5.5640   22.1690 S   0  0  0  0  0  0  0  0  0  0  0  0
    4.5760    1.6070   19.3010 C   0  0  0  0  0  0  0  0  0  0  0  0
    5.3180    1.0450   20.3450 C   0  0  0  0  0  0  0  0  0  0  0  0
    6.4840    0.2940   20.0730 C   0  0  0  0  0  0  0  0  0  0  0  0
    6.9460    0.0680   18.7800 C   0  0  0  0  0  0  0  0  0  0  0  0
    6.2530    0.6040   17.7380 N   0  0  0  0  0  0  0  0  0  0  0  0
    5.1530    1.3240   17.9550 C   0  0  0  0  0  0  0  0  0  0  0  0
   10.8730    0.8560   23.3980 C   0  0  0  0  0  0  0  0  0  0  0  0
   12.2510    0.9060   23.5090 C   0  0  0  0  0  0  0  0  0  0  0  0
   12.9970   -0.1000   22.9050 C   0  0  0  0  0  0  0  0  0  0  0  0
   12.3520   -1.1190   22.2160 C   0  0  0  0  0  0  0  0  0  0  0  0
   10.9830   -1.1540   22.1160 C   0  0  0  0  0  0  0  0  0  0  0  0
   10.2200   -0.1580   22.7050 C   0  0  0  0  0  0  0  0  0  0  0  0
  2  3  1  0
  1  5  1  0
  4  5  2  0
  5  6  1  0
  8 12  2  0
 10 12  1  0
 11 12  1  0
  1 13  1  0
 10 14  1  0
 13 14  1  0
  3 15  1  0
 15 16  2  0
 16 17  1  0
 17 18  2  0
 18 19  1  0
 15 20  1  0
 19 20  2  0
 16 21  1  0
  1 22  1  0
 21 22  2  0
 17 23  1  0
 22 23  1  0
  7 24  1  0
 24 25  2  0
 10 26  1  0
 25 26  1  0
 26 27  2  0
 27 28  1  0
 24 29  1  0
 28 29  2  0
 30 31  2  0
 31 32  1  0
  9 33  1  0
 32 33  2  0
 33 34  1  0
 11 35  1  0
 30 35  1  0
 34 35  2  0
M  END
