x1348-x2540
     RDKit          3D

 40 43  0  0  0  0  0  0  0  0999 V2000
    7.6390   -1.0350   21.6540 N   0  0  0  0  0  0  0  0  0  0  0  0
    7.9290    2.1350   23.1030 N   0  0  0  0  0  0  0  0  0  0  0  0
    8.9630    1.9260   20.9790 O   0  0  0  0  0  0  0  0  0  0  0  0
    7.1180    0.2650   21.6160 C   0  0  1  0  0  0  0  0  0  0  0  0
    8.0140    1.4470   21.9260 C   0  0  0  0  0  0  0  0  0  0  0  0
    8.9040    3.0500   23.4710 C   0  0  0  0  0  0  0  0  0  0  0  0
    8.8890    3.0890   24.9560 C   0  0  0  0  0  0  0  0  0  0  0  0
    8.6310    4.2420   22.7850 C   0  0  0  0  0  0  0  0  0  0  0  0
   10.3430    2.6260   22.9520 C   0  0  0  0  0  0  0  0  0  0  0  0
   12.2250   -1.2030   23.6270 C   0  0  0  0  0  0  0  0  0  0  0  0
   12.8600   -1.1920   22.3840 C   0  0  0  0  0  0  0  0  0  0  0  0
   12.3910   -0.1710   24.5420 C   0  0  0  0  0  0  0  0  0  0  0  0
   12.8820   -2.4580   24.2870 C   0  0  0  0  0  0  0  0  0  0  0  0
    6.7650   -3.3370   21.4400 N   0  0  0  0  0  0  0  0  0  0  0  0
    7.6880   -5.6070   27.7030 C   0  0  0  0  0  0  0  0  0  0  0  0
    7.2000   -4.7860   26.6300 O   0  0  0  0  0  0  0  0  0  0  0  0
    5.4690   -4.3270   19.8350 O   0  0  0  0  0  0  0  0  0  0  0  0
    6.4540   -3.6360   20.1180 C   0  0  0  0  0  0  0  0  0  0  0  0
    7.3420   -3.1100   19.0300 C   0  0  0  0  0  0  0  0  0  0  0  0
    6.6060   -1.9800   21.6480 C   0  0  0  0  0  0  0  0  0  0  0  0
    6.3720    0.2730   17.8900 N   0  0  0  0  0  0  0  0  0  0  0  0
    5.1880    1.2490   17.8200 C   0  0  0  0  0  0  0  0  0  0  0  0
    4.7280    1.8080   19.0070 C   0  0  0  0  0  0  0  0  0  0  0  0
    5.3470    1.4780   20.1740 C   0  0  0  0  0  0  0  0  0  0  0  0
    6.4250    0.6070   20.2850 C   0  0  0  0  0  0  0  0  0  0  0  0
    6.9890   -0.0400   19.1780 C   0  0  0  0  0  0  0  0  0  0  0  0
    9.8210   -1.6910   24.3830 O   0  0  0  0  0  0  0  0  0  0  0  0
    8.5340   -1.6440   23.8300 N   0  0  0  0  0  0  0  0  0  0  0  0
    8.7340   -1.2290   22.5670 C   0  0  0  0  0  0  0  0  0  0  0  0
   10.0600   -1.0220   22.2940 C   0  0  0  0  0  0  0  0  0  0  0  0
   10.7400   -1.3110   23.4500 C   0  0  0  0  0  0  0  0  0  0  0  0
    6.2320   -5.4200   25.8840 C   0  0  0  0  0  0  0  0  0  0  0  0
    6.0470   -5.1530   24.5070 C   0  0  0  0  0  0  0  0  0  0  0  0
    5.0620   -5.8300   23.8010 C   0  0  0  0  0  0  0  0  0  0  0  0
    4.2750   -6.7490   24.4620 C   0  0  0  0  0  0  0  0  0  0  0  0
    4.4410   -7.0090   25.8240 C   0  0  0  0  0  0  0  0  0  0  0  0
    5.4300   -6.3510   26.5780 C   0  0  0  0  0  0  0  0  0  0  0  0
    6.7590   -4.2420   23.7330 N   0  0  0  0  0  0  0  0  0  0  0  0
    6.3030   -4.2260   22.5000 C   0  0  0  0  0  0  0  0  0  0  0  0
    5.0390   -5.3340   22.1610 S   0  0  0  0  0  0  0  0  0  0  0  0
  1  4  1  0
  2  5  1  0
  3  5  2  0
  4  5  1  6
  6  2  1  0
  6  7  1  0
  6  8  1  0
  6  9  1  0
 10 11  1  0
 10 12  1  0
 10 13  1  0
 15 16  1  0
 14 18  1  0
 17 18  2  0
 18 19  1  0
  1 20  1  0
 14 20  1  0
 21 22  2  0
 22 23  1  0
 23 24  2  0
  4 25  1  0
 24 25  1  0
 21 26  1  0
 25 26  2  0
 27 28  1  0
  1 29  1  0
 28 29  2  0
 29 30  1  0
 10 31  1  0
 27 31  1  0
 30 31  2  0
 16 32  1  0
 32 33  2  0
 33 34  1  0
 34 35  2  0
 35 36  1  0
 32 37  1  0
 36 37  2  0
 33 38  1  0
 14 39  1  0
 38 39  2  0
 34 40  1  0
 39 40  1  0
M  END
