x1348-x0107
     RDKit          3D

 28 30  0  0  0  0  0  0  0  0999 V2000
    7.1330   -3.7770   21.3660 N   0  0  0  0  0  0  0  0  0  0  0  0
    7.9530   -5.2850   27.3700 C   0  0  0  0  0  0  0  0  0  0  0  0
    7.4200   -4.6600   26.4460 O   0  0  0  0  0  0  0  0  0  0  0  0
    5.4430   -4.2720   19.8280 O   0  0  0  0  0  0  0  0  0  0  0  0
    6.5450   -3.7770   20.0980 C   0  0  0  0  0  0  0  0  0  0  0  0
    7.4140   -3.1620   19.0400 C   0  0  0  0  0  0  0  0  0  0  0  0
    9.9070   -0.5270   22.2710 C   0  0  0  0  0  0  0  0  0  0  0  0
    8.8260    0.2310   21.4970 C   0  0  0  0  0  0  0  0  0  0  0  0
    8.9820    1.4270   21.2020 O   0  0  0  0  0  0  0  0  0  0  0  0
    7.8790   -0.3940   21.2130 N   0  0  0  0  0  0  0  0  0  0  0  0
    5.5270    1.0820   22.0210 C   0  0  0  0  0  0  0  0  0  0  0  0
    7.9620   -2.6920   21.6930 C   0  0  0  0  0  0  0  0  0  0  0  0
    7.3980   -1.4710   21.9600 C   0  0  0  0  0  0  0  0  0  0  0  0
    6.3770   -5.3650   25.8670 C   0  0  0  0  0  0  0  0  0  0  0  0
    6.1130   -5.2930   24.4880 C   0  0  0  0  0  0  0  0  0  0  0  0
    5.0710   -5.9950   23.8830 C   0  0  0  0  0  0  0  0  0  0  0  0
    4.1880   -6.8690   24.7650 C   0  0  0  0  0  0  0  0  0  0  0  0
    4.4370   -6.9390   26.1200 C   0  0  0  0  0  0  0  0  0  0  0  0
    5.5240   -6.1920   26.6600 C   0  0  0  0  0  0  0  0  0  0  0  0
    6.9760   -4.4420   23.7040 N   0  0  0  0  0  0  0  0  0  0  0  0
    6.5330   -4.5150   22.4180 C   0  0  0  0  0  0  0  0  0  0  0  0
    5.1100   -5.6140   22.1460 S   0  0  0  0  0  0  0  0  0  0  0  0
    6.9530    0.0980   20.2150 C   0  0  0  0  0  0  0  0  0  0  0  0
    5.8360    0.8060   20.5740 C   0  0  0  0  0  0  0  0  0  0  0  0
    4.9630    1.2800   19.5870 C   0  0  0  0  0  0  0  0  0  0  0  0
    5.1610    1.0690   18.2010 C   0  0  0  0  0  0  0  0  0  0  0  0
    6.3630    0.2960   17.8640 N   0  0  0  0  0  0  0  0  0  0  0  0
    7.1490   -0.1260   18.8580 C   0  0  0  0  0  0  0  0  0  0  0  0
  2  3  1  0
  1  5  1  0
  4  5  2  0
  5  6  1  0
  7  8  1  0
  8  9  2  0
  8 10  1  0
  1 12  1  0
 10 13  1  0
 12 13  1  0
  3 14  1  0
 14 15  2  0
 15 16  1  0
 16 17  2  0
 17 18  1  0
 14 19  1  0
 18 19  2  0
 15 20  1  0
  1 21  1  0
 20 21  2  0
 16 22  1  0
 21 22  1  0
 10 23  1  0
 11 24  1  0
 23 24  2  0
 24 25  1  0
 25 26  2  0
 26 27  1  0
 23 28  1  0
 27 28  2  0
M  END
