x1351-x2703
     RDKit          3D

 47 51  0  0  0  0  0  0  0  0999 V2000
    7.6490   -1.5910   21.6600 N   0  0  0  0  0  0  0  0  0  0  0  0
    7.4030    1.8950   22.6900 N   0  0  0  0  0  0  0  0  0  0  0  0
    8.8610    1.1480   21.1330 O   0  0  0  0  0  0  0  0  0  0  0  0
    6.9730   -0.3230   21.6240 C   0  0  1  0  0  0  0  0  0  0  0  0
    7.8390    0.9290   21.7880 C   0  0  0  0  0  0  0  0  0  0  0  0
   10.1190    1.9820   24.0390 C   0  0  0  0  0  0  0  0  0  0  0  0
    9.2000    1.3120   25.0590 C   0  0  0  0  0  0  0  0  0  0  0  0
    6.0800    4.3430   21.7300 C   0  0  0  0  0  0  0  0  0  0  0  0
   12.6810   -1.8160   24.2710 C   0  0  0  0  0  0  0  0  0  0  0  0
   13.0630   -2.9190   25.0190 C   0  0  0  0  0  0  0  0  0  0  0  0
   12.7180   -0.5930   25.1290 C   0  0  0  0  0  0  0  0  0  0  0  0
    6.9800   -3.1200   19.1700 C   0  0  0  0  0  0  0  0  0  0  0  0
    5.1630   -4.5290   19.8170 O   0  0  0  0  0  0  0  0  0  0  0  0
    6.0280   -3.7490   20.1760 C   0  0  0  0  0  0  0  0  0  0  0  0
    5.5380   -2.8330   25.3140 N   0  0  0  0  0  0  0  0  0  0  0  0
    6.8450   -3.5020   27.2460 O   0  0  0  0  0  0  0  0  0  0  0  0
    6.1560   -2.5380   26.4700 C   0  0  0  0  0  0  0  0  0  0  0  0
    6.3010    0.3210   17.8300 N   0  0  0  0  0  0  0  0  0  0  0  0
    5.1080    0.9400   17.8940 C   0  0  0  0  0  0  0  0  0  0  0  0
    4.3230    1.2360   19.0010 C   0  0  0  0  0  0  0  0  0  0  0  0
    4.8480    0.8320   20.3660 C   0  0  0  0  0  0  0  0  0  0  0  0
    6.2150    0.1290   20.3910 C   0  0  0  0  0  0  0  0  0  0  0  0
    6.8580   -0.0820   18.9850 C   0  0  0  0  0  0  0  0  0  0  0  0
   11.0610   -2.2080   22.3210 N   0  0  0  0  0  0  0  0  0  0  0  0
   11.3340   -1.7300   23.6670 C   0  0  0  0  0  0  0  0  0  0  0  0
   10.2340   -1.1830   24.3090 C   0  0  0  0  0  0  0  0  0  0  0  0
    9.0030   -1.1020   23.7100 C   0  0  0  0  0  0  0  0  0  0  0  0
    8.7850   -1.5670   22.4310 C   0  0  0  0  0  0  0  0  0  0  0  0
    9.8380   -2.1280   21.7680 C   0  0  0  0  0  0  0  0  0  0  0  0
    9.4320    3.2240   23.5440 C   0  0  0  0  0  0  0  0  0  0  0  0
   10.0360    4.4840   23.6880 C   0  0  0  0  0  0  0  0  0  0  0  0
    9.3770    5.6120   23.2210 C   0  0  0  0  0  0  0  0  0  0  0  0
    8.1420    5.5340   22.6150 C   0  0  0  0  0  0  0  0  0  0  0  0
    7.4760    4.3220   22.4330 C   0  0  0  0  0  0  0  0  0  0  0  0
    8.0620    3.1870   22.8660 C   0  0  0  0  0  0  0  0  0  0  0  0
    6.0970   -3.5000   21.5350 N   0  0  0  0  0  0  0  0  0  0  0  0
    7.1390   -2.8750   22.1510 C   0  0  2  0  0  0  0  0  0  0  0  0
    6.9920   -2.7190   23.5490 C   0  0  0  0  0  0  0  0  0  0  0  0
    6.2030   -3.5800   24.2650 C   0  0  2  0  0  0  0  0  0  0  0  0
    5.3300   -4.3800   23.5500 C   0  0  0  0  0  0  0  0  0  0  0  0
    5.7390   -4.7130   22.2750 C   0  0  0  0  0  0  0  0  0  0  0  0
    6.8360   -0.8440   28.0930 C   0  0  0  0  0  0  0  0  0  0  0  0
    6.8430    0.5410   28.7260 C   0  0  0  0  0  0  0  0  0  0  0  0
    5.9870    1.6330   28.0950 C   0  0  0  0  0  0  0  0  0  0  0  0
    5.1410    1.3310   26.8410 C   0  0  0  0  0  0  0  0  0  0  0  0
    5.1750   -0.1120   26.2350 C   0  0  0  0  0  0  0  0  0  0  0  0
    6.0750   -1.1420   26.9620 C   0  0  0  0  0  0  0  0  0  0  0  0
  1  4  1  0
  2  5  1  0
  3  5  2  0
  4  5  1  6
  6  7  1  0
  9 10  1  0
  9 11  1  0
 12 14  1  0
 13 14  2  0
 15 17  1  0
 16 17  2  0
 18 19  2  0
 19 20  1  0
 20 21  2  0
  4 22  1  0
 21 22  1  0
 18 23  1  0
 22 23  2  0
  9 25  1  0
 24 25  2  0
 25 26  1  0
 26 27  2  0
  1 28  1  0
 27 28  1  0
 24 29  1  0
 28 29  2  0
  6 30  1  0
 30 31  2  0
 31 32  1  0
 32 33  2  0
  8 34  1  0
 33 34  1  0
  2 35  1  0
 30 35  1  0
 34 35  2  0
 14 36  1  0
 37  1  1  6
 36 37  1  0
 37 38  1  0
 39 15  1  1
 38 39  1  0
 39 40  1  0
 36 41  1  0
 40 41  1  0
 42 43  2  0
 43 44  1  0
 44 45  2  0
 45 46  1  0
 17 47  1  0
 42 47  1  0
 46 47  2  0
M  END
