x1358-x2646
     RDKit          3D

 38 41  0  0  0  0  0  0  0  0999 V2000
    6.8830   -2.6450   26.1690 N   0  0  0  0  0  0  0  0  0  0  0  0
    5.4470   -0.5070   25.4260 O   0  0  0  0  0  0  0  0  0  0  0  0
    4.6650   -3.4830   25.6080 O   0  0  0  0  0  0  0  0  0  0  0  0
    5.2640   -4.2390   19.7670 O   0  0  0  0  0  0  0  0  0  0  0  0
    5.8470   -3.3020   25.3400 C   0  0  0  0  0  0  0  0  0  0  0  0
    6.3650   -3.8460   20.1420 C   0  0  0  0  0  0  0  0  0  0  0  0
    7.2380   -3.1480   19.1420 C   0  0  0  0  0  0  0  0  0  0  0  0
    4.7870    1.3660   21.5850 C   0  0  0  0  0  0  0  0  0  0  0  0
    8.8540    1.3150   21.2570 O   0  0  0  0  0  0  0  0  0  0  0  0
   13.2100   -2.3210   21.3020 Cl  0  0  0  0  0  0  0  0  0  0  0  0
    7.0560   -0.1930   21.0410 N   0  0  0  0  0  0  0  0  0  0  0  0
    8.0720    0.1210   21.4940 C   0  0  0  0  0  0  0  0  0  0  0  0
    8.6230   -0.8940   22.4660 C   0  0  1  0  0  0  0  0  0  0  0  0
    8.4580   -2.2270   21.6670 C   0  0  0  0  0  0  0  0  0  0  0  0
    6.0490   -0.4630   26.6590 C   0  0  0  0  0  0  0  0  0  0  0  0
    6.8110   -1.5730   27.0750 C   0  0  0  0  0  0  0  0  0  0  0  0
    7.5170   -1.6870   28.3430 C   0  0  0  0  0  0  0  0  0  0  0  0
    7.3760   -0.4600   29.2660 C   0  0  0  0  0  0  0  0  0  0  0  0
    6.5470    0.7340   28.8110 C   0  0  0  0  0  0  0  0  0  0  0  0
    5.8830    0.6770   27.4490 C   0  0  0  0  0  0  0  0  0  0  0  0
    6.8530   -4.1150   21.5120 N   0  0  0  0  0  0  0  0  0  0  0  0
    7.5960   -3.3120   22.3380 C   0  0  2  0  0  0  0  0  0  0  0  0
    6.7660   -2.7400   23.2270 C   0  0  0  0  0  0  0  0  0  0  0  0
    6.4090   -3.7480   24.0640 C   0  0  2  0  0  0  0  0  0  0  0  0
    5.5510   -4.6310   23.4000 C   0  0  0  0  0  0  0  0  0  0  0  0
    6.1220   -5.0380   22.1710 C   0  0  0  0  0  0  0  0  0  0  0  0
    6.3470    0.6720   17.6020 N   0  0  0  0  0  0  0  0  0  0  0  0
    6.9110    0.1400   18.6960 C   0  0  0  0  0  0  0  0  0  0  0  0
    6.4570    0.3380   19.9810 C   0  0  0  0  0  0  0  0  0  0  0  0
    5.3310    1.1270   20.2060 C   0  0  0  0  0  0  0  0  0  0  0  0
    4.6810    1.7200   19.1200 C   0  0  0  0  0  0  0  0  0  0  0  0
    5.1760    1.5060   17.8390 C   0  0  0  0  0  0  0  0  0  0  0  0
   10.5830    0.4170   23.6200 C   0  0  0  0  0  0  0  0  0  0  0  0
   11.9650    0.5640   23.7670 C   0  0  0  0  0  0  0  0  0  0  0  0
   12.8390   -0.2670   23.0680 C   0  0  0  0  0  0  0  0  0  0  0  0
   12.3110   -1.2390   22.2290 C   0  0  0  0  0  0  0  0  0  0  0  0
   10.9770   -1.3450   22.1240 C   0  0  0  0  0  0  0  0  0  0  0  0
   10.0660   -0.5740   22.7670 C   0  0  0  0  0  0  0  0  0  0  0  0
  1  5  1  0
  3  5  2  0
  4  6  2  0
  6  7  1  0
  9 12  2  0
 11 12  1  0
 12 13  1  0
 13 14  1  6
  2 15  1  0
  1 16  1  0
 15 16  2  0
 16 17  1  0
 17 18  2  0
 18 19  1  0
 15 20  1  0
 19 20  2  0
  6 21  1  0
 22 14  1  6
 21 22  1  0
 22 23  1  0
 24  5  1  1
 23 24  1  0
 24 25  1  0
 21 26  1  0
 25 26  1  0
 27 28  2  0
 11 29  1  0
 28 29  1  0
  8 30  1  0
 29 30  2  0
 30 31  1  0
 27 32  1  0
 31 32  2  0
 33 34  2  0
 34 35  1  0
 10 36  1  0
 35 36  2  0
 36 37  1  0
 13 38  1  0
 33 38  1  0
 37 38  2  0
M  END
