x1358-x3303
     RDKit          3D

 43 49  0  0  0  0  0  0  0  0999 V2000
    6.4870   -2.8820   26.7720 N   0  0  0  0  0  0  0  0  0  0  0  0
    5.3550   -0.5140   25.5470 O   0  0  0  0  0  0  0  0  0  0  0  0
    4.3880   -3.2990   25.7260 O   0  0  0  0  0  0  0  0  0  0  0  0
    5.9350   -5.0050   19.9880 O   0  0  0  0  0  0  0  0  0  0  0  0
    5.6110   -3.2080   25.6490 C   0  0  0  0  0  0  0  0  0  0  0  0
    6.4900   -3.9380   20.2010 C   0  0  0  0  0  0  0  0  0  0  0  0
    7.2960   -3.2390   19.1500 C   0  0  0  0  0  0  0  0  0  0  0  0
    6.0260   -1.3630   20.8920 C   0  0  0  0  0  0  0  0  0  0  0  0
    5.3300   -2.6180   20.8920 N   0  0  0  0  0  0  0  0  0  0  0  0
    6.3140    1.3160   16.8330 O   0  0  0  0  0  0  0  0  0  0  0  0
    5.9380   -0.4050   26.6270 C   0  0  0  0  0  0  0  0  0  0  0  0
    6.5470   -1.6110   27.3100 C   0  0  0  0  0  0  0  0  0  0  0  0
    7.2800   -1.4640   28.6730 C   0  0  0  0  0  0  0  0  0  0  0  0
    7.3260   -0.0230   29.2500 C   0  0  0  0  0  0  0  0  0  0  0  0
    6.7450    1.0460   28.5760 C   0  0  0  0  0  0  0  0  0  0  0  0
    6.0700    0.9150   27.3220 C   0  0  0  0  0  0  0  0  0  0  0  0
    6.2420   -3.3180   21.5660 C   0  0  2  0  0  0  0  0  0  0  0  0
    7.2730   -2.4670   22.3910 C   0  0  1  0  0  0  0  0  0  0  0  0
    6.5920   -2.2620   23.7140 C   0  0  0  0  0  0  0  0  0  0  0  0
    6.3040   -3.4490   24.3710 C   0  0  2  0  0  0  0  0  0  0  0  0
    5.6220   -4.3950   23.6070 C   0  0  0  0  0  0  0  0  0  0  0  0
    5.7430   -4.4400   22.2400 C   0  0  0  0  0  0  0  0  0  0  0  0
    8.2770   -0.5090   21.1340 C   0  0  0  0  0  0  0  0  0  0  0  0
    9.1990   -0.3140   22.1420 C   0  0  0  0  0  0  0  0  0  0  0  0
    9.4550   -1.5910   22.8450 N   0  0  0  0  0  0  0  0  0  0  0  0
    8.7090   -2.6580   22.3730 C   0  0  0  0  0  0  0  0  0  0  0  0
    7.1150   -1.2150   21.6310 N   0  0  0  0  0  0  0  0  0  0  0  0
    4.7580    1.9370   18.4480 N   0  0  0  0  0  0  0  0  0  0  0  0
    4.1410    1.7510   19.6590 C   0  0  0  0  0  0  0  0  0  0  0  0
    4.5640    0.6580   20.4580 C   0  0  0  0  0  0  0  0  0  0  0  0
    5.5700   -0.2290   20.0640 C   0  0  0  0  0  0  0  0  0  0  0  0
    6.1880   -0.0330   18.8230 C   0  0  0  0  0  0  0  0  0  0  0  0
    5.7990    1.0110   18.0410 C   0  0  0  0  0  0  0  0  0  0  0  0
   11.7030   -2.0460   22.1220 C   0  0  0  0  0  0  0  0  0  0  0  0
   13.0160   -2.3320   22.4100 C   0  0  0  0  0  0  0  0  0  0  0  0
   13.4560   -2.4370   23.7200 C   0  0  0  0  0  0  0  0  0  0  0  0
   12.5930   -2.2400   24.7610 C   0  0  0  0  0  0  0  0  0  0  0  0
   11.2730   -1.9480   24.4680 C   0  0  0  0  0  0  0  0  0  0  0  0
   10.8310   -1.8640   23.1570 C   0  0  0  0  0  0  0  0  0  0  0  0
    3.9380    0.4620   21.7090 C   0  0  0  0  0  0  0  0  0  0  0  0
    2.8360    1.3790   22.2110 C   0  0  0  0  0  0  0  0  0  0  0  0
    2.3880    2.5370   21.3600 C   0  0  0  0  0  0  0  0  0  0  0  0
    3.1490    2.6390   20.0250 C   0  0  0  0  0  0  0  0  0  0  0  0
  1  5  1  0
  3  5  2  0
  4  6  2  0
  6  7  1  0
  8  9  2  0
  2 11  1  0
  1 12  1  0
 11 12  2  0
 12 13  1  0
 13 14  2  0
 14 15  1  0
 11 16  1  0
 15 16  2  0
 17  6  1  6
  9 17  1  0
 17 18  1  0
 18 19  1  1
 20  5  1  1
 19 20  1  0
 20 21  1  0
 17 22  1  0
 21 22  1  0
 23 24  1  0
 24 25  1  0
 18 26  1  0
 25 26  1  0
  8 27  1  0
 18 27  1  0
 23 27  1  0
 28 29  2  0
 29 30  1  0
  8 31  1  0
 30 31  2  0
 31 32  1  0
 10 33  1  0
 28 33  1  0
 32 33  2  0
 34 35  2  0
 35 36  1  0
 36 37  2  0
 37 38  1  0
 25 39  1  0
 34 39  1  0
 38 39  2  0
 30 40  1  0
 40 41  2  0
 41 42  1  0
 29 43  1  0
 42 43  2  0
M  END
