x1351-x0387
     RDKit          3D

 31 34  0  0  0  0  0  0  0  0999 V2000
    7.0250   -3.2330   19.2280 C   0  0  0  0  0  0  0  0  0  0  0  0
    5.1260   -4.5300   19.8370 O   0  0  0  0  0  0  0  0  0  0  0  0
    6.1870   -4.0490   20.1840 C   0  0  0  0  0  0  0  0  0  0  0  0
    5.4650   -2.9590   25.1460 N   0  0  0  0  0  0  0  0  0  0  0  0
    7.6880   -2.4330   26.0430 N   0  0  0  0  0  0  0  0  0  0  0  0
    6.2830   -2.1120   25.9870 C   0  0  0  0  0  0  0  0  0  0  0  0
    8.1010   -5.4860   26.8290 O   0  0  0  0  0  0  0  0  0  0  0  0
    9.3870   -1.5440   23.8810 C   0  0  0  0  0  0  0  0  0  0  0  0
    6.6650   -4.3170   21.4520 N   0  0  0  0  0  0  0  0  0  0  0  0
    7.3870   -3.3340   22.0410 C   0  0  0  0  0  0  0  0  0  0  0  0
    6.7160   -2.6570   23.1890 C   0  0  0  0  0  0  0  0  0  0  0  0
    6.0320   -3.5530   24.0060 C   0  0  0  0  0  0  0  0  0  0  0  0
    5.1660   -4.3530   23.2420 C   0  0  0  0  0  0  0  0  0  0  0  0
    5.8650   -5.0630   22.2490 C   0  0  0  0  0  0  0  0  0  0  0  0
    6.0910   -0.7870   28.2540 C   0  0  0  0  0  0  0  0  0  0  0  0
    5.7940    0.3930   28.9940 C   0  0  0  0  0  0  0  0  0  0  0  0
    5.3120    1.5610   28.3490 C   0  0  0  0  0  0  0  0  0  0  0  0
    5.1070    1.6030   26.9760 C   0  0  0  0  0  0  0  0  0  0  0  0
    5.4030    0.3980   26.1300 C   0  0  0  0  0  0  0  0  0  0  0  0
    5.9270   -0.8620   26.8070 C   0  0  0  0  0  0  0  0  0  0  0  0
    8.8920   -4.4160   26.5790 C   0  0  2  0  0  0  0  0  0  0  0  0
    8.4300   -3.4990   25.3940 C   0  0  2  0  0  0  0  0  0  0  0  0
    9.4790   -2.7210   24.8810 C   0  0  1  0  0  0  0  0  0  0  0  0
   10.5390   -3.5530   24.4640 N   0  0  0  0  0  0  0  0  0  0  0  0
   11.0910   -3.9340   25.7030 C   0  0  0  0  0  0  0  0  0  0  0  0
   10.3120   -4.9060   26.3160 C   0  0  0  0  0  0  0  0  0  0  0  0
   11.5260   -0.0250   23.7980 C   0  0  0  0  0  0  0  0  0  0  0  0
   10.7870   -1.1480   23.4100 C   0  0  0  0  0  0  0  0  0  0  0  0
   11.5100   -1.9190   22.5020 C   0  0  0  0  0  0  0  0  0  0  0  0
   13.0590   -1.2990   22.1290 S   0  0  0  0  0  0  0  0  0  0  0  0
   12.7710    0.0770   23.2170 C   0  0  0  0  0  0  0  0  0  0  0  0
  1  3  1  0
  2  3  2  0
  4  6  1  0
  5  6  2  3
  3  9  1  0
  9 10  1  0
 10 11  1  0
  4 12  1  0
 11 12  1  0
 12 13  1  0
  9 14  1  0
 13 14  1  0
 15 16  2  0
 16 17  1  0
 17 18  2  0
 18 19  1  0
  6 20  1  0
 15 20  1  0
 19 20  2  0
 21  7  1  6
 22  5  1  1
 21 22  1  0
 23  8  1  6
 22 23  1  0
 23 24  1  0
 24 25  1  0
 21 26  1  0
 25 26  1  0
  8 28  1  0
 27 28  1  0
 28 29  2  0
 29 30  1  0
 27 31  2  0
 30 31  1  0
M  END
