x1351-x0540
     RDKit          3D

 38 41  0  0  0  0  0  0  0  0999 V2000
    7.0570   -3.2480   19.2840 C   0  0  0  0  0  0  0  0  0  0  0  0
    5.2640   -4.6770   19.9210 O   0  0  0  0  0  0  0  0  0  0  0  0
    6.2720   -4.0740   20.2700 C   0  0  0  0  0  0  0  0  0  0  0  0
    5.7370   -3.0150   25.3560 N   0  0  0  0  0  0  0  0  0  0  0  0
    8.1030   -2.7420   26.0360 O   0  0  0  0  0  0  0  0  0  0  0  0
    6.8270   -2.2950   26.0180 C   0  0  0  0  0  0  0  0  0  0  0  0
    2.9510    1.2730   24.3820 O   0  0  0  0  0  0  0  0  0  0  0  0
    2.9350    2.1380   23.2560 C   0  0  0  0  0  0  0  0  0  0  0  0
    3.8410    2.0320   22.1350 N   0  0  0  0  0  0  0  0  0  0  0  0
    5.0770    1.8020   22.6740 C   0  0  0  0  0  0  0  0  0  0  0  0
    5.5040    0.4520   22.1080 C   0  0  1  0  0  0  0  0  0  0  0  0
    1.9700    3.2580   23.0950 N   0  0  0  0  0  0  0  0  0  0  0  0
    5.5920   -1.9770   21.9890 C   0  0  0  0  0  0  0  0  0  0  0  0
    4.8980   -0.8880   22.5680 C   0  0  0  0  0  0  0  0  0  0  0  0
    6.7420   -4.2050   21.5740 N   0  0  0  0  0  0  0  0  0  0  0  0
    7.3520   -3.2140   22.2530 C   0  0  0  0  0  0  0  0  0  0  0  0
    6.5040   -2.4850   23.1030 C   0  0  2  0  0  0  0  0  0  0  0  0
    5.6540   -3.2870   23.9020 C   0  0  1  0  0  0  0  0  0  0  0  0
    5.9120   -4.6690   23.7390 C   0  0  0  0  0  0  0  0  0  0  0  0
    5.9740   -5.1080   22.4110 C   0  0  0  0  0  0  0  0  0  0  0  0
    7.3180   -0.6890   28.0250 C   0  0  0  0  0  0  0  0  0  0  0  0
    7.0070    0.6220   28.7800 C   0  0  0  0  0  0  0  0  0  0  0  0
    5.9050    1.5380   28.2050 C   0  0  0  0  0  0  0  0  0  0  0  0
    5.1900    1.0900   26.9230 C   0  0  0  0  0  0  0  0  0  0  0  0
    5.5410   -0.1210   26.3050 C   0  0  0  0  0  0  0  0  0  0  0  0
    6.5370   -1.0590   26.7280 C   0  0  0  0  0  0  0  0  0  0  0  0
    6.6600   -0.2700   20.0620 C   0  0  0  0  0  0  0  0  0  0  0  0
    6.9040   -0.3230   18.7090 C   0  0  0  0  0  0  0  0  0  0  0  0
    6.0750    0.4550   17.7750 N   0  0  0  0  0  0  0  0  0  0  0  0
    5.0640    1.2110   18.3390 C   0  0  0  0  0  0  0  0  0  0  0  0
    4.8280    1.2490   19.7130 C   0  0  0  0  0  0  0  0  0  0  0  0
    5.6200    0.5130   20.5970 C   0  0  0  0  0  0  0  0  0  0  0  0
    0.5700    4.6350   24.4020 C   0  0  0  0  0  0  0  0  0  0  0  0
   -0.6350    4.8510   25.0890 C   0  0  0  0  0  0  0  0  0  0  0  0
   -1.7210    4.5330   24.3570 C   0  0  0  0  0  0  0  0  0  0  0  0
   -1.6100    3.2500   23.6640 C   0  0  0  0  0  0  0  0  0  0  0  0
   -0.3480    2.8360   23.1730 C   0  0  0  0  0  0  0  0  0  0  0  0
    0.7370    3.3370   23.8840 C   0  0  0  0  0  0  0  0  0  0  0  0
  1  3  1  0
  2  3  2  0
  4  6  1  0
  5  6  2  0
  7  8  2  0
  8  9  1  0
  9 10  1  0
 11 10  1  6
  8 12  1  0
 11 14  1  0
 13 14  1  0
  3 15  1  0
 15 16  1  0
 17 13  1  6
 16 17  1  0
 18  4  1  1
 17 18  1  0
 18 19  1  0
 15 20  1  0
 19 20  1  0
 21 22  2  0
 22 23  1  0
 23 24  2  0
 24 25  1  0
  6 26  1  0
 21 26  1  0
 25 26  2  0
 27 28  2  0
 28 29  1  0
 29 30  2  0
 30 31  1  0
 11 32  1  0
 27 32  1  0
 31 32  2  0
 33 34  1  0
 34 35  1  0
 35 36  1  0
 36 37  1  0
 12 38  1  0
 33 38  1  0
 37 38  1  0
M  END
