x1351-x0104
     RDKit          3D

 37 40  0  0  0  0  0  0  0  0999 V2000
    7.0420   -3.2180   19.2040 C   0  0  0  0  0  0  0  0  0  0  0  0
    5.1600   -4.5410   19.8480 O   0  0  0  0  0  0  0  0  0  0  0  0
    6.1890   -3.9830   20.1860 C   0  0  0  0  0  0  0  0  0  0  0  0
    5.8370   -2.9620   25.4120 N   0  0  0  0  0  0  0  0  0  0  0  0
    8.1280   -2.2290   25.6720 N   0  0  0  0  0  0  0  0  0  0  0  0
    6.7440   -1.9960   26.0110 C   0  0  0  0  0  0  0  0  0  0  0  0
    9.0620    6.5330   22.6300 C   0  0  0  0  0  0  0  0  0  0  0  0
   10.2950    6.1330   23.3910 C   0  0  0  0  0  0  0  0  0  0  0  0
   10.5400    6.2050   24.5860 O   0  0  0  0  0  0  0  0  0  0  0  0
   11.4090    5.5680   22.6330 N   0  0  0  0  0  0  0  0  0  0  0  0
   12.3190    4.8620   23.4130 C   0  0  0  0  0  0  0  0  0  0  0  0
   12.6690    3.6890   22.7260 C   0  0  0  0  0  0  0  0  0  0  0  0
   13.5730   -1.8890   21.8710 F   0  0  0  0  0  0  0  0  0  0  0  0
    9.1110   -1.4610   26.0430 C   0  0  0  0  0  0  0  0  0  0  0  0
    8.8060   -0.1740   25.6210 C   0  0  0  0  0  0  0  0  0  0  0  0
    9.1830    0.0360   24.2920 C   0  0  0  0  0  0  0  0  0  0  0  0
    6.6300   -4.0910   21.4860 N   0  0  0  0  0  0  0  0  0  0  0  0
    7.3390   -3.1390   22.1170 C   0  0  0  0  0  0  0  0  0  0  0  0
    7.1640   -2.9140   23.4790 C   0  0  0  0  0  0  0  0  0  0  0  0
    5.9250   -3.2630   24.0370 C   0  0  0  0  0  0  0  0  0  0  0  0
    5.5630   -4.7340   23.7490 C   0  0  0  0  0  0  0  0  0  0  0  0
    6.0570   -5.1760   22.3410 C   0  0  0  0  0  0  0  0  0  0  0  0
    6.9560   -0.6300   28.0670 C   0  0  0  0  0  0  0  0  0  0  0  0
    6.4960    0.5840   28.8740 C   0  0  0  0  0  0  0  0  0  0  0  0
    5.5020    1.3870   28.3730 C   0  0  0  0  0  0  0  0  0  0  0  0
    4.8800    1.1380   27.1360 C   0  0  0  0  0  0  0  0  0  0  0  0
    5.3060    0.0100   26.3850 C   0  0  0  0  0  0  0  0  0  0  0  0
    6.3200   -0.8500   26.8380 C   0  0  0  0  0  0  0  0  0  0  0  0
   11.7960    2.5180   23.1340 C   0  0  0  0  0  0  0  0  0  0  0  0
   10.6000    2.5820   23.7540 C   0  0  0  0  0  0  0  0  0  0  0  0
    9.7750    1.3760   24.0880 N   0  0  0  0  0  0  0  0  0  0  0  0
   10.7590    0.5730   23.5170 C   0  0  0  0  0  0  0  0  0  0  0  0
   11.9330    1.1310   22.9840 C   0  0  0  0  0  0  0  0  0  0  0  0
   10.5670   -0.8380   23.4640 C   0  0  0  0  0  0  0  0  0  0  0  0
   11.4810   -1.6370   22.9170 C   0  0  0  0  0  0  0  0  0  0  0  0
   12.6840   -1.0790   22.4010 C   0  0  0  0  0  0  0  0  0  0  0  0
   12.9180    0.2930   22.4460 C   0  0  0  0  0  0  0  0  0  0  0  0
  1  3  1  0
  2  3  2  0
  4  6  1  0
  5  6  2  3
  7  8  1  0
  8  9  2  0
  8 10  1  0
 10 11  1  0
 11 12  1  0
  5 14  1  0
 14 15  1  0
 15 16  1  0
  3 17  1  0
 17 18  1  0
 18 19  1  0
  4 20  1  0
 19 20  1  0
 20 21  1  0
 17 22  1  0
 21 22  1  0
 23 24  2  0
 24 25  1  0
 25 26  2  0
 26 27  1  0
  6 28  1  0
 23 28  1  0
 27 28  2  0
 12 29  1  0
 29 30  2  0
 16 31  1  0
 30 31  1  0
 31 32  1  0
 29 33  1  0
 32 33  2  0
 32 34  1  0
 34 35  2  0
 13 36  1  0
 35 36  1  0
 33 37  1  0
 36 37  2  0
M  END
