x1351-x1336
     RDKit          3D

 27 30  0  0  0  0  0  0  0  0999 V2000
    6.5190   -5.7870   28.7360 C   0  0  0  0  0  0  0  0  0  0  0  0
    7.4590   -0.7080   26.4810 O   0  0  0  0  0  0  0  0  0  0  0  0
    6.0350   -0.8250   24.8630 C   0  0  0  0  0  0  0  0  0  0  0  0
    5.3690   -4.3020   19.7880 O   0  0  0  0  0  0  0  0  0  0  0  0
   10.2290   -3.3170   24.9400 C   0  0  0  0  0  0  0  0  0  0  0  0
    6.3800   -3.6770   20.1090 C   0  0  0  0  0  0  0  0  0  0  0  0
    7.2830   -3.0890   19.0270 C   0  0  0  0  0  0  0  0  0  0  0  0
    7.1520   -1.9070   25.7690 S   0  0  2  0  0  0  0  0  0  0  0  0
    5.3810   -1.3750   23.8240 N   0  0  0  0  0  0  0  0  0  0  0  0
    7.4690   -5.1660   27.7540 C   0  0  0  0  0  0  0  0  0  0  0  0
    7.1510   -3.9820   27.1370 C   0  0  0  0  0  0  0  0  0  0  0  0
    8.0240   -3.3650   26.2140 C   0  0  0  0  0  0  0  0  0  0  0  0
    9.2470   -3.9460   25.9010 C   0  0  0  0  0  0  0  0  0  0  0  0
    9.5780   -5.1620   26.5200 C   0  0  0  0  0  0  0  0  0  0  0  0
    8.6790   -5.7420   27.4350 C   0  0  0  0  0  0  0  0  0  0  0  0
    6.6680   -3.5370   21.4540 N   0  0  0  0  0  0  0  0  0  0  0  0
    5.6230   -3.2940   22.4170 C   0  0  0  0  0  0  0  0  0  0  0  0
    6.1030   -2.2380   23.1500 C   0  0  2  0  0  0  0  0  0  0  0  0
    6.8340   -2.7720   24.2490 N   0  0  0  0  0  0  0  0  0  0  0  0
    8.0770   -3.0410   23.4840 C   0  0  0  0  0  0  0  0  0  0  0  0
    7.9350   -2.9270   21.9190 C   0  0  0  0  0  0  0  0  0  0  0  0
    5.5230   -0.5080   27.7520 C   0  0  0  0  0  0  0  0  0  0  0  0
    5.3260    0.7850   28.4590 C   0  0  0  0  0  0  0  0  0  0  0  0
    5.3910    1.8130   27.6090 C   0  0  0  0  0  0  0  0  0  0  0  0
    5.6220    1.6870   26.2150 C   0  0  0  0  0  0  0  0  0  0  0  0
    5.8470    0.5100   25.3780 C   0  0  0  0  0  0  0  0  0  0  0  0
    5.7490   -0.5160   26.3850 C   0  0  0  0  0  0  0  0  0  0  0  0
  4  6  2  0
  6  7  1  0
  2  8  2  0
  3  8  2  0
  3  9  1  0
  1 10  1  0
 10 11  2  0
  8 12  1  6
 11 12  1  0
  5 13  1  0
 12 13  2  0
 13 14  1  0
 10 15  1  0
 14 15  2  0
  6 16  1  0
 16 17  1  0
  9 18  1  0
 18 17  1  1
  8 19  1  0
 18 19  1  0
 19 20  1  0
 16 21  1  0
 20 21  1  0
 22 23  2  0
 23 24  1  0
 24 25  2  0
  3 26  1  0
 25 26  1  0
 22 27  1  0
 26 27  2  0
M  END
