x1358-x1351
     RDKit          3D

 20 21  0  0  0  0  0  0  0  0999 V2000
    7.0100   -2.6710   26.0630 C   0  0  0  0  0  0  0  0  0  0  0  0
    5.5730   -0.5680   25.3910 O   0  0  0  0  0  0  0  0  0  0  0  0
    4.5960   -3.3360   25.7570 O   0  0  0  0  0  0  0  0  0  0  0  0
    5.2740   -4.1680   19.7000 O   0  0  0  0  0  0  0  0  0  0  0  0
    5.8860   -3.1420   25.1620 C   0  0  0  0  0  0  0  0  0  0  0  0
    6.3880   -3.7750   20.0120 C   0  0  0  0  0  0  0  0  0  0  0  0
    7.3330   -3.1440   19.0130 C   0  0  0  0  0  0  0  0  0  0  0  0
    8.1900   -3.4520   25.8560 O   0  0  0  0  0  0  0  0  0  0  0  0
    6.0840   -0.4590   26.5100 C   0  0  0  0  0  0  0  0  0  0  0  0
    6.9550   -1.5400   27.1150 C   0  0  0  0  0  0  0  0  0  0  0  0
    7.6100   -1.4210   28.5110 C   0  0  0  0  0  0  0  0  0  0  0  0
    7.3210   -0.1080   29.2850 C   0  0  0  0  0  0  0  0  0  0  0  0
    6.5070    0.8610   28.6820 C   0  0  0  0  0  0  0  0  0  0  0  0
    5.8990    0.7550   27.3810 C   0  0  0  0  0  0  0  0  0  0  0  0
    6.8490   -3.9310   21.3090 N   0  0  0  0  0  0  0  0  0  0  0  0
    7.8550   -3.1740   21.9070 C   0  0  0  0  0  0  0  0  0  0  0  0
    7.4930   -2.7780   23.3230 C   0  0  0  0  0  0  0  0  0  0  0  0
    6.1320   -3.4200   23.6550 C   0  0  0  0  0  0  0  0  0  0  0  0
    6.0760   -4.7940   23.3740 C   0  0  0  0  0  0  0  0  0  0  0  0
    6.3730   -5.1040   22.0480 C   0  0  0  0  0  0  0  0  0  0  0  0
  1  5  1  0
  3  5  2  0
  4  6  2  0
  6  7  1  0
  1  8  2  0
  2  9  1  0
  1 10  1  0
  9 10  2  0
 10 11  1  0
 11 12  2  0
 12 13  1  0
  9 14  1  0
 13 14  2  0
  6 15  1  0
 15 16  1  0
 16 17  1  0
  5 18  1  0
 17 18  1  0
 18 19  1  0
 15 20  1  0
 19 20  1  0
M  END
