x1351-x3303
     RDKit          3D

 42 48  0  0  0  0  0  0  0  0999 V2000
    7.1820   -3.3060   19.2390 C   0  0  0  0  0  0  0  0  0  0  0  0
    5.7380   -5.0740   20.0140 O   0  0  0  0  0  0  0  0  0  0  0  0
    6.4020   -4.0770   20.2860 C   0  0  0  0  0  0  0  0  0  0  0  0
    5.2730   -2.5980   25.2760 N   0  0  0  0  0  0  0  0  0  0  0  0
    6.7210   -3.4620   27.0490 O   0  0  0  0  0  0  0  0  0  0  0  0
    6.1000   -2.4410   26.4510 C   0  0  0  0  0  0  0  0  0  0  0  0
    6.1910   -1.5310   20.8940 C   0  0  0  0  0  0  0  0  0  0  0  0
    5.4100   -2.6930   21.2320 N   0  0  0  0  0  0  0  0  0  0  0  0
    6.3200    1.2970   16.9440 O   0  0  0  0  0  0  0  0  0  0  0  0
    6.3680   -3.5580   21.7240 C   0  0  2  0  0  0  0  0  0  0  0  0
    7.3610   -2.5560   22.3080 C   0  0  1  0  0  0  0  0  0  0  0  0
    6.9530   -2.1270   23.5710 C   0  0  0  0  0  0  0  0  0  0  0  0
    5.7700   -2.8120   23.9240 C   0  0  1  0  0  0  0  0  0  0  0  0
    5.9170   -4.1990   23.8600 C   0  0  0  0  0  0  0  0  0  0  0  0
    5.9710   -4.6220   22.5320 C   0  0  0  0  0  0  0  0  0  0  0  0
    7.0140   -0.6870   28.0950 C   0  0  0  0  0  0  0  0  0  0  0  0
    7.0200    0.6330   28.5950 C   0  0  0  0  0  0  0  0  0  0  0  0
    6.2440    1.7070   28.1390 C   0  0  0  0  0  0  0  0  0  0  0  0
    5.2790    1.4660   26.9750 C   0  0  0  0  0  0  0  0  0  0  0  0
    5.2470    0.0380   26.4040 C   0  0  0  0  0  0  0  0  0  0  0  0
    6.1790   -1.0550   27.0330 C   0  0  0  0  0  0  0  0  0  0  0  0
    8.4490   -0.5170   21.4130 C   0  0  0  0  0  0  0  0  0  0  0  0
    9.0820   -0.5830   22.6180 C   0  0  0  0  0  0  0  0  0  0  0  0
    9.5310   -1.8170   22.9370 N   0  0  0  0  0  0  0  0  0  0  0  0
    8.8010   -2.9340   22.5460 C   0  0  0  0  0  0  0  0  0  0  0  0
    7.4830   -1.6210   21.3040 N   0  0  0  0  0  0  0  0  0  0  0  0
    4.8530    1.8160   18.5240 N   0  0  0  0  0  0  0  0  0  0  0  0
    4.2900    1.5770   19.7100 C   0  0  0  0  0  0  0  0  0  0  0  0
    4.6510    0.5110   20.5620 C   0  0  0  0  0  0  0  0  0  0  0  0
    5.6670   -0.3500   20.1310 C   0  0  0  0  0  0  0  0  0  0  0  0
    6.2450   -0.0870   18.8820 C   0  0  0  0  0  0  0  0  0  0  0  0
    5.8090    0.9830   18.1420 C   0  0  0  0  0  0  0  0  0  0  0  0
   11.8620   -1.0600   22.8710 C   0  0  0  0  0  0  0  0  0  0  0  0
   13.1700   -1.1670   23.3150 C   0  0  0  0  0  0  0  0  0  0  0  0
   13.4850   -2.1100   24.2330 C   0  0  0  0  0  0  0  0  0  0  0  0
   12.4830   -2.9930   24.7320 C   0  0  0  0  0  0  0  0  0  0  0  0
   11.1830   -2.8750   24.2730 C   0  0  0  0  0  0  0  0  0  0  0  0
   10.8930   -1.9200   23.3690 C   0  0  0  0  0  0  0  0  0  0  0  0
    4.0050    0.3230   21.8150 C   0  0  0  0  0  0  0  0  0  0  0  0
    2.9960    1.1840   22.2350 C   0  0  0  0  0  0  0  0  0  0  0  0
    2.5520    2.3460   21.3800 C   0  0  0  0  0  0  0  0  0  0  0  0
    3.2920    2.4740   20.0640 C   0  0  0  0  0  0  0  0  0  0  0  0
  1  3  1  0
  2  3  2  0
  4  6  1  0
  5  6  2  0
  7  8  2  0
 10  3  1  6
  8 10  1  0
 10 11  1  0
 11 12  1  1
 13  4  1  1
 12 13  1  0
 13 14  1  0
 10 15  1  0
 14 15  1  0
 16 17  2  0
 17 18  1  0
 18 19  2  0
 19 20  1  0
  6 21  1  0
 16 21  1  0
 20 21  2  0
 22 23  1  0
 23 24  1  0
 11 25  1  0
 24 25  1  0
  7 26  1  0
 11 26  1  0
 22 26  1  0
 27 28  2  0
 28 29  1  0
  7 30  1  0
 29 30  2  0
 30 31  1  0
  9 32  1  0
 27 32  1  0
 31 32  2  0
 33 34  2  0
 34 35  1  0
 35 36  2  0
 36 37  1  0
 24 38  1  0
 33 38  1  0
 37 38  2  0
 29 39  1  0
 39 40  2  0
 40 41  1  0
 28 42  1  0
 41 42  2  0
M  END
