x1358-x1375
     RDKit          3D

 32 36  0  0  0  0  0  0  0  0999 V2000
    6.8010   -1.8560   25.3820 N   0  0  0  0  0  0  0  0  0  0  0  0
    6.0060    0.6480   25.3650 O   0  0  0  0  0  0  0  0  0  0  0  0
    4.7570   -3.2310   24.9250 N   0  0  0  0  0  0  0  0  0  0  0  0
    5.1950   -5.2460   19.9610 O   0  0  0  0  0  0  0  0  0  0  0  0
    5.9970   -2.9280   24.8190 C   0  0  0  0  0  0  0  0  0  0  0  0
    5.8450   -4.3020   20.3160 C   0  0  0  0  0  0  0  0  0  0  0  0
    6.6220   -3.4170   19.3330 C   0  0  0  0  0  0  0  0  0  0  0  0
    2.8040   -6.7320   22.8420 O   0  0  0  0  0  0  0  0  0  0  0  0
    4.4520   -7.7780   24.3260 O   0  0  0  0  0  0  0  0  0  0  0  0
   11.5030   -4.2090   26.0120 F   0  0  0  0  0  0  0  0  0  0  0  0
    5.9780    0.1040   26.6050 C   0  0  0  0  0  0  0  0  0  0  0  0
    6.3950   -1.3310   26.6540 C   0  0  0  0  0  0  0  0  0  0  0  0
    6.3980   -2.0900   27.9640 C   0  0  0  0  0  0  0  0  0  0  0  0
    5.9650   -1.1930   29.1760 C   0  0  0  0  0  0  0  0  0  0  0  0
    5.5700    0.3040   28.9910 C   0  0  0  0  0  0  0  0  0  0  0  0
    5.6000    0.8370   27.7150 C   0  0  0  0  0  0  0  0  0  0  0  0
    6.0330   -2.5790   21.6630 N   0  0  0  0  0  0  0  0  0  0  0  0
    7.2780   -2.1810   22.0390 C   0  0  0  0  0  0  0  0  0  0  0  0
    7.8490   -3.2860   22.9280 C   0  0  0  0  0  0  0  0  0  0  0  0
    6.7220   -3.9330   23.7930 C   0  0  2  0  0  0  0  0  0  0  0  0
    5.6110   -4.5390   22.9430 C   0  0  2  0  0  0  0  0  0  0  0  0
    6.0190   -3.8970   21.7640 C   0  0  1  0  0  0  0  0  0  0  0  0
    8.3130   -3.8120   24.4040 C   0  0  0  0  0  0  0  0  0  0  0  0
    9.6170   -3.5390   24.7950 C   0  0  0  0  0  0  0  0  0  0  0  0
   10.2600   -4.4020   25.5980 C   0  0  0  0  0  0  0  0  0  0  0  0
    9.5500   -5.4740   25.9540 C   0  0  0  0  0  0  0  0  0  0  0  0
    8.2780   -5.6540   25.5300 C   0  0  0  0  0  0  0  0  0  0  0  0
    7.4320   -4.9160   24.7090 C   0  0  0  0  0  0  0  0  0  0  0  0
    4.6760   -4.3580   24.1870 C   0  0  0  0  0  0  0  0  0  0  0  0
    5.3650   -6.1050   22.6360 C   0  0  0  0  0  0  0  0  0  0  0  0
    3.9960   -6.5970   23.6360 S   0  0  0  0  0  0  0  0  0  0  0  0
    3.8460   -5.2870   24.6280 C   0  0  0  0  0  0  0  0  0  0  0  0
  1  5  1  0
  3  5  2  0
  4  6  2  0
  6  7  1  0
  2 11  1  0
  1 12  1  0
 11 12  2  0
 12 13  1  0
 13 14  2  0
 14 15  1  0
 11 16  1  0
 15 16  2  0
 17 18  1  0
 18 19  1  0
  5 20  1  0
 19 20  1  0
 20 21  1  0
 22  6  1  6
 17 22  1  0
 21 22  1  0
 23 24  2  0
 10 25  1  0
 24 25  1  0
 25 26  2  0
 26 27  1  0
 20 28  1  1
 23 28  1  0
 27 28  2  0
  3 29  1  0
 21 29  1  0
 21 30  1  6
 31  8  1  0
  9 31  1  0
 30 31  1  0
 29 32  2  0
 31 32  1  0
M  END
