x1351-x2694
     RDKit          3D

 48 52  0  0  0  0  0  0  0  0999 V2000
    7.6800   -0.7670   21.7610 N   0  0  0  0  0  0  0  0  0  0  0  0
    7.7740    2.5960   22.7160 N   0  0  0  0  0  0  0  0  0  0  0  0
    9.1210    1.7520   21.1110 O   0  0  0  0  0  0  0  0  0  0  0  0
   11.1750    6.8330   24.0150 O   0  0  0  0  0  0  0  0  0  0  0  0
    7.1650    0.5070   21.6770 C   0  0  1  0  0  0  0  0  0  0  0  0
    8.1200    1.6450   21.7870 C   0  0  0  0  0  0  0  0  0  0  0  0
   10.3110    2.0590   24.0060 C   0  0  0  0  0  0  0  0  0  0  0  0
   11.8970    6.6110   24.9870 C   0  0  0  0  0  0  0  0  0  0  0  0
   12.4900   -1.5550   23.2560 C   0  0  0  0  0  0  0  0  0  0  0  0
   12.8810   -0.1230   23.5060 C   0  0  0  0  0  0  0  0  0  0  0  0
   13.0620   -1.9650   21.8890 C   0  0  0  0  0  0  0  0  0  0  0  0
   12.9720   -2.4450   24.4310 C   0  0  0  0  0  0  0  0  0  0  0  0
    6.9690   -3.2560   19.2610 C   0  0  0  0  0  0  0  0  0  0  0  0
    5.1110   -4.6240   19.8550 O   0  0  0  0  0  0  0  0  0  0  0  0
    6.1370   -4.0890   20.2150 C   0  0  0  0  0  0  0  0  0  0  0  0
    5.8110   -2.8580   25.1750 N   0  0  0  0  0  0  0  0  0  0  0  0
    7.0080   -3.5930   27.0820 O   0  0  0  0  0  0  0  0  0  0  0  0
    6.3620   -2.6370   26.3840 C   0  0  0  0  0  0  0  0  0  0  0  0
    6.7020   -1.8210   21.8490 C   0  0  0  0  0  0  0  0  0  0  0  0
    6.3000    0.2640   17.9440 N   0  0  0  0  0  0  0  0  0  0  0  0
    5.1270    1.1260   17.8410 C   0  0  0  0  0  0  0  0  0  0  0  0
    4.5120    1.8550   19.0200 C   0  0  0  0  0  0  0  0  0  0  0  0
    5.1600    1.6840   20.3870 C   0  0  0  0  0  0  0  0  0  0  0  0
    6.4110    0.7650   20.4510 C   0  0  0  0  0  0  0  0  0  0  0  0
    6.9550    0.0540   19.1840 C   0  0  0  0  0  0  0  0  0  0  0  0
    8.8470   -1.0350   23.9040 N   0  0  0  0  0  0  0  0  0  0  0  0
   10.1710   -1.2540   24.3390 O   0  0  0  0  0  0  0  0  0  0  0  0
   10.9580   -1.3360   23.2480 C   0  0  0  0  0  0  0  0  0  0  0  0
   10.1240   -1.1750   22.1960 C   0  0  0  0  0  0  0  0  0  0  0  0
    8.8150   -0.9810   22.5270 C   0  0  0  0  0  0  0  0  0  0  0  0
    9.8200    3.4170   23.6410 C   0  0  0  0  0  0  0  0  0  0  0  0
   10.6390    4.5010   23.9400 C   0  0  0  0  0  0  0  0  0  0  0  0
   10.2680    5.7990   23.6490 C   0  0  0  0  0  0  0  0  0  0  0  0
    9.0650    6.0520   23.0330 C   0  0  0  0  0  0  0  0  0  0  0  0
    8.2390    4.9910   22.7210 C   0  0  0  0  0  0  0  0  0  0  0  0
    8.5980    3.6700   23.0210 C   0  0  0  0  0  0  0  0  0  0  0  0
    6.5950   -4.2510   21.5040 N   0  0  0  0  0  0  0  0  0  0  0  0
    7.3380   -3.1960   22.1560 C   0  0  2  0  0  0  0  0  0  0  0  0
    7.4830   -3.2560   23.5780 C   0  0  0  0  0  0  0  0  0  0  0  0
    6.4150   -3.8460   24.2730 C   0  0  2  0  0  0  0  0  0  0  0  0
    5.4200   -4.4510   23.5100 C   0  0  0  0  0  0  0  0  0  0  0  0
    5.9260   -5.1710   22.4140 C   0  0  0  0  0  0  0  0  0  0  0  0
    6.9440   -0.8130   28.1290 C   0  0  0  0  0  0  0  0  0  0  0  0
    6.7910    0.5710   28.7320 C   0  0  0  0  0  0  0  0  0  0  0  0
    5.8350    1.6230   28.1460 C   0  0  0  0  0  0  0  0  0  0  0  0
    5.0240    1.2260   26.9020 C   0  0  0  0  0  0  0  0  0  0  0  0
    5.2270   -0.1970   26.3390 C   0  0  0  0  0  0  0  0  0  0  0  0
    6.2160   -1.1920   27.0080 C   0  0  0  0  0  0  0  0  0  0  0  0
  1  5  1  0
  2  6  1  0
  3  6  2  0
  5  6  1  6
  4  8  1  0
  9 10  1  0
  9 11  1  0
  9 12  1  0
 13 15  1  0
 14 15  2  0
 16 18  1  0
 17 18  2  0
  1 19  1  0
 20 21  2  0
 21 22  1  0
 22 23  2  0
  5 24  1  0
 23 24  1  0
 20 25  1  0
 24 25  2  0
 26 27  1  0
  9 28  1  0
 27 28  1  0
 28 29  2  0
  1 30  1  0
 26 30  2  0
 29 30  1  0
  7 31  1  0
 31 32  2  0
  4 33  1  0
 32 33  1  0
 33 34  2  0
 34 35  1  0
  2 36  1  0
 31 36  1  0
 35 36  2  0
 15 37  1  0
 38 19  1  1
 37 38  1  0
 38 39  1  0
 40 16  1  6
 39 40  1  0
 40 41  1  0
 37 42  1  0
 41 42  1  0
 43 44  2  0
 44 45  1  0
 45 46  2  0
 46 47  1  0
 18 48  1  0
 43 48  1  0
 47 48  2  0
M  END
