x1358-x0736
     RDKit          3D

 24 26  0  0  0  0  0  0  0  0999 V2000
    6.9310   -2.4900   26.2100 N   0  0  0  0  0  0  0  0  0  0  0  0
    5.3510   -0.3100   25.5190 O   0  0  0  0  0  0  0  0  0  0  0  0
    4.6560   -2.9150   25.5770 O   0  0  0  0  0  0  0  0  0  0  0  0
    5.2020   -4.2210   19.7120 O   0  0  0  0  0  0  0  0  0  0  0  0
    5.8380   -2.8340   25.2560 C   0  0  0  0  0  0  0  0  0  0  0  0
    6.2990   -3.7940   20.0340 C   0  0  0  0  0  0  0  0  0  0  0  0
    7.2490   -3.1820   19.0400 C   0  0  0  0  0  0  0  0  0  0  0  0
    5.7030   -0.3930   26.8310 C   0  0  0  0  0  0  0  0  0  0  0  0
    6.5250   -1.5750   27.2160 C   0  0  0  0  0  0  0  0  0  0  0  0
    6.9750   -1.7680   28.6280 C   0  0  0  0  0  0  0  0  0  0  0  0
    6.5370   -0.6630   29.6330 C   0  0  0  0  0  0  0  0  0  0  0  0
    5.6710    0.5360   29.0850 C   0  0  0  0  0  0  0  0  0  0  0  0
    5.3140    0.5840   27.7290 C   0  0  0  0  0  0  0  0  0  0  0  0
    6.7380   -3.9080   21.3390 N   0  0  0  0  0  0  0  0  0  0  0  0
    7.7290   -2.9520   21.8130 C   0  0  0  0  0  0  0  0  0  0  0  0
    7.7010   -3.0450   23.3300 C   0  0  0  0  0  0  0  0  0  0  0  0
    6.2350   -3.1710   23.7250 C   0  0  0  0  0  0  0  0  0  0  0  0
    5.7300   -4.5750   23.3100 C   0  0  0  0  0  0  0  0  0  0  0  0
    6.4180   -5.0480   22.2000 C   0  0  0  0  0  0  0  0  0  0  0  0
    8.3880   -0.8460   24.8280 O   0  0  0  0  0  0  0  0  0  0  0  0
    8.0160   -1.5700   25.9810 C   0  0  0  0  0  0  0  0  0  0  0  0
    8.8810   -1.2100   26.9640 C   0  0  0  0  0  0  0  0  0  0  0  0
    9.7300   -0.3520   26.5250 C   0  0  0  0  0  0  0  0  0  0  0  0
    9.4860   -0.0800   25.2180 C   0  0  0  0  0  0  0  0  0  0  0  0
  1  5  1  0
  3  5  2  0
  4  6  2  0
  6  7  1  0
  2  8  1  0
  1  9  1  0
  8  9  2  0
  9 10  1  0
 10 11  2  0
 11 12  1  0
  8 13  1  0
 12 13  2  0
  6 14  1  0
 14 15  1  0
 15 16  1  0
  5 17  1  0
 16 17  1  0
 17 18  1  0
 14 19  1  0
 18 19  1  0
  1 21  1  0
 20 21  1  0
 21 22  2  0
 22 23  1  0
 20 24  1  0
 23 24  2  0
M  END
