x1358-x1418
     RDKit          3D

 26 28  0  0  0  0  0  0  0  0999 V2000
    6.9180   -2.5730   25.9860 N   0  0  0  0  0  0  0  0  0  0  0  0
    5.5980   -0.2310   25.2470 O   0  0  0  0  0  0  0  0  0  0  0  0
    4.6310   -3.2980   25.8110 O   0  0  0  0  0  0  0  0  0  0  0  0
    5.3120   -4.1810   19.7350 O   0  0  0  0  0  0  0  0  0  0  0  0
    5.7120   -3.0520   25.2920 C   0  0  0  0  0  0  0  0  0  0  0  0
    6.4120   -3.7480   20.0660 C   0  0  0  0  0  0  0  0  0  0  0  0
    7.3660   -3.1670   19.0570 C   0  0  0  0  0  0  0  0  0  0  0  0
    6.0000   -0.2770   26.5450 C   0  0  0  0  0  0  0  0  0  0  0  0
    6.6990   -1.5280   26.9620 C   0  0  0  0  0  0  0  0  0  0  0  0
    7.1900   -1.6980   28.3860 C   0  0  0  0  0  0  0  0  0  0  0  0
    6.9230   -0.4920   29.3430 C   0  0  0  0  0  0  0  0  0  0  0  0
    6.1760    0.7460   28.7290 C   0  0  0  0  0  0  0  0  0  0  0  0
    5.7610    0.7850   27.3940 C   0  0  0  0  0  0  0  0  0  0  0  0
    6.8520   -3.8320   21.3820 N   0  0  0  0  0  0  0  0  0  0  0  0
    7.6930   -2.7710   21.9200 C   0  0  1  0  0  0  0  0  0  0  0  0
    6.9150   -2.2060   23.1050 C   0  0  0  0  0  0  0  0  0  0  0  0
    5.9440   -3.2570   23.7070 C   0  0  1  0  0  0  0  0  0  0  0  0
    6.3590   -4.7320   23.4660 C   0  0  0  0  0  0  0  0  0  0  0  0
    6.7440   -5.0490   22.1700 C   0  0  0  0  0  0  0  0  0  0  0  0
    9.6350   -2.6820   23.5330 C   0  0  0  0  0  0  0  0  0  0  0  0
   11.8210   -1.6150   22.5080 C   0  0  0  0  0  0  0  0  0  0  0  0
   10.7550   -1.6210   23.4260 C   0  0  0  0  0  0  0  0  0  0  0  0
   10.6960   -0.3000   24.5640 S   0  0  0  0  0  0  0  0  0  0  0  0
   12.1510    0.3380   23.8210 C   0  0  0  0  0  0  0  0  0  0  0  0
   12.6570   -0.3990   22.7810 C   0  0  0  0  0  0  0  0  0  0  0  0
    9.1510   -3.1640   22.3000 C   0  0  0  0  0  0  0  0  0  0  0  0
  1  5  1  0
  3  5  2  0
  4  6  2  0
  6  7  1  0
  2  8  1  0
  1  9  1  0
  8  9  2  0
  9 10  1  0
 10 11  2  0
 11 12  1  0
  8 13  1  0
 12 13  2  0
  6 14  1  0
 14 15  1  0
 15 16  1  0
 17  5  1  1
 16 17  1  0
 17 18  1  0
 14 19  1  0
 18 19  1  0
 20 22  1  0
 21 22  2  0
 22 23  1  0
 23 24  1  0
 21 25  1  0
 24 25  2  0
 15 26  1  1
 20 26  1  0
M  END
