x1358-x2600
     RDKit          3D

 38 41  0  0  0  0  0  0  0  0999 V2000
    7.0140   -2.5100   25.9950 N   0  0  0  0  0  0  0  0  0  0  0  0
    5.4760   -0.4170   25.4200 O   0  0  0  0  0  0  0  0  0  0  0  0
    4.9010   -3.6730   25.7380 O   0  0  0  0  0  0  0  0  0  0  0  0
    5.2090   -4.2190   19.7210 O   0  0  0  0  0  0  0  0  0  0  0  0
    5.9490   -3.2400   25.2710 C   0  0  0  0  0  0  0  0  0  0  0  0
    6.3050   -3.7970   20.0520 C   0  0  0  0  0  0  0  0  0  0  0  0
    7.2180   -3.1370   19.0580 C   0  0  0  0  0  0  0  0  0  0  0  0
   13.5720   -3.2550   20.6580 N   0  0  0  0  0  0  0  0  0  0  0  0
    8.2150    0.1960   21.5970 C   0  0  0  0  0  0  0  0  0  0  0  0
    8.7040    1.2680   21.1670 O   0  0  0  0  0  0  0  0  0  0  0  0
    8.7350   -0.3870   22.8900 C   0  0  0  0  0  0  0  0  0  0  0  0
    7.2580   -0.4860   20.9930 N   0  0  0  0  0  0  0  0  0  0  0  0
   12.9990   -2.1660   21.4560 C   0  0  0  0  0  0  0  0  0  0  0  0
    6.5180   -1.6020   21.6490 C   0  0  0  0  0  0  0  0  0  0  0  0
    6.0820   -0.4200   26.6530 C   0  0  0  0  0  0  0  0  0  0  0  0
    6.9010   -1.5130   26.9850 C   0  0  0  0  0  0  0  0  0  0  0  0
    7.6000   -1.6530   28.2410 C   0  0  0  0  0  0  0  0  0  0  0  0
    7.4080   -0.5090   29.2530 C   0  0  0  0  0  0  0  0  0  0  0  0
    6.5170    0.6760   28.8850 C   0  0  0  0  0  0  0  0  0  0  0  0
    5.8500    0.6670   27.5100 C   0  0  0  0  0  0  0  0  0  0  0  0
    6.7720   -3.9520   21.3280 N   0  0  0  0  0  0  0  0  0  0  0  0
    7.3600   -2.8920   21.9580 C   0  0  2  0  0  0  0  0  0  0  0  0
    7.4350   -2.9760   23.3240 C   0  0  0  0  0  0  0  0  0  0  0  0
    6.2390   -3.4200   23.8420 C   0  0  1  0  0  0  0  0  0  0  0  0
    5.9260   -4.7010   23.4110 C   0  0  0  0  0  0  0  0  0  0  0  0
    6.3110   -4.9740   22.0990 C   0  0  0  0  0  0  0  0  0  0  0  0
    6.2360    0.6460   17.6060 N   0  0  0  0  0  0  0  0  0  0  0  0
    6.9560   -0.0260   18.6920 C   0  0  0  0  0  0  0  0  0  0  0  0
    6.5980    0.1190   20.0050 C   0  0  0  0  0  0  0  0  0  0  0  0
    5.4990    0.9400   20.2400 C   0  0  0  0  0  0  0  0  0  0  0  0
    4.7760    1.6020   19.2510 C   0  0  0  0  0  0  0  0  0  0  0  0
    5.1900    1.4250   17.9270 C   0  0  0  0  0  0  0  0  0  0  0  0
   10.8780    0.6530   23.6930 C   0  0  0  0  0  0  0  0  0  0  0  0
   12.2540    0.6950   23.7000 C   0  0  0  0  0  0  0  0  0  0  0  0
   12.9860   -0.2220   22.9670 C   0  0  0  0  0  0  0  0  0  0  0  0
   12.3340   -1.1900   22.2270 C   0  0  0  0  0  0  0  0  0  0  0  0
   10.9660   -1.2320   22.2160 C   0  0  0  0  0  0  0  0  0  0  0  0
   10.2210   -0.3190   22.9400 C   0  0  0  0  0  0  0  0  0  0  0  0
  1  5  1  0
  3  5  2  0
  4  6  2  0
  6  7  1  0
  9 10  2  0
  9 11  1  0
  9 12  1  0
  8 13  3  0
 12 14  1  0
  2 15  1  0
  1 16  1  0
 15 16  2  0
 16 17  1  0
 17 18  2  0
 18 19  1  0
 15 20  1  0
 19 20  2  0
  6 21  1  0
 22 14  1  1
 21 22  1  0
 22 23  1  0
 24  5  1  1
 23 24  1  0
 24 25  1  0
 21 26  1  0
 25 26  1  0
 27 28  2  0
 12 29  1  0
 28 29  1  0
 29 30  2  0
 30 31  1  0
 27 32  1  0
 31 32  2  0
 33 34  2  0
 34 35  1  0
 13 36  1  0
 35 36  2  0
 36 37  1  0
 11 38  1  0
 33 38  1  0
 37 38  2  0
M  END
