x1351-x1380
     RDKit          3D

 25 28  0  0  0  0  0  0  0  0999 V2000
    7.0430   -3.1990   19.1490 C   0  0  0  0  0  0  0  0  0  0  0  0
    5.1710   -4.5200   19.8440 O   0  0  0  0  0  0  0  0  0  0  0  0
    6.1810   -3.9130   20.1670 C   0  0  0  0  0  0  0  0  0  0  0  0
    5.9890   -3.2750   25.3590 N   0  0  1  0  0  0  0  0  0  0  0  0
    7.5620   -2.7910   26.8300 N   0  0  0  0  0  0  0  0  0  0  0  0
    6.3780   -2.1500   26.2370 C   0  0  0  0  0  0  0  0  0  0  0  0
    4.7520   -3.3230   25.2870 O   0  0  0  0  0  0  0  0  0  0  0  0
    6.5930   -3.9120   21.4810 N   0  0  0  0  0  0  0  0  0  0  0  0
    7.5200   -3.0320   21.9910 C   0  0  0  0  0  0  0  0  0  0  0  0
    7.0830   -2.4680   23.2970 C   0  0  0  0  0  0  0  0  0  0  0  0
    6.5330   -3.6030   24.0950 C   0  0  0  0  0  0  0  0  0  0  0  0
    5.6280   -4.3340   23.3130 C   0  0  0  0  0  0  0  0  0  0  0  0
    6.3000   -4.8150   22.1680 C   0  0  0  0  0  0  0  0  0  0  0  0
    7.1810   -0.5150   28.0420 C   0  0  0  0  0  0  0  0  0  0  0  0
    7.1030    0.7490   28.6870 C   0  0  0  0  0  0  0  0  0  0  0  0
    6.1770    1.7270   28.2290 C   0  0  0  0  0  0  0  0  0  0  0  0
    5.3470    1.4330   27.1390 C   0  0  0  0  0  0  0  0  0  0  0  0
    5.4050    0.2180   26.5020 C   0  0  0  0  0  0  0  0  0  0  0  0
    6.3760   -0.8580   26.9570 C   0  0  0  0  0  0  0  0  0  0  0  0
    7.7550   -4.1080   26.3120 C   0  0  1  0  0  0  0  0  0  0  0  0
    7.9920   -5.3060   27.3060 C   0  0  0  0  0  0  0  0  0  0  0  0
    7.4560   -5.0400   28.7010 C   0  0  0  0  0  0  0  0  0  0  0  0
    6.2570   -4.3600   28.6950 C   0  0  0  0  0  0  0  0  0  0  0  0
    5.5630   -4.2600   27.4870 C   0  0  0  0  0  0  0  0  0  0  0  0
    6.4220   -4.4650   26.2850 N   0  0  0  0  0  0  0  0  0  0  0  0
  1  3  1  0
  2  3  2  0
  4  6  1  0
  5  6  2  0
  4  7  1  6
  3  8  1  0
  8  9  1  0
  9 10  1  0
  4 11  1  0
 10 11  1  0
 11 12  1  0
  8 13  1  0
 12 13  1  0
 14 15  2  0
 15 16  1  0
 16 17  2  0
 17 18  1  0
  6 19  1  0
 14 19  1  0
 18 19  2  0
  5 20  1  0
 20 21  1  1
 21 22  1  0
 22 23  1  0
 23 24  1  0
  4 25  1  0
 20 25  1  0
 24 25  1  0
M  CHG  2   4   1   7  -1
M  END
