x1358-x3110
     RDKit          3D

 47 50  0  0  0  0  0  0  0  0999 V2000
    8.1230    1.2710   23.2710 N   0  0  0  0  0  0  0  0  0  0  0  0
   13.4100    5.1700   22.9140 C   0  0  0  0  0  0  0  0  0  0  0  0
   12.0550    3.2760   22.4050 O   0  0  0  0  0  0  0  0  0  0  0  0
   12.4780    4.5480   21.9030 C   0  0  0  0  0  0  0  0  0  0  0  0
    7.6120   -1.5540   21.6690 N   0  0  0  0  0  0  0  0  0  0  0  0
   10.9910    4.3610   24.1000 O   0  0  0  0  0  0  0  0  0  0  0  0
   11.1670    3.3630   23.4160 C   0  0  0  0  0  0  0  0  0  0  0  0
    8.7490    1.5830   21.1130 O   0  0  0  0  0  0  0  0  0  0  0  0
   10.4180    2.0720   23.5850 C   0  0  0  0  0  0  0  0  0  0  0  0
    8.9400    2.3470   23.7880 C   0  0  0  0  0  0  0  0  0  0  0  0
    8.0460    0.9670   21.9260 C   0  0  0  0  0  0  0  0  0  0  0  0
    7.0120   -0.1590   21.5550 C   0  0  1  0  0  0  0  0  0  0  0  0
   12.5510   -1.7670   24.3020 C   0  0  0  0  0  0  0  0  0  0  0  0
   12.6720   -0.6810   25.0870 C   0  0  0  0  0  0  0  0  0  0  0  0
   13.5090   -1.7400   23.1350 C   0  0  0  0  0  0  0  0  0  0  0  0
   12.9130   -3.0200   25.0860 C   0  0  0  0  0  0  0  0  0  0  0  0
    6.6000   -2.5110   25.8300 N   0  0  0  0  0  0  0  0  0  0  0  0
    5.4540   -0.1290   25.2450 O   0  0  0  0  0  0  0  0  0  0  0  0
    4.7070   -3.9570   26.1090 O   0  0  0  0  0  0  0  0  0  0  0  0
    5.0820   -4.2190   19.6890 O   0  0  0  0  0  0  0  0  0  0  0  0
    5.5180   -3.4270   25.3740 C   0  0  0  0  0  0  0  0  0  0  0  0
    6.1340   -3.7460   20.0760 C   0  0  0  0  0  0  0  0  0  0  0  0
    7.1370   -3.1390   19.1400 C   0  0  0  0  0  0  0  0  0  0  0  0
    6.3410    0.3010   17.8360 N   0  0  0  0  0  0  0  0  0  0  0  0
    5.2200    1.0360   17.8980 C   0  0  0  0  0  0  0  0  0  0  0  0
    4.6080    1.4090   19.0660 C   0  0  0  0  0  0  0  0  0  0  0  0
    5.1930    1.0050   20.2550 C   0  0  0  0  0  0  0  0  0  0  0  0
    6.3710    0.2410   20.2410 C   0  0  0  0  0  0  0  0  0  0  0  0
    6.8880   -0.0810   19.0010 C   0  0  0  0  0  0  0  0  0  0  0  0
    9.8690   -2.1420   21.7970 C   0  0  0  0  0  0  0  0  0  0  0  0
   11.0670   -2.1990   22.4340 C   0  0  0  0  0  0  0  0  0  0  0  0
   11.2040   -1.6920   23.7040 C   0  0  0  0  0  0  0  0  0  0  0  0
   10.0950   -1.1260   24.3380 C   0  0  0  0  0  0  0  0  0  0  0  0
    8.8800   -1.0690   23.6760 C   0  0  0  0  0  0  0  0  0  0  0  0
    8.7960   -1.5800   22.3920 C   0  0  0  0  0  0  0  0  0  0  0  0
    5.9730   -0.2810   26.5060 C   0  0  0  0  0  0  0  0  0  0  0  0
    6.5710   -1.5160   26.8430 C   0  0  0  0  0  0  0  0  0  0  0  0
    7.0820   -1.6530   28.1420 C   0  0  0  0  0  0  0  0  0  0  0  0
    7.0250   -0.6340   29.0650 C   0  0  0  0  0  0  0  0  0  0  0  0
    6.4450    0.5800   28.7340 C   0  0  0  0  0  0  0  0  0  0  0  0
    5.9030    0.7810   27.4440 C   0  0  0  0  0  0  0  0  0  0  0  0
    6.5010   -3.7970   21.4790 N   0  0  0  0  0  0  0  0  0  0  0  0
    6.9950   -2.7110   22.3400 C   0  0  2  0  0  0  0  0  0  0  0  0
    5.8400   -2.3420   23.1920 C   0  0  0  0  0  0  0  0  0  0  0  0
    5.4390   -3.6730   23.8580 C   0  0  1  0  0  0  0  0  0  0  0  0
    6.2870   -4.7550   23.5580 C   0  0  0  0  0  0  0  0  0  0  0  0
    6.3160   -5.0580   22.1860 C   0  0  0  0  0  0  0  0  0  0  0  0
  2  4  1  0
  3  4  1  0
  3  7  1  0
  6  7  2  0
  7  9  1  0
  1 10  1  0
  9 10  1  0
  1 11  1  0
  8 11  2  0
  5 12  1  0
 12 11  1  6
 13 14  1  0
 13 15  1  0
 13 16  1  0
 17 21  1  0
 19 21  2  0
 20 22  2  0
 22 23  1  0
 24 25  2  0
 25 26  1  0
 26 27  2  0
 12 28  1  0
 27 28  1  0
 24 29  1  0
 28 29  2  0
 30 31  2  0
 13 32  1  0
 31 32  1  0
 32 33  2  0
 33 34  1  0
  5 35  1  0
 30 35  1  0
 34 35  2  0
 18 36  1  0
 17 37  1  0
 36 37  2  0
 37 38  1  0
 38 39  2  0
 39 40  1  0
 36 41  1  0
 40 41  2  0
 22 42  1  0
 43  5  1  6
 42 43  1  0
 43 44  1  0
 45 21  1  1
 44 45  1  0
 45 46  1  0
 42 47  1  0
 46 47  1  0
M  END
