x1351-x3110-x0426
     RDKit          3D

 58 62  0  0  0  0  0  0  0  0999 V2000
    7.9850    1.2870   23.2790 N   0  0  0  0  0  0  0  0  0  0  0  0
   13.4300    5.2160   22.6510 C   0  0  0  0  0  0  0  0  0  0  0  0
   11.9750    3.3000   22.4770 O   0  0  0  0  0  0  0  0  0  0  0  0
   12.2720    4.4010   22.0130 C   0  0  0  0  0  0  0  0  0  0  0  0
    7.5770   -1.5760   21.5340 N   0  0  0  0  0  0  0  0  0  0  0  0
   11.0480    4.3500   24.1310 O   0  0  0  0  0  0  0  0  0  0  0  0
   11.1800    3.3740   23.4040 C   0  0  0  0  0  0  0  0  0  0  0  0
    8.5490    1.3700   20.9840 O   0  0  0  0  0  0  0  0  0  0  0  0
   10.3530    2.0770   23.5440 C   0  0  0  0  0  0  0  0  0  0  0  0
    8.8470    2.3940   23.6770 C   0  0  0  0  0  0  0  0  0  0  0  0
    7.8940    0.8350   21.9000 C   0  0  0  0  0  0  0  0  0  0  0  0
    6.8980   -0.3500   21.6130 C   0  0  1  0  0  0  0  0  0  0  0  0
   12.5350   -1.7230   24.2990 C   0  0  0  0  0  0  0  0  0  0  0  0
   12.6780   -0.5610   25.2040 C   0  0  0  0  0  0  0  0  0  0  0  0
   13.4370   -1.5780   23.0960 C   0  0  0  0  0  0  0  0  0  0  0  0
   12.9220   -2.9880   25.0330 C   0  0  0  0  0  0  0  0  0  0  0  0
    2.3460    1.7760   23.6680 C   0  0  0  0  0  0  0  0  0  0  0  0
    2.3270    0.5460   23.6470 O   0  0  0  0  0  0  0  0  0  0  0  0
    3.3540    2.5980   22.9670 N   0  0  0  0  0  0  0  0  0  0  0  0
    4.4690    1.8000   22.4460 C   0  0  0  0  0  0  0  0  0  0  0  0
    3.9480    0.8620   21.5490 C   0  0  0  0  0  0  0  0  0  0  0  0
    2.8020    4.4030   25.2210 F   0  0  0  0  0  0  0  0  0  0  0  0
    6.9180   -3.1350   19.2220 C   0  0  0  0  0  0  0  0  0  0  0  0
    5.0990   -4.5690   19.8020 O   0  0  0  0  0  0  0  0  0  0  0  0
    5.9370   -3.7960   20.1930 C   0  0  0  0  0  0  0  0  0  0  0  0
    5.6110   -2.7400   25.3430 N   0  0  0  0  0  0  0  0  0  0  0  0
    6.8450   -3.4390   27.2560 O   0  0  0  0  0  0  0  0  0  0  0  0
    6.2150   -2.5050   26.5260 C   0  0  0  0  0  0  0  0  0  0  0  0
    6.4850    0.4040   17.9710 N   0  0  0  0  0  0  0  0  0  0  0  0
    5.2710    0.9690   17.8540 C   0  0  0  0  0  0  0  0  0  0  0  0
    4.3290    1.1690   19.0130 C   0  0  0  0  0  0  0  0  0  0  0  0
    4.8660    0.6900   20.3520 C   0  0  0  0  0  0  0  0  0  0  0  0
    6.1620    0.1310   20.3790 C   0  0  0  0  0  0  0  0  0  0  0  0
    6.8910    0.0080   19.2020 C   0  0  0  0  0  0  0  0  0  0  0  0
    9.8740   -2.1620   21.7850 C   0  0  0  0  0  0  0  0  0  0  0  0
   11.0640   -2.1960   22.4670 C   0  0  0  0  0  0  0  0  0  0  0  0
   11.1760   -1.6330   23.7170 C   0  0  0  0  0  0  0  0  0  0  0  0
   10.1650   -1.0090   24.4090 C   0  0  0  0  0  0  0  0  0  0  0  0
    8.8660   -0.9560   23.6810 C   0  0  0  0  0  0  0  0  0  0  0  0
    8.7420   -1.5650   22.2910 C   0  0  0  0  0  0  0  0  0  0  0  0
    1.5820    3.8470   25.1990 C   0  0  0  0  0  0  0  0  0  0  0  0
    1.2820    2.5390   24.4450 C   0  0  0  0  0  0  0  0  0  0  0  0
   -0.1530    2.0630   24.5300 C   0  0  0  0  0  0  0  0  0  0  0  0
   -1.1040    2.7720   25.2400 C   0  0  0  0  0  0  0  0  0  0  0  0
   -0.7680    3.9510   25.9010 C   0  0  0  0  0  0  0  0  0  0  0  0
    0.5260    4.4760   25.8860 C   0  0  0  0  0  0  0  0  0  0  0  0
    5.9940   -3.5590   21.5690 N   0  0  0  0  0  0  0  0  0  0  0  0
    7.1420   -2.8410   22.1240 C   0  0  2  0  0  0  0  0  0  0  0  0
    7.0110   -2.6320   23.4870 C   0  0  0  0  0  0  0  0  0  0  0  0
    6.2960   -3.5100   24.2750 C   0  0  2  0  0  0  0  0  0  0  0  0
    5.3990   -4.4100   23.6910 C   0  0  0  0  0  0  0  0  0  0  0  0
    5.6800   -4.7440   22.3670 C   0  0  0  0  0  0  0  0  0  0  0  0
    6.8850   -0.7710   28.1780 C   0  0  0  0  0  0  0  0  0  0  0  0
    6.7840    0.5220   28.6430 C   0  0  0  0  0  0  0  0  0  0  0  0
    5.9830    1.4710   28.0290 C   0  0  0  0  0  0  0  0  0  0  0  0
    5.2400    1.1320   26.8940 C   0  0  0  0  0  0  0  0  0  0  0  0
    5.3260   -0.1820   26.4020 C   0  0  0  0  0  0  0  0  0  0  0  0
    6.1450   -1.1300   27.0440 C   0  0  0  0  0  0  0  0  0  0  0  0
  2  4  1  0
  3  4  1  0
  3  7  1  0
  6  7  2  0
  7  9  1  0
  1 10  1  0
  9 10  1  0
  1 11  1  0
  8 11  2  0
  5 12  1  0
 12 11  1  6
 13 14  1  0
 13 15  1  0
 13 16  1  0
 17 18  2  0
 17 19  1  0
 19 20  1  0
 20 21  1  0
 23 25  1  0
 24 25  2  0
 26 28  1  0
 27 28  2  0
 29 30  2  0
 30 31  1  0
 21 32  1  0
 31 32  2  0
 12 33  1  0
 32 33  1  0
 29 34  1  0
 33 34  2  0
 35 36  2  0
 13 37  1  0
 36 37  1  0
 37 38  2  0
 38 39  1  0
  5 40  1  0
 35 40  1  0
 39 40  2  0
 22 41  1  0
 17 42  1  0
 41 42  2  0
 42 43  1  0
 43 44  2  0
 44 45  1  0
 41 46  1  0
 45 46  2  0
 25 47  1  0
 48  5  1  6
 47 48  1  0
 48 49  1  0
 50 26  1  1
 49 50  1  0
 50 51  1  0
 47 52  1  0
 51 52  1  0
 53 54  2  0
 54 55  1  0
 55 56  2  0
 56 57  1  0
 28 58  1  0
 53 58  1  0
 57 58  2  0
M  END
