x1358-x0689
     RDKit          3D

 26 28  0  0  0  0  0  0  0  0999 V2000
    6.9950   -2.5480   25.7550 N   0  0  0  0  0  0  0  0  0  0  0  0
    5.4120   -0.2040   25.3380 O   0  0  0  0  0  0  0  0  0  0  0  0
    4.9130   -4.0260   25.9910 C   0  0  0  0  0  0  0  0  0  0  0  0
    5.2800   -4.0410   19.6560 O   0  0  0  0  0  0  0  0  0  0  0  0
    6.0560   -3.5190   25.1540 C   0  0  1  0  0  0  0  0  0  0  0  0
    6.4400   -3.7840   19.9530 C   0  0  0  0  0  0  0  0  0  0  0  0
    7.4070   -3.1630   18.9910 C   0  0  0  0  0  0  0  0  0  0  0  0
    4.4280   -5.1270   25.6720 O   0  0  0  0  0  0  0  0  0  0  0  0
    5.5080   -4.4620   27.2240 O   0  0  0  0  0  0  0  0  0  0  0  0
    5.9810   -0.3210   26.4290 C   0  0  0  0  0  0  0  0  0  0  0  0
    6.8320   -1.5490   26.7020 C   0  0  0  0  0  0  0  0  0  0  0  0
    7.5270   -1.6460   28.0860 C   0  0  0  0  0  0  0  0  0  0  0  0
    7.3360   -0.5170   29.1220 C   0  0  0  0  0  0  0  0  0  0  0  0
    6.5340    0.5670   28.7750 C   0  0  0  0  0  0  0  0  0  0  0  0
    5.8540    0.7340   27.5120 C   0  0  0  0  0  0  0  0  0  0  0  0
    6.9620   -4.1230   21.1930 N   0  0  0  0  0  0  0  0  0  0  0  0
    7.7850   -3.2620   21.8010 C   0  0  0  0  0  0  0  0  0  0  0  0
    7.3170   -2.7480   23.1590 C   0  0  0  0  0  0  0  0  0  0  0  0
    5.9910   -3.3800   23.6250 C   0  0  0  0  0  0  0  0  0  0  0  0
    5.6200   -4.6090   23.0600 C   0  0  0  0  0  0  0  0  0  0  0  0
    6.3110   -5.0470   21.9550 C   0  0  0  0  0  0  0  0  0  0  0  0
    3.7850   -3.1770   26.4280 C   0  0  0  0  0  0  0  0  0  0  0  0
    2.8180   -4.0930   26.7910 C   0  0  0  0  0  0  0  0  0  0  0  0
    1.5920   -3.8620   26.1950 C   0  0  0  0  0  0  0  0  0  0  0  0
    1.7030   -2.7470   25.4120 C   0  0  0  0  0  0  0  0  0  0  0  0
    3.0080   -2.2400   25.4690 C   0  0  0  0  0  0  0  0  0  0  0  0
  5  1  1  1
  3  5  1  0
  4  6  2  0
  6  7  1  0
  3  8  1  0
  3  9  1  0
  2 10  1  0
  1 11  1  0
 10 11  2  0
 11 12  1  0
 12 13  2  0
 13 14  1  0
 10 15  1  0
 14 15  2  0
  6 16  1  0
 16 17  1  0
 17 18  1  0
  5 19  1  0
 18 19  1  0
 19 20  1  0
 16 21  1  0
 20 21  1  0
  3 22  1  0
 22 23  1  0
 23 24  2  0
 24 25  1  0
 22 26  1  0
 25 26  2  0
M  END
