x1351-x1425
     RDKit          3D

 25 27  0  0  0  0  0  0  0  0999 V2000
    7.0910   -3.2110   19.1960 C   0  0  0  0  0  0  0  0  0  0  0  0
    5.1940   -4.5180   19.8530 O   0  0  0  0  0  0  0  0  0  0  0  0
    6.2530   -3.9940   20.1740 C   0  0  0  0  0  0  0  0  0  0  0  0
    7.8920   -2.8140   25.9210 O   0  0  0  0  0  0  0  0  0  0  0  0
    6.7530   -2.1900   26.3080 C   0  0  0  0  0  0  0  0  0  0  0  0
    1.0700   -2.4080   28.0150 C   0  0  0  0  0  0  0  0  0  0  0  0
    2.2780   -2.5140   28.2200 O   0  0  0  0  0  0  0  0  0  0  0  0
    6.7650   -4.1630   21.4510 N   0  0  0  0  0  0  0  0  0  0  0  0
    7.4480   -3.0510   22.2010 C   0  0  0  0  0  0  0  0  0  0  0  0
    6.5460   -2.7000   23.3600 C   0  0  0  0  0  0  0  0  0  0  0  0
    6.0720   -3.8580   24.0220 C   0  0  0  0  0  0  0  0  0  0  0  0
    5.3460   -4.7320   23.1780 C   0  0  0  0  0  0  0  0  0  0  0  0
    6.1720   -5.2050   22.1670 C   0  0  0  0  0  0  0  0  0  0  0  0
    7.4640   -0.3740   28.1020 C   0  0  0  0  0  0  0  0  0  0  0  0
    7.2810    0.9250   28.6750 C   0  0  0  0  0  0  0  0  0  0  0  0
    6.3090    1.8480   28.1740 C   0  0  0  0  0  0  0  0  0  0  0  0
    5.5040    1.5070   27.0980 C   0  0  0  0  0  0  0  0  0  0  0  0
    5.6300    0.1690   26.4400 C   0  0  0  0  0  0  0  0  0  0  0  0
    6.6660   -0.8180   26.9780 C   0  0  0  0  0  0  0  0  0  0  0  0
    3.0960   -2.9230   27.1130 C   0  0  0  0  0  0  0  0  0  0  0  0
    4.5240   -2.4060   27.1770 C   0  0  0  0  0  0  0  0  0  0  0  0
    5.4330   -2.7140   26.1920 C   0  0  0  0  0  0  0  0  0  0  0  0
    5.0850   -3.5120   25.0990 C   0  0  0  0  0  0  0  0  0  0  0  0
    3.7470   -3.9860   25.0480 C   0  0  0  0  0  0  0  0  0  0  0  0
    2.7720   -3.7130   26.0110 C   0  0  0  0  0  0  0  0  0  0  0  0
  1  3  1  0
  2  3  2  0
  4  5  2  0
  6  7  1  0
  3  8  1  0
  8  9  1  0
  9 10  1  0
 10 11  1  0
 11 12  1  0
  8 13  1  0
 12 13  1  0
 14 15  2  0
 15 16  1  0
 16 17  2  0
 17 18  1  0
  5 19  1  0
 14 19  1  0
 18 19  2  0
  7 20  1  0
 20 21  2  0
  5 22  1  0
 21 22  1  0
 11 23  1  0
 22 23  2  0
 23 24  1  0
 20 25  1  0
 24 25  2  0
M  END
