x1358-x2119
     RDKit          3D

 19 20  0  0  0  0  0  0  0  0999 V2000
    6.9650   -2.4200   26.0150 N   0  0  0  0  0  0  0  0  0  0  0  0
    5.6280   -0.1270   25.2350 O   0  0  0  0  0  0  0  0  0  0  0  0
    4.7180   -3.2710   25.6630 O   0  0  0  0  0  0  0  0  0  0  0  0
    5.1980   -4.0160   19.6090 O   0  0  0  0  0  0  0  0  0  0  0  0
    5.8840   -3.1190   25.3060 C   0  0  0  0  0  0  0  0  0  0  0  0
    6.3440   -3.7970   19.9620 C   0  0  0  0  0  0  0  0  0  0  0  0
    7.3610   -3.1640   19.0430 C   0  0  0  0  0  0  0  0  0  0  0  0
    5.9310   -0.1900   26.5580 C   0  0  0  0  0  0  0  0  0  0  0  0
    6.6370   -1.4250   26.9960 C   0  0  0  0  0  0  0  0  0  0  0  0
    7.0290   -1.6250   28.4430 C   0  0  0  0  0  0  0  0  0  0  0  0
    6.6560   -0.4530   29.4070 C   0  0  0  0  0  0  0  0  0  0  0  0
    5.9170    0.7780   28.7720 C   0  0  0  0  0  0  0  0  0  0  0  0
    5.5970    0.8420   27.4130 C   0  0  0  0  0  0  0  0  0  0  0  0
    6.7670   -4.1810   21.2300 N   0  0  0  0  0  0  0  0  0  0  0  0
    7.8010   -3.4070   21.8880 C   0  0  0  0  0  0  0  0  0  0  0  0
    7.0760   -2.6510   22.9890 C   0  0  0  0  0  0  0  0  0  0  0  0
    6.4540   -3.7020   23.9140 C   0  0  0  0  0  0  0  0  0  0  0  0
    5.4750   -4.5820   23.1200 C   0  0  0  0  0  0  0  0  0  0  0  0
    6.1010   -5.1980   22.0380 C   0  0  0  0  0  0  0  0  0  0  0  0
  1  5  1  0
  3  5  2  0
  4  6  2  0
  6  7  1  0
  2  8  1  0
  1  9  1  0
  8  9  2  0
  9 10  1  0
 10 11  2  0
 11 12  1  0
  8 13  1  0
 12 13  2  0
  6 14  1  0
 14 15  1  0
 15 16  1  0
  5 17  1  0
 16 17  1  0
 17 18  1  0
 14 19  1  0
 18 19  1  0
M  END
