x1351-x2600
     RDKit          3D

 37 40  0  0  0  0  0  0  0  0999 V2000
    7.0690   -3.1840   19.1650 C   0  0  0  0  0  0  0  0  0  0  0  0
    5.1810   -4.4800   19.8380 O   0  0  0  0  0  0  0  0  0  0  0  0
    6.2060   -3.9000   20.1710 C   0  0  0  0  0  0  0  0  0  0  0  0
    6.0000   -2.9160   25.1750 N   0  0  0  0  0  0  0  0  0  0  0  0
    7.9700   -2.9130   26.6360 O   0  0  0  0  0  0  0  0  0  0  0  0
    6.8290   -2.3230   26.2170 C   0  0  0  0  0  0  0  0  0  0  0  0
   13.5470   -3.1540   20.6850 N   0  0  0  0  0  0  0  0  0  0  0  0
    8.2450    0.1630   21.7280 C   0  0  0  0  0  0  0  0  0  0  0  0
    8.7730    1.2160   21.2770 O   0  0  0  0  0  0  0  0  0  0  0  0
    8.7150   -0.3720   23.0410 C   0  0  0  0  0  0  0  0  0  0  0  0
    7.1820   -0.5740   21.0210 N   0  0  0  0  0  0  0  0  0  0  0  0
   13.0130   -2.1240   21.4580 C   0  0  0  0  0  0  0  0  0  0  0  0
    6.4950   -1.6090   21.7820 C   0  0  0  0  0  0  0  0  0  0  0  0
    6.6200   -3.9550   21.4870 N   0  0  0  0  0  0  0  0  0  0  0  0
    7.1610   -2.8420   22.0520 C   0  0  2  0  0  0  0  0  0  0  0  0
    7.4710   -2.9120   23.4170 C   0  0  0  0  0  0  0  0  0  0  0  0
    6.6350   -3.7630   24.1770 C   0  0  2  0  0  0  0  0  0  0  0  0
    5.5790   -4.3340   23.4480 C   0  0  0  0  0  0  0  0  0  0  0  0
    6.0460   -4.8890   22.2590 C   0  0  0  0  0  0  0  0  0  0  0  0
    7.0420   -0.7340   28.0720 C   0  0  0  0  0  0  0  0  0  0  0  0
    6.7420    0.5350   28.8570 C   0  0  0  0  0  0  0  0  0  0  0  0
    5.7270    1.5450   28.3180 C   0  0  0  0  0  0  0  0  0  0  0  0
    5.0650    1.1630   26.9510 C   0  0  0  0  0  0  0  0  0  0  0  0
    5.4910   -0.1870   26.2780 C   0  0  0  0  0  0  0  0  0  0  0  0
    6.4400   -1.0730   26.8410 C   0  0  0  0  0  0  0  0  0  0  0  0
    6.2850    0.6170   17.6530 N   0  0  0  0  0  0  0  0  0  0  0  0
    6.9040    0.0040   18.6810 C   0  0  0  0  0  0  0  0  0  0  0  0
    6.4600    0.0920   19.9620 C   0  0  0  0  0  0  0  0  0  0  0  0
    5.3380    0.8160   20.2510 C   0  0  0  0  0  0  0  0  0  0  0  0
    4.6570    1.4690   19.2260 C   0  0  0  0  0  0  0  0  0  0  0  0
    5.1680    1.3500   17.9210 C   0  0  0  0  0  0  0  0  0  0  0  0
   10.9140    0.7060   23.7390 C   0  0  0  0  0  0  0  0  0  0  0  0
   12.2750    0.7270   23.6590 C   0  0  0  0  0  0  0  0  0  0  0  0
   12.9960   -0.1920   22.9130 C   0  0  0  0  0  0  0  0  0  0  0  0
   12.3640   -1.1500   22.2370 C   0  0  0  0  0  0  0  0  0  0  0  0
   10.9290   -1.2080   22.2880 C   0  0  0  0  0  0  0  0  0  0  0  0
   10.2090   -0.2740   23.0400 C   0  0  0  0  0  0  0  0  0  0  0  0
  1  3  1  0
  2  3  2  0
  4  6  1  0
  5  6  2  0
  8  9  2  0
  8 10  1  0
  8 11  1  0
  7 12  3  0
 11 13  1  0
  3 14  1  0
 15 13  1  1
 14 15  1  0
 15 16  1  0
 17  4  1  1
 16 17  1  0
 17 18  1  0
 14 19  1  0
 18 19  1  0
 20 21  2  0
 21 22  1  0
 22 23  2  0
 23 24  1  0
  6 25  1  0
 20 25  1  0
 24 25  2  0
 26 27  2  0
 11 28  1  0
 27 28  1  0
 28 29  2  0
 29 30  1  0
 26 31  1  0
 30 31  2  0
 32 33  2  0
 33 34  1  0
 12 35  1  0
 34 35  2  0
 35 36  1  0
 10 37  1  0
 32 37  1  0
 36 37  2  0
M  END
