x1358-x0104
     RDKit          3D

 38 41  0  0  0  0  0  0  0  0999 V2000
    7.2520   -2.1460   25.7550 N   0  0  0  0  0  0  0  0  0  0  0  0
    5.2400    0.1070   25.4770 O   0  0  0  0  0  0  0  0  0  0  0  0
    5.1430   -3.3660   25.5970 O   0  0  0  0  0  0  0  0  0  0  0  0
    5.2340   -4.1270   19.6810 O   0  0  0  0  0  0  0  0  0  0  0  0
    6.2650   -3.0970   25.1650 C   0  0  0  0  0  0  0  0  0  0  0  0
    6.3790   -3.8590   20.0120 C   0  0  0  0  0  0  0  0  0  0  0  0
    7.3120   -3.1730   19.0420 C   0  0  0  0  0  0  0  0  0  0  0  0
    9.0270    6.5260   22.6340 C   0  0  0  0  0  0  0  0  0  0  0  0
   10.2350    6.1310   23.4670 C   0  0  0  0  0  0  0  0  0  0  0  0
   10.2360    6.2370   24.6930 O   0  0  0  0  0  0  0  0  0  0  0  0
   11.3600    5.6260   22.6370 N   0  0  0  0  0  0  0  0  0  0  0  0
   12.4170    4.9110   23.4130 C   0  0  0  0  0  0  0  0  0  0  0  0
   12.5890    3.4870   22.7950 C   0  0  0  0  0  0  0  0  0  0  0  0
   13.5490   -2.0950   21.5580 F   0  0  0  0  0  0  0  0  0  0  0  0
    8.4240   -1.5260   25.0500 C   0  0  0  0  0  0  0  0  0  0  0  0
    9.0530   -0.3830   25.5540 C   0  0  0  0  0  0  0  0  0  0  0  0
    8.8690    0.8320   24.7750 C   0  0  0  0  0  0  0  0  0  0  0  0
    5.8710   -0.1390   26.6700 C   0  0  0  0  0  0  0  0  0  0  0  0
    6.8830   -1.2790   26.8280 C   0  0  0  0  0  0  0  0  0  0  0  0
    7.5150   -1.4450   28.2130 C   0  0  0  0  0  0  0  0  0  0  0  0
    7.1420   -0.5680   29.2110 C   0  0  0  0  0  0  0  0  0  0  0  0
    6.2230    0.4540   29.0190 C   0  0  0  0  0  0  0  0  0  0  0  0
    5.6010    0.6700   27.7930 C   0  0  0  0  0  0  0  0  0  0  0  0
    6.9020   -4.2380   21.3190 N   0  0  0  0  0  0  0  0  0  0  0  0
    7.8340   -3.3720   22.0220 C   0  0  0  0  0  0  0  0  0  0  0  0
    7.0750   -2.7610   23.0040 C   0  0  0  0  0  0  0  0  0  0  0  0
    6.7360   -3.7850   23.8790 C   0  0  0  0  0  0  0  0  0  0  0  0
    5.7310   -4.6000   23.3470 C   0  0  0  0  0  0  0  0  0  0  0  0
    6.1310   -5.0520   22.0790 C   0  0  0  0  0  0  0  0  0  0  0  0
   11.6930    2.3490   23.2460 C   0  0  0  0  0  0  0  0  0  0  0  0
   10.4900    2.4430   23.9870 C   0  0  0  0  0  0  0  0  0  0  0  0
    9.9530    1.1980   24.1610 N   0  0  0  0  0  0  0  0  0  0  0  0
   10.7970    0.2500   23.5190 C   0  0  0  0  0  0  0  0  0  0  0  0
   11.8710    0.9340   22.9910 C   0  0  0  0  0  0  0  0  0  0  0  0
   10.6340   -1.1310   23.3970 C   0  0  0  0  0  0  0  0  0  0  0  0
   11.5660   -1.9010   22.7290 C   0  0  0  0  0  0  0  0  0  0  0  0
   12.6830   -1.3160   22.1950 C   0  0  0  0  0  0  0  0  0  0  0  0
   12.9220    0.0400   22.2860 C   0  0  0  0  0  0  0  0  0  0  0  0
  1  5  1  0
  3  5  2  0
  4  6  2  0
  6  7  1  0
  8  9  1  0
  9 10  2  0
  9 11  1  0
 11 12  1  0
 12 13  1  0
  1 15  1  0
 15 16  1  0
 16 17  1  0
  2 18  1  0
  1 19  1  0
 18 19  2  0
 19 20  1  0
 20 21  2  0
 21 22  1  0
 18 23  1  0
 22 23  2  0
  6 24  1  0
 24 25  1  0
 25 26  1  0
  5 27  1  0
 26 27  1  0
 27 28  1  0
 24 29  1  0
 28 29  1  0
 13 30  1  0
 30 31  2  0
 17 32  1  0
 31 32  1  0
 32 33  1  0
 30 34  1  0
 33 34  2  0
 33 35  1  0
 35 36  2  0
 14 37  1  0
 36 37  1  0
 34 38  1  0
 37 38  2  0
M  END
