x1351-x0981
     RDKit          3D

 29 31  0  0  0  0  0  0  0  0999 V2000
    1.3050   -8.6180   21.4850 C   0  0  0  0  0  0  0  0  0  0  0  0
    2.7880   -6.9510   22.6930 N   0  0  0  0  0  0  0  0  0  0  0  0
    0.5320   -6.5110   22.4040 O   0  0  0  0  0  0  0  0  0  0  0  0
    1.4910   -7.2610   22.2470 C   0  0  0  0  0  0  0  0  0  0  0  0
    2.3480   -8.4160   26.3660 N   0  0  0  0  0  0  0  0  0  0  0  0
    3.9420   -8.2160   24.6400 O   0  0  0  0  0  0  0  0  0  0  0  0
    2.9420   -5.8730   23.5370 C   0  0  1  0  0  0  0  0  0  0  0  0
    4.8710   -5.8790   22.3070 N   0  0  0  0  0  0  0  0  0  0  0  0
    2.5620   -6.2820   24.9510 C   0  0  0  0  0  0  0  0  0  0  0  0
    3.0350   -7.7140   25.2730 C   0  0  0  0  0  0  0  0  0  0  0  0
    4.3400   -5.1750   23.6320 C   0  0  0  0  0  0  0  0  0  0  0  0
    6.9570   -3.2440   19.2730 C   0  0  0  0  0  0  0  0  0  0  0  0
    5.1290   -4.7080   19.8790 O   0  0  0  0  0  0  0  0  0  0  0  0
    6.0790   -4.0650   20.2470 C   0  0  0  0  0  0  0  0  0  0  0  0
    6.0060   -3.0950   25.2610 N   0  0  0  0  0  0  0  0  0  0  0  0
    7.9180   -2.9720   26.6370 O   0  0  0  0  0  0  0  0  0  0  0  0
    6.8710   -2.4480   26.2720 C   0  0  0  0  0  0  0  0  0  0  0  0
    6.4210   -4.0590   21.5740 N   0  0  0  0  0  0  0  0  0  0  0  0
    7.3840   -3.0850   22.1160 C   0  0  0  0  0  0  0  0  0  0  0  0
    7.2060   -2.7260   23.4110 C   0  0  0  0  0  0  0  0  0  0  0  0
    6.6780   -3.7800   24.1410 C   0  0  2  0  0  0  0  0  0  0  0  0
    5.7600   -4.6430   23.4780 C   0  0  0  0  0  0  0  0  0  0  0  0
    6.1110   -5.2870   22.3780 C   0  0  1  0  0  0  0  0  0  0  0  0
    7.1560   -0.6350   28.0900 C   0  0  0  0  0  0  0  0  0  0  0  0
    6.8440    0.5780   28.6890 C   0  0  0  0  0  0  0  0  0  0  0  0
    5.8440    1.2850   28.0300 C   0  0  0  0  0  0  0  0  0  0  0  0
    5.1020    0.8980   26.8000 C   0  0  0  0  0  0  0  0  0  0  0  0
    5.4720   -0.2930   26.2900 C   0  0  0  0  0  0  0  0  0  0  0  0
    6.4670   -1.0980   26.8660 C   0  0  0  0  0  0  0  0  0  0  0  0
  1  4  1  0
  2  4  1  0
  3  4  2  0
  2  7  1  0
  7  9  1  1
  5 10  1  0
  6 10  2  0
  9 10  1  0
  7 11  1  0
  8 11  1  0
 12 14  1  0
 13 14  2  0
 15 17  1  0
 16 17  2  0
 14 18  1  0
 18 19  1  0
 19 20  1  0
 21 15  1  1
 20 21  1  0
 11 22  2  0
 21 22  1  0
 23  8  1  6
 18 23  1  0
 22 23  1  0
 24 25  2  0
 25 26  1  0
 26 27  2  0
 27 28  1  0
 17 29  1  0
 24 29  1  0
 28 29  2  0
M  END
