x1358-x2569
     RDKit          3D

 38 41  0  0  0  0  0  0  0  0999 V2000
    6.8510   -2.5900   25.9470 N   0  0  0  0  0  0  0  0  0  0  0  0
    5.4410   -0.4340   25.3800 O   0  0  0  0  0  0  0  0  0  0  0  0
    4.7030   -3.6840   25.8520 O   0  0  0  0  0  0  0  0  0  0  0  0
    5.3460   -4.2060   19.8010 O   0  0  0  0  0  0  0  0  0  0  0  0
    5.7000   -3.2490   25.2920 C   0  0  0  0  0  0  0  0  0  0  0  0
    6.4560   -3.8280   20.1920 C   0  0  0  0  0  0  0  0  0  0  0  0
    7.3520   -3.1720   19.2030 C   0  0  0  0  0  0  0  0  0  0  0  0
    8.1290    0.3360   21.6290 C   0  0  0  0  0  0  0  0  0  0  0  0
    8.8570    1.2720   21.2380 O   0  0  0  0  0  0  0  0  0  0  0  0
    8.6530   -0.7830   22.4810 C   0  0  1  0  0  0  0  0  0  0  0  0
   13.6860   -3.3370   20.6000 N   0  0  0  0  0  0  0  0  0  0  0  0
    6.8670    0.2030   21.3410 N   0  0  0  0  0  0  0  0  0  0  0  0
   13.1180   -2.2730   21.4320 C   0  0  0  0  0  0  0  0  0  0  0  0
    8.4320   -2.1070   21.6770 C   0  0  0  0  0  0  0  0  0  0  0  0
    6.0650   -0.4500   26.6040 C   0  0  0  0  0  0  0  0  0  0  0  0
    6.8220   -1.5820   26.9330 C   0  0  0  0  0  0  0  0  0  0  0  0
    7.5380   -1.7480   28.1800 C   0  0  0  0  0  0  0  0  0  0  0  0
    7.4330   -0.5840   29.1810 C   0  0  0  0  0  0  0  0  0  0  0  0
    6.6020    0.6450   28.8140 C   0  0  0  0  0  0  0  0  0  0  0  0
    5.9090    0.6580   27.4510 C   0  0  0  0  0  0  0  0  0  0  0  0
    6.9380   -4.0960   21.4830 N   0  0  0  0  0  0  0  0  0  0  0  0
    7.5020   -3.1720   22.3340 C   0  0  2  0  0  0  0  0  0  0  0  0
    6.6420   -2.5100   23.1550 C   0  0  0  0  0  0  0  0  0  0  0  0
    5.7920   -3.3680   23.8270 C   0  0  1  0  0  0  0  0  0  0  0  0
    5.8660   -4.7250   23.4670 C   0  0  0  0  0  0  0  0  0  0  0  0
    6.3290   -5.0570   22.1860 C   0  0  0  0  0  0  0  0  0  0  0  0
   12.0000    0.6190   23.7910 N   0  0  0  0  0  0  0  0  0  0  0  0
   12.9010   -0.3010   23.0650 C   0  0  0  0  0  0  0  0  0  0  0  0
   12.3500   -1.2600   22.2470 C   0  0  0  0  0  0  0  0  0  0  0  0
   11.0230   -1.3620   22.1090 C   0  0  0  0  0  0  0  0  0  0  0  0
   10.1170   -0.5620   22.7320 C   0  0  0  0  0  0  0  0  0  0  0  0
   10.6650    0.4410   23.5850 C   0  0  0  0  0  0  0  0  0  0  0  0
    6.3540    0.6140   17.7340 N   0  0  0  0  0  0  0  0  0  0  0  0
    6.8500    0.2520   18.9220 C   0  0  0  0  0  0  0  0  0  0  0  0
    6.2970    0.5830   20.1320 C   0  0  0  0  0  0  0  0  0  0  0  0
    5.1330    1.3280   20.1530 C   0  0  0  0  0  0  0  0  0  0  0  0
    4.5860    1.7180   18.9450 C   0  0  0  0  0  0  0  0  0  0  0  0
    5.2250    1.3480   17.7780 C   0  0  0  0  0  0  0  0  0  0  0  0
  1  5  1  0
  3  5  2  0
  4  6  2  0
  6  7  1  0
  8  9  2  0
  8 10  1  0
  8 12  1  0
 11 13  3  0
 10 14  1  6
  2 15  1  0
  1 16  1  0
 15 16  2  0
 16 17  1  0
 17 18  2  0
 18 19  1  0
 15 20  1  0
 19 20  2  0
  6 21  1  0
 22 14  1  6
 21 22  1  0
 22 23  1  0
 24  5  1  1
 23 24  1  0
 24 25  1  0
 21 26  1  0
 25 26  1  0
 27 28  2  0
 13 29  1  0
 28 29  1  0
 29 30  2  0
 10 31  1  0
 30 31  1  0
 27 32  1  0
 31 32  2  0
 33 34  2  0
 12 35  1  0
 34 35  1  0
 35 36  2  0
 36 37  1  0
 33 38  1  0
 37 38  2  0
M  END
