x1358-x0769
     RDKit          3D

 28 30  0  0  0  0  0  0  0  0999 V2000
    6.3090   -3.0540   26.5810 N   0  0  0  0  0  0  0  0  0  0  0  0
    5.4120   -0.5650   25.3670 O   0  0  0  0  0  0  0  0  0  0  0  0
    4.9660   -2.9040   24.4680 N   0  0  0  0  0  0  0  0  0  0  0  0
    5.2780   -4.0860   19.6410 O   0  0  0  0  0  0  0  0  0  0  0  0
    6.0570   -3.0350   25.1290 C   0  0  0  0  0  0  0  0  0  0  0  0
    6.3890   -3.6800   19.9550 C   0  0  0  0  0  0  0  0  0  0  0  0
    7.3390   -3.1280   18.9160 C   0  0  0  0  0  0  0  0  0  0  0  0
    5.6230   -5.3870   26.5970 O   0  0  0  0  0  0  0  0  0  0  0  0
    3.5220   -6.6230   25.9440 O   0  0  0  0  0  0  0  0  0  0  0  0
    4.4260   -5.5080   25.7920 S   0  0  0  0  0  0  0  0  0  0  0  0
    6.0550   -0.4730   26.5580 C   0  0  0  0  0  0  0  0  0  0  0  0
    6.5270   -1.7490   27.1880 C   0  0  0  0  0  0  0  0  0  0  0  0
    7.2490   -1.7070   28.5080 C   0  0  0  0  0  0  0  0  0  0  0  0
    7.4580   -0.2920   29.1500 C   0  0  0  0  0  0  0  0  0  0  0  0
    6.9010    0.9540   28.3670 C   0  0  0  0  0  0  0  0  0  0  0  0
    6.2510    0.7620   27.1470 C   0  0  0  0  0  0  0  0  0  0  0  0
    6.8360   -3.7620   21.3330 N   0  0  0  0  0  0  0  0  0  0  0  0
    7.8360   -2.8960   21.7020 C   0  0  0  0  0  0  0  0  0  0  0  0
    7.5560   -2.2110   23.0250 C   0  0  0  0  0  0  0  0  0  0  0  0
    7.2290   -3.2770   24.0670 C   0  0  0  0  0  0  0  0  0  0  0  0
    7.0480   -4.7150   23.4780 C   0  0  0  0  0  0  0  0  0  0  0  0
    6.5800   -4.7750   22.1740 C   0  0  0  0  0  0  0  0  0  0  0  0
    3.8710   -2.8070   25.2630 C   0  0  0  0  0  0  0  0  0  0  0  0
    3.4900   -3.9540   25.9240 C   0  0  0  0  0  0  0  0  0  0  0  0
    2.3670   -3.9490   26.7170 C   0  0  0  0  0  0  0  0  0  0  0  0
    1.6100   -2.7980   26.8720 C   0  0  0  0  0  0  0  0  0  0  0  0
    1.9990   -1.6440   26.2240 C   0  0  0  0  0  0  0  0  0  0  0  0
    3.1290   -1.6160   25.4100 C   0  0  0  0  0  0  0  0  0  0  0  0
  1  5  1  0
  3  5  2  3
  4  6  2  0
  6  7  1  0
  8 10  2  0
  9 10  2  0
  2 11  1  0
  1 12  1  0
 11 12  2  0
 12 13  1  0
 13 14  2  0
 14 15  1  0
 11 16  1  0
 15 16  2  0
  6 17  1  0
 17 18  1  0
 18 19  1  0
  5 20  1  0
 19 20  1  0
 20 21  1  0
 17 22  1  0
 21 22  1  0
  3 23  1  0
 10 24  1  0
 23 24  2  0
 24 25  1  0
 25 26  2  0
 26 27  1  0
 23 28  1  0
 27 28  2  0
M  END
