x1358-x3117
     RDKit          3D

 46 50  0  0  0  0  0  0  0  0999 V2000
    7.7130   -1.5430   21.5250 N   0  0  0  0  0  0  0  0  0  0  0  0
    7.6950    1.8690   23.1420 N   0  0  0  0  0  0  0  0  0  0  0  0
    9.0580    1.4910   21.0490 O   0  0  0  0  0  0  0  0  0  0  0  0
    7.1470   -0.1410   21.6270 C   0  0  1  0  0  0  0  0  0  0  0  0
    8.0170    1.0990   21.9300 C   0  0  0  0  0  0  0  0  0  0  0  0
   12.5910   -1.6340   24.3360 C   0  0  0  0  0  0  0  0  0  0  0  0
   12.5360   -0.4940   25.2390 C   0  0  0  0  0  0  0  0  0  0  0  0
   13.4320   -1.5270   23.5160 C   0  0  0  0  0  0  0  0  0  0  0  0
   12.9190   -2.9660   25.0710 C   0  0  0  0  0  0  0  0  0  0  0  0
    6.7900   -2.5150   26.1060 N   0  0  0  0  0  0  0  0  0  0  0  0
    5.4430   -0.2340   25.3880 O   0  0  0  0  0  0  0  0  0  0  0  0
    4.6920   -3.7030   25.7830 O   0  0  0  0  0  0  0  0  0  0  0  0
    5.0060   -4.1040   19.5710 O   0  0  0  0  0  0  0  0  0  0  0  0
    5.7940   -3.3500   25.3970 C   0  0  0  0  0  0  0  0  0  0  0  0
    6.0580   -3.6520   19.9660 C   0  0  0  0  0  0  0  0  0  0  0  0
    7.1000   -3.0880   19.0350 C   0  0  0  0  0  0  0  0  0  0  0  0
    6.3270    0.2680   17.9750 N   0  0  0  0  0  0  0  0  0  0  0  0
    5.1880    0.9580   17.9090 C   0  0  0  0  0  0  0  0  0  0  0  0
    4.4200    1.4310   19.1400 C   0  0  0  0  0  0  0  0  0  0  0  0
    5.0300    1.0800   20.4880 C   0  0  0  0  0  0  0  0  0  0  0  0
    6.3450    0.2940   20.4460 C   0  0  0  0  0  0  0  0  0  0  0  0
    6.8590   -0.0380   19.1910 C   0  0  0  0  0  0  0  0  0  0  0  0
    9.8600    4.9690   24.0700 O   0  0  0  0  0  0  0  0  0  0  0  0
   10.4300    3.9860   23.6310 C   0  0  0  0  0  0  0  0  0  0  0  0
    9.7750    2.7760   23.6510 C   0  0  0  0  0  0  0  0  0  0  0  0
    8.4050    2.9760   23.5150 C   0  0  0  0  0  0  0  0  0  0  0  0
    8.2070    4.1030   22.6810 C   0  0  0  0  0  0  0  0  0  0  0  0
    8.7060    5.2850   23.2830 C   0  0  0  0  0  0  0  0  0  0  0  0
    9.9810   -2.1940   21.7650 C   0  0  0  0  0  0  0  0  0  0  0  0
   11.1560   -2.2260   22.4350 C   0  0  0  0  0  0  0  0  0  0  0  0
   11.2780   -1.5970   23.6410 C   0  0  0  0  0  0  0  0  0  0  0  0
   10.1660   -0.9200   24.1790 C   0  0  0  0  0  0  0  0  0  0  0  0
    8.9670   -0.8860   23.4800 C   0  0  0  0  0  0  0  0  0  0  0  0
    8.8990   -1.5350   22.2540 C   0  0  0  0  0  0  0  0  0  0  0  0
    5.9510   -0.3180   26.6570 C   0  0  0  0  0  0  0  0  0  0  0  0
    6.6410   -1.4850   27.0550 C   0  0  0  0  0  0  0  0  0  0  0  0
    7.1430   -1.5410   28.3560 C   0  0  0  0  0  0  0  0  0  0  0  0
    6.9900   -0.5010   29.2430 C   0  0  0  0  0  0  0  0  0  0  0  0
    6.3180    0.6490   28.8590 C   0  0  0  0  0  0  0  0  0  0  0  0
    5.7810    0.7670   27.5580 C   0  0  0  0  0  0  0  0  0  0  0  0
    6.3350   -3.6880   21.3840 N   0  0  0  0  0  0  0  0  0  0  0  0
    7.1500   -2.7500   22.1700 C   0  0  2  0  0  0  0  0  0  0  0  0
    6.2690   -2.4150   23.2900 C   0  0  0  0  0  0  0  0  0  0  0  0
    6.3190   -3.7390   24.0320 C   0  0  2  0  0  0  0  0  0  0  0  0
    5.5570   -4.7090   23.3660 C   0  0  0  0  0  0  0  0  0  0  0  0
    6.0630   -4.9650   22.0710 C   0  0  0  0  0  0  0  0  0  0  0  0
  1  4  1  0
  2  5  1  0
  3  5  2  0
  4  5  1  6
  6  7  1  0
  6  8  1  0
  6  9  1  0
 10 14  1  0
 12 14  2  0
 13 15  2  0
 15 16  1  0
 17 18  2  0
 18 19  1  0
 19 20  2  0
  4 21  1  0
 20 21  1  0
 17 22  1  0
 21 22  2  0
 23 24  1  0
 24 25  1  0
  2 26  1  0
 25 26  1  0
 26 27  1  0
 23 28  1  0
 27 28  1  0
 29 30  2  0
  6 31  1  0
 30 31  1  0
 31 32  2  0
 32 33  1  0
  1 34  1  0
 29 34  1  0
 33 34  2  0
 11 35  1  0
 10 36  1  0
 35 36  2  0
 36 37  1  0
 37 38  2  0
 38 39  1  0
 35 40  1  0
 39 40  2  0
 15 41  1  0
 42  1  1  6
 41 42  1  0
 42 43  1  0
 44 14  1  1
 43 44  1  0
 44 45  1  0
 41 46  1  0
 45 46  1  0
M  END
