x1358-x2779
     RDKit          3D

 26 28  0  0  0  0  0  0  0  0999 V2000
    6.9700   -2.4530   25.9900 N   0  0  0  0  0  0  0  0  0  0  0  0
    5.5950   -0.1480   25.2630 O   0  0  0  0  0  0  0  0  0  0  0  0
    4.7020   -3.1810   25.6880 O   0  0  0  0  0  0  0  0  0  0  0  0
    5.1560   -4.1860   19.6740 O   0  0  0  0  0  0  0  0  0  0  0  0
    5.8190   -2.9570   25.2350 C   0  0  0  0  0  0  0  0  0  0  0  0
    6.2460   -3.7520   20.0030 C   0  0  0  0  0  0  0  0  0  0  0  0
    7.2080   -3.1420   19.0110 C   0  0  0  0  0  0  0  0  0  0  0  0
    5.9740   -0.2030   26.5660 C   0  0  0  0  0  0  0  0  0  0  0  0
    6.7020   -1.4360   26.9790 C   0  0  0  0  0  0  0  0  0  0  0  0
    7.1720   -1.6190   28.4050 C   0  0  0  0  0  0  0  0  0  0  0  0
    6.8530   -0.4380   29.3800 C   0  0  0  0  0  0  0  0  0  0  0  0
    6.0830    0.7870   28.7690 C   0  0  0  0  0  0  0  0  0  0  0  0
    5.6910    0.8400   27.4300 C   0  0  0  0  0  0  0  0  0  0  0  0
    6.6470   -3.8570   21.3190 N   0  0  0  0  0  0  0  0  0  0  0  0
    7.7390   -3.0100   21.7440 C   0  0  0  0  0  0  0  0  0  0  0  0
    7.2750   -2.3630   23.0270 C   0  0  1  0  0  0  0  0  0  0  0  0
    6.1500   -3.2260   23.6700 C   0  0  1  0  0  0  0  0  0  0  0  0
    6.4000   -4.7410   23.4390 C   0  0  0  0  0  0  0  0  0  0  0  0
    6.4800   -5.0790   22.0940 C   0  0  0  0  0  0  0  0  0  0  0  0
    9.7520   -2.6860   23.3500 C   0  0  0  0  0  0  0  0  0  0  0  0
   11.9190   -1.5030   22.5430 C   0  0  0  0  0  0  0  0  0  0  0  0
   10.8120   -1.5680   23.4070 C   0  0  0  0  0  0  0  0  0  0  0  0
   10.6630   -0.3040   24.5930 S   0  0  0  0  0  0  0  0  0  0  0  0
   12.1340    0.3900   23.9370 C   0  0  0  0  0  0  0  0  0  0  0  0
   12.7110   -0.2870   22.8950 C   0  0  0  0  0  0  0  0  0  0  0  0
    8.5230   -2.3420   23.9520 C   0  0  0  0  0  0  0  0  0  0  0  0
  1  5  1  0
  3  5  2  0
  4  6  2  0
  6  7  1  0
  2  8  1  0
  1  9  1  0
  8  9  2  0
  9 10  1  0
 10 11  2  0
 11 12  1  0
  8 13  1  0
 12 13  2  0
  6 14  1  0
 14 15  1  0
 15 16  1  0
 17  5  1  1
 16 17  1  0
 17 18  1  0
 14 19  1  0
 18 19  1  0
 20 22  1  0
 21 22  2  0
 22 23  1  0
 23 24  1  0
 21 25  1  0
 24 25  2  0
 16 26  1  1
 20 26  1  0
M  END
