x1351-x2572
     RDKit          3D

 38 41  0  0  0  0  0  0  0  0999 V2000
    7.0290   -3.1290   19.1270 C   0  0  0  0  0  0  0  0  0  0  0  0
    5.1550   -4.4490   19.8030 O   0  0  0  0  0  0  0  0  0  0  0  0
    6.1170   -3.7750   20.1400 C   0  0  0  0  0  0  0  0  0  0  0  0
    5.9970   -2.8500   25.1490 N   0  0  0  0  0  0  0  0  0  0  0  0
    7.9600   -2.9330   26.6170 O   0  0  0  0  0  0  0  0  0  0  0  0
    6.8330   -2.3070   26.2100 C   0  0  0  0  0  0  0  0  0  0  0  0
    4.5380    0.7630   21.6970 C   0  0  0  0  0  0  0  0  0  0  0  0
    8.6460    1.0500   21.3490 O   0  0  0  0  0  0  0  0  0  0  0  0
    7.1560   -0.7020   21.0950 N   0  0  0  0  0  0  0  0  0  0  0  0
   13.6110   -3.2340   20.6310 N   0  0  0  0  0  0  0  0  0  0  0  0
    8.1690   -0.0230   21.7300 C   0  0  0  0  0  0  0  0  0  0  0  0
    8.6740   -0.7000   22.9730 C   0  0  0  0  0  0  0  0  0  0  0  0
   13.0390   -2.1810   21.4010 C   0  0  0  0  0  0  0  0  0  0  0  0
    6.5060   -1.4550   21.9840 C   0  0  0  0  0  0  0  0  0  0  0  0
    6.3760   -3.6670   21.4840 N   0  0  0  0  0  0  0  0  0  0  0  0
    7.1490   -2.7200   22.0820 C   0  0  2  0  0  0  0  0  0  0  0  0
    7.5880   -3.0090   23.4010 C   0  0  0  0  0  0  0  0  0  0  0  0
    6.6720   -3.7430   24.2020 C   0  0  2  0  0  0  0  0  0  0  0  0
    5.7080   -4.4910   23.5070 C   0  0  0  0  0  0  0  0  0  0  0  0
    6.1020   -4.8740   22.2430 C   0  0  0  0  0  0  0  0  0  0  0  0
    7.1080   -0.6950   28.2290 C   0  0  0  0  0  0  0  0  0  0  0  0
    6.7130    0.6200   28.9280 C   0  0  0  0  0  0  0  0  0  0  0  0
    5.6770    1.5760   28.2820 C   0  0  0  0  0  0  0  0  0  0  0  0
    5.1150    1.0870   26.9280 C   0  0  0  0  0  0  0  0  0  0  0  0
    5.5350   -0.1290   26.3670 C   0  0  0  0  0  0  0  0  0  0  0  0
    6.4720   -1.0740   26.8750 C   0  0  0  0  0  0  0  0  0  0  0  0
    6.3580    0.5340   17.7390 N   0  0  0  0  0  0  0  0  0  0  0  0
    6.8930   -0.0500   18.8210 C   0  0  0  0  0  0  0  0  0  0  0  0
    6.3980   -0.0320   20.1100 C   0  0  0  0  0  0  0  0  0  0  0  0
    5.1920    0.6610   20.3460 C   0  0  0  0  0  0  0  0  0  0  0  0
    4.6320    1.2650   19.2150 C   0  0  0  0  0  0  0  0  0  0  0  0
    5.2220    1.1860   17.9790 C   0  0  0  0  0  0  0  0  0  0  0  0
   10.8190    0.5210   23.6470 C   0  0  0  0  0  0  0  0  0  0  0  0
   12.1920    0.7130   23.6280 C   0  0  0  0  0  0  0  0  0  0  0  0
   12.9710   -0.1150   22.9240 C   0  0  0  0  0  0  0  0  0  0  0  0
   12.3120   -1.1960   22.2050 C   0  0  0  0  0  0  0  0  0  0  0  0
   10.9310   -1.3660   22.2350 C   0  0  0  0  0  0  0  0  0  0  0  0
   10.1580   -0.5030   22.9620 C   0  0  0  0  0  0  0  0  0  0  0  0
  1  3  1  0
  2  3  2  0
  4  6  1  0
  5  6  2  0
  8 11  2  0
  9 11  1  0
 11 12  1  0
 10 13  3  0
  9 14  1  0
  3 15  1  0
 16 14  1  1
 15 16  1  0
 16 17  1  0
 18  4  1  1
 17 18  1  0
 18 19  1  0
 15 20  1  0
 19 20  1  0
 21 22  2  0
 22 23  1  0
 23 24  2  0
 24 25  1  0
  6 26  1  0
 21 26  1  0
 25 26  2  0
 27 28  2  0
  9 29  1  0
 28 29  1  0
  7 30  1  0
 29 30  2  0
 30 31  1  0
 27 32  1  0
 31 32  2  0
 33 34  2  0
 34 35  1  0
 13 36  1  0
 35 36  2  0
 36 37  1  0
 12 38  1  0
 33 38  1  0
 37 38  2  0
M  END
