x1351-x2646
     RDKit          3D

 37 40  0  0  0  0  0  0  0  0999 V2000
    7.2080   -3.1630   19.2570 C   0  0  0  0  0  0  0  0  0  0  0  0
    5.3670   -4.5120   19.9010 O   0  0  0  0  0  0  0  0  0  0  0  0
    6.3640   -3.8810   20.2870 C   0  0  0  0  0  0  0  0  0  0  0  0
    5.8100   -3.0110   25.3810 N   0  0  0  0  0  0  0  0  0  0  0  0
    7.9160   -2.9120   26.6390 O   0  0  0  0  0  0  0  0  0  0  0  0
    6.7260   -2.3590   26.3070 C   0  0  0  0  0  0  0  0  0  0  0  0
    4.3940    1.1400   21.4840 C   0  0  0  0  0  0  0  0  0  0  0  0
    8.5130    1.0610   21.5130 O   0  0  0  0  0  0  0  0  0  0  0  0
   13.3070   -2.1170   21.1740 Cl  0  0  0  0  0  0  0  0  0  0  0  0
    6.8040   -0.4810   21.1590 N   0  0  0  0  0  0  0  0  0  0  0  0
    7.9630   -0.0270   21.6890 C   0  0  0  0  0  0  0  0  0  0  0  0
    8.5120   -1.1220   22.5350 C   0  0  1  0  0  0  0  0  0  0  0  0
    8.4280   -2.3160   21.7830 C   0  0  0  0  0  0  0  0  0  0  0  0
    6.6970   -3.9230   21.6580 N   0  0  0  0  0  0  0  0  0  0  0  0
    7.5130   -3.2830   22.2890 C   0  0  2  0  0  0  0  0  0  0  0  0
    6.7450   -2.6860   23.2740 C   0  0  0  0  0  0  0  0  0  0  0  0
    6.3920   -3.6520   24.2120 C   0  0  2  0  0  0  0  0  0  0  0  0
    5.5820   -4.6650   23.6970 C   0  0  0  0  0  0  0  0  0  0  0  0
    6.0490   -4.9980   22.4100 C   0  0  0  0  0  0  0  0  0  0  0  0
    7.0200   -0.7410   28.1310 C   0  0  0  0  0  0  0  0  0  0  0  0
    6.7390    0.5750   28.8680 C   0  0  0  0  0  0  0  0  0  0  0  0
    5.7420    1.5850   28.3010 C   0  0  0  0  0  0  0  0  0  0  0  0
    5.0700    1.1750   26.9650 C   0  0  0  0  0  0  0  0  0  0  0  0
    5.4470   -0.1940   26.3230 C   0  0  0  0  0  0  0  0  0  0  0  0
    6.3820   -1.0860   26.9070 C   0  0  0  0  0  0  0  0  0  0  0  0
    6.3770    0.6850   17.6610 N   0  0  0  0  0  0  0  0  0  0  0  0
    6.9270   -0.0040   18.7970 C   0  0  0  0  0  0  0  0  0  0  0  0
    6.2730    0.1730   19.9930 C   0  0  0  0  0  0  0  0  0  0  0  0
    5.1430    0.9430   20.1450 C   0  0  0  0  0  0  0  0  0  0  0  0
    4.5720    1.6270   19.0650 C   0  0  0  0  0  0  0  0  0  0  0  0
    5.1810    1.5110   17.8120 C   0  0  0  0  0  0  0  0  0  0  0  0
   10.4850    0.1850   23.6900 C   0  0  0  0  0  0  0  0  0  0  0  0
   11.8370    0.4280   23.8110 C   0  0  0  0  0  0  0  0  0  0  0  0
   12.7450   -0.2710   23.0430 C   0  0  0  0  0  0  0  0  0  0  0  0
   12.3200   -1.1990   22.1710 C   0  0  0  0  0  0  0  0  0  0  0  0
   10.9130   -1.4650   22.0320 C   0  0  0  0  0  0  0  0  0  0  0  0
    9.9710   -0.7750   22.7850 C   0  0  0  0  0  0  0  0  0  0  0  0
  1  3  1  0
  2  3  2  0
  4  6  1  0
  5  6  2  0
  8 11  2  0
 10 11  1  0
 11 12  1  0
 12 13  1  6
  3 14  1  0
 15 13  1  6
 14 15  1  0
 15 16  1  0
 17  4  1  1
 16 17  1  0
 17 18  1  0
 14 19  1  0
 18 19  1  0
 20 21  2  0
 21 22  1  0
 22 23  2  0
 23 24  1  0
  6 25  1  0
 20 25  1  0
 24 25  2  0
 26 27  2  0
 10 28  1  0
 27 28  1  0
  7 29  1  0
 28 29  2  0
 29 30  1  0
 26 31  1  0
 30 31  2  0
 32 33  2  0
 33 34  1  0
  9 35  1  0
 34 35  2  0
 35 36  1  0
 12 37  1  0
 32 37  1  0
 36 37  2  0
M  END
