x1358-x1374
     RDKit          3D

 28 31  0  0  0  0  0  0  0  0999 V2000
    7.3220   -2.3480   25.5290 N   0  0  0  0  0  0  0  0  0  0  0  0
    5.7800   -0.0630   25.1380 O   0  0  0  0  0  0  0  0  0  0  0  0
    6.0720   -4.3640   25.5990 N   0  0  0  0  0  0  0  0  0  0  0  0
    5.4190   -5.2270   20.0360 O   0  0  0  0  0  0  0  0  0  0  0  0
    6.3830   -3.3120   25.0130 C   0  0  0  0  0  0  0  0  0  0  0  0
    6.3080   -4.6440   20.6440 C   0  0  0  0  0  0  0  0  0  0  0  0
    7.0840   -3.5620   19.8270 C   0  0  0  0  0  0  0  0  0  0  0  0
    2.1180   -6.3910   23.9810 O   0  0  0  0  0  0  0  0  0  0  0  0
    4.0600   -7.9500   23.8240 O   0  0  0  0  0  0  0  0  0  0  0  0
    6.0730   -0.3370   26.4370 C   0  0  0  0  0  0  0  0  0  0  0  0
    6.8810   -1.5650   26.6740 C   0  0  0  0  0  0  0  0  0  0  0  0
    7.2460   -1.9630   28.0890 C   0  0  0  0  0  0  0  0  0  0  0  0
    6.7340   -1.0020   29.2290 C   0  0  0  0  0  0  0  0  0  0  0  0
    5.8990    0.2670   28.8040 C   0  0  0  0  0  0  0  0  0  0  0  0
    5.6370    0.4900   27.4520 C   0  0  0  0  0  0  0  0  0  0  0  0
    7.8150   -4.3960   22.3260 N   0  0  0  0  0  0  0  0  0  0  0  0
    7.8230   -3.0150   22.3360 C   0  0  0  0  0  0  0  0  0  0  0  0
    6.4060   -2.4440   22.4830 C   0  0  0  0  0  0  0  0  0  0  0  0
    5.6980   -3.2820   23.5440 C   0  0  1  0  0  0  0  0  0  0  0  0
    5.5540   -4.7630   23.1200 C   0  0  1  0  0  0  0  0  0  0  0  0
    6.6250   -5.0160   22.1730 C   0  0  1  0  0  0  0  0  0  0  0  0
    5.3340   -5.0010   24.6690 C   0  0  0  0  0  0  0  0  0  0  0  0
    4.2300   -5.4440   22.6450 C   0  0  0  0  0  0  0  0  0  0  0  0
    3.5360   -6.6210   23.8690 S   0  0  0  0  0  0  0  0  0  0  0  0
    4.3020   -5.9110   25.1860 C   0  0  0  0  0  0  0  0  0  0  0  0
   10.2200   -4.6910   25.8550 C   0  0  0  0  0  0  0  0  0  0  0  0
    8.5440   -3.0230   25.7070 C   0  0  0  0  0  0  0  0  0  0  0  0
    8.7880   -4.3640   25.4490 C   0  0  0  0  0  0  0  0  0  0  0  0
  1  5  1  0
  3  5  2  0
  4  6  2  0
  6  7  1  0
  2 10  1  0
  1 11  1  0
 10 11  2  0
 11 12  1  0
 12 13  2  0
 13 14  1  0
 10 15  1  0
 14 15  2  0
 16 17  1  0
 17 18  1  0
  5 19  1  0
 19 18  1  6
 19 20  1  0
 21  6  1  6
 16 21  1  0
 20 21  1  0
  3 22  1  0
 20 22  1  0
 20 23  1  6
 24  8  1  0
  9 24  1  0
 23 24  1  0
 22 25  2  0
 24 25  1  0
  1 27  1  0
 26 28  1  0
 27 28  1  0
M  END
