x1351-x3110
     RDKit          3D

 46 49  0  0  0  0  0  0  0  0999 V2000
    8.0720    1.3250   23.2680 N   0  0  0  0  0  0  0  0  0  0  0  0
   13.4400    5.1730   22.6630 C   0  0  0  0  0  0  0  0  0  0  0  0
   11.9990    3.3060   22.4470 O   0  0  0  0  0  0  0  0  0  0  0  0
   12.3470    4.3950   21.9940 C   0  0  0  0  0  0  0  0  0  0  0  0
    7.6230   -1.5680   21.6880 N   0  0  0  0  0  0  0  0  0  0  0  0
   11.1850    4.5240   24.1480 O   0  0  0  0  0  0  0  0  0  0  0  0
   11.2320    3.4100   23.3840 C   0  0  0  0  0  0  0  0  0  0  0  0
    8.5830    1.3850   21.0260 O   0  0  0  0  0  0  0  0  0  0  0  0
   10.3740    2.1630   23.5510 C   0  0  0  0  0  0  0  0  0  0  0  0
    8.9190    2.5220   23.6420 C   0  0  0  0  0  0  0  0  0  0  0  0
    7.9570    0.8370   21.9420 C   0  0  0  0  0  0  0  0  0  0  0  0
    7.0920   -0.2690   21.6910 C   0  0  1  0  0  0  0  0  0  0  0  0
   12.6100   -1.7790   24.3590 C   0  0  0  0  0  0  0  0  0  0  0  0
   12.6560   -0.6210   25.0790 C   0  0  0  0  0  0  0  0  0  0  0  0
   13.5310   -1.9800   23.1640 C   0  0  0  0  0  0  0  0  0  0  0  0
   12.8400   -2.9500   25.0500 C   0  0  0  0  0  0  0  0  0  0  0  0
    6.9610   -3.1440   19.2050 C   0  0  0  0  0  0  0  0  0  0  0  0
    5.1970   -4.5920   19.8570 O   0  0  0  0  0  0  0  0  0  0  0  0
    6.0680   -3.8210   20.2230 C   0  0  0  0  0  0  0  0  0  0  0  0
    5.0820   -2.8560   25.2330 N   0  0  0  0  0  0  0  0  0  0  0  0
    6.9150   -3.3310   26.6110 O   0  0  0  0  0  0  0  0  0  0  0  0
    6.0980   -2.5320   26.2470 C   0  0  0  0  0  0  0  0  0  0  0  0
    6.4760    0.2400   17.9200 N   0  0  0  0  0  0  0  0  0  0  0  0
    5.2230    1.0400   17.8310 C   0  0  0  0  0  0  0  0  0  0  0  0
    4.5370    1.3970   19.1610 C   0  0  0  0  0  0  0  0  0  0  0  0
    5.1340    0.9550   20.5000 C   0  0  0  0  0  0  0  0  0  0  0  0
    6.3220    0.2180   20.4490 C   0  0  0  0  0  0  0  0  0  0  0  0
    6.9820   -0.1460   19.2510 C   0  0  0  0  0  0  0  0  0  0  0  0
    9.9410   -2.1920   21.8130 C   0  0  0  0  0  0  0  0  0  0  0  0
   11.1020   -2.2240   22.4790 C   0  0  0  0  0  0  0  0  0  0  0  0
   11.2510   -1.7010   23.7310 C   0  0  0  0  0  0  0  0  0  0  0  0
   10.1350   -1.1190   24.3220 C   0  0  0  0  0  0  0  0  0  0  0  0
    8.9320   -1.0730   23.6430 C   0  0  0  0  0  0  0  0  0  0  0  0
    8.8280   -1.6060   22.3710 C   0  0  0  0  0  0  0  0  0  0  0  0
    6.1820   -3.6440   21.5860 N   0  0  0  0  0  0  0  0  0  0  0  0
    7.0940   -2.7190   22.3050 C   0  0  2  0  0  0  0  0  0  0  0  0
    6.6340   -2.4460   23.5260 C   0  0  0  0  0  0  0  0  0  0  0  0
    5.4270   -3.1630   23.8480 C   0  0  1  0  0  0  0  0  0  0  0  0
    5.4400   -4.5500   23.5980 C   0  0  0  0  0  0  0  0  0  0  0  0
    5.9090   -4.8930   22.3340 C   0  0  0  0  0  0  0  0  0  0  0  0
    6.8790   -0.8560   28.1440 C   0  0  0  0  0  0  0  0  0  0  0  0
    6.8280    0.4360   28.7320 C   0  0  0  0  0  0  0  0  0  0  0  0
    5.9680    1.5620   28.1240 C   0  0  0  0  0  0  0  0  0  0  0  0
    5.1660    1.2660   26.8670 C   0  0  0  0  0  0  0  0  0  0  0  0
    5.2120   -0.0960   26.2390 C   0  0  0  0  0  0  0  0  0  0  0  0
    6.0710   -1.1900   26.8680 C   0  0  0  0  0  0  0  0  0  0  0  0
  2  4  1  0
  3  4  1  0
  3  7  1  0
  6  7  2  0
  7  9  1  0
  1 10  1  0
  9 10  1  0
  1 11  1  0
  8 11  2  0
  5 12  1  0
 12 11  1  6
 13 14  1  0
 13 15  1  0
 13 16  1  0
 17 19  1  0
 18 19  2  0
 20 22  1  0
 21 22  2  0
 23 24  2  0
 24 25  1  0
 25 26  2  0
 12 27  1  0
 26 27  1  0
 23 28  1  0
 27 28  2  0
 29 30  2  0
 13 31  1  0
 30 31  1  0
 31 32  2  0
 32 33  1  0
  5 34  1  0
 29 34  1  0
 33 34  2  0
 19 35  1  0
 36  5  1  6
 35 36  1  0
 36 37  1  0
 38 20  1  1
 37 38  1  0
 38 39  1  0
 35 40  1  0
 39 40  1  0
 41 42  2  0
 42 43  1  0
 43 44  2  0
 44 45  1  0
 22 46  1  0
 41 46  1  0
 45 46  2  0
M  END
