x1358-x2097
     RDKit          3D

 19 20  0  0  0  0  0  0  0  0999 V2000
    7.2550   -2.7720   26.2890 N   0  0  0  0  0  0  0  0  0  0  0  0
    5.6060   -0.6030   25.3590 O   0  0  0  0  0  0  0  0  0  0  0  0
    4.9460   -3.2690   25.7560 O   0  0  0  0  0  0  0  0  0  0  0  0
    5.1370   -4.1110   19.6400 O   0  0  0  0  0  0  0  0  0  0  0  0
    6.1300   -3.1990   25.4310 C   0  0  0  0  0  0  0  0  0  0  0  0
    6.2600   -3.7780   19.9750 C   0  0  0  0  0  0  0  0  0  0  0  0
    7.2270   -3.1470   19.0140 C   0  0  0  0  0  0  0  0  0  0  0  0
    6.1380   -0.4700   26.6040 C   0  0  0  0  0  0  0  0  0  0  0  0
    6.9990   -1.5990   27.0970 C   0  0  0  0  0  0  0  0  0  0  0  0
    7.6370   -1.5490   28.4620 C   0  0  0  0  0  0  0  0  0  0  0  0
    7.3360   -0.2600   29.3000 C   0  0  0  0  0  0  0  0  0  0  0  0
    6.4140    0.8220   28.6310 C   0  0  0  0  0  0  0  0  0  0  0  0
    5.8760    0.6670   27.3520 C   0  0  0  0  0  0  0  0  0  0  0  0
    6.7170   -4.0190   21.2550 N   0  0  0  0  0  0  0  0  0  0  0  0
    7.6580   -3.0730   21.8240 C   0  0  0  0  0  0  0  0  0  0  0  0
    6.9260   -2.4520   23.0040 C   0  0  0  0  0  0  0  0  0  0  0  0
    6.6160   -3.6050   23.9520 C   0  0  0  0  0  0  0  0  0  0  0  0
    5.6790   -4.6060   23.2470 C   0  0  0  0  0  0  0  0  0  0  0  0
    6.2580   -5.1210   22.0950 C   0  0  0  0  0  0  0  0  0  0  0  0
  1  5  1  0
  3  5  2  0
  4  6  2  0
  6  7  1  0
  2  8  1  0
  1  9  1  0
  8  9  2  0
  9 10  1  0
 10 11  2  0
 11 12  1  0
  8 13  1  0
 12 13  2  0
  6 14  1  0
 14 15  1  0
 15 16  1  0
  5 17  1  0
 16 17  1  0
 17 18  1  0
 14 19  1  0
 18 19  1  0
M  END
