x1358-x2908
     RDKit          3D

 38 41  0  0  0  0  0  0  0  0999 V2000
    6.9700   -2.6900   26.0230 N   0  0  0  0  0  0  0  0  0  0  0  0
    5.4100   -0.4550   25.3560 O   0  0  0  0  0  0  0  0  0  0  0  0
    4.8150   -3.6910   25.6860 O   0  0  0  0  0  0  0  0  0  0  0  0
    5.1210   -4.2590   19.7210 O   0  0  0  0  0  0  0  0  0  0  0  0
    5.8850   -3.3020   25.2300 C   0  0  0  0  0  0  0  0  0  0  0  0
    6.1810   -3.7760   20.0760 C   0  0  0  0  0  0  0  0  0  0  0  0
    7.1420   -3.1800   19.0970 C   0  0  0  0  0  0  0  0  0  0  0  0
    5.0350    1.0920   21.6630 C   0  0  0  0  0  0  0  0  0  0  0  0
    8.6450    1.3740   21.0170 O   0  0  0  0  0  0  0  0  0  0  0  0
   13.1990   -2.3220   21.4000 Cl  0  0  0  0  0  0  0  0  0  0  0  0
    7.2940   -0.5130   20.9000 N   0  0  0  0  0  0  0  0  0  0  0  0
    8.6500   -0.5020   22.4910 N   0  0  0  0  0  0  0  0  0  0  0  0
    8.1340    0.0870   21.4340 C   0  0  0  0  0  0  0  0  0  0  0  0
    6.5690   -1.5190   21.7060 C   0  0  0  0  0  0  0  0  0  0  0  0
    6.0280   -0.3680   26.6560 C   0  0  0  0  0  0  0  0  0  0  0  0
    6.8940   -1.5950   27.0370 C   0  0  0  0  0  0  0  0  0  0  0  0
    7.5370   -1.5970   28.2830 C   0  0  0  0  0  0  0  0  0  0  0  0
    7.4510   -0.5240   29.2600 C   0  0  0  0  0  0  0  0  0  0  0  0
    6.5770    0.6810   28.8440 C   0  0  0  0  0  0  0  0  0  0  0  0
    5.8730    0.7030   27.4950 C   0  0  0  0  0  0  0  0  0  0  0  0
    6.5690   -3.8040   21.3780 N   0  0  0  0  0  0  0  0  0  0  0  0
    7.3090   -2.8550   21.9680 C   0  0  2  0  0  0  0  0  0  0  0  0
    7.3890   -3.0030   23.3120 C   0  0  0  0  0  0  0  0  0  0  0  0
    6.1640   -3.4260   23.7480 C   0  0  1  0  0  0  0  0  0  0  0  0
    5.9780   -4.7630   23.4060 C   0  0  0  0  0  0  0  0  0  0  0  0
    6.3790   -4.9510   22.0750 C   0  0  0  0  0  0  0  0  0  0  0  0
    6.2700    0.6300   17.5340 N   0  0  0  0  0  0  0  0  0  0  0  0
    7.0020   -0.0550   18.6270 C   0  0  0  0  0  0  0  0  0  0  0  0
    6.6050    0.1030   19.9340 C   0  0  0  0  0  0  0  0  0  0  0  0
    5.4980    0.9050   20.2270 C   0  0  0  0  0  0  0  0  0  0  0  0
    4.7880    1.5610   19.2220 C   0  0  0  0  0  0  0  0  0  0  0  0
    5.1490    1.4480   17.8930 C   0  0  0  0  0  0  0  0  0  0  0  0
   10.5820    0.5750   23.6080 C   0  0  0  0  0  0  0  0  0  0  0  0
   11.9590    0.6490   23.8000 C   0  0  0  0  0  0  0  0  0  0  0  0
   12.7950   -0.2290   23.1420 C   0  0  0  0  0  0  0  0  0  0  0  0
   12.2370   -1.1730   22.2960 C   0  0  0  0  0  0  0  0  0  0  0  0
   10.8880   -1.2380   22.1170 C   0  0  0  0  0  0  0  0  0  0  0  0
   10.0230   -0.3890   22.7430 C   0  0  0  0  0  0  0  0  0  0  0  0
  1  5  1  0
  3  5  2  0
  4  6  2  0
  6  7  1  0
  9 13  2  0
 11 13  1  0
 12 13  1  0
 11 14  1  0
  2 15  1  0
  1 16  1  0
 15 16  2  0
 16 17  1  0
 17 18  2  0
 18 19  1  0
 15 20  1  0
 19 20  2  0
  6 21  1  0
 22 14  1  1
 21 22  1  0
 22 23  1  0
 24  5  1  1
 23 24  1  0
 24 25  1  0
 21 26  1  0
 25 26  1  0
 27 28  2  0
 11 29  1  0
 28 29  1  0
  8 30  1  0
 29 30  2  0
 30 31  1  0
 27 32  1  0
 31 32  2  0
 33 34  2  0
 34 35  1  0
 10 36  1  0
 35 36  2  0
 36 37  1  0
 12 38  1  0
 33 38  1  0
 37 38  2  0
M  END
