x1351-x3108
     RDKit          3D

 39 42  0  0  0  0  0  0  0  0999 V2000
    5.7310    1.9870   21.9510 C   0  0  0  0  0  0  0  0  0  0  0  0
   10.0000    1.1970   22.2550 O   0  0  0  0  0  0  0  0  0  0  0  0
    8.2760    0.1450   21.1690 N   0  0  0  0  0  0  0  0  0  0  0  0
    8.1610   -0.0980   24.8690 O   0  0  0  0  0  0  0  0  0  0  0  0
    9.7540   -1.3360   23.7350 N   0  0  0  0  0  0  0  0  0  0  0  0
    9.3980    0.1640   21.9680 C   0  0  0  0  0  0  0  0  0  0  0  0
    9.8450   -1.2010   22.4530 C   0  0  0  0  0  0  0  0  0  0  0  0
    8.6150   -1.1700   24.4780 C   0  0  0  0  0  0  0  0  0  0  0  0
    7.5290   -2.5280   24.9510 S   0  0  0  0  0  0  0  0  0  0  0  0
    7.1180   -3.2120   19.2900 C   0  0  0  0  0  0  0  0  0  0  0  0
    5.1080   -4.4590   19.8090 O   0  0  0  0  0  0  0  0  0  0  0  0
    6.1350   -3.9530   20.2110 C   0  0  0  0  0  0  0  0  0  0  0  0
    7.0080   -2.6100   26.5330 N   0  0  0  0  0  0  0  0  0  0  0  0
    6.4540   -1.3650   25.3560 N   0  0  0  0  0  0  0  0  0  0  0  0
    6.2190    0.0230   17.9870 N   0  0  0  0  0  0  0  0  0  0  0  0
    7.1760   -0.1950   18.8720 C   0  0  0  0  0  0  0  0  0  0  0  0
    7.2090    0.3990   20.3020 C   0  0  0  0  0  0  0  0  0  0  0  0
    5.9790    1.2760   20.6220 C   0  0  0  0  0  0  0  0  0  0  0  0
    5.0550    1.4000   19.5860 C   0  0  0  0  0  0  0  0  0  0  0  0
    5.1950    0.8000   18.3520 C   0  0  0  0  0  0  0  0  0  0  0  0
    9.8220   -5.4060   24.6550 N   0  0  0  0  0  0  0  0  0  0  0  0
    9.1250   -4.3110   24.4480 C   0  0  0  0  0  0  0  0  0  0  0  0
    8.3600   -3.8790   25.4590 C   0  0  0  0  0  0  0  0  0  0  0  0
    8.1870   -4.3980   26.7100 C   0  0  0  0  0  0  0  0  0  0  0  0
    8.9100   -5.5230   26.9080 C   0  0  0  0  0  0  0  0  0  0  0  0
    9.7060   -6.0150   25.9000 C   0  0  0  0  0  0  0  0  0  0  0  0
    6.4550   -4.0810   21.5520 N   0  0  0  0  0  0  0  0  0  0  0  0
    7.1740   -3.0670   22.3240 C   0  0  0  0  0  0  0  0  0  0  0  0
    6.8480   -3.3460   23.7430 C   0  0  2  0  0  0  0  0  0  0  0  0
    5.5420   -3.1550   23.7540 C   0  0  0  0  0  0  0  0  0  0  0  0
    4.8910   -4.2260   23.1520 C   0  0  0  0  0  0  0  0  0  0  0  0
    5.7470   -4.9600   22.2990 C   0  0  0  0  0  0  0  0  0  0  0  0
    6.4180   -0.6980   27.7190 C   0  0  0  0  0  0  0  0  0  0  0  0
    6.4750    0.5280   28.4090 C   0  0  0  0  0  0  0  0  0  0  0  0
    5.8820    1.7770   28.1830 C   0  0  0  0  0  0  0  0  0  0  0  0
    5.0310    2.0880   27.1200 C   0  0  0  0  0  0  0  0  0  0  0  0
    4.8200    0.8940   26.2220 C   0  0  0  0  0  0  0  0  0  0  0  0
    5.5580   -0.3670   26.6530 C   0  0  0  0  0  0  0  0  0  0  0  0
    6.1270   -1.7840   26.7690 C   0  0  0  0  0  0  0  0  0  0  0  0
  2  6  2  0
  3  6  1  0
  5  7  1  0
  6  7  1  0
  4  8  2  0
  5  8  1  0
  8  9  1  0
 10 12  1  0
 11 12  2  0
  9 13  1  0
  9 14  2  3
 15 16  2  0
  3 17  1  0
 16 17  1  0
  1 18  1  0
 17 18  2  0
 18 19  1  0
 15 20  1  0
 19 20  2  0
 21 22  2  0
  9 23  1  0
 22 23  1  0
 23 24  2  0
 24 25  1  0
 21 26  1  0
 25 26  2  0
 12 27  1  0
 27 28  1  0
 29  9  1  1
 28 29  1  0
 29 30  1  0
 30 31  1  0
 27 32  1  0
 31 32  1  0
 33 34  2  0
 34 35  1  0
 35 36  2  0
 36 37  1  0
 33 38  1  0
 37 38  2  0
 14 39  1  0
 33 39  1  0
M  END
