x1358-x0678
     RDKit          3D

 36 39  0  0  0  0  0  0  0  0999 V2000
    6.8970   -2.4640   25.9440 N   0  0  0  0  0  0  0  0  0  0  0  0
    5.5160   -0.1750   25.2910 O   0  0  0  0  0  0  0  0  0  0  0  0
    4.8160   -3.6440   25.6850 O   0  0  0  0  0  0  0  0  0  0  0  0
    5.1720   -4.2120   19.7080 O   0  0  0  0  0  0  0  0  0  0  0  0
    5.8800   -3.2430   25.2230 C   0  0  0  0  0  0  0  0  0  0  0  0
    6.2670   -3.7860   20.0490 C   0  0  0  0  0  0  0  0  0  0  0  0
    7.1720   -3.1330   19.0490 C   0  0  0  0  0  0  0  0  0  0  0  0
    9.1950    1.3670   21.3460 O   0  0  0  0  0  0  0  0  0  0  0  0
    8.7350    0.2840   21.7380 C   0  0  0  0  0  0  0  0  0  0  0  0
    9.2890   -0.4060   22.9710 C   0  0  0  0  0  0  0  0  0  0  0  0
    7.6290   -0.4590   21.1180 N   0  0  0  0  0  0  0  0  0  0  0  0
    6.9190   -1.4930   21.9200 C   0  0  0  0  0  0  0  0  0  0  0  0
    6.0040   -0.1670   26.6470 C   0  0  0  0  0  0  0  0  0  0  0  0
    6.7710   -1.4500   27.0270 C   0  0  0  0  0  0  0  0  0  0  0  0
    7.2710   -1.5270   28.3270 C   0  0  0  0  0  0  0  0  0  0  0  0
    7.1390   -0.5100   29.3360 C   0  0  0  0  0  0  0  0  0  0  0  0
    6.3700    0.7740   28.9410 C   0  0  0  0  0  0  0  0  0  0  0  0
    5.8040    0.8800   27.5190 C   0  0  0  0  0  0  0  0  0  0  0  0
    6.7370   -3.9550   21.4150 N   0  0  0  0  0  0  0  0  0  0  0  0
    7.5580   -2.9060   22.0610 C   0  0  2  0  0  0  0  0  0  0  0  0
    7.5530   -3.2180   23.4010 C   0  0  0  0  0  0  0  0  0  0  0  0
    6.2600   -3.5220   23.7870 C   0  0  1  0  0  0  0  0  0  0  0  0
    5.9530   -4.8410   23.5160 C   0  0  0  0  0  0  0  0  0  0  0  0
    6.3370   -5.1100   22.2140 C   0  0  0  0  0  0  0  0  0  0  0  0
   11.2580   -1.5880   22.3370 C   0  0  0  0  0  0  0  0  0  0  0  0
   12.3980   -2.1740   22.8800 C   0  0  0  0  0  0  0  0  0  0  0  0
   13.2230   -1.2130   23.4730 C   0  0  0  0  0  0  0  0  0  0  0  0
   12.5810   -0.4050   24.4200 C   0  0  0  0  0  0  0  0  0  0  0  0
   11.2050   -0.5180   24.3780 C   0  0  0  0  0  0  0  0  0  0  0  0
   10.8350   -0.4620   23.0350 C   0  0  0  0  0  0  0  0  0  0  0  0
    5.7250    0.9370   20.3890 C   0  0  0  0  0  0  0  0  0  0  0  0
    4.9720    1.4850   19.3530 C   0  0  0  0  0  0  0  0  0  0  0  0
    5.3350    1.2110   18.0460 C   0  0  0  0  0  0  0  0  0  0  0  0
    6.3700    0.4410   17.7170 N   0  0  0  0  0  0  0  0  0  0  0  0
    7.1070   -0.1040   18.7690 C   0  0  0  0  0  0  0  0  0  0  0  0
    6.8250    0.1200   20.0870 C   0  0  0  0  0  0  0  0  0  0  0  0
  1  5  1  0
  3  5  2  0
  4  6  2  0
  6  7  1  0
  8  9  2  0
  9 10  1  0
  9 11  1  0
 11 12  1  0
  2 13  1  0
  1 14  1  0
 13 14  2  0
 14 15  1  0
 15 16  2  0
 16 17  1  0
 13 18  1  0
 17 18  2  0
  6 19  1  0
 20 12  1  1
 19 20  1  0
 20 21  1  0
 22  5  1  1
 21 22  1  0
 22 23  1  0
 19 24  1  0
 23 24  1  0
 25 26  1  0
 26 27  1  0
 27 28  1  0
 28 29  1  0
 10 30  1  0
 25 30  1  0
 29 30  1  0
 31 32  2  0
 32 33  1  0
 33 34  2  0
 34 35  1  0
 11 36  1  0
 31 36  1  0
 35 36  2  0
M  END
