x1351-x0831
     RDKit          3D

 27 29  0  0  0  0  0  0  0  0999 V2000
    6.9870   -3.3010   19.4540 C   0  0  0  0  0  0  0  0  0  0  0  0
    5.3300   -4.9540   19.9990 O   0  0  0  0  0  0  0  0  0  0  0  0
    6.1700   -4.1730   20.4310 C   0  0  0  0  0  0  0  0  0  0  0  0
    5.9790   -3.5130   25.3880 N   0  0  0  0  0  0  0  0  0  0  0  0
    8.0450   -2.7800   26.0060 O   0  0  0  0  0  0  0  0  0  0  0  0
    6.8420   -2.5630   25.9420 C   0  0  0  0  0  0  0  0  0  0  0  0
    6.4000   -4.0900   21.7910 N   0  0  0  0  0  0  0  0  0  0  0  0
    7.5700   -3.9140   22.4450 C   0  0  0  0  0  0  0  0  0  0  0  0
    7.4550   -2.5830   23.2500 C   0  0  1  0  0  0  0  0  0  0  0  0
    6.2410   -2.6030   24.2490 C   0  0  1  0  0  0  0  0  0  0  0  0
    5.0820   -2.9920   23.2630 C   0  0  0  0  0  0  0  0  0  0  0  0
    5.3730   -4.4310   22.7860 C   0  0  0  0  0  0  0  0  0  0  0  0
    7.0370   -0.8560   27.8020 C   0  0  0  0  0  0  0  0  0  0  0  0
    6.6840    0.3170   28.4670 C   0  0  0  0  0  0  0  0  0  0  0  0
    5.6720    1.1230   27.9630 C   0  0  0  0  0  0  0  0  0  0  0  0
    5.0180    0.7420   26.7890 C   0  0  0  0  0  0  0  0  0  0  0  0
    5.3610   -0.4310   26.1150 C   0  0  0  0  0  0  0  0  0  0  0  0
    6.3820   -1.2530   26.6130 C   0  0  0  0  0  0  0  0  0  0  0  0
   12.5600   -2.0400   21.9470 C   0  0  0  0  0  0  0  0  0  0  0  0
    9.9660   -2.2600   23.0580 C   0  0  0  0  0  0  0  0  0  0  0  0
   12.0620   -0.7920   22.7020 C   0  0  0  0  0  0  0  0  0  0  0  0
   10.6970   -0.9540   23.2640 C   0  0  0  0  0  0  0  0  0  0  0  0
   10.2270    0.1210   23.9300 C   0  0  0  0  0  0  0  0  0  0  0  0
   10.9760    1.2950   24.0630 C   0  0  0  0  0  0  0  0  0  0  0  0
   12.2640    1.4050   23.5110 C   0  0  0  0  0  0  0  0  0  0  0  0
   12.8160    0.3580   22.8330 C   0  0  0  0  0  0  0  0  0  0  0  0
    8.7520   -2.3910   23.9820 C   0  0  0  0  0  0  0  0  0  0  0  0
  1  3  1  0
  2  3  2  0
  4  6  1  0
  5  6  2  0
  3  7  1  0
  7  8  1  0
  8  9  1  0
 10  4  1  1
  9 10  1  0
 10 11  1  0
  7 12  1  0
 11 12  1  0
 13 14  2  0
 14 15  1  0
 15 16  2  0
 16 17  1  0
  6 18  1  0
 13 18  1  0
 17 18  2  0
 19 21  1  0
 20 22  1  0
 21 22  2  0
 22 23  1  0
 23 24  2  0
 24 25  1  0
 21 26  1  0
 25 26  2  0
  9 27  1  1
 20 27  1  0
M  END
