x1351-x1402
     RDKit          3D

 27 29  0  0  0  0  0  0  0  0999 V2000
    7.3200   -3.4930   19.9800 C   0  0  0  0  0  0  0  0  0  0  0  0
    5.3110   -4.7680   19.9610 O   0  0  0  0  0  0  0  0  0  0  0  0
    0.8860   -1.3600   26.2820 Cl  0  0  0  0  0  0  0  0  0  0  0  0
    6.3730   -4.5520   20.5360 C   0  0  0  0  0  0  0  0  0  0  0  0
    4.0030   -6.5390   25.8140 O   0  0  0  0  0  0  0  0  0  0  0  0
    6.0800   -5.3840   26.6680 O   0  0  0  0  0  0  0  0  0  0  0  0
    4.9970   -5.4940   25.7190 S   0  0  0  0  0  0  0  0  0  0  0  0
    5.9340   -2.5010   25.3380 N   0  0  0  0  0  0  0  0  0  0  0  0
    7.9830   -2.8430   26.3970 O   0  0  0  0  0  0  0  0  0  0  0  0
    6.9910   -2.1430   26.2740 C   0  0  0  0  0  0  0  0  0  0  0  0
    6.6750   -5.3180   21.6660 N   0  0  0  0  0  0  0  0  0  0  0  0
    7.5530   -5.0130   22.6680 C   0  0  0  0  0  0  0  0  0  0  0  0
    6.6800   -4.5180   23.7930 C   0  0  0  0  0  0  0  0  0  0  0  0
    5.7160   -5.5660   24.1460 N   0  0  0  0  0  0  0  0  0  0  0  0
    4.8910   -5.9310   23.1040 C   0  0  0  0  0  0  0  0  0  0  0  0
    5.7410   -6.2370   22.0350 C   0  0  0  0  0  0  0  0  0  0  0  0
    2.3710   -3.9760   26.1350 S   0  0  0  0  0  0  0  0  0  0  0  0
    4.0660   -3.9730   25.8070 C   0  0  0  0  0  0  0  0  0  0  0  0
    4.5640   -2.6970   25.6290 C   0  0  0  0  0  0  0  0  0  0  0  0
    3.5730   -1.7310   25.7680 C   0  0  0  0  0  0  0  0  0  0  0  0
    2.3200   -2.2800   26.0480 C   0  0  0  0  0  0  0  0  0  0  0  0
    7.1460   -0.5530   28.1950 C   0  0  0  0  0  0  0  0  0  0  0  0
    6.8410    0.6160   28.9220 C   0  0  0  0  0  0  0  0  0  0  0  0
    5.8480    1.6680   28.3880 C   0  0  0  0  0  0  0  0  0  0  0  0
    5.1880    1.4080   27.0220 C   0  0  0  0  0  0  0  0  0  0  0  0
    5.5780    0.0980   26.2850 C   0  0  0  0  0  0  0  0  0  0  0  0
    6.5900   -0.8660   26.9470 C   0  0  0  0  0  0  0  0  0  0  0  0
  1  4  1  0
  2  4  2  0
  5  7  2  0
  6  7  2  0
  8 10  1  0
  9 10  2  0
  4 11  1  0
 11 12  1  0
 12 13  1  0
  7 14  1  0
 13 14  1  0
 14 15  1  0
 11 16  1  0
 15 16  1  0
  7 18  1  0
 17 18  1  0
  8 19  1  0
 18 19  2  0
 19 20  1  0
  3 21  1  0
 17 21  1  0
 20 21  2  0
 22 23  2  0
 23 24  1  0
 24 25  2  0
 25 26  1  0
 10 27  1  0
 22 27  1  0
 26 27  2  0
M  END
