x1358-x2643
     RDKit          3D

 36 39  0  0  0  0  0  0  0  0999 V2000
    6.8730   -2.5360   25.9540 N   0  0  0  0  0  0  0  0  0  0  0  0
    5.4130   -0.2190   25.3240 O   0  0  0  0  0  0  0  0  0  0  0  0
    4.8480   -3.6340   25.7810 O   0  0  0  0  0  0  0  0  0  0  0  0
    5.3650   -4.1360   19.7280 O   0  0  0  0  0  0  0  0  0  0  0  0
    5.9090   -3.3660   25.2270 C   0  0  0  0  0  0  0  0  0  0  0  0
    6.4190   -3.6210   20.1200 C   0  0  0  0  0  0  0  0  0  0  0  0
    7.3560   -3.0380   19.0940 C   0  0  0  0  0  0  0  0  0  0  0  0
    6.5110   -0.9770   20.4940 N   0  0  0  0  0  0  0  0  0  0  0  0
    8.4590    0.5470   21.0210 O   0  0  0  0  0  0  0  0  0  0  0  0
   13.2950   -0.1760   23.2180 Cl  0  0  0  0  0  0  0  0  0  0  0  0
    7.9910   -1.5540   22.4070 C   0  0  1  0  0  0  0  0  0  0  0  0
    7.6690   -0.6280   21.2570 C   0  0  0  0  0  0  0  0  0  0  0  0
    7.2230   -1.2300   23.6770 C   0  0  0  0  0  0  0  0  0  0  0  0
    5.9690   -0.2370   26.6410 C   0  0  0  0  0  0  0  0  0  0  0  0
    6.7600   -1.5410   26.9380 C   0  0  0  0  0  0  0  0  0  0  0  0
    7.3830   -1.5920   28.3870 C   0  0  0  0  0  0  0  0  0  0  0  0
    7.1280   -0.4580   29.1690 C   0  0  0  0  0  0  0  0  0  0  0  0
    6.4150    0.6700   28.8390 C   0  0  0  0  0  0  0  0  0  0  0  0
    5.8050    0.8920   27.6410 C   0  0  0  0  0  0  0  0  0  0  0  0
    6.6540   -3.6880   21.4890 N   0  0  0  0  0  0  0  0  0  0  0  0
    7.7470   -3.1310   22.1680 C   0  0  2  0  0  0  0  0  0  0  0  0
    7.6900   -3.6360   23.4370 C   0  0  0  0  0  0  0  0  0  0  0  0
    6.3550   -3.7900   23.8400 C   0  0  1  0  0  0  0  0  0  0  0  0
    5.8260   -4.9560   23.3140 C   0  0  0  0  0  0  0  0  0  0  0  0
    6.2640   -4.9060   21.9860 C   0  0  0  0  0  0  0  0  0  0  0  0
   11.6350   -0.4000   23.3010 C   0  0  0  0  0  0  0  0  0  0  0  0
   10.7840    0.1220   24.1820 C   0  0  0  0  0  0  0  0  0  0  0  0
    9.5150   -0.2650   23.9210 C   0  0  0  0  0  0  0  0  0  0  0  0
    9.3410   -1.1010   22.8250 C   0  0  0  0  0  0  0  0  0  0  0  0
   10.8790   -1.4000   22.1420 S   0  0  0  0  0  0  0  0  0  0  0  0
    6.3500    0.9380   17.5310 N   0  0  0  0  0  0  0  0  0  0  0  0
    6.7170    0.1110   18.4960 C   0  0  0  0  0  0  0  0  0  0  0  0
    5.9550   -0.0870   19.6070 C   0  0  0  0  0  0  0  0  0  0  0  0
    4.7340    0.5510   19.8370 C   0  0  0  0  0  0  0  0  0  0  0  0
    4.1610    1.4740   18.9340 C   0  0  0  0  0  0  0  0  0  0  0  0
    5.0780    1.6400   17.7150 C   0  0  0  0  0  0  0  0  0  0  0  0
  1  5  1  0
  3  5  2  0
  4  6  2  0
  6  7  1  0
  8 12  1  0
  9 12  2  0
 11 12  1  0
 11 13  1  1
  2 14  1  0
  1 15  1  0
 14 15  2  0
 15 16  1  0
 16 17  2  0
 17 18  1  0
 14 19  1  0
 18 19  2  0
  6 20  1  0
 11 21  1  0
 20 21  1  0
 21 22  1  1
 23  5  1  1
 22 23  1  0
 23 24  1  0
 20 25  1  0
 24 25  1  0
 10 26  1  0
 26 27  2  0
 27 28  1  0
 11 29  1  0
 28 29  2  0
 26 30  1  0
 29 30  1  0
 31 32  2  0
  8 33  1  0
 32 33  1  0
 33 34  2  0
 34 35  1  0
 31 36  1  0
 35 36  2  0
M  END
