x1358-x2608
     RDKit          3D

 36 39  0  0  0  0  0  0  0  0999 V2000
    6.8930   -2.6930   26.0020 N   0  0  0  0  0  0  0  0  0  0  0  0
    5.4460   -0.3930   25.3300 O   0  0  0  0  0  0  0  0  0  0  0  0
    4.7200   -3.6670   25.7100 O   0  0  0  0  0  0  0  0  0  0  0  0
    5.1090   -4.3880   19.7640 O   0  0  0  0  0  0  0  0  0  0  0  0
    5.7890   -3.3070   25.2330 C   0  0  0  0  0  0  0  0  0  0  0  0
    6.1770   -3.9260   20.1000 C   0  0  0  0  0  0  0  0  0  0  0  0
    7.0890   -3.2300   19.1340 C   0  0  0  0  0  0  0  0  0  0  0  0
    8.6910   -0.9010   22.1300 N   0  0  0  0  0  0  0  0  0  0  0  0
   13.0360    1.5920   23.0240 C   0  0  0  0  0  0  0  0  0  0  0  0
    8.5960    1.1230   21.0110 O   0  0  0  0  0  0  0  0  0  0  0  0
    6.9860   -0.6780   20.9760 N   0  0  0  0  0  0  0  0  0  0  0  0
    8.1160   -0.1890   21.4090 C   0  0  0  0  0  0  0  0  0  0  0  0
    6.3310   -1.8140   21.5570 C   0  0  0  0  0  0  0  0  0  0  0  0
    6.0680   -0.3270   26.6270 C   0  0  0  0  0  0  0  0  0  0  0  0
    6.8720   -1.5930   27.0140 C   0  0  0  0  0  0  0  0  0  0  0  0
    7.5150   -1.6190   28.2600 C   0  0  0  0  0  0  0  0  0  0  0  0
    7.4860   -0.5370   29.2320 C   0  0  0  0  0  0  0  0  0  0  0  0
    6.6720    0.7100   28.8080 C   0  0  0  0  0  0  0  0  0  0  0  0
    5.9690    0.7540   27.4590 C   0  0  0  0  0  0  0  0  0  0  0  0
    6.6410   -4.0280   21.3730 N   0  0  0  0  0  0  0  0  0  0  0  0
    7.2280   -3.0080   21.9590 C   0  0  2  0  0  0  0  0  0  0  0  0
    7.2700   -3.0550   23.3050 C   0  0  0  0  0  0  0  0  0  0  0  0
    6.0460   -3.4720   23.7490 C   0  0  1  0  0  0  0  0  0  0  0  0
    5.8620   -4.8200   23.4420 C   0  0  0  0  0  0  0  0  0  0  0  0
    6.3080   -5.1030   22.1330 C   0  0  0  0  0  0  0  0  0  0  0  0
   12.0870    0.5390   22.8590 C   0  0  0  0  0  0  0  0  0  0  0  0
   12.2470   -0.8370   22.8880 C   0  0  0  0  0  0  0  0  0  0  0  0
   11.0540   -1.4600   22.6410 C   0  0  0  0  0  0  0  0  0  0  0  0
    9.9460   -0.6600   22.4200 C   0  0  0  0  0  0  0  0  0  0  0  0
   10.4980    1.0420   22.5780 S   0  0  0  0  0  0  0  0  0  0  0  0
    6.1060    0.7620   17.6130 N   0  0  0  0  0  0  0  0  0  0  0  0
    6.7400    0.0350   18.6760 C   0  0  0  0  0  0  0  0  0  0  0  0
    6.2940    0.0450   19.9910 C   0  0  0  0  0  0  0  0  0  0  0  0
    5.1670    0.7750   20.3650 C   0  0  0  0  0  0  0  0  0  0  0  0
    4.4740    1.5210   19.4180 C   0  0  0  0  0  0  0  0  0  0  0  0
    4.9390    1.5120   18.1040 C   0  0  0  0  0  0  0  0  0  0  0  0
  1  5  1  0
  3  5  2  0
  4  6  2  0
  6  7  1  0
  8 12  1  0
 10 12  2  0
 11 12  1  0
 11 13  1  0
  2 14  1  0
  1 15  1  0
 14 15  2  0
 15 16  1  0
 16 17  2  0
 17 18  1  0
 14 19  1  0
 18 19  2  0
  6 20  1  0
 21 13  1  1
 20 21  1  0
 21 22  1  0
 23  5  1  1
 22 23  1  0
 23 24  1  0
 20 25  1  0
 24 25  1  0
  9 26  1  0
 26 27  2  0
 27 28  1  0
  8 29  1  0
 28 29  2  0
 26 30  1  0
 29 30  1  0
 31 32  2  0
 11 33  1  0
 32 33  1  0
 33 34  2  0
 34 35  1  0
 31 36  1  0
 35 36  2  0
M  END
