x1358-x3077
     RDKit          3D

 30 33  0  0  0  0  0  0  0  0999 V2000
    6.8220   -2.4980   25.9600 N   0  0  0  0  0  0  0  0  0  0  0  0
    5.5380   -0.0640   25.2890 O   0  0  0  0  0  0  0  0  0  0  0  0
    4.6320   -3.4900   25.7970 O   0  0  0  0  0  0  0  0  0  0  0  0
    5.1950   -4.1040   19.6310 O   0  0  0  0  0  0  0  0  0  0  0  0
    5.7810   -3.3780   25.3900 C   0  0  0  0  0  0  0  0  0  0  0  0
    6.2750   -3.7640   20.0700 C   0  0  0  0  0  0  0  0  0  0  0  0
    7.3050   -3.1430   19.1520 C   0  0  0  0  0  0  0  0  0  0  0  0
   13.3930   -1.8300   21.0820 Cl  0  0  0  0  0  0  0  0  0  0  0  0
    9.1740   -1.6870   23.8370 C   0  0  0  0  0  0  0  0  0  0  0  0
    5.9330   -0.2020   26.4500 C   0  0  0  0  0  0  0  0  0  0  0  0
    6.6160   -1.4770   26.8770 C   0  0  0  0  0  0  0  0  0  0  0  0
    7.1110   -1.6550   28.3560 C   0  0  0  0  0  0  0  0  0  0  0  0
    6.8680   -0.4540   29.3210 C   0  0  0  0  0  0  0  0  0  0  0  0
    6.2310    0.6810   28.8240 C   0  0  0  0  0  0  0  0  0  0  0  0
    5.7650    0.8610   27.4860 C   0  0  0  0  0  0  0  0  0  0  0  0
    6.5380   -3.9950   21.5800 C   0  0  2  0  0  0  0  0  0  0  0  0
    7.8200   -4.0960   22.2780 C   0  0  0  0  0  0  0  0  0  0  0  0
    7.2100   -3.4520   23.5000 C   0  0  2  0  0  0  0  0  0  0  0  0
    6.2540   -4.1660   24.2090 C   0  0  2  0  0  0  0  0  0  0  0  0
    5.2150   -4.6390   23.3900 C   0  0  0  0  0  0  0  0  0  0  0  0
    5.6240   -4.9010   22.0940 C   0  0  0  0  0  0  0  0  0  0  0  0
    8.7900   -1.9800   22.4550 N   0  0  0  0  0  0  0  0  0  0  0  0
    7.5410   -1.6590   22.1220 C   0  0  0  0  0  0  0  0  0  0  0  0
    6.6400   -2.6420   22.4800 C   0  0  1  0  0  0  0  0  0  0  0  0
   10.8240    0.1920   24.2530 C   0  0  0  0  0  0  0  0  0  0  0  0
   12.0430    0.7340   23.8900 C   0  0  0  0  0  0  0  0  0  0  0  0
   12.8460    0.1470   22.9440 C   0  0  0  0  0  0  0  0  0  0  0  0
   12.4700   -1.0190   22.3020 C   0  0  0  0  0  0  0  0  0  0  0  0
   11.2550   -1.5680   22.6560 C   0  0  0  0  0  0  0  0  0  0  0  0
   10.4420   -0.9790   23.6090 C   0  0  0  0  0  0  0  0  0  0  0  0
  1  5  1  0
  3  5  2  0
  4  6  2  0
  6  7  1  0
  2 10  1  0
  1 11  1  0
 10 11  2  0
 11 12  1  0
 12 13  2  0
 13 14  1  0
 10 15  1  0
 14 15  2  0
 16  6  1  6
 16 17  1  0
 18 17  1  6
 19  5  1  1
 18 19  1  0
 19 20  1  0
 16 21  1  0
 20 21  1  0
  9 22  1  0
 22 23  1  0
 16 24  1  0
 18 24  1  0
 24 23  1  6
 25 26  2  0
 26 27  1  0
  8 28  1  0
 27 28  2  0
 28 29  1  0
  9 30  1  0
 25 30  1  0
 29 30  2  0
M  END
