x1358-x1385
     RDKit          3D

 26 28  0  0  0  0  0  0  0  0999 V2000
    7.0270   -2.8790   25.6870 N   0  0  0  0  0  0  0  0  0  0  0  0
    4.5530   -1.8890   26.7020 O   0  0  0  0  0  0  0  0  0  0  0  0
    4.8820   -3.9730   25.6620 O   0  0  0  0  0  0  0  0  0  0  0  0
    5.2770   -4.0710   19.6630 O   0  0  0  0  0  0  0  0  0  0  0  0
    5.8590   -3.5280   25.0700 C   0  0  0  0  0  0  0  0  0  0  0  0
    6.4410   -3.8250   19.9550 C   0  0  0  0  0  0  0  0  0  0  0  0
    7.3920   -3.1600   18.9870 C   0  0  0  0  0  0  0  0  0  0  0  0
    9.6560   -3.0880   23.8760 C   0  0  0  0  0  0  0  0  0  0  0  0
    7.0990   -5.0210   28.3170 Br  0  0  0  0  0  0  0  0  0  0  0  0
    5.4870   -1.1200   26.7210 C   0  0  0  0  0  0  0  0  0  0  0  0
    6.8220   -1.5680   26.1780 C   0  0  0  0  0  0  0  0  0  0  0  0
    7.9760   -0.5320   26.1800 C   0  0  0  0  0  0  0  0  0  0  0  0
    7.6600    0.8820   26.8000 C   0  0  0  0  0  0  0  0  0  0  0  0
    6.4000    1.1600   27.2900 C   0  0  0  0  0  0  0  0  0  0  0  0
    5.3250    0.2560   27.2720 C   0  0  0  0  0  0  0  0  0  0  0  0
    6.9660   -4.2090   21.1810 N   0  0  0  0  0  0  0  0  0  0  0  0
    7.6910   -3.3130   21.8460 C   0  0  0  0  0  0  0  0  0  0  0  0
    6.9560   -2.6280   22.9830 C   0  0  0  0  0  0  0  0  0  0  0  0
    5.9190   -3.5810   23.6010 C   0  0  0  0  0  0  0  0  0  0  0  0
    6.0600   -4.9330   23.2650 C   0  0  0  0  0  0  0  0  0  0  0  0
    6.3040   -5.1620   21.9210 C   0  0  0  0  0  0  0  0  0  0  0  0
    9.5580   -5.3040   25.1050 C   0  0  0  0  0  0  0  0  0  0  0  0
    9.1630   -3.9980   24.9890 C   0  0  0  0  0  0  0  0  0  0  0  0
    8.3030   -3.6450   26.0470 C   0  0  2  0  0  0  0  0  0  0  0  0
    8.1480   -4.8600   26.8210 C   0  0  0  0  0  0  0  0  0  0  0  0
    8.9200   -5.9090   26.3120 C   0  0  0  0  0  0  0  0  0  0  0  0
  1  5  1  0
  3  5  2  0
  4  6  2  0
  6  7  1  0
  2 10  1  0
  1 11  1  0
 10 11  2  0
 11 12  1  0
 12 13  2  0
 13 14  1  0
 10 15  1  0
 14 15  2  0
  6 16  1  0
 16 17  1  0
 17 18  1  0
  5 19  1  0
 18 19  1  0
 19 20  1  0
 16 21  1  0
 20 21  1  0
  8 23  1  0
 22 23  2  0
 24  1  1  6
 23 24  1  0
  9 25  1  0
 24 25  1  0
 22 26  1  0
 25 26  2  0
M  END
