x1358-x2572
     RDKit          3D

 39 42  0  0  0  0  0  0  0  0999 V2000
    7.0740   -2.5220   25.9660 N   0  0  0  0  0  0  0  0  0  0  0  0
    5.4320   -0.2830   25.4610 O   0  0  0  0  0  0  0  0  0  0  0  0
    4.8860   -3.4720   25.4350 O   0  0  0  0  0  0  0  0  0  0  0  0
    5.1610   -4.0710   19.6230 O   0  0  0  0  0  0  0  0  0  0  0  0
    6.0810   -3.2960   25.1970 C   0  0  0  0  0  0  0  0  0  0  0  0
    6.2700   -3.7080   19.9780 C   0  0  0  0  0  0  0  0  0  0  0  0
    7.2390   -3.1050   19.0000 C   0  0  0  0  0  0  0  0  0  0  0  0
    4.9780    1.1320   21.7650 C   0  0  0  0  0  0  0  0  0  0  0  0
    8.8150    1.3130   21.1850 O   0  0  0  0  0  0  0  0  0  0  0  0
    7.2430   -0.4500   21.0750 N   0  0  0  0  0  0  0  0  0  0  0  0
   13.5960   -3.2930   20.6280 N   0  0  0  0  0  0  0  0  0  0  0  0
    8.1440    0.0940   21.6000 C   0  0  0  0  0  0  0  0  0  0  0  0
    8.7010   -0.5130   22.8860 C   0  0  0  0  0  0  0  0  0  0  0  0
   13.0340   -2.1880   21.4120 C   0  0  0  0  0  0  0  0  0  0  0  0
    6.5810   -1.5050   21.6970 C   0  0  0  0  0  0  0  0  0  0  0  0
    6.0600   -0.3650   26.6760 C   0  0  0  0  0  0  0  0  0  0  0  0
    6.9060   -1.5190   26.9340 C   0  0  0  0  0  0  0  0  0  0  0  0
    7.5890   -1.5590   28.3170 C   0  0  0  0  0  0  0  0  0  0  0  0
    7.3480   -0.4250   29.3040 C   0  0  0  0  0  0  0  0  0  0  0  0
    6.4250    0.7000   28.8440 C   0  0  0  0  0  0  0  0  0  0  0  0
    5.8320    0.6950   27.5890 C   0  0  0  0  0  0  0  0  0  0  0  0
    6.6720   -3.8950   21.2720 N   0  0  0  0  0  0  0  0  0  0  0  0
    7.3150   -2.8800   21.9070 C   0  0  2  0  0  0  0  0  0  0  0  0
    7.6150   -3.0300   23.2560 C   0  0  0  0  0  0  0  0  0  0  0  0
    6.7780   -3.8990   23.9720 C   0  0  2  0  0  0  0  0  0  0  0  0
    5.8300   -4.6600   23.2790 C   0  0  0  0  0  0  0  0  0  0  0  0
    6.2900   -4.9390   22.0150 C   0  0  0  0  0  0  0  0  0  0  0  0
    6.3500    0.4960   17.6900 N   0  0  0  0  0  0  0  0  0  0  0  0
    7.0030   -0.0840   18.7450 C   0  0  0  0  0  0  0  0  0  0  0  0
    6.5680    0.1210   20.0550 C   0  0  0  0  0  0  0  0  0  0  0  0
    5.4340    0.9230   20.3520 C   0  0  0  0  0  0  0  0  0  0  0  0
    4.7530    1.5220   19.2740 C   0  0  0  0  0  0  0  0  0  0  0  0
    5.1920    1.3220   17.9890 C   0  0  0  0  0  0  0  0  0  0  0  0
   10.7770    0.6610   23.6700 C   0  0  0  0  0  0  0  0  0  0  0  0
   12.1580    0.7210   23.6320 C   0  0  0  0  0  0  0  0  0  0  0  0
   12.9440   -0.1610   22.9230 C   0  0  0  0  0  0  0  0  0  0  0  0
   12.3430   -1.1720   22.2050 C   0  0  0  0  0  0  0  0  0  0  0  0
   10.9660   -1.2610   22.2150 C   0  0  0  0  0  0  0  0  0  0  0  0
   10.1840   -0.3530   22.9380 C   0  0  0  0  0  0  0  0  0  0  0  0
  1  5  1  0
  3  5  2  0
  4  6  2  0
  6  7  1  0
  9 12  2  0
 10 12  1  0
 12 13  1  0
 11 14  3  0
 10 15  1  0
  2 16  1  0
  1 17  1  0
 16 17  2  0
 17 18  1  0
 18 19  2  0
 19 20  1  0
 16 21  1  0
 20 21  2  0
  6 22  1  0
 23 15  1  1
 22 23  1  0
 23 24  1  0
 25  5  1  1
 24 25  1  0
 25 26  1  0
 22 27  1  0
 26 27  1  0
 28 29  2  0
 10 30  1  0
 29 30  1  0
  8 31  1  0
 30 31  2  0
 31 32  1  0
 28 33  1  0
 32 33  2  0
 34 35  2  0
 35 36  1  0
 14 37  1  0
 36 37  2  0
 37 38  1  0
 13 39  1  0
 34 39  1  0
 38 39  2  0
M  END
