x1358-x2649
     RDKit          3D

 39 43  0  0  0  0  0  0  0  0999 V2000
    7.0550   -2.1950   25.8310 N   0  0  0  0  0  0  0  0  0  0  0  0
    5.3420   -0.0690   25.5830 O   0  0  0  0  0  0  0  0  0  0  0  0
    5.0390   -3.5880   25.8720 O   0  0  0  0  0  0  0  0  0  0  0  0
    5.0790   -4.2930   19.7140 O   0  0  0  0  0  0  0  0  0  0  0  0
    5.9960   -3.1010   25.2790 C   0  0  0  0  0  0  0  0  0  0  0  0
    6.1720   -3.9090   20.0620 C   0  0  0  0  0  0  0  0  0  0  0  0
    7.1060   -3.2180   19.1100 C   0  0  0  0  0  0  0  0  0  0  0  0
    6.9550   -0.4740   20.8580 N   0  0  0  0  0  0  0  0  0  0  0  0
    7.7860   -1.5890   23.5630 C   0  0  2  0  0  0  0  0  0  0  0  0
    8.7790    1.2560   21.2640 O   0  0  0  0  0  0  0  0  0  0  0  0
   13.2960   -2.1500   21.1700 Cl  0  0  0  0  0  0  0  0  0  0  0  0
    8.7380   -1.0630   22.5080 C   0  0  1  0  0  0  0  0  0  0  0  0
    8.1790   -0.0460   21.5390 C   0  0  0  0  0  0  0  0  0  0  0  0
    4.6580    1.3970   21.5370 C   0  0  0  0  0  0  0  0  0  0  0  0
    8.1760   -1.6450   25.0080 C   0  0  0  0  0  0  0  0  0  0  0  0
    5.9810   -0.2290   26.7880 C   0  0  0  0  0  0  0  0  0  0  0  0
    6.8790   -1.3530   26.9250 C   0  0  0  0  0  0  0  0  0  0  0  0
    7.5830   -1.5100   28.2870 C   0  0  0  0  0  0  0  0  0  0  0  0
    7.2970   -0.4920   29.3860 C   0  0  0  0  0  0  0  0  0  0  0  0
    6.3160    0.6270   29.0440 C   0  0  0  0  0  0  0  0  0  0  0  0
    5.7090    0.7200   27.7990 C   0  0  0  0  0  0  0  0  0  0  0  0
    6.6650   -4.1290   21.3980 N   0  0  0  0  0  0  0  0  0  0  0  0
    7.5040   -3.2570   21.9340 C   0  0  0  0  0  0  0  0  0  0  0  0
    7.4350   -3.0080   23.2500 C   0  0  2  0  0  0  0  0  0  0  0  0
    6.2160   -3.3830   23.7800 C   0  0  1  0  0  0  0  0  0  0  0  0
    5.8150   -4.7130   23.5060 C   0  0  0  0  0  0  0  0  0  0  0  0
    6.1270   -5.0680   22.1970 C   0  0  0  0  0  0  0  0  0  0  0  0
    6.2600    0.6660   17.5890 N   0  0  0  0  0  0  0  0  0  0  0  0
    5.1630    1.5860   17.7820 C   0  0  0  0  0  0  0  0  0  0  0  0
    4.7170    1.7500   19.0780 C   0  0  0  0  0  0  0  0  0  0  0  0
    5.2450    1.1080   20.1940 C   0  0  0  0  0  0  0  0  0  0  0  0
    6.3070    0.2310   19.9460 C   0  0  0  0  0  0  0  0  0  0  0  0
    6.8650   -0.0460   18.7060 C   0  0  0  0  0  0  0  0  0  0  0  0
   10.5690    0.2590   23.7860 C   0  0  0  0  0  0  0  0  0  0  0  0
   11.9460    0.4280   23.8680 C   0  0  0  0  0  0  0  0  0  0  0  0
   12.8480   -0.2770   23.0970 C   0  0  0  0  0  0  0  0  0  0  0  0
   12.3660   -1.2020   22.1980 C   0  0  0  0  0  0  0  0  0  0  0  0
   11.0350   -1.3920   22.0890 C   0  0  0  0  0  0  0  0  0  0  0  0
   10.1420   -0.6780   22.8590 C   0  0  0  0  0  0  0  0  0  0  0  0
  1  5  1  0
  3  5  2  0
  4  6  2  0
  6  7  1  0
  9 12  1  0
  8 13  1  0
 10 13  2  0
 12 13  1  1
  1 15  1  0
  9 15  1  1
  2 16  1  0
  1 17  1  0
 16 17  2  0
 17 18  1  0
 18 19  2  0
 19 20  1  0
 16 21  1  0
 20 21  2  0
  6 22  1  0
 22 23  1  0
  9 24  1  0
 24 23  1  6
  5 25  1  0
 24 25  1  0
 25 26  1  1
 22 27  1  0
 26 27  1  0
 28 29  2  0
 29 30  1  0
 14 31  1  0
 30 31  2  0
  8 32  1  0
 31 32  1  0
 28 33  1  0
 32 33  2  0
 34 35  2  0
 35 36  1  0
 11 37  1  0
 36 37  2  0
 37 38  1  0
 12 39  1  0
 34 39  1  0
 38 39  2  0
M  END
