x1351-x0734
     RDKit          3D

 28 30  0  0  0  0  0  0  0  0999 V2000
    7.2060   -3.2040   19.1630 C   0  0  0  0  0  0  0  0  0  0  0  0
    5.2430   -4.4260   19.8240 O   0  0  0  0  0  0  0  0  0  0  0  0
    6.3030   -3.9070   20.1610 C   0  0  0  0  0  0  0  0  0  0  0  0
    5.9570   -3.0230   25.2260 N   0  0  0  0  0  0  0  0  0  0  0  0
    7.7920   -2.4400   26.3710 O   0  0  0  0  0  0  0  0  0  0  0  0
    6.5200   -2.0410   26.1140 C   0  0  0  0  0  0  0  0  0  0  0  0
    6.7220   -4.0050   21.4690 N   0  0  0  0  0  0  0  0  0  0  0  0
    7.7470   -3.2510   21.9780 C   0  0  0  0  0  0  0  0  0  0  0  0
    7.1590   -2.5170   23.1340 C   0  0  0  0  0  0  0  0  0  0  0  0
    6.4850   -3.5260   24.0170 C   0  0  0  0  0  0  0  0  0  0  0  0
    5.5460   -4.2710   23.2780 C   0  0  0  0  0  0  0  0  0  0  0  0
    6.1920   -4.9420   22.2180 C   0  0  0  0  0  0  0  0  0  0  0  0
    7.2180   -0.5040   28.0450 C   0  0  0  0  0  0  0  0  0  0  0  0
    7.0650    0.7140   28.7670 C   0  0  0  0  0  0  0  0  0  0  0  0
    6.0980    1.6710   28.3520 C   0  0  0  0  0  0  0  0  0  0  0  0
    5.3010    1.4090   27.2300 C   0  0  0  0  0  0  0  0  0  0  0  0
    5.4340    0.2420   26.5200 C   0  0  0  0  0  0  0  0  0  0  0  0
    6.4490   -0.8100   26.9250 C   0  0  0  0  0  0  0  0  0  0  0  0
    5.0900   -5.2160   26.3830 N   0  0  0  0  0  0  0  0  0  0  0  0
    4.3800   -6.1550   25.5790 O   0  0  0  0  0  0  0  0  0  0  0  0
    4.4920   -3.9600   26.6790 O   0  0  0  0  0  0  0  0  0  0  0  0
    6.5560   -5.3320   26.4270 C   0  0  0  0  0  0  0  0  0  0  0  0
    7.3090   -5.2280   25.0660 C   0  0  0  0  0  0  0  0  0  0  0  0
    8.8300   -5.3590   25.1220 C   0  0  0  0  0  0  0  0  0  0  0  0
    9.4060   -5.5600   26.3550 C   0  0  0  0  0  0  0  0  0  0  0  0
    8.7180   -5.6490   27.5870 C   0  0  0  0  0  0  0  0  0  0  0  0
    7.3120   -5.5310   27.5810 C   0  0  0  0  0  0  0  0  0  0  0  0
    4.6140   -3.1820   25.5160 C   0  0  0  0  0  0  0  0  0  0  0  0
  1  3  1  0
  2  3  2  0
  4  6  1  0
  5  6  2  0
  3  7  1  0
  7  8  1  0
  8  9  1  0
  4 10  1  0
  9 10  1  0
 10 11  1  0
  7 12  1  0
 11 12  1  0
 13 14  2  0
 14 15  1  0
 15 16  2  0
 16 17  1  0
  6 18  1  0
 13 18  1  0
 17 18  2  0
 19 20  2  0
 19 21  1  0
 19 22  1  0
 22 23  2  0
 23 24  1  0
 24 25  2  0
 25 26  1  0
 22 27  1  0
 26 27  2  0
  4 28  1  0
 21 28  1  0
M  CHG  1  19   1
M  END
