x1358-x2964
     RDKit          3D

 38 41  0  0  0  0  0  0  0  0999 V2000
    7.0810   -2.6930   26.1060 N   0  0  0  0  0  0  0  0  0  0  0  0
    5.3060   -0.2440   25.4240 O   0  0  0  0  0  0  0  0  0  0  0  0
    4.8660   -3.5830   25.7880 O   0  0  0  0  0  0  0  0  0  0  0  0
    5.1400   -4.2860   19.7250 O   0  0  0  0  0  0  0  0  0  0  0  0
    5.9500   -3.2450   25.3250 C   0  0  0  0  0  0  0  0  0  0  0  0
    6.2160   -3.8040   20.0260 C   0  0  0  0  0  0  0  0  0  0  0  0
    7.1480   -3.1460   19.0480 C   0  0  0  0  0  0  0  0  0  0  0  0
    3.5260    2.1960   19.6000 N   0  0  0  0  0  0  0  0  0  0  0  0
    8.5830    1.3320   21.0330 O   0  0  0  0  0  0  0  0  0  0  0  0
   13.2440   -2.3150   21.3320 Cl  0  0  0  0  0  0  0  0  0  0  0  0
    7.3830   -0.4470   21.0000 N   0  0  0  0  0  0  0  0  0  0  0  0
    8.8450   -0.3400   22.5270 N   0  0  0  0  0  0  0  0  0  0  0  0
    8.2330    0.2130   21.4610 C   0  0  0  0  0  0  0  0  0  0  0  0
    6.7360   -1.3200   21.7710 C   0  0  0  0  0  0  0  0  0  0  0  0
    5.9840   -0.3580   26.6080 C   0  0  0  0  0  0  0  0  0  0  0  0
    6.8640   -1.5930   26.9210 C   0  0  0  0  0  0  0  0  0  0  0  0
    7.5740   -1.5960   28.2940 C   0  0  0  0  0  0  0  0  0  0  0  0
    7.3990   -0.5250   29.1680 C   0  0  0  0  0  0  0  0  0  0  0  0
    6.5790    0.6390   28.8960 C   0  0  0  0  0  0  0  0  0  0  0  0
    5.8610    0.6610   27.5260 C   0  0  0  0  0  0  0  0  0  0  0  0
    6.7350   -3.8490   21.3690 N   0  0  0  0  0  0  0  0  0  0  0  0
    7.4290   -2.7100   21.9820 C   0  0  2  0  0  0  0  0  0  0  0  0
    7.4770   -3.0290   23.4570 C   0  0  0  0  0  0  0  0  0  0  0  0
    6.2050   -3.3730   23.8670 C   0  0  1  0  0  0  0  0  0  0  0  0
    5.7800   -4.5650   23.2870 C   0  0  0  0  0  0  0  0  0  0  0  0
    6.5130   -4.9470   22.1680 C   0  0  0  0  0  0  0  0  0  0  0  0
    4.6430    1.4800   19.3800 C   0  0  0  0  0  0  0  0  0  0  0  0
    5.4270    0.8800   20.3860 C   0  0  0  0  0  0  0  0  0  0  0  0
    6.5830    0.1440   20.0860 C   0  0  0  0  0  0  0  0  0  0  0  0
    7.0040   -0.0360   18.7820 C   0  0  0  0  0  0  0  0  0  0  0  0
    6.2730    0.5490   17.6510 N   0  0  0  0  0  0  0  0  0  0  0  0
    5.1850    1.2490   17.9540 C   0  0  0  0  0  0  0  0  0  0  0  0
   10.8070    0.7910   23.3900 C   0  0  0  0  0  0  0  0  0  0  0  0
   12.2060    0.8810   23.4890 C   0  0  0  0  0  0  0  0  0  0  0  0
   13.0170   -0.0650   22.8650 C   0  0  0  0  0  0  0  0  0  0  0  0
   12.4180   -1.0930   22.1550 C   0  0  0  0  0  0  0  0  0  0  0  0
   11.0660   -1.1460   22.0830 C   0  0  0  0  0  0  0  0  0  0  0  0
   10.2190   -0.2520   22.6600 C   0  0  0  0  0  0  0  0  0  0  0  0
  1  5  1  0
  3  5  2  0
  4  6  2  0
  6  7  1  0
  9 13  2  0
 11 13  1  0
 12 13  1  0
 11 14  1  0
  2 15  1  0
  1 16  1  0
 15 16  2  0
 16 17  1  0
 17 18  2  0
 18 19  1  0
 15 20  1  0
 19 20  2  0
  6 21  1  0
 22 14  1  1
 21 22  1  0
 22 23  1  0
 24  5  1  1
 23 24  1  0
 24 25  1  0
 21 26  1  0
 25 26  1  0
  8 27  1  0
 27 28  2  0
 11 29  1  0
 28 29  1  0
 29 30  2  0
 30 31  1  0
 27 32  1  0
 31 32  2  0
 33 34  2  0
 34 35  1  0
 10 36  1  0
 35 36  2  0
 36 37  1  0
 12 38  1  0
 33 38  1  0
 37 38  2  0
M  END
