x1351-x3124
     RDKit          3D

 40 43  0  0  0  0  0  0  0  0999 V2000
    7.4780   -1.6210   21.6240 N   0  0  0  0  0  0  0  0  0  0  0  0
    7.7850    1.3510   23.2280 N   0  0  0  0  0  0  0  0  0  0  0  0
    8.6220    1.4160   21.0970 O   0  0  0  0  0  0  0  0  0  0  0  0
    6.9340   -0.2970   21.6040 C   0  0  1  0  0  0  0  0  0  0  0  0
    7.8660    0.8750   21.9240 C   0  0  0  0  0  0  0  0  0  0  0  0
    8.7310    2.4350   23.5530 C   0  0  0  0  0  0  0  0  0  0  0  0
   12.3190   -1.8380   24.4890 C   0  0  0  0  0  0  0  0  0  0  0  0
   12.8390   -0.5330   24.8500 C   0  0  0  0  0  0  0  0  0  0  0  0
   13.3020   -1.3290   23.5150 C   0  0  0  0  0  0  0  0  0  0  0  0
   12.9420   -3.0540   25.1450 C   0  0  0  0  0  0  0  0  0  0  0  0
    7.0280   -3.1240   19.2060 C   0  0  0  0  0  0  0  0  0  0  0  0
    5.1300   -4.4230   19.7930 O   0  0  0  0  0  0  0  0  0  0  0  0
    6.1000   -3.8010   20.1910 C   0  0  0  0  0  0  0  0  0  0  0  0
    5.4020   -2.9360   25.3880 N   0  0  0  0  0  0  0  0  0  0  0  0
    6.8390   -3.3830   26.9920 O   0  0  0  0  0  0  0  0  0  0  0  0
    6.1420   -2.5640   26.4500 C   0  0  0  0  0  0  0  0  0  0  0  0
    6.3170    0.3710   17.7230 N   0  0  0  0  0  0  0  0  0  0  0  0
    5.1760    1.0780   17.9010 C   0  0  0  0  0  0  0  0  0  0  0  0
    4.4740    1.4130   19.0700 C   0  0  0  0  0  0  0  0  0  0  0  0
    5.0050    0.9760   20.2780 C   0  0  0  0  0  0  0  0  0  0  0  0
    6.2950    0.1660   20.3580 C   0  0  0  0  0  0  0  0  0  0  0  0
    6.9170   -0.1190   18.9930 C   0  0  0  0  0  0  0  0  0  0  0  0
    9.7610   -2.2500   21.7600 C   0  0  0  0  0  0  0  0  0  0  0  0
   11.0300   -2.3010   22.5410 C   0  0  0  0  0  0  0  0  0  0  0  0
   11.0100   -1.7680   23.7830 C   0  0  0  0  0  0  0  0  0  0  0  0
    9.8680   -1.1880   24.3340 C   0  0  0  0  0  0  0  0  0  0  0  0
    8.6900   -1.1460   23.5800 C   0  0  0  0  0  0  0  0  0  0  0  0
    8.6530   -1.6760   22.2940 C   0  0  0  0  0  0  0  0  0  0  0  0
    6.2990   -3.8090   21.5560 N   0  0  0  0  0  0  0  0  0  0  0  0
    6.8290   -2.7460   22.2950 C   0  0  2  0  0  0  0  0  0  0  0  0
    5.9950   -2.4280   23.3120 C   0  0  0  0  0  0  0  0  0  0  0  0
    6.0390   -3.4570   24.1910 C   0  0  2  0  0  0  0  0  0  0  0  0
    5.4810   -4.5950   23.6290 C   0  0  0  0  0  0  0  0  0  0  0  0
    6.0140   -5.0120   22.3840 C   0  0  0  0  0  0  0  0  0  0  0  0
    6.8170   -0.8540   28.1200 C   0  0  0  0  0  0  0  0  0  0  0  0
    6.7380    0.5010   28.6350 C   0  0  0  0  0  0  0  0  0  0  0  0
    5.9450    1.4760   28.0060 C   0  0  0  0  0  0  0  0  0  0  0  0
    5.2200    1.1540   26.8710 C   0  0  0  0  0  0  0  0  0  0  0  0
    5.3020   -0.1650   26.3790 C   0  0  0  0  0  0  0  0  0  0  0  0
    6.0780   -1.1790   26.9720 C   0  0  0  0  0  0  0  0  0  0  0  0
  1  4  1  0
  2  5  1  0
  3  5  2  0
  4  5  1  6
  2  6  1  0
  7  8  1  0
  7  9  1  0
  7 10  1  0
 11 13  1  0
 12 13  2  0
 14 16  1  0
 15 16  2  0
 17 18  2  0
 18 19  1  0
 19 20  2  0
  4 21  1  0
 20 21  1  0
 17 22  1  0
 21 22  2  0
 23 24  2  0
  7 25  1  0
 24 25  1  0
 25 26  2  0
 26 27  1  0
  1 28  1  0
 23 28  1  0
 27 28  2  0
 13 29  1  0
 30  1  1  6
 29 30  1  0
 30 31  1  0
 32 14  1  1
 31 32  1  0
 32 33  1  0
 29 34  1  0
 33 34  1  0
 35 36  2  0
 36 37  1  0
 37 38  2  0
 38 39  1  0
 16 40  1  0
 35 40  1  0
 39 40  2  0
M  END
