x1351-x2754
     RDKit          3D

 25 27  0  0  0  0  0  0  0  0999 V2000
    5.0390   -2.8110   25.1290 C   0  0  0  0  0  0  0  0  0  0  0  0
    3.8660   -2.7730   25.4880 O   0  0  0  0  0  0  0  0  0  0  0  0
    5.9890   -2.4090   26.2350 C   0  0  0  0  0  0  0  0  0  0  0  0
    5.1900   -4.6310   19.8910 O   0  0  0  0  0  0  0  0  0  0  0  0
    6.1780   -4.0240   20.2660 C   0  0  0  0  0  0  0  0  0  0  0  0
    7.0160   -3.2260   19.2800 C   0  0  0  0  0  0  0  0  0  0  0  0
    5.4990   -2.9380   27.3270 C   0  0  0  0  0  0  0  0  0  0  0  0
    6.5820   -4.0820   21.5900 N   0  0  0  0  0  0  0  0  0  0  0  0
    7.1730   -2.9390   22.1690 C   0  0  0  0  0  0  0  0  0  0  0  0
    6.8280   -2.7340   23.5040 C   0  0  0  0  0  0  0  0  0  0  0  0
    5.5290   -3.2250   23.7690 C   0  0  0  0  0  0  0  0  0  0  0  0
    5.4890   -4.6240   23.5980 C   0  0  0  0  0  0  0  0  0  0  0  0
    6.2150   -5.1500   22.5040 C   0  0  0  0  0  0  0  0  0  0  0  0
    7.3730   -4.9510   27.7030 C   0  0  0  0  0  0  0  0  0  0  0  0
    8.6780   -5.3580   27.6250 C   0  0  0  0  0  0  0  0  0  0  0  0
    9.4770   -4.6140   26.8440 C   0  0  0  0  0  0  0  0  0  0  0  0
    8.9160   -3.4060   26.1160 C   0  0  0  0  0  0  0  0  0  0  0  0
    7.4840   -2.7400   26.0440 C   0  0  0  0  0  0  0  0  0  0  0  0
    6.8420   -3.8350   27.0350 C   0  0  0  0  0  0  0  0  0  0  0  0
    6.9820   -0.1360   26.7340 C   0  0  0  0  0  0  0  0  0  0  0  0
    6.9960    1.1920   27.1480 C   0  0  0  0  0  0  0  0  0  0  0  0
    5.7710    1.7770   27.5210 C   0  0  0  0  0  0  0  0  0  0  0  0
    4.6320    0.9680   27.4400 C   0  0  0  0  0  0  0  0  0  0  0  0
    4.6700   -0.3550   27.0270 C   0  0  0  0  0  0  0  0  0  0  0  0
    5.8610   -0.9480   26.6680 C   0  0  0  0  0  0  0  0  0  0  0  0
  1  2  2  0
  3  1  1  0
  4  5  2  0
  5  6  1  0
  3  7  1  0
  5  8  1  0
  8  9  1  0
  9 10  1  0
  1 11  1  0
 10 11  1  0
 11 12  1  0
  8 13  1  0
 12 13  1  0
 14 15  2  0
 15 16  1  0
 16 17  2  0
  3 18  1  0
 17 18  1  0
 14 19  1  0
 18 19  2  0
 20 21  2  0
 21 22  1  0
 22 23  2  0
 23 24  1  0
  3 25  1  0
 20 25  1  0
 24 25  2  0
M  END
