x1358-x0107
     RDKit          3D

 32 34  0  0  0  0  0  0  0  0999 V2000
    6.8850   -2.6780   25.9060 N   0  0  0  0  0  0  0  0  0  0  0  0
    5.3480   -0.3900   25.3800 O   0  0  0  0  0  0  0  0  0  0  0  0
    4.6060   -3.4250   25.5010 O   0  0  0  0  0  0  0  0  0  0  0  0
    5.2280   -4.1730   19.7050 O   0  0  0  0  0  0  0  0  0  0  0  0
    5.7520   -3.1970   25.1080 C   0  0  0  0  0  0  0  0  0  0  0  0
    6.3480   -3.8370   20.0550 C   0  0  0  0  0  0  0  0  0  0  0  0
    7.2820   -3.1620   19.0830 C   0  0  0  0  0  0  0  0  0  0  0  0
    9.9500   -0.6700   22.4370 C   0  0  0  0  0  0  0  0  0  0  0  0
    9.0030    0.1970   21.6170 C   0  0  0  0  0  0  0  0  0  0  0  0
    9.2710    1.3800   21.3550 O   0  0  0  0  0  0  0  0  0  0  0  0
    7.7710   -0.4980   21.1430 N   0  0  0  0  0  0  0  0  0  0  0  0
    5.4830    1.1020   22.0060 C   0  0  0  0  0  0  0  0  0  0  0  0
    6.0990    0.2600   24.3310 C   0  0  0  0  0  0  0  0  0  0  0  0
    5.4130   -0.0850   22.9850 C   0  0  0  0  0  0  0  0  0  0  0  0
    6.0490   -0.4380   26.5650 C   0  0  0  0  0  0  0  0  0  0  0  0
    6.8490   -1.6240   26.8380 C   0  0  0  0  0  0  0  0  0  0  0  0
    7.6060   -1.5990   28.1820 C   0  0  0  0  0  0  0  0  0  0  0  0
    7.4850   -0.4010   29.1130 C   0  0  0  0  0  0  0  0  0  0  0  0
    6.5980    0.7550   28.6620 C   0  0  0  0  0  0  0  0  0  0  0  0
    5.9400    0.6780   27.4380 C   0  0  0  0  0  0  0  0  0  0  0  0
    6.8330   -4.1300   21.3980 N   0  0  0  0  0  0  0  0  0  0  0  0
    7.7570   -3.4090   22.0440 C   0  0  0  0  0  0  0  0  0  0  0  0
    7.4420   -2.9940   23.3050 C   0  0  0  0  0  0  0  0  0  0  0  0
    6.1640   -3.4370   23.6480 C   0  0  0  0  0  0  0  0  0  0  0  0
    5.9650   -4.8250   23.4500 C   0  0  0  0  0  0  0  0  0  0  0  0
    6.2310   -5.0990   22.1090 C   0  0  0  0  0  0  0  0  0  0  0  0
    6.9300   -0.0280   20.2030 C   0  0  0  0  0  0  0  0  0  0  0  0
    5.8300    0.7410   20.5650 C   0  0  0  0  0  0  0  0  0  0  0  0
    4.9900    1.2250   19.5470 C   0  0  0  0  0  0  0  0  0  0  0  0
    5.1860    0.9840   18.1740 C   0  0  0  0  0  0  0  0  0  0  0  0
    6.2510    0.2290   17.7940 N   0  0  0  0  0  0  0  0  0  0  0  0
    7.1050   -0.2640   18.8650 C   0  0  0  0  0  0  0  0  0  0  0  0
  1  5  1  0
  3  5  2  0
  4  6  2  0
  6  7  1  0
  8  9  1  0
  9 10  2  0
  9 11  1  0
  2 13  1  0
 12 14  1  0
 13 14  1  0
  2 15  1  0
  1 16  1  0
 15 16  1  0
 16 17  2  0
 17 18  1  0
 18 19  2  0
 15 20  2  0
 19 20  1  0
  6 21  1  0
 21 22  1  0
 22 23  1  0
  5 24  1  0
 23 24  1  0
 24 25  1  0
 21 26  1  0
 25 26  1  0
 11 27  1  0
 12 28  1  0
 27 28  2  0
 28 29  1  0
 29 30  2  0
 30 31  1  0
 27 32  1  0
 31 32  2  0
M  END
