x1351-x2569
     RDKit          3D

 37 40  0  0  0  0  0  0  0  0999 V2000
    7.1250   -3.1280   19.3330 C   0  0  0  0  0  0  0  0  0  0  0  0
    5.3540   -4.5850   19.9210 O   0  0  0  0  0  0  0  0  0  0  0  0
    6.2350   -3.8200   20.3380 C   0  0  0  0  0  0  0  0  0  0  0  0
    6.2860   -2.7230   24.9370 N   0  0  0  0  0  0  0  0  0  0  0  0
    7.8450   -3.0230   26.8130 O   0  0  0  0  0  0  0  0  0  0  0  0
    6.8890   -2.2980   26.1930 C   0  0  0  0  0  0  0  0  0  0  0  0
    8.0640    0.1680   21.4720 C   0  0  0  0  0  0  0  0  0  0  0  0
    8.7820    1.1500   21.1690 O   0  0  0  0  0  0  0  0  0  0  0  0
    8.6380   -1.0190   22.1160 C   0  0  2  0  0  0  0  0  0  0  0  0
   13.9460   -1.7280   20.5290 N   0  0  0  0  0  0  0  0  0  0  0  0
    6.6360    0.0890   21.2390 N   0  0  0  0  0  0  0  0  0  0  0  0
   13.2250   -1.3210   21.5870 C   0  0  0  0  0  0  0  0  0  0  0  0
    7.5890   -1.8470   22.8960 C   0  0  0  0  0  0  0  0  0  0  0  0
    6.3440   -3.6670   21.7420 N   0  0  0  0  0  0  0  0  0  0  0  0
    7.4630   -3.1960   22.4210 C   0  0  2  0  0  0  0  0  0  0  0  0
    7.7140   -3.9490   23.5560 C   0  0  0  0  0  0  0  0  0  0  0  0
    6.5800   -4.0480   24.4010 C   0  0  2  0  0  0  0  0  0  0  0  0
    5.4320   -4.4160   23.6900 C   0  0  0  0  0  0  0  0  0  0  0  0
    5.7400   -4.7020   22.3600 C   0  0  0  0  0  0  0  0  0  0  0  0
    7.0650   -0.7170   28.0640 C   0  0  0  0  0  0  0  0  0  0  0  0
    6.7400    0.5410   28.8570 C   0  0  0  0  0  0  0  0  0  0  0  0
    5.7080    1.5370   28.3220 C   0  0  0  0  0  0  0  0  0  0  0  0
    5.0580    1.1500   26.9510 C   0  0  0  0  0  0  0  0  0  0  0  0
    5.5110   -0.1860   26.2700 C   0  0  0  0  0  0  0  0  0  0  0  0
    6.4740   -1.0600   26.8290 C   0  0  0  0  0  0  0  0  0  0  0  0
   11.4080    0.4230   24.3390 N   0  0  0  0  0  0  0  0  0  0  0  0
   12.4440   -0.0390   23.5980 C   0  0  0  0  0  0  0  0  0  0  0  0
   12.2420   -0.7810   22.4800 C   0  0  0  0  0  0  0  0  0  0  0  0
   11.0120   -1.0650   22.0900 C   0  0  0  0  0  0  0  0  0  0  0  0
    9.9290   -0.6450   22.7400 C   0  0  0  0  0  0  0  0  0  0  0  0
   10.1280    0.1260   23.9160 C   0  0  0  0  0  0  0  0  0  0  0  0
    6.3520    0.7450   17.7000 N   0  0  0  0  0  0  0  0  0  0  0  0
    6.7490    0.3240   18.9070 C   0  0  0  0  0  0  0  0  0  0  0  0
    6.0520    0.5870   20.0480 C   0  0  0  0  0  0  0  0  0  0  0  0
    4.8680    1.2940   20.0660 C   0  0  0  0  0  0  0  0  0  0  0  0
    4.4210    1.7390   18.8940 C   0  0  0  0  0  0  0  0  0  0  0  0
    5.2040    1.4490   17.7050 C   0  0  0  0  0  0  0  0  0  0  0  0
  1  3  1  0
  2  3  2  0
  4  6  1  0
  5  6  2  0
  7  8  2  0
  7  9  1  0
  7 11  1  0
 10 12  3  0
  9 13  1  1
  3 14  1  0
 15 13  1  1
 14 15  1  0
 15 16  1  0
 17  4  1  6
 16 17  1  0
 17 18  1  0
 14 19  1  0
 18 19  1  0
 20 21  2  0
 21 22  1  0
 22 23  2  0
 23 24  1  0
  6 25  1  0
 20 25  1  0
 24 25  2  0
 26 27  2  0
 12 28  1  0
 27 28  1  0
 28 29  2  0
  9 30  1  0
 29 30  1  0
 26 31  1  0
 30 31  2  0
 32 33  2  0
 11 34  1  0
 33 34  1  0
 34 35  2  0
 35 36  1  0
 32 37  1  0
 36 37  2  0
M  END
