x1351-x0072
     RDKit          3D

 30 33  0  0  0  0  0  0  0  0999 V2000
    6.9840   -3.2610   19.3380 C   0  0  0  0  0  0  0  0  0  0  0  0
    5.2920   -4.8100   19.9590 O   0  0  0  0  0  0  0  0  0  0  0  0
    6.2220   -4.1070   20.3400 C   0  0  0  0  0  0  0  0  0  0  0  0
    5.5960   -2.0860   24.6900 N   0  0  0  0  0  0  0  0  0  0  0  0
    7.2800   -2.7900   26.5110 C   0  0  0  0  0  0  0  0  0  0  0  0
    6.3090   -1.8330   25.8600 C   0  0  0  0  0  0  0  0  0  0  0  0
    8.0980   -5.3110   24.6510 C   0  0  0  0  0  0  0  0  0  0  0  0
    8.0040   -4.2340   25.9720 S   0  0  2  0  0  0  0  0  0  0  0  0
    8.8580   -5.0140   26.8350 O   0  0  0  0  0  0  0  0  0  0  0  0
    7.8870   -3.9760   24.2730 N   0  0  0  0  0  0  0  0  0  0  0  0
    9.1700   -3.4390   23.8750 C   0  0  0  0  0  0  0  0  0  0  0  0
    9.2030   -2.0380   23.9850 C   0  0  0  0  0  0  0  0  0  0  0  0
    6.6010   -4.1290   21.6810 N   0  0  0  0  0  0  0  0  0  0  0  0
    7.4270   -3.3890   22.1260 C   0  0  0  0  0  0  0  0  0  0  0  0
    7.2010   -3.1050   23.4890 C   0  0  1  0  0  0  0  0  0  0  0  0
    5.8710   -3.0210   23.6420 C   0  0  1  0  0  0  0  0  0  0  0  0
    5.2410   -4.2550   23.6780 C   0  0  0  0  0  0  0  0  0  0  0  0
    5.8130   -4.9590   22.6050 C   0  0  0  0  0  0  0  0  0  0  0  0
    7.0380    0.4830   26.6510 C   0  0  0  0  0  0  0  0  0  0  0  0
    6.8090    1.8150   27.3660 C   0  0  0  0  0  0  0  0  0  0  0  0
    5.4650    2.1120   28.0120 C   0  0  0  0  0  0  0  0  0  0  0  0
    4.4050    0.9880   27.8760 C   0  0  0  0  0  0  0  0  0  0  0  0
    4.7730   -0.3210   27.1260 C   0  0  0  0  0  0  0  0  0  0  0  0
    6.0380   -0.5080   26.5680 C   0  0  0  0  0  0  0  0  0  0  0  0
   10.5340   -1.4260   23.6220 C   0  0  0  0  0  0  0  0  0  0  0  0
   11.3950   -1.9650   22.6640 C   0  0  0  0  0  0  0  0  0  0  0  0
   12.6110   -1.3610   22.3630 C   0  0  0  0  0  0  0  0  0  0  0  0
   13.0430   -0.1880   22.9870 C   0  0  0  0  0  0  0  0  0  0  0  0
   12.1640    0.3280   23.9380 C   0  0  0  0  0  0  0  0  0  0  0  0
   10.9530   -0.2500   24.2620 C   0  0  0  0  0  0  0  0  0  0  0  0
  1  3  1  0
  2  3  2  0
  4  6  1  0
  5  6  2  0
  5  8  2  0
  8  7  1  6
  8  9  2  0
  8 10  1  0
 10 11  1  0
 11 12  1  0
  3 13  1  0
 13 14  1  0
 10 15  1  0
 15 14  1  6
  4 16  1  0
 15 16  1  0
 16 17  1  1
 13 18  1  0
 17 18  1  0
 19 20  2  0
 20 21  1  0
 21 22  2  0
 22 23  1  0
  6 24  1  0
 19 24  1  0
 23 24  2  0
 12 25  1  0
 25 26  2  0
 26 27  1  0
 27 28  2  0
 28 29  1  0
 25 30  1  0
 29 30  2  0
M  END
