x1358-x1402
     RDKit          3D

 29 31  0  0  0  0  0  0  0  0999 V2000
    7.4000   -2.3650   25.8410 N   0  0  0  0  0  0  0  0  0  0  0  0
    5.6920   -0.1820   25.3620 O   0  0  0  0  0  0  0  0  0  0  0  0
    5.1530   -3.3590   26.1010 C   0  0  0  0  0  0  0  0  0  0  0  0
    5.2920   -4.2660   19.7570 O   0  0  0  0  0  0  0  0  0  0  0  0
    6.3410   -3.1480   25.2190 C   0  0  0  0  0  0  0  0  0  0  0  0
    6.4020   -3.8220   20.0300 C   0  0  0  0  0  0  0  0  0  0  0  0
    7.2700   -3.1590   18.9970 C   0  0  0  0  0  0  0  0  0  0  0  0
    0.2320   -1.2940   26.2020 Cl  0  0  0  0  0  0  0  0  0  0  0  0
    6.2210   -0.2550   26.4780 C   0  0  0  0  0  0  0  0  0  0  0  0
    7.1480   -1.4020   26.7960 C   0  0  0  0  0  0  0  0  0  0  0  0
    7.8140   -1.5060   28.1970 C   0  0  0  0  0  0  0  0  0  0  0  0
    7.4640   -0.3740   29.2140 C   0  0  0  0  0  0  0  0  0  0  0  0
    6.5910    0.6540   28.8290 C   0  0  0  0  0  0  0  0  0  0  0  0
    5.9640    0.7680   27.5400 C   0  0  0  0  0  0  0  0  0  0  0  0
    6.9430   -3.9460   21.3020 N   0  0  0  0  0  0  0  0  0  0  0  0
    7.8010   -3.0080   21.7520 C   0  0  0  0  0  0  0  0  0  0  0  0
    7.8020   -2.8240   23.2550 C   0  0  0  0  0  0  0  0  0  0  0  0
    6.5790   -3.5860   23.7480 C   0  0  0  0  0  0  0  0  0  0  0  0
    6.6720   -4.9400   23.4480 C   0  0  0  0  0  0  0  0  0  0  0  0
    6.6570   -5.0670   22.0700 C   0  0  0  0  0  0  0  0  0  0  0  0
    2.0010   -3.7020   26.7610 S   0  0  0  0  0  0  0  0  0  0  0  0
    3.8450   -3.8150   26.4940 C   0  0  0  0  0  0  0  0  0  0  0  0
    3.9020   -2.4770   26.0090 C   0  0  0  0  0  0  0  0  0  0  0  0
    2.9030   -1.5710   25.8550 C   0  0  0  0  0  0  0  0  0  0  0  0
    1.7360   -2.0560   26.2190 C   0  0  0  0  0  0  0  0  0  0  0  0
    3.7010   -6.4870   25.8760 O   0  0  0  0  0  0  0  0  0  0  0  0
    6.0100   -5.7160   26.5120 O   0  0  0  0  0  0  0  0  0  0  0  0
    4.9420   -5.8270   25.5320 S   0  0  0  0  0  0  0  0  0  0  0  0
    4.6110   -4.1710   24.9640 C   0  0  0  0  0  0  0  0  0  0  0  0
  1  5  1  0
  3  5  2  3
  4  6  2  0
  6  7  1  0
  2  9  1  0
  1 10  1  0
  9 10  2  0
 10 11  1  0
 11 12  2  0
 12 13  1  0
  9 14  1  0
 13 14  2  0
  6 15  1  0
 15 16  1  0
 16 17  1  0
  5 18  1  0
 17 18  1  0
 18 19  1  0
 15 20  1  0
 19 20  1  0
  3 22  1  0
 21 22  1  0
 22 23  2  0
 23 24  1  0
  8 25  1  0
 21 25  1  0
 24 25  2  0
 26 28  2  0
 27 28  2  0
  3 29  1  0
 28 29  1  0
M  END
