x1351-x0770
     RDKit          3D

 27 29  0  0  0  0  0  0  0  0999 V2000
    7.2040   -3.2670   19.2930 C   0  0  0  0  0  0  0  0  0  0  0  0
    5.2730   -4.5550   19.8870 O   0  0  0  0  0  0  0  0  0  0  0  0
    6.3240   -4.0410   20.2600 C   0  0  0  0  0  0  0  0  0  0  0  0
    6.4790   -3.3310   25.1400 N   0  0  0  0  0  0  0  0  0  0  0  0
    7.7640   -2.8080   26.8610 O   0  0  0  0  0  0  0  0  0  0  0  0
    6.6980   -2.3320   26.1720 C   0  0  0  0  0  0  0  0  0  0  0  0
    6.7530   -4.2080   21.5680 N   0  0  0  0  0  0  0  0  0  0  0  0
    7.8100   -3.5580   22.1120 C   0  0  0  0  0  0  0  0  0  0  0  0
    7.1280   -2.5110   22.8900 C   0  0  1  0  0  0  0  0  0  0  0  0
    6.0600   -3.0770   23.8110 C   0  0  1  0  0  0  0  0  0  0  0  0
    5.3490   -4.1850   23.2590 C   0  0  0  0  0  0  0  0  0  0  0  0
    6.1050   -5.0010   22.3730 C   0  0  0  0  0  0  0  0  0  0  0  0
    7.0530   -0.7050   28.1310 C   0  0  0  0  0  0  0  0  0  0  0  0
    6.7650    0.5150   28.8110 C   0  0  0  0  0  0  0  0  0  0  0  0
    5.8190    1.4260   28.2710 C   0  0  0  0  0  0  0  0  0  0  0  0
    5.1750    1.1150   27.0660 C   0  0  0  0  0  0  0  0  0  0  0  0
    5.4390   -0.0600   26.3910 C   0  0  0  0  0  0  0  0  0  0  0  0
    6.4420   -1.0680   26.9290 C   0  0  0  0  0  0  0  0  0  0  0  0
   13.3280   -1.6730   21.3110 Cl  0  0  0  0  0  0  0  0  0  0  0  0
    9.2950   -2.6740   24.2130 C   0  0  0  0  0  0  0  0  0  0  0  0
   10.4120   -0.3830   24.5110 C   0  0  0  0  0  0  0  0  0  0  0  0
   11.5560    0.5620   24.0600 C   0  0  0  0  0  0  0  0  0  0  0  0
   12.4570    0.1690   23.0810 C   0  0  0  0  0  0  0  0  0  0  0  0
   12.2820   -1.1080   22.5160 C   0  0  0  0  0  0  0  0  0  0  0  0
   11.2560   -1.9780   22.9020 C   0  0  0  0  0  0  0  0  0  0  0  0
   10.3410   -1.6300   23.8800 C   0  0  0  0  0  0  0  0  0  0  0  0
    8.1550   -1.8180   23.7220 C   0  0  0  0  0  0  0  0  0  0  0  0
  1  3  1  0
  2  3  2  0
  4  6  1  0
  5  6  2  0
  3  7  1  0
  7  8  1  0
  8  9  1  0
 10  4  1  1
  9 10  1  0
 10 11  1  0
  7 12  1  0
 11 12  1  0
 13 14  2  0
 14 15  1  0
 15 16  2  0
 16 17  1  0
  6 18  1  0
 13 18  1  0
 17 18  2  0
 21 22  2  0
 22 23  1  0
 19 24  1  0
 23 24  2  0
 24 25  1  0
 20 26  1  0
 21 26  1  0
 25 26  2  0
  9 27  1  1
 20 27  1  0
M  END
