x1351-x2964
     RDKit          3D

 37 40  0  0  0  0  0  0  0  0999 V2000
    7.0070   -3.2610   19.1370 C   0  0  0  0  0  0  0  0  0  0  0  0
    5.2170   -4.6690   19.8820 O   0  0  0  0  0  0  0  0  0  0  0  0
    6.1680   -3.9680   20.1870 C   0  0  0  0  0  0  0  0  0  0  0  0
    5.9460   -2.9890   25.3430 N   0  0  0  0  0  0  0  0  0  0  0  0
    7.9760   -3.0420   26.7300 O   0  0  0  0  0  0  0  0  0  0  0  0
    6.8350   -2.4310   26.3500 C   0  0  0  0  0  0  0  0  0  0  0  0
    3.3880    2.0740   19.6650 N   0  0  0  0  0  0  0  0  0  0  0  0
    8.6920    1.6170   21.1400 O   0  0  0  0  0  0  0  0  0  0  0  0
   13.2220   -2.2750   21.3460 Cl  0  0  0  0  0  0  0  0  0  0  0  0
    7.2300   -0.3840   21.1960 N   0  0  0  0  0  0  0  0  0  0  0  0
    8.9010   -0.2980   22.6770 N   0  0  0  0  0  0  0  0  0  0  0  0
    8.2610    0.3490   21.6540 C   0  0  0  0  0  0  0  0  0  0  0  0
    7.6010   -1.6640   21.0060 C   0  0  0  0  0  0  0  0  0  0  0  0
    6.5000   -3.8510   21.5110 N   0  0  0  0  0  0  0  0  0  0  0  0
    7.3680   -2.7680   22.0210 C   0  0  2  0  0  0  0  0  0  0  0  0
    6.6900   -2.3300   23.1570 C   0  0  0  0  0  0  0  0  0  0  0  0
    6.5020   -3.3970   24.0550 C   0  0  2  0  0  0  0  0  0  0  0  0
    5.6040   -4.3390   23.5480 C   0  0  0  0  0  0  0  0  0  0  0  0
    6.1490   -4.9520   22.4030 C   0  0  0  0  0  0  0  0  0  0  0  0
    7.0460   -0.6660   28.2020 C   0  0  0  0  0  0  0  0  0  0  0  0
    6.6840    0.5830   28.7980 C   0  0  0  0  0  0  0  0  0  0  0  0
    5.7440    1.4590   28.2450 C   0  0  0  0  0  0  0  0  0  0  0  0
    5.0370    1.1260   26.9490 C   0  0  0  0  0  0  0  0  0  0  0  0
    5.3890   -0.1960   26.2770 C   0  0  0  0  0  0  0  0  0  0  0  0
    6.4600   -1.1060   26.9870 C   0  0  0  0  0  0  0  0  0  0  0  0
    4.6230    1.3780   19.2470 C   0  0  0  0  0  0  0  0  0  0  0  0
    5.2950    0.8550   20.3290 C   0  0  0  0  0  0  0  0  0  0  0  0
    6.4900    0.1520   20.1760 C   0  0  0  0  0  0  0  0  0  0  0  0
    6.9240    0.0230   18.8510 C   0  0  0  0  0  0  0  0  0  0  0  0
    6.2920    0.5280   17.7640 N   0  0  0  0  0  0  0  0  0  0  0  0
    5.1470    1.2040   17.9790 C   0  0  0  0  0  0  0  0  0  0  0  0
   11.0240    1.0020   23.5060 C   0  0  0  0  0  0  0  0  0  0  0  0
   12.4000    0.9680   23.4500 C   0  0  0  0  0  0  0  0  0  0  0  0
   13.0510   -0.0420   22.7890 C   0  0  0  0  0  0  0  0  0  0  0  0
   12.3840   -1.0580   22.1600 C   0  0  0  0  0  0  0  0  0  0  0  0
   11.0250   -1.0670   22.1860 C   0  0  0  0  0  0  0  0  0  0  0  0
   10.3070   -0.1330   22.7910 C   0  0  0  0  0  0  0  0  0  0  0  0
  1  3  1  0
  2  3  2  0
  4  6  1  0
  5  6  2  0
  8 12  2  0
 10 12  1  0
 11 12  1  0
 10 13  1  0
  3 14  1  0
 15 13  1  6
 14 15  1  0
 15 16  1  0
 17  4  1  1
 16 17  1  0
 17 18  1  0
 14 19  1  0
 18 19  1  0
 20 21  2  0
 21 22  1  0
 22 23  2  0
 23 24  1  0
  6 25  1  0
 20 25  1  0
 24 25  2  0
  7 26  1  0
 26 27  2  0
 10 28  1  0
 27 28  1  0
 28 29  2  0
 29 30  1  0
 26 31  1  0
 30 31  2  0
 32 33  2  0
 33 34  1  0
  9 35  1  0
 34 35  2  0
 35 36  1  0
 11 37  1  0
 32 37  1  0
 36 37  2  0
M  END
