x1351-x2193
     RDKit          3D

 34 37  0  0  0  0  0  0  0  0999 V2000
    7.2190   -3.2720   19.2620 C   0  0  0  0  0  0  0  0  0  0  0  0
    5.1630   -4.3910   19.8000 O   0  0  0  0  0  0  0  0  0  0  0  0
    6.2560   -4.0020   20.1780 C   0  0  0  0  0  0  0  0  0  0  0  0
    5.7490   -3.0060   25.2640 N   0  0  0  0  0  0  0  0  0  0  0  0
    7.8410   -2.8230   26.6620 N   0  0  0  0  0  0  0  0  0  0  0  0
    6.5440   -2.2900   26.2660 C   0  0  0  0  0  0  0  0  0  0  0  0
   10.7690    2.5320   22.7770 C   0  0  0  0  0  0  0  0  0  0  0  0
    9.1390    1.7190   20.9660 O   0  0  0  0  0  0  0  0  0  0  0  0
    8.2360    2.4940   23.1280 O   0  0  0  0  0  0  0  0  0  0  0  0
    9.2580    1.8030   22.3820 S   0  0  0  0  0  0  0  0  0  0  0  0
    6.6780   -4.2930   21.4570 N   0  0  0  0  0  0  0  0  0  0  0  0
    7.4790   -3.3750   22.0310 C   0  0  0  0  0  0  0  0  0  0  0  0
    6.8740   -2.6720   23.1970 C   0  0  0  0  0  0  0  0  0  0  0  0
    6.2410   -3.5560   24.0580 C   0  0  0  0  0  0  0  0  0  0  0  0
    5.2930   -4.3220   23.3460 C   0  0  0  0  0  0  0  0  0  0  0  0
    5.8660   -5.0170   22.2590 C   0  0  0  0  0  0  0  0  0  0  0  0
    6.7420   -0.6020   28.2510 C   0  0  0  0  0  0  0  0  0  0  0  0
    6.4290    0.6310   28.8920 C   0  0  0  0  0  0  0  0  0  0  0  0
    5.5500    1.5710   28.2870 C   0  0  0  0  0  0  0  0  0  0  0  0
    4.9590    1.3300   27.0510 C   0  0  0  0  0  0  0  0  0  0  0  0
    5.2410    0.0520   26.3150 C   0  0  0  0  0  0  0  0  0  0  0  0
    6.1850   -0.9660   26.9520 C   0  0  0  0  0  0  0  0  0  0  0  0
    9.3650    0.1090   22.9580 C   0  0  0  0  0  0  0  0  0  0  0  0
    8.2210   -0.2770   23.8760 C   0  0  0  0  0  0  0  0  0  0  0  0
    8.1790   -1.5290   24.4350 C   0  0  0  0  0  0  0  0  0  0  0  0
    9.1120   -2.5300   24.2200 C   0  0  0  0  0  0  0  0  0  0  0  0
   10.1740   -2.1910   23.3330 C   0  0  0  0  0  0  0  0  0  0  0  0
   10.2970   -0.9180   22.7270 C   0  0  0  0  0  0  0  0  0  0  0  0
    8.5040   -6.1140   25.7790 N   0  0  0  0  0  0  0  0  0  0  0  0
    7.7350   -5.1080   26.1720 C   0  0  0  0  0  0  0  0  0  0  0  0
    8.4690   -3.9690   26.1810 C   0  0  1  0  0  0  0  0  0  0  0  0
    9.0170   -3.7500   24.8050 N   0  0  0  0  0  0  0  0  0  0  0  0
    9.8030   -4.7410   24.4550 C   0  0  0  0  0  0  0  0  0  0  0  0
    9.0680   -5.9050   24.4270 C   0  0  0  0  0  0  0  0  0  0  0  0
  1  3  1  0
  2  3  2  0
  4  6  1  0
  5  6  2  3
 10  7  1  0
  8 10  2  0
  9 10  2  0
  3 11  1  0
 11 12  1  0
 12 13  1  0
  4 14  1  0
 13 14  1  0
 14 15  1  0
 11 16  1  0
 15 16  1  0
 17 18  2  0
 18 19  1  0
 19 20  2  0
 20 21  1  0
  6 22  1  0
 17 22  1  0
 21 22  2  0
 10 23  1  0
 23 24  2  0
 24 25  1  0
 25 26  2  0
 26 27  1  0
 23 28  1  0
 27 28  2  0
 29 30  1  0
 31  5  1  6
 30 31  1  0
 26 32  1  0
 31 32  1  0
 32 33  1  0
 29 34  1  0
 33 34  1  0
M  END
