x1358-x2193
     RDKit          3D

 36 39  0  0  0  0  0  0  0  0999 V2000
    6.5170   -2.8770   25.9030 N   0  0  0  0  0  0  0  0  0  0  0  0
    5.1320   -0.1790   25.3530 O   0  0  0  0  0  0  0  0  0  0  0  0
    4.2460   -2.8790   25.1920 O   0  0  0  0  0  0  0  0  0  0  0  0
    5.2310   -4.0720   19.6420 O   0  0  0  0  0  0  0  0  0  0  0  0
    5.4340   -3.0000   24.9190 C   0  0  0  0  0  0  0  0  0  0  0  0
    6.3750   -3.8020   19.9760 C   0  0  0  0  0  0  0  0  0  0  0  0
    7.3640   -3.1530   19.0360 C   0  0  0  0  0  0  0  0  0  0  0  0
   11.1650    2.3810   23.2220 C   0  0  0  0  0  0  0  0  0  0  0  0
    9.4050    1.7910   21.3110 O   0  0  0  0  0  0  0  0  0  0  0  0
    8.4830    2.6820   23.5900 O   0  0  0  0  0  0  0  0  0  0  0  0
    9.5390    1.8330   22.7510 S   0  0  0  0  0  0  0  0  0  0  0  0
    6.4660   -4.1940   26.4810 C   0  0  0  0  0  0  0  0  0  0  0  0
    5.8460   -0.4020   26.4990 C   0  0  0  0  0  0  0  0  0  0  0  0
    6.5380   -1.7680   26.7580 C   0  0  0  0  0  0  0  0  0  0  0  0
    7.3130   -1.8670   28.0990 C   0  0  0  0  0  0  0  0  0  0  0  0
    7.3430   -0.7740   28.9610 C   0  0  0  0  0  0  0  0  0  0  0  0
    6.7080    0.5070   28.7500 C   0  0  0  0  0  0  0  0  0  0  0  0
    5.9320    0.6290   27.4190 C   0  0  0  0  0  0  0  0  0  0  0  0
    6.8320   -4.1250   21.2380 N   0  0  0  0  0  0  0  0  0  0  0  0
    7.7630   -3.3220   21.9930 C   0  0  0  0  0  0  0  0  0  0  0  0
    6.9810   -2.6310   23.1090 C   0  0  0  0  0  0  0  0  0  0  0  0
    5.8550   -3.3240   23.5310 C   0  0  0  0  0  0  0  0  0  0  0  0
    5.9160   -4.7010   23.2820 C   0  0  0  0  0  0  0  0  0  0  0  0
    6.1560   -5.0180   21.9580 C   0  0  0  0  0  0  0  0  0  0  0  0
    9.4470    0.1940   23.3940 C   0  0  0  0  0  0  0  0  0  0  0  0
    9.0830   -0.0470   24.7350 C   0  0  0  0  0  0  0  0  0  0  0  0
    8.9720   -1.3460   25.2410 C   0  0  0  0  0  0  0  0  0  0  0  0
    9.2210   -2.4560   24.4360 C   0  0  0  0  0  0  0  0  0  0  0  0
    9.6140   -2.2810   23.0940 C   0  0  0  0  0  0  0  0  0  0  0  0
    9.7470   -1.0200   22.5090 C   0  0  0  0  0  0  0  0  0  0  0  0
    7.8680   -6.0050   25.4620 N   0  0  0  0  0  0  0  0  0  0  0  0
    7.7620   -5.0010   26.4310 C   0  0  1  0  0  0  0  0  0  0  0  0
    8.7400   -4.1410   26.2500 C   0  0  0  0  0  0  0  0  0  0  0  0
    9.0790   -3.7470   24.9390 N   0  0  0  0  0  0  0  0  0  0  0  0
    9.5890   -4.8310   24.1830 C   0  0  0  0  0  0  0  0  0  0  0  0
    9.1420   -6.0020   24.7670 C   0  0  0  0  0  0  0  0  0  0  0  0
  1  5  1  0
  3  5  2  0
  4  6  2  0
  6  7  1  0
 11  8  1  0
  9 11  2  0
 10 11  2  0
  1 12  1  0
  2 13  1  0
  1 14  1  0
 13 14  2  0
 14 15  1  0
 15 16  2  0
 16 17  1  0
 13 18  1  0
 17 18  2  0
  6 19  1  0
 19 20  1  0
 20 21  1  0
  5 22  1  0
 21 22  1  0
 22 23  1  0
 19 24  1  0
 23 24  1  0
 11 25  1  0
 25 26  2  0
 26 27  1  0
 27 28  2  0
 28 29  1  0
 25 30  1  0
 29 30  2  0
 32 12  1  6
 31 32  1  0
 32 33  1  0
 28 34  1  0
 33 34  1  0
 34 35  1  0
 31 36  1  0
 35 36  1  0
M  END
