x1358-x2563
     RDKit          3D

 40 44  0  0  0  0  0  0  0  0999 V2000
    7.0910   -2.5610   25.9830 N   0  0  0  0  0  0  0  0  0  0  0  0
    5.4270   -0.4010   25.3730 O   0  0  0  0  0  0  0  0  0  0  0  0
    4.8980   -3.4820   25.5420 O   0  0  0  0  0  0  0  0  0  0  0  0
    5.1200   -4.2160   19.6780 O   0  0  0  0  0  0  0  0  0  0  0  0
    6.0810   -3.3410   25.2370 C   0  0  0  0  0  0  0  0  0  0  0  0
    6.2560   -3.9140   19.9910 C   0  0  0  0  0  0  0  0  0  0  0  0
    7.1700   -3.2230   19.0170 C   0  0  0  0  0  0  0  0  0  0  0  0
    8.3440   -0.2760   21.1290 C   0  0  0  0  0  0  0  0  0  0  0  0
    8.4220    0.9590   21.0620 O   0  0  0  0  0  0  0  0  0  0  0  0
    7.2430   -1.0330   20.5200 C   0  0  1  0  0  0  0  0  0  0  0  0
    9.2570   -1.1780   21.7690 N   0  0  0  0  0  0  0  0  0  0  0  0
    6.5000   -1.8700   21.5340 C   0  0  0  0  0  0  0  0  0  0  0  0
    6.0130   -0.3250   26.6900 C   0  0  0  0  0  0  0  0  0  0  0  0
    6.9340   -1.5200   27.0310 C   0  0  0  0  0  0  0  0  0  0  0  0
    7.5390   -1.5190   28.2840 C   0  0  0  0  0  0  0  0  0  0  0  0
    7.3750   -0.4990   29.2890 C   0  0  0  0  0  0  0  0  0  0  0  0
    6.4500    0.6930   28.9370 C   0  0  0  0  0  0  0  0  0  0  0  0
    5.7730    0.7160   27.5600 C   0  0  0  0  0  0  0  0  0  0  0  0
    6.7840   -4.2410   21.3030 N   0  0  0  0  0  0  0  0  0  0  0  0
    7.3870   -3.0740   21.9210 C   0  0  2  0  0  0  0  0  0  0  0  0
    7.5290   -3.1520   23.3020 C   0  0  0  0  0  0  0  0  0  0  0  0
    6.6610   -3.9870   24.0010 C   0  0  2  0  0  0  0  0  0  0  0  0
    5.5890   -4.5170   23.3020 C   0  0  0  0  0  0  0  0  0  0  0  0
    6.0660   -5.1240   22.1700 C   0  0  0  0  0  0  0  0  0  0  0  0
    6.1180    0.7740   17.4830 N   0  0  0  0  0  0  0  0  0  0  0  0
    5.0760    1.4770   17.9590 C   0  0  0  0  0  0  0  0  0  0  0  0
    4.6410    1.4350   19.2770 C   0  0  0  0  0  0  0  0  0  0  0  0
    5.3410    0.6030   20.1790 C   0  0  0  0  0  0  0  0  0  0  0  0
    6.4200   -0.1320   19.7120 C   0  0  0  0  0  0  0  0  0  0  0  0
    6.7200    0.0170   18.3970 C   0  0  0  0  0  0  0  0  0  0  0  0
    3.5370    2.2000   19.6970 C   0  0  0  0  0  0  0  0  0  0  0  0
    3.1440    2.1300   21.0240 C   0  0  0  0  0  0  0  0  0  0  0  0
    3.7920    1.3410   21.9440 C   0  0  0  0  0  0  0  0  0  0  0  0
    4.8810    0.5550   21.6180 C   0  0  0  0  0  0  0  0  0  0  0  0
   11.5990   -0.7060   22.4000 C   0  0  0  0  0  0  0  0  0  0  0  0
   12.4200   -0.0690   23.2590 C   0  0  0  0  0  0  0  0  0  0  0  0
   11.8820    0.6410   24.2920 C   0  0  0  0  0  0  0  0  0  0  0  0
   10.5080    0.7760   24.5640 C   0  0  0  0  0  0  0  0  0  0  0  0
    9.5940    0.1700   23.7440 C   0  0  0  0  0  0  0  0  0  0  0  0
   10.2270   -0.5940   22.6150 C   0  0  0  0  0  0  0  0  0  0  0  0
  1  5  1  0
  3  5  2  0
  4  6  2  0
  6  7  1  0
  8  9  2  0
  8 10  1  0
  8 11  1  0
 10 12  1  1
  2 13  1  0
  1 14  1  0
 13 14  2  0
 14 15  1  0
 15 16  2  0
 16 17  1  0
 13 18  1  0
 17 18  2  0
  6 19  1  0
 20 12  1  1
 19 20  1  0
 20 21  1  0
 22  5  1  1
 21 22  1  0
 22 23  1  0
 19 24  1  0
 23 24  1  0
 25 26  2  0
 26 27  1  0
 27 28  2  0
 10 29  1  0
 28 29  1  0
 25 30  1  0
 29 30  2  0
 27 31  1  0
 31 32  2  0
 32 33  1  0
 28 34  1  0
 33 34  2  0
 35 36  2  0
 36 37  1  0
 37 38  2  0
 38 39  1  0
 11 40  1  0
 35 40  1  0
 39 40  2  0
M  END
