x1351-x2097
     RDKit          3D

 18 19  0  0  0  0  0  0  0  0999 V2000
    7.1100   -3.2680   19.2990 C   0  0  0  0  0  0  0  0  0  0  0  0
    5.2520   -4.6290   19.9140 O   0  0  0  0  0  0  0  0  0  0  0  0
    6.2540   -4.0260   20.2900 C   0  0  0  0  0  0  0  0  0  0  0  0
    6.3000   -3.3630   25.1940 N   0  0  0  0  0  0  0  0  0  0  0  0
    7.7990   -2.7440   26.7070 O   0  0  0  0  0  0  0  0  0  0  0  0
    6.6330   -2.3230   26.1610 C   0  0  0  0  0  0  0  0  0  0  0  0
    6.6650   -4.0710   21.6190 N   0  0  0  0  0  0  0  0  0  0  0  0
    7.5650   -3.2030   22.1560 C   0  0  0  0  0  0  0  0  0  0  0  0
    6.6850   -2.3560   22.9940 C   0  0  0  0  0  0  0  0  0  0  0  0
    5.7690   -3.1510   23.9000 C   0  0  0  0  0  0  0  0  0  0  0  0
    5.2700   -4.3470   23.3110 C   0  0  0  0  0  0  0  0  0  0  0  0
    6.1840   -4.9810   22.4250 C   0  0  0  0  0  0  0  0  0  0  0  0
    7.1900   -0.7090   28.0560 C   0  0  0  0  0  0  0  0  0  0  0  0
    6.9130    0.5370   28.6630 C   0  0  0  0  0  0  0  0  0  0  0  0
    5.9540    1.4450   28.1830 C   0  0  0  0  0  0  0  0  0  0  0  0
    5.1870    1.1720   27.0440 C   0  0  0  0  0  0  0  0  0  0  0  0
    5.4080   -0.0410   26.3960 C   0  0  0  0  0  0  0  0  0  0  0  0
    6.4550   -1.0420   26.9110 C   0  0  0  0  0  0  0  0  0  0  0  0
  1  3  1  0
  2  3  2  0
  4  6  1  0
  5  6  2  0
  3  7  1  0
  7  8  1  0
  8  9  1  0
  4 10  1  0
  9 10  1  0
 10 11  1  0
  7 12  1  0
 11 12  1  0
 13 14  2  0
 14 15  1  0
 15 16  2  0
 16 17  1  0
  6 18  1  0
 13 18  1  0
 17 18  2  0
M  END
