x1358-x0770
     RDKit          3D

 28 30  0  0  0  0  0  0  0  0999 V2000
    6.8020   -2.6250   26.0340 N   0  0  0  0  0  0  0  0  0  0  0  0
    5.6190   -0.2350   25.1880 O   0  0  0  0  0  0  0  0  0  0  0  0
    4.5010   -3.2260   25.7100 O   0  0  0  0  0  0  0  0  0  0  0  0
    5.1970   -4.1450   19.6650 O   0  0  0  0  0  0  0  0  0  0  0  0
    5.6280   -3.0570   25.2560 C   0  0  0  0  0  0  0  0  0  0  0  0
    6.3080   -3.7980   20.0240 C   0  0  0  0  0  0  0  0  0  0  0  0
    7.2850   -3.1450   19.0650 C   0  0  0  0  0  0  0  0  0  0  0  0
    5.9740   -0.2700   26.5000 C   0  0  0  0  0  0  0  0  0  0  0  0
    6.5960   -1.5410   26.9710 C   0  0  0  0  0  0  0  0  0  0  0  0
    7.0250   -1.6960   28.4160 C   0  0  0  0  0  0  0  0  0  0  0  0
    6.7870   -0.4580   29.3360 C   0  0  0  0  0  0  0  0  0  0  0  0
    6.1240    0.7960   28.6660 C   0  0  0  0  0  0  0  0  0  0  0  0
    5.7590    0.8230   27.3180 C   0  0  0  0  0  0  0  0  0  0  0  0
    6.6970   -4.0390   21.3360 N   0  0  0  0  0  0  0  0  0  0  0  0
    7.7530   -3.2550   21.9230 C   0  0  0  0  0  0  0  0  0  0  0  0
    7.0830   -2.5130   23.0720 C   0  0  1  0  0  0  0  0  0  0  0  0
    5.9220   -3.3320   23.6790 C   0  0  1  0  0  0  0  0  0  0  0  0
    6.1200   -4.8570   23.4390 C   0  0  0  0  0  0  0  0  0  0  0  0
    6.3090   -5.2140   22.1020 C   0  0  0  0  0  0  0  0  0  0  0  0
   13.5070   -1.5490   21.1140 Cl  0  0  0  0  0  0  0  0  0  0  0  0
    9.5680   -2.8650   23.7850 C   0  0  0  0  0  0  0  0  0  0  0  0
   10.6800   -0.6170   24.3980 C   0  0  0  0  0  0  0  0  0  0  0  0
   11.6950    0.2970   24.1220 C   0  0  0  0  0  0  0  0  0  0  0  0
   12.6210    0.0510   23.0990 C   0  0  0  0  0  0  0  0  0  0  0  0
   12.5010   -1.1280   22.3580 C   0  0  0  0  0  0  0  0  0  0  0  0
   11.5020   -2.0010   22.6440 C   0  0  0  0  0  0  0  0  0  0  0  0
   10.5920   -1.7910   23.6300 C   0  0  0  0  0  0  0  0  0  0  0  0
    8.1670   -2.4070   24.1500 C   0  0  0  0  0  0  0  0  0  0  0  0
  1  5  1  0
  3  5  2  0
  4  6  2  0
  6  7  1  0
  2  8  1  0
  1  9  1  0
  8  9  2  0
  9 10  1  0
 10 11  2  0
 11 12  1  0
  8 13  1  0
 12 13  2  0
  6 14  1  0
 14 15  1  0
 15 16  1  0
 17  5  1  1
 16 17  1  0
 17 18  1  0
 14 19  1  0
 18 19  1  0
 22 23  2  0
 23 24  1  0
 20 25  1  0
 24 25  2  0
 25 26  1  0
 21 27  1  0
 22 27  1  0
 26 27  2  0
 16 28  1  1
 21 28  1  0
M  END
