x1358-x2562
     RDKit          3D

 42 46  0  0  0  0  0  0  0  0999 V2000
    6.8390   -2.8330   26.0660 N   0  0  0  0  0  0  0  0  0  0  0  0
    5.3650   -0.5310   25.3690 O   0  0  0  0  0  0  0  0  0  0  0  0
    4.5680   -3.4090   25.5530 O   0  0  0  0  0  0  0  0  0  0  0  0
    5.1240   -4.2340   19.7040 O   0  0  0  0  0  0  0  0  0  0  0  0
    5.7310   -3.2530   25.1810 C   0  0  0  0  0  0  0  0  0  0  0  0
    6.2300   -3.8440   20.0280 C   0  0  0  0  0  0  0  0  0  0  0  0
    7.1210   -3.1740   19.0230 C   0  0  0  0  0  0  0  0  0  0  0  0
    8.4190    0.1140   21.3690 C   0  0  0  0  0  0  0  0  0  0  0  0
    8.5090    1.3290   21.0910 O   0  0  0  0  0  0  0  0  0  0  0  0
    7.3390   -0.7440   20.7840 C   0  0  1  0  0  0  0  0  0  0  0  0
   12.0270    2.8860   23.3230 O   0  0  0  0  0  0  0  0  0  0  0  0
    9.2800   -0.6700   22.2330 N   0  0  0  0  0  0  0  0  0  0  0  0
   12.3690    6.6600   22.5400 O   0  0  0  0  0  0  0  0  0  0  0  0
    6.6480   -1.6460   21.7800 C   0  0  0  0  0  0  0  0  0  0  0  0
    6.0270   -0.4330   26.6450 C   0  0  0  0  0  0  0  0  0  0  0  0
    6.8430   -1.6930   27.0370 C   0  0  0  0  0  0  0  0  0  0  0  0
    7.5100   -1.6600   28.2600 C   0  0  0  0  0  0  0  0  0  0  0  0
    7.5240   -0.5750   29.2140 C   0  0  0  0  0  0  0  0  0  0  0  0
    6.6940    0.6570   28.7810 C   0  0  0  0  0  0  0  0  0  0  0  0
    5.9420    0.6810   27.4480 C   0  0  0  0  0  0  0  0  0  0  0  0
    6.7400   -4.0670   21.3710 N   0  0  0  0  0  0  0  0  0  0  0  0
    7.4210   -2.9570   22.0320 C   0  0  2  0  0  0  0  0  0  0  0  0
    7.3890   -3.2250   23.3680 C   0  0  0  0  0  0  0  0  0  0  0  0
    6.0950   -3.4970   23.7290 C   0  0  1  0  0  0  0  0  0  0  0  0
    5.7900   -4.8280   23.4730 C   0  0  0  0  0  0  0  0  0  0  0  0
    6.2650   -5.1610   22.2060 C   0  0  0  0  0  0  0  0  0  0  0  0
    4.6210    1.5240   19.4840 N   0  0  0  0  0  0  0  0  0  0  0  0
    4.9500    1.5440   18.1710 C   0  0  0  0  0  0  0  0  0  0  0  0
    6.0670    0.8200   17.5500 N   0  0  0  0  0  0  0  0  0  0  0  0
    6.8370    0.0500   18.5150 C   0  0  0  0  0  0  0  0  0  0  0  0
    6.5180    0.0360   19.8310 C   0  0  0  0  0  0  0  0  0  0  0  0
    5.4160    0.7710   20.2670 C   0  0  0  0  0  0  0  0  0  0  0  0
   12.5550    4.5700   21.7160 N   0  0  0  0  0  0  0  0  0  0  0  0
   13.2120    5.5440   22.3450 C   0  0  2  0  0  0  0  0  0  0  0  0
   13.4510    4.8250   23.4030 C   0  0  0  0  0  0  0  0  0  0  0  0
   13.0640    3.6800   22.7350 C   0  0  1  0  0  0  0  0  0  0  0  0
   11.7480   -1.2160   22.3780 C   0  0  0  0  0  0  0  0  0  0  0  0
   12.9920   -0.6350   22.6280 C   0  0  0  0  0  0  0  0  0  0  0  0
   13.0820    0.7280   22.9360 C   0  0  0  0  0  0  0  0  0  0  0  0
   11.9760    1.5520   23.0190 C   0  0  0  0  0  0  0  0  0  0  0  0
   10.7790    0.9730   22.7730 C   0  0  0  0  0  0  0  0  0  0  0  0
   10.6590   -0.3710   22.4550 C   0  0  0  0  0  0  0  0  0  0  0  0
  1  5  1  0
  3  5  2  0
  4  6  2  0
  6  7  1  0
  8  9  2  0
  8 10  1  0
  8 12  1  0
 10 14  1  1
  2 15  1  0
  1 16  1  0
 15 16  2  0
 16 17  1  0
 17 18  2  0
 18 19  1  0
 15 20  1  0
 19 20  2  0
  6 21  1  0
 22 14  1  1
 21 22  1  0
 22 23  1  0
 24  5  1  1
 23 24  1  0
 24 25  1  0
 21 26  1  0
 25 26  1  0
 27 28  2  0
 28 29  1  0
 29 30  2  0
 10 31  1  0
 30 31  1  0
 27 32  1  0
 31 32  2  0
 34 13  1  1
 33 34  1  0
 34 35  1  0
 36 11  1  1
 33 36  1  0
 35 36  1  0
 37 38  2  0
 38 39  1  0
 11 40  1  0
 39 40  2  0
 40 41  1  0
 12 42  1  0
 37 42  1  0
 41 42  2  0
M  END
