x1351-x0967
     RDKit          3D

 39 41  0  0  0  0  0  0  0  0999 V2000
    7.6230    4.6790   22.3480 C   0  0  0  0  0  0  0  0  0  0  0  0
    8.0620    2.4300   23.1070 N   0  0  0  0  0  0  0  0  0  0  0  0
    5.9670    3.3020   23.4030 O   0  0  0  0  0  0  0  0  0  0  0  0
    7.1190    3.4170   22.9950 C   0  0  0  0  0  0  0  0  0  0  0  0
    8.6610   -1.1250   22.3800 N   0  0  0  0  0  0  0  0  0  0  0  0
    5.6660    0.8850   17.0100 O   0  0  0  0  0  0  0  0  0  0  0  0
    7.7460    0.9960   23.1560 C   0  0  1  0  0  0  0  0  0  0  0  0
    9.6830    0.8580   21.8180 O   0  0  0  0  0  0  0  0  0  0  0  0
    6.3360    0.6840   22.6840 C   0  0  0  0  0  0  0  0  0  0  0  0
    8.7800    0.2430   22.3780 C   0  0  0  0  0  0  0  0  0  0  0  0
    9.7290   -1.9770   22.0620 C   0  0  0  0  0  0  0  0  0  0  0  0
   10.8500   -1.2460   21.7700 C   0  0  0  0  0  0  0  0  0  0  0  0
   12.0240   -1.5680   22.3950 C   0  0  0  0  0  0  0  0  0  0  0  0
   13.5330   -2.0390   23.3780 Br  0  0  0  0  0  0  0  0  0  0  0  0
    7.0770   -3.2220   19.3340 C   0  0  0  0  0  0  0  0  0  0  0  0
    5.2500   -4.6410   19.9030 O   0  0  0  0  0  0  0  0  0  0  0  0
    6.2140   -4.0060   20.3110 C   0  0  0  0  0  0  0  0  0  0  0  0
    5.8130   -3.0200   25.4260 N   0  0  0  0  0  0  0  0  0  0  0  0
    7.8300   -2.9920   26.4520 O   0  0  0  0  0  0  0  0  0  0  0  0
    6.7680   -2.4580   26.2040 C   0  0  0  0  0  0  0  0  0  0  0  0
    7.3960   -1.7430   22.0300 C   0  0  0  0  0  0  0  0  0  0  0  0
    6.1570    0.7390   21.2390 C   0  0  0  0  0  0  0  0  0  0  0  0
    7.0670   -0.1720   20.4100 C   0  0  0  0  0  0  0  0  0  0  0  0
    6.9880   -0.2170   18.8950 C   0  0  0  0  0  0  0  0  0  0  0  0
    5.9170    0.7430   18.3060 C   0  0  0  0  0  0  0  0  0  0  0  0
    5.0600    1.6140   19.2480 C   0  0  0  0  0  0  0  0  0  0  0  0
    5.2090    1.5760   20.6270 C   0  0  0  0  0  0  0  0  0  0  0  0
    6.4930   -4.0520   21.6770 N   0  0  0  0  0  0  0  0  0  0  0  0
    7.5090   -3.2400   22.3410 C   0  0  2  0  0  0  0  0  0  0  0  0
    7.3680   -3.3960   23.7110 C   0  0  0  0  0  0  0  0  0  0  0  0
    6.0210   -3.4990   24.0340 C   0  0  1  0  0  0  0  0  0  0  0  0
    5.5090   -4.7630   23.6950 C   0  0  0  0  0  0  0  0  0  0  0  0
    5.8710   -5.1580   22.4030 C   0  0  0  0  0  0  0  0  0  0  0  0
    7.1470   -0.6740   27.9530 C   0  0  0  0  0  0  0  0  0  0  0  0
    6.9110    0.5440   28.5660 C   0  0  0  0  0  0  0  0  0  0  0  0
    5.9480    1.4140   28.0650 C   0  0  0  0  0  0  0  0  0  0  0  0
    5.2470    1.0680   26.9780 C   0  0  0  0  0  0  0  0  0  0  0  0
    5.4750   -0.2150   26.3080 C   0  0  0  0  0  0  0  0  0  0  0  0
    6.4550   -1.1250   26.8020 C   0  0  0  0  0  0  0  0  0  0  0  0
  1  4  1  0
  2  4  1  0
  3  4  2  0
  2  7  1  0
  7  9  1  6
  5 10  1  0
  7 10  1  0
  8 10  2  0
  5 11  1  0
 11 12  1  0
 12 13  3  0
 13 14  1  0
 15 17  1  0
 16 17  2  0
 18 20  1  0
 19 20  2  0
  5 21  1  0
  9 22  1  0
 22 23  2  0
 23 24  1  0
  6 25  1  0
 24 25  2  0
 25 26  1  0
 22 27  1  0
 26 27  2  0
 17 28  1  0
 29 21  1  1
 28 29  1  0
 29 30  1  0
 31 18  1  1
 30 31  1  0
 31 32  1  0
 28 33  1  0
 32 33  1  0
 34 35  2  0
 35 36  1  0
 36 37  2  0
 37 38  1  0
 20 39  1  0
 34 39  1  0
 38 39  2  0
M  END
