x1358-x1308
     RDKit          3D

 29 31  0  0  0  0  0  0  0  0999 V2000
    6.4610   -1.6590   25.0340 N   0  0  0  0  0  0  0  0  0  0  0  0
    5.1520    0.5240   25.4910 O   0  0  0  0  0  0  0  0  0  0  0  0
    5.2490   -3.7910   25.5460 N   0  0  0  0  0  0  0  0  0  0  0  0
    5.2350   -4.2340   19.7380 O   0  0  0  0  0  0  0  0  0  0  0  0
    6.2320   -3.1060   25.0650 C   0  0  0  0  0  0  0  0  0  0  0  0
    6.3260   -3.7970   20.0820 C   0  0  0  0  0  0  0  0  0  0  0  0
    7.2110   -3.1530   19.0520 C   0  0  0  0  0  0  0  0  0  0  0  0
    0.6870   -1.2770   26.9190 Cl  0  0  0  0  0  0  0  0  0  0  0  0
    6.1450   -5.3720   26.4070 O   0  0  0  0  0  0  0  0  0  0  0  0
    4.1510   -6.8240   25.8680 O   0  0  0  0  0  0  0  0  0  0  0  0
    4.9130   -5.6120   25.6660 S   0  0  0  0  0  0  0  0  0  0  0  0
    5.8660    0.1300   26.5760 C   0  0  0  0  0  0  0  0  0  0  0  0
    6.6260   -1.1120   26.3670 C   0  0  0  0  0  0  0  0  0  0  0  0
    7.4760   -1.6890   27.4820 C   0  0  0  0  0  0  0  0  0  0  0  0
    7.4670   -0.8590   28.8300 C   0  0  0  0  0  0  0  0  0  0  0  0
    6.5920    0.4590   28.8800 C   0  0  0  0  0  0  0  0  0  0  0  0
    5.8680    0.8400   27.7530 C   0  0  0  0  0  0  0  0  0  0  0  0
    6.7890   -3.9540   21.4650 N   0  0  0  0  0  0  0  0  0  0  0  0
    7.6090   -2.9640   22.0010 C   0  0  0  0  0  0  0  0  0  0  0  0
    8.2570   -3.2790   23.3690 C   0  0  0  0  0  0  0  0  0  0  0  0
    7.2830   -4.0320   24.2950 C   0  0  0  0  0  0  0  0  0  0  0  0
    6.4560   -5.0850   23.5040 C   0  0  0  0  0  0  0  0  0  0  0  0
    6.6970   -5.1080   22.1500 C   0  0  0  0  0  0  0  0  0  0  0  0
    4.2960   -2.8990   25.8750 C   0  0  0  0  0  0  0  0  0  0  0  0
    3.1510   -2.1180   26.2440 C   0  0  0  0  0  0  0  0  0  0  0  0
    1.8450   -2.4990   26.5550 C   0  0  0  0  0  0  0  0  0  0  0  0
    1.5180   -3.8110   26.5600 C   0  0  0  0  0  0  0  0  0  0  0  0
    2.4920   -4.6750   26.2760 C   0  0  0  0  0  0  0  0  0  0  0  0
    3.7640   -4.2500   25.9680 C   0  0  0  0  0  0  0  0  0  0  0  0
  1  5  1  0
  3  5  2  3
  4  6  2  0
  6  7  1  0
  9 11  2  0
 10 11  2  0
  2 12  1  0
  1 13  1  0
 12 13  2  0
 13 14  1  0
 14 15  2  0
 15 16  1  0
 12 17  1  0
 16 17  2  0
  6 18  1  0
 18 19  1  0
 19 20  1  0
  5 21  1  0
 20 21  1  0
 21 22  1  0
 18 23  1  0
 22 23  1  0
  3 24  1  0
 24 25  2  0
  8 26  1  0
 25 26  1  0
 26 27  2  0
 27 28  1  0
 11 29  1  0
 24 29  1  0
 28 29  2  0
M  END
