x1351-x1458
     RDKit          3D

 22 23  0  0  0  0  0  0  0  0999 V2000
    7.1640   -3.3910   26.7300 N   0  0  0  0  0  0  0  0  0  0  0  0
    8.9570   -4.8400   27.1020 C   0  0  0  0  0  0  0  0  0  0  0  0
    5.0480   -3.4430   25.5780 O   0  0  0  0  0  0  0  0  0  0  0  0
    7.5950   -4.4020   27.5760 C   0  0  0  0  0  0  0  0  0  0  0  0
    5.2740   -4.7400   19.9480 O   0  0  0  0  0  0  0  0  0  0  0  0
    6.7240   -5.3790   27.5100 C   0  0  0  0  0  0  0  0  0  0  0  0
    7.8820   -2.1690   26.8080 C   0  0  0  0  0  0  0  0  0  0  0  0
    6.2720   -3.6260   25.5150 C   0  0  0  0  0  0  0  0  0  0  0  0
    6.2750   -4.1430   20.3280 C   0  0  0  0  0  0  0  0  0  0  0  0
    7.0500   -3.2920   19.3380 C   0  0  0  0  0  0  0  0  0  0  0  0
    6.7460   -4.2800   21.6230 N   0  0  0  0  0  0  0  0  0  0  0  0
    7.5500   -3.3940   22.1840 C   0  0  0  0  0  0  0  0  0  0  0  0
    6.9210   -3.0010   23.3670 C   0  0  0  0  0  0  0  0  0  0  0  0
    6.8410   -4.0560   24.3070 C   0  0  0  0  0  0  0  0  0  0  0  0
    6.1320   -5.1490   23.7720 C   0  0  0  0  0  0  0  0  0  0  0  0
    6.5230   -5.4520   22.4640 C   0  0  0  0  0  0  0  0  0  0  0  0
    7.4620   -1.1490   27.8120 C   0  0  0  0  0  0  0  0  0  0  0  0
    6.8170    0.0380   28.6510 C   0  0  0  0  0  0  0  0  0  0  0  0
    5.7420    1.1030   28.3610 C   0  0  0  0  0  0  0  0  0  0  0  0
    5.1280    1.0490   26.9900 C   0  0  0  0  0  0  0  0  0  0  0  0
    5.6870   -0.0590   26.1280 C   0  0  0  0  0  0  0  0  0  0  0  0
    6.6920   -0.9530   26.5750 C   0  0  0  0  0  0  0  0  0  0  0  0
  1  4  1  0
  2  4  1  0
  4  6  1  0
  1  7  1  0
  1  8  1  0
  3  8  2  0
  5  9  2  0
  9 10  1  0
  9 11  1  0
 11 12  1  0
 12 13  1  0
  8 14  1  0
 13 14  1  0
 14 15  1  0
 11 16  1  0
 15 16  1  0
  7 17  1  0
 17 18  2  0
 18 19  1  0
 19 20  2  0
 20 21  1  0
 17 22  1  0
 21 22  2  0
M  END
