x1351-x3110-x0981
     RDKit          3D

 57 61  0  0  0  0  0  0  0  0999 V2000
    8.0260    1.2750   23.3240 N   0  0  0  0  0  0  0  0  0  0  0  0
   13.4050    5.2040   22.7840 C   0  0  0  0  0  0  0  0  0  0  0  0
   11.9760    3.2960   22.4420 O   0  0  0  0  0  0  0  0  0  0  0  0
   12.3200    4.4000   22.0210 C   0  0  0  0  0  0  0  0  0  0  0  0
    7.4890   -1.6310   21.7270 N   0  0  0  0  0  0  0  0  0  0  0  0
   11.0680    4.3500   24.1060 O   0  0  0  0  0  0  0  0  0  0  0  0
   11.2000    3.3690   23.3850 C   0  0  0  0  0  0  0  0  0  0  0  0
    8.6310    1.3750   21.0380 O   0  0  0  0  0  0  0  0  0  0  0  0
   10.3950    2.0620   23.5550 C   0  0  0  0  0  0  0  0  0  0  0  0
    8.8940    2.3600   23.7640 C   0  0  0  0  0  0  0  0  0  0  0  0
    7.9600    0.8370   21.9410 C   0  0  0  0  0  0  0  0  0  0  0  0
    6.9560   -0.3300   21.6360 C   0  0  1  0  0  0  0  0  0  0  0  0
   12.6260   -1.7730   24.3550 C   0  0  0  0  0  0  0  0  0  0  0  0
   12.6660   -0.5490   25.1860 C   0  0  0  0  0  0  0  0  0  0  0  0
   13.5140   -1.6630   23.1480 C   0  0  0  0  0  0  0  0  0  0  0  0
   13.0420   -2.9930   25.1520 C   0  0  0  0  0  0  0  0  0  0  0  0
    1.2630   -8.4660   21.6490 C   0  0  0  0  0  0  0  0  0  0  0  0
    2.7860   -7.2270   23.1120 N   0  0  0  0  0  0  0  0  0  0  0  0
    0.6330   -6.4500   22.2520 O   0  0  0  0  0  0  0  0  0  0  0  0
    1.5210   -7.2870   22.3640 C   0  0  0  0  0  0  0  0  0  0  0  0
    2.5550   -8.1910   26.3800 N   0  0  0  0  0  0  0  0  0  0  0  0
    4.1230   -8.2170   24.5680 O   0  0  0  0  0  0  0  0  0  0  0  0
    3.0530   -5.9640   23.8490 C   0  0  1  0  0  0  0  0  0  0  0  0
    4.8120   -5.7140   22.0790 N   0  0  0  0  0  0  0  0  0  0  0  0
    3.1910   -6.1540   25.2200 C   0  0  0  0  0  0  0  0  0  0  0  0
    3.2600   -7.5190   25.4280 C   0  0  0  0  0  0  0  0  0  0  0  0
    4.0760   -5.2780   23.1940 C   0  0  0  0  0  0  0  0  0  0  0  0
    7.2460   -3.1860   19.2740 C   0  0  0  0  0  0  0  0  0  0  0  0
    5.3720   -4.5130   19.8610 O   0  0  0  0  0  0  0  0  0  0  0  0
    6.3360   -3.8740   20.2730 C   0  0  0  0  0  0  0  0  0  0  0  0
    5.0360   -2.9700   25.3690 N   0  0  0  0  0  0  0  0  0  0  0  0
    6.9520   -3.2890   26.6600 O   0  0  0  0  0  0  0  0  0  0  0  0
    6.0740   -2.5440   26.3050 C   0  0  0  0  0  0  0  0  0  0  0  0
    6.3630    0.2790   17.8690 N   0  0  0  0  0  0  0  0  0  0  0  0
    5.2240    0.9920   17.9280 C   0  0  0  0  0  0  0  0  0  0  0  0
    4.6160    1.2750   19.1330 C   0  0  0  0  0  0  0  0  0  0  0  0
    5.1160    0.8680   20.3670 C   0  0  0  0  0  0  0  0  0  0  0  0
    6.3130    0.1280   20.3280 C   0  0  0  0  0  0  0  0  0  0  0  0
    6.8890   -0.1440   19.0720 C   0  0  0  0  0  0  0  0  0  0  0  0
    9.7780   -2.2270   21.7170 C   0  0  0  0  0  0  0  0  0  0  0  0
   11.1090   -2.2910   22.3530 C   0  0  0  0  0  0  0  0  0  0  0  0
   11.2990   -1.7240   23.7310 C   0  0  0  0  0  0  0  0  0  0  0  0
   10.1100   -1.0960   24.4300 C   0  0  0  0  0  0  0  0  0  0  0  0
    8.8060   -1.0740   23.7020 C   0  0  0  0  0  0  0  0  0  0  0  0
    8.7110   -1.6650   22.3210 C   0  0  0  0  0  0  0  0  0  0  0  0
    6.5080   -3.8600   21.6500 N   0  0  0  0  0  0  0  0  0  0  0  0
    7.0460   -2.7360   22.4740 C   0  0  2  0  0  0  0  0  0  0  0  0
    6.4290   -2.3690   23.6830 C   0  0  0  0  0  0  0  0  0  0  0  0
    5.1350   -2.8300   23.9130 C   0  0  1  0  0  0  0  0  0  0  0  0
    4.8030   -4.0440   23.3110 C   0  0  0  0  0  0  0  0  0  0  0  0
    5.2630   -4.3990   22.1180 C   0  0  2  0  0  0  0  0  0  0  0  0
    6.7920   -0.8620   28.0230 C   0  0  0  0  0  0  0  0  0  0  0  0
    6.7860    0.4140   28.6160 C   0  0  0  0  0  0  0  0  0  0  0  0
    6.0200    1.4450   28.0890 C   0  0  0  0  0  0  0  0  0  0  0  0
    5.2050    1.1470   26.8690 C   0  0  0  0  0  0  0  0  0  0  0  0
    5.2290   -0.1270   26.3020 C   0  0  0  0  0  0  0  0  0  0  0  0
    6.0200   -1.1600   26.8650 C   0  0  0  0  0  0  0  0  0  0  0  0
  2  4  1  0
  3  4  1  0
  3  7  1  0
  6  7  2  0
  7  9  1  0
  1 10  1  0
  9 10  1  0
  1 11  1  0
  8 11  2  0
  5 12  1  0
 12 11  1  6
 13 14  1  0
 13 15  1  0
 13 16  1  0
 17 20  1  0
 18 20  1  0
 19 20  2  0
 18 23  1  0
 23 25  1  1
 21 26  1  0
 22 26  2  0
 25 26  1  0
 23 27  1  0
 24 27  1  0
 28 30  1  0
 29 30  2  0
 31 33  1  0
 32 33  2  0
 34 35  2  0
 35 36  1  0
 36 37  2  0
 12 38  1  0
 37 38  1  0
 34 39  1  0
 38 39  2  0
 40 41  2  0
 13 42  1  0
 41 42  1  0
 42 43  2  0
 43 44  1  0
  5 45  1  0
 40 45  1  0
 44 45  2  0
 30 46  1  0
 47  5  1  6
 46 47  1  0
 47 48  1  0
 49 31  1  1
 48 49  1  0
 27 50  2  0
 49 50  1  0
 51 24  1  1
 46 51  1  0
 50 51  1  0
 52 53  2  0
 53 54  1  0
 54 55  2  0
 55 56  1  0
 33 57  1  0
 52 57  1  0
 56 57  2  0
M  END
