x1358-x3108
     RDKit          3D

 40 43  0  0  0  0  0  0  0  0999 V2000
    5.9920    1.6610   22.0270 C   0  0  0  0  0  0  0  0  0  0  0  0
    9.4000    1.2970   21.7870 O   0  0  0  0  0  0  0  0  0  0  0  0
    7.8620   -0.3770   21.2530 N   0  0  0  0  0  0  0  0  0  0  0  0
    7.9600   -0.1660   24.6910 O   0  0  0  0  0  0  0  0  0  0  0  0
    9.3810   -1.6090   23.4190 N   0  0  0  0  0  0  0  0  0  0  0  0
    9.0430    0.1090   21.7840 C   0  0  0  0  0  0  0  0  0  0  0  0
    9.8900   -1.0210   22.3660 C   0  0  0  0  0  0  0  0  0  0  0  0
    8.2840   -1.2320   24.1760 C   0  0  0  0  0  0  0  0  0  0  0  0
    7.4270   -2.5640   24.3040 C   0  0  2  0  0  0  0  0  0  0  0  0
    5.2560   -2.1850   25.9030 O   0  0  0  0  0  0  0  0  0  0  0  0
    5.1880   -4.0480   19.6370 O   0  0  0  0  0  0  0  0  0  0  0  0
    6.0860   -2.3130   25.0050 C   0  0  0  0  0  0  0  0  0  0  0  0
    6.3540   -3.8270   19.9420 C   0  0  0  0  0  0  0  0  0  0  0  0
    7.3390   -3.1370   19.0370 C   0  0  0  0  0  0  0  0  0  0  0  0
    6.2970    0.2540   17.9170 N   0  0  0  0  0  0  0  0  0  0  0  0
    7.1920   -0.3400   18.9480 C   0  0  0  0  0  0  0  0  0  0  0  0
    7.0140    0.1810   20.2220 C   0  0  0  0  0  0  0  0  0  0  0  0
    6.1240    1.1530   20.6180 C   0  0  0  0  0  0  0  0  0  0  0  0
    5.3220    1.6580   19.6100 C   0  0  0  0  0  0  0  0  0  0  0  0
    5.4200    1.2090   18.3060 C   0  0  0  0  0  0  0  0  0  0  0  0
    9.8240   -5.4800   24.6700 N   0  0  0  0  0  0  0  0  0  0  0  0
    9.1110   -4.4300   24.2660 C   0  0  0  0  0  0  0  0  0  0  0  0
    8.1500   -3.7090   24.9840 C   0  0  0  0  0  0  0  0  0  0  0  0
    7.8680   -4.0970   26.3230 C   0  0  0  0  0  0  0  0  0  0  0  0
    8.5700   -5.1940   26.8380 C   0  0  0  0  0  0  0  0  0  0  0  0
    9.5530   -5.9030   26.0210 C   0  0  0  0  0  0  0  0  0  0  0  0
    6.8790   -4.2660   21.1290 N   0  0  0  0  0  0  0  0  0  0  0  0
    7.6740   -3.4330   22.0270 C   0  0  0  0  0  0  0  0  0  0  0  0
    6.8090   -3.1160   23.0740 C   0  0  1  0  0  0  0  0  0  0  0  0
    6.0990   -4.2600   23.5280 C   0  0  0  0  0  0  0  0  0  0  0  0
    5.3250   -4.9230   22.6120 C   0  0  0  0  0  0  0  0  0  0  0  0
    6.2070   -5.4560   21.7180 C   0  0  0  0  0  0  0  0  0  0  0  0
    5.3320   -0.2200   25.7180 O   0  0  0  0  0  0  0  0  0  0  0  0
    6.0740   -0.2430   26.8700 C   0  0  0  0  0  0  0  0  0  0  0  0
    6.8940   -1.3720   27.0930 C   0  0  0  0  0  0  0  0  0  0  0  0
    7.7110   -1.3710   28.3950 C   0  0  0  0  0  0  0  0  0  0  0  0
    7.5970   -0.1710   29.3670 C   0  0  0  0  0  0  0  0  0  0  0  0
    6.6860    1.0180   29.0560 C   0  0  0  0  0  0  0  0  0  0  0  0
    5.9480    0.8450   27.7130 C   0  0  0  0  0  0  0  0  0  0  0  0
    6.9930   -2.5190   26.1530 C   0  0  0  0  0  0  0  0  0  0  0  0
  2  6  2  0
  3  6  1  0
  5  7  1  0
  6  7  1  0
  4  8  2  0
  5  8  1  0
  9  8  1  6
  9 12  1  0
 10 12  2  0
 11 13  2  0
 13 14  1  0
 15 16  2  0
  3 17  1  0
 16 17  1  0
  1 18  1  0
 17 18  2  0
 18 19  1  0
 15 20  1  0
 19 20  2  0
 21 22  2  0
  9 23  1  0
 22 23  1  0
 23 24  2  0
 24 25  1  0
 21 26  1  0
 25 26  2  0
 13 27  1  0
 27 28  1  0
  9 29  1  0
 29 28  1  6
 29 30  1  0
 30 31  1  0
 27 32  1  0
 31 32  1  0
 33 34  1  0
 34 35  2  0
 35 36  1  0
 36 37  2  0
 37 38  1  0
 34 39  1  0
 38 39  2  0
 12 40  1  0
 35 40  1  0
M  END
