x1351-x3110-x1348
     RDKit          3D

 58 63  0  0  0  0  0  0  0  0999 V2000
    8.1680    1.1960   23.3520 N   0  0  0  0  0  0  0  0  0  0  0  0
   13.4210    5.2500   22.6520 C   0  0  0  0  0  0  0  0  0  0  0  0
   11.9950    3.3200   22.4540 O   0  0  0  0  0  0  0  0  0  0  0  0
   12.2720    4.4310   22.0070 C   0  0  0  0  0  0  0  0  0  0  0  0
    7.7430   -1.5040   21.4580 N   0  0  0  0  0  0  0  0  0  0  0  0
   11.0790    4.3350   24.1430 O   0  0  0  0  0  0  0  0  0  0  0  0
   11.2380    3.3640   23.4130 C   0  0  0  0  0  0  0  0  0  0  0  0
    8.7580    1.5510   21.0840 O   0  0  0  0  0  0  0  0  0  0  0  0
   10.4960    2.0270   23.5930 C   0  0  0  0  0  0  0  0  0  0  0  0
    9.0020    2.2590   23.8840 C   0  0  0  0  0  0  0  0  0  0  0  0
    8.1110    0.9140   21.9310 C   0  0  0  0  0  0  0  0  0  0  0  0
    7.1440   -0.2340   21.5340 C   0  0  1  0  0  0  0  0  0  0  0  0
   12.6090   -1.9480   24.2790 C   0  0  0  0  0  0  0  0  0  0  0  0
   12.8120   -0.5710   24.8330 C   0  0  0  0  0  0  0  0  0  0  0  0
   13.5100   -2.1770   23.0860 C   0  0  0  0  0  0  0  0  0  0  0  0
   12.9730   -2.9900   25.3310 C   0  0  0  0  0  0  0  0  0  0  0  0
    7.9640   -3.6770   19.9810 C   0  0  0  0  0  0  0  0  0  0  0  0
    6.1250   -5.4400   20.0600 O   0  0  0  0  0  0  0  0  0  0  0  0
    6.7250   -4.4360   20.4660 C   0  0  0  0  0  0  0  0  0  0  0  0
    5.1830   -2.1910   25.2380 N   0  0  0  0  0  0  0  0  0  0  0  0
    6.9310   -3.0140   26.7670 O   0  0  0  0  0  0  0  0  0  0  0  0
    6.0330   -2.0430   26.3960 C   0  0  0  0  0  0  0  0  0  0  0  0
    7.7440   -5.2590   27.5750 C   0  0  0  0  0  0  0  0  0  0  0  0
    7.4790   -4.9500   26.2090 O   0  0  0  0  0  0  0  0  0  0  0  0
    4.6250   -3.7670   19.7090 O   0  0  0  0  0  0  0  0  0  0  0  0
    5.4110   -3.0540   20.2780 C   0  0  0  0  0  0  0  0  0  0  0  0
    5.8240   -1.7560   19.6140 C   0  0  0  0  0  0  0  0  0  0  0  0
    6.4290    0.3960   17.9040 N   0  0  0  0  0  0  0  0  0  0  0  0
    5.2870    1.1360   17.8430 C   0  0  0  0  0  0  0  0  0  0  0  0
    4.5750    1.5080   19.1310 C   0  0  0  0  0  0  0  0  0  0  0  0
    5.2390    1.0090   20.4020 C   0  0  0  0  0  0  0  0  0  0  0  0
    6.4100    0.2710   20.3200 C   0  0  0  0  0  0  0  0  0  0  0  0
    6.9500   -0.0090   19.0790 C   0  0  0  0  0  0  0  0  0  0  0  0
   10.0820   -1.1080   21.7460 C   0  0  0  0  0  0  0  0  0  0  0  0
   11.2330   -1.2670   22.4980 C   0  0  0  0  0  0  0  0  0  0  0  0
   11.2320   -1.9680   23.7010 C   0  0  0  0  0  0  0  0  0  0  0  0
   10.1950   -2.5940   24.3370 C   0  0  0  0  0  0  0  0  0  0  0  0
    8.9380   -2.4300   23.5390 C   0  0  0  0  0  0  0  0  0  0  0  0
    8.9200   -1.6560   22.2070 C   0  0  0  0  0  0  0  0  0  0  0  0
    6.0860   -3.6330   21.5320 C   0  0  0  0  0  0  0  0  0  0  0  0
    7.0130   -2.5200   22.0950 C   0  0  2  0  0  0  0  0  0  0  0  0
    6.3410   -1.8520   23.2900 C   0  0  0  0  0  0  0  0  0  0  0  0
    5.6150   -2.7690   23.9960 C   0  0  2  0  0  0  0  0  0  0  0  0
    4.5960   -3.2470   23.1990 C   0  0  0  0  0  0  0  0  0  0  0  0
    5.2540   -4.2070   22.5530 C   0  0  1  0  0  0  0  0  0  0  0  0
    6.1510   -0.6580   28.5120 C   0  0  0  0  0  0  0  0  0  0  0  0
    6.0300    0.5990   29.1260 C   0  0  0  0  0  0  0  0  0  0  0  0
    5.6700    1.7500   28.3870 C   0  0  0  0  0  0  0  0  0  0  0  0
    5.4250    1.6690   27.0110 C   0  0  0  0  0  0  0  0  0  0  0  0
    5.5490    0.4380   26.4010 C   0  0  0  0  0  0  0  0  0  0  0  0
    5.9280   -0.8050   27.1460 C   0  0  0  0  0  0  0  0  0  0  0  0
    6.3680   -5.4840   25.6250 C   0  0  0  0  0  0  0  0  0  0  0  0
    6.0380   -4.9600   24.3750 C   0  0  0  0  0  0  0  0  0  0  0  0
    4.9640   -5.3260   23.6120 C   0  0  0  0  0  0  0  0  0  0  0  0
    4.1540   -6.3690   24.0790 C   0  0  0  0  0  0  0  0  0  0  0  0
    4.4360   -6.9350   25.3350 C   0  0  0  0  0  0  0  0  0  0  0  0
    5.5220   -6.4920   26.1270 C   0  0  0  0  0  0  0  0  0  0  0  0
    6.4350   -4.0790   23.4620 N   0  0  0  0  0  0  0  0  0  0  0  0
  2  4  1  0
  3  4  1  0
  3  7  1  0
  6  7  2  0
  7  9  1  0
  1 10  1  0
  9 10  1  0
  1 11  1  0
  8 11  2  0
  5 12  1  0
 12 11  1  6
 13 14  1  0
 13 15  1  0
 13 16  1  0
 17 19  1  0
 18 19  2  0
 20 22  1  0
 21 22  2  0
 23 24  1  0
 25 26  2  0
 26 27  1  0
 28 29  2  0
 29 30  1  0
 30 31  2  0
 12 32  1  0
 31 32  1  0
 28 33  1  0
 32 33  2  0
 34 35  2  0
 13 36  1  0
 35 36  1  0
 36 37  2  0
 37 38  1  0
  5 39  1  0
 34 39  1  0
 38 39  2  0
 40 19  1  0
 26 40  1  0
 41  5  1  6
 40 41  1  0
 41 42  1  0
 43 20  1  1
 42 43  1  0
 43 44  1  0
 40 45  1  0
 45 44  1  6
 46 47  2  0
 47 48  1  0
 48 49  2  0
 49 50  1  0
 22 51  1  0
 46 51  1  0
 50 51  2  0
 24 52  1  0
 52 53  2  0
 45 54  1  0
 53 54  1  0
 54 55  2  0
 55 56  1  0
 52 57  1  0
 56 57  2  0
 45 58  1  0
 53 58  1  0
M  END
