x1375-x2646
     RDKit          3D

 38 41  0  0  0  0  0  0  0  0999 V2000
    5.8190   -5.4280   20.1090 O   0  0  0  0  0  0  0  0  0  0  0  0
    6.4320   -4.5180   20.6910 C   0  0  0  0  0  0  0  0  0  0  0  0
    7.1860   -3.5140   19.7820 C   0  0  0  0  0  0  0  0  0  0  0  0
    6.3300   -4.2330   22.2740 C   0  0  2  0  0  0  0  0  0  0  0  0
    2.2940   -6.8190   23.8320 O   0  0  0  0  0  0  0  0  0  0  0  0
    4.4730   -7.7200   24.7210 O   0  0  0  0  0  0  0  0  0  0  0  0
   10.7900   -4.5650   25.8430 F   0  0  0  0  0  0  0  0  0  0  0  0
    4.3450    1.1050   21.5170 C   0  0  0  0  0  0  0  0  0  0  0  0
    8.6120    0.6840   21.3190 O   0  0  0  0  0  0  0  0  0  0  0  0
   13.3100   -1.9060   21.1440 Cl  0  0  0  0  0  0  0  0  0  0  0  0
    6.7150   -0.5730   21.3580 N   0  0  0  0  0  0  0  0  0  0  0  0
    7.9800   -0.2610   21.8230 C   0  0  0  0  0  0  0  0  0  0  0  0
    8.6100   -0.9540   22.8680 C   0  0  0  0  0  0  0  0  0  0  0  0
    6.0580   -2.7230   22.3860 C   0  0  0  0  0  0  0  0  0  0  0  0
    6.5440   -2.0270   21.2640 C   0  0  0  0  0  0  0  0  0  0  0  0
    8.0530   -3.1100   23.7480 C   0  0  0  0  0  0  0  0  0  0  0  0
    9.1270   -3.1650   24.6250 C   0  0  0  0  0  0  0  0  0  0  0  0
    9.7640   -4.5040   24.9890 C   0  0  0  0  0  0  0  0  0  0  0  0
    9.2320   -5.6480   24.4010 C   0  0  0  0  0  0  0  0  0  0  0  0
    8.1520   -5.5170   23.5230 C   0  0  0  0  0  0  0  0  0  0  0  0
    7.5450   -4.2860   23.1860 C   0  0  0  0  0  0  0  0  0  0  0  0
    5.0280   -4.5820   24.2960 C   0  0  0  0  0  0  0  0  0  0  0  0
    5.4790   -5.2640   23.1630 C   0  0  1  0  0  0  0  0  0  0  0  0
    4.4620   -6.0270   22.6140 C   0  0  0  0  0  0  0  0  0  0  0  0
    3.7070   -6.6780   24.0860 S   0  0  0  0  0  0  0  0  0  0  0  0
    4.0070   -5.2090   25.0200 C   0  0  0  0  0  0  0  0  0  0  0  0
    6.4310    0.6100   17.7900 N   0  0  0  0  0  0  0  0  0  0  0  0
    6.8590   -0.0100   18.9150 C   0  0  0  0  0  0  0  0  0  0  0  0
    6.2360    0.1060   20.1650 C   0  0  0  0  0  0  0  0  0  0  0  0
    5.1060    0.9060   20.2390 C   0  0  0  0  0  0  0  0  0  0  0  0
    4.6450    1.5560   19.0900 C   0  0  0  0  0  0  0  0  0  0  0  0
    5.3330    1.3830   17.8950 C   0  0  0  0  0  0  0  0  0  0  0  0
   10.5770    0.3080   23.8310 C   0  0  0  0  0  0  0  0  0  0  0  0
   11.9450    0.5880   23.8870 C   0  0  0  0  0  0  0  0  0  0  0  0
   12.8310   -0.1010   23.0520 C   0  0  0  0  0  0  0  0  0  0  0  0
   12.3020   -1.0580   22.1820 C   0  0  0  0  0  0  0  0  0  0  0  0
   10.9560   -1.3350   22.1250 C   0  0  0  0  0  0  0  0  0  0  0  0
   10.0750   -0.6510   22.9470 C   0  0  0  0  0  0  0  0  0  0  0  0
  1  2  2  0
  2  3  1  0
  4  2  1  0
  9 12  2  0
 11 12  1  0
 12 13  1  0
  4 14  1  6
 11 15  1  0
 14 15  1  0
 16 17  2  0
  7 18  1  0
 17 18  1  0
 18 19  2  0
 19 20  1  0
  4 21  1  0
 16 21  1  0
 20 21  2  0
  4 23  1  0
 23 22  1  1
 23 24  1  0
 25  5  1  0
  6 25  1  0
 24 25  1  0
 22 26  2  0
 25 26  1  0
 27 28  2  0
 11 29  1  0
 28 29  1  0
  8 30  1  0
 29 30  2  0
 30 31  1  0
 27 32  1  0
 31 32  2  0
 33 34  2  0
 34 35  1  0
 10 36  1  0
 35 36  2  0
 36 37  1  0
 13 38  1  0
 33 38  1  0
 37 38  2  0
M  END
