x1375-x2563
     RDKit          3D

 40 44  0  0  0  0  0  0  0  0999 V2000
    5.8600   -4.8470   20.0440 O   0  0  0  0  0  0  0  0  0  0  0  0
    6.6870   -4.4070   20.8790 C   0  0  0  0  0  0  0  0  0  0  0  0
    8.1520   -4.0500   20.6230 C   0  0  0  0  0  0  0  0  0  0  0  0
    6.3100   -4.0890   22.3600 C   0  0  2  0  0  0  0  0  0  0  0  0
    2.5680   -6.6940   23.7320 O   0  0  0  0  0  0  0  0  0  0  0  0
    4.5140   -7.7690   24.8570 O   0  0  0  0  0  0  0  0  0  0  0  0
   10.7430   -4.7610   25.9980 F   0  0  0  0  0  0  0  0  0  0  0  0
    8.1070   -0.4270   21.2020 C   0  0  0  0  0  0  0  0  0  0  0  0
    8.1210    0.8150   21.1850 O   0  0  0  0  0  0  0  0  0  0  0  0
    7.2250   -1.1110   20.3630 C   0  0  1  0  0  0  0  0  0  0  0  0
    8.9150   -1.2340   21.9340 N   0  0  0  0  0  0  0  0  0  0  0  0
    6.1860   -2.5630   22.2600 C   0  0  0  0  0  0  0  0  0  0  0  0
    6.1310   -2.0460   20.9660 C   0  0  0  0  0  0  0  0  0  0  0  0
    7.9120   -3.2210   24.0600 C   0  0  0  0  0  0  0  0  0  0  0  0
    9.0900   -3.3960   25.0270 C   0  0  0  0  0  0  0  0  0  0  0  0
    9.7200   -4.6090   25.1560 C   0  0  0  0  0  0  0  0  0  0  0  0
    9.1870   -5.7560   24.2900 C   0  0  0  0  0  0  0  0  0  0  0  0
    8.1080   -5.5660   23.4160 C   0  0  0  0  0  0  0  0  0  0  0  0
    7.4730   -4.3240   23.2950 C   0  0  0  0  0  0  0  0  0  0  0  0
    4.8430   -4.3880   24.2070 C   0  0  0  0  0  0  0  0  0  0  0  0
    5.0700   -4.8020   22.8820 C   0  0  2  0  0  0  0  0  0  0  0  0
    5.0120   -6.2120   22.7650 C   0  0  0  0  0  0  0  0  0  0  0  0
    3.9620   -6.6720   24.1200 S   0  0  0  0  0  0  0  0  0  0  0  0
    4.2200   -5.3110   25.0230 C   0  0  0  0  0  0  0  0  0  0  0  0
    6.2340    0.9620   17.5040 N   0  0  0  0  0  0  0  0  0  0  0  0
    5.1440    1.6030   17.9640 C   0  0  0  0  0  0  0  0  0  0  0  0
    4.6380    1.4310   19.2600 C   0  0  0  0  0  0  0  0  0  0  0  0
    5.2980    0.5420   20.1160 C   0  0  0  0  0  0  0  0  0  0  0  0
    6.4040   -0.1120   19.6190 C   0  0  0  0  0  0  0  0  0  0  0  0
    6.8230    0.1230   18.3590 C   0  0  0  0  0  0  0  0  0  0  0  0
    3.5040    2.1350   19.6810 C   0  0  0  0  0  0  0  0  0  0  0  0
    3.0080    1.9650   20.9670 C   0  0  0  0  0  0  0  0  0  0  0  0
    3.6420    1.0850   21.8520 C   0  0  0  0  0  0  0  0  0  0  0  0
    4.7820    0.3790   21.4220 C   0  0  0  0  0  0  0  0  0  0  0  0
   11.1860   -0.7980   22.4500 C   0  0  0  0  0  0  0  0  0  0  0  0
   12.1720   -0.3680   23.3120 C   0  0  0  0  0  0  0  0  0  0  0  0
   11.8030    0.0550   24.5740 C   0  0  0  0  0  0  0  0  0  0  0  0
   10.4570    0.0590   24.9750 C   0  0  0  0  0  0  0  0  0  0  0  0
    9.4880   -0.3610   24.1140 C   0  0  0  0  0  0  0  0  0  0  0  0
    9.8480   -0.7940   22.8470 C   0  0  0  0  0  0  0  0  0  0  0  0
  1  2  2  0
  2  3  1  0
  4  2  1  0
  8  9  2  0
  8 10  1  0
  8 11  1  0
  4 12  1  6
 10 13  1  1
 12 13  1  0
 14 15  2  0
  7 16  1  0
 15 16  1  0
 16 17  2  0
 17 18  1  0
  4 19  1  0
 14 19  1  0
 18 19  2  0
  4 21  1  0
 21 20  1  1
 21 22  1  0
 23  5  1  0
  6 23  1  0
 22 23  1  0
 20 24  2  0
 23 24  1  0
 25 26  2  0
 26 27  1  0
 27 28  2  0
 10 29  1  0
 28 29  1  0
 25 30  1  0
 29 30  2  0
 27 31  1  0
 31 32  2  0
 32 33  1  0
 28 34  1  0
 33 34  2  0
 35 36  2  0
 36 37  1  0
 37 38  2  0
 38 39  1  0
 11 40  1  0
 35 40  1  0
 39 40  2  0
M  END
