x1374-x1458-x0678
     RDKit          3D

 41 45  0  0  0  0  0  0  0  0999 V2000
    7.3360   -3.3020   26.1210 N   0  0  0  0  0  0  0  0  0  0  0  0
    8.8200   -5.0870   26.3910 C   0  0  0  0  0  0  0  0  0  0  0  0
    5.4560   -4.3320   26.0820 N   0  0  0  0  0  0  0  0  0  0  0  0
    7.7940   -4.1730   27.0120 C   0  0  0  0  0  0  0  0  0  0  0  0
    5.4280   -4.7050   19.9700 O   0  0  0  0  0  0  0  0  0  0  0  0
    6.7930   -5.1240   27.7360 C   0  0  0  0  0  0  0  0  0  0  0  0
    7.0310   -1.9830   26.6790 C   0  0  0  0  0  0  0  0  0  0  0  0
    6.4120   -3.9220   25.3050 C   0  0  0  0  0  0  0  0  0  0  0  0
    6.4940   -4.1800   20.2980 C   0  0  0  0  0  0  0  0  0  0  0  0
    7.2490   -3.3160   19.3060 C   0  0  0  0  0  0  0  0  0  0  0  0
    2.0130   -6.4300   23.4320 O   0  0  0  0  0  0  0  0  0  0  0  0
    3.2620   -8.4360   24.6500 O   0  0  0  0  0  0  0  0  0  0  0  0
    9.2080    1.7090   21.2990 O   0  0  0  0  0  0  0  0  0  0  0  0
    8.5420    0.5650   21.8490 C   0  0  0  0  0  0  0  0  0  0  0  0
    9.1660    0.0570   23.1480 C   0  0  0  0  0  0  0  0  0  0  0  0
    7.4600   -0.0800   21.3670 N   0  0  0  0  0  0  0  0  0  0  0  0
    7.0690   -2.1790   22.1180 C   0  0  0  0  0  0  0  0  0  0  0  0
    7.8130   -1.3570   21.3650 C   0  0  0  0  0  0  0  0  0  0  0  0
    7.0820   -4.4220   21.5490 N   0  0  0  0  0  0  0  0  0  0  0  0
    7.8750   -3.4780   22.1900 C   0  0  2  0  0  0  0  0  0  0  0  0
    8.0780   -3.6570   23.5520 C   0  0  0  0  0  0  0  0  0  0  0  0
    6.8150   -3.9560   23.9780 C   0  0  1  0  0  0  0  0  0  0  0  0
    6.4870   -5.2350   23.6200 C   0  0  2  0  0  0  0  0  0  0  0  0
    6.9450   -5.6060   22.2030 C   0  0  0  0  0  0  0  0  0  0  0  0
    4.6700   -5.1850   25.1940 C   0  0  0  0  0  0  0  0  0  0  0  0
    5.0740   -5.2270   23.6670 C   0  0  2  0  0  0  0  0  0  0  0  0
    4.5990   -6.5940   23.1230 C   0  0  0  0  0  0  0  0  0  0  0  0
    3.1680   -6.9380   24.1250 S   0  0  0  0  0  0  0  0  0  0  0  0
    3.5700   -6.0630   25.6010 C   0  0  0  0  0  0  0  0  0  0  0  0
   10.8700   -1.4170   22.2670 C   0  0  0  0  0  0  0  0  0  0  0  0
   12.3540   -1.7910   22.2020 C   0  0  0  0  0  0  0  0  0  0  0  0
   13.2680   -0.9290   22.8290 C   0  0  0  0  0  0  0  0  0  0  0  0
   12.8720    0.0850   23.6920 C   0  0  0  0  0  0  0  0  0  0  0  0
   11.4830    0.1380   24.0610 C   0  0  0  0  0  0  0  0  0  0  0  0
   10.6080   -0.1770   22.8940 C   0  0  0  0  0  0  0  0  0  0  0  0
    5.7610    1.2670   20.4810 C   0  0  0  0  0  0  0  0  0  0  0  0
    4.9390    1.8200   19.3210 C   0  0  0  0  0  0  0  0  0  0  0  0
    5.2580    1.3520   17.9100 C   0  0  0  0  0  0  0  0  0  0  0  0
    6.3590    0.3630   17.7240 N   0  0  0  0  0  0  0  0  0  0  0  0
    7.1340   -0.1550   18.9050 C   0  0  0  0  0  0  0  0  0  0  0  0
    6.7790    0.3580   20.3040 C   0  0  0  0  0  0  0  0  0  0  0  0
  1  4  1  0
  2  4  1  0
  4  6  1  0
  1  7  1  0
  1  8  1  0
  3  8  2  0
  5  9  2  0
  9 10  1  0
 13 14  2  0
 14 15  1  0
 14 16  1  0
 16 18  1  0
 17 18  1  0
  9 19  1  0
 20 17  1  1
 19 20  1  0
 20 21  1  0
  8 22  1  0
 22 21  1  1
 22 23  1  0
 19 24  1  0
 23 24  1  6
  3 25  1  0
 23 26  1  0
 25 26  1  0
 26 27  1  1
 28 11  1  0
 12 28  1  0
 27 28  1  0
 25 29  2  0
 28 29  1  0
 30 31  1  0
 31 32  1  0
 32 33  1  0
 33 34  1  0
 15 35  1  0
 30 35  1  0
 34 35  1  0
 36 37  2  0
 37 38  1  0
 38 39  2  0
 39 40  1  0
 16 41  1  0
 36 41  1  0
 40 41  2  0
M  END
