x1374-x2912
     RDKit          3D

 41 44  0  0  0  0  0  0  0  0999 V2000
   10.6850   -4.2890   25.9410 C   0  0  0  0  0  0  0  0  0  0  0  0
    6.3030   -4.4780   22.1830 N   0  0  0  0  0  0  0  0  0  0  0  0
    6.5450   -4.4720   20.8010 C   0  0  0  0  0  0  0  0  0  0  0  0
    5.6820   -4.8360   19.9990 O   0  0  0  0  0  0  0  0  0  0  0  0
    7.9740   -3.8810   20.5500 C   0  0  0  0  0  0  0  0  0  0  0  0
    2.3610   -6.9700   23.2900 O   0  0  0  0  0  0  0  0  0  0  0  0
    4.1710   -7.9650   24.9180 O   0  0  0  0  0  0  0  0  0  0  0  0
    7.0160   -0.1610   21.1050 N   0  0  0  0  0  0  0  0  0  0  0  0
    7.9860   -0.4160   24.1350 C   0  0  0  0  0  0  0  0  0  0  0  0
    8.8790    1.2000   21.3060 O   0  0  0  0  0  0  0  0  0  0  0  0
    8.6170   -0.6000   22.7740 C   0  0  1  0  0  0  0  0  0  0  0  0
    8.2110    0.2140   21.6980 C   0  0  0  0  0  0  0  0  0  0  0  0
   13.7210   -2.1650   20.6540 N   0  0  0  0  0  0  0  0  0  0  0  0
    4.7680    1.5510   21.5800 C   0  0  0  0  0  0  0  0  0  0  0  0
   13.0900   -1.6950   21.4040 C   0  0  0  0  0  0  0  0  0  0  0  0
    6.5420   -3.1930   22.6480 C   0  0  2  0  0  0  0  0  0  0  0  0
    6.5720   -2.3050   21.6090 C   0  0  0  0  0  0  0  0  0  0  0  0
    6.1560   -1.0400   21.8520 C   0  0  0  0  0  0  0  0  0  0  0  0
    9.5600   -4.4270   24.9860 C   0  0  0  0  0  0  0  0  0  0  0  0
    8.8510   -3.1840   24.5230 C   0  0  0  0  0  0  0  0  0  0  0  0
    7.6220   -3.1000   23.5330 C   0  0  0  0  0  0  0  0  0  0  0  0
    7.3530   -4.5990   23.1510 C   0  0  0  0  0  0  0  0  0  0  0  0
    8.0840   -5.8330   23.6190 C   0  0  0  0  0  0  0  0  0  0  0  0
    9.2120   -5.6530   24.5730 C   0  0  0  0  0  0  0  0  0  0  0  0
    4.6400   -4.4630   23.8760 C   0  0  0  0  0  0  0  0  0  0  0  0
    5.0210   -5.0280   22.6630 C   0  0  2  0  0  0  0  0  0  0  0  0
    4.9940   -6.5340   22.6730 C   0  0  0  0  0  0  0  0  0  0  0  0
    3.7930   -6.7590   23.9600 S   0  0  0  0  0  0  0  0  0  0  0  0
    3.9560   -5.2660   24.7120 C   0  0  0  0  0  0  0  0  0  0  0  0
    6.3050    0.6550   17.6220 N   0  0  0  0  0  0  0  0  0  0  0  0
    5.2400    1.4700   17.7870 C   0  0  0  0  0  0  0  0  0  0  0  0
    4.6470    1.8270   19.1280 C   0  0  0  0  0  0  0  0  0  0  0  0
    5.2940    1.2460   20.2100 C   0  0  0  0  0  0  0  0  0  0  0  0
    6.3910    0.4140   20.0050 C   0  0  0  0  0  0  0  0  0  0  0  0
    6.8580    0.1410   18.7330 C   0  0  0  0  0  0  0  0  0  0  0  0
   10.6310    0.3600   23.9150 C   0  0  0  0  0  0  0  0  0  0  0  0
   12.0060    0.5010   24.0490 C   0  0  0  0  0  0  0  0  0  0  0  0
   12.8430   -0.1730   23.2340 C   0  0  0  0  0  0  0  0  0  0  0  0
   12.2660   -1.0210   22.2490 C   0  0  0  0  0  0  0  0  0  0  0  0
   10.9090   -1.1790   22.0950 C   0  0  0  0  0  0  0  0  0  0  0  0
   10.0910   -0.4680   22.9410 C   0  0  0  0  0  0  0  0  0  0  0  0
  2  3  1  0
  3  4  2  0
  3  5  1  0
 11  9  1  1
  8 12  1  0
 10 12  2  0
 11 12  1  0
 13 15  3  0
  2 16  1  0
 16 17  1  6
  8 18  1  0
 17 18  1  0
  1 19  1  0
 19 20  2  0
 16 21  1  0
 20 21  1  0
 21 22  2  0
 22 23  1  0
 19 24  1  0
 23 24  2  0
 26  2  1  1
 25 26  1  0
 26 27  1  0
 28  6  1  0
  7 28  1  0
 27 28  1  0
 25 29  2  0
 28 29  1  0
 30 31  2  0
 31 32  1  0
 14 33  1  0
 32 33  2  0
  8 34  1  0
 33 34  1  0
 30 35  1  0
 34 35  2  0
 36 37  2  0
 37 38  1  0
 15 39  1  0
 38 39  2  0
 39 40  1  0
 11 41  1  0
 36 41  1  0
 40 41  2  0
M  END
