x1375-x2643
     RDKit          3D

 36 39  0  0  0  0  0  0  0  0999 V2000
    5.7250   -4.6720   20.0250 O   0  0  0  0  0  0  0  0  0  0  0  0
    6.5250   -4.3420   20.9490 C   0  0  0  0  0  0  0  0  0  0  0  0
    8.0270   -4.0820   20.7540 C   0  0  0  0  0  0  0  0  0  0  0  0
    6.1210   -4.1460   22.3140 N   0  0  0  0  0  0  0  0  0  0  0  0
    2.3490   -7.0280   23.3850 O   0  0  0  0  0  0  0  0  0  0  0  0
    4.4000   -7.8560   24.7910 O   0  0  0  0  0  0  0  0  0  0  0  0
   10.5780   -4.6310   26.1430 F   0  0  0  0  0  0  0  0  0  0  0  0
    6.7290    0.0650   20.9730 N   0  0  0  0  0  0  0  0  0  0  0  0
    8.8540    1.0030   21.1010 O   0  0  0  0  0  0  0  0  0  0  0  0
   13.2890   -0.6750   23.8680 Cl  0  0  0  0  0  0  0  0  0  0  0  0
    8.3480   -1.1680   21.7400 C   0  0  2  0  0  0  0  0  0  0  0  0
    8.0620    0.0640   21.2460 C   0  0  0  0  0  0  0  0  0  0  0  0
    6.7930   -2.9670   22.9730 C   0  0  2  0  0  0  0  0  0  0  0  0
    6.9690   -1.7380   22.1240 C   0  0  0  0  0  0  0  0  0  0  0  0
    7.9000   -3.1550   24.0000 C   0  0  0  0  0  0  0  0  0  0  0  0
    8.9500   -3.4790   24.9250 C   0  0  0  0  0  0  0  0  0  0  0  0
    9.6290   -4.6480   25.2030 C   0  0  0  0  0  0  0  0  0  0  0  0
    9.3370   -5.9150   24.4900 C   0  0  0  0  0  0  0  0  0  0  0  0
    8.2610   -5.6710   23.5020 C   0  0  0  0  0  0  0  0  0  0  0  0
    7.6840   -4.4240   23.3510 C   0  0  0  0  0  0  0  0  0  0  0  0
    4.7810   -4.5090   24.2490 C   0  0  0  0  0  0  0  0  0  0  0  0
    5.5080   -5.0780   23.2160 C   0  0  1  0  0  0  0  0  0  0  0  0
    4.8970   -6.2020   22.6590 C   0  0  0  0  0  0  0  0  0  0  0  0
    3.7810   -6.6600   23.9660 S   0  0  0  0  0  0  0  0  0  0  0  0
    3.7930   -5.2170   24.7990 C   0  0  0  0  0  0  0  0  0  0  0  0
   11.6370   -0.6920   23.7230 C   0  0  0  0  0  0  0  0  0  0  0  0
   10.5640   -0.3830   24.7630 C   0  0  0  0  0  0  0  0  0  0  0  0
    9.2010   -0.5500   24.0740 C   0  0  0  0  0  0  0  0  0  0  0  0
    9.4030   -0.9310   22.7420 C   0  0  0  0  0  0  0  0  0  0  0  0
   11.0330   -1.1110   22.2370 S   0  0  0  0  0  0  0  0  0  0  0  0
    6.2950    0.8850   17.5040 N   0  0  0  0  0  0  0  0  0  0  0  0
    6.7950    0.3840   18.6100 C   0  0  0  0  0  0  0  0  0  0  0  0
    6.2070    0.5560   19.8220 C   0  0  0  0  0  0  0  0  0  0  0  0
    5.0160    1.2700   19.9550 C   0  0  0  0  0  0  0  0  0  0  0  0
    4.4510    1.8180   18.8120 C   0  0  0  0  0  0  0  0  0  0  0  0
    5.1490    1.5920   17.6260 C   0  0  0  0  0  0  0  0  0  0  0  0
  1  2  2  0
  2  3  1  0
  2  4  1  0
  8 12  1  0
  9 12  2  0
 11 12  1  0
  4 13  1  0
 11 14  1  1
 13 14  1  6
 13 15  1  0
 15 16  2  0
  7 17  1  0
 16 17  1  0
 17 18  2  0
 18 19  1  0
 15 20  1  0
 19 20  2  0
 22  4  1  6
 21 22  1  0
 22 23  1  0
 24  5  1  0
  6 24  1  0
 23 24  1  0
 21 25  2  0
 24 25  1  0
 10 26  1  0
 26 27  2  0
 27 28  1  0
 11 29  1  0
 28 29  2  0
 26 30  1  0
 29 30  1  0
 31 32  2  0
  8 33  1  0
 32 33  1  0
 33 34  2  0
 34 35  1  0
 31 36  1  0
 35 36  2  0
M  END
