x1375-x0395
     RDKit          3D

 27 29  0  0  0  0  0  0  0  0999 V2000
    5.7410   -4.5160   19.9450 O   0  0  0  0  0  0  0  0  0  0  0  0
    6.6120   -4.3320   20.8210 C   0  0  0  0  0  0  0  0  0  0  0  0
    8.0240   -3.7900   20.5320 C   0  0  0  0  0  0  0  0  0  0  0  0
    6.3340   -4.6130   22.1800 N   0  0  0  0  0  0  0  0  0  0  0  0
    2.2820   -6.7120   23.9070 O   0  0  0  0  0  0  0  0  0  0  0  0
    4.3100   -7.8670   25.1040 O   0  0  0  0  0  0  0  0  0  0  0  0
   10.5950   -4.2480   25.9460 F   0  0  0  0  0  0  0  0  0  0  0  0
    7.7580   -3.2850   23.6590 C   0  0  0  0  0  0  0  0  0  0  0  0
    8.7790   -3.1130   24.5810 C   0  0  0  0  0  0  0  0  0  0  0  0
    9.5960   -4.3250   25.0610 C   0  0  0  0  0  0  0  0  0  0  0  0
    9.1630   -5.6560   24.4280 C   0  0  0  0  0  0  0  0  0  0  0  0
    8.1150   -5.6930   23.5080 C   0  0  0  0  0  0  0  0  0  0  0  0
    7.4160   -4.5370   23.1240 C   0  0  0  0  0  0  0  0  0  0  0  0
    4.8270   -4.3650   24.1840 C   0  0  0  0  0  0  0  0  0  0  0  0
    5.0320   -4.9440   22.7720 C   0  0  2  0  0  0  0  0  0  0  0  0
    4.7590   -6.4490   22.8320 C   0  0  0  0  0  0  0  0  0  0  0  0
    3.8160   -6.5960   24.3100 S   0  0  0  0  0  0  0  0  0  0  0  0
    4.1930   -5.1490   25.0710 C   0  0  0  0  0  0  0  0  0  0  0  0
    9.1890   -0.5500   24.1330 C   0  0  0  0  0  0  0  0  0  0  0  0
   13.7540   -1.3350   21.5810 F   0  0  0  0  0  0  0  0  0  0  0  0
   10.4230   -0.5360   23.5560 C   0  0  2  0  0  0  0  0  0  0  0  0
   11.3390    0.5310   23.4680 C   0  0  0  0  0  0  0  0  0  0  0  0
   12.5750    0.1920   22.8780 C   0  0  0  0  0  0  0  0  0  0  0  0
   12.6390   -0.9560   22.1720 C   0  0  0  0  0  0  0  0  0  0  0  0
   11.4320   -1.8760   21.9930 C   0  0  0  0  0  0  0  0  0  0  0  0
   10.2250   -1.1240   22.2440 N   0  0  0  0  0  0  0  0  0  0  0  0
    9.0620   -1.7260   25.1100 C   0  0  0  0  0  0  0  0  0  0  0  0
  1  2  2  0
  2  3  1  0
  2  4  1  0
  8  9  2  0
  7 10  1  0
  9 10  1  0
 10 11  2  0
 11 12  1  0
  4 13  1  0
  8 13  1  0
 12 13  2  0
 15  4  1  1
 14 15  1  0
 15 16  1  0
 17  5  1  0
  6 17  1  0
 16 17  1  0
 14 18  2  0
 17 18  1  0
 21 19  1  6
 21 22  1  0
 22 23  1  0
 20 24  1  0
 23 24  2  0
 24 25  1  0
 21 26  1  0
 25 26  1  0
  9 27  1  0
 19 27  1  0
M  END
