x1375-x0387
     RDKit          3D

 26 28  0  0  0  0  0  0  0  0999 V2000
    5.7680   -4.6710   20.0080 O   0  0  0  0  0  0  0  0  0  0  0  0
    6.6530   -4.3610   20.8460 C   0  0  0  0  0  0  0  0  0  0  0  0
    8.0570   -3.7810   20.5210 C   0  0  0  0  0  0  0  0  0  0  0  0
    6.4700   -4.4660   22.2370 N   0  0  0  0  0  0  0  0  0  0  0  0
    2.7470   -7.4840   23.0830 O   0  0  0  0  0  0  0  0  0  0  0  0
    4.4180   -7.5400   24.8690 O   0  0  0  0  0  0  0  0  0  0  0  0
   10.6610   -4.3040   25.8720 O   0  0  0  0  0  0  0  0  0  0  0  0
    9.9810   -1.7940   24.7490 C   0  0  0  0  0  0  0  0  0  0  0  0
    8.2190   -3.0870   23.4270 C   0  0  0  0  0  0  0  0  0  0  0  0
    9.2860   -3.0900   24.3570 C   0  0  0  0  0  0  0  0  0  0  0  0
    9.6930   -4.3290   24.9460 C   0  0  0  0  0  0  0  0  0  0  0  0
    9.1350   -5.5590   24.6410 C   0  0  0  0  0  0  0  0  0  0  0  0
    8.1120   -5.5840   23.7490 C   0  0  0  0  0  0  0  0  0  0  0  0
    7.6050   -4.2990   23.1150 C   0  0  0  0  0  0  0  0  0  0  0  0
    4.3470   -4.3070   23.6930 C   0  0  0  0  0  0  0  0  0  0  0  0
    5.4160   -5.1540   23.0090 C   0  0  1  0  0  0  0  0  0  0  0  0
    5.0320   -6.4090   22.5790 C   0  0  0  0  0  0  0  0  0  0  0  0
    3.7760   -6.7950   23.8130 S   0  0  0  0  0  0  0  0  0  0  0  0
    3.2820   -5.2420   24.2630 C   0  0  0  0  0  0  0  0  0  0  0  0
   11.9030   -0.3140   24.0540 C   0  0  0  0  0  0  0  0  0  0  0  0
   11.1560   -1.4660   23.8300 C   0  0  0  0  0  0  0  0  0  0  0  0
   11.5890   -2.2170   22.7530 C   0  0  0  0  0  0  0  0  0  0  0  0
   12.9470   -1.4830   22.0210 S   0  0  0  0  0  0  0  0  0  0  0  0
   12.9260   -0.1810   23.1370 C   0  0  0  0  0  0  0  0  0  0  0  0
    8.9730   -4.2130   27.4730 O   0  0  0  0  0  0  0  0  0  0  0  0
   10.1160   -4.9300   27.0360 C   0  0  0  0  0  0  0  0  0  0  0  0
  1  2  2  0
  2  3  1  0
  2  4  1  0
  8 10  1  0
  9 10  2  0
  7 11  1  0
 10 11  1  0
 11 12  2  0
 12 13  1  0
  4 14  1  0
  9 14  1  0
 13 14  2  0
 16  4  1  6
 15 16  1  0
 16 17  1  0
 18  5  1  0
  6 18  1  0
 17 18  1  0
 15 19  2  0
 18 19  1  0
  8 21  1  0
 20 21  1  0
 21 22  2  0
 22 23  1  0
 20 24  2  0
 23 24  1  0
  7 26  1  0
 25 26  1  0
M  END
