x1375-x3117
     RDKit          3D

 46 50  0  0  0  0  0  0  0  0999 V2000
    7.2520   -0.8720   21.7800 N   0  0  0  0  0  0  0  0  0  0  0  0
    7.7310    2.2580   22.8390 N   0  0  0  0  0  0  0  0  0  0  0  0
    8.8300    1.4480   20.8970 O   0  0  0  0  0  0  0  0  0  0  0  0
    6.8150    0.4330   21.6950 C   0  0  1  0  0  0  0  0  0  0  0  0
    7.8310    1.3970   21.7990 C   0  0  0  0  0  0  0  0  0  0  0  0
   12.2280   -1.4030   24.1760 C   0  0  0  0  0  0  0  0  0  0  0  0
   12.8450   -0.3470   24.6990 C   0  0  0  0  0  0  0  0  0  0  0  0
   13.2710   -0.9290   23.2380 C   0  0  0  0  0  0  0  0  0  0  0  0
   12.5630   -2.7080   24.7470 C   0  0  0  0  0  0  0  0  0  0  0  0
    5.1310   -4.6190   19.9030 O   0  0  0  0  0  0  0  0  0  0  0  0
    5.8560   -4.3750   20.8570 C   0  0  0  0  0  0  0  0  0  0  0  0
    7.3760   -4.4510   20.7570 C   0  0  0  0  0  0  0  0  0  0  0  0
    5.4300   -4.0050   22.1250 N   0  0  0  0  0  0  0  0  0  0  0  0
    2.3590   -6.8020   24.0210 O   0  0  0  0  0  0  0  0  0  0  0  0
    4.4070   -7.8320   24.9810 O   0  0  0  0  0  0  0  0  0  0  0  0
   10.1510   -2.8340   24.5910 O   0  0  0  0  0  0  0  0  0  0  0  0
   11.3640   -3.4740   24.2820 C   0  0  0  0  0  0  0  0  0  0  0  0
    6.2710    0.2930   17.9610 N   0  0  0  0  0  0  0  0  0  0  0  0
    5.1900    1.0800   17.8200 C   0  0  0  0  0  0  0  0  0  0  0  0
    4.5400    1.7240   19.0290 C   0  0  0  0  0  0  0  0  0  0  0  0
    5.0720    1.5030   20.2750 C   0  0  0  0  0  0  0  0  0  0  0  0
    6.1950    0.6870   20.3610 C   0  0  0  0  0  0  0  0  0  0  0  0
    6.7540    0.1060   19.2040 C   0  0  0  0  0  0  0  0  0  0  0  0
    9.8840    5.2900   24.2140 O   0  0  0  0  0  0  0  0  0  0  0  0
   10.6020    4.1850   23.6650 C   0  0  0  0  0  0  0  0  0  0  0  0
    9.7630    3.0850   23.5580 C   0  0  0  0  0  0  0  0  0  0  0  0
    8.6450    3.3970   22.7840 C   0  0  0  0  0  0  0  0  0  0  0  0
    7.9570    4.5280   23.2340 C   0  0  0  0  0  0  0  0  0  0  0  0
    8.8040    5.6600   23.3460 C   0  0  0  0  0  0  0  0  0  0  0  0
    9.4910   -1.7750   21.7310 C   0  0  0  0  0  0  0  0  0  0  0  0
   10.7050   -1.8780   22.3480 C   0  0  0  0  0  0  0  0  0  0  0  0
   10.9000   -1.2640   23.5740 C   0  0  0  0  0  0  0  0  0  0  0  0
    9.9100   -0.5510   24.2150 C   0  0  0  0  0  0  0  0  0  0  0  0
    8.6970   -0.4400   23.5960 C   0  0  0  0  0  0  0  0  0  0  0  0
    8.4780   -1.0440   22.3460 C   0  0  0  0  0  0  0  0  0  0  0  0
    7.0530   -2.4640   22.9220 C   0  0  0  0  0  0  0  0  0  0  0  0
    8.2630   -2.2230   23.5470 C   0  0  0  0  0  0  0  0  0  0  0  0
    8.9700   -3.2540   24.0230 C   0  0  0  0  0  0  0  0  0  0  0  0
    8.4100   -4.5290   23.8840 C   0  0  0  0  0  0  0  0  0  0  0  0
    7.2590   -4.7880   23.2820 C   0  0  0  0  0  0  0  0  0  0  0  0
    6.5850   -3.7360   22.7870 C   0  0  0  0  0  0  0  0  0  0  0  0
    4.4580   -4.3820   24.3420 C   0  0  0  0  0  0  0  0  0  0  0  0
    4.4590   -4.7980   22.8830 C   0  0  2  0  0  0  0  0  0  0  0  0
    4.6330   -6.3240   22.8640 C   0  0  0  0  0  0  0  0  0  0  0  0
    3.7620   -6.7220   24.3560 S   0  0  0  0  0  0  0  0  0  0  0  0
    4.1000   -5.3220   25.2200 C   0  0  0  0  0  0  0  0  0  0  0  0
  4  1  1  6
  2  5  1  0
  3  5  2  0
  4  5  1  0
  6  7  1  0
  6  8  1  0
  6  9  1  0
 10 11  2  0
 11 12  1  0
 11 13  1  0
  9 17  1  0
 16 17  1  0
 18 19  2  0
 19 20  1  0
 20 21  2  0
  4 22  1  0
 21 22  1  0
 18 23  1  0
 22 23  2  0
 24 25  1  0
 25 26  1  0
  2 27  1  0
 26 27  1  0
 27 28  1  0
 24 29  1  0
 28 29  1  0
 30 31  2  0
  6 32  1  0
 31 32  1  0
 32 33  2  0
 33 34  1  0
  1 35  1  0
 30 35  1  0
 34 35  2  0
 36 37  2  0
 16 38  1  0
 37 38  1  0
 38 39  2  0
 39 40  1  0
 13 41  1  0
 36 41  1  0
 40 41  2  0
 43 13  1  6
 42 43  1  0
 43 44  1  0
 45 14  1  0
 15 45  1  0
 44 45  1  0
 42 46  2  0
 45 46  1  0
M  END
