x1374-x3077
     RDKit          3D

 29 33  0  0  0  0  0  0  0  0999 V2000
   10.3770   -4.5360   26.3230 C   0  0  0  0  0  0  0  0  0  0  0  0
    6.1330   -4.3480   21.9680 N   0  0  0  0  0  0  0  0  0  0  0  0
    6.1880   -4.2920   20.5520 C   0  0  0  0  0  0  0  0  0  0  0  0
    5.3700   -4.9800   19.9800 O   0  0  0  0  0  0  0  0  0  0  0  0
    7.1620   -3.3680   19.7120 C   0  0  0  0  0  0  0  0  0  0  0  0
    2.4120   -6.6670   23.3820 O   0  0  0  0  0  0  0  0  0  0  0  0
    4.1660   -7.9440   24.8840 O   0  0  0  0  0  0  0  0  0  0  0  0
   13.1360   -1.9060   21.4000 Cl  0  0  0  0  0  0  0  0  0  0  0  0
    8.7410   -1.1180   24.4920 C   0  0  0  0  0  0  0  0  0  0  0  0
    9.3550   -3.5210   23.9080 C   0  0  2  0  0  0  0  0  0  0  0  0
    8.2820   -2.5430   24.3750 C   0  0  2  0  0  0  0  0  0  0  0  0
    7.9820   -3.0030   23.0850 C   0  0  2  0  0  0  0  0  0  0  0  0
    7.4060   -4.4010   22.6580 C   0  0  1  0  0  0  0  0  0  0  0  0
    7.8090   -5.4800   23.6080 C   0  0  0  0  0  0  0  0  0  0  0  0
    8.9890   -4.9360   24.3250 C   0  0  0  0  0  0  0  0  0  0  0  0
    4.9430   -4.3450   23.9600 C   0  0  0  0  0  0  0  0  0  0  0  0
    5.0710   -4.9570   22.7000 C   0  0  2  0  0  0  0  0  0  0  0  0
    5.1180   -6.3770   22.7810 C   0  0  0  0  0  0  0  0  0  0  0  0
    3.8690   -6.6370   24.0270 S   0  0  0  0  0  0  0  0  0  0  0  0
    4.1830   -5.2740   24.9170 C   0  0  0  0  0  0  0  0  0  0  0  0
    8.9350   -2.6100   22.0280 C   0  0  0  0  0  0  0  0  0  0  0  0
   10.0410   -3.1010   22.5730 C   0  0  0  0  0  0  0  0  0  0  0  0
   10.6030    0.4220   24.3140 C   0  0  0  0  0  0  0  0  0  0  0  0
   11.9440    0.9380   23.8090 C   0  0  0  0  0  0  0  0  0  0  0  0
   12.6470    0.1730   22.9400 C   0  0  0  0  0  0  0  0  0  0  0  0
   12.1720   -1.0490   22.5030 C   0  0  0  0  0  0  0  0  0  0  0  0
   10.9190   -1.5600   22.9530 C   0  0  0  0  0  0  0  0  0  0  0  0
   10.1140   -0.8030   23.8790 C   0  0  0  0  0  0  0  0  0  0  0  0
    9.7870   -5.5630   25.3820 C   0  0  0  0  0  0  0  0  0  0  0  0
  2  3  1  0
  3  4  2  0
  3  5  1  0
 11  9  1  6
 10 11  1  0
 10 12  1  0
 11 12  1  0
 13  2  1  1
 12 13  1  0
 13 14  1  0
 10 15  1  0
 14 15  2  0
 17  2  1  1
 16 17  1  0
 17 18  1  0
 19  6  1  0
  7 19  1  0
 18 19  1  0
 16 20  2  0
 19 20  1  0
 12 21  1  6
 10 22  1  6
 21 22  2  0
 23 24  2  0
 24 25  1  0
  8 26  1  0
 25 26  2  0
 26 27  1  0
  9 28  1  0
 23 28  1  0
 27 28  2  0
  1 29  1  0
 15 29  1  0
M  END
