x1375-x3110
     RDKit          3D

 47 50  0  0  0  0  0  0  0  0999 V2000
    8.0420    1.6600   23.3090 N   0  0  0  0  0  0  0  0  0  0  0  0
   13.3590    5.0800   22.7860 C   0  0  0  0  0  0  0  0  0  0  0  0
   11.9600    3.3280   22.4850 O   0  0  0  0  0  0  0  0  0  0  0  0
   12.3540    4.5360   21.9840 C   0  0  0  0  0  0  0  0  0  0  0  0
    7.2620   -1.0670   21.8500 N   0  0  0  0  0  0  0  0  0  0  0  0
   11.2030    4.4190   24.1620 O   0  0  0  0  0  0  0  0  0  0  0  0
   11.1760    3.4330   23.4190 C   0  0  0  0  0  0  0  0  0  0  0  0
    8.6140    1.7570   21.0440 O   0  0  0  0  0  0  0  0  0  0  0  0
   10.2880    2.3560   23.5200 C   0  0  0  0  0  0  0  0  0  0  0  0
    8.9230    2.6410   23.7060 C   0  0  0  0  0  0  0  0  0  0  0  0
    7.8890    1.2620   21.9100 C   0  0  0  0  0  0  0  0  0  0  0  0
    6.9060    0.3050   21.6150 C   0  0  1  0  0  0  0  0  0  0  0  0
   12.3460   -1.6600   24.1250 C   0  0  0  0  0  0  0  0  0  0  0  0
   12.7050   -0.2490   24.5000 C   0  0  0  0  0  0  0  0  0  0  0  0
   13.3330   -2.1840   23.3450 C   0  0  0  0  0  0  0  0  0  0  0  0
   12.1740   -2.3180   25.2530 C   0  0  0  0  0  0  0  0  0  0  0  0
    5.7360   -4.8390   20.0660 O   0  0  0  0  0  0  0  0  0  0  0  0
    6.5970   -4.5250   20.9390 C   0  0  0  0  0  0  0  0  0  0  0  0
    7.9890   -3.9040   20.6360 C   0  0  0  0  0  0  0  0  0  0  0  0
    6.4240   -4.6370   22.3670 N   0  0  0  0  0  0  0  0  0  0  0  0
    2.0420   -6.8460   24.1500 O   0  0  0  0  0  0  0  0  0  0  0  0
    4.4100   -7.9930   24.4100 O   0  0  0  0  0  0  0  0  0  0  0  0
   10.8080   -4.1620   25.7650 O   0  0  0  0  0  0  0  0  0  0  0  0
   11.9750   -3.6300   25.1440 C   0  0  0  0  0  0  0  0  0  0  0  0
    6.3030    0.2630   17.9060 N   0  0  0  0  0  0  0  0  0  0  0  0
    5.2430    1.0870   17.8350 C   0  0  0  0  0  0  0  0  0  0  0  0
    4.6540    1.6830   18.9120 C   0  0  0  0  0  0  0  0  0  0  0  0
    5.2070    1.4120   20.1410 C   0  0  0  0  0  0  0  0  0  0  0  0
    6.3090    0.5670   20.2450 C   0  0  0  0  0  0  0  0  0  0  0  0
    6.8690   -0.0280   19.0960 C   0  0  0  0  0  0  0  0  0  0  0  0
    9.5080   -1.8340   21.7090 C   0  0  0  0  0  0  0  0  0  0  0  0
   10.7690   -1.9880   22.2330 C   0  0  0  0  0  0  0  0  0  0  0  0
   11.0070   -1.5400   23.5150 C   0  0  0  0  0  0  0  0  0  0  0  0
   10.0030   -0.9580   24.2770 C   0  0  0  0  0  0  0  0  0  0  0  0
    8.7570   -0.8080   23.7440 C   0  0  0  0  0  0  0  0  0  0  0  0
    8.5040   -1.2390   22.4470 C   0  0  0  0  0  0  0  0  0  0  0  0
    7.8660   -3.2440   23.7540 C   0  0  0  0  0  0  0  0  0  0  0  0
    8.9670   -3.1220   24.6130 C   0  0  0  0  0  0  0  0  0  0  0  0
    9.7240   -4.2250   24.9440 C   0  0  0  0  0  0  0  0  0  0  0  0
    9.3800   -5.4730   24.4220 C   0  0  0  0  0  0  0  0  0  0  0  0
    8.2910   -5.5980   23.5660 C   0  0  0  0  0  0  0  0  0  0  0  0
    7.5300   -4.4760   23.2270 C   0  0  0  0  0  0  0  0  0  0  0  0
    5.1810   -4.8470   24.4650 C   0  0  0  0  0  0  0  0  0  0  0  0
    5.5070   -5.5030   23.1210 C   0  0  1  0  0  0  0  0  0  0  0  0
    4.1780   -5.9960   22.6270 C   0  0  0  0  0  0  0  0  0  0  0  0
    3.6250   -6.6480   24.1680 S   0  0  0  0  0  0  0  0  0  0  0  0
    4.1590   -5.3940   25.1370 C   0  0  0  0  0  0  0  0  0  0  0  0
  2  4  1  0
  3  4  1  0
  3  7  1  0
  6  7  2  0
  7  9  1  0
  1 10  1  0
  9 10  1  0
  1 11  1  0
  8 11  2  0
 12  5  1  6
 11 12  1  0
 13 14  1  0
 13 15  1  0
 13 16  1  0
 17 18  2  0
 18 19  1  0
 18 20  1  0
 16 24  1  0
 23 24  1  0
 25 26  2  0
 26 27  1  0
 27 28  2  0
 12 29  1  0
 28 29  1  0
 25 30  1  0
 29 30  2  0
 31 32  2  0
 13 33  1  0
 32 33  1  0
 33 34  2  0
 34 35  1  0
  5 36  1  0
 31 36  1  0
 35 36  2  0
 37 38  2  0
 23 39  1  0
 38 39  1  0
 39 40  2  0
 40 41  1  0
 20 42  1  0
 37 42  1  0
 41 42  2  0
 44 20  1  6
 43 44  1  0
 44 45  1  0
 46 21  1  0
 22 46  1  0
 45 46  1  0
 43 47  2  0
 46 47  1  0
M  END
