x1374-x2705-x3117
     RDKit          3D

 49 53  0  0  0  0  0  0  0  0999 V2000
    7.4050   -1.0350   21.7680 N   0  0  0  0  0  0  0  0  0  0  0  0
    7.5800    2.2550   22.7660 N   0  0  0  0  0  0  0  0  0  0  0  0
    8.8940    1.4920   21.0830 O   0  0  0  0  0  0  0  0  0  0  0  0
    6.9190    0.2510   21.5590 C   0  0  1  0  0  0  0  0  0  0  0  0
    7.8950    1.3710   21.7770 C   0  0  0  0  0  0  0  0  0  0  0  0
   10.2370    2.1610   23.9290 C   0  0  0  0  0  0  0  0  0  0  0  0
    9.3240    1.4020   24.9100 C   0  0  0  0  0  0  0  0  0  0  0  0
    6.2240    4.6570   21.8880 C   0  0  0  0  0  0  0  0  0  0  0  0
   12.4930   -1.4000   23.1860 C   0  0  0  0  0  0  0  0  0  0  0  0
   13.0010   -0.2150   23.8330 C   0  0  0  0  0  0  0  0  0  0  0  0
   13.0740   -2.7070   23.7590 C   0  0  0  0  0  0  0  0  0  0  0  0
   12.9490   -1.4280   21.8450 C   0  0  0  0  0  0  0  0  0  0  0  0
   12.7870   -2.9600   25.2380 C   0  0  0  0  0  0  0  0  0  0  0  0
   10.6120   -4.3030   25.8780 C   0  0  0  0  0  0  0  0  0  0  0  0
    6.3450   -4.8160   22.1510 N   0  0  0  0  0  0  0  0  0  0  0  0
    6.5240   -4.4180   20.8300 C   0  0  0  0  0  0  0  0  0  0  0  0
    5.6430   -4.5220   19.9510 O   0  0  0  0  0  0  0  0  0  0  0  0
    7.9360   -3.8140   20.5950 C   0  0  0  0  0  0  0  0  0  0  0  0
    2.2080   -6.7020   23.6770 O   0  0  0  0  0  0  0  0  0  0  0  0
    4.2760   -7.7820   24.9370 O   0  0  0  0  0  0  0  0  0  0  0  0
   11.2520   -3.0330   25.3080 C   0  0  0  0  0  0  0  0  0  0  0  0
    6.2980    0.1170   17.8100 N   0  0  0  0  0  0  0  0  0  0  0  0
    5.1790    1.0260   17.8250 C   0  0  0  0  0  0  0  0  0  0  0  0
    4.6580    1.6100   18.9320 C   0  0  0  0  0  0  0  0  0  0  0  0
    5.2650    1.3050   20.1030 C   0  0  0  0  0  0  0  0  0  0  0  0
    6.3500    0.4420   20.1400 C   0  0  0  0  0  0  0  0  0  0  0  0
    6.9740   -0.2350   19.0810 C   0  0  0  0  0  0  0  0  0  0  0  0
   10.0530   -1.1000   24.4170 N   0  0  0  0  0  0  0  0  0  0  0  0
    8.7170   -1.0080   23.9910 N   0  0  0  0  0  0  0  0  0  0  0  0
    8.6050   -1.1090   22.5530 C   0  0  0  0  0  0  0  0  0  0  0  0
   10.0080   -1.2810   22.0910 C   0  0  0  0  0  0  0  0  0  0  0  0
   10.9830   -1.2770   23.2540 C   0  0  0  0  0  0  0  0  0  0  0  0
    9.5550    3.4350   23.4900 C   0  0  0  0  0  0  0  0  0  0  0  0
   10.2830    4.7350   23.6580 C   0  0  0  0  0  0  0  0  0  0  0  0
    9.6070    6.0220   23.2140 C   0  0  0  0  0  0  0  0  0  0  0  0
    8.3230    5.9140   22.6650 C   0  0  0  0  0  0  0  0  0  0  0  0
    7.6590    4.6790   22.5190 C   0  0  0  0  0  0  0  0  0  0  0  0
    8.2770    3.4820   22.9300 C   0  0  0  0  0  0  0  0  0  0  0  0
    9.5070   -4.4960   24.9340 C   0  0  0  0  0  0  0  0  0  0  0  0
    8.8470   -3.3600   24.5240 C   0  0  0  0  0  0  0  0  0  0  0  0
    7.7240   -3.4490   23.5390 C   0  0  0  0  0  0  0  0  0  0  0  0
    7.3920   -4.6910   23.0800 C   0  0  0  0  0  0  0  0  0  0  0  0
    8.0710   -5.8130   23.5190 C   0  0  0  0  0  0  0  0  0  0  0  0
    9.1230   -5.7250   24.4410 C   0  0  0  0  0  0  0  0  0  0  0  0
    4.8040   -4.4290   23.9310 C   0  0  0  0  0  0  0  0  0  0  0  0
    5.0070   -5.0440   22.6950 C   0  0  2  0  0  0  0  0  0  0  0  0
    4.7280   -6.5380   22.6710 C   0  0  0  0  0  0  0  0  0  0  0  0
    3.7410   -6.7190   24.1180 S   0  0  0  0  0  0  0  0  0  0  0  0
    4.1390   -5.1430   24.8610 C   0  0  0  0  0  0  0  0  0  0  0  0
  4  1  1  6
  2  5  1  0
  3  5  2  0
  4  5  1  0
  6  7  1  0
  9 10  1  0
  9 11  1  0
  9 12  1  0
 11 13  1  0
 15 16  1  0
 16 17  2  0
 16 18  1  0
 13 21  1  0
 14 21  1  0
 22 23  2  0
 23 24  1  0
 24 25  2  0
  4 26  1  0
 25 26  1  0
 22 27  1  0
 26 27  2  0
 28 29  1  0
  1 30  1  0
 29 30  2  0
 30 31  1  0
  9 32  1  0
 28 32  1  0
 31 32  2  0
  6 33  1  0
 33 34  2  0
 34 35  1  0
 35 36  2  0
  8 37  1  0
 36 37  1  0
  2 38  1  0
 33 38  1  0
 37 38  2  0
 14 39  1  0
 39 40  2  0
 40 41  1  0
 15 42  1  0
 41 42  2  0
 42 43  1  0
 39 44  1  0
 43 44  2  0
 46 15  1  1
 45 46  1  0
 46 47  1  0
 48 19  1  0
 20 48  1  0
 47 48  1  0
 45 49  2  0
 48 49  1  0
M  END
