x1375-x2694
     RDKit          3D

 49 53  0  0  0  0  0  0  0  0999 V2000
    7.5690   -0.7610   21.7460 N   0  0  0  0  0  0  0  0  0  0  0  0
    7.6430    2.5730   22.6240 N   0  0  0  0  0  0  0  0  0  0  0  0
    9.0890    1.5350   21.0400 O   0  0  0  0  0  0  0  0  0  0  0  0
   11.0090    6.8450   23.9790 O   0  0  0  0  0  0  0  0  0  0  0  0
    7.0300    0.5290   21.6710 C   0  0  1  0  0  0  0  0  0  0  0  0
    7.9650    1.5710   21.7700 C   0  0  0  0  0  0  0  0  0  0  0  0
   10.2240    1.9650   23.9950 C   0  0  0  0  0  0  0  0  0  0  0  0
   11.8580    6.6880   24.8590 C   0  0  0  0  0  0  0  0  0  0  0  0
   12.3740   -1.0400   23.2940 C   0  0  0  0  0  0  0  0  0  0  0  0
   12.8340    0.2790   23.2600 C   0  0  0  0  0  0  0  0  0  0  0  0
   12.9710   -1.7920   22.0910 C   0  0  0  0  0  0  0  0  0  0  0  0
   12.6800   -1.8060   24.5550 C   0  0  0  0  0  0  0  0  0  0  0  0
    5.6070   -5.2080   20.0930 O   0  0  0  0  0  0  0  0  0  0  0  0
    6.3470   -4.4940   20.7990 C   0  0  0  0  0  0  0  0  0  0  0  0
    7.2150   -3.4520   20.0520 C   0  0  0  0  0  0  0  0  0  0  0  0
    6.3480   -4.5710   22.2500 N   0  0  0  0  0  0  0  0  0  0  0  0
    2.1960   -6.9080   24.0770 O   0  0  0  0  0  0  0  0  0  0  0  0
    4.4200   -7.7500   24.9160 O   0  0  0  0  0  0  0  0  0  0  0  0
   10.8560   -4.6500   25.5410 O   0  0  0  0  0  0  0  0  0  0  0  0
   12.3810   -3.1270   24.4820 C   0  0  0  0  0  0  0  0  0  0  0  0
   11.7410   -3.5440   25.6420 C   0  0  0  0  0  0  0  0  0  0  0  0
    6.3130    0.2490   17.9740 N   0  0  0  0  0  0  0  0  0  0  0  0
    5.2270    1.0440   17.9030 C   0  0  0  0  0  0  0  0  0  0  0  0
    4.6480    1.7000   18.9800 C   0  0  0  0  0  0  0  0  0  0  0  0
    5.2400    1.5240   20.2190 C   0  0  0  0  0  0  0  0  0  0  0  0
    6.3670    0.7160   20.3380 C   0  0  0  0  0  0  0  0  0  0  0  0
    6.8600    0.0990   19.1880 C   0  0  0  0  0  0  0  0  0  0  0  0
    8.7990   -0.8720   23.9050 N   0  0  0  0  0  0  0  0  0  0  0  0
   10.1520   -0.9490   24.2640 O   0  0  0  0  0  0  0  0  0  0  0  0
   10.9310   -0.9830   23.1370 C   0  0  0  0  0  0  0  0  0  0  0  0
   10.0430   -0.9390   22.0970 C   0  0  0  0  0  0  0  0  0  0  0  0
    8.7570   -0.8600   22.5640 C   0  0  0  0  0  0  0  0  0  0  0  0
    9.7670    3.3570   23.6360 C   0  0  0  0  0  0  0  0  0  0  0  0
   10.5930    4.4410   23.9560 C   0  0  0  0  0  0  0  0  0  0  0  0
   10.2450    5.7520   23.6720 C   0  0  0  0  0  0  0  0  0  0  0  0
    9.0420    6.0120   23.0340 C   0  0  0  0  0  0  0  0  0  0  0  0
    8.1740    4.9560   22.6830 C   0  0  0  0  0  0  0  0  0  0  0  0
    8.5360    3.6140   22.9890 C   0  0  0  0  0  0  0  0  0  0  0  0
    8.0580   -3.3230   23.5400 C   0  0  0  0  0  0  0  0  0  0  0  0
    9.1760   -3.3170   24.3710 C   0  0  0  0  0  0  0  0  0  0  0  0
    9.7720   -4.5140   24.7510 C   0  0  0  0  0  0  0  0  0  0  0  0
    9.2440   -5.7040   24.3010 C   0  0  0  0  0  0  0  0  0  0  0  0
    8.1380   -5.7250   23.4740 C   0  0  0  0  0  0  0  0  0  0  0  0
    7.5240   -4.5290   23.0800 C   0  0  0  0  0  0  0  0  0  0  0  0
    4.8600   -4.5450   24.3350 C   0  0  0  0  0  0  0  0  0  0  0  0
    5.4250   -5.3210   23.1330 C   0  0  1  0  0  0  0  0  0  0  0  0
    4.3010   -6.1060   22.5990 C   0  0  0  0  0  0  0  0  0  0  0  0
    3.6100   -6.6220   24.1410 S   0  0  0  0  0  0  0  0  0  0  0  0
    3.8580   -5.1780   24.9710 C   0  0  0  0  0  0  0  0  0  0  0  0
  5  1  1  6
  2  6  1  0
  3  6  2  0
  5  6  1  0
  4  8  1  0
  9 10  1  0
  9 11  1  0
  9 12  1  0
 13 14  2  0
 14 15  1  0
 14 16  1  0
 12 20  1  0
 19 21  1  0
 20 21  1  0
 22 23  2  0
 23 24  1  0
 24 25  2  0
  5 26  1  0
 25 26  1  0
 22 27  1  0
 26 27  2  0
 28 29  1  0
  9 30  1  0
 29 30  1  0
 30 31  2  0
  1 32  1  0
 28 32  2  0
 31 32  1  0
  7 33  1  0
 33 34  2  0
  4 35  1  0
 34 35  1  0
 35 36  2  0
 36 37  1  0
  2 38  1  0
 33 38  1  0
 37 38  2  0
 39 40  2  0
 19 41  1  0
 40 41  1  0
 41 42  2  0
 42 43  1  0
 16 44  1  0
 39 44  1  0
 43 44  2  0
 46 16  1  6
 45 46  1  0
 46 47  1  0
 48 17  1  0
 18 48  1  0
 47 48  1  0
 45 49  2  0
 48 49  1  0
M  END
