x1375-x0305
     RDKit          3D

 32 34  0  0  0  0  0  0  0  0999 V2000
    5.3690   -5.1610   20.0140 O   0  0  0  0  0  0  0  0  0  0  0  0
    6.1910   -4.5500   20.6700 C   0  0  0  0  0  0  0  0  0  0  0  0
    7.1020   -3.5240   19.9590 C   0  0  0  0  0  0  0  0  0  0  0  0
    6.2380   -4.7980   22.0380 N   0  0  0  0  0  0  0  0  0  0  0  0
    2.4240   -6.5810   23.9980 O   0  0  0  0  0  0  0  0  0  0  0  0
    4.3910   -7.8280   24.9270 O   0  0  0  0  0  0  0  0  0  0  0  0
   10.9220   -4.0630   24.9840 F   0  0  0  0  0  0  0  0  0  0  0  0
    6.7950   -0.6320   25.2540 C   0  0  0  0  0  0  0  0  0  0  0  0
    7.7900   -1.0430   24.3340 C   0  0  1  0  0  0  0  0  0  0  0  0
    8.5480    0.0830   23.7490 N   0  0  0  0  0  0  0  0  0  0  0  0
   13.1870   -1.3970   21.4800 C   0  0  0  0  0  0  0  0  0  0  0  0
   14.0730   -1.5590   20.4230 N   0  0  0  0  0  0  0  0  0  0  0  0
   10.5030   -2.9790   24.3320 C   0  0  2  0  0  0  0  0  0  0  0  0
   10.0700   -1.7970   24.8680 C   0  0  0  0  0  0  0  0  0  0  0  0
    8.6490   -1.8390   25.0610 C   0  0  0  0  0  0  0  0  0  0  0  0
    8.0980   -3.5980   22.9370 C   0  0  0  0  0  0  0  0  0  0  0  0
    9.2560   -3.2060   23.5860 C   0  0  0  0  0  0  0  0  0  0  0  0
    9.6370   -4.5970   24.1560 C   0  0  0  0  0  0  0  0  0  0  0  0
    9.0270   -5.8340   24.0580 C   0  0  0  0  0  0  0  0  0  0  0  0
    7.8840   -5.9400   23.3530 C   0  0  0  0  0  0  0  0  0  0  0  0
    7.4520   -4.7780   22.8060 C   0  0  0  0  0  0  0  0  0  0  0  0
    5.0460   -4.4810   24.0400 C   0  0  0  0  0  0  0  0  0  0  0  0
    4.9630   -5.0360   22.7570 C   0  0  2  0  0  0  0  0  0  0  0  0
    4.7060   -6.4170   22.7770 C   0  0  0  0  0  0  0  0  0  0  0  0
    3.8430   -6.6740   24.2820 S   0  0  0  0  0  0  0  0  0  0  0  0
    4.4710   -5.2270   25.0860 C   0  0  0  0  0  0  0  0  0  0  0  0
    9.7090   -0.2750   23.2350 C   0  0  0  0  0  0  0  0  0  0  0  0
   10.7140    0.6180   23.2800 N   0  0  0  0  0  0  0  0  0  0  0  0
   11.8780    0.2420   22.7410 C   0  0  0  0  0  0  0  0  0  0  0  0
   11.9880   -0.9930   22.1640 C   0  0  0  0  0  0  0  0  0  0  0  0
   10.9730   -1.9030   22.1320 C   0  0  0  0  0  0  0  0  0  0  0  0
    9.7980   -1.5370   22.6840 C   0  0  0  0  0  0  0  0  0  0  0  0
  1  2  2  0
  2  3  1  0
  2  4  1  0
  9  8  1  1
  9 10  1  0
 11 12  3  0
 13  7  1  1
 13 14  1  0
  9 15  1  0
 14 15  1  0
 13 17  1  0
 16 17  2  0
 17 18  1  0
 18 19  2  0
 19 20  1  0
  4 21  1  0
 16 21  1  0
 20 21  2  0
 23  4  1  1
 22 23  1  0
 23 24  1  0
 25  5  1  0
  6 25  1  0
 24 25  1  0
 22 26  2  0
 25 26  1  0
 10 27  1  0
 27 28  2  0
 28 29  1  0
 11 30  1  0
 29 30  2  0
 30 31  1  0
 27 32  1  0
 31 32  2  0
M  END
