x1375-x0434
     RDKit          3D

 36 39  0  0  0  0  0  0  0  0999 V2000
    5.8280   -4.8530   20.0330 O   0  0  0  0  0  0  0  0  0  0  0  0
    6.6450   -4.3570   20.8350 C   0  0  0  0  0  0  0  0  0  0  0  0
    8.0810   -3.9080   20.5100 C   0  0  0  0  0  0  0  0  0  0  0  0
    6.2610   -4.0640   22.3200 C   0  0  2  0  0  0  0  0  0  0  0  0
    2.5240   -6.4930   23.6320 O   0  0  0  0  0  0  0  0  0  0  0  0
    4.2460   -7.7740   24.9020 O   0  0  0  0  0  0  0  0  0  0  0  0
   10.7230   -4.6450   26.0110 F   0  0  0  0  0  0  0  0  0  0  0  0
    8.6410    0.8640   21.2020 O   0  0  0  0  0  0  0  0  0  0  0  0
    8.2390   -0.2340   21.5890 C   0  0  0  0  0  0  0  0  0  0  0  0
    9.0510   -1.0550   22.3290 N   0  0  0  0  0  0  0  0  0  0  0  0
    6.8610   -0.6350   21.2360 N   0  0  0  0  0  0  0  0  0  0  0  0
    5.9410   -2.6060   22.2090 C   0  0  0  0  0  0  0  0  0  0  0  0
    6.7840   -2.0100   21.2350 C   0  0  0  0  0  0  0  0  0  0  0  0
    7.9640   -3.1370   23.9750 C   0  0  0  0  0  0  0  0  0  0  0  0
    9.0300   -3.2160   24.8710 C   0  0  0  0  0  0  0  0  0  0  0  0
    9.7040   -4.5650   25.1530 C   0  0  0  0  0  0  0  0  0  0  0  0
    9.2310   -5.6870   24.4960 C   0  0  0  0  0  0  0  0  0  0  0  0
    8.0510   -5.5180   23.5210 C   0  0  0  0  0  0  0  0  0  0  0  0
    7.4640   -4.2630   23.2990 C   0  0  0  0  0  0  0  0  0  0  0  0
    4.9130   -4.5480   24.1630 C   0  0  0  0  0  0  0  0  0  0  0  0
    5.1150   -4.9280   22.8190 C   0  0  2  0  0  0  0  0  0  0  0  0
    5.2710   -6.3500   22.5820 C   0  0  0  0  0  0  0  0  0  0  0  0
    3.8970   -6.6430   24.0690 S   0  0  0  0  0  0  0  0  0  0  0  0
    4.2730   -5.3410   24.9630 C   0  0  0  0  0  0  0  0  0  0  0  0
   10.6050    0.4350   23.4430 C   0  0  0  0  0  0  0  0  0  0  0  0
   11.8980    0.8410   23.7300 C   0  0  0  0  0  0  0  0  0  0  0  0
   12.9660    0.1220   23.2000 C   0  0  0  0  0  0  0  0  0  0  0  0
   12.7680   -0.9960   22.3990 C   0  0  0  0  0  0  0  0  0  0  0  0
   11.4650   -1.3980   22.1130 C   0  0  0  0  0  0  0  0  0  0  0  0
   10.3860   -0.6730   22.6350 C   0  0  0  0  0  0  0  0  0  0  0  0
    5.0810    0.7490   20.2510 C   0  0  0  0  0  0  0  0  0  0  0  0
    4.5580    1.3880   19.1370 C   0  0  0  0  0  0  0  0  0  0  0  0
    5.2270    1.3020   17.9120 C   0  0  0  0  0  0  0  0  0  0  0  0
    6.3660    0.6150   17.7600 N   0  0  0  0  0  0  0  0  0  0  0  0
    6.8570   -0.0030   18.8540 C   0  0  0  0  0  0  0  0  0  0  0  0
    6.2700    0.0270   20.1330 C   0  0  0  0  0  0  0  0  0  0  0  0
  1  2  2  0
  2  3  1  0
  4  2  1  0
  8  9  2  0
  9 10  1  0
  9 11  1  0
  4 12  1  6
 11 13  1  0
 12 13  1  0
 14 15  2  0
  7 16  1  0
 15 16  1  0
 16 17  2  0
 17 18  1  0
  4 19  1  0
 14 19  1  0
 18 19  2  0
  4 21  1  0
 21 20  1  1
 21 22  1  0
 23  5  1  0
  6 23  1  0
 22 23  1  0
 20 24  2  0
 23 24  1  0
 25 26  2  0
 26 27  1  0
 27 28  2  0
 28 29  1  0
 10 30  1  0
 25 30  1  0
 29 30  2  0
 31 32  2  0
 32 33  1  0
 33 34  2  0
 34 35  1  0
 11 36  1  0
 31 36  1  0
 35 36  2  0
M  END
