x1374-x0387
     RDKit          3D

 26 28  0  0  0  0  0  0  0  0999 V2000
   10.6760   -4.1780   25.9800 C   0  0  0  0  0  0  0  0  0  0  0  0
    6.2630   -4.4360   22.0100 N   0  0  0  0  0  0  0  0  0  0  0  0
    6.2630   -4.3480   20.6000 C   0  0  0  0  0  0  0  0  0  0  0  0
    5.4570   -5.0490   20.0100 O   0  0  0  0  0  0  0  0  0  0  0  0
    7.1800   -3.3750   19.7900 C   0  0  0  0  0  0  0  0  0  0  0  0
    2.5740   -7.6010   22.9300 O   0  0  0  0  0  0  0  0  0  0  0  0
    4.2680   -7.6440   24.9090 O   0  0  0  0  0  0  0  0  0  0  0  0
    9.7110   -1.5000   24.4980 C   0  0  0  0  0  0  0  0  0  0  0  0
    9.6350   -4.1730   24.9120 C   0  0  0  0  0  0  0  0  0  0  0  0
    9.1600   -2.8980   24.2200 C   0  0  0  0  0  0  0  0  0  0  0  0
    8.0250   -3.0100   23.2030 C   0  0  0  0  0  0  0  0  0  0  0  0
    7.3910   -4.3790   22.8920 C   0  0  0  0  0  0  0  0  0  0  0  0
    7.8950   -5.6560   23.5380 C   0  0  0  0  0  0  0  0  0  0  0  0
    9.0110   -5.5050   24.5400 C   0  0  0  0  0  0  0  0  0  0  0  0
    4.3600   -4.3300   23.4250 C   0  0  0  0  0  0  0  0  0  0  0  0
    5.3730   -5.1460   22.8680 C   0  0  1  0  0  0  0  0  0  0  0  0
    5.0150   -6.4580   22.5460 C   0  0  0  0  0  0  0  0  0  0  0  0
    3.6950   -6.7910   23.6890 S   0  0  0  0  0  0  0  0  0  0  0  0
    3.2520   -5.2210   24.0200 C   0  0  0  0  0  0  0  0  0  0  0  0
   11.8650   -0.1160   23.9010 C   0  0  0  0  0  0  0  0  0  0  0  0
   11.0240   -1.1970   23.7430 C   0  0  0  0  0  0  0  0  0  0  0  0
   11.5550   -2.1100   22.6830 C   0  0  0  0  0  0  0  0  0  0  0  0
   13.0250   -1.5640   21.9920 S   0  0  0  0  0  0  0  0  0  0  0  0
   13.0540   -0.1530   22.9880 C   0  0  0  0  0  0  0  0  0  0  0  0
    8.8590   -4.1950   27.5950 O   0  0  0  0  0  0  0  0  0  0  0  0
   10.0100   -4.8970   27.1600 C   0  0  0  0  0  0  0  0  0  0  0  0
  2  3  1  0
  3  4  2  0
  3  5  1  0
  1  9  1  0
  8 10  1  0
  9 10  2  0
 10 11  1  0
  2 12  1  0
 11 12  2  0
 12 13  1  0
  9 14  1  0
 13 14  2  0
 16  2  1  6
 15 16  1  0
 16 17  1  0
 18  6  1  0
  7 18  1  0
 17 18  1  0
 15 19  2  0
 18 19  1  0
  8 21  1  0
 20 21  1  0
 21 22  2  0
 22 23  1  0
 20 24  2  0
 23 24  1  0
  1 26  1  0
 25 26  1  0
M  END
