x1375-x1311
     RDKit          3D

 18 19  0  0  0  0  0  0  0  0999 V2000
    5.5930   -5.1850   20.0920 O   0  0  0  0  0  0  0  0  0  0  0  0
    6.3000   -4.3800   20.7190 C   0  0  0  0  0  0  0  0  0  0  0  0
    7.1410   -3.4070   19.8640 C   0  0  0  0  0  0  0  0  0  0  0  0
    6.2580   -4.2960   22.1530 N   0  0  0  0  0  0  0  0  0  0  0  0
    2.7010   -7.5320   23.1380 O   0  0  0  0  0  0  0  0  0  0  0  0
    4.3770   -7.5450   24.9760 O   0  0  0  0  0  0  0  0  0  0  0  0
   10.6330   -4.9800   25.5010 F   0  0  0  0  0  0  0  0  0  0  0  0
    8.0660   -3.2420   23.5790 C   0  0  0  0  0  0  0  0  0  0  0  0
    9.1430   -3.4510   24.4170 C   0  0  0  0  0  0  0  0  0  0  0  0
    9.6350   -4.7210   24.7070 C   0  0  0  0  0  0  0  0  0  0  0  0
    8.9900   -5.7750   24.0880 C   0  0  0  0  0  0  0  0  0  0  0  0
    7.9030   -5.6270   23.2400 C   0  0  0  0  0  0  0  0  0  0  0  0
    7.4390   -4.3310   22.9980 C   0  0  0  0  0  0  0  0  0  0  0  0
    4.2840   -4.2460   23.6140 C   0  0  0  0  0  0  0  0  0  0  0  0
    5.2970   -5.0030   23.0270 C   0  0  1  0  0  0  0  0  0  0  0  0
    5.0100   -6.4720   22.6560 C   0  0  0  0  0  0  0  0  0  0  0  0
    3.7600   -6.8850   23.8530 S   0  0  0  0  0  0  0  0  0  0  0  0
    3.2990   -5.2070   24.1990 C   0  0  0  0  0  0  0  0  0  0  0  0
  1  2  2  0
  2  3  1  0
  2  4  1  0
  8  9  2  0
  7 10  1  0
  9 10  1  0
 10 11  2  0
 11 12  1  0
  4 13  1  0
  8 13  1  0
 12 13  2  0
 15  4  1  6
 14 15  1  0
 15 16  1  0
 17  5  1  0
  6 17  1  0
 16 17  1  0
 14 18  2  0
 17 18  1  0
M  END
