x1374-x1458-x3117
     RDKit          3D

 51 56  0  0  0  0  0  0  0  0999 V2000
    7.3170   -3.4890   26.4520 N   0  0  0  0  0  0  0  0  0  0  0  0
    9.3230   -4.5170   27.5540 C   0  0  0  0  0  0  0  0  0  0  0  0
    5.1850   -4.0950   25.8240 N   0  0  0  0  0  0  0  0  0  0  0  0
    7.9030   -4.5650   27.1030 C   0  0  0  0  0  0  0  0  0  0  0  0
    5.1480   -4.5880   19.8560 O   0  0  0  0  0  0  0  0  0  0  0  0
    7.3840   -4.9210   28.3010 C   0  0  0  0  0  0  0  0  0  0  0  0
    8.0170   -2.3810   25.7490 C   0  0  0  0  0  0  0  0  0  0  0  0
    6.4960   -4.0340   25.4660 C   0  0  0  0  0  0  0  0  0  0  0  0
    6.2200   -4.1210   20.1770 C   0  0  0  0  0  0  0  0  0  0  0  0
    7.0530   -3.2790   19.2240 C   0  0  0  0  0  0  0  0  0  0  0  0
    1.3880   -6.9530   23.5820 O   0  0  0  0  0  0  0  0  0  0  0  0
    3.8090   -8.3320   24.2110 O   0  0  0  0  0  0  0  0  0  0  0  0
    7.3580   -0.9850   21.9120 N   0  0  0  0  0  0  0  0  0  0  0  0
    7.8380    2.0550   22.8190 N   0  0  0  0  0  0  0  0  0  0  0  0
    9.0130    1.1970   21.0460 O   0  0  0  0  0  0  0  0  0  0  0  0
    6.8150    0.2780   21.8500 C   0  0  1  0  0  0  0  0  0  0  0  0
    8.0740    1.1960   21.7990 C   0  0  0  0  0  0  0  0  0  0  0  0
   12.5140   -1.8110   24.4000 C   0  0  0  0  0  0  0  0  0  0  0  0
   12.7680   -0.6900   25.1410 C   0  0  0  0  0  0  0  0  0  0  0  0
   13.4460   -1.9720   23.2060 C   0  0  0  0  0  0  0  0  0  0  0  0
   12.8810   -3.0440   25.2570 C   0  0  0  0  0  0  0  0  0  0  0  0
    6.5350   -1.9990   21.9870 C   0  0  0  0  0  0  0  0  0  0  0  0
    6.7650   -4.3540   21.4140 N   0  0  0  0  0  0  0  0  0  0  0  0
    7.2510   -3.2040   22.1430 C   0  0  2  0  0  0  0  0  0  0  0  0
    7.5370   -3.5050   23.4870 C   0  0  0  0  0  0  0  0  0  0  0  0
    7.0470   -4.6750   24.0890 C   0  0  2  0  0  0  0  0  0  0  0  0
    6.1620   -5.4240   23.3630 C   0  0  2  0  0  0  0  0  0  0  0  0
    6.5510   -5.6310   22.0790 C   0  0  0  0  0  0  0  0  0  0  0  0
    4.5060   -4.9900   24.8800 C   0  0  0  0  0  0  0  0  0  0  0  0
    4.8700   -5.0100   23.4110 C   0  0  2  0  0  0  0  0  0  0  0  0
    4.0100   -6.1050   22.7860 C   0  0  0  0  0  0  0  0  0  0  0  0
    3.1500   -6.9290   24.0260 S   0  0  0  0  0  0  0  0  0  0  0  0
    3.6190   -5.8820   25.3250 C   0  0  0  0  0  0  0  0  0  0  0  0
    6.3550    0.2180   17.9830 N   0  0  0  0  0  0  0  0  0  0  0  0
    5.1710    1.0470   17.8810 C   0  0  0  0  0  0  0  0  0  0  0  0
    4.5160    1.6150   19.1390 C   0  0  0  0  0  0  0  0  0  0  0  0
    5.0860    1.3270   20.3880 C   0  0  0  0  0  0  0  0  0  0  0  0
    6.2280    0.5360   20.4760 C   0  0  0  0  0  0  0  0  0  0  0  0
    6.8320    0.0050   19.3450 C   0  0  0  0  0  0  0  0  0  0  0  0
    9.7710    5.2590   24.2090 O   0  0  0  0  0  0  0  0  0  0  0  0
   10.5270    4.1840   23.8380 C   0  0  0  0  0  0  0  0  0  0  0  0
    9.7590    3.0230   23.7330 C   0  0  0  0  0  0  0  0  0  0  0  0
    8.5480    3.2090   22.8380 C   0  0  0  0  0  0  0  0  0  0  0  0
    7.9350    4.4440   22.9840 C   0  0  0  0  0  0  0  0  0  0  0  0
    8.7550    5.5390   23.2440 C   0  0  0  0  0  0  0  0  0  0  0  0
    9.7140   -1.8980   21.9120 C   0  0  0  0  0  0  0  0  0  0  0  0
   10.9060   -2.0500   22.5860 C   0  0  0  0  0  0  0  0  0  0  0  0
   11.1330   -1.5770   23.8540 C   0  0  0  0  0  0  0  0  0  0  0  0
   10.1260   -0.8330   24.7100 C   0  0  0  0  0  0  0  0  0  0  0  0
    8.7730   -0.6090   24.0430 C   0  0  0  0  0  0  0  0  0  0  0  0
    8.5530   -1.1440   22.6080 C   0  0  0  0  0  0  0  0  0  0  0  0
  1  4  1  0
  2  4  1  0
  4  6  1  0
  1  7  1  0
  1  8  1  0
  3  8  2  0
  5  9  2  0
  9 10  1  0
 13 16  1  0
 14 17  1  0
 15 17  2  0
 16 17  1  6
 18 19  1  0
 18 20  1  0
 18 21  1  0
 13 22  1  0
  9 23  1  0
 24 22  1  1
 23 24  1  0
 24 25  1  0
  8 26  1  0
 26 25  1  6
 26 27  1  0
 23 28  1  0
 27 28  1  6
  3 29  1  0
 27 30  1  0
 29 30  1  0
 30 31  1  6
 32 11  1  0
 12 32  1  0
 31 32  1  0
 29 33  2  0
 32 33  1  0
 34 35  2  0
 35 36  1  0
 36 37  2  0
 16 38  1  0
 37 38  1  0
 34 39  1  0
 38 39  2  0
 40 41  1  0
 41 42  1  0
 14 43  1  0
 42 43  1  0
 43 44  1  0
 40 45  1  0
 44 45  1  0
 46 47  2  0
 18 48  1  0
 47 48  1  0
 48 49  2  0
 49 50  1  0
 13 51  1  0
 46 51  1  0
 50 51  2  0
M  END
