x1375-x2705
     RDKit          3D

 49 53  0  0  0  0  0  0  0  0999 V2000
    7.6520   -0.9780   21.6790 N   0  0  0  0  0  0  0  0  0  0  0  0
    7.4980    2.1980   22.7960 N   0  0  0  0  0  0  0  0  0  0  0  0
    8.9230    1.5390   20.9920 O   0  0  0  0  0  0  0  0  0  0  0  0
    7.0060    0.2570   21.6380 C   0  0  1  0  0  0  0  0  0  0  0  0
    7.8530    1.3600   21.8000 C   0  0  0  0  0  0  0  0  0  0  0  0
   10.0720    2.0890   24.0010 C   0  0  0  0  0  0  0  0  0  0  0  0
    9.2530    1.4390   24.9390 C   0  0  0  0  0  0  0  0  0  0  0  0
    6.2170    4.7510   21.8570 C   0  0  0  0  0  0  0  0  0  0  0  0
   12.4290   -1.4040   23.2420 C   0  0  0  0  0  0  0  0  0  0  0  0
   13.0090   -0.2930   23.8230 C   0  0  0  0  0  0  0  0  0  0  0  0
   12.9890   -2.6750   23.8800 C   0  0  0  0  0  0  0  0  0  0  0  0
   12.9160   -1.5060   21.8020 C   0  0  0  0  0  0  0  0  0  0  0  0
    5.5840   -5.3100   20.0910 O   0  0  0  0  0  0  0  0  0  0  0  0
    6.2920   -4.5750   20.8000 C   0  0  0  0  0  0  0  0  0  0  0  0
    7.1270   -3.4990   20.0510 C   0  0  0  0  0  0  0  0  0  0  0  0
    6.2960   -4.6400   22.2550 N   0  0  0  0  0  0  0  0  0  0  0  0
    2.1970   -6.8950   24.1760 O   0  0  0  0  0  0  0  0  0  0  0  0
    4.4800   -7.8900   24.3730 O   0  0  0  0  0  0  0  0  0  0  0  0
   10.7860   -4.3960   25.6450 O   0  0  0  0  0  0  0  0  0  0  0  0
   12.6840   -2.9670   25.1830 C   0  0  0  0  0  0  0  0  0  0  0  0
   11.3210   -3.1200   25.2860 C   0  0  0  0  0  0  0  0  0  0  0  0
    6.3330    0.1460   17.9280 N   0  0  0  0  0  0  0  0  0  0  0  0
    5.2180    0.9050   17.8860 C   0  0  0  0  0  0  0  0  0  0  0  0
    4.6200    1.4710   18.9940 C   0  0  0  0  0  0  0  0  0  0  0  0
    5.1940    1.2600   20.2310 C   0  0  0  0  0  0  0  0  0  0  0  0
    6.3540    0.4820   20.3070 C   0  0  0  0  0  0  0  0  0  0  0  0
    6.8840   -0.0570   19.1360 C   0  0  0  0  0  0  0  0  0  0  0  0
   10.1520   -1.0680   24.3380 N   0  0  0  0  0  0  0  0  0  0  0  0
    8.8910   -0.9620   23.8310 N   0  0  0  0  0  0  0  0  0  0  0  0
    8.8270   -1.0720   22.4600 C   0  0  0  0  0  0  0  0  0  0  0  0
   10.1480   -1.2690   22.1240 C   0  0  0  0  0  0  0  0  0  0  0  0
   10.9230   -1.2550   23.2570 C   0  0  0  0  0  0  0  0  0  0  0  0
    9.4480    3.4250   23.5430 C   0  0  0  0  0  0  0  0  0  0  0  0
   10.1280    4.6440   23.6980 C   0  0  0  0  0  0  0  0  0  0  0  0
    9.5580    5.8450   23.2750 C   0  0  0  0  0  0  0  0  0  0  0  0
    8.2870    5.8610   22.6800 C   0  0  0  0  0  0  0  0  0  0  0  0
    7.5720    4.6500   22.5070 C   0  0  0  0  0  0  0  0  0  0  0  0
    8.1570    3.4420   22.9420 C   0  0  0  0  0  0  0  0  0  0  0  0
    7.9500   -3.2790   23.6270 C   0  0  0  0  0  0  0  0  0  0  0  0
    9.0560   -3.2920   24.4720 C   0  0  0  0  0  0  0  0  0  0  0  0
    9.7020   -4.4690   24.8390 C   0  0  0  0  0  0  0  0  0  0  0  0
    9.2620   -5.7000   24.3820 C   0  0  0  0  0  0  0  0  0  0  0  0
    8.1560   -5.7450   23.5270 C   0  0  0  0  0  0  0  0  0  0  0  0
    7.4570   -4.4580   23.1220 C   0  0  0  0  0  0  0  0  0  0  0  0
    5.0770   -4.8110   24.4290 C   0  0  0  0  0  0  0  0  0  0  0  0
    5.3900   -5.4530   23.0900 C   0  0  1  0  0  0  0  0  0  0  0  0
    4.0890   -6.0650   22.6350 C   0  0  0  0  0  0  0  0  0  0  0  0
    3.6320   -6.7510   24.1950 S   0  0  0  0  0  0  0  0  0  0  0  0
    4.1220   -5.4490   25.1260 C   0  0  0  0  0  0  0  0  0  0  0  0
  4  1  1  6
  2  5  1  0
  3  5  2  0
  4  5  1  0
  6  7  1  0
  9 10  1  0
  9 11  1  0
  9 12  1  0
 13 14  2  0
 14 15  1  0
 14 16  1  0
 11 20  1  0
 19 21  1  0
 20 21  1  0
 22 23  2  0
 23 24  1  0
 24 25  2  0
  4 26  1  0
 25 26  1  0
 22 27  1  0
 26 27  2  0
 28 29  1  0
  1 30  1  0
 29 30  1  0
 30 31  2  0
  9 32  1  0
 28 32  2  0
 31 32  1  0
  6 33  1  0
 33 34  2  0
 34 35  1  0
 35 36  2  0
  8 37  1  0
 36 37  1  0
  2 38  1  0
 33 38  1  0
 37 38  2  0
 39 40  2  0
 19 41  1  0
 40 41  1  0
 41 42  2  0
 42 43  1  0
 16 44  1  0
 39 44  1  0
 43 44  2  0
 46 16  1  6
 45 46  1  0
 46 47  1  0
 48 17  1  0
 18 48  1  0
 47 48  1  0
 45 49  2  0
 48 49  1  0
M  END
