x1374-x1375
     RDKit          3D

 18 19  0  0  0  0  0  0  0  0999 V2000
   10.8040   -4.1110   25.8690 C   0  0  0  0  0  0  0  0  0  0  0  0
    6.3100   -4.7530   22.0000 N   0  0  0  0  0  0  0  0  0  0  0  0
    6.4960   -4.2920   20.6900 C   0  0  0  0  0  0  0  0  0  0  0  0
    5.5690   -4.3650   19.8730 O   0  0  0  0  0  0  0  0  0  0  0  0
    7.9020   -3.6910   20.3800 C   0  0  0  0  0  0  0  0  0  0  0  0
    2.3230   -6.7070   23.3070 O   0  0  0  0  0  0  0  0  0  0  0  0
    4.1260   -7.9380   24.8580 O   0  0  0  0  0  0  0  0  0  0  0  0
    9.7010   -4.2770   24.9040 C   0  0  0  0  0  0  0  0  0  0  0  0
    9.1660   -3.0030   24.2270 C   0  0  0  0  0  0  0  0  0  0  0  0
    8.0310   -3.2030   23.2560 C   0  0  0  0  0  0  0  0  0  0  0  0
    7.4190   -4.5540   22.9310 C   0  0  0  0  0  0  0  0  0  0  0  0
    8.0370   -5.7470   23.6550 C   0  0  0  0  0  0  0  0  0  0  0  0
    9.1840   -5.5560   24.6430 C   0  0  0  0  0  0  0  0  0  0  0  0
    4.8810   -4.4160   23.8620 C   0  0  0  0  0  0  0  0  0  0  0  0
    5.0840   -5.0540   22.6190 C   0  0  2  0  0  0  0  0  0  0  0  0
    4.9480   -6.4610   22.6420 C   0  0  0  0  0  0  0  0  0  0  0  0
    3.7790   -6.6830   23.9480 S   0  0  0  0  0  0  0  0  0  0  0  0
    4.0970   -5.2080   24.8620 C   0  0  0  0  0  0  0  0  0  0  0  0
  2  3  1  0
  3  4  2  0
  3  5  1  0
  1  8  1  0
  8  9  2  0
  9 10  1  0
  2 11  1  0
 10 11  2  0
 11 12  1  0
  8 13  1  0
 12 13  2  0
 15  2  1  1
 14 15  1  0
 15 16  1  0
 17  6  1  0
  7 17  1  0
 16 17  1  0
 14 18  2  0
 17 18  1  0
M  END
