x1375-x2649
     RDKit          3D

 39 42  0  0  0  0  0  0  0  0999 V2000
    5.5640   -5.0590   20.0700 O   0  0  0  0  0  0  0  0  0  0  0  0
    6.2830   -4.2920   20.7320 C   0  0  0  0  0  0  0  0  0  0  0  0
    7.1640   -3.3210   19.9170 C   0  0  0  0  0  0  0  0  0  0  0  0
    6.2090   -4.3030   22.1700 N   0  0  0  0  0  0  0  0  0  0  0  0
    2.5370   -6.7860   23.6180 O   0  0  0  0  0  0  0  0  0  0  0  0
    4.4750   -7.8830   24.7470 O   0  0  0  0  0  0  0  0  0  0  0  0
   10.7900   -4.6530   25.9840 F   0  0  0  0  0  0  0  0  0  0  0  0
    6.9720   -0.3950   20.7790 N   0  0  0  0  0  0  0  0  0  0  0  0
    7.6660   -1.1860   23.3480 C   0  0  0  0  0  0  0  0  0  0  0  0
    8.8790    1.0320   21.2330 O   0  0  0  0  0  0  0  0  0  0  0  0
   13.3480   -1.9580   21.1810 Cl  0  0  0  0  0  0  0  0  0  0  0  0
    8.6060   -0.9490   22.3790 C   0  0  1  0  0  0  0  0  0  0  0  0
    8.2180   -0.0150   21.4370 C   0  0  0  0  0  0  0  0  0  0  0  0
    4.6100    1.0360   21.4950 C   0  0  0  0  0  0  0  0  0  0  0  0
    6.5540   -3.2080   23.1320 C   0  0  2  0  0  0  0  0  0  0  0  0
    6.5700   -1.8820   22.8240 C   0  0  0  0  0  0  0  0  0  0  0  0
    7.7860   -3.2530   24.0330 C   0  0  0  0  0  0  0  0  0  0  0  0
    8.9370   -3.4740   24.8370 C   0  0  0  0  0  0  0  0  0  0  0  0
    9.7290   -4.7210   25.1750 C   0  0  0  0  0  0  0  0  0  0  0  0
    9.3250   -5.8770   24.6360 C   0  0  0  0  0  0  0  0  0  0  0  0
    8.2450   -5.7800   23.8410 C   0  0  0  0  0  0  0  0  0  0  0  0
    7.5800   -4.5960   23.5930 C   0  0  0  0  0  0  0  0  0  0  0  0
    4.8670   -4.4720   24.0530 C   0  0  0  0  0  0  0  0  0  0  0  0
    4.9790   -4.9390   22.7330 C   0  0  2  0  0  0  0  0  0  0  0  0
    4.9680   -6.3440   22.6720 C   0  0  0  0  0  0  0  0  0  0  0  0
    3.9210   -6.7740   24.0420 S   0  0  0  0  0  0  0  0  0  0  0  0
    4.2880   -5.3350   24.9900 C   0  0  0  0  0  0  0  0  0  0  0  0
    6.2790    0.8340   17.5350 N   0  0  0  0  0  0  0  0  0  0  0  0
    5.1570    1.5530   17.7870 C   0  0  0  0  0  0  0  0  0  0  0  0
    4.5680    1.6530   19.0450 C   0  0  0  0  0  0  0  0  0  0  0  0
    5.1810    0.9820   20.0880 C   0  0  0  0  0  0  0  0  0  0  0  0
    6.3380    0.2500   19.8430 C   0  0  0  0  0  0  0  0  0  0  0  0
    6.8340    0.2060   18.5680 C   0  0  0  0  0  0  0  0  0  0  0  0
   10.4430    0.1980   23.7220 C   0  0  0  0  0  0  0  0  0  0  0  0
   11.8130    0.4150   23.9470 C   0  0  0  0  0  0  0  0  0  0  0  0
   12.7750   -0.2490   23.1740 C   0  0  0  0  0  0  0  0  0  0  0  0
   12.3140   -1.1210   22.1900 C   0  0  0  0  0  0  0  0  0  0  0  0
   10.9910   -1.3330   21.9760 C   0  0  0  0  0  0  0  0  0  0  0  0
   10.0400   -0.6840   22.7150 C   0  0  0  0  0  0  0  0  0  0  0  0
  1  2  2  0
  2  3  1  0
  2  4  1  0
 12  9  1  1
  8 13  1  0
 10 13  2  0
 12 13  1  0
  4 15  1  0
  9 16  1  0
 15 16  1  6
 15 17  1  0
 17 18  2  0
  7 19  1  0
 18 19  1  0
 19 20  2  0
 20 21  1  0
 17 22  1  0
 21 22  2  0
 24  4  1  1
 23 24  1  0
 24 25  1  0
 26  5  1  0
  6 26  1  0
 25 26  1  0
 23 27  2  0
 26 27  1  0
 28 29  2  0
 29 30  1  0
 14 31  1  0
 30 31  2  0
  8 32  1  0
 31 32  1  0
 28 33  1  0
 32 33  2  0
 34 35  2  0
 35 36  1  0
 11 37  1  0
 36 37  2  0
 37 38  1  0
 12 39  1  0
 34 39  1  0
 38 39  2  0
M  END
