x1375-x3124
     RDKit          3D

 41 44  0  0  0  0  0  0  0  0999 V2000
    7.1130   -1.1160   21.8560 N   0  0  0  0  0  0  0  0  0  0  0  0
    7.5350    1.8080   23.0650 N   0  0  0  0  0  0  0  0  0  0  0  0
    8.5560    1.4630   20.9060 O   0  0  0  0  0  0  0  0  0  0  0  0
    6.6560    0.1830   21.6880 C   0  0  1  0  0  0  0  0  0  0  0  0
    7.6350    1.1790   21.8720 C   0  0  0  0  0  0  0  0  0  0  0  0
    7.9500    3.0740   23.1590 C   0  0  0  0  0  0  0  0  0  0  0  0
   12.3210   -1.7460   24.1150 C   0  0  0  0  0  0  0  0  0  0  0  0
   12.7040   -0.4610   24.4910 C   0  0  0  0  0  0  0  0  0  0  0  0
   13.3530   -2.3380   23.1610 C   0  0  0  0  0  0  0  0  0  0  0  0
   12.1090   -2.4710   25.3480 C   0  0  0  0  0  0  0  0  0  0  0  0
    5.6660   -4.8300   20.0210 O   0  0  0  0  0  0  0  0  0  0  0  0
    6.5270   -4.5270   20.8640 C   0  0  0  0  0  0  0  0  0  0  0  0
    7.8250   -3.7720   20.4980 C   0  0  0  0  0  0  0  0  0  0  0  0
    6.3130   -4.8350   22.2380 N   0  0  0  0  0  0  0  0  0  0  0  0
    2.4280   -6.7100   23.9450 O   0  0  0  0  0  0  0  0  0  0  0  0
    4.4200   -7.7580   25.0080 O   0  0  0  0  0  0  0  0  0  0  0  0
   10.3150   -3.9750   26.0590 O   0  0  0  0  0  0  0  0  0  0  0  0
   11.5540   -3.8700   25.4080 C   0  0  0  0  0  0  0  0  0  0  0  0
    6.3130    0.3380   17.9340 N   0  0  0  0  0  0  0  0  0  0  0  0
    5.2270    1.1280   17.8480 C   0  0  0  0  0  0  0  0  0  0  0  0
    4.5380    1.6370   18.9300 C   0  0  0  0  0  0  0  0  0  0  0  0
    4.9960    1.3250   20.1890 C   0  0  0  0  0  0  0  0  0  0  0  0
    6.1270    0.5160   20.3320 C   0  0  0  0  0  0  0  0  0  0  0  0
    6.7460    0.0440   19.1720 C   0  0  0  0  0  0  0  0  0  0  0  0
    9.4190   -1.8480   21.7290 C   0  0  0  0  0  0  0  0  0  0  0  0
   10.6980   -2.0210   22.2150 C   0  0  0  0  0  0  0  0  0  0  0  0
   10.9620   -1.6060   23.5030 C   0  0  0  0  0  0  0  0  0  0  0  0
    9.9280   -1.0400   24.2590 C   0  0  0  0  0  0  0  0  0  0  0  0
    8.6580   -0.8810   23.7370 C   0  0  0  0  0  0  0  0  0  0  0  0
    8.3940   -1.2860   22.4430 C   0  0  0  0  0  0  0  0  0  0  0  0
    7.4800   -3.3390   23.8540 C   0  0  0  0  0  0  0  0  0  0  0  0
    8.4660   -3.1240   24.8080 C   0  0  0  0  0  0  0  0  0  0  0  0
    9.3270   -4.1260   25.1600 C   0  0  0  0  0  0  0  0  0  0  0  0
    9.2300   -5.3960   24.5710 C   0  0  0  0  0  0  0  0  0  0  0  0
    8.2300   -5.6460   23.5920 C   0  0  0  0  0  0  0  0  0  0  0  0
    7.3480   -4.6050   23.2300 C   0  0  0  0  0  0  0  0  0  0  0  0
    4.8320   -4.4790   24.0210 C   0  0  0  0  0  0  0  0  0  0  0  0
    4.9550   -5.0850   22.7560 C   0  0  2  0  0  0  0  0  0  0  0  0
    4.7560   -6.4620   22.8030 C   0  0  0  0  0  0  0  0  0  0  0  0
    3.8270   -6.6600   24.3000 S   0  0  0  0  0  0  0  0  0  0  0  0
    4.2360   -5.1940   24.9870 C   0  0  0  0  0  0  0  0  0  0  0  0
  4  1  1  6
  2  5  1  0
  3  5  2  0
  4  5  1  0
  2  6  1  0
  7  8  1  0
  7  9  1  0
  7 10  1  0
 11 12  2  0
 12 13  1  0
 12 14  1  0
 10 18  1  0
 17 18  1  0
 19 20  2  0
 20 21  1  0
 21 22  2  0
  4 23  1  0
 22 23  1  0
 19 24  1  0
 23 24  2  0
 25 26  2  0
  7 27  1  0
 26 27  1  0
 27 28  2  0
 28 29  1  0
  1 30  1  0
 25 30  1  0
 29 30  2  0
 31 32  2  0
 17 33  1  0
 32 33  1  0
 33 34  2  0
 34 35  1  0
 14 36  1  0
 31 36  1  0
 35 36  2  0
 38 14  1  1
 37 38  1  0
 38 39  1  0
 40 15  1  0
 16 40  1  0
 39 40  1  0
 37 41  2  0
 40 41  1  0
M  END
