x1375-x0678
     RDKit          3D

 37 40  0  0  0  0  0  0  0  0999 V2000
    5.6140   -4.6950   19.9770 O   0  0  0  0  0  0  0  0  0  0  0  0
    6.3940   -4.2540   20.8260 C   0  0  0  0  0  0  0  0  0  0  0  0
    7.9250   -3.9990   20.6900 C   0  0  0  0  0  0  0  0  0  0  0  0
    5.9550   -3.8910   22.0890 N   0  0  0  0  0  0  0  0  0  0  0  0
    2.6170   -6.9330   23.2450 O   0  0  0  0  0  0  0  0  0  0  0  0
    4.5250   -7.5390   24.7480 O   0  0  0  0  0  0  0  0  0  0  0  0
   10.3060   -3.9440   26.2320 F   0  0  0  0  0  0  0  0  0  0  0  0
    9.1720    1.2940   21.3680 O   0  0  0  0  0  0  0  0  0  0  0  0
    8.6460    0.2870   21.8700 C   0  0  0  0  0  0  0  0  0  0  0  0
    9.1540   -0.3440   23.0190 C   0  0  0  0  0  0  0  0  0  0  0  0
    7.4250   -0.3570   21.3580 N   0  0  0  0  0  0  0  0  0  0  0  0
    6.8310   -2.9710   22.6410 C   0  0  1  0  0  0  0  0  0  0  0  0
    6.5140   -1.7710   23.2480 C   0  0  0  0  0  0  0  0  0  0  0  0
    6.4480   -0.6840   22.3780 C   0  0  0  0  0  0  0  0  0  0  0  0
    7.7680   -3.8410   23.4250 C   0  0  0  0  0  0  0  0  0  0  0  0
    8.6780   -3.3480   24.5820 C   0  0  0  0  0  0  0  0  0  0  0  0
    9.4910   -4.2700   25.2300 C   0  0  0  0  0  0  0  0  0  0  0  0
    9.4190   -5.7110   24.7450 C   0  0  0  0  0  0  0  0  0  0  0  0
    8.5890   -6.0850   23.6970 C   0  0  0  0  0  0  0  0  0  0  0  0
    7.7990   -5.1770   23.0680 C   0  0  0  0  0  0  0  0  0  0  0  0
    4.6700   -4.2520   24.0460 C   0  0  0  0  0  0  0  0  0  0  0  0
    5.5380   -4.8380   23.1090 C   0  0  1  0  0  0  0  0  0  0  0  0
    5.0380   -6.0580   22.5830 C   0  0  0  0  0  0  0  0  0  0  0  0
    3.8960   -6.6100   23.8380 S   0  0  0  0  0  0  0  0  0  0  0  0
    3.7290   -5.1220   24.5430 C   0  0  0  0  0  0  0  0  0  0  0  0
   11.1090   -1.4570   22.3570 C   0  0  0  0  0  0  0  0  0  0  0  0
   12.4480   -1.8550   22.5280 C   0  0  0  0  0  0  0  0  0  0  0  0
   13.2360   -1.0400   23.3640 C   0  0  0  0  0  0  0  0  0  0  0  0
   12.5580   -0.3280   24.3620 C   0  0  0  0  0  0  0  0  0  0  0  0
   11.1870   -0.5190   24.3820 C   0  0  0  0  0  0  0  0  0  0  0  0
   10.6500   -0.3770   23.1140 C   0  0  0  0  0  0  0  0  0  0  0  0
    5.7050    1.0750   20.3460 C   0  0  0  0  0  0  0  0  0  0  0  0
    5.0370    1.6090   19.2370 C   0  0  0  0  0  0  0  0  0  0  0  0
    5.4430    1.2350   17.9460 C   0  0  0  0  0  0  0  0  0  0  0  0
    6.4420    0.3840   17.7410 N   0  0  0  0  0  0  0  0  0  0  0  0
    7.1080   -0.1530   18.8990 C   0  0  0  0  0  0  0  0  0  0  0  0
    6.7720    0.1700   20.1940 C   0  0  0  0  0  0  0  0  0  0  0  0
  1  2  2  0
  2  3  1  0
  2  4  1  0
  8  9  2  0
  9 10  1  0
  9 11  1  0
  4 12  1  0
 12 13  1  1
 11 14  1  0
 13 14  1  0
 12 15  1  0
 15 16  2  0
  7 17  1  0
 16 17  1  0
 17 18  2  0
 18 19  1  0
 15 20  1  0
 19 20  2  0
 22  4  1  6
 21 22  1  0
 22 23  1  0
 24  5  1  0
  6 24  1  0
 23 24  1  0
 21 25  2  0
 24 25  1  0
 26 27  1  0
 27 28  1  0
 28 29  1  0
 29 30  1  0
 10 31  1  0
 26 31  1  0
 30 31  1  0
 32 33  2  0
 33 34  1  0
 34 35  2  0
 35 36  1  0
 11 37  1  0
 32 37  1  0
 36 37  2  0
M  END
