x1374-x0107
     RDKit          3D

 32 34  0  0  0  0  0  0  0  0999 V2000
    9.6880   -5.6080   26.1820 C   0  0  0  0  0  0  0  0  0  0  0  0
    6.2840   -4.2500   21.8540 N   0  0  0  0  0  0  0  0  0  0  0  0
    6.1900   -4.3240   20.4700 C   0  0  0  0  0  0  0  0  0  0  0  0
    5.3860   -5.0910   19.9920 O   0  0  0  0  0  0  0  0  0  0  0  0
    7.1100   -3.3930   19.6180 C   0  0  0  0  0  0  0  0  0  0  0  0
    2.4650   -6.6130   23.4730 O   0  0  0  0  0  0  0  0  0  0  0  0
    4.2000   -7.9250   24.8940 O   0  0  0  0  0  0  0  0  0  0  0  0
   10.0740   -0.5830   22.1920 C   0  0  0  0  0  0  0  0  0  0  0  0
    8.9840    0.2530   21.5500 C   0  0  0  0  0  0  0  0  0  0  0  0
    9.1470    1.4420   21.2370 O   0  0  0  0  0  0  0  0  0  0  0  0
    7.7690   -0.4040   21.3430 N   0  0  0  0  0  0  0  0  0  0  0  0
    5.2110    1.2620   22.0220 C   0  0  0  0  0  0  0  0  0  0  0  0
    6.8800   -3.0670   22.3400 C   0  0  1  0  0  0  0  0  0  0  0  0
    6.2280   -1.8830   22.2820 C   0  0  0  0  0  0  0  0  0  0  0  0
    7.0380   -0.8050   22.5320 C   0  0  0  0  0  0  0  0  0  0  0  0
    8.9650   -5.1290   24.9920 C   0  0  0  0  0  0  0  0  0  0  0  0
    8.4040   -3.8520   24.8930 C   0  0  0  0  0  0  0  0  0  0  0  0
    7.5840   -3.2700   23.6540 C   0  0  0  0  0  0  0  0  0  0  0  0
    7.5680   -4.4290   22.6520 C   0  0  0  0  0  0  0  0  0  0  0  0
    8.1920   -5.7540   22.8360 C   0  0  0  0  0  0  0  0  0  0  0  0
    8.9040   -6.0480   24.0460 C   0  0  0  0  0  0  0  0  0  0  0  0
    4.9610   -4.3750   24.0400 C   0  0  0  0  0  0  0  0  0  0  0  0
    5.1520   -4.8800   22.5990 C   0  0  2  0  0  0  0  0  0  0  0  0
    5.1330   -6.4170   22.6720 C   0  0  0  0  0  0  0  0  0  0  0  0
    3.9720   -6.6270   24.0040 S   0  0  0  0  0  0  0  0  0  0  0  0
    4.3330   -5.2300   24.8660 C   0  0  0  0  0  0  0  0  0  0  0  0
    6.8900    0.0550   20.3020 C   0  0  0  0  0  0  0  0  0  0  0  0
    5.6500    0.8700   20.6450 C   0  0  0  0  0  0  0  0  0  0  0  0
    4.8070    1.3060   19.4520 C   0  0  0  0  0  0  0  0  0  0  0  0
    5.2900    0.8840   18.0880 C   0  0  0  0  0  0  0  0  0  0  0  0
    6.3930    0.1580   17.8950 N   0  0  0  0  0  0  0  0  0  0  0  0
    7.1380   -0.2310   18.9560 C   0  0  0  0  0  0  0  0  0  0  0  0
  2  3  1  0
  3  4  2  0
  3  5  1  0
  8  9  1  0
  9 10  2  0
  9 11  1  0
  2 13  1  0
 13 14  1  1
 11 15  1  0
 14 15  1  0
  1 16  1  0
 16 17  2  0
 13 18  1  0
 17 18  1  0
 18 19  2  0
 19 20  1  0
 16 21  1  0
 20 21  2  0
 23  2  1  1
 22 23  1  0
 23 24  1  0
 25  6  1  0
  7 25  1  0
 24 25  1  0
 22 26  2  0
 25 26  1  0
 11 27  1  0
 12 28  1  0
 27 28  2  0
 28 29  1  0
 29 30  2  0
 30 31  1  0
 27 32  1  0
 31 32  2  0
M  END
