x1374-x2776
     RDKit          3D

 49 53  0  0  0  0  0  0  0  0999 V2000
    7.3190   -1.0000   21.7490 N   0  0  0  0  0  0  0  0  0  0  0  0
    7.9150    2.0810   22.9660 N   0  0  0  0  0  0  0  0  0  0  0  0
    8.7700    1.5730   20.9750 O   0  0  0  0  0  0  0  0  0  0  0  0
   10.9430    6.7760   23.8390 O   0  0  0  0  0  0  0  0  0  0  0  0
    6.8330    0.2870   21.6160 C   0  0  1  0  0  0  0  0  0  0  0  0
   12.6660   -2.9650   24.1310 O   0  0  0  0  0  0  0  0  0  0  0  0
    7.9060    1.3400   21.8240 C   0  0  0  0  0  0  0  0  0  0  0  0
   10.5980    1.5900   23.9170 C   0  0  0  0  0  0  0  0  0  0  0  0
   11.7700    6.6500   24.7370 C   0  0  0  0  0  0  0  0  0  0  0  0
   12.3940   -1.7740   24.1950 C   0  0  1  0  0  0  0  0  0  0  0  0
   13.2000   -0.7910   23.3790 C   0  0  0  0  0  0  0  0  0  0  0  0
   12.8970   -3.4730   25.4080 C   0  0  0  0  0  0  0  0  0  0  0  0
   10.6440   -4.8850   25.7310 C   0  0  0  0  0  0  0  0  0  0  0  0
    6.2170   -4.2630   22.2400 N   0  0  0  0  0  0  0  0  0  0  0  0
    6.5150   -4.3070   20.8430 C   0  0  0  0  0  0  0  0  0  0  0  0
    5.6790   -4.5910   19.9620 O   0  0  0  0  0  0  0  0  0  0  0  0
    8.0160   -3.9220   20.6300 C   0  0  0  0  0  0  0  0  0  0  0  0
    2.5480   -7.6330   22.9010 O   0  0  0  0  0  0  0  0  0  0  0  0
    4.1890   -7.6880   24.9450 O   0  0  0  0  0  0  0  0  0  0  0  0
   11.5570   -3.8960   26.0470 C   0  0  0  0  0  0  0  0  0  0  0  0
    6.3510    0.3670   17.8750 N   0  0  0  0  0  0  0  0  0  0  0  0
    5.2480    1.1380   17.8170 C   0  0  0  0  0  0  0  0  0  0  0  0
    4.5830    1.6650   18.9200 C   0  0  0  0  0  0  0  0  0  0  0  0
    5.0800    1.3960   20.1790 C   0  0  0  0  0  0  0  0  0  0  0  0
    6.2140    0.6130   20.2770 C   0  0  0  0  0  0  0  0  0  0  0  0
    6.8040    0.1250   19.1230 C   0  0  0  0  0  0  0  0  0  0  0  0
    9.9680    3.1560   23.6250 C   0  0  0  0  0  0  0  0  0  0  0  0
   10.7330    4.4720   23.8400 C   0  0  0  0  0  0  0  0  0  0  0  0
   10.1350    5.6980   23.5820 C   0  0  0  0  0  0  0  0  0  0  0  0
    8.8160    5.7390   23.1040 C   0  0  0  0  0  0  0  0  0  0  0  0
    8.0820    4.5510   22.8930 C   0  0  0  0  0  0  0  0  0  0  0  0
    8.6470    3.2780   23.1560 C   0  0  0  0  0  0  0  0  0  0  0  0
    9.6040   -1.8240   21.8020 C   0  0  0  0  0  0  0  0  0  0  0  0
   10.8200   -2.0180   22.3680 C   0  0  0  0  0  0  0  0  0  0  0  0
   11.0370   -1.5770   23.6450 C   0  0  0  0  0  0  0  0  0  0  0  0
   10.0240   -0.9570   24.3620 C   0  0  0  0  0  0  0  0  0  0  0  0
    8.7880   -0.7640   23.7660 C   0  0  0  0  0  0  0  0  0  0  0  0
    8.5660   -1.1920   22.4590 C   0  0  0  0  0  0  0  0  0  0  0  0
    9.5240   -4.5970   24.8180 C   0  0  0  0  0  0  0  0  0  0  0  0
    8.9850   -3.3350   24.5800 C   0  0  0  0  0  0  0  0  0  0  0  0
    7.9000   -3.1800   23.7230 C   0  0  0  0  0  0  0  0  0  0  0  0
    7.3440   -4.2860   23.0960 C   0  0  0  0  0  0  0  0  0  0  0  0
    7.9130   -5.5350   23.3380 C   0  0  0  0  0  0  0  0  0  0  0  0
    8.9850   -5.6780   24.1850 C   0  0  0  0  0  0  0  0  0  0  0  0
    4.0820   -4.4270   23.6210 C   0  0  0  0  0  0  0  0  0  0  0  0
    5.2600   -5.0930   22.9680 C   0  0  1  0  0  0  0  0  0  0  0  0
    4.9850   -6.5290   22.5760 C   0  0  0  0  0  0  0  0  0  0  0  0
    3.6460   -6.8390   23.7120 S   0  0  0  0  0  0  0  0  0  0  0  0
    3.1570   -5.2730   24.0870 C   0  0  0  0  0  0  0  0  0  0  0  0
  5  1  1  6
  2  7  1  0
  3  7  2  0
  5  7  1  0
  4  9  1  0
  6 10  1  0
 10 11  1  6
  6 12  1  0
 14 15  1  0
 15 16  2  0
 15 17  1  0
 12 20  1  0
 13 20  1  0
 21 22  2  0
 22 23  1  0
 23 24  2  0
  5 25  1  0
 24 25  1  0
 21 26  1  0
 25 26  2  0
  8 27  1  0
 27 28  2  0
  4 29  1  0
 28 29  1  0
 29 30  2  0
 30 31  1  0
  2 32  1  0
 27 32  1  0
 31 32  2  0
 33 34  2  0
 10 35  1  0
 34 35  1  0
 35 36  2  0
 36 37  1  0
  1 38  1  0
 33 38  1  0
 37 38  2  0
 13 39  1  0
 39 40  2  0
 40 41  1  0
 14 42  1  0
 41 42  2  0
 42 43  1  0
 39 44  1  0
 43 44  2  0
 46 14  1  6
 45 46  1  0
 46 47  1  0
 48 18  1  0
 19 48  1  0
 47 48  1  0
 45 49  2  0
 48 49  1  0
M  END
