x1374-x1384
     RDKit          3D

 25 27  0  0  0  0  0  0  0  0999 V2000
   10.6680   -4.2410   25.9160 C   0  0  0  0  0  0  0  0  0  0  0  0
    6.5620   -4.6520   21.9750 N   0  0  0  0  0  0  0  0  0  0  0  0
    6.6480   -4.2240   20.6470 C   0  0  0  0  0  0  0  0  0  0  0  0
    5.6750   -4.3320   19.8780 O   0  0  0  0  0  0  0  0  0  0  0  0
    8.0190   -3.6340   20.2850 C   0  0  0  0  0  0  0  0  0  0  0  0
    2.3950   -6.7580   23.3190 O   0  0  0  0  0  0  0  0  0  0  0  0
    4.2100   -7.8600   24.8870 O   0  0  0  0  0  0  0  0  0  0  0  0
    9.6110   -4.3310   24.8780 C   0  0  0  0  0  0  0  0  0  0  0  0
    9.1220   -3.1120   24.1510 C   0  0  0  0  0  0  0  0  0  0  0  0
    8.1210   -3.2590   23.1990 C   0  0  0  0  0  0  0  0  0  0  0  0
    7.5860   -4.5210   22.9290 C   0  0  0  0  0  0  0  0  0  0  0  0
    8.0480   -5.6570   23.5990 C   0  0  0  0  0  0  0  0  0  0  0  0
    9.0520   -5.5590   24.5650 C   0  0  0  0  0  0  0  0  0  0  0  0
    4.9590   -4.4800   23.6350 C   0  0  0  0  0  0  0  0  0  0  0  0
    5.2660   -5.0880   22.4360 C   0  0  2  0  0  0  0  0  0  0  0  0
    5.0420   -6.5910   22.5620 C   0  0  0  0  0  0  0  0  0  0  0  0
    3.8830   -6.6620   23.8910 S   0  0  0  0  0  0  0  0  0  0  0  0
    4.2410   -5.1620   24.5190 C   0  0  0  0  0  0  0  0  0  0  0  0
    5.3400   -2.2490   26.3590 O   0  0  0  0  0  0  0  0  0  0  0  0
    1.8360   -3.2370   26.1100 C   0  0  0  0  0  0  0  0  0  0  0  0
    3.2470   -3.3030   25.7270 N   0  0  0  0  0  0  0  0  0  0  0  0
    3.9590   -2.0960   26.1070 C   0  0  1  0  0  0  0  0  0  0  0  0
    3.2130   -1.7220   27.3680 C   0  0  0  0  0  0  0  0  0  0  0  0
    1.7560   -2.2300   27.2430 C   0  0  0  0  0  0  0  0  0  0  0  0
    3.8480   -4.6030   25.8120 C   0  0  0  0  0  0  0  0  0  0  0  0
  2  3  1  0
  3  4  2  0
  3  5  1  0
  1  8  1  0
  8  9  2  0
  9 10  1  0
  2 11  1  0
 10 11  2  0
 11 12  1  0
  8 13  1  0
 12 13  2  0
 15  2  1  1
 14 15  1  0
 15 16  1  0
 17  6  1  0
  7 17  1  0
 16 17  1  0
 14 18  2  0
 17 18  1  0
 20 21  1  0
 22 19  1  1
 21 22  1  0
 22 23  1  0
 20 24  1  0
 23 24  1  0
 18 25  1  0
 21 25  1  0
M  END
