x1375-x2600
     RDKit          3D

 39 42  0  0  0  0  0  0  0  0999 V2000
    5.8350   -4.9170   20.0770 O   0  0  0  0  0  0  0  0  0  0  0  0
    6.6420   -4.4660   20.9410 C   0  0  0  0  0  0  0  0  0  0  0  0
    8.0850   -4.0050   20.6650 C   0  0  0  0  0  0  0  0  0  0  0  0
    6.2680   -4.2060   22.4700 C   0  0  2  0  0  0  0  0  0  0  0  0
    2.4060   -7.2870   23.3740 O   0  0  0  0  0  0  0  0  0  0  0  0
    4.4050   -7.7080   24.7800 O   0  0  0  0  0  0  0  0  0  0  0  0
   10.9000   -4.5550   25.8500 F   0  0  0  0  0  0  0  0  0  0  0  0
   13.8860   -1.7470   20.5270 N   0  0  0  0  0  0  0  0  0  0  0  0
    8.3940    0.5720   21.7960 C   0  0  0  0  0  0  0  0  0  0  0  0
    9.0520    1.5050   21.2930 O   0  0  0  0  0  0  0  0  0  0  0  0
    8.6780    0.1480   23.1160 C   0  0  0  0  0  0  0  0  0  0  0  0
    7.2930   -0.1430   21.1280 N   0  0  0  0  0  0  0  0  0  0  0  0
   13.0690   -1.4170   21.6100 C   0  0  0  0  0  0  0  0  0  0  0  0
    5.5810   -2.8620   22.5950 C   0  0  0  0  0  0  0  0  0  0  0  0
    5.7700   -2.0150   21.5170 C   0  0  0  0  0  0  0  0  0  0  0  0
    7.2120   -1.5730   21.2390 C   0  0  0  0  0  0  0  0  0  0  0  0
    8.0350   -3.1170   23.9090 C   0  0  0  0  0  0  0  0  0  0  0  0
    9.2670   -3.1740   24.8260 C   0  0  0  0  0  0  0  0  0  0  0  0
    9.8370   -4.4230   25.0570 C   0  0  0  0  0  0  0  0  0  0  0  0
    9.2510   -5.5180   24.4300 C   0  0  0  0  0  0  0  0  0  0  0  0
    8.1330   -5.4800   23.5910 C   0  0  0  0  0  0  0  0  0  0  0  0
    7.5030   -4.2580   23.3280 C   0  0  0  0  0  0  0  0  0  0  0  0
    4.5840   -4.5630   24.2200 C   0  0  0  0  0  0  0  0  0  0  0  0
    5.3800   -5.2510   23.2900 C   0  0  1  0  0  0  0  0  0  0  0  0
    4.7610   -6.2750   22.6260 C   0  0  0  0  0  0  0  0  0  0  0  0
    3.6650   -6.8290   23.9100 S   0  0  0  0  0  0  0  0  0  0  0  0
    3.5600   -5.2550   24.7170 C   0  0  0  0  0  0  0  0  0  0  0  0
    6.2620    0.5960   17.6920 N   0  0  0  0  0  0  0  0  0  0  0  0
    6.9110    0.1040   18.7680 C   0  0  0  0  0  0  0  0  0  0  0  0
    6.5770    0.4010   20.0730 C   0  0  0  0  0  0  0  0  0  0  0  0
    5.4930    1.2550   20.2960 C   0  0  0  0  0  0  0  0  0  0  0  0
    4.8050    1.7720   19.2010 C   0  0  0  0  0  0  0  0  0  0  0  0
    5.2260    1.4190   17.9310 C   0  0  0  0  0  0  0  0  0  0  0  0
   10.6850   -0.0270   24.6300 C   0  0  0  0  0  0  0  0  0  0  0  0
   12.0510   -0.3410   24.8790 C   0  0  0  0  0  0  0  0  0  0  0  0
   12.8300   -0.8080   23.8440 C   0  0  0  0  0  0  0  0  0  0  0  0
   12.2700   -0.9610   22.6180 C   0  0  0  0  0  0  0  0  0  0  0  0
   10.9330   -0.6680   22.3520 C   0  0  0  0  0  0  0  0  0  0  0  0
   10.1310   -0.1920   23.3610 C   0  0  0  0  0  0  0  0  0  0  0  0
  1  2  2  0
  2  3  1  0
  4  2  1  0
  9 10  2  0
  9 11  1  0
  9 12  1  0
  8 13  3  0
  4 14  1  6
 14 15  1  0
 12 16  1  0
 15 16  1  0
 17 18  2  0
  7 19  1  0
 18 19  1  0
 19 20  2  0
 20 21  1  0
  4 22  1  0
 17 22  1  0
 21 22  2  0
  4 24  1  0
 24 23  1  6
 24 25  1  0
 26  5  1  0
  6 26  1  0
 25 26  1  0
 23 27  2  0
 26 27  1  0
 28 29  2  0
 12 30  1  0
 29 30  1  0
 30 31  2  0
 31 32  1  0
 28 33  1  0
 32 33  2  0
 34 35  2  0
 35 36  1  0
 13 37  1  0
 36 37  2  0
 37 38  1  0
 11 39  1  0
 34 39  1  0
 38 39  2  0
M  END
