x1375-x0397
     RDKit          3D

 26 28  0  0  0  0  0  0  0  0999 V2000
    5.4170   -4.8170   20.0220 O   0  0  0  0  0  0  0  0  0  0  0  0
    6.2400   -4.1690   20.6900 C   0  0  0  0  0  0  0  0  0  0  0  0
    7.2130   -3.2250   19.8800 C   0  0  2  0  0  0  0  0  0  0  0  0
    6.2610   -4.3090   22.1320 N   0  0  0  0  0  0  0  0  0  0  0  0
    2.7400   -7.3350   23.0500 O   0  0  0  0  0  0  0  0  0  0  0  0
    4.4490   -7.5520   24.7800 O   0  0  0  0  0  0  0  0  0  0  0  0
   11.1100   -4.2470   24.9590 F   0  0  0  0  0  0  0  0  0  0  0  0
    7.8710   -2.1730   20.8170 C   0  0  0  0  0  0  0  0  0  0  0  0
    6.5540   -2.4270   18.6870 C   0  0  0  0  0  0  0  0  0  0  0  0
    4.1030    2.0000   19.6720 C   0  0  0  0  0  0  0  0  0  0  0  0
    8.2330   -3.0870   23.0950 C   0  0  0  0  0  0  0  0  0  0  0  0
    9.4190   -3.1520   23.7990 C   0  0  0  0  0  0  0  0  0  0  0  0
    9.9630   -4.3090   24.3100 C   0  0  0  0  0  0  0  0  0  0  0  0
    9.2150   -5.6180   24.1090 C   0  0  0  0  0  0  0  0  0  0  0  0
    8.0370   -5.6230   23.4080 C   0  0  0  0  0  0  0  0  0  0  0  0
    7.5180   -4.2680   22.8640 C   0  0  0  0  0  0  0  0  0  0  0  0
    4.4440   -4.3730   23.7430 C   0  0  0  0  0  0  0  0  0  0  0  0
    5.4090   -5.0520   23.0050 C   0  0  1  0  0  0  0  0  0  0  0  0
    5.0520   -6.3190   22.5680 C   0  0  0  0  0  0  0  0  0  0  0  0
    3.8180   -6.7270   23.7790 S   0  0  0  0  0  0  0  0  0  0  0  0
    3.4860   -5.1570   24.2740 C   0  0  0  0  0  0  0  0  0  0  0  0
    5.0730   -0.4450   19.5660 C   0  0  0  0  0  0  0  0  0  0  0  0
    6.0700   -0.9470   18.7120 C   0  0  0  0  0  0  0  0  0  0  0  0
    6.5390    0.0150   17.8960 N   0  0  0  0  0  0  0  0  0  0  0  0
    5.8660    1.1740   18.1840 O   0  0  0  0  0  0  0  0  0  0  0  0
    4.9480    0.8850   19.2190 C   0  0  0  0  0  0  0  0  0  0  0  0
  1  2  2  0
  3  2  1  0
  2  4  1  0
  3  8  1  1
  3  9  1  0
 11 12  2  0
  7 13  1  0
 12 13  1  0
 13 14  2  0
 14 15  1  0
  4 16  1  0
 11 16  1  0
 15 16  2  0
 18  4  1  6
 17 18  1  0
 18 19  1  0
 20  5  1  0
  6 20  1  0
 19 20  1  0
 17 21  2  0
 20 21  1  0
  9 23  1  0
 22 23  1  0
 23 24  2  0
 24 25  1  0
 10 26  1  0
 22 26  2  0
 25 26  1  0
M  END
