x1375-x3080
     RDKit          3D

 43 47  0  0  0  0  0  0  0  0999 V2000
   10.1570   -0.4520   23.2040 N   0  0  0  0  0  0  0  0  0  0  0  0
   10.9840    0.7470   23.3490 C   0  0  0  0  0  0  0  0  0  0  0  0
    8.9790    1.4490   21.2350 O   0  0  0  0  0  0  0  0  0  0  0  0
    9.7940   -0.8610   21.8730 C   0  0  0  0  0  0  0  0  0  0  0  0
    7.5780   -0.5920   20.7950 N   0  0  0  0  0  0  0  0  0  0  0  0
    7.8910   -1.0470   23.7120 O   0  0  0  0  0  0  0  0  0  0  0  0
    8.7740    0.0890   21.2910 C   0  0  0  0  0  0  0  0  0  0  0  0
    9.2940    0.2220   25.3620 O   0  0  0  0  0  0  0  0  0  0  0  0
    5.1940    0.8850   21.7180 C   0  0  0  0  0  0  0  0  0  0  0  0
    9.2270   -0.9100   24.2390 S   0  0  0  0  0  0  0  0  0  0  0  0
    5.4260   -5.4060   20.0440 O   0  0  0  0  0  0  0  0  0  0  0  0
    5.8960   -4.4890   20.6850 C   0  0  0  0  0  0  0  0  0  0  0  0
    6.9240   -3.4750   20.0090 C   0  0  0  0  0  0  0  0  0  0  0  0
    5.4930   -4.2980   22.0810 N   0  0  0  0  0  0  0  0  0  0  0  0
    2.0560   -7.1190   24.3370 O   0  0  0  0  0  0  0  0  0  0  0  0
    4.5130   -7.8890   24.4690 O   0  0  0  0  0  0  0  0  0  0  0  0
    6.2380    0.6170   17.6160 N   0  0  0  0  0  0  0  0  0  0  0  0
    5.1610    1.3090   18.0190 C   0  0  0  0  0  0  0  0  0  0  0  0
    4.8220    1.3880   19.3750 C   0  0  0  0  0  0  0  0  0  0  0  0
    5.5520    0.7850   20.3780 C   0  0  0  0  0  0  0  0  0  0  0  0
    6.6530    0.0950   19.9350 C   0  0  0  0  0  0  0  0  0  0  0  0
    6.9560    0.0260   18.5940 C   0  0  0  0  0  0  0  0  0  0  0  0
   11.8620   -1.2670   25.0930 N   0  0  0  0  0  0  0  0  0  0  0  0
   11.1920   -2.3960   25.1910 C   0  0  0  0  0  0  0  0  0  0  0  0
   11.7540   -3.5790   25.6600 C   0  0  0  0  0  0  0  0  0  0  0  0
   13.1830   -3.5820   26.0600 C   0  0  0  0  0  0  0  0  0  0  0  0
   13.8810   -2.3140   25.8910 C   0  0  0  0  0  0  0  0  0  0  0  0
   13.1370   -1.2120   25.4020 C   0  0  0  0  0  0  0  0  0  0  0  0
    9.3860   -3.5750   24.7220 C   0  0  0  0  0  0  0  0  0  0  0  0
    9.8880   -4.6840   25.2300 C   0  0  0  0  0  0  0  0  0  0  0  0
   11.0360   -4.6810   25.7170 C   0  0  0  0  0  0  0  0  0  0  0  0
    9.9160   -2.4160   24.7660 C   0  0  0  0  0  0  0  0  0  0  0  0
    7.2300   -3.4780   23.5200 C   0  0  0  0  0  0  0  0  0  0  0  0
    8.3990   -4.0080   24.1240 C   0  0  0  0  0  0  0  0  0  0  0  0
    8.8080   -5.3040   24.0670 C   0  0  0  0  0  0  0  0  0  0  0  0
    8.1380   -6.2250   23.3920 C   0  0  0  0  0  0  0  0  0  0  0  0
    7.0340   -5.8260   22.7540 C   0  0  0  0  0  0  0  0  0  0  0  0
    6.6010   -4.4930   22.8120 C   0  0  0  0  0  0  0  0  0  0  0  0
    4.5080   -4.5140   24.2540 C   0  0  0  0  0  0  0  0  0  0  0  0
    4.7200   -5.1420   23.0260 C   0  0  1  0  0  0  0  0  0  0  0  0
    3.7740   -6.0530   22.6710 C   0  0  0  0  0  0  0  0  0  0  0  0
    3.5030   -6.6960   24.2810 S   0  0  0  0  0  0  0  0  0  0  0  0
    3.8300   -5.2790   25.1220 C   0  0  0  0  0  0  0  0  0  0  0  0
  1  2  1  0
  1  4  1  0
  3  7  2  0
  4  7  1  0
  5  7  1  0
 10  1  1  0
  6 10  2  0
  8 10  2  0
 11 12  2  0
 12 13  1  0
 12 14  1  0
 17 18  2  0
 18 19  1  0
  9 20  1  0
 19 20  2  0
  5 21  1  0
 20 21  1  0
 17 22  1  0
 21 22  2  0
 23 24  2  0
 24 25  1  0
 25 26  2  0
 26 27  1  0
 23 28  1  0
 27 28  2  0
 29 30  1  0
 25 31  1  0
 30 31  2  0
 10 32  1  0
 24 32  1  0
 29 32  2  0
 29 34  1  0
 33 34  2  0
 34 35  1  0
 35 36  2  0
 36 37  1  0
 14 38  1  0
 33 38  1  0
 37 38  2  0
 40 14  1  6
 39 40  1  0
 40 41  1  0
 42 15  1  0
 16 42  1  0
 41 42  1  0
 39 43  2  0
 42 43  1  0
M  END
