x1374-x0161
     RDKit          3D

 34 36  0  0  0  0  0  0  0  0999 V2000
   10.4100   -3.8150   25.9650 C   0  0  0  0  0  0  0  0  0  0  0  0
    6.4420   -4.9530   22.0220 N   0  0  0  0  0  0  0  0  0  0  0  0
    6.5610   -4.4060   20.7300 C   0  0  0  0  0  0  0  0  0  0  0  0
    5.6220   -4.4610   19.9180 O   0  0  0  0  0  0  0  0  0  0  0  0
    7.9420   -3.7220   20.4460 C   0  0  0  0  0  0  0  0  0  0  0  0
    2.3440   -6.7070   23.7090 O   0  0  0  0  0  0  0  0  0  0  0  0
    4.3030   -7.9250   24.9360 O   0  0  0  0  0  0  0  0  0  0  0  0
   13.1000   -1.9630   23.9480 C   0  0  0  0  0  0  0  0  0  0  0  0
   13.4110   -0.7900   23.9730 O   0  0  0  0  0  0  0  0  0  0  0  0
   13.1330   -0.2120   22.9590 C   0  0  0  0  0  0  0  0  0  0  0  0
   13.4390   -0.6250   21.8640 O   0  0  0  0  0  0  0  0  0  0  0  0
   10.2270    5.2280   23.7620 S   0  0  0  0  0  0  0  0  0  0  0  0
   11.1430    6.2080   23.2280 O   0  0  0  0  0  0  0  0  0  0  0  0
    9.6440    5.3790   25.0730 O   0  0  0  0  0  0  0  0  0  0  0  0
    8.9240    5.1010   22.7160 N   0  0  0  0  0  0  0  0  0  0  0  0
   11.6940   -3.6950   25.2550 C   0  0  0  0  0  0  0  0  0  0  0  0
   12.3580   -2.3540   25.1320 C   0  0  0  0  0  0  0  0  0  0  0  0
    9.3860   -4.1240   24.9640 C   0  0  0  0  0  0  0  0  0  0  0  0
    8.7660   -2.9470   24.2410 C   0  0  0  0  0  0  0  0  0  0  0  0
    7.7210   -3.2890   23.2030 C   0  0  0  0  0  0  0  0  0  0  0  0
    7.3920   -4.6160   22.9700 C   0  0  0  0  0  0  0  0  0  0  0  0
    8.0180   -5.6360   23.6850 C   0  0  0  0  0  0  0  0  0  0  0  0
    8.9950   -5.4280   24.6660 C   0  0  0  0  0  0  0  0  0  0  0  0
    5.0950   -4.4860   23.7710 C   0  0  0  0  0  0  0  0  0  0  0  0
    5.1450   -5.1160   22.5260 C   0  0  2  0  0  0  0  0  0  0  0  0
    4.8780   -6.4810   22.6260 C   0  0  0  0  0  0  0  0  0  0  0  0
    3.8890   -6.6490   24.1000 S   0  0  0  0  0  0  0  0  0  0  0  0
    4.3720   -5.2410   24.8430 C   0  0  0  0  0  0  0  0  0  0  0  0
   12.3820    1.0730   23.1940 C   0  0  0  0  0  0  0  0  0  0  0  0
   12.8850    2.3200   22.8660 C   0  0  0  0  0  0  0  0  0  0  0  0
   12.2510    3.5490   23.0280 C   0  0  0  0  0  0  0  0  0  0  0  0
   10.9840    3.6190   23.5810 C   0  0  0  0  0  0  0  0  0  0  0  0
   10.3390    2.4200   23.9810 C   0  0  0  0  0  0  0  0  0  0  0  0
   10.9720    1.1610   23.8150 C   0  0  0  0  0  0  0  0  0  0  0  0
  2  3  1  0
  3  4  2  0
  3  5  1  0
  8  9  1  0
  9 10  1  0
 10 11  2  0
 12 13  2  0
 12 14  2  0
 12 15  1  0
  1 16  1  0
  8 17  1  0
 16 17  1  0
  1 18  1  0
 18 19  2  0
 19 20  1  0
  2 21  1  0
 20 21  2  0
 21 22  1  0
 18 23  1  0
 22 23  2  0
 25  2  1  1
 24 25  1  0
 25 26  1  0
 27  6  1  0
  7 27  1  0
 26 27  1  0
 24 28  2  0
 27 28  1  0
 10 29  1  0
 29 30  2  0
 30 31  1  0
 12 32  1  0
 31 32  2  0
 32 33  1  0
 29 34  1  0
 33 34  2  0
M  END
