x1375-x1384
     RDKit          3D

 22 24  0  0  0  0  0  0  0  0999 V2000
    5.5770   -5.1450   20.0820 O   0  0  0  0  0  0  0  0  0  0  0  0
    6.2420   -4.3210   20.7300 C   0  0  0  0  0  0  0  0  0  0  0  0
    7.1430   -3.3690   19.8980 C   0  0  0  0  0  0  0  0  0  0  0  0
    6.0920   -4.2110   22.1610 N   0  0  0  0  0  0  0  0  0  0  0  0
    2.5480   -6.7100   24.4010 O   0  0  0  0  0  0  0  0  0  0  0  0
    4.8000   -7.1170   25.4420 O   0  0  0  0  0  0  0  0  0  0  0  0
   10.4920   -5.0140   25.5450 F   0  0  0  0  0  0  0  0  0  0  0  0
    4.9930   -3.6980   26.8320 O   0  0  0  0  0  0  0  0  0  0  0  0
    7.8540   -3.2830   23.7300 C   0  0  0  0  0  0  0  0  0  0  0  0
    8.9490   -3.4580   24.5830 C   0  0  0  0  0  0  0  0  0  0  0  0
    9.4720   -4.7560   24.7550 C   0  0  0  0  0  0  0  0  0  0  0  0
    8.8820   -5.8120   24.0560 C   0  0  0  0  0  0  0  0  0  0  0  0
    7.7960   -5.5970   23.2190 C   0  0  0  0  0  0  0  0  0  0  0  0
    7.2640   -4.3370   23.0460 C   0  0  0  0  0  0  0  0  0  0  0  0
    4.4750   -3.7600   23.9990 C   0  0  0  0  0  0  0  0  0  0  0  0
    4.7850   -4.5360   22.8310 C   0  0  2  0  0  0  0  0  0  0  0  0
    4.6800   -6.1080   22.9890 C   0  0  0  0  0  0  0  0  0  0  0  0
    3.9420   -6.3460   24.5960 S   0  0  0  0  0  0  0  0  0  0  0  0
    4.0350   -4.6310   25.0390 C   0  0  0  0  0  0  0  0  0  0  0  0
    3.7520   -3.8910   26.1690 C   0  0  2  0  0  0  0  0  0  0  0  0
    3.5030   -2.5800   25.7220 C   0  0  0  0  0  0  0  0  0  0  0  0
    4.3680   -2.3640   24.5850 C   0  0  0  0  0  0  0  0  0  0  0  0
  1  2  2  0
  2  3  1  0
  2  4  1  0
  9 10  2  0
  7 11  1  0
 10 11  1  0
 11 12  2  0
 12 13  1  0
  4 14  1  0
  9 14  1  0
 13 14  2  0
 16  4  1  1
 15 16  1  0
 16 17  1  0
 18  5  1  0
  6 18  1  0
 17 18  1  0
 15 19  2  0
 18 19  1  0
 20  8  1  1
 19 20  1  0
 20 21  1  0
 15 22  1  0
 21 22  1  0
M  END
