x1374-x2562
     RDKit          3D

 42 46  0  0  0  0  0  0  0  0999 V2000
   11.1690   -3.5540   25.1150 C   0  0  0  0  0  0  0  0  0  0  0  0
    5.8610   -3.8460   21.7270 N   0  0  0  0  0  0  0  0  0  0  0  0
    6.0980   -4.3090   20.4250 C   0  0  0  0  0  0  0  0  0  0  0  0
    5.5560   -5.3160   20.0250 O   0  0  0  0  0  0  0  0  0  0  0  0
    7.0600   -3.4510   19.4940 C   0  0  0  0  0  0  0  0  0  0  0  0
    2.4510   -6.9750   22.9770 O   0  0  0  0  0  0  0  0  0  0  0  0
    4.3440   -7.6950   24.7420 O   0  0  0  0  0  0  0  0  0  0  0  0
    8.4300    0.0870   21.4290 C   0  0  0  0  0  0  0  0  0  0  0  0
    8.5490    1.3070   21.1500 O   0  0  0  0  0  0  0  0  0  0  0  0
    7.2150   -0.7160   20.9860 C   0  0  1  0  0  0  0  0  0  0  0  0
   12.0950    2.9190   23.1760 O   0  0  0  0  0  0  0  0  0  0  0  0
    9.3410   -0.6680   22.1100 N   0  0  0  0  0  0  0  0  0  0  0  0
   13.4240    6.8990   22.1850 O   0  0  0  0  0  0  0  0  0  0  0  0
    6.8730   -2.9610   21.9980 C   0  0  1  0  0  0  0  0  0  0  0  0
    6.5730   -1.4780   22.1770 C   0  0  0  0  0  0  0  0  0  0  0  0
    9.9460   -4.0270   24.4300 C   0  0  0  0  0  0  0  0  0  0  0  0
    9.1140   -3.0530   23.6210 C   0  0  0  0  0  0  0  0  0  0  0  0
    7.8940   -3.6160   22.9080 C   0  0  0  0  0  0  0  0  0  0  0  0
    7.6320   -4.9640   23.0550 C   0  0  0  0  0  0  0  0  0  0  0  0
    8.4170   -5.7930   23.8130 C   0  0  0  0  0  0  0  0  0  0  0  0
    9.5450   -5.3580   24.4940 C   0  0  0  0  0  0  0  0  0  0  0  0
    4.8200   -4.1940   23.7680 C   0  0  0  0  0  0  0  0  0  0  0  0
    5.5800   -4.8160   22.7700 C   0  0  1  0  0  0  0  0  0  0  0  0
    5.1400   -6.1250   22.4550 C   0  0  0  0  0  0  0  0  0  0  0  0
    3.8460   -6.6300   23.6610 S   0  0  0  0  0  0  0  0  0  0  0  0
    3.7630   -5.0380   24.4400 C   0  0  0  0  0  0  0  0  0  0  0  0
    4.5160    1.5360   19.4490 N   0  0  0  0  0  0  0  0  0  0  0  0
    5.0600    1.3710   18.0870 C   0  0  0  0  0  0  0  0  0  0  0  0
    6.1030    0.6530   17.6720 N   0  0  0  0  0  0  0  0  0  0  0  0
    6.7560   -0.0030   18.6450 C   0  0  0  0  0  0  0  0  0  0  0  0
    6.4100    0.0290   19.9900 C   0  0  0  0  0  0  0  0  0  0  0  0
    5.3050    0.7760   20.4090 C   0  0  0  0  0  0  0  0  0  0  0  0
   12.6720    4.7400   21.6650 N   0  0  0  0  0  0  0  0  0  0  0  0
   12.6610    5.7780   22.5650 C   0  0  1  0  0  0  0  0  0  0  0  0
   13.3160    4.9060   23.3600 C   0  0  0  0  0  0  0  0  0  0  0  0
   13.1450    3.7630   22.7000 C   0  0  1  0  0  0  0  0  0  0  0  0
   11.6970   -1.1220   22.3330 C   0  0  0  0  0  0  0  0  0  0  0  0
   12.9780   -0.6490   22.5810 C   0  0  0  0  0  0  0  0  0  0  0  0
   13.1680    0.7020   22.8620 C   0  0  0  0  0  0  0  0  0  0  0  0
   12.0910    1.5770   22.9080 C   0  0  0  0  0  0  0  0  0  0  0  0
   10.8320    1.1090   22.6660 C   0  0  0  0  0  0  0  0  0  0  0  0
   10.6230   -0.2230   22.3730 C   0  0  0  0  0  0  0  0  0  0  0  0
  2  3  1  0
  3  4  2  0
  3  5  1  0
  8  9  2  0
  8 10  1  0
  8 12  1  0
  2 14  1  0
 10 15  1  1
 14 15  1  1
  1 16  1  0
 16 17  2  0
 14 18  1  0
 17 18  1  0
 18 19  2  0
 19 20  1  0
 16 21  1  0
 20 21  2  0
 23  2  1  6
 22 23  1  0
 23 24  1  0
 25  6  1  0
  7 25  1  0
 24 25  1  0
 22 26  2  0
 25 26  1  0
 27 28  2  0
 28 29  1  0
 29 30  2  0
 10 31  1  0
 30 31  1  0
 27 32  1  0
 31 32  2  0
 34 13  1  6
 33 34  1  0
 34 35  1  0
 36 11  1  1
 33 36  1  0
 35 36  1  0
 37 38  2  0
 38 39  1  0
 11 40  1  0
 39 40  2  0
 40 41  1  0
 12 42  1  0
 37 42  1  0
 41 42  2  0
M  END
