x1374-x3117
     RDKit          3D

 46 50  0  0  0  0  0  0  0  0999 V2000
    7.1720   -1.0200   21.8120 N   0  0  0  0  0  0  0  0  0  0  0  0
    7.9310    2.1770   22.9050 N   0  0  0  0  0  0  0  0  0  0  0  0
    8.8440    1.4120   21.0380 O   0  0  0  0  0  0  0  0  0  0  0  0
    6.8060    0.3020   21.6890 C   0  0  1  0  0  0  0  0  0  0  0  0
    7.9250    1.3110   21.8540 C   0  0  0  0  0  0  0  0  0  0  0  0
   12.2910   -1.7320   24.1890 C   0  0  0  0  0  0  0  0  0  0  0  0
   12.6230   -0.7240   25.2160 C   0  0  0  0  0  0  0  0  0  0  0  0
   13.2980   -1.5980   23.0760 C   0  0  0  0  0  0  0  0  0  0  0  0
   12.3420   -3.1750   24.6310 C   0  0  0  0  0  0  0  0  0  0  0  0
   10.4780   -4.7880   25.7140 C   0  0  0  0  0  0  0  0  0  0  0  0
    6.1490   -4.3600   22.0770 N   0  0  0  0  0  0  0  0  0  0  0  0
    6.2530   -4.3840   20.6480 C   0  0  0  0  0  0  0  0  0  0  0  0
    5.5370   -5.1560   20.0260 O   0  0  0  0  0  0  0  0  0  0  0  0
    7.1820   -3.4030   19.8620 C   0  0  0  0  0  0  0  0  0  0  0  0
    2.3020   -6.7940   23.4970 O   0  0  0  0  0  0  0  0  0  0  0  0
    4.2720   -7.8310   24.8860 O   0  0  0  0  0  0  0  0  0  0  0  0
   11.4910   -3.6360   25.8120 C   0  0  0  0  0  0  0  0  0  0  0  0
    6.2760    0.2600   17.8820 N   0  0  0  0  0  0  0  0  0  0  0  0
    5.1460    1.1080   17.8260 C   0  0  0  0  0  0  0  0  0  0  0  0
    4.5720    1.6560   18.9700 C   0  0  0  0  0  0  0  0  0  0  0  0
    5.1180    1.3790   20.2180 C   0  0  0  0  0  0  0  0  0  0  0  0
    6.2280    0.5630   20.3400 C   0  0  0  0  0  0  0  0  0  0  0  0
    6.8100   -0.0000   19.2240 C   0  0  0  0  0  0  0  0  0  0  0  0
    9.8600    5.4110   24.2380 O   0  0  0  0  0  0  0  0  0  0  0  0
   10.7590    4.3890   23.8470 C   0  0  0  0  0  0  0  0  0  0  0  0
    9.9940    3.0880   23.8930 C   0  0  0  0  0  0  0  0  0  0  0  0
    8.8130    3.2770   22.9120 C   0  0  0  0  0  0  0  0  0  0  0  0
    8.0800    4.4650   23.1360 C   0  0  0  0  0  0  0  0  0  0  0  0
    8.8520    5.6380   23.2620 C   0  0  0  0  0  0  0  0  0  0  0  0
    9.4570   -1.8210   21.7790 C   0  0  0  0  0  0  0  0  0  0  0  0
   10.7080   -2.0050   22.3300 C   0  0  0  0  0  0  0  0  0  0  0  0
   10.9360   -1.5200   23.6050 C   0  0  0  0  0  0  0  0  0  0  0  0
    9.9480   -0.8750   24.3090 C   0  0  0  0  0  0  0  0  0  0  0  0
    8.7030   -0.7020   23.7390 C   0  0  0  0  0  0  0  0  0  0  0  0
    8.4500   -1.1780   22.4550 C   0  0  0  0  0  0  0  0  0  0  0  0
    9.3700   -4.5960   24.7560 C   0  0  0  0  0  0  0  0  0  0  0  0
    8.8100   -3.3620   24.4990 C   0  0  0  0  0  0  0  0  0  0  0  0
    7.7530   -3.2640   23.6030 C   0  0  0  0  0  0  0  0  0  0  0  0
    7.2660   -4.4110   22.9720 C   0  0  0  0  0  0  0  0  0  0  0  0
    7.8540   -5.6390   23.2340 C   0  0  0  0  0  0  0  0  0  0  0  0
    8.9070   -5.7320   24.1270 C   0  0  0  0  0  0  0  0  0  0  0  0
    4.7080   -4.4560   24.0100 C   0  0  0  0  0  0  0  0  0  0  0  0
    4.9470   -4.9360   22.7130 C   0  0  2  0  0  0  0  0  0  0  0  0
    4.8890   -6.4730   22.7370 C   0  0  0  0  0  0  0  0  0  0  0  0
    3.7810   -6.7280   24.0910 S   0  0  0  0  0  0  0  0  0  0  0  0
    4.0880   -5.2810   24.8750 C   0  0  0  0  0  0  0  0  0  0  0  0
  4  1  1  6
  2  5  1  0
  3  5  2  0
  4  5  1  0
  6  7  1  0
  6  8  1  0
  6  9  1  0
 11 12  1  0
 12 13  2  0
 12 14  1  0
  9 17  1  0
 10 17  1  0
 18 19  2  0
 19 20  1  0
 20 21  2  0
  4 22  1  0
 21 22  1  0
 18 23  1  0
 22 23  2  0
 24 25  1  0
 25 26  1  0
  2 27  1  0
 26 27  1  0
 27 28  1  0
 24 29  1  0
 28 29  1  0
 30 31  2  0
  6 32  1  0
 31 32  1  0
 32 33  2  0
 33 34  1  0
  1 35  1  0
 30 35  1  0
 34 35  2  0
 10 36  1  0
 36 37  2  0
 37 38  1  0
 11 39  1  0
 38 39  2  0
 39 40  1  0
 36 41  1  0
 40 41  2  0
 43 11  1  1
 42 43  1  0
 43 44  1  0
 45 15  1  0
 16 45  1  0
 44 45  1  0
 42 46  2  0
 45 46  1  0
M  END
