x1374-x0395
     RDKit          3D

 27 29  0  0  0  0  0  0  0  0999 V2000
   10.6840   -4.3720   25.8690 C   0  0  0  0  0  0  0  0  0  0  0  0
    6.3810   -4.4400   22.1410 N   0  0  0  0  0  0  0  0  0  0  0  0
    6.5700   -4.2690   20.7570 C   0  0  0  0  0  0  0  0  0  0  0  0
    5.6640   -4.5120   19.9410 O   0  0  0  0  0  0  0  0  0  0  0  0
    7.9890   -3.7280   20.4370 C   0  0  0  0  0  0  0  0  0  0  0  0
    2.3350   -6.7800   23.3560 O   0  0  0  0  0  0  0  0  0  0  0  0
    4.1630   -7.9610   24.8460 O   0  0  0  0  0  0  0  0  0  0  0  0
    9.5730   -4.3780   24.8810 C   0  0  0  0  0  0  0  0  0  0  0  0
    9.1300   -3.1210   24.2170 C   0  0  0  0  0  0  0  0  0  0  0  0
    8.0740   -3.1770   23.3120 C   0  0  0  0  0  0  0  0  0  0  0  0
    7.4600   -4.4050   23.0460 C   0  0  0  0  0  0  0  0  0  0  0  0
    7.8860   -5.5820   23.6600 C   0  0  0  0  0  0  0  0  0  0  0  0
    8.9410   -5.5610   24.5750 C   0  0  0  0  0  0  0  0  0  0  0  0
    4.8220   -4.4680   23.9040 C   0  0  0  0  0  0  0  0  0  0  0  0
    5.1050   -4.9660   22.6270 C   0  0  2  0  0  0  0  0  0  0  0  0
    4.9650   -6.4970   22.6450 C   0  0  0  0  0  0  0  0  0  0  0  0
    3.8060   -6.6890   23.9630 S   0  0  0  0  0  0  0  0  0  0  0  0
    4.1290   -5.2530   24.7510 C   0  0  0  0  0  0  0  0  0  0  0  0
    9.2300   -0.4920   24.0420 C   0  0  0  0  0  0  0  0  0  0  0  0
   13.5300   -1.6520   21.4480 F   0  0  0  0  0  0  0  0  0  0  0  0
   10.1340    0.2730   23.0800 C   0  0  1  0  0  0  0  0  0  0  0  0
   11.4840    0.6910   23.7080 C   0  0  0  0  0  0  0  0  0  0  0  0
   12.7350    0.1700   22.9590 C   0  0  0  0  0  0  0  0  0  0  0  0
   12.5250   -1.1090   22.1400 C   0  0  0  0  0  0  0  0  0  0  0  0
   11.2800   -1.6810   22.1050 C   0  0  0  0  0  0  0  0  0  0  0  0
   10.2860   -0.6110   21.9140 N   0  0  0  0  0  0  0  0  0  0  0  0
    9.8190   -1.8170   24.5310 C   0  0  0  0  0  0  0  0  0  0  0  0
  2  3  1  0
  3  4  2  0
  3  5  1  0
  1  8  1  0
  8  9  2  0
  9 10  1  0
  2 11  1  0
 10 11  2  0
 11 12  1  0
  8 13  1  0
 12 13  2  0
 15  2  1  1
 14 15  1  0
 15 16  1  0
 17  6  1  0
  7 17  1  0
 16 17  1  0
 14 18  2  0
 17 18  1  0
 21 19  1  1
 21 22  1  0
 22 23  1  0
 20 24  1  0
 23 24  2  0
 24 25  1  0
 21 26  1  0
 25 26  1  0
  9 27  1  0
 19 27  1  0
M  END
