x1375-x0786
     RDKit          3D

 24 26  0  0  0  0  0  0  0  0999 V2000
    5.8350   -4.5330   19.9840 O   0  0  0  0  0  0  0  0  0  0  0  0
    6.7110   -4.2790   20.8580 C   0  0  0  0  0  0  0  0  0  0  0  0
    8.1560   -3.8380   20.5620 C   0  0  0  0  0  0  0  0  0  0  0  0
    6.4250   -4.3680   22.2300 N   0  0  0  0  0  0  0  0  0  0  0  0
    4.5410   -7.7690   24.9020 O   0  0  0  0  0  0  0  0  0  0  0  0
   10.6870   -4.5510   25.9180 F   0  0  0  0  0  0  0  0  0  0  0  0
    8.0060   -3.2260   23.8150 C   0  0  0  0  0  0  0  0  0  0  0  0
    9.0590   -3.2760   24.7300 C   0  0  0  0  0  0  0  0  0  0  0  0
    9.6790   -4.4940   25.0410 C   0  0  0  0  0  0  0  0  0  0  0  0
    9.2000   -5.6510   24.3930 C   0  0  0  0  0  0  0  0  0  0  0  0
    8.1390   -5.6080   23.4700 C   0  0  0  0  0  0  0  0  0  0  0  0
    7.5450   -4.3760   23.1920 C   0  0  0  0  0  0  0  0  0  0  0  0
    4.7600   -4.2470   23.9170 C   0  0  0  0  0  0  0  0  0  0  0  0
    5.1420   -4.8550   22.7140 C   0  0  2  0  0  0  0  0  0  0  0  0
    5.1700   -6.4000   22.7140 C   0  0  0  0  0  0  0  0  0  0  0  0
    4.0270   -6.7810   24.0030 S   0  0  2  0  0  0  0  0  0  0  0  0
    4.0750   -5.2150   24.8250 C   0  0  0  0  0  0  0  0  0  0  0  0
    1.1810   -5.5570   23.5920 C   0  0  0  0  0  0  0  0  0  0  0  0
    0.2320   -4.8950   24.3790 C   0  0  0  0  0  0  0  0  0  0  0  0
   -1.3260   -5.8360   24.3740 S   0  0  0  0  0  0  0  0  0  0  0  0
   -0.6720   -7.4290   24.9720 C   0  0  0  0  0  0  0  0  0  0  0  0
    0.3850   -7.7980   24.1480 C   0  0  0  0  0  0  0  0  0  0  0  0
    1.4990   -6.8560   24.1550 N   0  0  0  0  0  0  0  0  0  0  0  0
    2.6210   -7.4010   23.4560 C   0  0  0  0  0  0  0  0  0  0  0  0
  1  2  2  0
  2  3  1  0
  2  4  1  0
  7  8  2  0
  6  9  1  0
  8  9  1  0
  9 10  2  0
 10 11  1  0
  4 12  1  0
  7 12  1  0
 11 12  2  0
 14  4  1  1
 13 14  1  0
 14 15  1  0
 16  5  1  1
 15 16  1  0
 13 17  2  0
 16 17  1  0
 18 19  1  0
 19 20  1  0
 20 21  1  0
 21 22  1  0
 18 23  1  0
 22 23  1  0
 16 24  1  0
 23 24  1  0
M  END
