x1375-x0978-x2694
     RDKit          3D

 57 63  0  0  0  0  0  0  0  0999 V2000
    7.5850   -1.3550   21.9760 N   0  0  0  0  0  0  0  0  0  0  0  0
    7.7830    2.2500   22.7850 N   0  0  0  0  0  0  0  0  0  0  0  0
    9.0500    1.3760   21.0910 O   0  0  0  0  0  0  0  0  0  0  0  0
   10.9760    6.7070   23.9290 O   0  0  0  0  0  0  0  0  0  0  0  0
    7.0560    0.0760   21.6960 C   0  0  1  0  0  0  0  0  0  0  0  0
    8.0790    1.2820   21.8200 C   0  0  0  0  0  0  0  0  0  0  0  0
   10.1930    1.8880   24.0150 C   0  0  0  0  0  0  0  0  0  0  0  0
   11.8470    6.5820   24.8020 C   0  0  0  0  0  0  0  0  0  0  0  0
   12.4360   -1.3100   23.2720 C   0  0  0  0  0  0  0  0  0  0  0  0
   12.8720    0.1190   23.4690 C   0  0  0  0  0  0  0  0  0  0  0  0
   12.9970   -1.8130   21.9430 C   0  0  0  0  0  0  0  0  0  0  0  0
   12.9530   -2.2040   24.4240 C   0  0  0  0  0  0  0  0  0  0  0  0
    2.1130   -6.3650   23.4020 N   0  0  0  0  0  0  0  0  0  0  0  0
    2.3020   -5.8990   25.3420 C   0  0  0  0  0  0  0  0  0  0  0  0
    4.6940   -7.6970   24.9200 O   0  0  0  0  0  0  0  0  0  0  0  0
    0.8740   -7.4000   21.7500 O   0  0  0  0  0  0  0  0  0  0  0  0
    3.5020   -6.3170   22.9520 C   0  0  1  0  0  0  0  0  0  0  0  0
    0.9640   -6.4900   22.5930 C   0  0  0  0  0  0  0  0  0  0  0  0
   -0.1720   -5.5510   22.7490 C   0  0  0  0  0  0  0  0  0  0  0  0
    6.6580   -5.0290   22.4170 C   0  0  1  0  0  0  0  0  0  0  0  0
    6.6470   -2.4420   22.2470 C   0  0  0  0  0  0  0  0  0  0  0  0
    6.8610   -3.7110   21.6190 C   0  0  0  0  0  0  0  0  0  0  0  0
    5.4970   -4.8710   20.0200 O   0  0  0  0  0  0  0  0  0  0  0  0
    6.0340   -3.7970   20.3220 C   0  0  0  0  0  0  0  0  0  0  0  0
    7.2010   -3.1860   19.3730 C   0  0  0  0  0  0  0  0  0  0  0  0
    5.4970   -3.0690   21.5330 N   0  0  0  0  0  0  0  0  0  0  0  0
    3.6560   -8.3840   24.8190 O   0  0  0  0  0  0  0  0  0  0  0  0
   10.6550   -4.2960   26.4630 F   0  0  0  0  0  0  0  0  0  0  0  0
    6.3740    0.2150   18.0520 N   0  0  0  0  0  0  0  0  0  0  0  0
    5.2630    0.9380   17.9450 C   0  0  0  0  0  0  0  0  0  0  0  0
    4.6660    1.4090   19.1160 C   0  0  0  0  0  0  0  0  0  0  0  0
    5.2300    1.1330   20.3930 C   0  0  0  0  0  0  0  0  0  0  0  0
    6.3920    0.3790   20.4250 C   0  0  0  0  0  0  0  0  0  0  0  0
    6.9340   -0.0680   19.2340 C   0  0  0  0  0  0  0  0  0  0  0  0
    8.9410   -1.1140   23.9740 N   0  0  0  0  0  0  0  0  0  0  0  0
   10.1920   -1.1060   24.3230 O   0  0  0  0  0  0  0  0  0  0  0  0
   10.9730   -1.2740   23.2910 C   0  0  0  0  0  0  0  0  0  0  0  0
   10.1230   -1.4010   22.1950 C   0  0  0  0  0  0  0  0  0  0  0  0
    8.8140   -1.2990   22.6210 C   0  0  0  0  0  0  0  0  0  0  0  0
    9.7650    3.2770   23.6560 C   0  0  0  0  0  0  0  0  0  0  0  0
   10.6040    4.3490   23.9560 C   0  0  0  0  0  0  0  0  0  0  0  0
   10.1410    5.6430   23.6070 C   0  0  0  0  0  0  0  0  0  0  0  0
    8.8970    5.8350   22.9700 C   0  0  0  0  0  0  0  0  0  0  0  0
    8.1030    4.7050   22.6870 C   0  0  0  0  0  0  0  0  0  0  0  0
    8.5360    3.4290   23.0340 C   0  0  0  0  0  0  0  0  0  0  0  0
    7.9930   -3.6020   24.0610 C   0  0  0  0  0  0  0  0  0  0  0  0
    8.9740   -3.4110   25.0510 C   0  0  0  0  0  0  0  0  0  0  0  0
    9.7300   -4.5060   25.5200 C   0  0  0  0  0  0  0  0  0  0  0  0
    9.5260   -5.7610   25.0270 C   0  0  0  0  0  0  0  0  0  0  0  0
    8.5040   -5.9780   23.9720 C   0  0  0  0  0  0  0  0  0  0  0  0
    7.7040   -4.8500   23.4790 C   0  0  0  0  0  0  0  0  0  0  0  0
    4.7270   -3.4990   23.8450 C   0  0  2  0  0  0  0  0  0  0  0  0
    4.4850   -3.4980   22.4500 C   0  0  2  0  0  0  0  0  0  0  0  0
    4.8150   -5.0860   23.0180 S   0  0  0  0  0  0  0  0  0  0  0  0
    3.9580   -5.7910   24.4880 S   0  0  0  0  0  0  0  0  0  0  0  0
    4.8100   -4.2650   25.0150 C   0  0  0  0  0  0  0  0  0  0  0  0
    1.5200   -6.9220   24.9850 O   0  0  0  0  0  0  0  0  0  0  0  0
  1  5  1  0
  2  6  1  0
  3  6  2  0
  5  6  1  6
  4  8  1  0
  9 10  1  0
  9 11  1  0
  9 12  1  0
 17 13  1  6
 13 18  1  0
 16 18  2  0
 18 19  1  0
  1 21  1  0
 20 22  1  6
 21 22  1  0
 23 24  2  0
 24 25  1  0
 24 26  1  0
 15 27  1  0
 29 30  2  0
 30 31  1  0
 31 32  2  0
  5 33  1  0
 32 33  1  0
 29 34  1  0
 33 34  2  0
 35 36  1  0
  9 37  1  0
 36 37  1  0
 37 38  2  0
  1 39  1  0
 35 39  2  0
 38 39  1  0
  7 40  1  0
 40 41  2  0
  4 42  1  0
 41 42  1  0
 42 43  2  0
 43 44  1  0
  2 45  1  0
 40 45  1  0
 44 45  2  0
 46 47  2  0
 28 48  1  0
 47 48  1  0
 48 49  2  0
 49 50  1  0
 20 51  1  0
 46 51  1  0
 50 51  2  0
 53 26  1  6
 52 53  1  0
 17 54  1  0
 20 54  1  0
 52 54  1  0
 53 54  1  0
 14 55  1  0
 15 55  1  0
 17 55  1  0
 54 55  1  0
 52 56  1  1
 55 56  1  0
 14 57  1  0
M  END
