x1374-x0759
     RDKit          3D

 26 28  0  0  0  0  0  0  0  0999 V2000
   10.7120   -4.4280   26.1470 C   0  0  0  0  0  0  0  0  0  0  0  0
    6.3980   -4.6930   22.0240 N   0  0  0  0  0  0  0  0  0  0  0  0
    6.5960   -4.2620   20.6990 C   0  0  0  0  0  0  0  0  0  0  0  0
    5.6650   -4.3530   19.8770 O   0  0  0  0  0  0  0  0  0  0  0  0
    8.0010   -3.6640   20.3930 C   0  0  0  0  0  0  0  0  0  0  0  0
    2.4120   -6.7660   23.3430 O   0  0  0  0  0  0  0  0  0  0  0  0
    4.2380   -8.0160   24.8230 O   0  0  0  0  0  0  0  0  0  0  0  0
    9.6630   -4.4860   25.1170 C   0  0  0  0  0  0  0  0  0  0  0  0
    9.3750   -3.2270   24.3430 C   0  0  0  0  0  0  0  0  0  0  0  0
    8.2980   -3.2600   23.2930 C   0  0  0  0  0  0  0  0  0  0  0  0
    7.4970   -4.5320   23.0080 C   0  0  0  0  0  0  0  0  0  0  0  0
    7.8680   -5.7630   23.8290 C   0  0  0  0  0  0  0  0  0  0  0  0
    8.9750   -5.6570   24.8800 C   0  0  0  0  0  0  0  0  0  0  0  0
    5.0070   -4.4490   23.9020 C   0  0  0  0  0  0  0  0  0  0  0  0
    5.1680   -5.0350   22.6240 C   0  0  2  0  0  0  0  0  0  0  0  0
    5.0300   -6.4540   22.6140 C   0  0  0  0  0  0  0  0  0  0  0  0
    3.8840   -6.7480   23.9400 S   0  0  0  0  0  0  0  0  0  0  0  0
    4.2480   -5.3010   24.8620 C   0  0  0  0  0  0  0  0  0  0  0  0
   13.2070    0.3550   23.6110 F   0  0  0  0  0  0  0  0  0  0  0  0
    9.6670   -0.4400   23.8710 C   0  0  0  0  0  0  0  0  0  0  0  0
   10.9210    0.1250   24.1100 C   0  0  0  0  0  0  0  0  0  0  0  0
   12.0400   -0.2030   23.3570 C   0  0  0  0  0  0  0  0  0  0  0  0
   11.9070   -1.2000   22.2470 C   0  0  0  0  0  0  0  0  0  0  0  0
   10.5040   -1.7580   22.0610 C   0  0  0  0  0  0  0  0  0  0  0  0
    9.4320   -1.3770   22.8560 C   0  0  0  0  0  0  0  0  0  0  0  0
    8.1750   -1.9380   22.6410 C   0  0  0  0  0  0  0  0  0  0  0  0
  2  3  1  0
  3  4  2  0
  3  5  1  0
  1  8  1  0
  8  9  2  0
  9 10  1  0
  2 11  1  0
 10 11  2  0
 11 12  1  0
  8 13  1  0
 12 13  2  0
 15  2  1  1
 14 15  1  0
 15 16  1  0
 17  6  1  0
  7 17  1  0
 16 17  1  0
 14 18  2  0
 17 18  1  0
 20 21  2  0
 19 22  1  0
 21 22  1  0
 22 23  2  0
 23 24  1  0
 20 25  1  0
 24 25  2  0
 10 26  1  0
 25 26  1  0
M  END
