x1374-x2964
     RDKit          3D

 39 42  0  0  0  0  0  0  0  0999 V2000
   10.4110   -4.5080   26.3690 C   0  0  0  0  0  0  0  0  0  0  0  0
    6.4050   -4.5770   21.9030 N   0  0  0  0  0  0  0  0  0  0  0  0
    6.2490   -4.5340   20.5180 C   0  0  0  0  0  0  0  0  0  0  0  0
    5.4330   -5.2700   20.0080 O   0  0  0  0  0  0  0  0  0  0  0  0
    7.0890   -3.5260   19.6520 C   0  0  0  0  0  0  0  0  0  0  0  0
    2.3760   -6.6370   23.4340 O   0  0  0  0  0  0  0  0  0  0  0  0
    4.2360   -7.9060   24.8990 O   0  0  0  0  0  0  0  0  0  0  0  0
    3.2550    2.3120   19.1870 N   0  0  0  0  0  0  0  0  0  0  0  0
    8.6530    1.6160   21.1080 O   0  0  0  0  0  0  0  0  0  0  0  0
   13.3150   -2.0040   21.5430 Cl  0  0  0  0  0  0  0  0  0  0  0  0
    7.0870   -0.0690   21.0770 N   0  0  0  0  0  0  0  0  0  0  0  0
    8.8370   -0.0480   22.5470 N   0  0  0  0  0  0  0  0  0  0  0  0
    8.1830    0.5550   21.5390 C   0  0  0  0  0  0  0  0  0  0  0  0
    6.9470   -3.3720   22.2830 C   0  0  1  0  0  0  0  0  0  0  0  0
    6.2860   -2.0690   22.0030 C   0  0  0  0  0  0  0  0  0  0  0  0
    7.2050   -1.3720   21.0140 C   0  0  0  0  0  0  0  0  0  0  0  0
    9.4990   -4.6310   25.2230 C   0  0  0  0  0  0  0  0  0  0  0  0
    8.8620   -3.3850   24.6540 C   0  0  0  0  0  0  0  0  0  0  0  0
    7.8750   -3.2440   23.4570 C   0  0  0  0  0  0  0  0  0  0  0  0
    7.8080   -4.6380   23.1330 C   0  0  0  0  0  0  0  0  0  0  0  0
    8.3820   -5.7860   23.6490 C   0  0  0  0  0  0  0  0  0  0  0  0
    9.2350   -5.8170   24.6940 C   0  0  0  0  0  0  0  0  0  0  0  0
    5.1000   -4.3680   23.8040 C   0  0  0  0  0  0  0  0  0  0  0  0
    5.1990   -4.9620   22.5390 C   0  0  2  0  0  0  0  0  0  0  0  0
    5.0870   -6.3730   22.5960 C   0  0  0  0  0  0  0  0  0  0  0  0
    3.8810   -6.6830   23.9500 S   0  0  0  0  0  0  0  0  0  0  0  0
    4.3440   -5.2010   24.7880 C   0  0  0  0  0  0  0  0  0  0  0  0
    4.4830    1.6300   19.1180 C   0  0  0  0  0  0  0  0  0  0  0  0
    5.1910    1.1070   20.2070 C   0  0  0  0  0  0  0  0  0  0  0  0
    6.4070    0.4300   20.0550 C   0  0  0  0  0  0  0  0  0  0  0  0
    6.8830    0.2880   18.7720 C   0  0  0  0  0  0  0  0  0  0  0  0
    6.3630    0.7230   17.6380 N   0  0  0  0  0  0  0  0  0  0  0  0
    5.2150    1.3710   17.7850 C   0  0  0  0  0  0  0  0  0  0  0  0
   10.7880    1.0730   23.2880 C   0  0  0  0  0  0  0  0  0  0  0  0
   12.1440    1.2180   23.4130 C   0  0  0  0  0  0  0  0  0  0  0  0
   12.9540    0.2570   22.8780 C   0  0  0  0  0  0  0  0  0  0  0  0
   12.3830   -0.8230   22.2390 C   0  0  0  0  0  0  0  0  0  0  0  0
   11.0320   -0.9770   22.1170 C   0  0  0  0  0  0  0  0  0  0  0  0
   10.2140   -0.0190   22.6390 C   0  0  0  0  0  0  0  0  0  0  0  0
  2  3  1  0
  3  4  2  0
  3  5  1  0
  9 13  2  0
 11 13  1  0
 12 13  1  0
  2 14  1  0
 14 15  1  1
 11 16  1  0
 15 16  1  0
  1 17  1  0
 17 18  2  0
 14 19  1  0
 18 19  1  0
 19 20  2  0
 20 21  1  0
 17 22  1  0
 21 22  2  0
 24  2  1  1
 23 24  1  0
 24 25  1  0
 26  6  1  0
  7 26  1  0
 25 26  1  0
 23 27  2  0
 26 27  1  0
  8 28  1  0
 28 29  2  0
 11 30  1  0
 29 30  1  0
 30 31  2  0
 31 32  1  0
 28 33  1  0
 32 33  2  0
 34 35  2  0
 35 36  1  0
 10 37  1  0
 36 37  2  0
 37 38  1  0
 12 39  1  0
 34 39  1  0
 38 39  2  0
M  END
