x1374-x0769
     RDKit          3D

 28 30  0  0  0  0  0  0  0  0999 V2000
   11.1050   -3.9090   25.6200 C   0  0  0  0  0  0  0  0  0  0  0  0
    6.2610   -4.7830   22.2940 N   0  0  0  0  0  0  0  0  0  0  0  0
    6.2740   -4.6150   20.8280 C   0  0  0  0  0  0  0  0  0  0  0  0
    5.5300   -5.2830   20.0870 O   0  0  0  0  0  0  0  0  0  0  0  0
    7.1750   -3.5470   20.1050 C   0  0  0  0  0  0  0  0  0  0  0  0
    1.8410   -6.5950   22.7180 O   0  0  0  0  0  0  0  0  0  0  0  0
    3.4300   -8.4290   23.7790 O   0  0  0  0  0  0  0  0  0  0  0  0
    6.5770   -3.9890   25.9170 O   0  0  0  0  0  0  0  0  0  0  0  0
    4.8810   -5.7150   26.9570 O   0  0  0  0  0  0  0  0  0  0  0  0
    5.6460   -1.8070   26.2360 F   0  0  0  0  0  0  0  0  0  0  0  0
    5.3000   -4.6430   25.8490 S   0  0  0  0  0  0  0  0  0  0  0  0
    9.9150   -4.1170   24.7780 C   0  0  0  0  0  0  0  0  0  0  0  0
    9.3430   -2.8780   24.0560 C   0  0  0  0  0  0  0  0  0  0  0  0
    8.1130   -3.1110   23.2110 C   0  0  0  0  0  0  0  0  0  0  0  0
    7.4550   -4.4660   23.0560 C   0  0  0  0  0  0  0  0  0  0  0  0
    8.1240   -5.6150   23.8080 C   0  0  0  0  0  0  0  0  0  0  0  0
    9.3550   -5.3960   24.6630 C   0  0  0  0  0  0  0  0  0  0  0  0
    4.9240   -5.4720   24.3610 C   0  0  0  0  0  0  0  0  0  0  0  0
    5.5360   -5.7730   23.0780 C   0  0  1  0  0  0  0  0  0  0  0  0
    4.5730   -6.2530   22.2470 C   0  0  0  0  0  0  0  0  0  0  0  0
    3.2790   -6.9290   23.2970 S   0  0  0  0  0  0  0  0  0  0  0  0
    3.6090   -6.0500   24.6240 C   0  0  0  0  0  0  0  0  0  0  0  0
    4.3550   -2.1340   26.1240 C   0  0  0  0  0  0  0  0  0  0  0  0
    3.9930   -3.4620   25.9350 C   0  0  0  0  0  0  0  0  0  0  0  0
    2.6410   -3.7920   25.8200 C   0  0  0  0  0  0  0  0  0  0  0  0
    1.5530   -2.7730   25.8900 C   0  0  0  0  0  0  0  0  0  0  0  0
    2.0170   -1.3340   26.0980 C   0  0  0  0  0  0  0  0  0  0  0  0
    3.4000   -1.0860   26.2050 C   0  0  0  0  0  0  0  0  0  0  0  0
  2  3  1  0
  3  4  2  0
  3  5  1  0
  8 11  2  0
  9 11  2  0
  1 12  1  0
 12 13  2  0
 13 14  1  0
  2 15  1  0
 14 15  2  0
 15 16  1  0
 12 17  1  0
 16 17  2  0
 11 18  1  0
 19  2  1  6
 18 19  1  0
 19 20  1  0
 21  6  1  0
  7 21  1  0
 20 21  1  0
 18 22  2  0
 21 22  1  0
 10 23  1  0
 11 24  1  0
 23 24  2  0
 24 25  1  0
 25 26  2  0
 26 27  1  0
 23 28  1  0
 27 28  2  0
M  END
