x1374-x2705
     RDKit          3D

 49 53  0  0  0  0  0  0  0  0999 V2000
    7.6160   -1.0830   21.6330 N   0  0  0  0  0  0  0  0  0  0  0  0
    7.5950    2.2390   22.8010 N   0  0  0  0  0  0  0  0  0  0  0  0
    8.8960    1.5210   21.1450 O   0  0  0  0  0  0  0  0  0  0  0  0
    6.9800    0.1370   21.6070 C   0  0  1  0  0  0  0  0  0  0  0  0
    7.8890    1.3220   21.8380 C   0  0  0  0  0  0  0  0  0  0  0  0
   10.2490    2.1860   23.9590 C   0  0  0  0  0  0  0  0  0  0  0  0
    9.3260    1.4150   24.8690 C   0  0  0  0  0  0  0  0  0  0  0  0
    6.2650    4.6010   21.9120 C   0  0  0  0  0  0  0  0  0  0  0  0
   12.2840   -1.3570   23.1990 C   0  0  0  0  0  0  0  0  0  0  0  0
   12.8790   -0.1470   23.8970 C   0  0  0  0  0  0  0  0  0  0  0  0
   12.6360   -2.6670   23.9080 C   0  0  0  0  0  0  0  0  0  0  0  0
   12.9320   -1.5130   21.8110 C   0  0  0  0  0  0  0  0  0  0  0  0
   10.2480   -3.9400   26.1080 C   0  0  0  0  0  0  0  0  0  0  0  0
    6.3330   -4.8780   22.0790 N   0  0  0  0  0  0  0  0  0  0  0  0
    6.5220   -4.3760   20.7620 C   0  0  0  0  0  0  0  0  0  0  0  0
    5.6210   -4.4170   19.9070 O   0  0  0  0  0  0  0  0  0  0  0  0
    7.9430   -3.7730   20.5370 C   0  0  0  0  0  0  0  0  0  0  0  0
    2.2400   -6.7580   23.8040 O   0  0  0  0  0  0  0  0  0  0  0  0
    4.2590   -7.9270   24.9400 O   0  0  0  0  0  0  0  0  0  0  0  0
   12.1870   -2.7950   25.1810 C   0  0  0  0  0  0  0  0  0  0  0  0
   11.4550   -3.9250   25.4810 C   0  0  0  0  0  0  0  0  0  0  0  0
    6.3510    0.2240   17.9050 N   0  0  0  0  0  0  0  0  0  0  0  0
    5.1480    1.0860   17.7940 C   0  0  0  0  0  0  0  0  0  0  0  0
    4.5650    1.5960   18.9370 C   0  0  0  0  0  0  0  0  0  0  0  0
    5.1180    1.3140   20.2980 C   0  0  0  0  0  0  0  0  0  0  0  0
    6.3600    0.4290   20.2900 C   0  0  0  0  0  0  0  0  0  0  0  0
    6.8790   -0.0540   19.1070 C   0  0  0  0  0  0  0  0  0  0  0  0
   10.1080   -1.0880   24.1860 N   0  0  0  0  0  0  0  0  0  0  0  0
    8.7950   -1.0010   23.8320 N   0  0  0  0  0  0  0  0  0  0  0  0
    8.7780   -1.1220   22.4820 C   0  0  0  0  0  0  0  0  0  0  0  0
   10.0650   -1.2820   22.0150 C   0  0  0  0  0  0  0  0  0  0  0  0
   10.8620   -1.2510   23.1050 C   0  0  0  0  0  0  0  0  0  0  0  0
    9.5710    3.4950   23.5080 C   0  0  0  0  0  0  0  0  0  0  0  0
   10.2350    4.7050   23.6520 C   0  0  0  0  0  0  0  0  0  0  0  0
    9.6200    5.8810   23.2380 C   0  0  0  0  0  0  0  0  0  0  0  0
    8.3410    5.8470   22.6780 C   0  0  0  0  0  0  0  0  0  0  0  0
    7.6670    4.6310   22.5310 C   0  0  0  0  0  0  0  0  0  0  0  0
    8.2860    3.4550   22.9520 C   0  0  0  0  0  0  0  0  0  0  0  0
    9.2490   -4.2180   25.0650 C   0  0  0  0  0  0  0  0  0  0  0  0
    8.5080   -3.1700   24.5690 C   0  0  0  0  0  0  0  0  0  0  0  0
    7.5600   -3.3830   23.5840 C   0  0  0  0  0  0  0  0  0  0  0  0
    7.3240   -4.6560   23.0680 C   0  0  0  0  0  0  0  0  0  0  0  0
    8.0790   -5.7250   23.5640 C   0  0  0  0  0  0  0  0  0  0  0  0
    9.0250   -5.4790   24.5510 C   0  0  0  0  0  0  0  0  0  0  0  0
    4.8750   -4.5860   24.0620 C   0  0  0  0  0  0  0  0  0  0  0  0
    5.0220   -5.1490   22.6620 C   0  0  2  0  0  0  0  0  0  0  0  0
    4.7250   -6.6330   22.7340 C   0  0  0  0  0  0  0  0  0  0  0  0
    3.7760   -6.7830   24.2150 S   0  0  0  0  0  0  0  0  0  0  0  0
    4.2360   -5.3550   24.9650 C   0  0  0  0  0  0  0  0  0  0  0  0
  4  1  1  6
  2  5  1  0
  3  5  2  0
  4  5  1  0
  6  7  1  0
  9 10  1  0
  9 11  1  0
  9 12  1  0
 14 15  1  0
 15 16  2  0
 15 17  1  0
 11 20  1  0
 13 21  1  0
 20 21  1  0
 22 23  2  0
 23 24  1  0
 24 25  2  0
  4 26  1  0
 25 26  1  0
 22 27  1  0
 26 27  2  0
 28 29  1  0
  1 30  1  0
 29 30  2  0
 30 31  1  0
  9 32  1  0
 28 32  1  0
 31 32  2  0
  6 33  1  0
 33 34  2  0
 34 35  1  0
 35 36  2  0
  8 37  1  0
 36 37  1  0
  2 38  1  0
 33 38  1  0
 37 38  2  0
 13 39  1  0
 39 40  2  0
 40 41  1  0
 14 42  1  0
 41 42  2  0
 42 43  1  0
 39 44  1  0
 43 44  2  0
 46 14  1  1
 45 46  1  0
 46 47  1  0
 48 18  1  0
 19 48  1  0
 47 48  1  0
 45 49  2  0
 48 49  1  0
M  END
