x1380-x2052
     RDKit          3D

 27 29  0  0  0  0  0  0  0  0999 V2000
    6.0160   -1.6200   25.2620 C   0  0  2  0  0  0  0  0  0  0  0  0
    4.7300   -1.0610   24.9610 O   0  0  0  0  0  0  0  0  0  0  0  0
    6.9810   -0.8400   25.9420 N   0  0  0  0  0  0  0  0  0  0  0  0
    5.4470   -4.3910   19.8780 O   0  0  0  0  0  0  0  0  0  0  0  0
    5.3310    2.2540   30.5560 O   0  0  0  0  0  0  0  0  0  0  0  0
    6.3990   -3.6490   20.1570 C   0  0  0  0  0  0  0  0  0  0  0  0
    7.2480   -3.1130   19.0290 C   0  0  0  0  0  0  0  0  0  0  0  0
    5.9590    3.2980   30.7060 C   0  0  0  0  0  0  0  0  0  0  0  0
    6.7470   -3.3200   21.4630 N   0  0  0  0  0  0  0  0  0  0  0  0
    7.4410   -2.0640   21.6780 C   0  0  0  0  0  0  0  0  0  0  0  0
    7.1940   -1.4090   23.0420 C   0  0  0  0  0  0  0  0  0  0  0  0
    6.6730   -2.2470   24.0200 C   0  0  0  0  0  0  0  0  0  0  0  0
    5.9190   -3.2980   23.4860 C   0  0  0  0  0  0  0  0  0  0  0  0
    6.6440   -4.1540   22.6680 C   0  0  0  0  0  0  0  0  0  0  0  0
    6.6270    2.1250   28.4140 N   0  0  0  0  0  0  0  0  0  0  0  0
    6.9720    1.3300   27.3510 C   0  0  0  0  0  0  0  0  0  0  0  0
    6.5720   -0.0060   27.1070 C   0  0  0  0  0  0  0  0  0  0  0  0
    5.7210   -0.6400   28.0230 C   0  0  0  0  0  0  0  0  0  0  0  0
    5.2530    0.1120   29.2540 C   0  0  0  0  0  0  0  0  0  0  0  0
    5.7340    1.5440   29.4440 C   0  0  0  0  0  0  0  0  0  0  0  0
    7.7230   -4.0980   26.4100 C   0  0  0  0  0  0  0  0  0  0  0  0
    8.0260   -5.3650   27.2200 C   0  0  0  0  0  0  0  0  0  0  0  0
    7.4670   -5.3790   28.6160 C   0  0  0  0  0  0  0  0  0  0  0  0
    6.0210   -4.9160   28.6270 C   0  0  0  0  0  0  0  0  0  0  0  0
    6.0120   -3.5620   28.3450 C   0  0  0  0  0  0  0  0  0  0  0  0
    6.6840   -3.2040   27.0730 N   0  0  0  0  0  0  0  0  0  0  0  0
    5.7230   -2.8290   26.2340 C   0  0  0  0  0  0  0  0  0  0  0  0
  1  2  1  6
  1  3  1  0
  4  6  2  0
  6  7  1  0
  5  8  1  0
  6  9  1  0
  9 10  1  0
 10 11  1  0
  1 12  1  0
 11 12  1  0
 12 13  1  0
  9 14  1  0
 13 14  1  0
 15 16  2  0
  3 17  1  0
 16 17  1  0
 17 18  2  0
 18 19  1  0
  5 20  1  0
 15 20  1  0
 19 20  2  0
 21 22  1  0
 22 23  1  0
 23 24  1  0
 24 25  1  0
 21 26  1  0
 25 26  1  0
  1 27  1  0
 26 27  1  0
M  END
