x1384-x3115
     RDKit          3D

 41 45  0  0  0  0  0  0  0  0999 V2000
    7.1750   -1.2670   21.8610 N   0  0  0  0  0  0  0  0  0  0  0  0
    7.9260    1.9150   22.9640 N   0  0  0  0  0  0  0  0  0  0  0  0
    8.8650    1.2810   21.0230 O   0  0  0  0  0  0  0  0  0  0  0  0
    7.7400    5.2220   22.3670 O   0  0  0  0  0  0  0  0  0  0  0  0
    6.8840    0.0890   21.7220 C   0  0  1  0  0  0  0  0  0  0  0  0
    7.9830    1.1090   21.8500 C   0  0  0  0  0  0  0  0  0  0  0  0
    8.6620    3.1560   22.6670 C   0  0  0  0  0  0  0  0  0  0  0  0
    8.0100    4.4070   23.2380 C   0  0  0  0  0  0  0  0  0  0  0  0
    8.4100    6.2510   22.3670 C   0  0  0  0  0  0  0  0  0  0  0  0
   12.2430   -2.0550   24.3090 C   0  0  0  0  0  0  0  0  0  0  0  0
   13.2910   -2.3160   23.4200 C   0  0  0  0  0  0  0  0  0  0  0  0
   12.0350   -3.2070   25.2850 C   0  0  0  0  0  0  0  0  0  0  0  0
   12.6500   -0.8830   25.0180 C   0  0  0  0  0  0  0  0  0  0  0  0
    6.1260   -3.4670   21.8970 N   0  0  0  0  0  0  0  0  0  0  0  0
    7.9910   -3.5580   20.3980 C   0  0  0  0  0  0  0  0  0  0  0  0
    5.6580   -4.1700   19.7770 O   0  0  0  0  0  0  0  0  0  0  0  0
    6.5070   -3.7810   20.5920 C   0  0  0  0  0  0  0  0  0  0  0  0
    5.9980   -2.0600   22.2230 C   0  0  0  0  0  0  0  0  0  0  0  0
    6.3140    0.3080   17.9240 N   0  0  0  0  0  0  0  0  0  0  0  0
    5.1170    1.1450   17.8380 C   0  0  0  0  0  0  0  0  0  0  0  0
    4.3850    1.6890   19.0500 C   0  0  0  0  0  0  0  0  0  0  0  0
    4.9330    1.3560   20.4320 C   0  0  0  0  0  0  0  0  0  0  0  0
    6.2150    0.4720   20.4780 C   0  0  0  0  0  0  0  0  0  0  0  0
    6.8820   -0.0480   19.1790 C   0  0  0  0  0  0  0  0  0  0  0  0
    9.5840   -1.3660   21.7270 C   0  0  0  0  0  0  0  0  0  0  0  0
   10.8680   -1.5520   22.2780 C   0  0  0  0  0  0  0  0  0  0  0  0
   10.9230   -1.8610   23.6320 C   0  0  0  0  0  0  0  0  0  0  0  0
    9.7750   -1.9890   24.3770 C   0  0  0  0  0  0  0  0  0  0  0  0
    8.5040   -1.8200   23.8670 C   0  0  0  0  0  0  0  0  0  0  0  0
    8.4290   -1.4970   22.5140 C   0  0  0  0  0  0  0  0  0  0  0  0
    4.3520   -1.5430   25.5610 O   0  0  0  0  0  0  0  0  0  0  0  0
    5.1460   -4.6380   24.9920 C   0  0  1  0  0  0  0  0  0  0  0  0
    5.7680   -3.8120   24.2990 C   0  0  2  0  0  0  0  0  0  0  0  0
    4.3270   -3.5280   24.2840 C   0  0  1  0  0  0  0  0  0  0  0  0
    3.5450   -4.1090   23.3360 C   0  0  0  0  0  0  0  0  0  0  0  0
    3.8380   -5.5170   23.3210 C   0  0  0  0  0  0  0  0  0  0  0  0
    4.7490   -5.7920   24.2830 C   0  0  0  0  0  0  0  0  0  0  0  0
    3.6520   -2.7300   25.2390 C   0  0  1  0  0  0  0  0  0  0  0  0
    4.2710   -3.6610   25.8340 C   0  0  0  0  0  0  0  0  0  0  0  0
    4.8380   -4.5480   26.5510 C   0  0  0  0  0  0  0  0  0  0  0  0
    6.4840   -4.2780   23.0490 C   0  0  0  0  0  0  0  0  0  0  0  0
  1  5  1  0
  2  6  1  0
  3  6  2  0
  5  6  1  6
  2  7  1  0
  4  8  1  0
  7  8  1  0
  4  9  1  0
 10 11  1  0
 10 12  1  0
 10 13  1  0
 14 17  1  0
 15 17  1  0
 16 17  2  0
  1 18  1  0
 14 18  1  0
 19 20  2  0
 20 21  1  0
 21 22  2  0
  5 23  1  0
 22 23  1  0
 19 24  1  0
 23 24  2  0
 25 26  2  0
 10 27  1  0
 26 27  1  0
 27 28  2  0
 28 29  1  0
  1 30  1  0
 25 30  1  0
 29 30  2  0
 32 33  1  0
 32 34  1  0
 33 34  1  0
 34 35  1  6
 35 36  1  0
 32 37  1  6
 36 37  2  0
 38 31  1  1
 34 38  1  0
 38 39  1  0
 32 40  1  0
 39 40  2  0
 14 41  1  0
 33 41  1  6
M  END
