x1385-x1392
     RDKit          3D

 22 24  0  0  0  0  0  0  0  0999 V2000
    7.4600   -2.9480   18.6680 C   0  0  0  0  0  0  0  0  0  0  0  0
    5.5260   -3.8870   19.6430 O   0  0  0  0  0  0  0  0  0  0  0  0
    6.4890   -3.1200   19.7960 C   0  0  0  0  0  0  0  0  0  0  0  0
    9.1760   -3.4840   23.7470 C   0  0  0  0  0  0  0  0  0  0  0  0
    7.2310   -5.7010   28.6220 Br  0  0  0  0  0  0  0  0  0  0  0  0
    6.7250   -2.4300   20.9980 N   0  0  0  0  0  0  0  0  0  0  0  0
    6.4080   -3.1670   22.2270 C   0  0  0  0  0  0  0  0  0  0  0  0
    7.6660   -4.0190   22.4420 C   0  0  0  0  0  0  0  0  0  0  0  0
    8.7780   -3.2610   22.7220 N   0  0  0  0  0  0  0  0  0  0  0  0
    8.5440   -1.8310   22.5980 C   0  0  2  0  0  0  0  0  0  0  0  0
    7.9030   -1.5320   21.2290 C   0  0  0  0  0  0  0  0  0  0  0  0
    9.7340   -5.5180   25.2960 C   0  0  0  0  0  0  0  0  0  0  0  0
    8.9840   -4.2700   24.9540 C   0  0  0  0  0  0  0  0  0  0  0  0
    7.7950   -3.8720   26.1290 S   0  0  0  0  0  0  0  0  0  0  0  0
    8.2100   -5.3140   27.0500 C   0  0  0  0  0  0  0  0  0  0  0  0
    9.2370   -6.1240   26.5780 C   0  0  0  0  0  0  0  0  0  0  0  0
   11.1020   -1.5230   22.1760 C   0  0  0  0  0  0  0  0  0  0  0  0
   12.3550   -0.6820   22.4990 C   0  0  0  0  0  0  0  0  0  0  0  0
   12.2940    0.4300   23.3540 C   0  0  0  0  0  0  0  0  0  0  0  0
   11.0710    0.7410   23.8990 C   0  0  0  0  0  0  0  0  0  0  0  0
    9.9430   -0.0080   23.6170 C   0  0  0  0  0  0  0  0  0  0  0  0
    9.8880   -1.1300   22.7780 C   0  0  0  0  0  0  0  0  0  0  0  0
  1  3  1  0
  2  3  2  0
  3  6  1  0
  6  7  1  0
  7  8  1  0
  4  9  1  0
  8  9  1  0
  9 10  1  0
  6 11  1  0
 10 11  1  0
  4 13  1  0
 12 13  2  0
 13 14  1  0
  5 15  1  0
 14 15  1  0
 12 16  1  0
 15 16  2  0
 17 18  2  0
 18 19  1  0
 19 20  2  0
 20 21  1  0
 10 22  1  6
 17 22  1  0
 21 22  2  0
M  END
