x1386-x2643
     RDKit          3D

 24 26  0  0  0  0  0  0  0  0999 V2000
    7.3310   -2.9710   18.6960 C   0  0  0  0  0  0  0  0  0  0  0  0
    5.4990   -4.0510   19.7300 O   0  0  0  0  0  0  0  0  0  0  0  0
    6.3650   -3.1680   19.8530 C   0  0  0  0  0  0  0  0  0  0  0  0
    9.4810   -2.4010   23.9790 C   0  0  0  0  0  0  0  0  0  0  0  0
   12.6250    1.5590   23.2100 Cl  0  0  0  0  0  0  0  0  0  0  0  0
    6.9730   -0.4860   21.9850 O   0  0  0  0  0  0  0  0  0  0  0  0
    6.5060   -2.3650   21.0030 N   0  0  0  0  0  0  0  0  0  0  0  0
    7.4730   -1.2810   21.2130 C   0  0  2  0  0  0  0  0  0  0  0  0
    8.7160   -1.7760   21.6360 C   0  0  0  0  0  0  0  0  0  0  0  0
    8.5400   -2.5750   22.8800 N   0  0  0  0  0  0  0  0  0  0  0  0
    7.4480   -3.5530   22.9380 C   0  0  0  0  0  0  0  0  0  0  0  0
    6.3390   -2.9930   22.2980 C   0  0  0  0  0  0  0  0  0  0  0  0
   12.0330   -2.0280   24.1700 C   0  0  0  0  0  0  0  0  0  0  0  0
   10.7710   -1.6860   23.7180 C   0  0  0  0  0  0  0  0  0  0  0  0
   10.9420   -0.4020   22.9050 C   0  0  0  0  0  0  0  0  0  0  0  0
   12.3150   -0.0630   22.8500 C   0  0  2  0  0  0  0  0  0  0  0  0
   12.9690   -1.1130   23.7250 C   0  0  0  0  0  0  0  0  0  0  0  0
    6.4820    0.6840   18.1820 N   0  0  0  0  0  0  0  0  0  0  0  0
    6.4600    0.1510   19.4450 C   0  0  0  0  0  0  0  0  0  0  0  0
    5.4080    0.1930   20.3280 C   0  0  0  0  0  0  0  0  0  0  0  0
    4.2450    0.8800   19.8720 C   0  0  0  0  0  0  0  0  0  0  0  0
    4.2580    1.4320   18.6220 C   0  0  0  0  0  0  0  0  0  0  0  0
    5.3630    1.3280   17.8020 C   0  0  0  0  0  0  0  0  0  0  0  0
    7.5970   -0.4790   19.9150 C   0  0  0  0  0  0  0  0  0  0  0  0
  1  3  1  0
  2  3  2  0
  3  7  1  0
  8  6  1  1
  7  8  1  0
  8  9  1  0
  4 10  1  0
  9 10  1  0
 10 11  1  0
  7 12  1  0
 11 12  1  0
  4 14  1  0
 13 14  1  0
 14 15  2  0
 16  5  1  1
 15 16  1  0
 13 17  2  0
 16 17  1  0
 18 19  2  0
 19 20  1  0
 20 21  2  0
 21 22  1  0
 18 23  1  0
 22 23  2  0
  8 24  1  0
 19 24  1  0
M  END
