x1382-x0769
     RDKit          3D

 31 33  0  0  0  0  0  0  0  0999 V2000
    5.8810   -5.1620   26.7490 O   0  0  0  0  0  0  0  0  0  0  0  0
    3.8900   -6.5050   26.0340 O   0  0  0  0  0  0  0  0  0  0  0  0
    5.5790   -4.3390   19.9040 O   0  0  0  0  0  0  0  0  0  0  0  0
    6.5370   -4.3580   20.7140 C   0  0  0  0  0  0  0  0  0  0  0  0
    7.8440   -3.5990   20.4510 C   0  0  0  0  0  0  0  0  0  0  0  0
    5.6590   -2.3750   26.2300 F   0  0  0  0  0  0  0  0  0  0  0  0
    4.7900   -5.3910   25.8340 S   0  0  0  0  0  0  0  0  0  0  0  0
   13.4170   -2.1340   21.0820 Cl  0  0  0  0  0  0  0  0  0  0  0  0
    7.7890   -1.7080   24.3550 C   0  0  0  0  0  0  0  0  0  0  0  0
    8.5660   -1.9020   23.0430 C   0  0  1  0  0  0  0  0  0  0  0  0
    7.7950   -1.3990   21.9440 N   0  0  0  0  0  0  0  0  0  0  0  0
    7.7440   -2.0420   20.6370 C   0  0  0  0  0  0  0  0  0  0  0  0
    7.6110   -1.2990   19.6650 O   0  0  0  0  0  0  0  0  0  0  0  0
    4.3330   -2.5610   26.0810 C   0  0  0  0  0  0  0  0  0  0  0  0
    3.7180   -3.9590   25.8750 C   0  0  0  0  0  0  0  0  0  0  0  0
    2.1850   -4.0800   25.7140 C   0  0  0  0  0  0  0  0  0  0  0  0
    1.3000   -2.8380   25.7600 C   0  0  0  0  0  0  0  0  0  0  0  0
    2.0080   -1.4770   25.9730 C   0  0  0  0  0  0  0  0  0  0  0  0
    3.3890   -1.3530   26.1170 C   0  0  0  0  0  0  0  0  0  0  0  0
    6.5010   -5.1030   21.8940 N   0  0  0  0  0  0  0  0  0  0  0  0
    5.5550   -6.1160   22.0690 C   0  0  0  0  0  0  0  0  0  0  0  0
    4.7130   -6.0140   23.1640 C   0  0  0  0  0  0  0  0  0  0  0  0
    5.4980   -5.5070   24.2830 N   0  0  0  0  0  0  0  0  0  0  0  0
    6.2520   -4.3000   23.9560 C   0  0  0  0  0  0  0  0  0  0  0  0
    7.2560   -4.6150   23.0470 C   0  0  0  0  0  0  0  0  0  0  0  0
    9.9470   -1.2680   23.0680 C   0  0  0  0  0  0  0  0  0  0  0  0
   10.9410   -1.9300   22.1620 C   0  0  0  0  0  0  0  0  0  0  0  0
   12.3400   -1.3750   22.1110 C   0  0  0  0  0  0  0  0  0  0  0  0
   12.7050   -0.1730   22.9690 C   0  0  0  0  0  0  0  0  0  0  0  0
   11.5910    0.3890   23.8360 C   0  0  0  0  0  0  0  0  0  0  0  0
   10.3070   -0.1620   23.8500 C   0  0  0  0  0  0  0  0  0  0  0  0
  3  4  2  0
  4  5  1  0
  1  7  2  0
  2  7  2  0
 10  9  1  1
 10 11  1  0
  5 12  1  0
 11 12  1  0
 12 13  2  0
  6 14  1  0
  7 15  1  0
 14 15  2  0
 15 16  1  0
 16 17  2  0
 17 18  1  0
 14 19  1  0
 18 19  2  0
  4 20  1  0
 20 21  1  0
 21 22  1  0
  7 23  1  0
 22 23  1  0
 23 24  1  0
 20 25  1  0
 24 25  1  0
 10 26  1  0
 26 27  2  0
  8 28  1  0
 27 28  1  0
 28 29  2  0
 29 30  1  0
 26 31  1  0
 30 31  2  0
M  END
