x1384-x3117
     RDKit          3D

 43 48  0  0  0  0  0  0  0  0999 V2000
    7.0920   -1.0180   22.2800 N   0  0  0  0  0  0  0  0  0  0  0  0
    7.7800    2.3700   22.8250 N   0  0  0  0  0  0  0  0  0  0  0  0
    8.8920    1.3410   21.1180 O   0  0  0  0  0  0  0  0  0  0  0  0
    6.8290    0.3180   21.9060 C   0  0  1  0  0  0  0  0  0  0  0  0
    7.9360    1.3500   21.8920 C   0  0  0  0  0  0  0  0  0  0  0  0
   12.5110   -1.9840   23.8380 C   0  0  0  0  0  0  0  0  0  0  0  0
   12.9920   -0.6120   24.1540 C   0  0  0  0  0  0  0  0  0  0  0  0
   13.3340   -2.4950   22.7560 C   0  0  0  0  0  0  0  0  0  0  0  0
   12.7660   -2.9130   25.0250 C   0  0  0  0  0  0  0  0  0  0  0  0
    6.5150   -3.2070   21.5370 N   0  0  0  0  0  0  0  0  0  0  0  0
    7.3420   -3.1030   19.1710 C   0  0  0  0  0  0  0  0  0  0  0  0
    5.5750   -4.5310   19.9260 O   0  0  0  0  0  0  0  0  0  0  0  0
    6.4230   -3.6820   20.2250 C   0  0  0  0  0  0  0  0  0  0  0  0
    6.2440   -1.9000   21.5680 C   0  0  0  0  0  0  0  0  0  0  0  0
    6.2680    0.2270   17.8860 N   0  0  0  0  0  0  0  0  0  0  0  0
    5.1500    0.9880   17.8760 C   0  0  0  0  0  0  0  0  0  0  0  0
    4.5740    1.5010   19.0550 C   0  0  0  0  0  0  0  0  0  0  0  0
    5.1300    1.2600   20.3190 C   0  0  0  0  0  0  0  0  0  0  0  0
    6.2740    0.5100   20.5110 C   0  0  0  0  0  0  0  0  0  0  0  0
    6.9170   -0.0670   19.2720 C   0  0  0  0  0  0  0  0  0  0  0  0
    9.5050    5.3640   24.3790 O   0  0  0  0  0  0  0  0  0  0  0  0
   10.5240    4.4010   24.2470 C   0  0  0  0  0  0  0  0  0  0  0  0
   10.0290    3.2000   23.3540 C   0  0  0  0  0  0  0  0  0  0  0  0
    8.7710    3.4260   22.4960 C   0  0  0  0  0  0  0  0  0  0  0  0
    8.0770    4.6010   22.7590 C   0  0  0  0  0  0  0  0  0  0  0  0
    8.8620    5.7070   23.1370 C   0  0  0  0  0  0  0  0  0  0  0  0
    9.3670   -1.7050   21.7060 C   0  0  0  0  0  0  0  0  0  0  0  0
   10.6560   -1.9200   22.1440 C   0  0  0  0  0  0  0  0  0  0  0  0
   11.0880   -1.7770   23.4510 C   0  0  0  0  0  0  0  0  0  0  0  0
   10.1330   -1.4080   24.3790 C   0  0  0  0  0  0  0  0  0  0  0  0
    8.8390   -1.1890   23.9470 C   0  0  0  0  0  0  0  0  0  0  0  0
    8.4120   -1.3080   22.6420 C   0  0  0  0  0  0  0  0  0  0  0  0
    5.2950   -3.1430   27.3030 O   0  0  0  0  0  0  0  0  0  0  0  0
    3.8670   -3.7670   23.9620 C   0  0  2  0  0  0  0  0  0  0  0  0
    5.0360   -3.3420   23.6280 C   0  0  1  0  0  0  0  0  0  0  0  0
    5.3340   -3.9030   24.8240 C   0  0  2  0  0  0  0  0  0  0  0  0
    5.0820   -5.2820   25.1340 C   0  0  0  0  0  0  0  0  0  0  0  0
    4.5560   -6.2080   24.1540 C   0  0  0  0  0  0  0  0  0  0  0  0
    3.8050   -5.2050   23.4960 C   0  0  0  0  0  0  0  0  0  0  0  0
    5.3310   -2.8090   25.9500 C   0  0  1  0  0  0  0  0  0  0  0  0
    4.1050   -3.0340   25.3300 C   0  0  0  0  0  0  0  0  0  0  0  0
    2.7720   -3.1240   24.9390 C   0  0  0  0  0  0  0  0  0  0  0  0
    5.6530   -4.0070   22.4130 C   0  0  0  0  0  0  0  0  0  0  0  0
  1  4  1  0
  2  5  1  0
  3  5  2  0
  4  5  1  6
  6  7  1  0
  6  8  1  0
  6  9  1  0
 10 13  1  0
 11 13  1  0
 12 13  2  0
  1 14  1  0
 10 14  1  0
 15 16  2  0
 16 17  1  0
 17 18  2  0
  4 19  1  0
 18 19  1  0
 15 20  1  0
 19 20  2  0
 21 22  1  0
 22 23  1  0
  2 24  1  0
 23 24  1  0
 24 25  1  0
 21 26  1  0
 25 26  1  0
 27 28  2  0
  6 29  1  0
 28 29  1  0
 29 30  2  0
 30 31  1  0
  1 32  1  0
 27 32  1  0
 31 32  2  0
 34 35  1  0
 34 36  1  0
 35 36  1  0
 36 37  1  6
 37 38  1  0
 34 39  1  6
 38 39  2  0
 40 33  1  1
 36 40  1  0
 40 41  1  0
 34 42  1  0
 41 42  2  0
 10 43  1  0
 35 43  1  6
M  END
