x1386-x1336
     RDKit          3D

 26 28  0  0  0  0  0  0  0  0999 V2000
    5.9120   -5.3600   29.1380 C   0  0  0  0  0  0  0  0  0  0  0  0
    8.5420   -0.8580   25.2610 O   0  0  0  0  0  0  0  0  0  0  0  0
    6.1130   -1.2920   25.6780 O   0  0  0  0  0  0  0  0  0  0  0  0
    5.4340   -4.1860   19.7520 O   0  0  0  0  0  0  0  0  0  0  0  0
   10.3310   -3.7170   25.1800 C   0  0  0  0  0  0  0  0  0  0  0  0
    6.4540   -3.5340   19.9400 C   0  0  0  0  0  0  0  0  0  0  0  0
    7.3850   -3.0660   18.8150 C   0  0  0  0  0  0  0  0  0  0  0  0
    7.4190   -1.7680   25.2690 S   0  0  0  0  0  0  0  0  0  0  0  0
    7.0400   -4.9150   28.0970 C   0  0  0  0  0  0  0  0  0  0  0  0
    6.8020   -3.6750   27.2100 C   0  0  0  0  0  0  0  0  0  0  0  0
    7.8470   -3.2220   26.2170 C   0  0  0  0  0  0  0  0  0  0  0  0
    9.1620   -4.0060   26.0940 C   0  0  0  0  0  0  0  0  0  0  0  0
    9.3120   -5.2150   26.9980 C   0  0  0  0  0  0  0  0  0  0  0  0
    8.2260   -5.6280   27.9800 C   0  0  0  0  0  0  0  0  0  0  0  0
    6.8460   -3.2000   21.2200 N   0  0  0  0  0  0  0  0  0  0  0  0
    6.6500   -4.1430   22.3100 C   0  0  0  0  0  0  0  0  0  0  0  0
    6.3040   -3.4730   23.4660 C   0  0  0  0  0  0  0  0  0  0  0  0
    7.2620   -2.3550   23.7220 N   0  0  0  0  0  0  0  0  0  0  0  0
    7.7030   -1.6140   22.6780 C   0  0  0  0  0  0  0  0  0  0  0  0
    7.8980   -2.2160   21.4390 C   0  0  0  0  0  0  0  0  0  0  0  0
   12.0700   -1.6750   22.7880 C   0  0  0  0  0  0  0  0  0  0  0  0
   11.0660   -1.6480   23.7540 C   0  0  0  0  0  0  0  0  0  0  0  0
   11.0200   -0.4660   24.4900 C   0  0  0  0  0  0  0  0  0  0  0  0
   12.2290    0.6170   23.9590 S   0  0  0  0  0  0  0  0  0  0  0  0
   12.7940   -0.4950   22.7880 C   0  0  0  0  0  0  0  0  0  0  0  0
   10.1120   -2.7970   23.9700 C   0  0  0  0  0  0  0  0  0  0  0  0
  4  6  2  0
  6  7  1  0
  2  8  2  0
  3  8  2  0
  1  9  1  0
  9 10  2  0
  8 11  1  0
 10 11  1  0
  5 12  1  0
 11 12  2  0
 12 13  1  0
  9 14  1  0
 13 14  2  0
  6 15  1  0
 15 16  1  0
 16 17  1  0
  8 18  1  0
 17 18  1  0
 18 19  1  0
 15 20  1  0
 19 20  1  0
 21 22  1  0
 22 23  2  0
 23 24  1  0
 21 25  2  0
 24 25  1  0
  5 26  1  0
 22 26  1  0
M  END
