x1380-x2600
     RDKit          3D

 36 39  0  0  0  0  0  0  0  0999 V2000
    7.0660   -3.2640   19.2170 C   0  0  0  0  0  0  0  0  0  0  0  0
    5.1900   -4.5910   19.8780 O   0  0  0  0  0  0  0  0  0  0  0  0
    6.2330   -4.0460   20.2110 C   0  0  0  0  0  0  0  0  0  0  0  0
    5.0290   -2.5370   25.2420 O   0  0  0  0  0  0  0  0  0  0  0  0
    6.0610   -3.1990   25.3670 C   0  0  0  0  0  0  0  0  0  0  0  0
   13.5490   -3.1280   20.6750 N   0  0  0  0  0  0  0  0  0  0  0  0
    8.1790   -0.0050   21.8920 C   0  0  0  0  0  0  0  0  0  0  0  0
    8.7880    0.9300   21.3640 O   0  0  0  0  0  0  0  0  0  0  0  0
    8.6710   -0.4920   23.1170 C   0  0  1  0  0  0  0  0  0  0  0  0
    7.0380   -0.5580   21.3360 N   0  0  0  0  0  0  0  0  0  0  0  0
   12.9480   -2.1280   21.4540 C   0  0  0  0  0  0  0  0  0  0  0  0
    8.2320   -1.8310   23.8340 C   0  0  0  0  0  0  0  0  0  0  0  0
    6.7340   -4.1740   21.4810 N   0  0  0  0  0  0  0  0  0  0  0  0
    6.4390   -5.2660   22.3840 C   0  0  0  0  0  0  0  0  0  0  0  0
    5.9230   -4.7440   23.5470 C   0  0  0  0  0  0  0  0  0  0  0  0
    6.7490   -3.7380   24.0870 C   0  0  1  0  0  0  0  0  0  0  0  0
    7.0680   -2.6590   23.2010 C   0  0  2  0  0  0  0  0  0  0  0  0
    7.5470   -3.0960   21.9920 C   0  0  0  0  0  0  0  0  0  0  0  0
    7.9530   -3.8780   26.9430 C   0  0  0  0  0  0  0  0  0  0  0  0
    7.9840   -5.3390   27.4510 C   0  0  0  0  0  0  0  0  0  0  0  0
    7.0640   -5.3920   28.6590 C   0  0  0  0  0  0  0  0  0  0  0  0
    5.6630   -4.7920   28.4740 C   0  0  0  0  0  0  0  0  0  0  0  0
    5.6230   -3.4320   27.7900 C   0  0  0  0  0  0  0  0  0  0  0  0
    6.5650   -3.4640   26.6360 N   0  0  0  0  0  0  0  0  0  0  0  0
    6.4230    0.4770   17.8230 N   0  0  0  0  0  0  0  0  0  0  0  0
    6.8950   -0.0470   18.9240 C   0  0  0  0  0  0  0  0  0  0  0  0
    6.3800    0.0660   20.2080 C   0  0  0  0  0  0  0  0  0  0  0  0
    5.1910    0.8300   20.3660 C   0  0  0  0  0  0  0  0  0  0  0  0
    4.5970    1.4390   19.2170 C   0  0  0  0  0  0  0  0  0  0  0  0
    5.2110    1.2600   17.9790 C   0  0  0  0  0  0  0  0  0  0  0  0
   10.8270    0.5890   23.8070 C   0  0  0  0  0  0  0  0  0  0  0  0
   12.2030    0.6790   23.7480 C   0  0  0  0  0  0  0  0  0  0  0  0
   12.9080   -0.2090   22.9740 C   0  0  0  0  0  0  0  0  0  0  0  0
   12.2620   -1.1930   22.2540 C   0  0  0  0  0  0  0  0  0  0  0  0
   10.8860   -1.2910   22.3000 C   0  0  0  0  0  0  0  0  0  0  0  0
   10.1640   -0.3920   23.0810 C   0  0  0  0  0  0  0  0  0  0  0  0
  1  3  1  0
  2  3  2  0
  4  5  2  0
  7  8  2  0
  7  9  1  0
  7 10  1  0
  6 11  3  0
  9 12  1  6
  3 13  1  0
 13 14  1  0
 14 15  1  0
 16  5  1  1
 15 16  1  0
 17 12  1  1
 16 17  1  0
 13 18  1  0
 17 18  1  0
 19 20  1  0
 20 21  1  0
 21 22  1  0
 22 23  1  0
  5 24  1  0
 19 24  1  0
 23 24  1  0
 25 26  2  0
 10 27  1  0
 26 27  1  0
 27 28  2  0
 28 29  1  0
 25 30  1  0
 29 30  2  0
 31 32  2  0
 32 33  1  0
 11 34  1  0
 33 34  2  0
 34 35  1  0
  9 36  1  0
 31 36  1  0
 35 36  2  0
M  END
