x1380-x2754
     RDKit          3D

 19 20  0  0  0  0  0  0  0  0999 V2000
    4.7370   -3.2480   25.2700 C   0  0  0  0  0  0  0  0  0  0  0  0
    3.4050   -2.9420   24.8490 O   0  0  0  0  0  0  0  0  0  0  0  0
    5.2160   -3.2210   26.5870 N   0  0  0  0  0  0  0  0  0  0  0  0
    5.1680   -4.5090   19.8490 O   0  0  0  0  0  0  0  0  0  0  0  0
    6.1990   -4.0140   20.2720 C   0  0  0  0  0  0  0  0  0  0  0  0
    7.0870   -3.2500   19.3180 C   0  0  0  0  0  0  0  0  0  0  0  0
    4.7050   -2.2780   27.5620 C   0  0  0  0  0  0  0  0  0  0  0  0
    6.5880   -4.1730   21.5860 N   0  0  0  0  0  0  0  0  0  0  0  0
    7.1240   -3.0140   22.2480 C   0  0  0  0  0  0  0  0  0  0  0  0
    6.4970   -2.6440   23.5890 C   0  0  0  0  0  0  0  0  0  0  0  0
    5.7760   -3.6660   24.2090 C   0  0  0  0  0  0  0  0  0  0  0  0
    5.2670   -4.6060   23.3090 C   0  0  0  0  0  0  0  0  0  0  0  0
    6.1990   -5.2600   22.5030 C   0  0  0  0  0  0  0  0  0  0  0  0
    6.7680   -5.0050   27.3950 C   0  0  0  0  0  0  0  0  0  0  0  0
    8.0390   -5.4870   27.7150 C   0  0  0  0  0  0  0  0  0  0  0  0
    9.1760   -4.7150   27.5970 C   0  0  0  0  0  0  0  0  0  0  0  0
    9.0140   -3.2910   27.0970 C   0  0  0  0  0  0  0  0  0  0  0  0
    7.6590   -2.7230   26.7380 C   0  0  0  0  0  0  0  0  0  0  0  0
    6.5420   -3.7060   26.9290 C   0  0  0  0  0  0  0  0  0  0  0  0
  1  2  2  0
  1  3  1  0
  4  5  2  0
  5  6  1  0
  3  7  1  0
  5  8  1  0
  8  9  1  0
  9 10  1  0
  1 11  1  0
 10 11  1  0
 11 12  1  0
  8 13  1  0
 12 13  1  0
 14 15  2  0
 15 16  1  0
 16 17  2  0
 17 18  1  0
  3 19  1  0
 14 19  1  0
 18 19  2  0
M  END
