x1386-x1385
     RDKit          3D

 21 23  0  0  0  0  0  0  0  0999 V2000
    7.3800   -2.9780   18.8120 C   0  0  0  0  0  0  0  0  0  0  0  0
    5.4250   -4.0260   19.6930 O   0  0  0  0  0  0  0  0  0  0  0  0
    6.3660   -3.2510   19.9160 C   0  0  0  0  0  0  0  0  0  0  0  0
    9.7900   -3.1190   23.7420 C   0  0  2  0  0  0  0  0  0  0  0  0
    7.2970   -5.4860   28.4590 Br  0  0  0  0  0  0  0  0  0  0  0  0
    6.5240   -2.6530   21.1630 N   0  0  0  0  0  0  0  0  0  0  0  0
    6.3280   -3.2730   22.4630 C   0  0  0  0  0  0  0  0  0  0  0  0
    7.5470   -3.7310   22.9770 C   0  0  0  0  0  0  0  0  0  0  0  0
    8.5960   -2.6710   23.0420 N   0  0  0  0  0  0  0  0  0  0  0  0
    8.7580   -1.8200   21.8630 C   0  0  0  0  0  0  0  0  0  0  0  0
    7.4880   -1.5670   21.3350 C   0  0  0  0  0  0  0  0  0  0  0  0
    9.8850   -5.2740   25.2510 C   0  0  0  0  0  0  0  0  0  0  0  0
    9.3950   -4.0090   24.9270 C   0  0  0  0  0  0  0  0  0  0  0  0
    8.1870   -3.5830   26.0840 S   0  0  0  0  0  0  0  0  0  0  0  0
    8.3430   -5.0450   26.9320 C   0  0  0  0  0  0  0  0  0  0  0  0
    9.3140   -5.8890   26.3830 C   0  0  0  0  0  0  0  0  0  0  0  0
   11.7770   -1.9330   22.8100 C   0  0  0  0  0  0  0  0  0  0  0  0
   10.7830   -1.9390   23.7900 C   0  0  0  0  0  0  0  0  0  0  0  0
   10.8470   -0.8510   24.6470 C   0  0  0  0  0  0  0  0  0  0  0  0
   12.1390    0.2360   24.2740 S   0  0  0  0  0  0  0  0  0  0  0  0
   12.6740   -0.6960   22.9620 C   0  0  0  0  0  0  0  0  0  0  0  0
  1  3  1  0
  2  3  2  0
  3  6  1  0
  6  7  1  0
  7  8  1  0
  4  9  1  0
  8  9  1  0
  9 10  1  0
  6 11  1  0
 10 11  1  0
  4 13  1  1
 12 13  2  0
 13 14  1  0
  5 15  1  0
 14 15  1  0
 12 16  1  0
 15 16  2  0
  4 18  1  0
 17 18  1  0
 18 19  2  0
 19 20  1  0
 17 21  2  0
 20 21  1  0
M  END
