x1385-x0978
     RDKit          3D

 28 29  0  0  0  0  0  0  0  0999 V2000
    1.9290   -5.7570   23.2910 N   0  0  0  0  0  0  0  0  0  0  0  0
    2.0870   -8.0580   24.5180 C   0  0  0  0  0  0  0  0  0  0  0  0
    4.4270   -7.8230   24.3580 O   0  0  0  0  0  0  0  0  0  0  0  0
    3.3540   -7.2610   24.4030 C   0  0  1  0  0  0  0  0  0  0  0  0
    5.5750   -5.6340   22.4120 N   0  0  0  0  0  0  0  0  0  0  0  0
    0.7310   -7.2800   21.8470 O   0  0  0  0  0  0  0  0  0  0  0  0
    3.2230   -6.4410   23.2560 C   0  0  2  0  0  0  0  0  0  0  0  0
    4.0990   -4.0010   23.5790 O   0  0  0  0  0  0  0  0  0  0  0  0
    0.7390   -6.2670   22.5320 C   0  0  0  0  0  0  0  0  0  0  0  0
   -0.4990   -5.3410   22.7180 C   0  0  0  0  0  0  0  0  0  0  0  0
    4.3100   -5.3080   23.0920 C   0  0  0  0  0  0  0  0  0  0  0  0
    6.1440   -4.9260   21.6590 C   0  0  0  0  0  0  0  0  0  0  0  0
    7.4030   -3.0050   18.8020 C   0  0  0  0  0  0  0  0  0  0  0  0
    5.3620   -3.9020   19.5930 O   0  0  0  0  0  0  0  0  0  0  0  0
    6.3790   -3.2780   19.8720 C   0  0  0  0  0  0  0  0  0  0  0  0
    9.5790   -3.0960   24.0780 C   0  0  0  0  0  0  0  0  0  0  0  0
    7.1940   -5.7740   28.5200 Br  0  0  0  0  0  0  0  0  0  0  0  0
    6.6480   -2.8260   21.1780 N   0  0  0  0  0  0  0  0  0  0  0  0
    6.5740   -3.7480   22.1890 C   0  0  2  0  0  0  0  0  0  0  0  0
    7.7580   -3.9730   22.8900 C   0  0  0  0  0  0  0  0  0  0  0  0
    8.3660   -2.7900   23.2830 N   0  0  0  0  0  0  0  0  0  0  0  0
    8.6570   -2.0820   22.1790 C   0  0  0  0  0  0  0  0  0  0  0  0
    7.5370   -1.7850   21.3960 C   0  0  0  0  0  0  0  0  0  0  0  0
    9.8000   -5.3650   25.3680 C   0  0  0  0  0  0  0  0  0  0  0  0
    9.2550   -4.1080   25.1380 C   0  0  0  0  0  0  0  0  0  0  0  0
    8.0300   -3.7570   26.2760 S   0  0  0  0  0  0  0  0  0  0  0  0
    8.2410   -5.2490   27.0260 C   0  0  0  0  0  0  0  0  0  0  0  0
    9.2350   -6.0120   26.4340 C   0  0  0  0  0  0  0  0  0  0  0  0
  4  2  1  6
  3  4  1  0
  7  1  1  1
  4  7  1  0
  1  9  1  0
  6  9  2  0
  9 10  1  0
  5 11  1  0
  7 11  1  0
  8 11  2  0
  5 12  1  0
 13 15  1  0
 14 15  2  0
 15 18  1  0
 19 12  1  6
 18 19  1  0
 19 20  1  0
 16 21  1  0
 20 21  1  0
 21 22  1  0
 18 23  1  0
 22 23  1  0
 16 25  1  0
 24 25  2  0
 25 26  1  0
 17 27  1  0
 26 27  1  0
 24 28  1  0
 27 28  2  0
M  END
