x1384-x0426-x2694-x0978
     RDKit          3D

 67 74  0  0  0  0  0  0  0  0999 V2000
    7.4420   -1.0700   21.8430 N   0  0  0  0  0  0  0  0  0  0  0  0
    7.7410    2.5740   22.7240 N   0  0  0  0  0  0  0  0  0  0  0  0
    9.0410    1.5030   21.0770 O   0  0  0  0  0  0  0  0  0  0  0  0
   11.1150    6.8300   23.9560 O   0  0  0  0  0  0  0  0  0  0  0  0
    6.9930    0.3760   21.7260 C   0  0  1  0  0  0  0  0  0  0  0  0
    8.0410    1.4960   21.7760 C   0  0  0  0  0  0  0  0  0  0  0  0
   10.3310    2.0890   23.9980 C   0  0  0  0  0  0  0  0  0  0  0  0
   11.8680    6.6420   25.1520 C   0  0  0  0  0  0  0  0  0  0  0  0
   12.3550   -1.4700   23.2460 C   0  0  0  0  0  0  0  0  0  0  0  0
   12.8790   -0.0370   23.4280 C   0  0  0  0  0  0  0  0  0  0  0  0
   12.8830   -1.9920   21.8910 C   0  0  0  0  0  0  0  0  0  0  0  0
   12.8640   -2.3380   24.4320 C   0  0  0  0  0  0  0  0  0  0  0  0
    2.4840    1.9230   24.2940 C   0  0  0  0  0  0  0  0  0  0  0  0
    2.5900    0.7490   24.5770 O   0  0  0  0  0  0  0  0  0  0  0  0
    3.4180    2.6210   23.5600 N   0  0  0  0  0  0  0  0  0  0  0  0
    4.4200    1.8800   22.6940 C   0  0  0  0  0  0  0  0  0  0  0  0
    4.1710    2.1600   21.2240 C   0  0  0  0  0  0  0  0  0  0  0  0
    2.7150    4.4700   25.4900 F   0  0  0  0  0  0  0  0  0  0  0  0
    1.9240   -5.8150   23.2940 N   0  0  0  0  0  0  0  0  0  0  0  0
    1.9920   -8.4500   24.5240 C   0  0  0  0  0  0  0  0  0  0  0  0
    4.2930   -7.9280   24.8400 O   0  0  0  0  0  0  0  0  0  0  0  0
    3.1720   -7.4990   24.6670 C   0  0  1  0  0  0  0  0  0  0  0  0
    0.7760   -7.3610   21.8390 O   0  0  0  0  0  0  0  0  0  0  0  0
    3.2080   -6.5310   23.4810 C   0  0  2  0  0  0  0  0  0  0  0  0
    5.3660   -5.6580   24.1360 N   0  0  0  0  0  0  0  0  0  0  0  0
    0.7830   -6.3370   22.5160 C   0  0  0  0  0  0  0  0  0  0  0  0
   -0.4430   -5.4280   22.6470 C   0  0  0  0  0  0  0  0  0  0  0  0
    5.2580   -4.0400   21.9440 C   0  0  0  0  0  0  0  0  0  0  0  0
    6.3040   -1.9130   22.3890 C   0  0  0  0  0  0  0  0  0  0  0  0
    6.5290   -3.2830   22.3700 C   0  0  2  0  0  0  0  0  0  0  0  0
    7.3250   -3.5370   21.3430 N   0  0  0  0  0  0  0  0  0  0  0  0
    7.5120   -3.1420   19.1280 C   0  0  0  0  0  0  0  0  0  0  0  0
    5.7120   -4.2150   19.7940 O   0  0  0  0  0  0  0  0  0  0  0  0
    6.7870   -3.6600   20.0900 C   0  0  0  0  0  0  0  0  0  0  0  0
    4.8250   -2.4330   27.4450 O   0  0  0  0  0  0  0  0  0  0  0  0
    6.4260    0.2300   17.9300 N   0  0  0  0  0  0  0  0  0  0  0  0
    5.3190    0.9640   17.8520 C   0  0  0  0  0  0  0  0  0  0  0  0
    4.6580    1.5370   18.9130 C   0  0  0  0  0  0  0  0  0  0  0  0
    5.0640    1.4380   20.2430 C   0  0  0  0  0  0  0  0  0  0  0  0
    6.2620    0.6680   20.4210 C   0  0  0  0  0  0  0  0  0  0  0  0
    6.9110    0.0640   19.1600 C   0  0  0  0  0  0  0  0  0  0  0  0
    8.6860   -1.4050   23.9980 N   0  0  0  0  0  0  0  0  0  0  0  0
   10.0590   -1.5160   24.3590 O   0  0  0  0  0  0  0  0  0  0  0  0
   10.8550   -1.4130   23.2510 C   0  0  0  0  0  0  0  0  0  0  0  0
   10.0370   -1.2420   22.1760 C   0  0  0  0  0  0  0  0  0  0  0  0
    8.6070   -1.2330   22.6540 C   0  0  0  0  0  0  0  0  0  0  0  0
    9.8340    3.4660   23.6350 C   0  0  0  0  0  0  0  0  0  0  0  0
   10.6580    4.5520   23.9240 C   0  0  0  0  0  0  0  0  0  0  0  0
   10.2380    5.8370   23.6170 C   0  0  0  0  0  0  0  0  0  0  0  0
    8.9920    6.0060   23.0060 C   0  0  0  0  0  0  0  0  0  0  0  0
    8.1750    4.9390   22.7100 C   0  0  0  0  0  0  0  0  0  0  0  0
    8.5850    3.6420   23.0270 C   0  0  0  0  0  0  0  0  0  0  0  0
    1.4590    4.0250   25.3710 C   0  0  0  0  0  0  0  0  0  0  0  0
    1.2650    2.7640   24.7760 C   0  0  0  0  0  0  0  0  0  0  0  0
   -0.2070    2.3150   24.6670 C   0  0  0  0  0  0  0  0  0  0  0  0
   -1.1910    3.1830   25.1640 C   0  0  0  0  0  0  0  0  0  0  0  0
   -0.8870    4.4120   25.7410 C   0  0  0  0  0  0  0  0  0  0  0  0
    0.4250    4.8220   25.8380 C   0  0  0  0  0  0  0  0  0  0  0  0
    4.0860   -3.4890   24.0080 C   0  0  2  0  0  0  0  0  0  0  0  0
    4.9380   -4.3460   24.4230 C   0  0  0  0  0  0  0  0  0  0  0  0
    5.1940   -3.7530   25.2970 C   0  0  1  0  0  0  0  0  0  0  0  0
    4.0950   -4.8950   25.2720 C   0  0  0  0  0  0  0  0  0  0  0  0
    4.1970   -5.3940   23.7520 C   0  0  2  0  0  0  0  0  0  0  0  0
    4.0770   -4.1890   22.9150 C   0  0  2  0  0  0  0  0  0  0  0  0
    4.6190   -2.3900   26.0580 C   0  0  1  0  0  0  0  0  0  0  0  0
    3.6700   -3.3020   25.5310 C   0  0  0  0  0  0  0  0  0  0  0  0
    4.4600   -2.3270   24.4840 C   0  0  0  0  0  0  0  0  0  0  0  0
  1  5  1  0
  2  6  1  0
  3  6  2  0
  5  6  1  6
  4  8  1  0
  9 10  1  0
  9 11  1  0
  9 12  1  0
 13 14  2  0
 13 15  1  0
 15 16  1  0
 16 17  1  0
 22 20  1  6
 21 22  1  0
 24 19  1  1
 22 24  1  0
 19 26  1  0
 23 26  2  0
 26 27  1  0
  1 29  1  0
 30 28  1  6
 29 30  1  0
 30 31  1  0
 31 34  1  0
 32 34  1  0
 33 34  2  0
 36 37  2  0
 37 38  1  0
 17 39  1  0
 38 39  2  0
  5 40  1  0
 39 40  1  0
 36 41  1  0
 40 41  2  0
 42 43  1  0
  9 44  1  0
 43 44  1  0
 44 45  2  0
  1 46  1  0
 42 46  2  0
 45 46  1  0
  7 47  1  0
 47 48  2  0
  4 49  1  0
 48 49  1  0
 49 50  2  0
 50 51  1  0
  2 52  1  0
 47 52  1  0
 51 52  2  0
 18 53  1  0
 13 54  1  0
 53 54  2  0
 54 55  1  0
 55 56  2  0
 56 57  1  0
 53 58  1  0
 57 58  2  0
 25 60  2  0
 59 60  1  0
 59 61  1  0
 60 61  1  0
 61 62  1  1
 24 63  1  0
 63 25  1  0
 63 62  1  1
 64 28  1  6
 59 64  1  0
 63 64  1  0
 65 35  1  1
 61 65  1  0
 65 66  1  0
 59 67  1  1
 66 67  2  0
M  END
