x1384-x0978-x2694-x2705-x0426
     RDKit          3D

 70 77  0  0  0  0  0  0  0  0999 V2000
    7.5140   -0.9860   21.9200 N   0  0  0  0  0  0  0  0  0  0  0  0
    7.6490    2.7070   22.5720 N   0  0  0  0  0  0  0  0  0  0  0  0
    9.2450    1.5800   21.1600 O   0  0  0  0  0  0  0  0  0  0  0  0
   11.1490    7.0210   24.0290 O   0  0  0  0  0  0  0  0  0  0  0  0
    7.0120    0.4580   21.7830 C   0  0  1  0  0  0  0  0  0  0  0  0
    8.0130    1.5860   21.8370 C   0  0  0  0  0  0  0  0  0  0  0  0
   10.1890    1.9410   23.8810 C   0  0  0  0  0  0  0  0  0  0  0  0
   11.8890    6.8600   25.0280 C   0  0  0  0  0  0  0  0  0  0  0  0
   12.4210   -1.4240   23.2420 C   0  0  0  0  0  0  0  0  0  0  0  0
   12.9260    0.0460   23.3690 C   0  0  0  0  0  0  0  0  0  0  0  0
   12.8830   -1.9880   21.8870 C   0  0  0  0  0  0  0  0  0  0  0  0
   12.9310   -2.3340   24.3870 C   0  0  0  0  0  0  0  0  0  0  0  0
    9.2830    1.2560   24.9020 C   0  0  0  0  0  0  0  0  0  0  0  0
    2.3050    1.9570   24.2230 C   0  0  0  0  0  0  0  0  0  0  0  0
    2.3930    0.7960   24.5980 O   0  0  0  0  0  0  0  0  0  0  0  0
    3.1710    2.5170   23.3160 N   0  0  0  0  0  0  0  0  0  0  0  0
    4.0680    1.6920   22.5230 C   0  0  0  0  0  0  0  0  0  0  0  0
    3.9970    2.1090   21.1830 C   0  0  0  0  0  0  0  0  0  0  0  0
    2.8200    4.4180   25.5830 F   0  0  0  0  0  0  0  0  0  0  0  0
    1.8130   -5.7540   23.2950 N   0  0  0  0  0  0  0  0  0  0  0  0
    2.1150   -7.9250   25.1670 C   0  0  0  0  0  0  0  0  0  0  0  0
    4.3000   -7.9890   24.5870 O   0  0  0  0  0  0  0  0  0  0  0  0
    3.0110   -7.6630   24.1270 C   0  0  2  0  0  0  0  0  0  0  0  0
    0.6940   -7.3660   21.8370 O   0  0  0  0  0  0  0  0  0  0  0  0
    2.9910   -6.4810   23.3770 C   0  0  2  0  0  0  0  0  0  0  0  0
    5.3130   -6.0070   23.9590 N   0  0  0  0  0  0  0  0  0  0  0  0
    0.7460   -6.1600   22.5910 C   0  0  0  0  0  0  0  0  0  0  0  0
   -0.5870   -5.3780   22.4960 C   0  0  0  0  0  0  0  0  0  0  0  0
    5.2550   -3.9800   22.0000 C   0  0  0  0  0  0  0  0  0  0  0  0
    6.4310   -1.8870   22.2550 C   0  0  0  0  0  0  0  0  0  0  0  0
    6.5480   -3.2750   22.3590 C   0  0  2  0  0  0  0  0  0  0  0  0
    7.3930   -3.7240   21.3140 N   0  0  0  0  0  0  0  0  0  0  0  0
    7.5730   -3.1620   19.1430 C   0  0  0  0  0  0  0  0  0  0  0  0
    5.7000   -4.1740   19.7870 O   0  0  0  0  0  0  0  0  0  0  0  0
    6.8200   -3.7030   20.0600 C   0  0  0  0  0  0  0  0  0  0  0  0
    5.6610   -1.7660   25.3150 O   0  0  0  0  0  0  0  0  0  0  0  0
    6.4360    0.2380   17.9590 N   0  0  0  0  0  0  0  0  0  0  0  0
    5.2970    0.8960   17.8290 C   0  0  0  0  0  0  0  0  0  0  0  0
    4.5340    1.4910   18.9360 C   0  0  0  0  0  0  0  0  0  0  0  0
    4.9430    1.4240   20.2370 C   0  0  0  0  0  0  0  0  0  0  0  0
    6.2700    0.6830   20.4600 C   0  0  0  0  0  0  0  0  0  0  0  0
    6.8800    0.1440   19.2130 C   0  0  0  0  0  0  0  0  0  0  0  0
    8.8020   -1.3480   24.0280 N   0  0  0  0  0  0  0  0  0  0  0  0
   10.1280   -1.4700   24.3810 O   0  0  0  0  0  0  0  0  0  0  0  0
   10.8770   -1.3540   23.2650 C   0  0  0  0  0  0  0  0  0  0  0  0
   10.0060   -1.1650   22.2280 C   0  0  0  0  0  0  0  0  0  0  0  0
    8.7110   -1.1560   22.6880 C   0  0  0  0  0  0  0  0  0  0  0  0
    9.7670    3.3590   23.5690 C   0  0  0  0  0  0  0  0  0  0  0  0
   10.7320    4.4660   23.9650 C   0  0  0  0  0  0  0  0  0  0  0  0
   10.3980    5.9330   23.7140 C   0  0  0  0  0  0  0  0  0  0  0  0
    9.0630    6.1080   23.0390 C   0  0  0  0  0  0  0  0  0  0  0  0
    8.2700    5.0150   22.7170 C   0  0  0  0  0  0  0  0  0  0  0  0
    8.5610    3.6790   22.9530 C   0  0  0  0  0  0  0  0  0  0  0  0
    1.5570    4.0030   25.4430 C   0  0  0  0  0  0  0  0  0  0  0  0
    1.2240    2.8170   24.7870 C   0  0  0  0  0  0  0  0  0  0  0  0
   -0.1430    2.4050   24.6490 C   0  0  0  0  0  0  0  0  0  0  0  0
   -1.2030    3.1590   25.1670 C   0  0  0  0  0  0  0  0  0  0  0  0
   -0.8890    4.3320   25.8240 C   0  0  0  0  0  0  0  0  0  0  0  0
    0.5580    4.8120   25.9880 C   0  0  0  0  0  0  0  0  0  0  0  0
    4.1580   -3.6420   24.4070 C   0  0  1  0  0  0  0  0  0  0  0  0
    5.0560   -4.8640   24.5750 C   0  0  0  0  0  0  0  0  0  0  0  0
    5.2850   -4.1600   25.5560 C   0  0  2  0  0  0  0  0  0  0  0  0
    4.1620   -5.2920   25.5090 C   0  0  0  0  0  0  0  0  0  0  0  0
    4.0680   -5.4830   23.8050 C   0  0  2  0  0  0  0  0  0  0  0  0
    4.1260   -4.2440   22.9820 C   0  0  2  0  0  0  0  0  0  0  0  0
    5.1730   -2.8020   26.1330 C   0  0  2  0  0  0  0  0  0  0  0  0
    3.6850   -2.7660   26.1920 C   0  0  0  0  0  0  0  0  0  0  0  0
    2.8760   -3.2920   25.1960 C   0  0  0  0  0  0  0  0  0  0  0  0
    6.2270    4.4760   21.7510 C   0  0  0  0  0  0  0  0  0  0  0  0
    6.3090    3.2230   22.3120 C   0  0  0  0  0  0  0  0  0  0  0  0
  1  5  1  0
  2  6  1  0
  3  6  2  0
  5  6  1  6
  4  8  1  0
  9 10  1  0
  9 11  1  0
  9 12  1  0
  7 13  1  0
 14 15  2  0
 14 16  1  0
 16 17  1  0
 17 18  1  0
 23 21  1  1
 22 23  1  0
 25 20  1  1
 23 25  1  0
 20 27  1  0
 24 27  2  0
 27 28  1  0
  1 30  1  0
 31 29  1  6
 30 31  1  0
 31 32  1  0
 32 35  1  0
 33 35  1  0
 34 35  2  0
 37 38  2  0
 38 39  1  0
 18 40  1  0
 39 40  2  0
  5 41  1  0
 40 41  1  0
 37 42  1  0
 41 42  2  0
 43 44  1  0
  9 45  1  0
 44 45  1  0
 45 46  2  0
  1 47  1  0
 43 47  2  0
 46 47  1  0
  7 48  1  0
 48 49  2  0
  4 50  1  0
 49 50  1  0
 50 51  2  0
 51 52  1  0
  2 53  1  0
 48 53  1  0
 52 53  2  0
 19 54  1  0
 14 55  1  0
 54 55  2  0
 55 56  1  0
 56 57  2  0
 57 58  1  0
 54 59  1  0
 58 59  2  0
 26 61  2  0
 60 61  1  0
 60 62  1  0
 61 62  1  0
 62 63  1  1
 25 64  1  0
 64 26  1  0
 64 63  1  1
 65 29  1  6
 60 65  1  0
 64 65  1  0
 66 36  1  6
 62 66  1  0
 66 67  1  0
 60 68  1  1
 67 68  2  0
  2 70  1  0
 69 70  1  0
M  END
