x1384-x0305
     RDKit          3D

 28 31  0  0  0  0  0  0  0  0999 V2000
    6.0150   -2.6090   21.4920 N   0  0  0  0  0  0  0  0  0  0  0  0
    7.7570   -3.9710   20.5290 C   0  0  0  0  0  0  0  0  0  0  0  0
    5.4790   -4.0200   19.7380 O   0  0  0  0  0  0  0  0  0  0  0  0
    6.3210   -3.5490   20.5320 C   0  0  0  0  0  0  0  0  0  0  0  0
    5.0770   -1.5880   25.8990 O   0  0  0  0  0  0  0  0  0  0  0  0
    8.3480   -0.6980   27.7810 C   0  0  0  0  0  0  0  0  0  0  0  0
    8.5100   -0.7340   26.2670 C   0  0  2  0  0  0  0  0  0  0  0  0
    9.4000    0.2370   25.6750 N   0  0  0  0  0  0  0  0  0  0  0  0
   13.0080   -1.4170   21.5920 C   0  0  0  0  0  0  0  0  0  0  0  0
   13.8780   -1.6620   20.5240 N   0  0  0  0  0  0  0  0  0  0  0  0
    6.4660   -1.5300   26.1220 C   0  0  0  0  0  0  0  0  0  0  0  0
    7.1490   -0.4000   25.5930 C   0  0  0  0  0  0  0  0  0  0  0  0
    5.2290   -4.8400   24.2050 C   0  0  1  0  0  0  0  0  0  0  0  0
    5.0370   -3.7920   23.2990 C   0  0  1  0  0  0  0  0  0  0  0  0
    4.0780   -3.5920   24.3900 C   0  0  1  0  0  0  0  0  0  0  0  0
    2.9730   -4.4670   24.4350 C   0  0  0  0  0  0  0  0  0  0  0  0
    4.0730   -5.0630   24.1290 C   0  0  0  0  0  0  0  0  0  0  0  0
    4.6280   -6.0540   23.6100 C   0  0  0  0  0  0  0  0  0  0  0  0
    4.5510   -2.8590   25.7920 C   0  0  1  0  0  0  0  0  0  0  0  0
    5.2050   -3.5780   24.7350 C   0  0  0  0  0  0  0  0  0  0  0  0
    4.7630   -4.7640   25.6620 C   0  0  0  0  0  0  0  0  0  0  0  0
   10.2850   -0.2440   24.5990 C   0  0  0  0  0  0  0  0  0  0  0  0
   11.5230    0.5210   24.4190 N   0  0  0  0  0  0  0  0  0  0  0  0
   12.4570    0.0990   23.3730 C   0  0  0  0  0  0  0  0  0  0  0  0
   12.0840   -1.0130   22.6170 C   0  0  0  0  0  0  0  0  0  0  0  0
   10.8880   -1.7190   22.8070 C   0  0  0  0  0  0  0  0  0  0  0  0
   10.0010   -1.3380   23.7890 C   0  0  0  0  0  0  0  0  0  0  0  0
    6.1360   -2.8640   22.9330 C   0  0  0  0  0  0  0  0  0  0  0  0
  1  4  1  0
  2  4  1  0
  3  4  2  0
  7  6  1  1
  7  8  1  0
  9 10  3  0
  5 11  1  0
  7 12  1  0
 11 12  1  0
 13 14  1  0
 13 15  1  0
 14 15  1  0
 15 16  1  6
 16 17  1  0
 13 18  1  6
 17 18  2  0
 19  5  1  6
 15 19  1  0
 19 20  1  0
 13 21  1  0
 20 21  2  0
  8 22  1  0
 22 23  2  0
 23 24  1  0
  9 25  1  0
 24 25  2  0
 25 26  1  0
 22 27  1  0
 26 27  2  0
  1 28  1  0
 14 28  1  1
M  END
