x1385-x0107
     RDKit          3D

 27 29  0  0  0  0  0  0  0  0999 V2000
    7.5350   -2.9790   18.7230 C   0  0  0  0  0  0  0  0  0  0  0  0
    5.6270   -3.8590   19.6950 O   0  0  0  0  0  0  0  0  0  0  0  0
    6.7010   -3.2430   19.8950 C   0  0  0  0  0  0  0  0  0  0  0  0
    9.1280   -2.7260   24.3850 C   0  0  0  0  0  0  0  0  0  0  0  0
    7.0250   -6.0050   28.5960 Br  0  0  0  0  0  0  0  0  0  0  0  0
   10.3150   -2.0230   21.9500 C   0  0  0  0  0  0  0  0  0  0  0  0
    9.1180   -1.1620   21.4880 C   0  0  0  0  0  0  0  0  0  0  0  0
    9.3680    0.0020   21.1380 O   0  0  0  0  0  0  0  0  0  0  0  0
    7.2470   -2.9060   21.1630 N   0  0  0  0  0  0  0  0  0  0  0  0
    6.7490   -3.5800   22.2550 C   0  0  0  0  0  0  0  0  0  0  0  0
    7.9580   -3.6690   23.1560 C   0  0  0  0  0  0  0  0  0  0  0  0
    8.0980   -2.7160   23.8100 N   0  0  0  0  0  0  0  0  0  0  0  0
    7.7240   -1.4650   23.1090 C   0  0  0  0  0  0  0  0  0  0  0  0
    7.7650   -1.5480   21.6040 C   0  0  1  0  0  0  0  0  0  0  0  0
    9.8790   -4.8770   25.6850 C   0  0  0  0  0  0  0  0  0  0  0  0
    8.9880   -3.8050   25.4080 C   0  0  0  0  0  0  0  0  0  0  0  0
    7.5240   -3.7730   26.4140 S   0  0  0  0  0  0  0  0  0  0  0  0
    8.0840   -5.2300   27.2240 C   0  0  0  0  0  0  0  0  0  0  0  0
    9.4130   -5.7430   26.7180 C   0  0  0  0  0  0  0  0  0  0  0  0
    4.4390    1.6470   21.4900 C   0  0  0  0  0  0  0  0  0  0  0  0
    6.1580    0.3040   20.4660 C   0  0  0  0  0  0  0  0  0  0  0  0
    5.1380    1.1540   20.2710 C   0  0  0  0  0  0  0  0  0  0  0  0
    4.7660    1.5390   19.0590 C   0  0  0  0  0  0  0  0  0  0  0  0
    5.5010    1.0040   18.0790 C   0  0  0  0  0  0  0  0  0  0  0  0
    6.5380    0.1550   18.1110 N   0  0  0  0  0  0  0  0  0  0  0  0
    7.0240   -0.3400   19.4900 C   0  0  0  0  0  0  0  0  0  0  0  0
    6.9950   -0.4160   20.9090 C   0  0  0  0  0  0  0  0  0  0  0  0
  1  3  1  0
  2  3  2  0
  6  7  1  0
  7  8  2  0
  3  9  1  0
  9 10  1  0
 10 11  1  0
  4 12  1  0
 11 12  1  0
 12 13  1  0
 14  7  1  0
  9 14  1  0
 13 14  1  0
  4 16  1  0
 15 16  2  0
 16 17  1  0
  5 18  1  0
 17 18  1  0
 15 19  1  0
 18 19  2  0
 20 22  1  0
 21 22  2  0
 22 23  1  0
 23 24  2  0
 24 25  1  0
 21 26  1  0
 25 26  2  0
 14 27  1  6
 26 27  1  0
M  END
