x1380-x0107
     RDKit          3D

 29 31  0  0  0  0  0  0  0  0999 V2000
    7.1720   -3.2760   19.2920 C   0  0  0  0  0  0  0  0  0  0  0  0
    5.3170   -4.6310   19.9210 O   0  0  0  0  0  0  0  0  0  0  0  0
    6.3910   -4.1440   20.2580 C   0  0  0  0  0  0  0  0  0  0  0  0
    5.0470   -2.2980   25.1920 O   0  0  0  0  0  0  0  0  0  0  0  0
    6.0080   -3.0620   25.2900 C   0  0  0  0  0  0  0  0  0  0  0  0
    9.8350   -1.2870   22.2120 C   0  0  0  0  0  0  0  0  0  0  0  0
    8.8800   -0.3870   21.7340 C   0  0  0  0  0  0  0  0  0  0  0  0
    9.2310    0.7800   21.5770 O   0  0  0  0  0  0  0  0  0  0  0  0
    7.5870   -0.8690   21.4670 N   0  0  0  0  0  0  0  0  0  0  0  0
    5.2130    0.8120   22.1630 C   0  0  0  0  0  0  0  0  0  0  0  0
    6.7650   -1.5960   22.4990 C   0  0  0  0  0  0  0  0  0  0  0  0
    6.9480   -4.4370   21.4900 N   0  0  0  0  0  0  0  0  0  0  0  0
    6.2540   -5.3330   22.3940 C   0  0  0  0  0  0  0  0  0  0  0  0
    5.7030   -4.5630   23.3920 C   0  0  0  0  0  0  0  0  0  0  0  0
    6.6190   -3.7050   24.0140 C   0  0  1  0  0  0  0  0  0  0  0  0
    7.4340   -2.8640   23.1650 C   0  0  1  0  0  0  0  0  0  0  0  0
    7.9790   -3.6250   22.1610 C   0  0  0  0  0  0  0  0  0  0  0  0
    7.9180   -3.8630   26.7780 C   0  0  0  0  0  0  0  0  0  0  0  0
    7.9710   -5.2460   27.4610 C   0  0  0  0  0  0  0  0  0  0  0  0
    6.9960   -5.3050   28.6210 C   0  0  0  0  0  0  0  0  0  0  0  0
    5.6140   -4.7000   28.3300 C   0  0  0  0  0  0  0  0  0  0  0  0
    5.7160   -3.2810   27.7550 C   0  0  0  0  0  0  0  0  0  0  0  0
    6.5430   -3.4020   26.5330 N   0  0  0  0  0  0  0  0  0  0  0  0
    6.8170   -0.2650   20.4390 C   0  0  0  0  0  0  0  0  0  0  0  0
    5.7140    0.5200   20.7370 C   0  0  0  0  0  0  0  0  0  0  0  0
    4.9780    1.1090   19.6950 C   0  0  0  0  0  0  0  0  0  0  0  0
    5.3280    0.9310   18.3460 C   0  0  0  0  0  0  0  0  0  0  0  0
    6.4970    0.1030   18.0010 N   0  0  0  0  0  0  0  0  0  0  0  0
    7.1360   -0.4240   19.0840 C   0  0  0  0  0  0  0  0  0  0  0  0
  1  3  1  0
  2  3  2  0
  4  5  2  0
  6  7  1  0
  7  8  2  0
  7  9  1  0
  9 11  1  0
  3 12  1  0
 12 13  1  0
 13 14  1  0
 15  5  1  1
 14 15  1  0
 16 11  1  6
 15 16  1  0
 12 17  1  0
 16 17  1  0
 18 19  1  0
 19 20  1  0
 20 21  1  0
 21 22  1  0
  5 23  1  0
 18 23  1  0
 22 23  1  0
  9 24  1  0
 10 25  1  0
 24 25  2  0
 25 26  1  0
 26 27  2  0
 27 28  1  0
 24 29  1  0
 28 29  2  0
M  END
