x1384-x2572
     RDKit          3D

 36 40  0  0  0  0  0  0  0  0999 V2000
    4.8220    1.3060   21.6710 C   0  0  0  0  0  0  0  0  0  0  0  0
    8.8320    1.3710   21.2260 O   0  0  0  0  0  0  0  0  0  0  0  0
    7.2320   -0.2970   21.0840 N   0  0  0  0  0  0  0  0  0  0  0  0
   13.5490   -3.3680   20.6540 N   0  0  0  0  0  0  0  0  0  0  0  0
    8.2890    0.3270   21.6410 C   0  0  0  0  0  0  0  0  0  0  0  0
    8.7140   -0.2880   22.7000 C   0  0  0  0  0  0  0  0  0  0  0  0
   12.9900   -2.3640   21.3610 C   0  0  0  0  0  0  0  0  0  0  0  0
    6.5750   -3.3480   21.6680 N   0  0  0  0  0  0  0  0  0  0  0  0
    7.2670   -3.1110   19.2400 C   0  0  0  0  0  0  0  0  0  0  0  0
    5.4830   -4.5240   19.9500 O   0  0  0  0  0  0  0  0  0  0  0  0
    6.3650   -3.7280   20.3040 C   0  0  0  0  0  0  0  0  0  0  0  0
    6.5900   -1.3490   21.7230 C   0  0  0  0  0  0  0  0  0  0  0  0
    7.3380   -2.5290   21.8620 C   0  0  0  0  0  0  0  0  0  0  0  0
    6.3690    0.6260   17.6390 N   0  0  0  0  0  0  0  0  0  0  0  0
    6.9460    0.1070   18.7210 C   0  0  0  0  0  0  0  0  0  0  0  0
    6.4970    0.3030   20.0090 C   0  0  0  0  0  0  0  0  0  0  0  0
    5.3670    1.0610   20.2990 C   0  0  0  0  0  0  0  0  0  0  0  0
    4.7550    1.6030   19.1680 C   0  0  0  0  0  0  0  0  0  0  0  0
    5.1800    1.4440   17.8510 C   0  0  0  0  0  0  0  0  0  0  0  0
   10.7600    0.8480   23.6350 C   0  0  0  0  0  0  0  0  0  0  0  0
   12.2730    0.8490   23.6830 C   0  0  0  0  0  0  0  0  0  0  0  0
   13.0580   -0.2190   22.9290 C   0  0  0  0  0  0  0  0  0  0  0  0
   12.3070   -1.2710   22.1420 C   0  0  0  0  0  0  0  0  0  0  0  0
   10.9250   -1.2270   22.1250 C   0  0  0  0  0  0  0  0  0  0  0  0
   10.1250   -0.2660   22.7940 C   0  0  0  0  0  0  0  0  0  0  0  0
    5.1600   -2.1470   26.1390 O   0  0  0  0  0  0  0  0  0  0  0  0
    3.7680   -4.2820   23.4750 C   0  0  2  0  0  0  0  0  0  0  0  0
    5.0420   -4.1140   23.4600 C   0  0  2  0  0  0  0  0  0  0  0  0
    4.8810   -4.2200   24.8080 C   0  0  2  0  0  0  0  0  0  0  0  0
    4.8180   -5.5650   25.2550 C   0  0  0  0  0  0  0  0  0  0  0  0
    4.2650   -6.3550   24.2410 C   0  0  0  0  0  0  0  0  0  0  0  0
    3.6670   -5.6540   23.2400 C   0  0  0  0  0  0  0  0  0  0  0  0
    4.2600   -3.0520   25.5360 C   0  0  2  0  0  0  0  0  0  0  0  0
    4.2830   -3.0510   24.3480 C   0  0  0  0  0  0  0  0  0  0  0  0
    3.1580   -3.9820   24.7010 C   0  0  0  0  0  0  0  0  0  0  0  0
    5.4030   -3.0110   22.5050 C   0  0  0  0  0  0  0  0  0  0  0  0
  2  5  2  0
  3  5  1  0
  5  6  1  0
  4  7  3  0
  8 11  1  0
  9 11  1  0
 10 11  2  0
  3 12  1  0
  8 13  1  0
 12 13  1  0
 14 15  2  0
  3 16  1  0
 15 16  1  0
  1 17  1  0
 16 17  2  0
 17 18  1  0
 14 19  1  0
 18 19  2  0
 20 21  2  0
 21 22  1  0
  7 23  1  0
 22 23  2  0
 23 24  1  0
  6 25  1  0
 20 25  1  0
 24 25  2  0
 27 28  1  0
 27 29  1  0
 28 29  1  0
 29 30  1  1
 30 31  1  0
 27 32  1  6
 31 32  2  0
 33 26  1  1
 29 33  1  0
 33 34  1  0
 27 35  1  0
 34 35  2  0
  8 36  1  0
 28 36  1  1
M  END
