x1386-x2581
     RDKit          3D

 34 39  0  0  0  0  0  0  0  0999 V2000
    9.6450   -2.3770   23.4930 C   0  0  0  0  0  0  0  0  0  0  0  0
   10.2430    3.1890   21.9910 N   0  0  0  0  0  0  0  0  0  0  0  0
   11.2730    3.2960   24.0140 O   0  0  0  0  0  0  0  0  0  0  0  0
   11.0820    3.7700   22.9160 C   0  0  0  0  0  0  0  0  0  0  0  0
   11.8130    4.9780   22.7240 C   0  0  0  0  0  0  0  0  0  0  0  0
    7.4580   -2.9620   18.6800 C   0  0  0  0  0  0  0  0  0  0  0  0
    5.5370   -3.8490   19.6790 O   0  0  0  0  0  0  0  0  0  0  0  0
    6.5480   -3.1410   19.8290 C   0  0  0  0  0  0  0  0  0  0  0  0
    8.5720    1.7250   21.2970 N   0  0  0  0  0  0  0  0  0  0  0  0
    9.2580    2.3140   22.4390 C   0  0  1  0  0  0  0  0  0  0  0  0
    9.9960    1.2090   23.0820 C   0  0  0  0  0  0  0  0  0  0  0  0
    9.8430   -0.2700   22.7910 C   0  0  0  0  0  0  0  0  0  0  0  0
    8.9010   -0.9710   21.7580 C   0  0  1  0  0  0  0  0  0  0  0  0
    8.4250    0.3490   21.0640 C   0  0  0  0  0  0  0  0  0  0  0  0
    9.7350    6.6400   22.7330 C   0  0  0  0  0  0  0  0  0  0  0  0
    9.0830    7.7120   23.2600 C   0  0  0  0  0  0  0  0  0  0  0  0
    9.7060    8.4380   24.4270 C   0  0  0  0  0  0  0  0  0  0  0  0
   10.9330    8.0120   24.9580 C   0  0  0  0  0  0  0  0  0  0  0  0
   11.5880    6.9090   24.4080 C   0  0  0  0  0  0  0  0  0  0  0  0
   11.0840    6.1740   23.3160 C   0  0  0  0  0  0  0  0  0  0  0  0
    9.0170    9.6310   25.0160 C   0  0  0  0  0  0  0  0  0  0  0  0
    9.5910   10.3130   26.0860 C   0  0  0  0  0  0  0  0  0  0  0  0
   10.8110    9.8450   26.5810 C   0  0  0  0  0  0  0  0  0  0  0  0
   11.4700    8.7220   26.0350 C   0  0  0  0  0  0  0  0  0  0  0  0
    7.0180   -2.5280   21.1150 C   0  0  0  0  0  0  0  0  0  0  0  0
    7.5000   -1.2000   21.1520 C   0  0  0  0  0  0  0  0  0  0  0  0
    8.4850   -1.6080   23.0860 N   0  0  0  0  0  0  0  0  0  0  0  0
    7.2860   -2.4390   23.2380 C   0  0  0  0  0  0  0  0  0  0  0  0
    6.9980   -3.2660   22.1800 C   0  0  0  0  0  0  0  0  0  0  0  0
   11.7700   -1.5110   22.6370 C   0  0  0  0  0  0  0  0  0  0  0  0
   10.6910   -1.2520   23.5180 C   0  0  2  0  0  0  0  0  0  0  0  0
   11.0000   -0.8280   24.8240 C   0  0  0  0  0  0  0  0  0  0  0  0
   12.7670   -0.6350   24.7430 S   0  0  0  0  0  0  0  0  0  0  0  0
   13.0870   -1.1820   23.1200 C   0  0  0  0  0  0  0  0  0  0  0  0
  2  4  1  0
  3  4  2  0
  4  5  1  0
  6  8  1  0
  7  8  2  0
 10  2  1  6
  9 10  1  0
 10 11  1  0
 11 12  2  0
 12 13  1  0
  9 14  2  0
 13 14  1  6
 15 16  2  0
 16 17  1  0
 17 18  2  0
 18 19  1  0
  5 20  1  0
 15 20  1  0
 19 20  2  0
 17 21  1  0
 21 22  2  0
 22 23  1  0
 18 24  1  0
 23 24  2  0
  8 25  1  0
 13 26  1  0
 25 26  2  0
  1 27  1  0
 13 27  1  0
 27 28  1  0
 25 29  1  0
 28 29  1  0
 31  1  1  1
 12 31  1  0
 31 30  1  0
 31 32  1  0
 32 33  2  0
 30 34  2  0
 33 34  1  0
M  END
