x1382-x2193
     RDKit          3D

 24 25  0  0  0  0  0  0  0  0999 V2000
   13.6130   -2.7550   23.1510 Cl  0  0  0  0  0  0  0  0  0  0  0  0
    7.1820   -0.8350   22.2690 C   0  0  0  0  0  0  0  0  0  0  0  0
    8.2660   -1.9300   22.3970 C   0  0  1  0  0  0  0  0  0  0  0  0
    8.0410   -3.0500   21.4800 N   0  0  0  0  0  0  0  0  0  0  0  0
    7.2820   -3.2520   20.1760 C   0  0  0  0  0  0  0  0  0  0  0  0
    6.1780   -3.8640   19.9110 O   0  0  0  0  0  0  0  0  0  0  0  0
    7.7880   -2.9350   18.8330 C   0  0  0  0  0  0  0  0  0  0  0  0
   10.2270    3.0950   22.6450 C   0  0  0  0  0  0  0  0  0  0  0  0
    8.8350    1.8350   20.9610 O   0  0  0  0  0  0  0  0  0  0  0  0
    8.0250    1.7830   23.2580 O   0  0  0  0  0  0  0  0  0  0  0  0
    9.1460    1.7170   22.3560 S   0  0  0  0  0  0  0  0  0  0  0  0
    9.7140   -1.2540   22.5430 C   0  0  0  0  0  0  0  0  0  0  0  0
   10.9050   -2.1990   22.7300 C   0  0  0  0  0  0  0  0  0  0  0  0
   12.3500   -1.7030   22.9310 C   0  0  0  0  0  0  0  0  0  0  0  0
   12.6300   -0.2410   22.9440 C   0  0  0  0  0  0  0  0  0  0  0  0
   11.4620    0.6850   22.7520 C   0  0  0  0  0  0  0  0  0  0  0  0
   10.1370    0.2750   22.5610 C   0  0  0  0  0  0  0  0  0  0  0  0
    8.6080   -5.8320   25.9940 N   0  0  0  0  0  0  0  0  0  0  0  0
    8.2770   -4.6680   26.6840 C   0  0  0  0  0  0  0  0  0  0  0  0
    7.6640   -3.6650   25.9380 C   0  0  0  0  0  0  0  0  0  0  0  0
    8.1490   -3.6580   24.5540 N   0  0  0  0  0  0  0  0  0  0  0  0
    9.4090   -4.3800   24.4860 C   0  0  0  0  0  0  0  0  0  0  0  0
    9.1040   -5.7410   24.6320 C   0  0  0  0  0  0  0  0  0  0  0  0
    8.1420   -2.2840   23.9780 C   0  0  0  0  0  0  0  0  0  0  0  0
  3  2  1  6
  3  4  1  0
  4  5  1  0
  5  6  2  0
  5  7  1  0
 11  8  1  0
  9 11  2  0
 10 11  2  0
  3 12  1  0
 12 13  2  0
  1 14  1  0
 13 14  1  0
 14 15  2  0
 15 16  1  0
 11 17  1  0
 12 17  1  0
 16 17  2  0
 18 19  1  0
 19 20  1  0
 20 21  1  0
 21 22  1  0
 18 23  1  0
 22 23  1  0
  3 24  1  0
 21 24  1  0
M  END
