x1380-x0305
     RDKit          3D

 30 32  0  0  0  0  0  0  0  0999 V2000
    7.2040   -3.2810   19.2510 C   0  0  0  0  0  0  0  0  0  0  0  0
    5.2840   -4.5610   19.8920 O   0  0  0  0  0  0  0  0  0  0  0  0
    6.3820   -4.1190   20.2200 C   0  0  0  0  0  0  0  0  0  0  0  0
    5.2140   -2.6470   25.8060 O   0  0  0  0  0  0  0  0  0  0  0  0
    6.2080   -3.0390   25.1940 C   0  0  0  0  0  0  0  0  0  0  0  0
    8.7090   -0.6160   27.6320 C   0  0  0  0  0  0  0  0  0  0  0  0
    8.5590   -0.6250   26.2530 C   0  0  1  0  0  0  0  0  0  0  0  0
    9.5660    0.1380   25.6680 N   0  0  0  0  0  0  0  0  0  0  0  0
   13.0950   -1.3890   21.5760 C   0  0  0  0  0  0  0  0  0  0  0  0
   13.8680   -1.6130   20.5390 N   0  0  0  0  0  0  0  0  0  0  0  0
    7.5970   -2.9600   25.8430 C   0  0  1  0  0  0  0  0  0  0  0  0
    8.3900   -1.8940   25.4090 C   0  0  0  0  0  0  0  0  0  0  0  0
    6.9530   -4.4210   21.4370 N   0  0  0  0  0  0  0  0  0  0  0  0
    6.3290   -5.2910   22.2370 C   0  0  0  0  0  0  0  0  0  0  0  0
    6.1820   -4.9690   23.5880 C   0  0  0  0  0  0  0  0  0  0  0  0
    6.1590   -3.5850   23.8630 C   0  0  0  0  0  0  0  0  0  0  0  0
    7.1060   -2.7950   23.2100 C   0  0  0  0  0  0  0  0  0  0  0  0
    7.7540   -3.5790   22.0980 C   0  0  0  0  0  0  0  0  0  0  0  0
    7.4500   -3.3270   27.2800 C   0  0  2  0  0  0  0  0  0  0  0  0
    7.8580   -4.7740   27.5880 C   0  0  0  0  0  0  0  0  0  0  0  0
    6.9800   -5.5320   28.6010 C   0  0  0  0  0  0  0  0  0  0  0  0
    5.6260   -4.9140   28.9440 C   0  0  0  0  0  0  0  0  0  0  0  0
    5.7380   -3.4020   28.8760 C   0  0  0  0  0  0  0  0  0  0  0  0
    6.0580   -3.0740   27.6460 N   0  0  0  0  0  0  0  0  0  0  0  0
   10.4430   -0.2650   24.6240 C   0  0  0  0  0  0  0  0  0  0  0  0
   11.6390    0.5510   24.3370 N   0  0  0  0  0  0  0  0  0  0  0  0
   12.4420    0.1390   23.3610 C   0  0  0  0  0  0  0  0  0  0  0  0
   12.1680   -1.0250   22.6250 C   0  0  0  0  0  0  0  0  0  0  0  0
   11.0460   -1.7860   22.8900 C   0  0  0  0  0  0  0  0  0  0  0  0
   10.1620   -1.4360   23.8830 C   0  0  0  0  0  0  0  0  0  0  0  0
  1  3  1  0
  2  3  2  0
  4  5  2  0
  7  6  1  1
  7  8  1  0
  9 10  3  0
  5 11  1  0
  7 12  1  0
 11 12  1  1
  3 13  1  0
 13 14  1  0
 14 15  1  0
  5 16  1  0
 15 16  1  0
 16 17  1  0
 13 18  1  0
 17 18  1  0
 11 19  1  0
 19 20  1  6
 20 21  1  0
 21 22  1  0
 22 23  1  0
 19 24  1  0
 23 24  1  0
  8 25  1  0
 25 26  2  0
 26 27  1  0
  9 28  1  0
 27 28  2  0
 28 29  1  0
 25 30  1  0
 29 30  2  0
M  END
