x1380-x0967
     RDKit          3D

 38 40  0  0  0  0  0  0  0  0999 V2000
    8.2030    4.5450   22.5040 C   0  0  0  0  0  0  0  0  0  0  0  0
    6.9100    2.2700   22.9390 N   0  0  0  0  0  0  0  0  0  0  0  0
    6.6190    3.9710   24.3480 O   0  0  0  0  0  0  0  0  0  0  0  0
    7.2320    3.6590   23.3390 C   0  0  0  0  0  0  0  0  0  0  0  0
    8.9470   -1.2140   22.8910 N   0  0  0  0  0  0  0  0  0  0  0  0
    5.6880    0.8760   16.9710 O   0  0  0  0  0  0  0  0  0  0  0  0
    7.7610    1.1730   22.9350 C   0  0  1  0  0  0  0  0  0  0  0  0
    9.8370    0.6920   21.8880 O   0  0  0  0  0  0  0  0  0  0  0  0
    6.6280    0.2210   22.5810 C   0  0  0  0  0  0  0  0  0  0  0  0
    8.9120    0.2060   22.5320 C   0  0  0  0  0  0  0  0  0  0  0  0
    9.7050   -1.8370   22.2370 C   0  0  0  0  0  0  0  0  0  0  0  0
   11.0310   -1.4480   22.0360 C   0  0  0  0  0  0  0  0  0  0  0  0
   12.0140   -1.8360   22.9250 C   0  0  0  0  0  0  0  0  0  0  0  0
   13.2980   -2.3470   24.2240 Br  0  0  0  0  0  0  0  0  0  0  0  0
    7.0230   -3.3810   19.4020 C   0  0  0  0  0  0  0  0  0  0  0  0
    5.2520   -4.8460   19.9750 O   0  0  0  0  0  0  0  0  0  0  0  0
    6.2640   -4.2740   20.3500 C   0  0  0  0  0  0  0  0  0  0  0  0
    5.1500   -2.1840   25.5620 O   0  0  0  0  0  0  0  0  0  0  0  0
    5.9540   -3.0950   25.3650 C   0  0  0  0  0  0  0  0  0  0  0  0
    8.0310   -1.9420   23.8230 C   0  0  0  0  0  0  0  0  0  0  0  0
    6.3440    0.3970   21.1430 C   0  0  0  0  0  0  0  0  0  0  0  0
    7.1670   -0.4660   20.2020 C   0  0  0  0  0  0  0  0  0  0  0  0
    6.9200   -0.2920   18.7630 C   0  0  0  0  0  0  0  0  0  0  0  0
    5.8980    0.7040   18.2630 C   0  0  0  0  0  0  0  0  0  0  0  0
    5.0860    1.5470   19.2380 C   0  0  0  0  0  0  0  0  0  0  0  0
    5.3800    1.3260   20.7300 C   0  0  0  0  0  0  0  0  0  0  0  0
    6.8130   -4.4600   21.6090 N   0  0  0  0  0  0  0  0  0  0  0  0
    6.3500   -5.4360   22.5580 C   0  0  0  0  0  0  0  0  0  0  0  0
    6.4870   -4.9770   23.8930 C   0  0  0  0  0  0  0  0  0  0  0  0
    6.0880   -3.6060   23.9110 C   0  0  2  0  0  0  0  0  0  0  0  0
    6.9010   -2.7430   23.1130 C   0  0  2  0  0  0  0  0  0  0  0  0
    7.6200   -3.3760   22.1320 C   0  0  0  0  0  0  0  0  0  0  0  0
    7.9740   -4.2760   26.4540 C   0  0  0  0  0  0  0  0  0  0  0  0
    7.9380   -5.3910   27.2830 C   0  0  0  0  0  0  0  0  0  0  0  0
    7.4200   -5.1110   28.5400 C   0  0  0  0  0  0  0  0  0  0  0  0
    6.1150   -4.6340   28.4590 C   0  0  0  0  0  0  0  0  0  0  0  0
    6.0390   -3.4240   27.7740 C   0  0  0  0  0  0  0  0  0  0  0  0
    6.6510   -3.6310   26.4530 N   0  0  0  0  0  0  0  0  0  0  0  0
  1  4  1  0
  2  4  1  0
  3  4  2  0
  2  7  1  0
  7  9  1  6
  5 10  1  0
  7 10  1  0
  8 10  2  0
  5 11  1  0
 11 12  1  0
 12 13  3  0
 13 14  1  0
 15 17  1  0
 16 17  2  0
 18 19  2  0
  5 20  1  0
  9 21  1  0
 21 22  2  0
 22 23  1  0
  6 24  1  0
 23 24  2  0
 24 25  1  0
 21 26  1  0
 25 26  2  0
 17 27  1  0
 27 28  1  0
 28 29  1  0
 30 19  1  1
 29 30  1  0
 31 20  1  1
 30 31  1  0
 27 32  1  0
 31 32  1  0
 33 34  1  0
 34 35  1  0
 35 36  1  0
 36 37  1  0
 19 38  1  0
 33 38  1  0
 37 38  1  0
M  END
