x1380-x2910
     RDKit          3D

 41 45  0  0  0  0  0  0  0  0999 V2000
    7.1310   -1.8250   21.4770 N   0  0  0  0  0  0  0  0  0  0  0  0
   10.2610    2.5550   23.6860 C   0  0  0  0  0  0  0  0  0  0  0  0
   10.0200    1.1380   23.6700 O   0  0  0  0  0  0  0  0  0  0  0  0
    9.4280   -1.3550   22.7470 O   0  0  0  0  0  0  0  0  0  0  0  0
    5.0290   -2.6300   21.1130 O   0  0  0  0  0  0  0  0  0  0  0  0
    6.3760    1.3330   16.7390 O   0  0  0  0  0  0  0  0  0  0  0  0
    9.1320   -2.7140   22.3110 C   0  0  0  0  0  0  0  0  0  0  0  0
    5.8710   -1.7680   20.9340 C   0  0  0  0  0  0  0  0  0  0  0  0
    7.3410   -3.2550   19.2480 C   0  0  0  0  0  0  0  0  0  0  0  0
    5.5510   -4.6530   19.9800 O   0  0  0  0  0  0  0  0  0  0  0  0
    6.5820   -4.0320   20.3050 C   0  0  0  0  0  0  0  0  0  0  0  0
    4.6720   -3.2180   25.4340 O   0  0  0  0  0  0  0  0  0  0  0  0
    5.8730   -3.5380   25.4740 C   0  0  0  0  0  0  0  0  0  0  0  0
   11.0150    0.3580   23.1440 C   0  0  0  0  0  0  0  0  0  0  0  0
   10.7280   -0.9220   22.6630 C   0  0  0  0  0  0  0  0  0  0  0  0
   11.7460   -1.6920   22.1280 C   0  0  0  0  0  0  0  0  0  0  0  0
   13.0450   -1.1910   22.0750 C   0  0  0  0  0  0  0  0  0  0  0  0
   13.3150    0.0880   22.5630 C   0  0  0  0  0  0  0  0  0  0  0  0
   12.3020    0.8400   23.0880 C   0  0  0  0  0  0  0  0  0  0  0  0
    4.7390    1.8610   18.4460 N   0  0  0  0  0  0  0  0  0  0  0  0
    4.0290    1.6390   19.6970 C   0  0  0  0  0  0  0  0  0  0  0  0
    4.4480    0.4160   20.5070 C   0  0  0  0  0  0  0  0  0  0  0  0
    5.5250   -0.5140   20.0240 C   0  0  0  0  0  0  0  0  0  0  0  0
    6.2320   -0.2540   18.7270 C   0  0  0  0  0  0  0  0  0  0  0  0
    5.8040    0.9730   17.9510 C   0  0  0  0  0  0  0  0  0  0  0  0
    3.0530    2.5560   20.0200 C   0  0  0  0  0  0  0  0  0  0  0  0
    2.4040    2.3040   21.2310 C   0  0  0  0  0  0  0  0  0  0  0  0
    2.7160    1.2030   22.0750 C   0  0  0  0  0  0  0  0  0  0  0  0
    3.7070    0.2120   21.8160 C   0  0  0  0  0  0  0  0  0  0  0  0
    7.1050   -4.0900   21.6030 N   0  0  0  0  0  0  0  0  0  0  0  0
    6.7860   -5.1390   22.3820 C   0  0  0  0  0  0  0  0  0  0  0  0
    5.9180   -4.6660   23.3480 C   0  0  0  0  0  0  0  0  0  0  0  0
    6.6600   -3.8920   24.2340 C   0  0  1  0  0  0  0  0  0  0  0  0
    7.1880   -2.7520   23.6240 C   0  0  0  0  0  0  0  0  0  0  0  0
    7.5500   -2.8930   22.2710 C   0  0  2  0  0  0  0  0  0  0  0  0
    7.9010   -3.9840   26.9460 C   0  0  0  0  0  0  0  0  0  0  0  0
    7.8660   -5.2910   27.4350 C   0  0  0  0  0  0  0  0  0  0  0  0
    7.1350   -5.3170   28.6120 C   0  0  0  0  0  0  0  0  0  0  0  0
    5.8100   -4.8920   28.4880 C   0  0  0  0  0  0  0  0  0  0  0  0
    5.6890   -3.6310   27.8940 C   0  0  0  0  0  0  0  0  0  0  0  0
    6.5280   -3.5690   26.7030 N   0  0  0  0  0  0  0  0  0  0  0  0
  2  3  1  0
  4  7  1  0
  1  8  1  0
  5  8  2  0
  9 11  1  0
 10 11  2  0
 12 13  2  0
  3 14  1  0
  4 15  1  0
 14 15  2  0
 15 16  1  0
 16 17  2  0
 17 18  1  0
 14 19  1  0
 18 19  2  0
 20 21  2  0
 21 22  1  0
  8 23  1  0
 22 23  2  0
 23 24  1  0
  6 25  1  0
 20 25  1  0
 24 25  2  0
 21 26  1  0
 26 27  2  0
 27 28  1  0
 22 29  1  0
 28 29  2  0
 11 30  1  0
 30 31  1  0
 31 32  1  0
 33 13  1  1
 32 33  1  0
 33 34  1  0
 35  1  1  0
 35  7  1  1
 30 35  1  0
 34 35  1  0
 36 37  1  0
 37 38  1  0
 38 39  1  0
 39 40  1  0
 13 41  1  0
 36 41  1  0
 40 41  1  0
M  END
