x1384-x2908
     RDKit          3D

 35 39  0  0  0  0  0  0  0  0999 V2000
    6.7110   -3.4190   21.6490 N   0  0  0  0  0  0  0  0  0  0  0  0
    7.2520   -3.1530   19.2490 C   0  0  0  0  0  0  0  0  0  0  0  0
    5.4880   -4.5740   19.9770 O   0  0  0  0  0  0  0  0  0  0  0  0
    6.3880   -3.7900   20.3270 C   0  0  0  0  0  0  0  0  0  0  0  0
    5.0010    1.3150   21.6000 C   0  0  0  0  0  0  0  0  0  0  0  0
    8.7440    1.5850   21.0440 O   0  0  0  0  0  0  0  0  0  0  0  0
   13.1280   -2.5860   21.3240 Cl  0  0  0  0  0  0  0  0  0  0  0  0
    7.2710   -0.1660   20.9270 N   0  0  0  0  0  0  0  0  0  0  0  0
    8.6030   -0.0420   22.6620 N   0  0  0  0  0  0  0  0  0  0  0  0
    8.2470    0.5510   21.5010 C   0  0  0  0  0  0  0  0  0  0  0  0
    7.6220   -2.2760   21.7890 C   0  0  0  0  0  0  0  0  0  0  0  0
    6.6130   -1.1930   21.5550 C   0  0  0  0  0  0  0  0  0  0  0  0
    6.2960    0.7010   17.6020 N   0  0  0  0  0  0  0  0  0  0  0  0
    6.9950    0.1410   18.6680 C   0  0  0  0  0  0  0  0  0  0  0  0
    6.6030    0.3380   19.9460 C   0  0  0  0  0  0  0  0  0  0  0  0
    5.4880    1.0810   20.1930 C   0  0  0  0  0  0  0  0  0  0  0  0
    4.7990    1.6300   19.1030 C   0  0  0  0  0  0  0  0  0  0  0  0
    5.1660    1.4810   17.7320 C   0  0  0  0  0  0  0  0  0  0  0  0
   10.6870    0.7110   23.6640 C   0  0  0  0  0  0  0  0  0  0  0  0
   12.0560    0.6460   23.8380 C   0  0  0  0  0  0  0  0  0  0  0  0
   12.9190   -0.3790   23.1320 C   0  0  0  0  0  0  0  0  0  0  0  0
   12.2910   -1.3960   22.1840 C   0  0  0  0  0  0  0  0  0  0  0  0
   10.7660   -1.2640   22.0430 C   0  0  0  0  0  0  0  0  0  0  0  0
   10.0120   -0.1680   22.8200 C   0  0  0  0  0  0  0  0  0  0  0  0
    4.2220   -1.9020   24.4540 O   0  0  0  0  0  0  0  0  0  0  0  0
    5.0330   -4.8250   24.2260 C   0  0  1  0  0  0  0  0  0  0  0  0
    4.9030   -4.2510   23.1200 C   0  0  1  0  0  0  0  0  0  0  0  0
    3.6910   -4.0820   23.9320 C   0  0  1  0  0  0  0  0  0  0  0  0
    2.7690   -5.1430   23.9340 C   0  0  0  0  0  0  0  0  0  0  0  0
    3.4430   -6.3430   23.7890 C   0  0  0  0  0  0  0  0  0  0  0  0
    4.7730   -6.1670   23.9620 C   0  0  0  0  0  0  0  0  0  0  0  0
    3.6070   -3.0370   24.8530 C   0  0  1  0  0  0  0  0  0  0  0  0
    4.4050   -3.4420   25.8300 C   0  0  0  0  0  0  0  0  0  0  0  0
    5.3740   -4.4650   25.7090 C   0  0  0  0  0  0  0  0  0  0  0  0
    5.6400   -3.0590   22.5910 C   0  0  0  0  0  0  0  0  0  0  0  0
  1  4  1  0
  2  4  1  0
  3  4  2  0
  6 10  2  0
  8 10  1  0
  9 10  1  0
  1 11  1  0
  8 12  1  0
 11 12  1  0
 13 14  2  0
  8 15  1  0
 14 15  1  0
  5 16  1  0
 15 16  2  0
 16 17  1  0
 13 18  1  0
 17 18  2  0
 19 20  2  0
 20 21  1  0
  7 22  1  0
 21 22  2  0
 22 23  1  0
  9 24  1  0
 19 24  1  0
 23 24  2  0
 26 27  1  0
 26 28  1  0
 27 28  1  0
 28 29  1  6
 29 30  1  0
 26 31  1  6
 30 31  2  0
 32 25  1  6
 28 32  1  0
 32 33  1  0
 26 34  1  0
 33 34  2  0
  1 35  1  0
 27 35  1  1
M  END
