x1384-x0678
     RDKit          3D

 33 37  0  0  0  0  0  0  0  0999 V2000
    5.8510   -2.9580   21.6360 N   0  0  0  0  0  0  0  0  0  0  0  0
    7.6450   -4.1880   20.6310 C   0  0  0  0  0  0  0  0  0  0  0  0
    5.3660   -4.3840   19.8980 O   0  0  0  0  0  0  0  0  0  0  0  0
    6.1920   -3.8760   20.6810 C   0  0  0  0  0  0  0  0  0  0  0  0
    9.2760    1.7320   21.3250 O   0  0  0  0  0  0  0  0  0  0  0  0
    8.7640    0.6480   21.9530 C   0  0  0  0  0  0  0  0  0  0  0  0
    9.3420   -0.1100   23.1310 C   0  0  0  0  0  0  0  0  0  0  0  0
    7.5320    0.0600   21.5610 N   0  0  0  0  0  0  0  0  0  0  0  0
    6.0760   -1.5590   21.2700 C   0  0  0  0  0  0  0  0  0  0  0  0
    7.5400   -1.3220   21.4780 C   0  0  0  0  0  0  0  0  0  0  0  0
   11.2460   -1.5760   22.3750 C   0  0  0  0  0  0  0  0  0  0  0  0
   12.4050   -2.1910   22.9020 C   0  0  0  0  0  0  0  0  0  0  0  0
   13.2560   -1.2800   23.5380 C   0  0  0  0  0  0  0  0  0  0  0  0
   12.6430   -0.5060   24.5380 C   0  0  0  0  0  0  0  0  0  0  0  0
   11.2780   -0.6490   24.4790 C   0  0  0  0  0  0  0  0  0  0  0  0
   10.8630   -0.4890   23.1640 C   0  0  0  0  0  0  0  0  0  0  0  0
    5.5830    1.5370   20.4810 C   0  0  0  0  0  0  0  0  0  0  0  0
    4.8910    1.8890   19.1950 C   0  0  0  0  0  0  0  0  0  0  0  0
    5.2850    1.2880   17.8560 C   0  0  0  0  0  0  0  0  0  0  0  0
    6.4180    0.2730   17.7520 N   0  0  0  0  0  0  0  0  0  0  0  0
    7.1050   -0.0780   19.0550 C   0  0  0  0  0  0  0  0  0  0  0  0
    6.7390    0.5250   20.4380 C   0  0  0  0  0  0  0  0  0  0  0  0
    4.2020   -1.6370   24.6530 O   0  0  0  0  0  0  0  0  0  0  0  0
    5.0650   -4.7820   24.7100 C   0  0  1  0  0  0  0  0  0  0  0  0
    5.2280   -4.2970   23.5470 C   0  0  1  0  0  0  0  0  0  0  0  0
    3.8650   -3.9100   23.9940 C   0  0  1  0  0  0  0  0  0  0  0  0
    2.8590   -4.8570   23.7240 C   0  0  0  0  0  0  0  0  0  0  0  0
    3.3720   -6.0900   24.0480 C   0  0  0  0  0  0  0  0  0  0  0  0
    4.5940   -6.0750   24.6100 C   0  0  0  0  0  0  0  0  0  0  0  0
    3.6050   -2.8270   24.9020 C   0  0  1  0  0  0  0  0  0  0  0  0
    4.4370   -3.5620   25.4460 C   0  0  0  0  0  0  0  0  0  0  0  0
    5.2620   -4.1880   26.1580 C   0  0  0  0  0  0  0  0  0  0  0  0
    6.1550   -3.2150   23.0410 C   0  0  0  0  0  0  0  0  0  0  0  0
  1  4  1  0
  2  4  1  0
  3  4  2  0
  5  6  2  0
  6  7  1  0
  6  8  1  0
  1  9  1  0
  8 10  1  0
  9 10  1  0
 11 12  1  0
 12 13  1  0
 13 14  1  0
 14 15  1  0
  7 16  1  0
 11 16  1  0
 15 16  1  0
 17 18  2  0
 18 19  1  0
 19 20  2  0
 20 21  1  0
  8 22  1  0
 17 22  1  0
 21 22  2  0
 24 25  1  0
 24 26  1  0
 25 26  1  0
 26 27  1  6
 27 28  1  0
 24 29  1  1
 28 29  2  0
 30 23  1  6
 26 30  1  0
 30 31  1  0
 24 32  1  0
 31 32  2  0
  1 33  1  0
 25 33  1  1
M  END
