x1386-x0678
     RDKit          3D

 25 28  0  0  0  0  0  0  0  0999 V2000
    7.5620   -2.9510   18.5890 C   0  0  0  0  0  0  0  0  0  0  0  0
    5.7630   -3.9220   19.7370 O   0  0  0  0  0  0  0  0  0  0  0  0
    6.7200   -3.0990   19.8550 C   0  0  0  0  0  0  0  0  0  0  0  0
   10.2410   -2.6700   23.6470 C   0  0  0  0  0  0  0  0  0  0  0  0
    8.7330    0.3750   21.1260 O   0  0  0  0  0  0  0  0  0  0  0  0
    8.1380   -0.3200   21.9370 C   0  0  1  0  0  0  0  0  0  0  0  0
    7.9210    0.2290   23.2060 C   0  0  0  0  0  0  0  0  0  0  0  0
    6.9040   -0.8230   21.2130 N   0  0  0  0  0  0  0  0  0  0  0  0
    7.1080   -2.2820   21.1860 C   0  0  2  0  0  0  0  0  0  0  0  0
    8.4390   -2.4950   21.3700 C   0  0  0  0  0  0  0  0  0  0  0  0
    8.9630   -1.5380   22.1570 C   0  0  2  0  0  0  0  0  0  0  0  0
    8.8980   -2.2090   23.3390 N   0  0  0  0  0  0  0  0  0  0  0  0
    7.7470   -3.1500   23.4710 C   0  0  0  0  0  0  0  0  0  0  0  0
    6.5900   -2.7740   22.5000 C   0  0  0  0  0  0  0  0  0  0  0  0
   12.3170   -1.5890   22.6100 C   0  0  0  0  0  0  0  0  0  0  0  0
   11.1290   -1.5660   23.5530 C   0  0  0  0  0  0  0  0  0  0  0  0
   10.9780   -0.4140   24.2860 C   0  0  0  0  0  0  0  0  0  0  0  0
   12.1880    0.7380   23.9350 S   0  0  0  0  0  0  0  0  0  0  0  0
   13.0030   -0.2320   22.7860 C   0  0  0  0  0  0  0  0  0  0  0  0
    5.2930    0.7250   20.2350 C   0  0  0  0  0  0  0  0  0  0  0  0
    4.7910    1.4480   19.1640 C   0  0  0  0  0  0  0  0  0  0  0  0
    5.4320    1.3460   17.9480 C   0  0  0  0  0  0  0  0  0  0  0  0
    6.5020    0.5790   17.8040 N   0  0  0  0  0  0  0  0  0  0  0  0
    7.0070   -0.1360   18.8330 C   0  0  0  0  0  0  0  0  0  0  0  0
    6.4260   -0.0960   20.1000 C   0  0  0  0  0  0  0  0  0  0  0  0
  1  3  1  0
  2  3  2  0
  6  5  1  0
  6  7  1  1
  6  8  1  0
  9  3  1  6
  8  9  1  0
  9 10  1  0
  6 11  1  0
 10 11  1  0
  4 12  1  0
 11 12  1  1
 12 13  1  0
  9 14  1  0
 13 14  1  0
  4 16  1  0
 15 16  1  0
 16 17  2  0
 17 18  1  0
 15 19  2  0
 18 19  1  0
 20 21  2  0
 21 22  1  0
 22 23  2  0
 23 24  1  0
  8 25  1  0
 20 25  1  0
 24 25  2  0
M  END
