x1380-x3124
     RDKit          3D

 39 42  0  0  0  0  0  0  0  0999 V2000
    7.2250   -1.7390   22.2870 N   0  0  0  0  0  0  0  0  0  0  0  0
    7.6300    1.6210   23.3380 N   0  0  0  0  0  0  0  0  0  0  0  0
    8.8030    0.9240   21.5280 O   0  0  0  0  0  0  0  0  0  0  0  0
    6.7290   -0.3210   22.0470 C   0  0  1  0  0  0  0  0  0  0  0  0
    7.8280    0.7730   22.2670 C   0  0  0  0  0  0  0  0  0  0  0  0
    8.0440    2.9870   23.2200 C   0  0  0  0  0  0  0  0  0  0  0  0
   12.6300   -1.8380   24.2530 C   0  0  0  0  0  0  0  0  0  0  0  0
   12.6780   -0.5610   24.7620 C   0  0  0  0  0  0  0  0  0  0  0  0
   13.5240   -2.0930   23.0580 C   0  0  0  0  0  0  0  0  0  0  0  0
   12.9850   -2.8930   25.3130 C   0  0  0  0  0  0  0  0  0  0  0  0
    7.0020   -3.3640   19.5870 C   0  0  0  0  0  0  0  0  0  0  0  0
    5.2830   -4.9370   19.9800 O   0  0  0  0  0  0  0  0  0  0  0  0
    6.2580   -4.3690   20.4530 C   0  0  0  0  0  0  0  0  0  0  0  0
    4.7490   -1.8190   25.5550 O   0  0  0  0  0  0  0  0  0  0  0  0
    5.5690   -2.9310   25.1910 C   0  0  0  0  0  0  0  0  0  0  0  0
    6.3450    0.1540   18.0700 N   0  0  0  0  0  0  0  0  0  0  0  0
    5.2030    0.8930   17.9630 C   0  0  0  0  0  0  0  0  0  0  0  0
    4.4690    1.2760   19.0710 C   0  0  0  0  0  0  0  0  0  0  0  0
    4.9210    0.8890   20.4630 C   0  0  0  0  0  0  0  0  0  0  0  0
    6.1960    0.0710   20.6600 C   0  0  0  0  0  0  0  0  0  0  0  0
    6.8420   -0.2500   19.3050 C   0  0  0  0  0  0  0  0  0  0  0  0
    9.5500   -1.5090   21.8010 C   0  0  0  0  0  0  0  0  0  0  0  0
   10.9670   -1.5460   22.2920 C   0  0  0  0  0  0  0  0  0  0  0  0
   11.2560   -1.7960   23.7770 C   0  0  0  0  0  0  0  0  0  0  0  0
   10.1470   -1.9640   24.5800 C   0  0  0  0  0  0  0  0  0  0  0  0
    8.8610   -1.9180   24.0420 C   0  0  0  0  0  0  0  0  0  0  0  0
    8.5470   -1.7040   22.6740 C   0  0  0  0  0  0  0  0  0  0  0  0
    6.6930   -4.6990   21.7520 N   0  0  0  0  0  0  0  0  0  0  0  0
    5.8840   -5.3310   22.5800 C   0  0  0  0  0  0  0  0  0  0  0  0
    5.3300   -4.6620   23.6710 C   0  0  0  0  0  0  0  0  0  0  0  0
    5.6350   -3.2780   23.6980 C   0  0  2  0  0  0  0  0  0  0  0  0
    6.8760   -2.9040   23.1980 C   0  0  1  0  0  0  0  0  0  0  0  0
    7.5000   -3.8770   22.4480 C   0  0  0  0  0  0  0  0  0  0  0  0
    7.6150   -4.0640   26.1760 C   0  0  0  0  0  0  0  0  0  0  0  0
    7.8620   -5.1370   27.0630 C   0  0  0  0  0  0  0  0  0  0  0  0
    7.5590   -4.7980   28.3720 C   0  0  0  0  0  0  0  0  0  0  0  0
    6.2660   -4.3280   28.5850 C   0  0  0  0  0  0  0  0  0  0  0  0
    5.7450   -3.4090   27.6700 C   0  0  0  0  0  0  0  0  0  0  0  0
    6.2070   -3.6280   26.2640 N   0  0  0  0  0  0  0  0  0  0  0  0
  1  4  1  0
  2  5  1  0
  3  5  2  0
  4  5  1  6
  2  6  1  0
  7  8  1  0
  7  9  1  0
  7 10  1  0
 11 13  1  0
 12 13  2  0
 14 15  2  0
 16 17  2  0
 17 18  1  0
 18 19  2  0
  4 20  1  0
 19 20  1  0
 16 21  1  0
 20 21  2  0
 22 23  2  0
  7 24  1  0
 23 24  1  0
 24 25  2  0
 25 26  1  0
  1 27  1  0
 22 27  1  0
 26 27  2  0
 13 28  1  0
 28 29  1  0
 29 30  1  0
 31 15  1  1
 30 31  1  0
 32  1  1  6
 31 32  1  0
 28 33  1  0
 32 33  1  0
 34 35  1  0
 35 36  1  0
 36 37  1  0
 37 38  1  0
 15 39  1  0
 34 39  1  0
 38 39  1  0
M  END
