x1380-x3115
     RDKit          3D

 42 45  0  0  0  0  0  0  0  0999 V2000
    7.2830   -1.6600   22.3480 N   0  0  0  0  0  0  0  0  0  0  0  0
    7.8380    1.8830   22.9090 N   0  0  0  0  0  0  0  0  0  0  0  0
    9.1510    0.6840   21.5230 O   0  0  0  0  0  0  0  0  0  0  0  0
    7.7020    5.5480   22.7050 O   0  0  0  0  0  0  0  0  0  0  0  0
    6.9020   -0.2380   21.9960 C   0  0  1  0  0  0  0  0  0  0  0  0
    8.0810    0.7810   22.1060 C   0  0  0  0  0  0  0  0  0  0  0  0
    7.7880    3.1580   22.2560 C   0  0  0  0  0  0  0  0  0  0  0  0
    8.2760    4.3130   23.1360 C   0  0  0  0  0  0  0  0  0  0  0  0
    8.6670    6.5160   22.3080 C   0  0  0  0  0  0  0  0  0  0  0  0
   12.5130   -2.0420   24.2040 C   0  0  0  0  0  0  0  0  0  0  0  0
   13.3840   -2.2340   23.1490 C   0  0  0  0  0  0  0  0  0  0  0  0
   13.0710   -2.9500   25.3100 C   0  0  0  0  0  0  0  0  0  0  0  0
   12.8020   -0.6260   24.7080 C   0  0  0  0  0  0  0  0  0  0  0  0
    6.8890   -3.3350   19.3320 C   0  0  0  0  0  0  0  0  0  0  0  0
    5.3170   -5.0480   19.9580 O   0  0  0  0  0  0  0  0  0  0  0  0
    6.1150   -4.2020   20.3000 C   0  0  0  0  0  0  0  0  0  0  0  0
    4.8880   -2.6630   25.3980 O   0  0  0  0  0  0  0  0  0  0  0  0
    6.1530   -3.1750   25.4290 C   0  0  0  0  0  0  0  0  0  0  0  0
    6.3520    0.1970   17.9930 N   0  0  0  0  0  0  0  0  0  0  0  0
    5.2110    0.9420   17.8950 C   0  0  0  0  0  0  0  0  0  0  0  0
    4.4860    1.3590   19.1790 C   0  0  0  0  0  0  0  0  0  0  0  0
    5.0130    0.9760   20.5350 C   0  0  0  0  0  0  0  0  0  0  0  0
    6.2880    0.1570   20.6490 C   0  0  0  0  0  0  0  0  0  0  0  0
    6.9140   -0.2110   19.3070 C   0  0  0  0  0  0  0  0  0  0  0  0
    9.6890   -1.6790   22.0760 C   0  0  0  0  0  0  0  0  0  0  0  0
   10.9780   -1.7810   22.5650 C   0  0  0  0  0  0  0  0  0  0  0  0
   11.0280   -2.0060   23.9570 C   0  0  0  0  0  0  0  0  0  0  0  0
    9.9460   -2.1360   24.8260 C   0  0  0  0  0  0  0  0  0  0  0  0
    8.6950   -2.0160   24.2550 C   0  0  0  0  0  0  0  0  0  0  0  0
    8.5600   -1.7890   22.8890 C   0  0  0  0  0  0  0  0  0  0  0  0
    6.3660   -4.0160   21.6140 N   0  0  0  0  0  0  0  0  0  0  0  0
    6.4600   -5.2040   22.4540 C   0  0  0  0  0  0  0  0  0  0  0  0
    6.3020   -4.7880   23.7630 C   0  0  0  0  0  0  0  0  0  0  0  0
    6.7820   -3.4840   24.0600 C   0  0  1  0  0  0  0  0  0  0  0  0
    6.3870   -2.4450   23.1520 C   0  0  2  0  0  0  0  0  0  0  0  0
    5.5890   -2.9530   22.1960 C   0  0  0  0  0  0  0  0  0  0  0  0
    7.9970   -4.2430   26.6930 C   0  0  0  0  0  0  0  0  0  0  0  0
    8.1350   -4.9640   27.8840 C   0  0  0  0  0  0  0  0  0  0  0  0
    6.9720   -5.3930   28.5260 C   0  0  0  0  0  0  0  0  0  0  0  0
    5.8590   -4.5630   28.4790 C   0  0  0  0  0  0  0  0  0  0  0  0
    6.0510   -3.3080   27.9430 C   0  0  0  0  0  0  0  0  0  0  0  0
    6.7580   -3.3910   26.6650 N   0  0  0  0  0  0  0  0  0  0  0  0
  1  5  1  0
  2  6  1  0
  3  6  2  0
  5  6  1  6
  2  7  1  0
  4  8  1  0
  7  8  1  0
  4  9  1  0
 10 11  1  0
 10 12  1  0
 10 13  1  0
 14 16  1  0
 15 16  2  0
 17 18  2  0
 19 20  2  0
 20 21  1  0
 21 22  2  0
  5 23  1  0
 22 23  1  0
 19 24  1  0
 23 24  2  0
 25 26  2  0
 10 27  1  0
 26 27  1  0
 27 28  2  0
 28 29  1  0
  1 30  1  0
 25 30  1  0
 29 30  2  0
 16 31  1  0
 31 32  1  0
 32 33  1  0
 34 18  1  1
 33 34  1  0
 35  1  1  6
 34 35  1  0
 31 36  1  0
 35 36  1  0
 37 38  1  0
 38 39  1  0
 39 40  1  0
 40 41  1  0
 18 42  1  0
 37 42  1  0
 41 42  1  0
M  END
