x1384-x1374
     RDKit          3D

 25 27  0  0  0  0  0  0  0  0999 V2000
   11.3070   -3.5540   24.9150 C   0  0  0  0  0  0  0  0  0  0  0  0
    6.5110   -4.6740   22.0760 N   0  0  0  0  0  0  0  0  0  0  0  0
    6.3270   -4.4910   20.6650 C   0  0  0  0  0  0  0  0  0  0  0  0
    5.4830   -5.1490   20.0540 O   0  0  0  0  0  0  0  0  0  0  0  0
    7.1420   -3.4690   19.8420 C   0  0  0  0  0  0  0  0  0  0  0  0
    2.3630   -6.7760   23.4510 O   0  0  0  0  0  0  0  0  0  0  0  0
    4.4570   -7.8070   24.4680 O   0  0  0  0  0  0  0  0  0  0  0  0
   10.0470   -3.9020   24.2160 C   0  0  0  0  0  0  0  0  0  0  0  0
    9.4920   -2.8940   23.4080 C   0  0  0  0  0  0  0  0  0  0  0  0
    8.3130   -3.1540   22.6960 C   0  0  0  0  0  0  0  0  0  0  0  0
    7.6840   -4.3680   22.7660 C   0  0  0  0  0  0  0  0  0  0  0  0
    8.3110   -5.4500   23.6700 C   0  0  0  0  0  0  0  0  0  0  0  0
    9.4670   -5.1700   24.3590 C   0  0  0  0  0  0  0  0  0  0  0  0
    5.4150   -4.7510   24.0380 C   0  0  0  0  0  0  0  0  0  0  0  0
    5.7550   -5.5740   22.9670 C   0  0  1  0  0  0  0  0  0  0  0  0
    4.7160   -6.1940   22.3270 C   0  0  0  0  0  0  0  0  0  0  0  0
    3.7760   -6.7590   23.7420 S   0  0  0  0  0  0  0  0  0  0  0  0
    4.1760   -5.3360   24.6790 C   0  0  0  0  0  0  0  0  0  0  0  0
    4.8380   -1.9500   25.9220 O   0  0  0  0  0  0  0  0  0  0  0  0
    1.8810   -3.0140   25.9850 C   0  0  0  0  0  0  0  0  0  0  0  0
    3.2920   -3.4480   25.6700 N   0  0  0  0  0  0  0  0  0  0  0  0
    3.8380   -2.6640   26.6670 C   0  0  2  0  0  0  0  0  0  0  0  0
    3.3800   -1.7760   27.5180 C   0  0  0  0  0  0  0  0  0  0  0  0
    2.0230   -1.9030   27.1470 C   0  0  0  0  0  0  0  0  0  0  0  0
    3.4860   -4.8680   25.7500 C   0  0  0  0  0  0  0  0  0  0  0  0
  2  3  1  0
  3  4  2  0
  3  5  1  0
  1  8  1  0
  8  9  2  0
  9 10  1  0
  2 11  1  0
 10 11  2  0
 11 12  1  0
  8 13  1  0
 12 13  2  0
 15  2  1  6
 14 15  1  0
 15 16  1  0
 17  6  1  0
  7 17  1  0
 16 17  1  0
 14 18  2  0
 17 18  1  0
 20 21  1  0
 22 19  1  6
 21 22  1  0
 22 23  1  0
 20 24  1  0
 23 24  1  0
 18 25  1  0
 21 25  1  0
M  END
