x1380-x2608
     RDKit          3D

 34 37  0  0  0  0  0  0  0  0999 V2000
    7.1780   -3.3840   19.4180 C   0  0  0  0  0  0  0  0  0  0  0  0
    5.3410   -4.8050   19.9800 O   0  0  0  0  0  0  0  0  0  0  0  0
    6.3880   -4.2820   20.3540 C   0  0  0  0  0  0  0  0  0  0  0  0
    5.1760   -2.1880   25.4670 O   0  0  0  0  0  0  0  0  0  0  0  0
    5.9930   -3.0880   25.2720 C   0  0  0  0  0  0  0  0  0  0  0  0
    8.6050   -1.0550   22.3740 N   0  0  0  0  0  0  0  0  0  0  0  0
   13.0010    1.6880   22.9180 C   0  0  0  0  0  0  0  0  0  0  0  0
    8.5060    0.7310   21.2760 O   0  0  0  0  0  0  0  0  0  0  0  0
    6.8480   -0.8590   20.9750 N   0  0  0  0  0  0  0  0  0  0  0  0
    8.0590   -0.3750   21.5850 C   0  0  0  0  0  0  0  0  0  0  0  0
    7.9220   -1.6840   23.4870 C   0  0  0  0  0  0  0  0  0  0  0  0
    6.9430   -4.5360   21.5990 N   0  0  0  0  0  0  0  0  0  0  0  0
    6.3020   -5.5390   22.4570 C   0  0  0  0  0  0  0  0  0  0  0  0
    6.3480   -4.9780   23.7450 C   0  0  0  0  0  0  0  0  0  0  0  0
    6.1400   -3.5970   23.8070 C   0  0  2  0  0  0  0  0  0  0  0  0
    7.0230   -2.8300   23.0010 C   0  0  2  0  0  0  0  0  0  0  0  0
    7.7510   -3.6680   22.2070 C   0  0  0  0  0  0  0  0  0  0  0  0
    7.8940   -4.4240   26.4100 C   0  0  0  0  0  0  0  0  0  0  0  0
    8.1830   -4.9630   27.8280 C   0  0  0  0  0  0  0  0  0  0  0  0
    6.9310   -5.4960   28.5550 C   0  0  0  0  0  0  0  0  0  0  0  0
    5.7730   -4.5130   28.4750 C   0  0  0  0  0  0  0  0  0  0  0  0
    6.1580   -3.2270   27.7410 C   0  0  0  0  0  0  0  0  0  0  0  0
    6.6760   -3.5990   26.3910 N   0  0  0  0  0  0  0  0  0  0  0  0
   12.0090    0.6310   22.7710 C   0  0  0  0  0  0  0  0  0  0  0  0
   12.2820   -0.8490   22.6560 C   0  0  0  0  0  0  0  0  0  0  0  0
   11.0700   -1.4750   22.5170 C   0  0  0  0  0  0  0  0  0  0  0  0
    9.9030   -0.6820   22.5100 C   0  0  0  0  0  0  0  0  0  0  0  0
   10.2940    0.9790   22.6990 S   0  0  0  0  0  0  0  0  0  0  0  0
    6.1000    0.6000   17.7580 N   0  0  0  0  0  0  0  0  0  0  0  0
    6.7150   -0.1210   18.7130 C   0  0  0  0  0  0  0  0  0  0  0  0
    6.1700   -0.1080   19.9980 C   0  0  0  0  0  0  0  0  0  0  0  0
    5.0260    0.5990   20.3530 C   0  0  0  0  0  0  0  0  0  0  0  0
    4.4250    1.3300   19.3410 C   0  0  0  0  0  0  0  0  0  0  0  0
    4.9900    1.3040   18.0840 C   0  0  0  0  0  0  0  0  0  0  0  0
  1  3  1  0
  2  3  2  0
  4  5  2  0
  6 10  1  0
  8 10  2  0
  9 10  1  0
  6 11  1  0
  3 12  1  0
 12 13  1  0
 13 14  1  0
 15  5  1  1
 14 15  1  0
 16 11  1  1
 15 16  1  0
 12 17  1  0
 16 17  1  0
 18 19  1  0
 19 20  1  0
 20 21  1  0
 21 22  1  0
  5 23  1  0
 18 23  1  0
 22 23  1  0
  7 24  1  0
 24 25  2  0
 25 26  1  0
  6 27  1  0
 26 27  2  0
 24 28  1  0
 27 28  1  0
 29 30  2  0
  9 31  1  0
 30 31  1  0
 31 32  2  0
 32 33  1  0
 29 34  1  0
 33 34  2  0
M  END
