x1384-x2646
     RDKit          3D

 35 39  0  0  0  0  0  0  0  0999 V2000
    6.4160   -3.5720   21.7040 N   0  0  0  0  0  0  0  0  0  0  0  0
    7.2260   -3.1640   19.3310 C   0  0  0  0  0  0  0  0  0  0  0  0
    5.3730   -4.5270   19.9050 O   0  0  0  0  0  0  0  0  0  0  0  0
    6.2720   -3.8070   20.3330 C   0  0  0  0  0  0  0  0  0  0  0  0
    4.7790    1.2430   21.4920 C   0  0  0  0  0  0  0  0  0  0  0  0
    8.7250    1.4270   21.1260 O   0  0  0  0  0  0  0  0  0  0  0  0
   13.1760   -2.7590   21.3310 Cl  0  0  0  0  0  0  0  0  0  0  0  0
    7.0890   -0.3720   20.9700 N   0  0  0  0  0  0  0  0  0  0  0  0
    8.1410    0.1880   21.5650 C   0  0  0  0  0  0  0  0  0  0  0  0
    8.7310   -0.4530   22.6510 C   0  0  0  0  0  0  0  0  0  0  0  0
    7.1110   -2.4040   22.1600 C   0  0  0  0  0  0  0  0  0  0  0  0
    6.4770   -1.2500   21.7510 C   0  0  0  0  0  0  0  0  0  0  0  0
    6.3400    0.6970   17.6060 N   0  0  0  0  0  0  0  0  0  0  0  0
    6.9330    0.0800   18.6610 C   0  0  0  0  0  0  0  0  0  0  0  0
    6.3910    0.2960   19.9060 C   0  0  0  0  0  0  0  0  0  0  0  0
    5.2820    1.0780   20.1670 C   0  0  0  0  0  0  0  0  0  0  0  0
    4.6520    1.7160   19.1140 C   0  0  0  0  0  0  0  0  0  0  0  0
    5.1500    1.5550   17.8330 C   0  0  0  0  0  0  0  0  0  0  0  0
   10.8560    0.6010   23.2120 C   0  0  0  0  0  0  0  0  0  0  0  0
   12.2360    0.6190   23.2210 C   0  0  0  0  0  0  0  0  0  0  0  0
   12.9640   -0.4020   22.6600 C   0  0  0  0  0  0  0  0  0  0  0  0
   12.3340   -1.4960   22.0610 C   0  0  0  0  0  0  0  0  0  0  0  0
   10.9710   -1.6060   22.0200 C   0  0  0  0  0  0  0  0  0  0  0  0
   10.1910   -0.4490   22.6540 C   0  0  0  0  0  0  0  0  0  0  0  0
    5.8070   -2.1620   25.7950 O   0  0  0  0  0  0  0  0  0  0  0  0
    3.9550   -3.9650   23.9690 C   0  0  2  0  0  0  0  0  0  0  0  0
    5.1940   -3.6370   23.7400 C   0  0  1  0  0  0  0  0  0  0  0  0
    5.2210   -4.1930   24.9330 C   0  0  2  0  0  0  0  0  0  0  0  0
    5.1600   -5.6170   25.0960 C   0  0  0  0  0  0  0  0  0  0  0  0
    4.5080   -6.4370   24.0870 C   0  0  0  0  0  0  0  0  0  0  0  0
    3.7540   -5.2300   23.4880 C   0  0  0  0  0  0  0  0  0  0  0  0
    5.0540   -3.3510   26.0070 C   0  0  2  0  0  0  0  0  0  0  0  0
    3.7310   -3.0210   25.9270 C   0  0  0  0  0  0  0  0  0  0  0  0
    2.8510   -3.2790   24.8340 C   0  0  0  0  0  0  0  0  0  0  0  0
    5.9450   -4.4050   22.7060 C   0  0  0  0  0  0  0  0  0  0  0  0
  1  4  1  0
  2  4  1  0
  3  4  2  0
  6  9  2  0
  8  9  1  0
  9 10  1  0
  1 11  1  0
  8 12  1  0
 11 12  1  0
 13 14  2  0
  8 15  1  0
 14 15  1  0
  5 16  1  0
 15 16  2  0
 16 17  1  0
 13 18  1  0
 17 18  2  0
 19 20  2  0
 20 21  1  0
  7 22  1  0
 21 22  2  0
 22 23  1  0
 10 24  1  0
 19 24  1  0
 23 24  2  0
 26 27  1  0
 26 28  1  0
 27 28  1  0
 28 29  1  1
 29 30  1  0
 26 31  1  6
 30 31  2  0
 32 25  1  6
 28 32  1  0
 32 33  1  0
 26 34  1  0
 33 34  2  0
  1 35  1  0
 27 35  1  6
M  END
