x1382-x0771
     RDKit          3D

 32 34  0  0  0  0  0  0  0  0999 V2000
    0.7120   -1.3130   26.2860 C   0  0  0  0  0  0  0  0  0  0  0  0
    4.2690   -7.0620   25.8550 O   0  0  0  0  0  0  0  0  0  0  0  0
    5.9280   -5.4230   26.7530 O   0  0  0  0  0  0  0  0  0  0  0  0
    5.4340   -3.9230   19.6070 O   0  0  0  0  0  0  0  0  0  0  0  0
    2.0240   -6.2550   24.9900 C   0  0  0  0  0  0  0  0  0  0  0  0
    6.2380   -4.0450   20.5220 C   0  0  0  0  0  0  0  0  0  0  0  0
    7.7090   -3.7060   20.4770 C   0  0  0  0  0  0  0  0  0  0  0  0
    4.9070   -5.7700   25.7910 S   0  0  0  0  0  0  0  0  0  0  0  0
   13.4480   -1.8530   21.0530 Cl  0  0  0  0  0  0  0  0  0  0  0  0
    7.7000   -1.0400   23.0190 C   0  0  0  0  0  0  0  0  0  0  0  0
    8.8650   -2.0220   23.1430 C   0  0  1  0  0  0  0  0  0  0  0  0
    9.1340   -2.7470   22.1050 N   0  0  0  0  0  0  0  0  0  0  0  0
    8.1730   -2.3980   21.0840 C   0  0  0  0  0  0  0  0  0  0  0  0
    7.8130   -1.2500   20.7580 O   0  0  0  0  0  0  0  0  0  0  0  0
    1.7900   -2.4100   26.1510 C   0  0  0  0  0  0  0  0  0  0  0  0
    1.3100   -3.7380   25.6270 C   0  0  0  0  0  0  0  0  0  0  0  0
    2.3300   -4.8890   25.4830 C   0  0  0  0  0  0  0  0  0  0  0  0
    3.6400   -4.5270   25.8830 C   0  0  0  0  0  0  0  0  0  0  0  0
    4.0270   -3.2620   26.3560 C   0  0  0  0  0  0  0  0  0  0  0  0
    3.1170   -2.2080   26.4920 C   0  0  0  0  0  0  0  0  0  0  0  0
    5.8980   -4.4980   21.7730 N   0  0  0  0  0  0  0  0  0  0  0  0
    5.6890   -5.9210   22.0290 C   0  0  0  0  0  0  0  0  0  0  0  0
    4.8070   -5.9460   23.1200 C   0  0  0  0  0  0  0  0  0  0  0  0
    5.5610   -5.6760   24.2230 N   0  0  0  0  0  0  0  0  0  0  0  0
    6.7500   -4.8460   24.0490 C   0  0  0  0  0  0  0  0  0  0  0  0
    6.7230   -4.0020   22.8220 C   0  0  0  0  0  0  0  0  0  0  0  0
   10.1530   -1.2830   23.1720 C   0  0  0  0  0  0  0  0  0  0  0  0
   11.1490   -1.8330   22.2130 C   0  0  0  0  0  0  0  0  0  0  0  0
   12.4500   -1.1410   22.1770 C   0  0  0  0  0  0  0  0  0  0  0  0
   12.7080   -0.0530   22.9960 C   0  0  0  0  0  0  0  0  0  0  0  0
   11.7330    0.4200   23.8800 C   0  0  0  0  0  0  0  0  0  0  0  0
   10.4550   -0.1830   23.9810 C   0  0  0  0  0  0  0  0  0  0  0  0
  4  6  2  0
  6  7  1  0
  2  8  2  0
  3  8  2  0
 11 10  1  6
 11 12  1  0
  7 13  1  0
 12 13  1  0
 13 14  2  0
  1 15  1  0
 15 16  2  0
  5 17  1  0
 16 17  1  0
  8 18  1  0
 17 18  2  0
 18 19  1  0
 15 20  1  0
 19 20  2  0
  6 21  1  0
 21 22  1  0
 22 23  1  0
  8 24  1  0
 23 24  1  0
 24 25  1  0
 21 26  1  0
 25 26  1  0
 11 27  1  0
 27 28  2  0
  9 29  1  0
 28 29  1  0
 29 30  2  0
 30 31  1  0
 27 32  1  0
 31 32  2  0
M  END
