x1384-x2776
     RDKit          3D

 46 51  0  0  0  0  0  0  0  0999 V2000
    7.8010   -1.2660   21.5700 N   0  0  0  0  0  0  0  0  0  0  0  0
    7.8740    1.9840   22.9150 N   0  0  0  0  0  0  0  0  0  0  0  0
    8.9170    1.4160   20.9830 O   0  0  0  0  0  0  0  0  0  0  0  0
   10.7840    6.8380   23.8540 O   0  0  0  0  0  0  0  0  0  0  0  0
    7.0870   -0.0280   21.6300 C   0  0  1  0  0  0  0  0  0  0  0  0
   12.3230   -2.6920   25.2110 O   0  0  0  0  0  0  0  0  0  0  0  0
    8.0480    1.1710   21.8010 C   0  0  0  0  0  0  0  0  0  0  0  0
   10.4970    1.6960   23.8410 C   0  0  0  0  0  0  0  0  0  0  0  0
   11.8350    6.7040   24.8150 C   0  0  0  0  0  0  0  0  0  0  0  0
   12.2380   -1.3690   24.7040 C   0  0  1  0  0  0  0  0  0  0  0  0
   13.2480   -0.9190   23.8650 C   0  0  0  0  0  0  0  0  0  0  0  0
   13.6530   -3.0300   25.4920 C   0  0  0  0  0  0  0  0  0  0  0  0
    6.2570   -2.9850   21.5090 N   0  0  0  0  0  0  0  0  0  0  0  0
    7.1970   -3.0820   19.1680 C   0  0  0  0  0  0  0  0  0  0  0  0
    5.3910   -4.4290   19.8900 O   0  0  0  0  0  0  0  0  0  0  0  0
    6.1970   -3.5560   20.2260 C   0  0  0  0  0  0  0  0  0  0  0  0
    7.3630   -2.5820   22.0200 C   0  0  0  0  0  0  0  0  0  0  0  0
    6.4030    0.2510   17.8510 N   0  0  0  0  0  0  0  0  0  0  0  0
    5.1970    1.0980   17.9080 C   0  0  0  0  0  0  0  0  0  0  0  0
    4.7000    1.4900   19.1240 C   0  0  0  0  0  0  0  0  0  0  0  0
    5.2440    1.1630   20.3800 C   0  0  0  0  0  0  0  0  0  0  0  0
    6.4070    0.3540   20.3110 C   0  0  0  0  0  0  0  0  0  0  0  0
    6.9940   -0.1120   19.1300 C   0  0  0  0  0  0  0  0  0  0  0  0
    9.8970    3.1020   23.5990 C   0  0  0  0  0  0  0  0  0  0  0  0
   10.6210    4.2670   23.8260 C   0  0  0  0  0  0  0  0  0  0  0  0
   10.0120    5.6570   23.5930 C   0  0  0  0  0  0  0  0  0  0  0  0
    8.5890    5.7130   23.0880 C   0  0  0  0  0  0  0  0  0  0  0  0
    7.9370    4.4890   22.8830 C   0  0  0  0  0  0  0  0  0  0  0  0
    8.5540    3.2120   23.1290 C   0  0  0  0  0  0  0  0  0  0  0  0
   10.1010   -1.8020   22.0040 C   0  0  0  0  0  0  0  0  0  0  0  0
   11.3690   -1.9810   22.5370 C   0  0  0  0  0  0  0  0  0  0  0  0
   11.0200   -1.3400   23.9120 C   0  0  0  0  0  0  0  0  0  0  0  0
    9.8710   -0.7940   24.4490 C   0  0  0  0  0  0  0  0  0  0  0  0
    8.7560   -0.7350   23.7160 C   0  0  0  0  0  0  0  0  0  0  0  0
    8.8540   -1.2370   22.4620 C   0  0  0  0  0  0  0  0  0  0  0  0
    3.7350   -3.0820   26.5950 O   0  0  0  0  0  0  0  0  0  0  0  0
    3.6520   -4.0150   23.7320 C   0  0  2  0  0  0  0  0  0  0  0  0
    4.8430   -3.7820   23.3040 C   0  0  2  0  0  0  0  0  0  0  0  0
    5.0970   -3.9960   24.5860 C   0  0  2  0  0  0  0  0  0  0  0  0
    5.0000   -5.3240   25.0130 C   0  0  0  0  0  0  0  0  0  0  0  0
    4.3180   -6.2930   24.1780 C   0  0  0  0  0  0  0  0  0  0  0  0
    3.5010   -5.3640   23.4460 C   0  0  0  0  0  0  0  0  0  0  0  0
    4.6990   -2.8070   25.6320 C   0  0  1  0  0  0  0  0  0  0  0  0
    4.2830   -2.7070   24.4580 C   0  0  0  0  0  0  0  0  0  0  0  0
    3.5350   -3.7870   25.1170 C   0  0  0  0  0  0  0  0  0  0  0  0
    5.1930   -2.6420   22.4230 C   0  0  0  0  0  0  0  0  0  0  0  0
  1  5  1  0
  2  7  1  0
  3  7  2  0
  5  7  1  6
  4  9  1  0
  6 10  1  0
 10 11  1  6
  6 12  1  0
 13 16  1  0
 14 16  1  0
 15 16  2  0
  1 17  1  0
 13 17  1  0
 18 19  2  0
 19 20  1  0
 20 21  2  0
  5 22  1  0
 21 22  1  0
 18 23  1  0
 22 23  2  0
  8 24  1  0
 24 25  2  0
  4 26  1  0
 25 26  1  0
 26 27  2  0
 27 28  1  0
  2 29  1  0
 24 29  1  0
 28 29  2  0
 30 31  2  0
 10 32  1  0
 31 32  1  0
 32 33  2  0
 33 34  1  0
  1 35  1  0
 30 35  1  0
 34 35  2  0
 37 38  1  0
 37 39  1  0
 38 39  1  0
 39 40  1  6
 40 41  1  0
 37 42  1  6
 41 42  2  0
 43 36  1  1
 39 43  1  0
 43 44  1  0
 37 45  1  0
 44 45  2  0
 13 46  1  0
 38 46  1  1
M  END
