x1382-x0991
     RDKit          3D

 17 17  0  0  0  0  0  0  0  0999 V2000
   13.3690   -1.8680   21.1440 Cl  0  0  0  0  0  0  0  0  0  0  0  0
    7.2970   -1.6050   23.1350 C   0  0  0  0  0  0  0  0  0  0  0  0
    8.4350   -2.3610   22.4430 C   0  0  2  0  0  0  0  0  0  0  0  0
    8.2920   -2.3420   21.1870 N   0  0  0  0  0  0  0  0  0  0  0  0
    7.5100   -3.2380   20.3450 C   0  0  0  0  0  0  0  0  0  0  0  0
    6.7820   -3.0620   19.2720 O   0  0  0  0  0  0  0  0  0  0  0  0
    7.5910   -4.6510   20.8530 C   0  0  0  0  0  0  0  0  0  0  0  0
    9.8220   -4.9100   24.7490 N   0  0  0  0  0  0  0  0  0  0  0  0
    8.4160   -3.8490   23.0350 C   0  0  0  0  0  0  0  0  0  0  0  0
    7.8870   -3.7710   25.3790 N   0  0  0  0  0  0  0  0  0  0  0  0
    8.7210   -4.1710   24.4060 C   0  0  0  0  0  0  0  0  0  0  0  0
    9.7610   -1.5430   22.7530 C   0  0  0  0  0  0  0  0  0  0  0  0
   10.8770   -1.9040   22.0210 C   0  0  0  0  0  0  0  0  0  0  0  0
   12.1160   -1.3270   22.1140 C   0  0  0  0  0  0  0  0  0  0  0  0
   12.2840   -0.3100   22.9980 C   0  0  0  0  0  0  0  0  0  0  0  0
   11.1350    0.1850   23.8680 C   0  0  0  0  0  0  0  0  0  0  0  0
    9.8870   -0.4870   23.6890 C   0  0  0  0  0  0  0  0  0  0  0  0
  3  2  1  1
  3  4  1  0
  4  5  1  0
  5  6  2  0
  5  7  1  0
  3  9  1  0
  8 11  2  3
  9 11  1  0
 10 11  1  0
  3 12  1  0
 12 13  2  0
  1 14  1  0
 13 14  1  0
 14 15  2  0
 15 16  1  0
 12 17  1  0
 16 17  2  0
M  END
