x1380-x2776-x2694
     RDKit          3D

 49 53  0  0  0  0  0  0  0  0999 V2000
    7.4290   -1.0790   21.4440 N   0  0  0  0  0  0  0  0  0  0  0  0
    7.7640    1.9970   22.6770 N   0  0  0  0  0  0  0  0  0  0  0  0
    9.2770    1.4300   21.0800 O   0  0  0  0  0  0  0  0  0  0  0  0
   10.6860    6.5520   24.1340 O   0  0  0  0  0  0  0  0  0  0  0  0
    7.0990    0.2730   21.4480 C   0  0  1  0  0  0  0  0  0  0  0  0
   13.5720   -2.7170   24.2470 O   0  0  0  0  0  0  0  0  0  0  0  0
    8.2460    1.2570   21.6380 C   0  0  0  0  0  0  0  0  0  0  0  0
   10.3890    1.7050   23.8350 C   0  0  0  0  0  0  0  0  0  0  0  0
   11.7740    6.3370   24.6790 C   0  0  0  0  0  0  0  0  0  0  0  0
   12.6650   -1.9290   24.0570 C   0  0  1  0  0  0  0  0  0  0  0  0
   12.9380   -0.5870   24.2640 C   0  0  0  0  0  0  0  0  0  0  0  0
   13.4870   -3.2180   25.5780 C   0  0  0  0  0  0  0  0  0  0  0  0
   12.1590   -1.9980   22.7320 C   0  0  0  0  0  0  0  0  0  0  0  0
    7.2210   -3.1830   19.2140 C   0  0  0  0  0  0  0  0  0  0  0  0
    5.3900   -4.5960   19.9070 O   0  0  0  0  0  0  0  0  0  0  0  0
    6.2830   -3.8240   20.2350 C   0  0  0  0  0  0  0  0  0  0  0  0
    5.1590   -2.9580   25.2590 O   0  0  0  0  0  0  0  0  0  0  0  0
    6.2310   -3.5240   25.4790 C   0  0  0  0  0  0  0  0  0  0  0  0
    6.2960   -1.9190   21.7250 C   0  0  0  0  0  0  0  0  0  0  0  0
    6.2710    0.4430   17.7900 N   0  0  0  0  0  0  0  0  0  0  0  0
    5.1820    1.2120   17.8620 C   0  0  0  0  0  0  0  0  0  0  0  0
    4.5890    1.7350   18.9850 C   0  0  0  0  0  0  0  0  0  0  0  0
    5.2250    1.4250   20.2480 C   0  0  0  0  0  0  0  0  0  0  0  0
    6.3680    0.6270   20.1810 C   0  0  0  0  0  0  0  0  0  0  0  0
    6.8360    0.1670   18.9590 C   0  0  0  0  0  0  0  0  0  0  0  0
    9.7100    3.0660   23.5830 C   0  0  0  0  0  0  0  0  0  0  0  0
   10.4210    4.2170   23.9290 C   0  0  0  0  0  0  0  0  0  0  0  0
    9.8870    5.4900   23.7420 C   0  0  0  0  0  0  0  0  0  0  0  0
    8.5930    5.6200   23.1770 C   0  0  0  0  0  0  0  0  0  0  0  0
    7.8880    4.4420   22.8270 C   0  0  0  0  0  0  0  0  0  0  0  0
    8.4200    3.1580   23.0190 C   0  0  0  0  0  0  0  0  0  0  0  0
    9.7850   -1.5520   22.0510 C   0  0  0  0  0  0  0  0  0  0  0  0
   10.7500   -1.6810   23.0420 C   0  0  0  0  0  0  0  0  0  0  0  0
   10.4290   -1.5090   24.3850 C   0  0  0  0  0  0  0  0  0  0  0  0
    9.0290   -1.1760   24.8010 C   0  0  0  0  0  0  0  0  0  0  0  0
    8.0590   -1.0400   23.8540 C   0  0  0  0  0  0  0  0  0  0  0  0
    8.4470   -1.2370   22.3850 C   0  0  0  0  0  0  0  0  0  0  0  0
    6.4940   -3.4900   21.7040 C   0  0  1  0  0  0  0  0  0  0  0  0
    5.3500   -4.1680   22.4510 C   0  0  0  0  0  0  0  0  0  0  0  0
    5.9310   -5.0850   23.5140 C   0  0  0  0  0  0  0  0  0  0  0  0
    6.8930   -4.2840   24.3950 C   0  0  1  0  0  0  0  0  0  0  0  0
    7.8160   -3.5970   23.5870 C   0  0  0  0  0  0  0  0  0  0  0  0
    7.7210   -3.8230   22.2250 C   0  0  0  0  0  0  0  0  0  0  0  0
    8.0490   -4.2980   26.9450 C   0  0  0  0  0  0  0  0  0  0  0  0
    7.7640   -5.4890   27.6080 C   0  0  0  0  0  0  0  0  0  0  0  0
    6.9300   -5.4530   28.7370 C   0  0  0  0  0  0  0  0  0  0  0  0
    5.6370   -4.6830   28.4700 C   0  0  0  0  0  0  0  0  0  0  0  0
    5.9690   -3.3160   27.8340 C   0  0  0  0  0  0  0  0  0  0  0  0
    6.8400   -3.5020   26.6760 N   0  0  0  0  0  0  0  0  0  0  0  0
  1  5  1  0
  2  7  1  0
  3  7  2  0
  5  7  1  6
  4  9  1  0
  6 10  1  0
 10 11  1  6
  6 12  1  0
 10 13  1  0
 14 16  1  0
 15 16  2  0
 17 18  2  0
  1 19  1  0
 20 21  2  0
 21 22  1  0
 22 23  2  0
  5 24  1  0
 23 24  1  0
 20 25  1  0
 24 25  2  0
  8 26  1  0
 26 27  2  0
  4 28  1  0
 27 28  1  0
 28 29  2  0
 29 30  1  0
  2 31  1  0
 26 31  1  0
 30 31  2  0
 13 33  1  0
 32 33  2  0
 33 34  1  0
 34 35  2  0
 35 36  1  0
  1 37  1  0
 32 37  1  0
 36 37  2  0
 38 16  1  0
 38 19  1  6
 38 39  1  0
 39 40  1  0
 41 18  1  6
 40 41  1  0
 41 42  1  0
 38 43  1  0
 42 43  1  0
 44 45  1  0
 45 46  1  0
 46 47  1  0
 47 48  1  0
 18 49  1  0
 44 49  1  0
 48 49  1  0
M  END
