x1385-x2705
     RDKit          3D

 43 48  0  0  0  0  0  0  0  0999 V2000
    7.6050    1.8550   22.6180 N   0  0  0  0  0  0  0  0  0  0  0  0
    9.3050    1.5440   21.2470 O   0  0  0  0  0  0  0  0  0  0  0  0
    7.6290   -0.1350   21.0300 C   0  0  2  0  0  0  0  0  0  0  0  0
    8.2500    1.1180   21.6460 C   0  0  0  0  0  0  0  0  0  0  0  0
   10.1510    2.1080   23.9400 C   0  0  0  0  0  0  0  0  0  0  0  0
    9.2180    1.3980   24.9500 C   0  0  0  0  0  0  0  0  0  0  0  0
    6.1170    4.3420   21.7520 C   0  0  0  0  0  0  0  0  0  0  0  0
   12.0330   -1.6490   23.7350 C   0  0  0  0  0  0  0  0  0  0  0  0
   12.5960   -0.3400   24.2410 C   0  0  0  0  0  0  0  0  0  0  0  0
   12.6490   -2.7260   24.6410 C   0  0  0  0  0  0  0  0  0  0  0  0
   12.5300   -1.8890   22.4070 C   0  0  0  0  0  0  0  0  0  0  0  0
    7.4180   -2.9550   18.6830 C   0  0  0  0  0  0  0  0  0  0  0  0
    5.4220   -3.8060   19.6540 O   0  0  0  0  0  0  0  0  0  0  0  0
    6.4870   -3.1970   19.8360 C   0  0  0  0  0  0  0  0  0  0  0  0
    9.5150   -2.7290   24.0590 C   0  0  2  0  0  0  0  0  0  0  0  0
    7.3520   -5.7770   28.4250 Br  0  0  0  0  0  0  0  0  0  0  0  0
    6.1920    0.4430   17.6560 N   0  0  0  0  0  0  0  0  0  0  0  0
    5.0730    1.1020   17.9250 C   0  0  0  0  0  0  0  0  0  0  0  0
    4.6200    1.4250   19.2070 C   0  0  0  0  0  0  0  0  0  0  0  0
    5.4060    1.0360   20.2730 C   0  0  0  0  0  0  0  0  0  0  0  0
    6.5880    0.3550   19.9980 C   0  0  0  0  0  0  0  0  0  0  0  0
    6.9230    0.0820   18.6920 C   0  0  0  0  0  0  0  0  0  0  0  0
    9.4960   -1.2460   24.7090 C   0  0  0  0  0  0  0  0  0  0  0  0
    8.2350   -0.9990   24.1940 N   0  0  0  0  0  0  0  0  0  0  0  0
    8.3510   -1.8110   22.9560 C   0  0  1  0  0  0  0  0  0  0  0  0
    9.7290   -1.9060   22.6910 C   0  0  0  0  0  0  0  0  0  0  0  0
   10.5080   -1.6400   23.7630 C   0  0  0  0  0  0  0  0  0  0  0  0
    9.3870    3.3240   23.4870 C   0  0  0  0  0  0  0  0  0  0  0  0
    9.9790    4.5710   23.7330 C   0  0  0  0  0  0  0  0  0  0  0  0
    9.3330    5.7470   23.3440 C   0  0  0  0  0  0  0  0  0  0  0  0
    8.0900    5.6360   22.7090 C   0  0  0  0  0  0  0  0  0  0  0  0
    7.4730    4.4000   22.4500 C   0  0  0  0  0  0  0  0  0  0  0  0
    8.1240    3.2080   22.8390 C   0  0  0  0  0  0  0  0  0  0  0  0
    7.0830   -2.7970   21.1510 C   0  0  0  0  0  0  0  0  0  0  0  0
    7.1070   -3.9570   21.8860 C   0  0  0  0  0  0  0  0  0  0  0  0
    8.1280   -4.0830   22.7850 C   0  0  0  0  0  0  0  0  0  0  0  0
    8.2340   -2.8640   23.5730 N   0  0  0  0  0  0  0  0  0  0  0  0
    7.5980   -1.6100   21.6610 C   0  0  0  0  0  0  0  0  0  0  0  0
    9.9480   -5.0540   25.2880 C   0  0  0  0  0  0  0  0  0  0  0  0
    9.3330   -3.8380   25.0760 C   0  0  0  0  0  0  0  0  0  0  0  0
    8.0830   -3.6660   26.2420 S   0  0  0  0  0  0  0  0  0  0  0  0
    8.3880   -5.1590   26.9610 C   0  0  0  0  0  0  0  0  0  0  0  0
    9.4370   -5.8320   26.3550 C   0  0  0  0  0  0  0  0  0  0  0  0
  1  4  1  0
  2  4  2  0
  3  4  1  1
  5  6  1  0
  8  9  1  0
  8 10  1  0
  8 11  1  0
 12 14  1  0
 13 14  2  0
 17 18  2  0
 18 19  1  0
 19 20  2  0
  3 21  1  0
 20 21  1  0
 17 22  1  0
 21 22  2  0
 15 23  1  0
 23 24  2  0
 24 25  1  0
 25 26  1  6
  8 27  1  0
 23 27  1  0
 26 27  2  0
  5 28  1  0
 28 29  2  0
 29 30  1  0
 30 31  2  0
  7 32  1  0
 31 32  1  0
  1 33  1  0
 28 33  1  0
 32 33  2  0
 14 34  1  0
 34 35  1  0
 35 36  1  0
 15 37  1  0
 25 37  1  0
 36 37  1  0
  3 38  1  0
 25 38  1  0
 34 38  2  0
 15 40  1  1
 39 40  2  0
 40 41  1  0
 16 42  1  0
 41 42  1  0
 39 43  1  0
 42 43  2  0
M  END
