x1386-x1418
     RDKit          3D

 15 16  0  0  0  0  0  0  0  0999 V2000
    7.4460   -2.9600   18.6590 C   0  0  0  0  0  0  0  0  0  0  0  0
    5.5540   -3.9650   19.6920 O   0  0  0  0  0  0  0  0  0  0  0  0
    6.4770   -3.1340   19.8080 C   0  0  0  0  0  0  0  0  0  0  0  0
    9.8900   -2.5260   23.7430 C   0  0  0  0  0  0  0  0  0  0  0  0
    6.6940   -2.3530   20.9450 N   0  0  0  0  0  0  0  0  0  0  0  0
    7.6830   -1.2790   21.0880 C   0  0  0  0  0  0  0  0  0  0  0  0
    8.9060   -1.6440   21.6720 C   0  0  0  0  0  0  0  0  0  0  0  0
    8.6960   -2.4210   22.9160 N   0  0  0  0  0  0  0  0  0  0  0  0
    7.7040   -3.4990   22.8750 C   0  0  0  0  0  0  0  0  0  0  0  0
    6.5640   -2.9810   22.2470 C   0  0  0  0  0  0  0  0  0  0  0  0
   12.2650   -1.8090   22.9900 C   0  0  0  0  0  0  0  0  0  0  0  0
   10.9810   -1.5500   23.4230 C   0  0  0  0  0  0  0  0  0  0  0  0
   10.8050   -0.0630   23.5410 C   0  0  0  0  0  0  0  0  0  0  0  0
   12.1970    0.8280   23.1280 S   0  0  0  0  0  0  0  0  0  0  0  0
   13.0430   -0.6240   22.7830 C   0  0  0  0  0  0  0  0  0  0  0  0
  1  3  1  0
  2  3  2  0
  3  5  1  0
  5  6  1  0
  6  7  1  0
  4  8  1  0
  7  8  1  0
  8  9  1  0
  5 10  1  0
  9 10  1  0
  4 12  1  0
 11 12  1  0
 12 13  2  0
 13 14  1  0
 11 15  2  0
 14 15  1  0
M  END
