x1384-x3077
     RDKit          3D

 28 33  0  0  0  0  0  0  0  0999 V2000
    6.9500   -3.1990   19.2210 C   0  0  0  0  0  0  0  0  0  0  0  0
    5.4280   -4.8640   19.9930 O   0  0  0  0  0  0  0  0  0  0  0  0
   13.3330   -1.8530   21.1030 Cl  0  0  0  0  0  0  0  0  0  0  0  0
    6.2510   -3.9980   20.2840 C   0  0  0  0  0  0  0  0  0  0  0  0
    9.2570   -1.9330   24.3460 C   0  0  0  0  0  0  0  0  0  0  0  0
    4.9170   -2.2470   26.7620 O   0  0  0  0  0  0  0  0  0  0  0  0
    6.5910   -3.7600   21.6140 N   0  0  0  0  0  0  0  0  0  0  0  0
    7.5080   -4.4600   22.4010 C   0  0  0  0  0  0  0  0  0  0  0  0
    7.7490   -3.6040   23.5870 C   0  0  2  0  0  0  0  0  0  0  0  0
    6.4590   -2.9140   23.6440 C   0  0  1  0  0  0  0  0  0  0  0  0
    6.5480   -2.5230   22.3240 C   0  0  1  0  0  0  0  0  0  0  0  0
    8.5940   -2.5060   23.1980 N   0  0  0  0  0  0  0  0  0  0  0  0
    7.8420   -1.8730   22.2510 C   0  0  0  0  0  0  0  0  0  0  0  0
   10.8160    0.0720   24.4210 C   0  0  0  0  0  0  0  0  0  0  0  0
   11.9790    0.6750   23.8790 C   0  0  0  0  0  0  0  0  0  0  0  0
   12.7670    0.1070   22.8740 C   0  0  0  0  0  0  0  0  0  0  0  0
   12.4230   -1.1300   22.3310 C   0  0  0  0  0  0  0  0  0  0  0  0
   11.3090   -1.7490   22.8180 C   0  0  0  0  0  0  0  0  0  0  0  0
   10.4410   -1.1630   23.9080 C   0  0  0  0  0  0  0  0  0  0  0  0
    3.9280   -3.8300   23.6060 C   0  0  2  0  0  0  0  0  0  0  0  0
    5.3700   -3.9830   23.7950 C   0  0  2  0  0  0  0  0  0  0  0  0
    4.7320   -4.1550   25.0930 C   0  0  2  0  0  0  0  0  0  0  0  0
    4.5090   -5.5090   25.3960 C   0  0  0  0  0  0  0  0  0  0  0  0
    3.9750   -6.1110   24.2190 C   0  0  0  0  0  0  0  0  0  0  0  0
    3.6570   -5.1470   23.2520 C   0  0  0  0  0  0  0  0  0  0  0  0
    4.1120   -3.0740   25.9410 C   0  0  2  0  0  0  0  0  0  0  0  0
    4.3900   -2.8230   24.7420 C   0  0  0  0  0  0  0  0  0  0  0  0
    3.2060   -3.6250   24.7990 C   0  0  0  0  0  0  0  0  0  0  0  0
  1  4  1  0
  2  4  2  0
  4  7  1  0
  7  8  1  0
  9  8  1  6
 10  9  1  6
  7 11  1  0
 10 11  1  0
  5 12  1  0
  9 12  1  0
 11 13  1  1
 12 13  1  0
 14 15  2  0
 15 16  1  0
  3 17  1  0
 16 17  2  0
 17 18  1  0
  5 19  1  0
 14 19  1  0
 18 19  2  0
 10 21  1  0
 21 20  1  6
 20 22  1  0
 21 22  1  0
 22 23  1  1
 23 24  1  0
 20 25  1  6
 24 25  2  0
 26  6  1  1
 22 26  1  0
 26 27  1  0
 20 28  1  0
 27 28  2  0
M  END
