x1382-x1249
     RDKit          3D

 24 25  0  0  0  0  0  0  0  0999 V2000
   13.1610   -3.0110   21.4610 N   0  0  0  0  0  0  0  0  0  0  0  0
    7.9710   -1.9570   23.2680 C   0  0  0  0  0  0  0  0  0  0  0  0
    8.9710   -1.9440   22.1000 C   0  0  1  0  0  0  0  0  0  0  0  0
    8.3080   -1.5910   20.7080 N   0  0  0  0  0  0  0  0  0  0  0  0
    7.5620   -2.6030   19.9480 C   0  0  0  0  0  0  0  0  0  0  0  0
    6.6850   -2.6790   18.9700 O   0  0  0  0  0  0  0  0  0  0  0  0
    8.0060   -3.8780   20.4730 C   0  0  0  0  0  0  0  0  0  0  0  0
    8.0460    0.3770   23.8210 N   0  0  0  0  0  0  0  0  0  0  0  0
    7.3730    1.5220   23.7700 C   0  0  0  0  0  0  0  0  0  0  0  0
    7.9140    2.6130   23.6630 O   0  0  0  0  0  0  0  0  0  0  0  0
    9.1940    0.4430   24.4500 C   0  0  0  0  0  0  0  0  0  0  0  0
   12.0220   -2.3650   21.0840 C   0  0  0  0  0  0  0  0  0  0  0  0
   10.3160   -1.1750   22.5590 C   0  0  0  0  0  0  0  0  0  0  0  0
   11.6250   -1.4810   21.9940 C   0  0  0  0  0  0  0  0  0  0  0  0
   12.7480   -0.8270   22.3590 C   0  0  0  0  0  0  0  0  0  0  0  0
   12.6940    0.2260   23.3540 C   0  0  0  0  0  0  0  0  0  0  0  0
   11.5010    0.5120   23.9130 C   0  0  0  0  0  0  0  0  0  0  0  0
   10.3220   -0.1280   23.5870 C   0  0  0  0  0  0  0  0  0  0  0  0
    3.3220    0.8540   23.5920 O   0  0  0  0  0  0  0  0  0  0  0  0
    4.1700    0.8820   22.4380 C   0  0  0  0  0  0  0  0  0  0  0  0
    5.1930    1.8030   22.7020 C   0  0  0  0  0  0  0  0  0  0  0  0
    6.0080    1.3420   23.8410 N   0  0  0  0  0  0  0  0  0  0  0  0
    5.2600    0.9840   25.0490 C   0  0  0  0  0  0  0  0  0  0  0  0
    3.9900    0.2280   24.6230 C   0  0  0  0  0  0  0  0  0  0  0  0
  3  2  1  1
  3  4  1  0
  4  5  1  0
  5  6  2  0
  5  7  1  0
  8  9  1  0
  9 10  2  0
  8 11  1  0
  1 12  1  0
  3 13  1  0
 12 14  1  0
 13 14  2  0
 14 15  1  0
 15 16  2  0
 16 17  1  0
 11 18  1  0
 13 18  1  0
 17 18  2  0
 19 20  1  0
 20 21  1  0
  9 22  1  0
 21 22  1  0
 22 23  1  0
 19 24  1  0
 23 24  1  0
M  END
