x1385-x2908
     RDKit          3D

 34 38  0  0  0  0  0  0  0  0999 V2000
    7.5880   -2.9730   18.5120 C   0  0  0  0  0  0  0  0  0  0  0  0
    5.7220   -3.8980   19.6560 O   0  0  0  0  0  0  0  0  0  0  0  0
    6.6940   -3.1160   19.7320 C   0  0  0  0  0  0  0  0  0  0  0  0
    9.3120   -2.7090   24.4590 C   0  0  0  0  0  0  0  0  0  0  0  0
    7.0580   -5.9940   28.4900 Br  0  0  0  0  0  0  0  0  0  0  0  0
    4.4230    0.7640   21.5140 C   0  0  0  0  0  0  0  0  0  0  0  0
    8.4810    0.8000   21.4330 O   0  0  0  0  0  0  0  0  0  0  0  0
   13.3290   -1.8480   21.3540 Cl  0  0  0  0  0  0  0  0  0  0  0  0
    7.0120   -0.9200   21.0880 N   0  0  0  0  0  0  0  0  0  0  0  0
    8.6160   -0.9120   22.9880 N   0  0  0  0  0  0  0  0  0  0  0  0
    8.0470   -0.2910   21.8240 C   0  0  0  0  0  0  0  0  0  0  0  0
    7.0840   -2.3150   21.0260 C   0  0  1  0  0  0  0  0  0  0  0  0
    6.2010   -2.8460   22.1520 C   0  0  0  0  0  0  0  0  0  0  0  0
    6.8840   -2.7290   23.5200 C   0  0  0  0  0  0  0  0  0  0  0  0
    8.3420   -2.3310   23.4150 C   0  0  2  0  0  0  0  0  0  0  0  0
    8.8840   -3.0710   22.3000 C   0  0  0  0  0  0  0  0  0  0  0  0
    8.5660   -2.3750   21.2180 C   0  0  0  0  0  0  0  0  0  0  0  0
    9.5810   -5.1490   25.3860 C   0  0  0  0  0  0  0  0  0  0  0  0
    8.9380   -3.7550   25.3440 C   0  0  0  0  0  0  0  0  0  0  0  0
    7.7230   -3.5860   26.5280 S   0  0  0  0  0  0  0  0  0  0  0  0
    8.0610   -5.2620   27.0490 C   0  0  0  0  0  0  0  0  0  0  0  0
    9.0470   -5.9380   26.3660 C   0  0  0  0  0  0  0  0  0  0  0  0
    6.3960    0.4750   17.7230 N   0  0  0  0  0  0  0  0  0  0  0  0
    6.9280   -0.2090   18.7590 C   0  0  0  0  0  0  0  0  0  0  0  0
    6.3260   -0.1560   20.0260 C   0  0  0  0  0  0  0  0  0  0  0  0
    5.1690    0.6110   20.1900 C   0  0  0  0  0  0  0  0  0  0  0  0
    4.6010    1.3160   19.1410 C   0  0  0  0  0  0  0  0  0  0  0  0
    5.2470    1.2240   17.9150 C   0  0  0  0  0  0  0  0  0  0  0  0
   10.3480    0.4400   23.7960 C   0  0  0  0  0  0  0  0  0  0  0  0
   11.6890    0.8010   23.8450 C   0  0  0  0  0  0  0  0  0  0  0  0
   12.6230    0.0960   23.0960 C   0  0  0  0  0  0  0  0  0  0  0  0
   12.2450   -0.9650   22.2930 C   0  0  0  0  0  0  0  0  0  0  0  0
   10.9240   -1.3230   22.2390 C   0  0  0  0  0  0  0  0  0  0  0  0
    9.9540   -0.6450   22.9740 C   0  0  0  0  0  0  0  0  0  0  0  0
  1  3  1  0
  2  3  2  0
  7 11  2  0
  9 11  1  0
 10 11  1  0
 12  3  1  6
  9 12  1  0
 12 13  1  0
 13 14  1  0
 15  4  1  1
 10 15  1  0
 14 15  1  0
 15 16  1  0
 12 17  1  0
 16 17  1  0
  4 19  1  0
 18 19  2  0
 19 20  1  0
  5 21  1  0
 20 21  1  0
 18 22  1  0
 21 22  2  0
 23 24  2  0
  9 25  1  0
 24 25  1  0
  6 26  1  0
 25 26  2  0
 26 27  1  0
 23 28  1  0
 27 28  2  0
 29 30  2  0
 30 31  1  0
  8 32  1  0
 31 32  2  0
 32 33  1  0
 10 34  1  0
 29 34  1  0
 33 34  2  0
M  END
