x1384-x0354
     RDKit          3D

 34 38  0  0  0  0  0  0  0  0999 V2000
    6.2150   -4.2210   21.6680 N   0  0  0  0  0  0  0  0  0  0  0  0
    7.9820   -3.4860   20.2410 C   0  0  0  0  0  0  0  0  0  0  0  0
    5.6690   -3.8080   19.5240 O   0  0  0  0  0  0  0  0  0  0  0  0
    6.5320   -3.8490   20.4030 C   0  0  0  0  0  0  0  0  0  0  0  0
    5.2120   -2.6520   26.7150 O   0  0  0  0  0  0  0  0  0  0  0  0
   13.0570   -1.1970   22.6490 C   0  0  0  0  0  0  0  0  0  0  0  0
    7.2480   -2.1330   25.4540 N   0  0  0  0  0  0  0  0  0  0  0  0
    7.5730   -0.5140   27.5270 O   0  0  0  0  0  0  0  0  0  0  0  0
    8.3460   -1.2760   25.4960 C   0  0  0  0  0  0  0  0  0  0  0  0
    8.1590   -0.1530   26.4950 C   0  0  0  0  0  0  0  0  0  0  0  0
    5.5370    3.7170   30.8940 C   0  0  0  0  0  0  0  0  0  0  0  0
    6.2170   -1.7640   26.3250 C   0  0  0  0  0  0  0  0  0  0  0  0
    5.6550   -4.1170   24.2910 C   0  0  1  0  0  0  0  0  0  0  0  0
    5.0520   -3.2650   23.4500 C   0  0  2  0  0  0  0  0  0  0  0  0
    4.1570   -3.7000   24.5180 C   0  0  1  0  0  0  0  0  0  0  0  0
    3.3780   -4.9130   24.4450 C   0  0  0  0  0  0  0  0  0  0  0  0
    4.2240   -5.8940   23.8860 C   0  0  0  0  0  0  0  0  0  0  0  0
    5.5090   -5.4220   23.8110 C   0  0  0  0  0  0  0  0  0  0  0  0
    4.1540   -2.7140   25.8460 C   0  0  2  0  0  0  0  0  0  0  0  0
    4.8410   -2.8390   24.6300 C   0  0  0  0  0  0  0  0  0  0  0  0
    5.3020   -4.0010   25.6980 C   0  0  0  0  0  0  0  0  0  0  0  0
   12.0950   -1.3900   23.6070 N   0  0  0  0  0  0  0  0  0  0  0  0
   11.0790   -2.3370   23.1670 C   0  0  0  0  0  0  0  0  0  0  0  0
   10.1810   -2.5830   24.2100 C   0  0  0  0  0  0  0  0  0  0  0  0
    9.5620   -1.3500   24.7580 N   0  0  0  0  0  0  0  0  0  0  0  0
   10.5620   -0.3390   25.0830 C   0  0  0  0  0  0  0  0  0  0  0  0
   11.5810   -0.1380   24.1360 C   0  0  0  0  0  0  0  0  0  0  0  0
    7.6080    1.8690   28.2580 C   0  0  0  0  0  0  0  0  0  0  0  0
    7.1200    2.9010   29.0750 C   0  0  0  0  0  0  0  0  0  0  0  0
    6.0950    2.6190   29.9870 C   0  0  0  0  0  0  0  0  0  0  0  0
    5.6150    1.3230   30.0310 C   0  0  0  0  0  0  0  0  0  0  0  0
    6.1180    0.3310   29.2170 C   0  0  0  0  0  0  0  0  0  0  0  0
    7.1350    0.5740   28.3030 C   0  0  0  0  0  0  0  0  0  0  0  0
    4.9330   -3.7440   22.0900 C   0  0  0  0  0  0  0  0  0  0  0  0
  1  4  1  0
  2  4  1  0
  3  4  2  0
  7  9  2  3
  8 10  1  0
  9 10  1  0
  5 12  1  0
  7 12  1  0
 13 14  1  0
 13 15  1  0
 14 15  1  0
 15 16  1  6
 16 17  1  0
 13 18  1  1
 17 18  2  0
 19  5  1  1
 15 19  1  0
 19 20  1  0
 13 21  1  0
 20 21  2  0
  6 22  1  0
 22 23  1  0
 23 24  1  0
  9 25  1  0
 24 25  1  0
 25 26  1  0
 22 27  1  0
 26 27  1  0
 28 29  2  0
 11 30  1  0
 29 30  1  0
 30 31  2  0
 31 32  1  0
  8 33  1  0
 28 33  1  0
 32 33  2  0
  1 34  1  0
 14 34  1  6
M  END
