x1385-x2776
     RDKit          3D

 44 49  0  0  0  0  0  0  0  0999 V2000
    7.7810    1.8370   22.7500 N   0  0  0  0  0  0  0  0  0  0  0  0
    9.3050    1.6560   21.1840 O   0  0  0  0  0  0  0  0  0  0  0  0
   10.6430    6.5980   23.8910 O   0  0  0  0  0  0  0  0  0  0  0  0
    7.6550   -0.0500   21.0330 C   0  0  2  0  0  0  0  0  0  0  0  0
   13.0690   -2.5910   24.5400 O   0  0  0  0  0  0  0  0  0  0  0  0
    8.3090    1.1780   21.6620 C   0  0  0  0  0  0  0  0  0  0  0  0
   10.5170    1.6540   23.7190 C   0  0  0  0  0  0  0  0  0  0  0  0
   11.6320    6.5670   24.6390 C   0  0  0  0  0  0  0  0  0  0  0  0
   12.3130   -1.6150   24.6620 C   0  0  1  0  0  0  0  0  0  0  0  0
   12.6790   -0.6580   23.4990 C   0  0  0  0  0  0  0  0  0  0  0  0
   13.3000   -3.3330   25.7220 C   0  0  0  0  0  0  0  0  0  0  0  0
    7.4310   -2.9590   18.6660 C   0  0  0  0  0  0  0  0  0  0  0  0
    5.4550   -3.8310   19.6670 O   0  0  0  0  0  0  0  0  0  0  0  0
    6.5140   -3.2040   19.8330 C   0  0  0  0  0  0  0  0  0  0  0  0
    9.4680   -2.7160   23.9680 C   0  0  2  0  0  0  0  0  0  0  0  0
    7.4030   -5.7760   28.3890 Br  0  0  0  0  0  0  0  0  0  0  0  0
    6.2200    0.5900   17.6310 N   0  0  0  0  0  0  0  0  0  0  0  0
    5.0830    1.2570   17.8230 C   0  0  0  0  0  0  0  0  0  0  0  0
    4.5990    1.5650   19.0600 C   0  0  0  0  0  0  0  0  0  0  0  0
    5.4170    1.1350   20.2480 C   0  0  0  0  0  0  0  0  0  0  0  0
    6.6090    0.4570   20.0160 C   0  0  0  0  0  0  0  0  0  0  0  0
    6.9210    0.2240   18.7060 C   0  0  0  0  0  0  0  0  0  0  0  0
    9.8310    2.9860   23.5050 C   0  0  0  0  0  0  0  0  0  0  0  0
   10.5700    4.1510   23.7870 C   0  0  0  0  0  0  0  0  0  0  0  0
   10.0070    5.4120   23.6290 C   0  0  0  0  0  0  0  0  0  0  0  0
    8.6980    5.5100   23.1710 C   0  0  0  0  0  0  0  0  0  0  0  0
    7.9500    4.3400   22.8770 C   0  0  0  0  0  0  0  0  0  0  0  0
    8.4950    3.0580   23.0380 C   0  0  0  0  0  0  0  0  0  0  0  0
    9.5390   -2.4630   22.4300 C   0  0  0  0  0  0  0  0  0  0  0  0
   10.7450   -2.6370   23.2260 C   0  0  0  0  0  0  0  0  0  0  0  0
   10.8720   -2.1000   24.5340 C   0  0  2  0  0  0  0  0  0  0  0  0
    9.9160   -1.1960   24.3060 C   0  0  0  0  0  0  0  0  0  0  0  0
    8.7480   -0.7870   23.6770 C   0  0  0  0  0  0  0  0  0  0  0  0
    8.3340   -1.7710   22.8670 C   0  0  2  0  0  0  0  0  0  0  0  0
    7.1030   -2.7650   21.1380 C   0  0  0  0  0  0  0  0  0  0  0  0
    7.1660   -3.9500   21.9070 C   0  0  0  0  0  0  0  0  0  0  0  0
    7.6930   -4.0260   23.2150 C   0  0  0  0  0  0  0  0  0  0  0  0
    8.1160   -2.7400   23.7370 N   0  0  0  0  0  0  0  0  0  0  0  0
    7.5780   -1.5470   21.5950 C   0  0  0  0  0  0  0  0  0  0  0  0
    9.9400   -5.0650   25.2040 C   0  0  0  0  0  0  0  0  0  0  0  0
    9.3260   -3.8520   24.9900 C   0  0  0  0  0  0  0  0  0  0  0  0
    8.0980   -3.6800   26.1840 S   0  0  0  0  0  0  0  0  0  0  0  0
    8.4170   -5.1700   26.9040 C   0  0  0  0  0  0  0  0  0  0  0  0
    9.4580   -5.8450   26.2820 C   0  0  0  0  0  0  0  0  0  0  0  0
  1  6  1  0
  2  6  2  0
  4  6  1  1
  3  8  1  0
  5  9  1  0
  9 10  1  6
  5 11  1  0
 12 14  1  0
 13 14  2  0
 17 18  2  0
 18 19  1  0
 19 20  2  0
  4 21  1  0
 20 21  1  0
 17 22  1  0
 21 22  2  0
  7 23  1  0
 23 24  2  0
  3 25  1  0
 24 25  1  0
 25 26  2  0
 26 27  1  0
  1 28  1  0
 23 28  1  0
 27 28  2  0
 29 30  2  0
  9 31  1  0
 31 30  1  6
 15 32  1  0
 31 32  1  0
 32 33  2  0
 34 29  1  6
 33 34  1  0
 14 35  1  0
 35 36  1  0
 36 37  1  0
 15 38  1  0
 34 38  1  0
 37 38  1  0
  4 39  1  0
 34 39  1  0
 35 39  2  0
 15 41  1  1
 40 41  2  0
 41 42  1  0
 16 43  1  0
 42 43  1  0
 40 44  1  0
 43 44  2  0
M  END
