x1380-x0426
     RDKit          3D

 38 41  0  0  0  0  0  0  0  0999 V2000
    7.0230   -3.2990   19.3590 C   0  0  0  0  0  0  0  0  0  0  0  0
    5.2780   -4.7890   19.9560 O   0  0  0  0  0  0  0  0  0  0  0  0
    6.2390   -4.1360   20.3450 C   0  0  0  0  0  0  0  0  0  0  0  0
    5.1210   -2.1840   26.2090 N   0  0  0  0  0  0  0  0  0  0  0  0
    5.7420   -3.0670   25.3620 C   0  0  0  0  0  0  0  0  0  0  0  0
    2.3090    1.8180   23.9740 C   0  0  0  0  0  0  0  0  0  0  0  0
    2.4710    0.4610   24.1850 N   0  0  0  0  0  0  0  0  0  0  0  0
    3.2390    2.4400   23.1320 N   0  0  0  0  0  0  0  0  0  0  0  0
    4.2250    1.8550   22.3890 C   0  0  0  0  0  0  0  0  0  0  0  0
    3.6420    1.3150   21.0680 C   0  0  0  0  0  0  0  0  0  0  0  0
    2.6920    4.4240   25.2820 F   0  0  0  0  0  0  0  0  0  0  0  0
    4.2900   -1.0960   25.7320 C   0  0  0  0  0  0  0  0  0  0  0  0
    3.6370   -1.3600   24.5510 C   0  0  0  0  0  0  0  0  0  0  0  0
    3.5430   -0.3560   23.6160 C   0  0  0  0  0  0  0  0  0  0  0  0
    6.6830   -4.1790   21.6710 N   0  0  0  0  0  0  0  0  0  0  0  0
    6.5590   -5.3620   22.5490 C   0  0  0  0  0  0  0  0  0  0  0  0
    6.0870   -5.1150   23.8580 C   0  0  0  0  0  0  0  0  0  0  0  0
    6.1770   -3.7350   24.0360 C   0  0  0  0  0  0  0  0  0  0  0  0
    7.5090   -3.1400   23.6030 C   0  0  0  0  0  0  0  0  0  0  0  0
    7.5920   -3.2090   22.0910 C   0  0  0  0  0  0  0  0  0  0  0  0
    7.7480   -4.2670   26.2740 C   0  0  0  0  0  0  0  0  0  0  0  0
    7.8620   -5.5000   27.1780 C   0  0  0  0  0  0  0  0  0  0  0  0
    7.4260   -5.1440   28.5770 C   0  0  0  0  0  0  0  0  0  0  0  0
    5.9460   -4.7920   28.4690 C   0  0  0  0  0  0  0  0  0  0  0  0
    5.8400   -3.6130   27.7470 C   0  0  0  0  0  0  0  0  0  0  0  0
    6.3550   -3.8120   26.3700 N   0  0  0  0  0  0  0  0  0  0  0  0
    1.4500    3.9170   25.2360 C   0  0  0  0  0  0  0  0  0  0  0  0
    1.2190    2.6660   24.6130 C   0  0  0  0  0  0  0  0  0  0  0  0
   -0.0920    2.1690   24.5870 C   0  0  0  0  0  0  0  0  0  0  0  0
   -1.1530    2.8680   25.1540 C   0  0  0  0  0  0  0  0  0  0  0  0
   -0.9070    4.0980   25.7660 C   0  0  0  0  0  0  0  0  0  0  0  0
    0.3780    4.6220   25.8090 C   0  0  0  0  0  0  0  0  0  0  0  0
    5.6780    0.0600   20.2230 C   0  0  0  0  0  0  0  0  0  0  0  0
    6.5630   -0.1740   19.1780 C   0  0  0  0  0  0  0  0  0  0  0  0
    6.4790    0.4410   17.9850 N   0  0  0  0  0  0  0  0  0  0  0  0
    5.4970    1.3410   17.7600 C   0  0  0  0  0  0  0  0  0  0  0  0
    4.5860    1.6140   18.7700 C   0  0  0  0  0  0  0  0  0  0  0  0
    4.6600    0.9850   20.0020 C   0  0  0  0  0  0  0  0  0  0  0  0
  1  3  1  0
  2  3  2  0
  4  5  2  3
  6  7  2  3
  6  8  1  0
  8  9  1  0
  9 10  1  0
  4 12  1  0
 12 13  1  0
  7 14  1  0
 13 14  1  0
  3 15  1  0
 15 16  1  0
 16 17  1  0
  5 18  1  0
 17 18  1  0
 18 19  1  0
 15 20  1  0
 19 20  1  0
 21 22  1  0
 22 23  1  0
 23 24  1  0
 24 25  1  0
  5 26  1  0
 21 26  1  0
 25 26  1  0
 11 27  1  0
  6 28  1  0
 27 28  2  0
 28 29  1  0
 29 30  2  0
 30 31  1  0
 27 32  1  0
 31 32  2  0
 33 34  2  0
 34 35  1  0
 35 36  2  0
 36 37  1  0
 10 38  1  0
 33 38  1  0
 37 38  2  0
M  END
