x1380-x0991
     RDKit          3D

 22 25  0  0  0  0  0  0  0  0999 V2000
    7.2440   -3.2380   19.2910 C   0  0  0  0  0  0  0  0  0  0  0  0
    5.2710   -4.4560   19.8620 O   0  0  0  0  0  0  0  0  0  0  0  0
    6.3330   -3.9710   20.2510 C   0  0  0  0  0  0  0  0  0  0  0  0
    4.7940   -3.2230   25.5120 O   0  0  0  0  0  0  0  0  0  0  0  0
    5.9680   -3.6050   25.4460 C   0  0  0  0  0  0  0  0  0  0  0  0
   10.0230   -5.6220   25.0950 N   0  0  0  0  0  0  0  0  0  0  0  0
    8.5330   -3.6590   23.0680 C   0  0  0  0  0  0  0  0  0  0  0  0
    7.9160   -4.5970   23.8930 C   0  0  1  0  0  0  0  0  0  0  0  0
    8.0410   -5.2840   25.9880 N   0  0  0  0  0  0  0  0  0  0  0  0
    8.6820   -5.1910   25.0660 C   0  0  0  0  0  0  0  0  0  0  0  0
    6.7490   -4.1460   21.5590 N   0  0  0  0  0  0  0  0  0  0  0  0
    6.1390   -5.3450   22.1970 C   0  0  0  0  0  0  0  0  0  0  0  0
    5.6880   -4.9410   23.4500 C   0  0  0  0  0  0  0  0  0  0  0  0
    6.4730   -3.9790   24.0150 C   0  0  1  0  0  0  0  0  0  0  0  0
    6.3920   -2.8200   23.2690 C   0  0  0  0  0  0  0  0  0  0  0  0
    7.3000   -3.1270   22.3080 C   0  0  1  0  0  0  0  0  0  0  0  0
    8.0280   -4.1670   26.8720 C   0  0  2  0  0  0  0  0  0  0  0  0
    8.1960   -4.7420   28.2730 C   0  0  0  0  0  0  0  0  0  0  0  0
    6.8930   -5.4320   28.7310 C   0  0  0  0  0  0  0  0  0  0  0  0
    5.8420   -4.3360   28.8910 C   0  0  0  0  0  0  0  0  0  0  0  0
    5.9910   -3.1960   27.8790 C   0  0  0  0  0  0  0  0  0  0  0  0
    6.6940   -3.6250   26.6480 N   0  0  0  0  0  0  0  0  0  0  0  0
  1  3  1  0
  2  3  2  0
  4  5  2  0
  8  7  1  1
  6 10  2  3
  8 10  1  0
  9 10  1  0
  3 11  1  0
 11 12  1  0
 12 13  1  0
 14  5  1  0
  8 14  1  0
 14 13  1  6
 14 15  1  0
 16  7  1  1
 11 16  1  0
 15 16  1  0
  9 17  1  0
 17 18  1  1
 18 19  1  0
 19 20  1  0
 20 21  1  0
  5 22  1  0
 17 22  1  0
 21 22  1  0
M  END
