x1380-x2764
     RDKit          3D

 36 40  0  0  0  0  0  0  0  0999 V2000
    8.5420   -1.3870   21.5010 N   0  0  0  0  0  0  0  0  0  0  0  0
    7.1100   -1.4210   21.1140 C   0  0  0  0  0  0  0  0  0  0  0  0
    6.2900   -2.5160   21.2840 N   0  0  0  0  0  0  0  0  0  0  0  0
    9.0180   -2.3680   22.5520 C   0  0  1  0  0  0  0  0  0  0  0  0
    6.3520    1.4320   22.2420 O   0  0  0  0  0  0  0  0  0  0  0  0
    7.9330    4.7560   22.6160 N   0  0  0  0  0  0  0  0  0  0  0  0
    7.5190    1.8050   22.3920 C   0  0  0  0  0  0  0  0  0  0  0  0
    7.7510    3.3250   22.4830 C   0  0  0  0  0  0  0  0  0  0  0  0
    7.1710   -3.4600   19.3150 C   0  0  0  0  0  0  0  0  0  0  0  0
    5.7010   -5.2650   20.0220 O   0  0  0  0  0  0  0  0  0  0  0  0
    6.4010   -4.3120   20.3340 C   0  0  0  0  0  0  0  0  0  0  0  0
    5.5960   -1.5930   25.5670 O   0  0  0  0  0  0  0  0  0  0  0  0
    6.4120   -2.7400   25.3990 C   0  0  0  0  0  0  0  0  0  0  0  0
   12.5810   -1.3640   22.9390 N   0  0  0  0  0  0  0  0  0  0  0  0
   11.4250   -1.7520   22.3610 C   0  0  0  0  0  0  0  0  0  0  0  0
   10.3140   -1.9440   23.1470 C   0  0  0  0  0  0  0  0  0  0  0  0
   10.5990   -1.6910   24.4660 C   0  0  0  0  0  0  0  0  0  0  0  0
   12.2660   -1.2280   24.5830 S   0  0  0  0  0  0  0  0  0  0  0  0
    6.2280   -0.5290   18.9800 C   0  0  0  0  0  0  0  0  0  0  0  0
    5.6490    0.3720   18.0880 C   0  0  0  0  0  0  0  0  0  0  0  0
    5.2450    1.7480   18.5600 C   0  0  0  0  0  0  0  0  0  0  0  0
    5.4860    2.1340   20.0150 C   0  0  0  0  0  0  0  0  0  0  0  0
    6.1240    1.1100   20.9380 C   0  0  0  0  0  0  0  0  0  0  0  0
    6.4850   -0.2630   20.3570 C   0  0  0  0  0  0  0  0  0  0  0  0
    6.4990   -3.8830   21.7750 C   0  0  2  0  0  0  0  0  0  0  0  0
    5.4770   -4.6270   22.5680 C   0  0  0  0  0  0  0  0  0  0  0  0
    5.9290   -4.4110   23.8370 C   0  0  0  0  0  0  0  0  0  0  0  0
    6.5940   -3.1490   23.9330 C   0  0  2  0  0  0  0  0  0  0  0  0
    7.9590   -3.2070   23.3430 C   0  0  1  0  0  0  0  0  0  0  0  0
    7.8000   -4.0220   22.2360 C   0  0  0  0  0  0  0  0  0  0  0  0
    8.0490   -4.2220   26.4900 C   0  0  0  0  0  0  0  0  0  0  0  0
    7.9270   -5.3840   27.2530 C   0  0  0  0  0  0  0  0  0  0  0  0
    7.4450   -5.0800   28.5030 C   0  0  0  0  0  0  0  0  0  0  0  0
    6.1450   -4.5860   28.4280 C   0  0  0  0  0  0  0  0  0  0  0  0
    6.1590   -3.3120   27.8710 C   0  0  0  0  0  0  0  0  0  0  0  0
    6.8280   -3.3930   26.5590 N   0  0  0  0  0  0  0  0  0  0  0  0
  1  2  1  0
  2  3  2  0
  1  4  1  0
  5  7  1  0
  6  8  3  0
  7  8  1  0
  9 11  1  0
 10 11  2  0
 12 13  2  0
 14 15  2  0
  4 16  1  1
 15 16  1  0
 16 17  2  0
 14 18  1  0
 17 18  1  0
 19 20  2  0
 20 21  1  0
 21 22  2  0
  5 23  1  0
 22 23  1  0
  2 24  1  0
 19 24  1  0
 23 24  2  0
  3 25  1  0
 25 11  1  6
 25 26  1  0
 26 27  1  0
 28 13  1  1
 27 28  1  0
  4 29  1  0
 28 29  1  0
 25 30  1  0
 29 30  1  6
 31 32  1  0
 32 33  1  0
 33 34  1  0
 34 35  1  0
 13 36  1  0
 31 36  1  0
 35 36  1  0
M  END
