x1385-x2779
     RDKit          3D

 21 23  0  0  0  0  0  0  0  0999 V2000
    7.4530   -2.9980   18.6880 C   0  0  0  0  0  0  0  0  0  0  0  0
    5.4970   -3.9640   19.6560 O   0  0  0  0  0  0  0  0  0  0  0  0
    6.4630   -3.2110   19.7980 C   0  0  0  0  0  0  0  0  0  0  0  0
    9.1910   -2.8380   23.7690 C   0  0  2  0  0  0  0  0  0  0  0  0
    7.4560   -5.7290   28.4500 Br  0  0  0  0  0  0  0  0  0  0  0  0
    6.7410   -2.5270   20.9720 N   0  0  0  0  0  0  0  0  0  0  0  0
    6.5000   -3.1120   22.3060 C   0  0  0  0  0  0  0  0  0  0  0  0
    7.1800   -2.1930   23.3550 C   0  0  0  0  0  0  0  0  0  0  0  0
    8.5500   -2.0880   23.1940 N   0  0  0  0  0  0  0  0  0  0  0  0
    8.9850   -2.0350   21.7960 C   0  0  0  0  0  0  0  0  0  0  0  0
    7.7820   -1.4890   21.0350 C   0  0  0  0  0  0  0  0  0  0  0  0
    9.9610   -5.1000   25.1510 C   0  0  0  0  0  0  0  0  0  0  0  0
    9.1500   -3.8550   24.8900 C   0  0  0  0  0  0  0  0  0  0  0  0
    7.9450   -3.6870   26.1130 S   0  0  0  0  0  0  0  0  0  0  0  0
    8.4300   -5.1730   26.9200 C   0  0  0  0  0  0  0  0  0  0  0  0
    9.5050   -5.8830   26.3880 C   0  0  0  0  0  0  0  0  0  0  0  0
   11.5860   -1.9660   22.9080 C   0  0  0  0  0  0  0  0  0  0  0  0
   10.3710   -1.9470   23.8660 C   0  0  0  0  0  0  0  0  0  0  0  0
   10.6060   -0.6880   25.0220 S   0  0  0  0  0  0  0  0  0  0  0  0
   12.1080   -0.2580   24.3130 C   0  0  0  0  0  0  0  0  0  0  0  0
   12.5120   -0.9940   23.2230 C   0  0  0  0  0  0  0  0  0  0  0  0
  1  3  1  0
  2  3  2  0
  3  6  1  0
  6  7  1  0
  7  8  1  0
  4  9  1  0
  8  9  1  0
  9 10  1  0
  6 11  1  0
 10 11  1  0
  4 13  1  1
 12 13  2  0
 13 14  1  0
  5 15  1  0
 14 15  1  0
 12 16  1  0
 15 16  2  0
  4 18  1  0
 17 18  2  0
 18 19  1  0
 19 20  1  0
 17 21  1  0
 20 21  2  0
M  END
