x1385-x3110
     RDKit          3D

 42 46  0  0  0  0  0  0  0  0999 V2000
    8.1910    0.8980   23.0380 N   0  0  0  0  0  0  0  0  0  0  0  0
   13.4140    5.1410   22.6240 C   0  0  0  0  0  0  0  0  0  0  0  0
   11.9340    3.2580   22.5560 O   0  0  0  0  0  0  0  0  0  0  0  0
   12.2520    4.3550   22.0920 C   0  0  0  0  0  0  0  0  0  0  0  0
   10.8580    4.2420   24.1790 O   0  0  0  0  0  0  0  0  0  0  0  0
   11.0900    3.2710   23.4770 C   0  0  0  0  0  0  0  0  0  0  0  0
    8.9150    2.0390   21.0500 O   0  0  0  0  0  0  0  0  0  0  0  0
   10.4130    1.8730   23.5810 C   0  0  0  0  0  0  0  0  0  0  0  0
    8.8630    1.8540   23.8210 C   0  0  0  0  0  0  0  0  0  0  0  0
    8.2900    0.9350   21.6630 C   0  0  0  0  0  0  0  0  0  0  0  0
    7.6740   -0.2580   20.9110 C   0  0  2  0  0  0  0  0  0  0  0  0
   12.4340   -1.7180   24.2400 C   0  0  0  0  0  0  0  0  0  0  0  0
   12.6880   -0.5100   25.0470 C   0  0  0  0  0  0  0  0  0  0  0  0
   13.4010   -1.7970   23.0620 C   0  0  0  0  0  0  0  0  0  0  0  0
   12.7110   -2.9370   25.1290 C   0  0  0  0  0  0  0  0  0  0  0  0
    7.3730   -3.0050   18.7270 C   0  0  0  0  0  0  0  0  0  0  0  0
    5.3560   -3.8960   19.6820 O   0  0  0  0  0  0  0  0  0  0  0  0
    6.4420   -3.3470   19.8760 C   0  0  0  0  0  0  0  0  0  0  0  0
    8.6380   -2.5780   24.8510 C   0  0  1  0  0  0  0  0  0  0  0  0
    6.8880   -6.2410   28.7320 Br  0  0  0  0  0  0  0  0  0  0  0  0
    6.1800    0.4620   17.6840 N   0  0  0  0  0  0  0  0  0  0  0  0
    5.0300    1.0510   17.9920 C   0  0  0  0  0  0  0  0  0  0  0  0
    4.5580    1.2760   19.2760 C   0  0  0  0  0  0  0  0  0  0  0  0
    5.3340    0.8730   20.3820 C   0  0  0  0  0  0  0  0  0  0  0  0
    6.5430    0.2700   20.0420 C   0  0  0  0  0  0  0  0  0  0  0  0
    6.8920    0.0930   18.7330 C   0  0  0  0  0  0  0  0  0  0  0  0
    9.8060   -2.2400   21.8970 C   0  0  0  0  0  0  0  0  0  0  0  0
   11.0060   -2.1820   22.4620 C   0  0  0  0  0  0  0  0  0  0  0  0
   11.0000   -1.6070   23.6910 C   0  0  1  0  0  0  0  0  0  0  0  0
   10.0800   -2.1160   24.6260 C   0  0  0  0  0  0  0  0  0  0  0  0
    8.9400   -2.0830   23.8780 C   0  0  0  0  0  0  0  0  0  0  0  0
    8.7640   -1.7290   22.6390 C   0  0  1  0  0  0  0  0  0  0  0  0
    7.1560   -3.0590   21.1490 C   0  0  0  0  0  0  0  0  0  0  0  0
    7.3050   -4.2420   21.8770 C   0  0  0  0  0  0  0  0  0  0  0  0
    8.2490   -4.0920   22.8700 C   0  0  0  0  0  0  0  0  0  0  0  0
    8.0710   -2.7840   23.4000 N   0  0  0  0  0  0  0  0  0  0  0  0
    7.7540   -1.6620   21.5360 C   0  0  0  0  0  0  0  0  0  0  0  0
    9.4490   -5.1200   25.6370 C   0  0  0  0  0  0  0  0  0  0  0  0
    8.6040   -3.8260   25.6370 C   0  0  0  0  0  0  0  0  0  0  0  0
    7.3820   -3.8940   26.8190 S   0  0  0  0  0  0  0  0  0  0  0  0
    7.8950   -5.4700   27.3120 C   0  0  0  0  0  0  0  0  0  0  0  0
    8.9840   -6.0150   26.6270 C   0  0  0  0  0  0  0  0  0  0  0  0
  2  4  1  0
  3  4  1  0
  3  6  1  0
  5  6  2  0
  6  8  1  0
  1  9  1  0
  8  9  1  0
  1 10  1  0
  7 10  2  0
 11 10  1  1
 12 13  1  0
 12 14  1  0
 12 15  1  0
 16 18  1  0
 17 18  2  0
 21 22  2  0
 22 23  1  0
 23 24  2  0
 11 25  1  0
 24 25  1  0
 21 26  1  0
 25 26  2  0
 27 28  2  0
 29 12  1  1
 28 29  1  0
 19 30  1  0
 29 30  1  0
 30 31  2  0
 32 27  1  6
 31 32  1  0
 18 33  1  0
 33 34  1  0
 34 35  1  0
 19 36  1  0
 32 36  1  0
 35 36  1  0
 11 37  1  0
 32 37  1  0
 33 37  2  0
 19 39  1  1
 38 39  2  0
 39 40  1  0
 20 41  1  0
 40 41  1  0
 38 42  1  0
 41 42  2  0
M  END
