x1382-x0689
     RDKit          3D

 29 31  0  0  0  0  0  0  0  0999 V2000
   13.3160   -2.5580   21.1110 Cl  0  0  0  0  0  0  0  0  0  0  0  0
    7.0840   -1.1800   22.5230 C   0  0  0  0  0  0  0  0  0  0  0  0
    8.2700   -2.1630   22.3470 C   0  0  1  0  0  0  0  0  0  0  0  0
    8.1980   -3.0460   21.2160 N   0  0  0  0  0  0  0  0  0  0  0  0
    7.6740   -2.7530   19.8860 C   0  0  0  0  0  0  0  0  0  0  0  0
    6.9760   -2.8340   18.8020 O   0  0  0  0  0  0  0  0  0  0  0  0
    6.7190   -3.9720   19.9290 C   0  0  0  0  0  0  0  0  0  0  0  0
    4.7410   -3.5250   21.3420 O   0  0  0  0  0  0  0  0  0  0  0  0
    5.9310   -4.2320   21.1780 C   0  0  0  0  0  0  0  0  0  0  0  0
    3.8010   -6.3480   26.1860 O   0  0  0  0  0  0  0  0  0  0  0  0
    5.6670   -4.7730   26.8150 O   0  0  0  0  0  0  0  0  0  0  0  0
    4.5770   -5.1530   25.9490 S   0  0  0  0  0  0  0  0  0  0  0  0
    9.6410   -1.4200   22.4870 C   0  0  0  0  0  0  0  0  0  0  0  0
   10.7940   -2.1210   21.8680 C   0  0  0  0  0  0  0  0  0  0  0  0
   12.2000   -1.5980   21.8880 C   0  0  0  0  0  0  0  0  0  0  0  0
   12.5320   -0.2790   22.5640 C   0  0  0  0  0  0  0  0  0  0  0  0
   11.3170    0.4380   23.1880 C   0  0  0  0  0  0  0  0  0  0  0  0
    9.9920   -0.0720   23.1650 C   0  0  0  0  0  0  0  0  0  0  0  0
    6.3300   -5.2030   22.0590 N   0  0  0  0  0  0  0  0  0  0  0  0
    5.4790   -6.2770   22.3190 C   0  0  0  0  0  0  0  0  0  0  0  0
    4.6010   -6.0950   23.3680 C   0  0  0  0  0  0  0  0  0  0  0  0
    5.3350   -5.4490   24.4530 N   0  0  0  0  0  0  0  0  0  0  0  0
    6.2060   -4.3430   24.0590 C   0  0  0  0  0  0  0  0  0  0  0  0
    7.1700   -4.8180   23.1780 C   0  0  0  0  0  0  0  0  0  0  0  0
    3.9350   -2.2280   26.0360 S   0  0  0  0  0  0  0  0  0  0  0  0
    3.5020   -3.8350   25.8040 C   0  0  0  0  0  0  0  0  0  0  0  0
    2.0450   -4.0760   25.4540 C   0  0  0  0  0  0  0  0  0  0  0  0
    1.3270   -2.7460   25.4110 C   0  0  0  0  0  0  0  0  0  0  0  0
    2.3390   -1.6470   25.7330 C   0  0  0  0  0  0  0  0  0  0  0  0
  3  2  1  6
  3  4  1  0
  4  5  1  0
  5  6  2  0
  5  7  1  0
  7  9  1  0
  8  9  2  0
 10 12  2  0
 11 12  2  0
  3 13  1  0
 13 14  2  0
  1 15  1  0
 14 15  1  0
 15 16  2  0
 16 17  1  0
 13 18  1  0
 17 18  2  0
  9 19  1  0
 19 20  1  0
 20 21  1  0
 12 22  1  0
 21 22  1  0
 22 23  1  0
 19 24  1  0
 23 24  1  0
 12 26  1  0
 25 26  1  0
 26 27  2  0
 27 28  1  0
 25 29  1  0
 28 29  2  0
M  END
