x1385-x2964
     RDKit          3D

 34 38  0  0  0  0  0  0  0  0999 V2000
    7.3570   -2.9400   18.8750 C   0  0  0  0  0  0  0  0  0  0  0  0
    5.2860   -3.9160   19.5760 O   0  0  0  0  0  0  0  0  0  0  0  0
    6.2560   -3.2330   19.8700 C   0  0  0  0  0  0  0  0  0  0  0  0
    9.5820   -3.0470   24.0840 C   0  0  0  0  0  0  0  0  0  0  0  0
    7.2480   -5.7490   28.4820 Br  0  0  0  0  0  0  0  0  0  0  0  0
    3.3520    2.0260   19.7880 N   0  0  0  0  0  0  0  0  0  0  0  0
    8.6540    1.3840   21.1160 O   0  0  0  0  0  0  0  0  0  0  0  0
   13.3880   -2.0030   21.1670 Cl  0  0  0  0  0  0  0  0  0  0  0  0
    7.3260   -0.4850   20.8020 N   0  0  0  0  0  0  0  0  0  0  0  0
    8.9300   -0.5340   22.5650 N   0  0  0  0  0  0  0  0  0  0  0  0
    8.3290    0.2340   21.4720 C   0  0  0  0  0  0  0  0  0  0  0  0
    6.4120   -2.7270   21.2280 N   0  0  0  0  0  0  0  0  0  0  0  0
    6.3810   -3.6820   22.1840 C   0  0  0  0  0  0  0  0  0  0  0  0
    7.5310   -3.7460   23.2200 C   0  0  0  0  0  0  0  0  0  0  0  0
    8.3250   -2.6660   23.4170 N   0  0  0  0  0  0  0  0  0  0  0  0
    8.3740   -1.8770   22.3350 C   0  0  1  0  0  0  0  0  0  0  0  0
    7.0540   -1.6230   21.6680 C   0  0  1  0  0  0  0  0  0  0  0  0
    9.8250   -5.4100   25.3810 C   0  0  0  0  0  0  0  0  0  0  0  0
    9.2150   -4.0370   25.1750 C   0  0  0  0  0  0  0  0  0  0  0  0
    8.0090   -3.6890   26.3230 S   0  0  0  0  0  0  0  0  0  0  0  0
    8.2820   -5.2920   27.0480 C   0  0  0  0  0  0  0  0  0  0  0  0
    9.2470   -6.0920   26.4840 C   0  0  0  0  0  0  0  0  0  0  0  0
    4.5820    1.3640   19.3310 C   0  0  0  0  0  0  0  0  0  0  0  0
    5.3570    0.7440   20.2830 C   0  0  0  0  0  0  0  0  0  0  0  0
    6.5200    0.1090   19.9290 C   0  0  0  0  0  0  0  0  0  0  0  0
    6.9260    0.0710   18.5980 C   0  0  0  0  0  0  0  0  0  0  0  0
    6.2040    0.6700   17.5800 N   0  0  0  0  0  0  0  0  0  0  0  0
    5.0810    1.2960   17.9510 C   0  0  0  0  0  0  0  0  0  0  0  0
   10.8540    0.6440   23.5430 C   0  0  0  0  0  0  0  0  0  0  0  0
   12.2020    0.8450   23.6570 C   0  0  0  0  0  0  0  0  0  0  0  0
   13.0470    0.0160   22.9190 C   0  0  0  0  0  0  0  0  0  0  0  0
   12.4990   -0.9680   22.1180 C   0  0  0  0  0  0  0  0  0  0  0  0
   11.1710   -1.1260   22.0450 C   0  0  0  0  0  0  0  0  0  0  0  0
   10.3190   -0.3370   22.7300 C   0  0  0  0  0  0  0  0  0  0  0  0
  1  3  1  0
  2  3  2  0
  7 11  2  0
  9 11  1  0
 10 11  1  0
  3 12  1  0
 12 13  1  0
 13 14  1  0
  4 15  1  0
 14 15  1  0
 16 10  1  1
 15 16  1  0
 17  9  1  6
 12 17  1  0
 16 17  1  0
  4 19  1  0
 18 19  2  0
 19 20  1  0
  5 21  1  0
 20 21  1  0
 18 22  1  0
 21 22  2  0
  6 23  1  0
 23 24  2  0
  9 25  1  0
 24 25  1  0
 25 26  2  0
 26 27  1  0
 23 28  1  0
 27 28  2  0
 29 30  2  0
 30 31  1  0
  8 32  1  0
 31 32  2  0
 32 33  1  0
 10 34  1  0
 29 34  1  0
 33 34  2  0
M  END
