x1380-x2705-x2694
     RDKit          3D

 49 53  0  0  0  0  0  0  0  0999 V2000
    7.4610   -0.9960   21.9270 N   0  0  0  0  0  0  0  0  0  0  0  0
    7.6200    2.2520   22.7600 N   0  0  0  0  0  0  0  0  0  0  0  0
    9.0460    1.4130   21.0430 O   0  0  0  0  0  0  0  0  0  0  0  0
    7.0220    0.3130   21.6820 C   0  0  1  0  0  0  0  0  0  0  0  0
    7.9490    1.3470   21.8190 C   0  0  0  0  0  0  0  0  0  0  0  0
   10.0940    1.9820   23.8760 C   0  0  0  0  0  0  0  0  0  0  0  0
    9.2090    1.3520   24.7530 C   0  0  0  0  0  0  0  0  0  0  0  0
    6.4800    4.8310   22.0460 C   0  0  0  0  0  0  0  0  0  0  0  0
   12.4290   -1.4400   23.1820 C   0  0  0  0  0  0  0  0  0  0  0  0
   13.0090   -0.1950   23.4110 C   0  0  0  0  0  0  0  0  0  0  0  0
   12.9160   -2.3950   24.2870 C   0  0  0  0  0  0  0  0  0  0  0  0
   12.9130   -1.9410   21.8140 C   0  0  0  0  0  0  0  0  0  0  0  0
   10.5820    6.9540   23.8030 O   0  0  0  0  0  0  0  0  0  0  0  0
   11.6770    6.8320   24.6150 C   0  0  0  0  0  0  0  0  0  0  0  0
    7.0130   -3.3870   19.5230 C   0  0  0  0  0  0  0  0  0  0  0  0
    5.3450   -4.9800   20.0080 O   0  0  0  0  0  0  0  0  0  0  0  0
    6.3380   -4.3980   20.4320 C   0  0  0  0  0  0  0  0  0  0  0  0
    4.4930   -2.3980   25.7090 O   0  0  0  0  0  0  0  0  0  0  0  0
    5.5700   -3.2520   25.3910 C   0  0  0  0  0  0  0  0  0  0  0  0
    6.3700   -1.8380   22.3910 C   0  0  0  0  0  0  0  0  0  0  0  0
    6.3170    0.1790   17.9560 N   0  0  0  0  0  0  0  0  0  0  0  0
    5.1810    0.9010   17.8560 C   0  0  0  0  0  0  0  0  0  0  0  0
    4.5840    1.4490   18.9750 C   0  0  0  0  0  0  0  0  0  0  0  0
    5.1600    1.2630   20.2190 C   0  0  0  0  0  0  0  0  0  0  0  0
    6.3320    0.5300   20.3540 C   0  0  0  0  0  0  0  0  0  0  0  0
    6.8690    0.0010   19.1770 C   0  0  0  0  0  0  0  0  0  0  0  0
   10.1540   -1.4240   24.4460 N   0  0  0  0  0  0  0  0  0  0  0  0
    8.8870   -1.2980   24.0000 N   0  0  0  0  0  0  0  0  0  0  0  0
    8.6960   -1.1530   22.6550 C   0  0  0  0  0  0  0  0  0  0  0  0
   10.0210   -1.2050   22.2420 C   0  0  0  0  0  0  0  0  0  0  0  0
   10.9330   -1.3600   23.2520 C   0  0  0  0  0  0  0  0  0  0  0  0
    9.6020    3.3920   23.5700 C   0  0  0  0  0  0  0  0  0  0  0  0
   10.3370    4.5290   23.8300 C   0  0  0  0  0  0  0  0  0  0  0  0
    9.8680    5.8070   23.5410 C   0  0  0  0  0  0  0  0  0  0  0  0
    8.5770    5.9320   22.9400 C   0  0  0  0  0  0  0  0  0  0  0  0
    7.8170    4.7550   22.6700 C   0  0  0  0  0  0  0  0  0  0  0  0
    8.3310    3.4940   22.9930 C   0  0  0  0  0  0  0  0  0  0  0  0
    6.8960   -4.6780   21.6920 N   0  0  0  0  0  0  0  0  0  0  0  0
    6.2180   -5.4890   22.5200 C   0  0  0  0  0  0  0  0  0  0  0  0
    5.8320   -5.0420   23.7950 C   0  0  0  0  0  0  0  0  0  0  0  0
    5.7310   -3.6390   23.8970 C   0  0  2  0  0  0  0  0  0  0  0  0
    6.8180   -2.9470   23.3560 C   0  0  1  0  0  0  0  0  0  0  0  0
    7.6000   -3.7860   22.4010 C   0  0  0  0  0  0  0  0  0  0  0  0
    7.7930   -4.1950   26.3130 C   0  0  0  0  0  0  0  0  0  0  0  0
    8.1290   -5.1530   27.4470 C   0  0  0  0  0  0  0  0  0  0  0  0
    7.1690   -4.9090   28.6330 C   0  0  0  0  0  0  0  0  0  0  0  0
    5.8650   -4.8890   28.4930 C   0  0  0  0  0  0  0  0  0  0  0  0
    5.9190   -3.5310   27.7900 C   0  0  0  0  0  0  0  0  0  0  0  0
    6.4130   -3.6970   26.4210 N   0  0  0  0  0  0  0  0  0  0  0  0
  1  4  1  0
  2  5  1  0
  3  5  2  0
  4  5  1  6
  6  7  1  0
  9 10  1  0
  9 11  1  0
  9 12  1  0
 13 14  1  0
 15 17  1  0
 16 17  2  0
 18 19  2  0
  1 20  1  0
 21 22  2  0
 22 23  1  0
 23 24  2  0
  4 25  1  0
 24 25  1  0
 21 26  1  0
 25 26  2  0
 27 28  1  0
  1 29  1  0
 28 29  2  0
 29 30  1  0
  9 31  1  0
 27 31  1  0
 30 31  2  0
  6 32  1  0
 32 33  2  0
 13 34  1  0
 33 34  1  0
 34 35  2  0
  8 36  1  0
 35 36  1  0
  2 37  1  0
 32 37  1  0
 36 37  2  0
 17 38  1  0
 38 39  1  0
 39 40  1  0
 41 19  1  1
 40 41  1  0
 42 20  1  6
 41 42  1  0
 38 43  1  0
 42 43  1  0
 44 45  1  0
 45 46  1  0
 46 47  1  0
 47 48  1  0
 19 49  1  0
 44 49  1  0
 48 49  1  0
M  END
