x1384-x2703
     RDKit          3D

 45 50  0  0  0  0  0  0  0  0999 V2000
    7.2930   -1.2490   21.7730 N   0  0  0  0  0  0  0  0  0  0  0  0
    7.4960    2.1210   22.7000 N   0  0  0  0  0  0  0  0  0  0  0  0
    8.9150    1.3240   21.1140 O   0  0  0  0  0  0  0  0  0  0  0  0
    6.8970    0.0740   21.5960 C   0  0  1  0  0  0  0  0  0  0  0  0
    7.8800    1.1900   21.7610 C   0  0  0  0  0  0  0  0  0  0  0  0
   10.2110    2.1300   23.9700 C   0  0  0  0  0  0  0  0  0  0  0  0
    9.2700    1.3930   24.9190 C   0  0  0  0  0  0  0  0  0  0  0  0
    6.1510    4.5600   21.8050 C   0  0  0  0  0  0  0  0  0  0  0  0
   12.2800   -1.6690   24.5470 C   0  0  0  0  0  0  0  0  0  0  0  0
   12.8160   -2.8930   24.9260 C   0  0  0  0  0  0  0  0  0  0  0  0
   13.2030   -0.9960   23.5610 C   0  0  0  0  0  0  0  0  0  0  0  0
    6.4770   -3.4410   21.5750 N   0  0  0  0  0  0  0  0  0  0  0  0
    7.3050   -3.1260   19.2240 C   0  0  0  0  0  0  0  0  0  0  0  0
    5.3940   -4.4260   19.8590 O   0  0  0  0  0  0  0  0  0  0  0  0
    6.3280   -3.7140   20.2180 C   0  0  0  0  0  0  0  0  0  0  0  0
    6.2600   -2.2160   22.0410 C   0  0  0  0  0  0  0  0  0  0  0  0
    6.2800    0.4260   17.7700 N   0  0  0  0  0  0  0  0  0  0  0  0
    5.1070    1.0850   17.8040 C   0  0  0  0  0  0  0  0  0  0  0  0
    4.3470    1.4830   18.8890 C   0  0  0  0  0  0  0  0  0  0  0  0
    4.8250    1.1900   20.2890 C   0  0  0  0  0  0  0  0  0  0  0  0
    6.1650    0.4540   20.3500 C   0  0  0  0  0  0  0  0  0  0  0  0
    6.7940    0.1180   18.9660 C   0  0  0  0  0  0  0  0  0  0  0  0
   10.7520   -1.8680   22.4580 N   0  0  0  0  0  0  0  0  0  0  0  0
   10.9430   -1.5860   23.8940 C   0  0  0  0  0  0  0  0  0  0  0  0
    9.7850   -1.2210   24.5450 C   0  0  0  0  0  0  0  0  0  0  0  0
    8.5520   -1.1040   23.9350 C   0  0  0  0  0  0  0  0  0  0  0  0
    8.4090   -1.3490   22.5850 C   0  0  0  0  0  0  0  0  0  0  0  0
    9.5250   -1.7390   21.8850 C   0  0  0  0  0  0  0  0  0  0  0  0
    9.5360    3.3950   23.5210 C   0  0  0  0  0  0  0  0  0  0  0  0
   10.1530    4.6490   23.6720 C   0  0  0  0  0  0  0  0  0  0  0  0
    9.5080    5.8050   23.2440 C   0  0  0  0  0  0  0  0  0  0  0  0
    8.2580    5.7100   22.6690 C   0  0  0  0  0  0  0  0  0  0  0  0
    7.5640    4.5210   22.4750 C   0  0  0  0  0  0  0  0  0  0  0  0
    8.1550    3.3900   22.8770 C   0  0  0  0  0  0  0  0  0  0  0  0
    4.2280   -1.7630   25.8480 O   0  0  0  0  0  0  0  0  0  0  0  0
    5.4200   -4.0010   24.6780 C   0  0  1  0  0  0  0  0  0  0  0  0
    5.1580   -3.5290   23.5270 C   0  0  2  0  0  0  0  0  0  0  0  0
    3.9320   -3.6830   24.1110 C   0  0  1  0  0  0  0  0  0  0  0  0
    3.3440   -4.9460   23.8680 C   0  0  0  0  0  0  0  0  0  0  0  0
    4.2100   -5.9980   24.1180 C   0  0  0  0  0  0  0  0  0  0  0  0
    5.4950   -5.4080   24.6380 C   0  0  0  0  0  0  0  0  0  0  0  0
    3.5570   -3.0020   25.6550 C   0  0  1  0  0  0  0  0  0  0  0  0
    4.3150   -4.0360   26.5390 C   0  0  0  0  0  0  0  0  0  0  0  0
    4.3550   -3.3220   25.3110 C   0  0  0  0  0  0  0  0  0  0  0  0
    5.7080   -4.3460   22.3910 C   0  0  0  0  0  0  0  0  0  0  0  0
  1  4  1  0
  2  5  1  0
  3  5  2  0
  4  5  1  6
  6  7  1  0
  9 10  1  0
  9 11  1  0
 12 15  1  0
 13 15  1  0
 14 15  2  0
  1 16  1  0
 12 16  1  0
 17 18  2  0
 18 19  1  0
 19 20  2  0
  4 21  1  0
 20 21  1  0
 17 22  1  0
 21 22  2  0
  9 24  1  0
 23 24  2  0
 24 25  1  0
 25 26  2  0
  1 27  1  0
 26 27  1  0
 23 28  1  0
 27 28  2  0
  6 29  1  0
 29 30  2  0
 30 31  1  0
 31 32  2  0
  8 33  1  0
 32 33  1  0
  2 34  1  0
 29 34  1  0
 33 34  2  0
 36 37  1  0
 36 38  1  0
 37 38  1  0
 38 39  1  6
 39 40  1  0
 36 41  1  1
 40 41  2  0
 42 35  1  6
 38 42  1  0
 42 43  1  0
 36 44  1  0
 43 44  2  0
 12 45  1  0
 37 45  1  6
M  END
