x1386-x0995
     RDKit          3D

 23 25  0  0  0  0  0  0  0  0999 V2000
    7.4190   -2.9130   18.7440 C   0  0  0  0  0  0  0  0  0  0  0  0
    5.5480   -3.9140   19.7340 O   0  0  0  0  0  0  0  0  0  0  0  0
    6.4290   -3.0320   19.9080 C   0  0  0  0  0  0  0  0  0  0  0  0
   10.0320   -2.7260   23.5990 C   0  0  0  0  0  0  0  0  0  0  0  0
    3.2570    1.1990   20.0250 N   0  0  0  0  0  0  0  0  0  0  0  0
    5.4790   -1.1990   21.2780 C   0  0  0  0  0  0  0  0  0  0  0  0
    6.5920   -2.1130   21.2370 C   0  0  0  0  0  0  0  0  0  0  0  0
    7.8050   -1.3960   21.0300 C   0  0  0  0  0  0  0  0  0  0  0  0
    8.9070   -1.7640   21.7760 C   0  0  0  0  0  0  0  0  0  0  0  0
    8.7520   -2.4310   22.9730 N   0  0  0  0  0  0  0  0  0  0  0  0
    7.9400   -3.4910   22.8840 C   0  0  0  0  0  0  0  0  0  0  0  0
    6.6650   -3.1300   22.3880 C   0  0  0  0  0  0  0  0  0  0  0  0
   12.0000   -1.5790   22.6890 C   0  0  0  0  0  0  0  0  0  0  0  0
   10.9520   -1.5810   23.6200 C   0  0  0  0  0  0  0  0  0  0  0  0
   10.9420   -0.3500   24.5120 C   0  0  0  0  0  0  0  0  0  0  0  0
   12.3270    0.5750   23.9200 S   0  0  0  0  0  0  0  0  0  0  0  0
   12.8130   -0.5080   22.7250 C   0  0  0  0  0  0  0  0  0  0  0  0
    4.5500    0.7560   19.4970 C   0  0  0  0  0  0  0  0  0  0  0  0
    5.0960    1.3130   18.2840 C   0  0  0  0  0  0  0  0  0  0  0  0
    6.2920    0.9430   17.7590 N   0  0  0  0  0  0  0  0  0  0  0  0
    6.9860    0.0170   18.4280 C   0  0  0  0  0  0  0  0  0  0  0  0
    6.6420   -0.5830   19.5050 N   0  0  0  0  0  0  0  0  0  0  0  0
    5.5040   -0.2950   20.0730 C   0  0  0  0  0  0  0  0  0  0  0  0
  1  3  1  0
  2  3  2  0
  7  3  1  0
  6  7  1  0
  7  8  1  0
  8  9  1  0
  4 10  1  0
  9 10  1  0
 10 11  1  0
  7 12  1  0
 11 12  1  0
  4 14  1  0
 13 14  1  0
 14 15  2  0
 15 16  1  0
 13 17  2  0
 16 17  1  0
  5 18  1  0
 18 19  2  0
 19 20  1  0
 20 21  2  0
 21 22  1  0
  6 23  1  0
 18 23  1  0
 22 23  2  0
M  END
