x1385-x2052
     RDKit          3D

 29 31  0  0  0  0  0  0  0  0999 V2000
    5.6990   -1.3500   25.1410 C   0  0  0  0  0  0  0  0  0  0  0  0
    4.5620   -0.8880   25.0740 O   0  0  0  0  0  0  0  0  0  0  0  0
    6.4650   -1.3030   26.2930 N   0  0  0  0  0  0  0  0  0  0  0  0
    5.4700   -4.3910   19.8650 O   0  0  0  0  0  0  0  0  0  0  0  0
    5.3000    2.3920   30.4130 O   0  0  0  0  0  0  0  0  0  0  0  0
    6.4080   -3.6300   20.0660 C   0  0  0  0  0  0  0  0  0  0  0  0
    7.2940   -3.0990   18.9340 C   0  0  0  0  0  0  0  0  0  0  0  0
    6.1300    3.2890   30.5370 C   0  0  0  0  0  0  0  0  0  0  0  0
    6.7610   -3.2180   21.3390 N   0  0  0  0  0  0  0  0  0  0  0  0
    7.2990   -1.9540   21.5650 C   0  0  0  0  0  0  0  0  0  0  0  0
    6.7740   -1.1780   22.7980 C   0  0  0  0  0  0  0  0  0  0  0  0
    6.3610   -2.0340   23.9720 C   0  0  0  0  0  0  0  0  0  0  0  0
    5.6550   -3.3230   23.5720 C   0  0  0  0  0  0  0  0  0  0  0  0
    6.3340   -4.0710   22.4440 C   0  0  0  0  0  0  0  0  0  0  0  0
    6.2220    1.9540   28.2350 N   0  0  0  0  0  0  0  0  0  0  0  0
    6.4790    1.0280   27.2580 C   0  0  0  0  0  0  0  0  0  0  0  0
    6.1310   -0.3460   27.3630 C   0  0  0  0  0  0  0  0  0  0  0  0
    5.4970   -0.7910   28.4810 C   0  0  0  0  0  0  0  0  0  0  0  0
    5.1940    0.1940   29.5780 C   0  0  0  0  0  0  0  0  0  0  0  0
    5.5820    1.5260   29.3930 C   0  0  0  0  0  0  0  0  0  0  0  0
    9.8310   -3.0920   24.2580 C   0  0  0  0  0  0  0  0  0  0  0  0
    7.1180   -5.9100   28.5800 Br  0  0  0  0  0  0  0  0  0  0  0  0
    9.8350   -5.4230   25.4510 C   0  0  0  0  0  0  0  0  0  0  0  0
    9.4040   -4.1330   25.2600 C   0  0  0  0  0  0  0  0  0  0  0  0
    8.1690   -3.8450   26.4540 S   0  0  0  0  0  0  0  0  0  0  0  0
    8.2470   -5.3910   27.1400 C   0  0  0  0  0  0  0  0  0  0  0  0
    9.1900   -6.1570   26.5210 C   0  0  0  0  0  0  0  0  0  0  0  0
    7.6440   -2.5400   24.5460 C   0  0  0  0  0  0  0  0  0  0  0  0
    8.7750   -2.4200   23.7320 C   0  0  0  0  0  0  0  0  0  0  0  0
  1  2  2  0
  1  3  1  0
  4  6  2  0
  6  7  1  0
  5  8  1  0
  6  9  1  0
  9 10  1  0
 10 11  1  0
 12  1  1  0
 11 12  1  0
 12 13  1  0
  9 14  1  0
 13 14  1  0
 15 16  2  0
  3 17  1  0
 16 17  1  0
 17 18  2  0
 18 19  1  0
  5 20  1  0
 15 20  1  0
 19 20  2  0
 21 24  1  0
 23 24  2  0
 24 25  1  0
 22 26  1  0
 25 26  1  0
 23 27  1  0
 26 27  2  0
 12 28  1  0
 21 29  1  0
 28 29  1  0
M  END
