x1386-x0991
     RDKit          3D

 19 20  0  0  0  0  0  0  0  0999 V2000
    7.4440   -2.9620   18.6560 C   0  0  0  0  0  0  0  0  0  0  0  0
    5.4970   -3.8940   19.6470 O   0  0  0  0  0  0  0  0  0  0  0  0
    6.4360   -3.0850   19.7710 C   0  0  0  0  0  0  0  0  0  0  0  0
    9.5080   -2.5650   24.0350 C   0  0  2  0  0  0  0  0  0  0  0  0
    9.8980   -5.8290   25.7450 N   0  0  0  0  0  0  0  0  0  0  0  0
    9.6830   -3.9650   24.1360 C   0  0  0  0  0  0  0  0  0  0  0  0
    8.2750   -4.1080   26.0350 N   0  0  0  0  0  0  0  0  0  0  0  0
    9.2910   -4.6460   25.3070 C   0  0  0  0  0  0  0  0  0  0  0  0
    6.6630   -2.2820   20.8980 N   0  0  0  0  0  0  0  0  0  0  0  0
    7.7220   -1.3570   20.9620 C   0  0  0  0  0  0  0  0  0  0  0  0
    8.7330   -1.6170   21.8930 C   0  0  0  0  0  0  0  0  0  0  0  0
    8.4080   -2.1440   23.1410 N   0  0  0  0  0  0  0  0  0  0  0  0
    7.5030   -3.2850   22.8820 C   0  0  0  0  0  0  0  0  0  0  0  0
    6.4320   -2.8770   22.0790 C   0  0  0  0  0  0  0  0  0  0  0  0
   11.6110   -1.8030   22.8510 C   0  0  0  0  0  0  0  0  0  0  0  0
   10.6300   -1.5890   23.8480 C   0  0  0  0  0  0  0  0  0  0  0  0
   10.8770   -0.3060   24.6280 C   0  0  0  0  0  0  0  0  0  0  0  0
   12.3380    0.3730   23.8960 S   0  0  0  0  0  0  0  0  0  0  0  0
   12.5750   -0.8520   22.7610 C   0  0  0  0  0  0  0  0  0  0  0  0
  1  3  1  0
  2  3  2  0
  4  6  1  6
  5  8  2  3
  6  8  1  0
  7  8  1  0
  3  9  1  0
  9 10  1  0
 10 11  1  0
  4 12  1  0
 11 12  1  0
 12 13  1  0
  9 14  1  0
 13 14  1  0
  4 16  1  0
 15 16  1  0
 16 17  2  0
 17 18  1  0
 15 19  2  0
 18 19  1  0
M  END
