x1385-x0395
     RDKit          3D

 24 26  0  0  0  0  0  0  0  0999 V2000
    7.3400   -2.9810   18.7880 C   0  0  0  0  0  0  0  0  0  0  0  0
    5.4380   -4.0740   19.7150 O   0  0  0  0  0  0  0  0  0  0  0  0
    6.3590   -3.2810   19.9010 C   0  0  0  0  0  0  0  0  0  0  0  0
    9.6190   -3.1830   23.9160 C   0  0  0  0  0  0  0  0  0  0  0  0
    7.1180   -5.7210   28.5350 Br  0  0  0  0  0  0  0  0  0  0  0  0
    8.9780   -0.8590   24.0260 C   0  0  0  0  0  0  0  0  0  0  0  0
   13.7720   -1.1440   21.5720 F   0  0  0  0  0  0  0  0  0  0  0  0
    6.5670   -2.6440   21.1290 N   0  0  0  0  0  0  0  0  0  0  0  0
    6.3970   -3.3020   22.3550 C   0  0  0  0  0  0  0  0  0  0  0  0
    7.0740   -2.5090   23.5290 C   0  0  0  0  0  0  0  0  0  0  0  0
    8.5670   -2.2360   23.4150 C   0  0  0  0  0  0  0  0  0  0  0  0
    8.8990   -2.0210   21.9520 C   0  0  0  0  0  0  0  0  0  0  0  0
    7.6710   -1.6700   21.1490 C   0  0  0  0  0  0  0  0  0  0  0  0
    9.7850   -5.3730   25.2760 C   0  0  0  0  0  0  0  0  0  0  0  0
    9.2090   -4.1020   25.0380 C   0  0  0  0  0  0  0  0  0  0  0  0
    7.9200   -3.6450   26.2010 S   0  0  0  0  0  0  0  0  0  0  0  0
    8.1460   -5.1970   27.0230 C   0  0  0  0  0  0  0  0  0  0  0  0
    9.2170   -6.0310   26.3910 C   0  0  0  0  0  0  0  0  0  0  0  0
   10.4680   -0.5990   23.8000 C   0  0  2  0  0  0  0  0  0  0  0  0
   11.1990    0.5600   23.6070 C   0  0  0  0  0  0  0  0  0  0  0  0
   12.4070    0.3050   22.9260 C   0  0  0  0  0  0  0  0  0  0  0  0
   12.6670   -0.9060   22.2190 C   0  0  0  0  0  0  0  0  0  0  0  0
   11.7180   -1.8800   22.1860 C   0  0  0  0  0  0  0  0  0  0  0  0
   10.4930   -1.2360   22.5060 N   0  0  0  0  0  0  0  0  0  0  0  0
  1  3  1  0
  2  3  2  0
  3  8  1  0
  8  9  1  0
  9 10  1  0
 11  4  1  0
  6 11  1  0
 10 11  1  0
 11 12  1  0
  8 13  1  0
 12 13  1  0
  4 15  1  0
 14 15  2  0
 15 16  1  0
  5 17  1  0
 16 17  1  0
 14 18  1  0
 17 18  2  0
 19  6  1  6
 19 20  1  0
 20 21  1  0
  7 22  1  0
 21 22  2  0
 22 23  1  0
 19 24  1  0
 23 24  1  0
M  END
