x1380-x1458
     RDKit          3D

 20 22  0  0  0  0  0  0  0  0999 V2000
    8.7510   -4.7630   25.9570 C   0  0  0  0  0  0  0  0  0  0  0  0
    4.7130   -3.7490   25.0620 O   0  0  0  0  0  0  0  0  0  0  0  0
    5.2390   -4.4130   19.8250 O   0  0  0  0  0  0  0  0  0  0  0  0
    6.5580   -5.6280   26.9650 C   0  0  0  0  0  0  0  0  0  0  0  0
    7.1110   -2.0990   26.2100 C   0  0  0  0  0  0  0  0  0  0  0  0
    6.0650   -3.8220   25.2320 C   0  0  0  0  0  0  0  0  0  0  0  0
    6.3520   -4.0420   20.1760 C   0  0  0  0  0  0  0  0  0  0  0  0
    7.2250   -3.2520   19.2160 C   0  0  0  0  0  0  0  0  0  0  0  0
    6.8390   -4.3730   21.4200 N   0  0  0  0  0  0  0  0  0  0  0  0
    7.7460   -3.4690   22.1090 C   0  0  0  0  0  0  0  0  0  0  0  0
    7.2850   -3.1110   23.3640 C   0  0  0  0  0  0  0  0  0  0  0  0
    6.8940   -4.1790   24.1720 C   0  0  0  0  0  0  0  0  0  0  0  0
    6.1000   -5.1830   23.5920 C   0  0  0  0  0  0  0  0  0  0  0  0
    6.4110   -5.4710   22.2810 C   0  0  0  0  0  0  0  0  0  0  0  0
    7.6090   -4.4880   26.9170 C   0  0  1  0  0  0  0  0  0  0  0  0
    8.0140   -4.7010   28.3960 C   0  0  0  0  0  0  0  0  0  0  0  0
    6.7150   -4.9320   29.1730 C   0  0  0  0  0  0  0  0  0  0  0  0
    5.7610   -4.9290   28.0650 C   0  0  1  0  0  0  0  0  0  0  0  0
    5.5920   -3.4960   27.6190 C   0  0  0  0  0  0  0  0  0  0  0  0
    6.6580   -3.4720   26.5580 C   0  0  1  0  0  0  0  0  0  0  0  0
  2  6  2  0
  3  7  2  0
  7  8  1  0
  7  9  1  0
  9 10  1  0
 10 11  1  0
  6 12  1  0
 11 12  1  0
 12 13  1  0
  9 14  1  0
 13 14  1  0
 15  1  1  6
  4 15  1  0
 15 16  1  0
 16 17  1  0
  4 18  1  0
 18 17  1  1
 18 19  1  0
 20  5  1  6
 20  6  1  0
 15 20  1  0
 19 20  1  0
M  END
