x1380-x0434
     RDKit          3D

 34 37  0  0  0  0  0  0  0  0999 V2000
    7.2080   -3.2530   19.2550 C   0  0  0  0  0  0  0  0  0  0  0  0
    5.3400   -4.5880   19.9140 O   0  0  0  0  0  0  0  0  0  0  0  0
    6.4080   -4.0780   20.2480 C   0  0  0  0  0  0  0  0  0  0  0  0
    4.9950   -2.4250   25.1030 O   0  0  0  0  0  0  0  0  0  0  0  0
    5.9960   -3.1370   25.1950 C   0  0  0  0  0  0  0  0  0  0  0  0
    8.5610    0.7780   21.2250 O   0  0  0  0  0  0  0  0  0  0  0  0
    8.2650   -0.3490   21.6160 C   0  0  0  0  0  0  0  0  0  0  0  0
    9.1880   -1.1390   22.3980 N   0  0  0  0  0  0  0  0  0  0  0  0
    7.0360   -0.9310   21.3330 N   0  0  0  0  0  0  0  0  0  0  0  0
    6.3300   -1.7330   22.3730 C   0  0  0  0  0  0  0  0  0  0  0  0
    6.9470   -4.3080   21.5020 N   0  0  0  0  0  0  0  0  0  0  0  0
    6.3340   -5.3090   22.3540 C   0  0  0  0  0  0  0  0  0  0  0  0
    5.8080   -4.6650   23.4630 C   0  0  0  0  0  0  0  0  0  0  0  0
    6.5990   -3.6800   24.0480 C   0  0  1  0  0  0  0  0  0  0  0  0
    7.2220   -2.8120   23.0980 C   0  0  1  0  0  0  0  0  0  0  0  0
    7.8840   -3.5710   22.1590 C   0  0  0  0  0  0  0  0  0  0  0  0
    7.8510   -3.8230   26.7390 C   0  0  0  0  0  0  0  0  0  0  0  0
    7.9310   -5.1350   27.2220 C   0  0  0  0  0  0  0  0  0  0  0  0
    7.1200   -5.2540   28.5120 C   0  0  0  0  0  0  0  0  0  0  0  0
    5.6930   -4.6680   28.4340 C   0  0  0  0  0  0  0  0  0  0  0  0
    5.6430   -3.3460   27.6740 C   0  0  0  0  0  0  0  0  0  0  0  0
    6.5380   -3.4470   26.4560 N   0  0  0  0  0  0  0  0  0  0  0  0
   10.6270    0.5940   23.0720 C   0  0  0  0  0  0  0  0  0  0  0  0
   12.0000    1.1920   23.2530 C   0  0  0  0  0  0  0  0  0  0  0  0
   13.1700    0.3490   22.8510 C   0  0  0  0  0  0  0  0  0  0  0  0
   12.9360   -0.9090   22.3470 C   0  0  0  0  0  0  0  0  0  0  0  0
   11.6460   -1.4550   22.1790 C   0  0  0  0  0  0  0  0  0  0  0  0
   10.4990   -0.6860   22.5480 C   0  0  0  0  0  0  0  0  0  0  0  0
    5.1620    0.4550   20.4040 C   0  0  0  0  0  0  0  0  0  0  0  0
    4.5750    1.1310   19.3200 C   0  0  0  0  0  0  0  0  0  0  0  0
    5.2370    1.0920   18.0990 C   0  0  0  0  0  0  0  0  0  0  0  0
    6.3900    0.4460   17.9050 N   0  0  0  0  0  0  0  0  0  0  0  0
    6.9180   -0.1960   18.9770 C   0  0  0  0  0  0  0  0  0  0  0  0
    6.3770   -0.2410   20.2620 C   0  0  0  0  0  0  0  0  0  0  0  0
  1  3  1  0
  2  3  2  0
  4  5  2  0
  6  7  2  0
  7  8  1  0
  7  9  1  0
  9 10  1  0
  3 11  1  0
 11 12  1  0
 12 13  1  0
 14  5  1  1
 13 14  1  0
 15 10  1  6
 14 15  1  0
 11 16  1  0
 15 16  1  0
 17 18  1  0
 18 19  1  0
 19 20  1  0
 20 21  1  0
  5 22  1  0
 17 22  1  0
 21 22  1  0
 23 24  2  0
 24 25  1  0
 25 26  2  0
 26 27  1  0
  8 28  1  0
 23 28  1  0
 27 28  2  0
 29 30  2  0
 30 31  1  0
 31 32  2  0
 32 33  1  0
  9 34  1  0
 29 34  1  0
 33 34  2  0
M  END
