x1384-x2694
     RDKit          3D

 45 50  0  0  0  0  0  0  0  0999 V2000
    7.4800   -0.9350   21.8160 N   0  0  0  0  0  0  0  0  0  0  0  0
    7.6930    2.4580   22.7460 N   0  0  0  0  0  0  0  0  0  0  0  0
    9.1390    1.6310   21.1860 O   0  0  0  0  0  0  0  0  0  0  0  0
   11.0120    6.7950   23.9400 O   0  0  0  0  0  0  0  0  0  0  0  0
    7.1020    0.3980   21.6300 C   0  0  1  0  0  0  0  0  0  0  0  0
    8.0940    1.5160   21.8090 C   0  0  0  0  0  0  0  0  0  0  0  0
   10.3700    1.9450   23.9710 C   0  0  0  0  0  0  0  0  0  0  0  0
   11.8630    6.7150   24.8310 C   0  0  0  0  0  0  0  0  0  0  0  0
   12.3880   -1.5600   23.2730 C   0  0  0  0  0  0  0  0  0  0  0  0
   12.9190   -0.1620   23.4710 C   0  0  0  0  0  0  0  0  0  0  0  0
   12.9480   -2.0350   21.9160 C   0  0  0  0  0  0  0  0  0  0  0  0
   12.8940   -2.4330   24.4510 C   0  0  0  0  0  0  0  0  0  0  0  0
    6.6740   -3.2050   21.6290 N   0  0  0  0  0  0  0  0  0  0  0  0
    7.3960   -3.0770   19.2100 C   0  0  0  0  0  0  0  0  0  0  0  0
    5.5910   -4.4500   19.9430 O   0  0  0  0  0  0  0  0  0  0  0  0
    6.4830   -3.6440   20.2780 C   0  0  0  0  0  0  0  0  0  0  0  0
    6.4060   -1.9310   21.9830 C   0  0  0  0  0  0  0  0  0  0  0  0
    6.2930    0.3990   17.8060 N   0  0  0  0  0  0  0  0  0  0  0  0
    5.1880    1.1690   17.8240 C   0  0  0  0  0  0  0  0  0  0  0  0
    4.5410    1.7590   18.8930 C   0  0  0  0  0  0  0  0  0  0  0  0
    5.0810    1.5760   20.2930 C   0  0  0  0  0  0  0  0  0  0  0  0
    6.3460    0.7200   20.3730 C   0  0  0  0  0  0  0  0  0  0  0  0
    6.8520    0.1730   19.0030 C   0  0  0  0  0  0  0  0  0  0  0  0
    8.7960   -1.5830   23.9360 N   0  0  0  0  0  0  0  0  0  0  0  0
   10.1320   -1.7590   24.3640 O   0  0  0  0  0  0  0  0  0  0  0  0
   10.9130   -1.4960   23.2160 C   0  0  0  0  0  0  0  0  0  0  0  0
   10.0720   -1.2030   22.2190 C   0  0  0  0  0  0  0  0  0  0  0  0
    8.7470   -1.2260   22.5810 C   0  0  0  0  0  0  0  0  0  0  0  0
    9.7970    3.3190   23.6150 C   0  0  0  0  0  0  0  0  0  0  0  0
   10.6370    4.3730   23.9120 C   0  0  0  0  0  0  0  0  0  0  0  0
   10.2610    5.6880   23.6650 C   0  0  0  0  0  0  0  0  0  0  0  0
    9.0050    5.9260   23.0840 C   0  0  0  0  0  0  0  0  0  0  0  0
    8.1770    4.8510   22.7860 C   0  0  0  0  0  0  0  0  0  0  0  0
    8.5370    3.5430   23.0400 C   0  0  0  0  0  0  0  0  0  0  0  0
    5.0070   -2.3820   26.8400 O   0  0  0  0  0  0  0  0  0  0  0  0
    4.0140   -3.8820   23.5330 C   0  0  2  0  0  0  0  0  0  0  0  0
    5.2370   -3.5690   23.6800 C   0  0  1  0  0  0  0  0  0  0  0  0
    4.9570   -4.0600   24.9650 C   0  0  2  0  0  0  0  0  0  0  0  0
    4.9250   -5.4780   25.1680 C   0  0  0  0  0  0  0  0  0  0  0  0
    4.6090   -6.1040   23.9820 C   0  0  0  0  0  0  0  0  0  0  0  0
    4.0960   -5.3170   22.9840 C   0  0  0  0  0  0  0  0  0  0  0  0
    4.1190   -3.0160   25.9390 C   0  0  2  0  0  0  0  0  0  0  0  0
    4.3410   -2.6330   24.6290 C   0  0  0  0  0  0  0  0  0  0  0  0
    3.3330   -3.8480   24.7510 C   0  0  0  0  0  0  0  0  0  0  0  0
    6.2400   -4.1540   22.6720 C   0  0  0  0  0  0  0  0  0  0  0  0
  1  5  1  0
  2  6  1  0
  3  6  2  0
  5  6  1  6
  4  8  1  0
  9 10  1  0
  9 11  1  0
  9 12  1  0
 13 16  1  0
 14 16  1  0
 15 16  2  0
  1 17  1  0
 13 17  1  0
 18 19  2  0
 19 20  1  0
 20 21  2  0
  5 22  1  0
 21 22  1  0
 18 23  1  0
 22 23  2  0
 24 25  1  0
  9 26  1  0
 25 26  1  0
 26 27  2  0
  1 28  1  0
 24 28  2  0
 27 28  1  0
  7 29  1  0
 29 30  2  0
  4 31  1  0
 30 31  1  0
 31 32  2  0
 32 33  1  0
  2 34  1  0
 29 34  1  0
 33 34  2  0
 36 37  1  0
 36 38  1  0
 37 38  1  0
 38 39  1  1
 39 40  1  0
 36 41  1  6
 40 41  2  0
 42 35  1  1
 38 42  1  0
 42 43  1  0
 36 44  1  0
 43 44  2  0
 13 45  1  0
 37 45  1  6
M  END
