x1382-x1351
     RDKit          3D

 30 34  0  0  0  0  0  0  0  0999 V2000
   13.3650   -2.0570   21.0840 Cl  0  0  0  0  0  0  0  0  0  0  0  0
    7.3910   -1.4350   23.5030 C   0  0  0  0  0  0  0  0  0  0  0  0
    8.4180   -2.1930   22.6840 C   0  0  1  0  0  0  0  0  0  0  0  0
    7.9360   -2.9920   21.4020 N   0  0  0  0  0  0  0  0  0  0  0  0
    7.6880   -2.7590   19.9800 C   0  0  0  0  0  0  0  0  0  0  0  0
    7.1200   -3.0350   18.8770 O   0  0  0  0  0  0  0  0  0  0  0  0
    7.2870   -4.2080   20.4200 C   0  0  0  0  0  0  0  0  0  0  0  0
    5.0640   -4.2340   19.6260 O   0  0  0  0  0  0  0  0  0  0  0  0
    5.8710   -4.0710   20.5230 C   0  0  0  0  0  0  0  0  0  0  0  0
    6.2400   -3.1820   25.7010 N   0  0  0  0  0  0  0  0  0  0  0  0
    8.3790   -2.3850   26.1910 O   0  0  0  0  0  0  0  0  0  0  0  0
    7.1680   -2.2070   26.2230 C   0  0  0  0  0  0  0  0  0  0  0  0
    9.7970   -1.4600   22.7300 C   0  0  0  0  0  0  0  0  0  0  0  0
   10.9740   -1.9460   21.9720 C   0  0  0  0  0  0  0  0  0  0  0  0
   12.1910   -1.3400   22.0210 C   0  0  0  0  0  0  0  0  0  0  0  0
   12.4910   -0.0820   22.8650 C   0  0  0  0  0  0  0  0  0  0  0  0
   11.2800    0.4420   23.6560 C   0  0  0  0  0  0  0  0  0  0  0  0
    9.9340   -0.3130   23.5390 C   0  0  0  0  0  0  0  0  0  0  0  0
    5.7050   -3.7160   21.7650 N   0  0  0  0  0  0  0  0  0  0  0  0
    6.7640   -2.9240   22.1780 C   0  0  1  0  0  0  0  0  0  0  0  0
    6.9420   -2.9190   23.6620 C   0  0  2  0  0  0  0  0  0  0  0  0
    5.8010   -3.2120   24.4310 C   0  0  1  0  0  0  0  0  0  0  0  0
    5.0290   -4.4330   23.9590 C   0  0  0  0  0  0  0  0  0  0  0  0
    5.4140   -4.7520   22.5620 C   0  0  0  0  0  0  0  0  0  0  0  0
    7.1350   -0.5770   28.0860 C   0  0  0  0  0  0  0  0  0  0  0  0
    6.6770    0.5660   28.7350 C   0  0  0  0  0  0  0  0  0  0  0  0
    5.6820    1.3420   28.1420 C   0  0  0  0  0  0  0  0  0  0  0  0
    5.1610    0.9710   26.9210 C   0  0  0  0  0  0  0  0  0  0  0  0
    5.6080   -0.1720   26.2590 C   0  0  0  0  0  0  0  0  0  0  0  0
    6.6150   -0.9690   26.8430 C   0  0  0  0  0  0  0  0  0  0  0  0
  2  3  1  0
  3  4  1  0
  4  5  1  0
  5  6  2  0
  5  7  1  0
  7  9  1  0
  8  9  2  0
 10 12  1  0
 11 12  2  0
  3 13  1  6
 13 14  2  0
  1 15  1  0
 14 15  1  0
 15 16  2  0
 16 17  1  0
 13 18  1  0
 17 18  2  0
  9 19  1  0
 20  4  1  6
 19 20  1  0
 21  2  1  1
 20 21  1  0
 22 10  1  1
 21 22  1  0
 22 23  1  0
 19 24  1  0
 23 24  1  0
 25 26  2  0
 26 27  1  0
 27 28  2  0
 28 29  1  0
 12 30  1  0
 25 30  1  0
 29 30  2  0
M  END
