x1382-x0981
     RDKit          3D

 28 28  0  0  0  0  0  0  0  0999 V2000
    1.1420   -8.7640   21.3060 C   0  0  0  0  0  0  0  0  0  0  0  0
    2.6090   -7.2380   22.7920 N   0  0  0  0  0  0  0  0  0  0  0  0
    0.1830   -6.6120   22.0800 O   0  0  0  0  0  0  0  0  0  0  0  0
    1.3220   -7.4720   22.1140 C   0  0  0  0  0  0  0  0  0  0  0  0
    2.4660   -8.2800   26.4940 N   0  0  0  0  0  0  0  0  0  0  0  0
    3.9600   -8.2420   24.6520 O   0  0  0  0  0  0  0  0  0  0  0  0
    2.8520   -5.9930   23.5400 C   0  0  1  0  0  0  0  0  0  0  0  0
    5.0120   -6.3110   22.4280 N   0  0  0  0  0  0  0  0  0  0  0  0
    4.7380   -4.4850   23.7210 O   0  0  0  0  0  0  0  0  0  0  0  0
    2.6730   -6.2650   24.8910 C   0  0  0  0  0  0  0  0  0  0  0  0
    3.1120   -7.6650   25.2940 C   0  0  0  0  0  0  0  0  0  0  0  0
    4.2860   -5.5290   23.2400 C   0  0  0  0  0  0  0  0  0  0  0  0
    6.4820   -6.0680   22.5500 C   0  0  0  0  0  0  0  0  0  0  0  0
   13.1640   -2.4570   21.1950 Cl  0  0  0  0  0  0  0  0  0  0  0  0
    7.4750   -0.5400   22.0310 C   0  0  0  0  0  0  0  0  0  0  0  0
    8.1940   -1.6880   22.2710 C   0  0  1  0  0  0  0  0  0  0  0  0
    7.7550   -2.9160   21.4240 N   0  0  0  0  0  0  0  0  0  0  0  0
    7.1400   -3.1080   20.0710 C   0  0  0  0  0  0  0  0  0  0  0  0
    6.0060   -3.5900   19.7420 O   0  0  0  0  0  0  0  0  0  0  0  0
    7.8260   -2.9450   18.7860 C   0  0  0  0  0  0  0  0  0  0  0  0
    6.9050   -5.0680   21.7110 C   0  0  0  0  0  0  0  0  0  0  0  0
    7.3180   -3.9270   22.3590 C   0  0  0  0  0  0  0  0  0  0  0  0
    9.5720   -1.3290   22.4950 C   0  0  0  0  0  0  0  0  0  0  0  0
   10.6420   -1.9400   21.8670 C   0  0  0  0  0  0  0  0  0  0  0  0
   11.9820   -1.6120   22.0540 C   0  0  0  0  0  0  0  0  0  0  0  0
   12.3340   -0.4900   23.0300 C   0  0  0  0  0  0  0  0  0  0  0  0
   11.2200    0.0800   23.6310 C   0  0  0  0  0  0  0  0  0  0  0  0
    9.8720   -0.2760   23.4190 C   0  0  0  0  0  0  0  0  0  0  0  0
  1  4  1  0
  2  4  1  0
  3  4  2  0
  2  7  1  0
  7 10  1  1
  5 11  1  0
  6 11  2  0
 10 11  1  0
  7 12  1  0
  8 12  1  0
  9 12  2  0
  8 13  1  0
 16 15  1  6
 16 17  1  0
 17 18  1  0
 18 19  2  0
 18 20  1  0
 13 21  1  0
 17 22  1  0
 21 22  1  0
 16 23  1  0
 23 24  2  0
 14 25  1  0
 24 25  1  0
 25 26  2  0
 26 27  1  0
 23 28  1  0
 27 28  2  0
M  END
