x1385-x1358
     RDKit          3D

 26 28  0  0  0  0  0  0  0  0999 V2000
    6.9780   -3.0140   26.1690 N   0  0  0  0  0  0  0  0  0  0  0  0
    5.4540   -0.4780   25.2880 O   0  0  0  0  0  0  0  0  0  0  0  0
    4.6320   -3.4560   25.4660 O   0  0  0  0  0  0  0  0  0  0  0  0
    5.2120   -4.0800   19.6420 O   0  0  0  0  0  0  0  0  0  0  0  0
    5.9760   -3.4240   25.2610 C   0  0  0  0  0  0  0  0  0  0  0  0
    6.3540   -3.8010   19.9390 C   0  0  0  0  0  0  0  0  0  0  0  0
    7.3630   -3.1410   18.9790 C   0  0  0  0  0  0  0  0  0  0  0  0
    9.4080   -2.8430   24.3100 C   0  0  0  0  0  0  0  0  0  0  0  0
    7.0800   -5.4760   28.4910 Br  0  0  0  0  0  0  0  0  0  0  0  0
    6.0400   -0.5550   26.3780 C   0  0  0  0  0  0  0  0  0  0  0  0
    6.8260   -1.8100   26.8750 C   0  0  0  0  0  0  0  0  0  0  0  0
    7.5250   -1.8470   28.2140 C   0  0  0  0  0  0  0  0  0  0  0  0
    7.4350   -0.6050   29.0780 C   0  0  0  0  0  0  0  0  0  0  0  0
    6.6640    0.6120   28.5800 C   0  0  0  0  0  0  0  0  0  0  0  0
    5.9750    0.5850   27.2060 C   0  0  0  0  0  0  0  0  0  0  0  0
    6.8440   -4.1090   21.1910 N   0  0  0  0  0  0  0  0  0  0  0  0
    7.5800   -3.2380   21.8890 C   0  0  0  0  0  0  0  0  0  0  0  0
    7.0430   -2.7360   23.0300 C   0  0  0  0  0  0  0  0  0  0  0  0
    6.5190   -3.8900   23.8720 C   0  0  0  0  0  0  0  0  0  0  0  0
    5.6870   -4.7690   23.1560 C   0  0  0  0  0  0  0  0  0  0  0  0
    6.2100   -5.0640   21.9110 C   0  0  0  0  0  0  0  0  0  0  0  0
    9.5620   -5.2340   25.2940 C   0  0  0  0  0  0  0  0  0  0  0  0
    9.0630   -3.9440   25.2980 C   0  0  0  0  0  0  0  0  0  0  0  0
    8.1740   -3.7960   26.4300 C   0  0  2  0  0  0  0  0  0  0  0  0
    8.1310   -5.0990   27.0420 C   0  0  0  0  0  0  0  0  0  0  0  0
    8.9950   -5.9950   26.4050 C   0  0  0  0  0  0  0  0  0  0  0  0
  1  5  1  0
  3  5  2  0
  4  6  2  0
  6  7  1  0
  2 10  1  0
  1 11  1  0
 10 11  2  0
 11 12  1  0
 12 13  2  0
 13 14  1  0
 10 15  1  0
 14 15  2  0
  6 16  1  0
 16 17  1  0
 17 18  1  0
  5 19  1  0
 18 19  1  0
 19 20  1  0
 16 21  1  0
 20 21  1  0
  8 23  1  0
 22 23  2  0
 24  1  1  6
 23 24  1  0
  9 25  1  0
 24 25  1  0
 22 26  1  0
 25 26  2  0
M  END
