x1384-x2608
     RDKit          3D

 33 37  0  0  0  0  0  0  0  0999 V2000
    6.6150   -3.6350   21.6870 N   0  0  0  0  0  0  0  0  0  0  0  0
    7.1610   -3.2000   19.3070 C   0  0  0  0  0  0  0  0  0  0  0  0
    5.4380   -4.7030   19.9830 O   0  0  0  0  0  0  0  0  0  0  0  0
    6.3190   -3.9220   20.3520 C   0  0  0  0  0  0  0  0  0  0  0  0
    8.7040   -0.6520   22.4100 N   0  0  0  0  0  0  0  0  0  0  0  0
   13.1080    1.7420   22.9090 C   0  0  0  0  0  0  0  0  0  0  0  0
    8.6330    1.2450   21.0970 O   0  0  0  0  0  0  0  0  0  0  0  0
    7.0710   -0.4300   20.9700 N   0  0  0  0  0  0  0  0  0  0  0  0
    8.1580    0.1490   21.4520 C   0  0  0  0  0  0  0  0  0  0  0  0
    7.4800   -2.4870   21.9100 C   0  0  0  0  0  0  0  0  0  0  0  0
    6.4640   -1.4240   21.5980 C   0  0  0  0  0  0  0  0  0  0  0  0
   12.1900    0.7610   22.8890 C   0  0  0  0  0  0  0  0  0  0  0  0
   12.3210   -0.6400   23.0490 C   0  0  0  0  0  0  0  0  0  0  0  0
   11.1070   -1.2720   22.9120 C   0  0  0  0  0  0  0  0  0  0  0  0
   10.0790   -0.3740   22.6550 C   0  0  0  0  0  0  0  0  0  0  0  0
   10.5960    1.3080   22.6170 S   0  0  0  0  0  0  0  0  0  0  0  0
    6.1270    0.8130   17.5660 N   0  0  0  0  0  0  0  0  0  0  0  0
    6.7250    0.1990   18.5970 C   0  0  0  0  0  0  0  0  0  0  0  0
    6.3610    0.2380   19.9400 C   0  0  0  0  0  0  0  0  0  0  0  0
    5.2590    0.9450   20.4280 C   0  0  0  0  0  0  0  0  0  0  0  0
    4.4380    1.7240   19.4150 C   0  0  0  0  0  0  0  0  0  0  0  0
    4.9480    1.6170   17.9730 C   0  0  0  0  0  0  0  0  0  0  0  0
    5.3310   -2.3920   25.9900 O   0  0  0  0  0  0  0  0  0  0  0  0
    3.4600   -4.3430   23.6700 C   0  0  2  0  0  0  0  0  0  0  0  0
    5.0060   -4.2650   23.3780 C   0  0  2  0  0  0  0  0  0  0  0  0
    4.7050   -4.3260   24.6400 C   0  0  2  0  0  0  0  0  0  0  0  0
    4.6810   -5.6150   25.1770 C   0  0  0  0  0  0  0  0  0  0  0  0
    4.0510   -6.6180   24.3110 C   0  0  0  0  0  0  0  0  0  0  0  0
    3.3420   -5.6970   23.4850 C   0  0  0  0  0  0  0  0  0  0  0  0
    4.2780   -3.1250   25.5080 C   0  0  2  0  0  0  0  0  0  0  0  0
    4.0430   -3.1160   24.3100 C   0  0  0  0  0  0  0  0  0  0  0  0
    3.1560   -4.0170   24.9770 C   0  0  0  0  0  0  0  0  0  0  0  0
    5.5620   -3.2430   22.5330 C   0  0  0  0  0  0  0  0  0  0  0  0
  1  4  1  0
  2  4  1  0
  3  4  2  0
  5  9  1  0
  7  9  2  0
  8  9  1  0
  1 10  1  0
  8 11  1  0
 10 11  1  0
  6 12  1  0
 12 13  2  0
 13 14  1  0
  5 15  1  0
 14 15  2  0
 12 16  1  0
 15 16  1  0
 17 18  2  0
  8 19  1  0
 18 19  1  0
 19 20  2  0
 20 21  1  0
 17 22  1  0
 21 22  2  0
 24 25  1  0
 24 26  1  0
 25 26  1  0
 26 27  1  1
 27 28  1  0
 24 29  1  6
 28 29  2  0
 30 23  1  6
 26 30  1  0
 30 31  1  0
 24 32  1  0
 31 32  2  0
  1 33  1  0
 25 33  1  1
M  END
