x1382-x1402
     RDKit          3D

 30 32  0  0  0  0  0  0  0  0999 V2000
    7.9560   -3.7720   20.4240 C   0  0  0  0  0  0  0  0  0  0  0  0
    5.6360   -4.4260   19.9250 O   0  0  0  0  0  0  0  0  0  0  0  0
    0.7310   -1.3060   26.2720 Cl  0  0  0  0  0  0  0  0  0  0  0  0
    6.6440   -4.5320   20.6470 C   0  0  0  0  0  0  0  0  0  0  0  0
    3.9250   -6.4030   25.9840 O   0  0  0  0  0  0  0  0  0  0  0  0
    5.9930   -5.3600   26.7790 O   0  0  0  0  0  0  0  0  0  0  0  0
    4.9140   -5.3610   25.8230 S   0  0  0  0  0  0  0  0  0  0  0  0
   13.2960   -2.0030   21.1220 Cl  0  0  0  0  0  0  0  0  0  0  0  0
    7.7860   -0.3650   23.6990 C   0  0  0  0  0  0  0  0  0  0  0  0
    8.6670   -1.5840   23.3720 C   0  0  1  0  0  0  0  0  0  0  0  0
    7.9690   -2.4270   22.4610 N   0  0  0  0  0  0  0  0  0  0  0  0
    7.9470   -2.3410   21.0140 C   0  0  0  0  0  0  0  0  0  0  0  0
    7.8970   -1.2780   20.3730 O   0  0  0  0  0  0  0  0  0  0  0  0
    6.7090   -5.3810   21.7480 N   0  0  0  0  0  0  0  0  0  0  0  0
    7.4260   -5.0310   22.8210 C   0  0  0  0  0  0  0  0  0  0  0  0
    6.5840   -4.4330   23.9290 C   0  0  0  0  0  0  0  0  0  0  0  0
    5.6250   -5.3930   24.2790 N   0  0  0  0  0  0  0  0  0  0  0  0
    4.7690   -5.8650   23.1530 C   0  0  0  0  0  0  0  0  0  0  0  0
    5.6470   -6.3340   21.9810 C   0  0  0  0  0  0  0  0  0  0  0  0
    2.2850   -3.8440   25.9800 S   0  0  0  0  0  0  0  0  0  0  0  0
    4.0780   -3.8140   25.9830 C   0  0  0  0  0  0  0  0  0  0  0  0
    4.5090   -2.5160   26.1100 C   0  0  0  0  0  0  0  0  0  0  0  0
    3.5100   -1.6190   26.2070 C   0  0  0  0  0  0  0  0  0  0  0  0
    2.2230   -2.1360   26.1630 C   0  0  0  0  0  0  0  0  0  0  0  0
   10.0730   -1.1260   23.1430 C   0  0  0  0  0  0  0  0  0  0  0  0
   10.9550   -1.7710   22.2900 C   0  0  0  0  0  0  0  0  0  0  0  0
   12.2320   -1.2380   22.1690 C   0  0  0  0  0  0  0  0  0  0  0  0
   12.7670   -0.0140   22.8820 C   0  0  0  0  0  0  0  0  0  0  0  0
   11.7920    0.6740   23.8070 C   0  0  0  0  0  0  0  0  0  0  0  0
   10.4180    0.0200   23.8760 C   0  0  0  0  0  0  0  0  0  0  0  0
  1  4  1  0
  2  4  2  0
  5  7  2  0
  6  7  2  0
 10  9  1  6
 10 11  1  0
  1 12  1  0
 11 12  1  0
 12 13  2  0
  4 14  1  0
 14 15  1  0
 15 16  1  0
  7 17  1  0
 16 17  1  0
 17 18  1  0
 14 19  1  0
 18 19  1  0
  7 21  1  0
 20 21  1  0
 21 22  2  0
 22 23  1  0
  3 24  1  0
 20 24  1  0
 23 24  2  0
 10 25  1  0
 25 26  2  0
  8 27  1  0
 26 27  1  0
 27 28  2  0
 28 29  1  0
 25 30  1  0
 29 30  2  0
M  END
