x1380-x2776-x1358
     RDKit          3D

 60 66  0  0  0  0  0  0  0  0999 V2000
    7.4670   -1.2030   22.1910 N   0  0  0  0  0  0  0  0  0  0  0  0
    8.4880    1.3980   22.9440 N   0  0  0  0  0  0  0  0  0  0  0  0
    8.3050    1.7430   20.6400 O   0  0  0  0  0  0  0  0  0  0  0  0
   11.8580    5.9190   23.5910 O   0  0  0  0  0  0  0  0  0  0  0  0
    7.0030    0.0920   21.9950 C   0  0  1  0  0  0  0  0  0  0  0  0
   12.6800   -2.2840   25.3550 O   0  0  0  0  0  0  0  0  0  0  0  0
    8.0040    1.1850   21.6820 C   0  0  0  0  0  0  0  0  0  0  0  0
   11.4400    1.0260   22.9460 C   0  0  0  0  0  0  0  0  0  0  0  0
   12.8350    5.8960   22.8380 C   0  0  0  0  0  0  0  0  0  0  0  0
   12.7880   -1.6860   24.2990 C   0  0  1  0  0  0  0  0  0  0  0  0
   13.5550   -2.3660   23.3680 C   0  0  0  0  0  0  0  0  0  0  0  0
   13.9230   -2.8300   25.7140 C   0  0  0  0  0  0  0  0  0  0  0  0
    6.3730   -3.9470   26.8500 N   0  0  0  0  0  0  0  0  0  0  0  0
    3.9760   -2.0550   26.0010 O   0  0  0  0  0  0  0  0  0  0  0  0
    4.3030   -4.8590   26.3390 N   0  0  0  0  0  0  0  0  0  0  0  0
    4.6880   -2.9590   20.0620 O   0  0  0  0  0  0  0  0  0  0  0  0
    5.6490   -4.4630   25.8470 C   0  0  2  0  0  0  0  0  0  0  0  0
    5.8560   -3.0140   20.4240 C   0  0  0  0  0  0  0  0  0  0  0  0
    7.0020   -2.7670   19.4300 C   0  0  0  0  0  0  0  0  0  0  0  0
    6.9610   -4.6630   21.2400 C   0  0  0  0  0  0  0  0  0  0  0  0
    5.3220   -6.0620   20.1040 O   0  0  0  0  0  0  0  0  0  0  0  0
    6.0800   -5.8800   21.0550 C   0  0  0  0  0  0  0  0  0  0  0  0
    5.9650   -6.1240   24.2950 O   0  0  0  0  0  0  0  0  0  0  0  0
    6.1840   -5.6570   25.4130 C   0  0  0  0  0  0  0  0  0  0  0  0
    6.0960   -0.0620   18.3760 N   0  0  0  0  0  0  0  0  0  0  0  0
    4.7010    0.4220   18.3800 C   0  0  0  0  0  0  0  0  0  0  0  0
    4.0570    0.7930   19.6280 C   0  0  0  0  0  0  0  0  0  0  0  0
    4.8180    0.6710   20.7930 C   0  0  0  0  0  0  0  0  0  0  0  0
    6.1350    0.2140   20.7590 C   0  0  0  0  0  0  0  0  0  0  0  0
    6.7230   -0.1390   19.5390 C   0  0  0  0  0  0  0  0  0  0  0  0
   10.7570    2.3670   23.1190 C   0  0  0  0  0  0  0  0  0  0  0  0
   11.6060    3.4590   23.2640 C   0  0  0  0  0  0  0  0  0  0  0  0
   11.0590    4.7460   23.4360 C   0  0  0  0  0  0  0  0  0  0  0  0
    9.6770    4.9300   23.4630 C   0  0  0  0  0  0  0  0  0  0  0  0
    8.8310    3.8280   23.3090 C   0  0  0  0  0  0  0  0  0  0  0  0
    9.3520    2.5400   23.1320 C   0  0  0  0  0  0  0  0  0  0  0  0
    9.7610   -1.9730   21.9440 C   0  0  0  0  0  0  0  0  0  0  0  0
   11.0200   -2.0930   22.4300 C   0  0  0  0  0  0  0  0  0  0  0  0
   11.4170   -1.5480   23.7640 C   0  0  0  0  0  0  0  0  0  0  0  0
   10.5580   -0.8800   24.6120 C   0  0  0  0  0  0  0  0  0  0  0  0
    9.1010   -0.7090   24.1130 C   0  0  0  0  0  0  0  0  0  0  0  0
    8.8050   -1.3170   22.7140 C   0  0  0  0  0  0  0  0  0  0  0  0
    4.8570   -1.7230   27.0830 C   0  0  0  0  0  0  0  0  0  0  0  0
    6.0010   -2.6510   27.4710 C   0  0  0  0  0  0  0  0  0  0  0  0
    6.8860   -2.2170   28.6300 C   0  0  0  0  0  0  0  0  0  0  0  0
    6.5630   -0.9930   29.2370 C   0  0  0  0  0  0  0  0  0  0  0  0
    5.4900   -0.1890   28.8240 C   0  0  0  0  0  0  0  0  0  0  0  0
    4.6520   -0.5420   27.7700 C   0  0  0  0  0  0  0  0  0  0  0  0
    6.1180   -3.5070   21.7950 C   0  0  1  0  0  0  0  0  0  0  0  0
    6.8160   -2.4570   22.7550 C   0  0  2  0  0  0  0  0  0  0  0  0
    6.2380   -2.3330   24.1940 C   0  0  0  0  0  0  0  0  0  0  0  0
    5.6120   -3.7010   24.4760 C   0  0  2  0  0  0  0  0  0  0  0  0
    4.3270   -3.8380   23.7700 C   0  0  0  0  0  0  0  0  0  0  0  0
    4.6930   -3.9620   22.3270 C   0  0  0  0  0  0  0  0  0  0  0  0
    5.9560   -5.0950   27.6960 C   0  0  1  0  0  0  0  0  0  0  0  0
    6.4470   -5.1290   29.1010 C   0  0  0  0  0  0  0  0  0  0  0  0
    6.0380   -6.4960   29.6920 C   0  0  0  0  0  0  0  0  0  0  0  0
    4.6600   -7.0570   29.2520 C   0  0  0  0  0  0  0  0  0  0  0  0
    4.1620   -6.6400   27.8600 C   0  0  0  0  0  0  0  0  0  0  0  0
    4.5050   -5.2450   27.6100 N   0  0  0  0  0  0  0  0  0  0  0  0
  1  5  1  0
  2  7  1  0
  3  7  2  0
  5  7  1  6
  4  9  1  0
  6 10  1  0
 10 11  1  6
  6 12  1  0
 13 17  1  0
 15 17  1  0
 16 18  2  0
 18 19  1  0
 20 22  1  0
 21 22  2  0
 17 24  1  6
 23 24  2  0
 25 26  2  0
 26 27  1  0
 27 28  2  0
  5 29  1  0
 28 29  1  0
 25 30  1  0
 29 30  2  0
  8 31  1  0
 31 32  2  0
  4 33  1  0
 32 33  1  0
 33 34  2  0
 34 35  1  0
  2 36  1  0
 31 36  1  0
 35 36  2  0
 37 38  2  0
 10 39  1  0
 38 39  1  0
 39 40  2  0
 40 41  1  0
  1 42  1  0
 37 42  1  0
 41 42  2  0
 14 43  1  0
 13 44  1  0
 43 44  2  0
 44 45  1  0
 45 46  2  0
 46 47  1  0
 43 48  1  0
 47 48  2  0
 49 18  1  0
 49 20  1  6
 50  1  1  6
 49 50  1  0
 50 51  1  0
 17 52  1  0
 52 51  1  1
 52 53  1  0
 49 54  1  0
 53 54  1  0
 13 55  1  0
 55 56  1  1
 56 57  1  0
 57 58  1  0
 58 59  1  0
 15 60  1  0
 55 60  1  0
 59 60  1  0
M  END
