x1385-x1382
     RDKit          3D

 26 28  0  0  0  0  0  0  0  0999 V2000
   13.5580   -1.6800   21.0900 Cl  0  0  0  0  0  0  0  0  0  0  0  0
    7.2250   -1.3000   23.6600 C   0  0  0  0  0  0  0  0  0  0  0  0
    7.6420   -0.7980   20.3710 O   0  0  0  0  0  0  0  0  0  0  0  0
    7.5620   -3.0230   19.7540 C   0  0  0  0  0  0  0  0  0  0  0  0
    5.3200   -3.8210   19.5850 O   0  0  0  0  0  0  0  0  0  0  0  0
    6.3690   -3.8350   20.1950 C   0  0  0  0  0  0  0  0  0  0  0  0
    9.8070   -1.5130   22.4880 C   0  0  0  0  0  0  0  0  0  0  0  0
   11.0530   -1.8990   21.7520 C   0  0  0  0  0  0  0  0  0  0  0  0
   12.3150   -1.1490   22.0190 C   0  0  0  0  0  0  0  0  0  0  0  0
   12.4170   -0.0320   23.0000 C   0  0  0  0  0  0  0  0  0  0  0  0
   11.1380    0.3140   23.7200 C   0  0  0  0  0  0  0  0  0  0  0  0
    9.8300   -0.4540   23.4350 C   0  0  0  0  0  0  0  0  0  0  0  0
    6.4330   -2.2590   21.5840 N   0  0  0  0  0  0  0  0  0  0  0  0
    6.3440   -3.5510   22.3110 C   0  0  0  0  0  0  0  0  0  0  0  0
    7.2730   -3.6670   23.3600 C   0  0  2  0  0  0  0  0  0  0  0  0
    7.9850   -2.4060   23.3780 N   0  0  0  0  0  0  0  0  0  0  0  0
    8.7090   -2.3320   22.1200 C   0  0  1  0  0  0  0  0  0  0  0  0
    7.7270   -2.0540   20.9160 C   0  0  2  0  0  0  0  0  0  0  0  0
    7.1230   -5.9290   28.8000 Br  0  0  0  0  0  0  0  0  0  0  0  0
    9.2840   -5.4170   25.1640 C   0  0  0  0  0  0  0  0  0  0  0  0
    8.5460   -4.2480   25.3420 C   0  0  0  0  0  0  0  0  0  0  0  0
    7.5250   -3.8340   26.6090 S   0  0  0  0  0  0  0  0  0  0  0  0
    7.9170   -5.3150   27.2020 C   0  0  0  0  0  0  0  0  0  0  0  0
    8.8350   -6.0030   26.4110 C   0  0  0  0  0  0  0  0  0  0  0  0
    8.3970   -4.7320   23.1750 C   0  0  0  0  0  0  0  0  0  0  0  0
    9.4330   -4.5530   24.1200 C   0  0  0  0  0  0  0  0  0  0  0  0
  4  6  1  0
  5  6  2  0
  7  8  2  0
  1  9  1  0
  8  9  1  0
  9 10  2  0
 10 11  1  0
  7 12  1  0
 11 12  2  0
 13 14  1  0
 14 15  1  0
  2 16  1  0
 15 16  1  0
 17  7  1  1
 16 17  1  0
 18  3  1  6
  4 18  1  0
 13 18  1  0
 17 18  1  0
 20 21  2  0
 21 22  1  0
 19 23  1  0
 22 23  1  0
 20 24  1  0
 23 24  2  0
 15 25  1  6
 20 26  1  0
 25 26  1  0
M  END
