x1386-x2608
     RDKit          3D

 26 29  0  0  0  0  0  0  0  0999 V2000
    7.3880   -3.0470   18.7400 C   0  0  0  0  0  0  0  0  0  0  0  0
    5.5600   -4.1620   19.8010 O   0  0  0  0  0  0  0  0  0  0  0  0
    6.4340   -3.2830   19.9200 C   0  0  0  0  0  0  0  0  0  0  0  0
   10.0190   -2.6690   23.3540 C   0  0  0  0  0  0  0  0  0  0  0  0
    8.0320    0.7450   22.4800 O   0  0  0  0  0  0  0  0  0  0  0  0
    8.0440   -0.3030   21.8660 C   0  0  0  0  0  0  0  0  0  0  0  0
   12.1740    1.6260   23.2000 C   0  0  0  0  0  0  0  0  0  0  0  0
    6.6270   -2.4580   21.0510 N   0  0  0  0  0  0  0  0  0  0  0  0
    7.5660   -1.3780   20.8700 C   0  0  2  0  0  0  0  0  0  0  0  0
    8.7440   -1.4150   21.6990 C   0  0  2  0  0  0  0  0  0  0  0  0
    8.7410   -2.3100   22.7730 N   0  0  0  0  0  0  0  0  0  0  0  0
    7.9250   -3.3680   22.6370 C   0  0  0  0  0  0  0  0  0  0  0  0
    6.6260   -2.9020   22.3550 C   0  0  0  0  0  0  0  0  0  0  0  0
   12.1730   -1.7050   22.6400 C   0  0  0  0  0  0  0  0  0  0  0  0
   11.0300   -1.6100   23.4280 C   0  0  0  0  0  0  0  0  0  0  0  0
   11.1500   -0.3260   24.2010 C   0  0  0  0  0  0  0  0  0  0  0  0
   12.3510    0.2800   23.8800 C   0  0  1  0  0  0  0  0  0  0  0  0
   12.9490   -0.5530   22.9240 C   0  0  0  0  0  0  0  0  0  0  0  0
    5.4490    1.1010   17.6320 N   0  0  0  0  0  0  0  0  0  0  0  0
    5.9710   -0.1280   18.1040 C   0  0  0  0  0  0  0  0  0  0  0  0
    5.4090    0.0410   19.4280 C   0  0  0  0  0  0  0  0  0  0  0  0
    4.6330    0.9950   20.0990 C   0  0  0  0  0  0  0  0  0  0  0  0
    4.2580    2.0810   19.4160 C   0  0  0  0  0  0  0  0  0  0  0  0
    4.7050    2.0730   18.1710 C   0  0  0  0  0  0  0  0  0  0  0  0
    7.4720   -0.9240   19.6050 C   0  0  0  0  0  0  0  0  0  0  0  0
    6.3220   -1.2620   18.9080 C   0  0  0  0  0  0  0  0  0  0  0  0
  1  3  1  0
  2  3  2  0
  5  6  2  0
  3  8  1  0
  6  9  1  0
  8  9  1  0
 10  6  1  1
  9 10  1  0
  4 11  1  0
 10 11  1  0
 11 12  1  0
  8 13  1  0
 12 13  1  0
  4 15  1  0
 14 15  1  0
 15 16  2  0
 17  7  1  6
 16 17  1  0
 14 18  2  0
 17 18  1  0
 19 20  2  0
 20 21  1  0
 21 22  2  0
 22 23  1  0
 19 24  1  0
 23 24  2  0
  9 25  1  6
 20 26  1  0
 25 26  1  0
M  END
