x1385-x0770
     RDKit          3D

 23 25  0  0  0  0  0  0  0  0999 V2000
    7.4180   -2.9730   18.7010 C   0  0  0  0  0  0  0  0  0  0  0  0
    5.4890   -4.0010   19.6700 O   0  0  0  0  0  0  0  0  0  0  0  0
    6.4320   -3.2210   19.8120 C   0  0  0  0  0  0  0  0  0  0  0  0
    9.0700   -2.8500   23.7940 C   0  0  2  0  0  0  0  0  0  0  0  0
    7.4400   -5.7530   28.4730 Br  0  0  0  0  0  0  0  0  0  0  0  0
   13.3190   -1.7740   21.1700 Cl  0  0  0  0  0  0  0  0  0  0  0  0
    6.6700   -2.5350   20.9870 N   0  0  0  0  0  0  0  0  0  0  0  0
    6.3990   -3.1250   22.3170 C   0  0  0  0  0  0  0  0  0  0  0  0
    7.0560   -2.2190   23.3880 C   0  0  0  0  0  0  0  0  0  0  0  0
    8.4230   -2.0960   23.2370 N   0  0  0  0  0  0  0  0  0  0  0  0
    8.8730   -1.9930   21.8400 C   0  0  0  0  0  0  0  0  0  0  0  0
    7.6760   -1.4710   21.0720 C   0  0  0  0  0  0  0  0  0  0  0  0
    9.9470   -5.0700   25.1730 C   0  0  0  0  0  0  0  0  0  0  0  0
    9.0840   -3.8610   24.9070 C   0  0  0  0  0  0  0  0  0  0  0  0
    7.8700   -3.7270   26.1240 S   0  0  0  0  0  0  0  0  0  0  0  0
    8.4080   -5.1840   26.9430 C   0  0  0  0  0  0  0  0  0  0  0  0
    9.5100   -5.8600   26.4190 C   0  0  0  0  0  0  0  0  0  0  0  0
   10.5800   -1.0460   24.7310 C   0  0  0  0  0  0  0  0  0  0  0  0
   11.8800   -0.2640   24.4840 C   0  0  0  0  0  0  0  0  0  0  0  0
   12.7120   -0.4830   23.4070 C   0  0  0  0  0  0  0  0  0  0  0  0
   12.3550   -1.4510   22.5190 C   0  0  0  0  0  0  0  0  0  0  0  0
   11.1820   -2.1650   22.7310 C   0  0  0  0  0  0  0  0  0  0  0  0
   10.2580   -2.0270   23.7830 C   0  0  0  0  0  0  0  0  0  0  0  0
  1  3  1  0
  2  3  2  0
  3  7  1  0
  7  8  1  0
  8  9  1  0
  4 10  1  0
  9 10  1  0
 10 11  1  0
  7 12  1  0
 11 12  1  0
  4 14  1  1
 13 14  2  0
 14 15  1  0
  5 16  1  0
 15 16  1  0
 13 17  1  0
 16 17  2  0
 18 19  2  0
 19 20  1  0
  6 21  1  0
 20 21  2  0
 21 22  1  0
  4 23  1  0
 18 23  1  0
 22 23  2  0
M  END
