x1382-x2754
     RDKit          3D

 31 34  0  0  0  0  0  0  0  0999 V2000
    4.8640   -3.4240   25.4230 C   0  0  0  0  0  0  0  0  0  0  0  0
    3.6680   -3.2680   25.1700 O   0  0  0  0  0  0  0  0  0  0  0  0
    5.4760   -3.1980   26.6640 N   0  0  0  0  0  0  0  0  0  0  0  0
    5.4490   -4.6500   19.9820 O   0  0  0  0  0  0  0  0  0  0  0  0
    6.4140   -3.9820   20.3880 C   0  0  0  0  0  0  0  0  0  0  0  0
    7.1750   -3.1620   19.3770 C   0  0  0  0  0  0  0  0  0  0  0  0
    5.0090   -2.1590   27.5890 C   0  0  0  0  0  0  0  0  0  0  0  0
   13.2670   -2.2900   21.1700 Cl  0  0  0  0  0  0  0  0  0  0  0  0
    7.4350   -0.5780   22.7200 C   0  0  0  0  0  0  0  0  0  0  0  0
    8.3090   -1.7420   22.2720 C   0  0  2  0  0  0  0  0  0  0  0  0
    8.4450   -1.6000   20.8480 N   0  0  0  0  0  0  0  0  0  0  0  0
    7.5480   -1.7790   19.8920 C   0  0  0  0  0  0  0  0  0  0  0  0
    7.0580   -0.7240   19.4910 O   0  0  0  0  0  0  0  0  0  0  0  0
    6.8550   -4.0420   21.7450 N   0  0  0  0  0  0  0  0  0  0  0  0
    7.5170   -3.0470   22.7100 C   0  0  2  0  0  0  0  0  0  0  0  0
    6.4060   -2.6510   23.6550 C   0  0  0  0  0  0  0  0  0  0  0  0
    5.8450   -3.8920   24.3380 C   0  0  2  0  0  0  0  0  0  0  0  0
    5.3480   -4.8040   23.4110 C   0  0  0  0  0  0  0  0  0  0  0  0
    6.2520   -5.2060   22.4360 C   0  0  0  0  0  0  0  0  0  0  0  0
    7.1140   -4.7480   27.6400 C   0  0  0  0  0  0  0  0  0  0  0  0
    8.4220   -5.2280   27.8110 C   0  0  0  0  0  0  0  0  0  0  0  0
    9.5170   -4.6350   27.1800 C   0  0  0  0  0  0  0  0  0  0  0  0
    9.3140   -3.5310   26.3560 C   0  0  0  0  0  0  0  0  0  0  0  0
    7.9380   -2.9340   26.1100 C   0  0  0  0  0  0  0  0  0  0  0  0
    6.8080   -3.6490   26.8350 C   0  0  0  0  0  0  0  0  0  0  0  0
    9.7480   -1.3670   22.7270 C   0  0  0  0  0  0  0  0  0  0  0  0
   10.8620   -1.9300   21.9090 C   0  0  0  0  0  0  0  0  0  0  0  0
   12.1420   -1.6030   22.2010 C   0  0  0  0  0  0  0  0  0  0  0  0
   12.4680   -0.7660   23.2520 C   0  0  0  0  0  0  0  0  0  0  0  0
   11.4800   -0.2080   24.0790 C   0  0  0  0  0  0  0  0  0  0  0  0
   10.1190   -0.5150   23.8060 C   0  0  0  0  0  0  0  0  0  0  0  0
  1  2  2  0
  1  3  1  0
  4  5  2  0
  5  6  1  0
  3  7  1  0
 10  9  1  1
 10 11  1  0
  6 12  1  0
 11 12  1  0
 12 13  2  0
  5 14  1  0
 10 15  1  0
 14 15  1  0
 15 16  1  1
 17  1  1  1
 16 17  1  0
 17 18  1  0
 14 19  1  0
 18 19  1  0
 20 21  2  0
 21 22  1  0
 22 23  2  0
 23 24  1  0
  3 25  1  0
 20 25  1  0
 24 25  2  0
 10 26  1  0
 26 27  2  0
  8 28  1  0
 27 28  1  0
 28 29  2  0
 29 30  1  0
 26 31  1  0
 30 31  2  0
M  END
