x1382-x1334
     RDKit          3D

 26 28  0  0  0  0  0  0  0  0999 V2000
   13.4960   -1.8260   21.0720 Cl  0  0  0  0  0  0  0  0  0  0  0  0
    7.4500   -0.9950   23.0220 C   0  0  0  0  0  0  0  0  0  0  0  0
    7.4050   -0.7180   20.5500 O   0  0  0  0  0  0  0  0  0  0  0  0
    7.5960   -2.8350   19.5800 C   0  0  0  0  0  0  0  0  0  0  0  0
    5.5270   -4.1050   19.7400 O   0  0  0  0  0  0  0  0  0  0  0  0
    6.1490   -3.1690   19.2280 C   0  0  0  0  0  0  0  0  0  0  0  0
    9.6720   -1.4210   22.5010 C   0  0  0  0  0  0  0  0  0  0  0  0
   10.9010   -1.8770   21.7520 C   0  0  0  0  0  0  0  0  0  0  0  0
   12.2600   -1.2610   22.0050 C   0  0  0  0  0  0  0  0  0  0  0  0
   12.4680   -0.1650   23.0460 C   0  0  0  0  0  0  0  0  0  0  0  0
   11.2570    0.2950   23.8160 C   0  0  0  0  0  0  0  0  0  0  0  0
    9.8860   -0.3060   23.5590 C   0  0  0  0  0  0  0  0  0  0  0  0
    6.1670   -2.2720   21.4220 N   0  0  0  0  0  0  0  0  0  0  0  0
    7.5320   -2.0820   20.9850 C   0  0  2  0  0  0  0  0  0  0  0  0
    8.3060   -2.0210   22.2400 C   0  0  2  0  0  0  0  0  0  0  0  0
    8.0660   -3.1100   23.2040 N   0  0  0  0  0  0  0  0  0  0  0  0
    7.1110   -4.0190   22.7260 C   0  0  0  0  0  0  0  0  0  0  0  0
    5.9290   -3.5480   22.1590 C   0  0  0  0  0  0  0  0  0  0  0  0
    7.5130   -5.4500   28.4210 Cl  0  0  0  0  0  0  0  0  0  0  0  0
    9.9160   -5.5400   25.1440 C   0  0  0  0  0  0  0  0  0  0  0  0
    9.4440   -4.2480   25.1620 C   0  0  0  0  0  0  0  0  0  0  0  0
    8.5840   -3.9930   26.2140 C   0  0  2  0  0  0  0  0  0  0  0  0
    8.4560   -5.2480   27.0380 C   0  0  0  0  0  0  0  0  0  0  0  0
    9.3480   -6.2360   26.3410 C   0  0  0  0  0  0  0  0  0  0  0  0
    7.6970   -2.6000   24.4900 C   0  0  0  0  0  0  0  0  0  0  0  0
    7.4790   -3.6290   25.5880 C   0  0  0  0  0  0  0  0  0  0  0  0
  4  6  1  0
  5  6  2  0
  7  8  2  0
  1  9  1  0
  8  9  1  0
  9 10  2  0
 10 11  1  0
  7 12  1  0
 11 12  2  0
 14  3  1  6
  4 14  1  0
 13 14  1  0
 15  2  1  1
  7 15  1  0
 14 15  1  0
 15 16  1  0
 16 17  1  0
 13 18  1  0
 17 18  1  0
 20 21  2  0
 21 22  1  0
 19 23  1  0
 22 23  1  0
 20 24  1  0
 23 24  2  0
 16 25  1  0
 22 26  1  6
 25 26  1  0
M  END
