x1382-x0774
     RDKit          3D

 29 33  0  0  0  0  0  0  0  0999 V2000
    6.8750   -4.2060   19.9090 C   0  0  0  0  0  0  0  0  0  0  0  0
    7.0120   -5.8740   21.3710 O   0  0  0  0  0  0  0  0  0  0  0  0
    6.5110   -4.7950   21.2100 C   0  0  1  0  0  0  0  0  0  0  0  0
    7.9600   -0.9710   25.1990 O   0  0  0  0  0  0  0  0  0  0  0  0
    8.7240   -2.6580   22.6720 N   0  0  0  0  0  0  0  0  0  0  0  0
    5.8490   -1.6580   26.1400 O   0  0  0  0  0  0  0  0  0  0  0  0
    8.9870   -3.7550   23.5740 C   0  0  0  0  0  0  0  0  0  0  0  0
    6.8650   -1.9110   25.1440 S   0  0  0  0  0  0  0  0  0  0  0  0
    6.8830   -2.8790   20.2300 C   0  0  0  0  0  0  0  0  0  0  0  0
    6.4860   -2.4950   19.0420 O   0  0  0  0  0  0  0  0  0  0  0  0
   13.4360   -1.8550   21.0770 Cl  0  0  0  0  0  0  0  0  0  0  0  0
    6.7240   -3.9340   22.2710 N   0  0  0  0  0  0  0  0  0  0  0  0
    5.6280   -4.0860   23.1980 C   0  0  0  0  0  0  0  0  0  0  0  0
    5.0130   -2.7320   23.4730 C   0  0  0  0  0  0  0  0  0  0  0  0
    5.9940   -1.8050   23.6730 N   0  0  0  0  0  0  0  0  0  0  0  0
    6.6090   -1.4160   22.4080 C   0  0  0  0  0  0  0  0  0  0  0  0
    7.3510   -2.6330   21.8370 C   0  0  1  0  0  0  0  0  0  0  0  0
    7.1610   -3.8050   26.9710 C   0  0  0  0  0  0  0  0  0  0  0  0
    7.9670   -4.9180   27.6700 C   0  0  0  0  0  0  0  0  0  0  0  0
    9.2450   -4.9290   27.0970 C   0  0  0  0  0  0  0  0  0  0  0  0
    9.4160   -4.7800   25.7060 C   0  0  0  0  0  0  0  0  0  0  0  0
    8.8490   -3.6010   25.1190 C   0  0  2  0  0  0  0  0  0  0  0  0
    7.5200   -3.4470   25.5440 C   0  0  2  0  0  0  0  0  0  0  0  0
    9.8220   -1.6810   22.8270 C   0  0  0  0  0  0  0  0  0  0  0  0
   10.9090   -2.0490   22.0790 C   0  0  0  0  0  0  0  0  0  0  0  0
   12.2100   -1.2830   22.0500 C   0  0  0  0  0  0  0  0  0  0  0  0
   12.3280   -0.0280   22.9010 C   0  0  0  0  0  0  0  0  0  0  0  0
   11.1130    0.3510   23.7050 C   0  0  0  0  0  0  0  0  0  0  0  0
    9.8480   -0.5250   23.6370 C   0  0  0  0  0  0  0  0  0  0  0  0
  1  3  1  0
  3  2  1  1
  5  7  1  0
  8  4  1  0
  6  8  1  0
  1  9  1  0
  9 10  2  0
  3 12  1  0
 12 13  1  0
 13 14  1  0
  8 15  1  0
 14 15  1  0
 15 16  1  0
  5 17  1  0
 17  9  1  6
 12 17  1  0
 16 17  1  0
 18 19  1  0
 19 20  1  0
 20 21  1  0
 22  7  1  6
 21 22  1  0
  8 23  1  0
 23 18  1  1
 22 23  1  0
  5 24  1  0
 24 25  2  0
 11 26  1  0
 25 26  1  0
 26 27  2  0
 27 28  1  0
 24 29  1  0
 28 29  2  0
M  END
