x1384-x0540
     RDKit          3D

 36 40  0  0  0  0  0  0  0  0999 V2000
    6.8900   -3.5610   21.5640 N   0  0  0  0  0  0  0  0  0  0  0  0
    7.4480   -3.1520   19.2320 C   0  0  0  0  0  0  0  0  0  0  0  0
    5.5310   -4.4110   19.9020 O   0  0  0  0  0  0  0  0  0  0  0  0
    6.5290   -3.7640   20.2510 C   0  0  0  0  0  0  0  0  0  0  0  0
    3.0840    1.5120   24.4510 O   0  0  0  0  0  0  0  0  0  0  0  0
    2.9570    2.2820   23.3430 C   0  0  0  0  0  0  0  0  0  0  0  0
    3.8250    2.1100   22.1870 N   0  0  0  0  0  0  0  0  0  0  0  0
    5.1000    1.8750   22.6110 C   0  0  0  0  0  0  0  0  0  0  0  0
    5.6000    0.5830   22.0000 C   0  0  1  0  0  0  0  0  0  0  0  0
    2.0250    3.2820   23.1660 N   0  0  0  0  0  0  0  0  0  0  0  0
    6.4980   -2.3380   22.1470 C   0  0  1  0  0  0  0  0  0  0  0  0
    5.2790   -1.8680   21.6830 C   0  0  0  0  0  0  0  0  0  0  0  0
    4.8470   -0.6990   22.3480 C   0  0  0  0  0  0  0  0  0  0  0  0
    6.6940   -0.1770   19.9600 C   0  0  0  0  0  0  0  0  0  0  0  0
    6.9290   -0.2640   18.5950 C   0  0  0  0  0  0  0  0  0  0  0  0
    6.0940    0.5470   17.6520 N   0  0  0  0  0  0  0  0  0  0  0  0
    5.1540    1.3130   18.2530 C   0  0  0  0  0  0  0  0  0  0  0  0
    4.9440    1.3710   19.6320 C   0  0  0  0  0  0  0  0  0  0  0  0
    5.7500    0.5980   20.4670 C   0  0  0  0  0  0  0  0  0  0  0  0
    0.7080    4.7470   24.3330 C   0  0  0  0  0  0  0  0  0  0  0  0
   -0.6130    5.0410   25.0920 C   0  0  0  0  0  0  0  0  0  0  0  0
   -1.8570    4.2770   24.5340 C   0  0  0  0  0  0  0  0  0  0  0  0
   -1.5050    3.0220   23.7000 C   0  0  0  0  0  0  0  0  0  0  0  0
   -0.3300    3.1080   22.9430 C   0  0  0  0  0  0  0  0  0  0  0  0
    0.7910    3.2990   23.7920 C   0  0  0  0  0  0  0  0  0  0  0  0
    2.9220   -2.1990   25.8390 O   0  0  0  0  0  0  0  0  0  0  0  0
    5.5420   -4.6490   24.5050 C   0  0  1  0  0  0  0  0  0  0  0  0
    5.2400   -3.7130   23.6850 C   0  0  1  0  0  0  0  0  0  0  0  0
    4.1130   -3.7070   24.3360 C   0  0  1  0  0  0  0  0  0  0  0  0
    3.1750   -4.7820   24.1680 C   0  0  0  0  0  0  0  0  0  0  0  0
    3.8500   -5.9150   23.7560 C   0  0  0  0  0  0  0  0  0  0  0  0
    5.1740   -5.8780   23.9330 C   0  0  0  0  0  0  0  0  0  0  0  0
    4.1180   -2.7280   25.4000 C   0  0  2  0  0  0  0  0  0  0  0  0
    4.6340   -3.4230   26.3800 C   0  0  0  0  0  0  0  0  0  0  0  0
    5.4430   -4.5260   25.9920 C   0  0  0  0  0  0  0  0  0  0  0  0
    6.2930   -2.6460   23.6020 C   0  0  0  0  0  0  0  0  0  0  0  0
  1  4  1  0
  2  4  1  0
  3  4  2  0
  5  6  2  0
  6  7  1  0
  7  8  1  0
  9  8  1  6
  6 10  1  0
  1 11  1  0
 11 12  1  6
  9 13  1  0
 12 13  1  0
 14 15  2  0
 15 16  1  0
 16 17  2  0
 17 18  1  0
  9 19  1  0
 14 19  1  0
 18 19  2  0
 20 21  1  0
 21 22  1  0
 22 23  1  0
 23 24  1  0
 10 25  1  0
 20 25  1  0
 24 25  1  0
 27 28  1  0
 27 29  1  0
 28 29  1  0
 29 30  1  6
 30 31  1  0
 27 32  1  1
 31 32  2  0
 33 26  1  1
 29 33  1  0
 33 34  1  0
 27 35  1  0
 34 35  2  0
 11 36  1  0
 28 36  1  1
M  END
