x1380-x3117
     RDKit          3D

 45 49  0  0  0  0  0  0  0  0999 V2000
    7.3180   -1.4360   22.2960 C   0  0  1  0  0  0  0  0  0  0  0  0
    7.6460    1.9330   23.3480 N   0  0  0  0  0  0  0  0  0  0  0  0
    8.8330    1.0930   21.5140 O   0  0  0  0  0  0  0  0  0  0  0  0
    6.7240    0.0200   22.1090 C   0  0  1  0  0  0  0  0  0  0  0  0
    7.8670    1.0630   22.2810 C   0  0  0  0  0  0  0  0  0  0  0  0
   12.5990   -1.7820   24.3750 C   0  0  0  0  0  0  0  0  0  0  0  0
   12.7560   -0.6150   25.0480 C   0  0  0  0  0  0  0  0  0  0  0  0
   13.5210   -1.9400   23.1810 C   0  0  0  0  0  0  0  0  0  0  0  0
   12.9230   -2.9690   25.2890 C   0  0  0  0  0  0  0  0  0  0  0  0
    7.1010   -3.4040   19.3970 C   0  0  0  0  0  0  0  0  0  0  0  0
    5.3190   -4.8670   19.9710 O   0  0  0  0  0  0  0  0  0  0  0  0
    6.3390   -4.3150   20.3710 C   0  0  0  0  0  0  0  0  0  0  0  0
    4.3240   -2.2300   25.5840 O   0  0  0  0  0  0  0  0  0  0  0  0
    5.4480   -3.0080   25.1740 C   0  0  0  0  0  0  0  0  0  0  0  0
    7.5890   -1.8410   20.9360 C   0  0  0  0  0  0  0  0  0  0  0  0
    6.3660    0.2230   18.0570 N   0  0  0  0  0  0  0  0  0  0  0  0
    5.1100    0.9750   17.9570 C   0  0  0  0  0  0  0  0  0  0  0  0
    4.3370    1.4180   19.1900 C   0  0  0  0  0  0  0  0  0  0  0  0
    4.8480    1.1010   20.6080 C   0  0  0  0  0  0  0  0  0  0  0  0
    6.1540    0.3300   20.7050 C   0  0  0  0  0  0  0  0  0  0  0  0
    6.8780   -0.0940   19.4080 C   0  0  0  0  0  0  0  0  0  0  0  0
    9.7610    5.1450   24.1620 O   0  0  0  0  0  0  0  0  0  0  0  0
   10.5890    4.1390   23.6060 C   0  0  0  0  0  0  0  0  0  0  0  0
    9.8330    2.8090   23.5310 C   0  0  0  0  0  0  0  0  0  0  0  0
    8.4620    3.1000   23.4800 C   0  0  0  0  0  0  0  0  0  0  0  0
    8.2540    4.2370   22.6540 C   0  0  0  0  0  0  0  0  0  0  0  0
    8.7290    5.4630   23.2350 C   0  0  0  0  0  0  0  0  0  0  0  0
    9.7680   -1.7010   22.0310 C   0  0  0  0  0  0  0  0  0  0  0  0
   11.0350   -1.8050   22.4870 C   0  0  0  0  0  0  0  0  0  0  0  0
   11.2250   -1.6850   23.8470 C   0  0  0  0  0  0  0  0  0  0  0  0
   10.1870   -1.4610   24.7170 C   0  0  0  0  0  0  0  0  0  0  0  0
    8.9130   -1.3600   24.2250 C   0  0  0  0  0  0  0  0  0  0  0  0
    8.7170   -1.4880   22.8690 C   0  0  0  0  0  0  0  0  0  0  0  0
    6.7810   -4.5880   21.6770 N   0  0  0  0  0  0  0  0  0  0  0  0
    5.9040   -5.3410   22.4530 C   0  0  0  0  0  0  0  0  0  0  0  0
    5.3290   -4.5670   23.4850 C   0  0  0  0  0  0  0  0  0  0  0  0
    5.6550   -3.1920   23.6370 C   0  0  2  0  0  0  0  0  0  0  0  0
    6.8920   -2.7500   23.1900 C   0  0  1  0  0  0  0  0  0  0  0  0
    7.6090   -3.7190   22.5170 C   0  0  0  0  0  0  0  0  0  0  0  0
    7.6890   -4.1080   26.1710 C   0  0  0  0  0  0  0  0  0  0  0  0
    7.9220   -5.1970   27.0340 C   0  0  0  0  0  0  0  0  0  0  0  0
    7.5390   -4.9070   28.4880 C   0  0  0  0  0  0  0  0  0  0  0  0
    6.1490   -4.3090   28.6610 C   0  0  0  0  0  0  0  0  0  0  0  0
    5.8580   -3.2300   27.6130 C   0  0  0  0  0  0  0  0  0  0  0  0
    6.3120   -3.5840   26.2560 N   0  0  0  0  0  0  0  0  0  0  0  0
  1  4  1  0
  2  5  1  0
  3  5  2  0
  4  5  1  6
  6  7  1  0
  6  8  1  0
  6  9  1  0
 10 12  1  0
 11 12  2  0
 13 14  2  0
  1 15  1  6
 16 17  2  0
 17 18  1  0
 18 19  2  0
  4 20  1  0
 19 20  1  0
 16 21  1  0
 20 21  2  0
 22 23  1  0
 23 24  1  0
  2 25  1  0
 24 25  1  0
 25 26  1  0
 22 27  1  0
 26 27  1  0
 28 29  2  0
  6 30  1  0
 29 30  1  0
 30 31  2  0
 31 32  1  0
  1 33  1  0
 28 33  1  0
 32 33  2  0
 12 34  1  0
 34 35  1  0
 35 36  1  0
 37 14  1  1
 36 37  1  0
  1 38  1  0
 37 38  1  0
 34 39  1  0
 38 39  1  6
 40 41  1  0
 41 42  1  0
 42 43  1  0
 43 44  1  0
 14 45  1  0
 40 45  1  0
 44 45  1  0
M  END
