x1386-x2097
     RDKit          3D

 15 16  0  0  0  0  0  0  0  0999 V2000
    7.1650   -2.9690   18.7340 C   0  0  0  0  0  0  0  0  0  0  0  0
    5.3170   -4.0890   19.6960 O   0  0  0  0  0  0  0  0  0  0  0  0
    6.1780   -3.2310   19.8390 C   0  0  0  0  0  0  0  0  0  0  0  0
    9.3710   -2.0890   23.3640 C   0  0  0  0  0  0  0  0  0  0  0  0
    6.3070   -2.4890   21.0010 N   0  0  0  0  0  0  0  0  0  0  0  0
    7.0330   -1.1890   20.9870 C   0  0  0  0  0  0  0  0  0  0  0  0
    8.4080   -1.4070   21.6370 C   0  0  0  0  0  0  0  0  0  0  0  0
    8.3680   -2.0180   22.8650 N   0  0  0  0  0  0  0  0  0  0  0  0
    7.6690   -3.2960   22.9040 C   0  0  0  0  0  0  0  0  0  0  0  0
    6.2760   -3.1200   22.3240 C   0  0  0  0  0  0  0  0  0  0  0  0
   11.8230   -1.7330   22.4920 C   0  0  0  0  0  0  0  0  0  0  0  0
   10.7080   -1.5350   23.4640 C   0  0  0  0  0  0  0  0  0  0  0  0
   11.0720   -0.6410   24.5980 C   0  0  0  0  0  0  0  0  0  0  0  0
   12.6630   -0.0840   24.4610 S   0  0  0  0  0  0  0  0  0  0  0  0
   13.0400   -0.9500   22.9240 C   0  0  0  0  0  0  0  0  0  0  0  0
  1  3  1  0
  2  3  2  0
  3  5  1  0
  5  6  1  0
  6  7  1  0
  4  8  1  0
  7  8  1  0
  8  9  1  0
  5 10  1  0
  9 10  1  0
  4 12  1  0
 11 12  1  0
 12 13  2  0
 13 14  1  0
 11 15  2  0
 14 15  1  0
M  END
