x1382-x0397
     RDKit          3D

 26 28  0  0  0  0  0  0  0  0999 V2000
   13.4260   -1.8120   21.1230 Cl  0  0  0  0  0  0  0  0  0  0  0  0
    7.3920   -1.9680   23.9170 C   0  0  0  0  0  0  0  0  0  0  0  0
    8.2650   -2.3840   22.7040 C   0  0  1  0  0  0  0  0  0  0  0  0
    7.5830   -2.1110   21.5050 N   0  0  0  0  0  0  0  0  0  0  0  0
    7.1100   -2.9750   20.4200 C   0  0  0  0  0  0  0  0  0  0  0  0
    6.2800   -3.9940   20.1380 O   0  0  0  0  0  0  0  0  0  0  0  0
    7.3500   -2.9700   19.1020 C   0  0  2  0  0  0  0  0  0  0  0  0
    7.6310   -1.4930   18.7460 C   0  0  0  0  0  0  0  0  0  0  0  0
    3.5830    1.8720   19.4030 C   0  0  0  0  0  0  0  0  0  0  0  0
    5.9050   -3.2640   19.5170 C   0  0  0  0  0  0  0  0  0  0  0  0
    4.9830   -3.4400   18.7590 O   0  0  0  0  0  0  0  0  0  0  0  0
    5.6580   -3.2950   20.9540 N   0  0  0  0  0  0  0  0  0  0  0  0
    9.6430   -1.7060   22.8170 C   0  0  0  0  0  0  0  0  0  0  0  0
   10.7740   -2.1080   21.9340 C   0  0  0  0  0  0  0  0  0  0  0  0
   12.1180   -1.4200   22.0780 C   0  0  0  0  0  0  0  0  0  0  0  0
   12.1830   -0.4330   23.0580 C   0  0  0  0  0  0  0  0  0  0  0  0
   11.1410   -0.0490   23.8820 C   0  0  0  0  0  0  0  0  0  0  0  0
    9.8740   -0.6740   23.7730 C   0  0  0  0  0  0  0  0  0  0  0  0
    5.5130   -0.2120   19.6100 C   0  0  0  0  0  0  0  0  0  0  0  0
    6.5150   -0.4140   18.6870 C   0  0  0  0  0  0  0  0  0  0  0  0
    6.4200    0.5000   17.6920 N   0  0  0  0  0  0  0  0  0  0  0  0
    5.4580    1.2900   17.8710 O   0  0  0  0  0  0  0  0  0  0  0  0
    4.7920    0.9970   19.0100 C   0  0  0  0  0  0  0  0  0  0  0  0
    6.5080   -5.0630   22.5890 C   0  0  0  0  0  0  0  0  0  0  0  0
    5.2940   -4.4530   21.8310 C   0  0  0  0  0  0  0  0  0  0  0  0
    5.9230   -5.8120   21.4510 C   0  0  0  0  0  0  0  0  0  0  0  0
  3  2  1  1
  3  4  1  0
  4  5  1  0
  5  6  2  0
  7  5  1  0
  7  8  1  6
  7 10  1  0
 10 11  2  0
 10 12  1  0
  3 13  1  0
 13 14  2  0
  1 15  1  0
 14 15  1  0
 15 16  2  0
 16 17  1  0
 13 18  1  0
 17 18  2  0
  8 20  1  0
 19 20  1  0
 20 21  2  0
 21 22  1  0
  9 23  1  0
 19 23  2  0
 22 23  1  0
 12 25  1  0
 24 25  1  0
 24 26  1  0
 25 26  1  0
M  END
