x1384-x0978-x2694
     RDKit          3D

 55 61  0  0  0  0  0  0  0  0999 V2000
    7.4310   -1.0760   21.9970 N   0  0  0  0  0  0  0  0  0  0  0  0
    7.7300    2.3970   22.8220 N   0  0  0  0  0  0  0  0  0  0  0  0
    9.1820    1.6080   21.1600 O   0  0  0  0  0  0  0  0  0  0  0  0
   10.9970    6.8250   23.8740 O   0  0  0  0  0  0  0  0  0  0  0  0
    7.0150    0.2460   21.6560 C   0  0  1  0  0  0  0  0  0  0  0  0
    7.9930    1.4190   21.8970 C   0  0  0  0  0  0  0  0  0  0  0  0
   10.3280    1.9460   23.9880 C   0  0  0  0  0  0  0  0  0  0  0  0
   11.9000    6.7330   24.9690 C   0  0  0  0  0  0  0  0  0  0  0  0
   12.3130   -1.4400   23.1910 C   0  0  0  0  0  0  0  0  0  0  0  0
   12.7920   -0.0120   23.5020 C   0  0  0  0  0  0  0  0  0  0  0  0
   12.8440   -2.0180   21.8760 C   0  0  0  0  0  0  0  0  0  0  0  0
   12.8470   -2.3230   24.3290 C   0  0  0  0  0  0  0  0  0  0  0  0
    2.5080   -6.7690   22.6350 N   0  0  0  0  0  0  0  0  0  0  0  0
    2.1030   -8.6420   24.6720 C   0  0  0  0  0  0  0  0  0  0  0  0
    4.4030   -7.9710   24.4920 O   0  0  0  0  0  0  0  0  0  0  0  0
    3.1310   -7.5140   24.8250 C   0  0  1  0  0  0  0  0  0  0  0  0
    0.5830   -7.6010   21.6030 O   0  0  0  0  0  0  0  0  0  0  0  0
    2.7590   -6.3300   23.9490 C   0  0  1  0  0  0  0  0  0  0  0  0
    3.2560   -4.8770   25.3720 N   0  0  0  0  0  0  0  0  0  0  0  0
    1.0710   -6.7480   22.3270 C   0  0  0  0  0  0  0  0  0  0  0  0
    0.2390   -5.7600   22.8430 C   0  0  0  0  0  0  0  0  0  0  0  0
    5.5670   -4.3830   22.4210 C   0  0  0  0  0  0  0  0  0  0  0  0
    6.4300   -2.1030   22.1800 C   0  0  0  0  0  0  0  0  0  0  0  0
    6.7290   -3.4820   22.3360 C   0  0  2  0  0  0  0  0  0  0  0  0
    7.3460   -3.9890   21.2070 N   0  0  0  0  0  0  0  0  0  0  0  0
    7.5810   -3.1690   19.0550 C   0  0  0  0  0  0  0  0  0  0  0  0
    5.5210   -4.1460   19.7700 O   0  0  0  0  0  0  0  0  0  0  0  0
    6.6810   -3.8040   20.0310 C   0  0  0  0  0  0  0  0  0  0  0  0
    5.4820   -1.9780   26.7670 O   0  0  0  0  0  0  0  0  0  0  0  0
    6.3130    0.2610   17.9160 N   0  0  0  0  0  0  0  0  0  0  0  0
    5.1760    1.1820   17.8750 C   0  0  0  0  0  0  0  0  0  0  0  0
    4.7240    1.6990   19.0530 C   0  0  0  0  0  0  0  0  0  0  0  0
    5.3570    1.3470   20.2270 C   0  0  0  0  0  0  0  0  0  0  0  0
    6.4380    0.4820   20.2630 C   0  0  0  0  0  0  0  0  0  0  0  0
    7.0270   -0.1570   19.1390 C   0  0  0  0  0  0  0  0  0  0  0  0
    8.6900   -1.4710   24.0530 N   0  0  0  0  0  0  0  0  0  0  0  0
   10.0540   -1.5680   24.3560 O   0  0  0  0  0  0  0  0  0  0  0  0
   10.7920   -1.4020   23.2140 C   0  0  0  0  0  0  0  0  0  0  0  0
    9.8980   -1.1980   22.1580 C   0  0  0  0  0  0  0  0  0  0  0  0
    8.6430   -1.2460   22.7150 C   0  0  0  0  0  0  0  0  0  0  0  0
    9.8220    3.3290   23.6450 C   0  0  0  0  0  0  0  0  0  0  0  0
   10.6540    4.4110   23.9090 C   0  0  0  0  0  0  0  0  0  0  0  0
   10.2510    5.7090   23.6300 C   0  0  0  0  0  0  0  0  0  0  0  0
    8.9950    5.9150   23.0620 C   0  0  0  0  0  0  0  0  0  0  0  0
    8.1560    4.8210   22.7890 C   0  0  0  0  0  0  0  0  0  0  0  0
    8.5640    3.5230   23.0840 C   0  0  0  0  0  0  0  0  0  0  0  0
    5.1710   -3.5820   24.7030 C   0  0  2  0  0  0  0  0  0  0  0  0
    4.2610   -4.3500   24.8490 C   0  0  0  0  0  0  0  0  0  0  0  0
    3.7870   -3.4220   25.4640 C   0  0  2  0  0  0  0  0  0  0  0  0
    2.9950   -3.7810   24.2990 C   0  0  0  0  0  0  0  0  0  0  0  0
    3.6530   -5.1160   24.0890 C   0  0  2  0  0  0  0  0  0  0  0  0
    5.1340   -4.7670   23.8980 C   0  0  1  0  0  0  0  0  0  0  0  0
    4.2480   -2.0510   26.0580 C   0  0  2  0  0  0  0  0  0  0  0  0
    4.5180   -2.3560   24.8940 C   0  0  0  0  0  0  0  0  0  0  0  0
    5.3720   -3.1710   25.9630 C   0  0  0  0  0  0  0  0  0  0  0  0
  1  5  1  0
  2  6  1  0
  3  6  2  0
  5  6  1  6
  4  8  1  0
  9 10  1  0
  9 11  1  0
  9 12  1  0
 16 14  1  6
 15 16  1  0
 18 13  1  6
 16 18  1  0
 13 20  1  0
 17 20  2  0
 20 21  1  0
  1 23  1  0
 24 22  1  6
 23 24  1  0
 24 25  1  0
 25 28  1  0
 26 28  1  0
 27 28  2  0
 30 31  2  0
 31 32  1  0
 32 33  2  0
  5 34  1  0
 33 34  1  0
 30 35  1  0
 34 35  2  0
 36 37  1  0
  9 38  1  0
 37 38  1  0
 38 39  2  0
  1 40  1  0
 36 40  2  0
 39 40  1  0
  7 41  1  0
 41 42  2  0
  4 43  1  0
 42 43  1  0
 43 44  2  0
 44 45  1  0
  2 46  1  0
 41 46  1  0
 45 46  2  0
 19 48  2  0
 47 48  1  0
 47 49  1  0
 48 49  1  0
 49 50  1  6
 18 51  1  0
 51 19  1  0
 51 50  1  6
 52 22  1  6
 47 52  1  0
 51 52  1  0
 53 29  1  1
 49 53  1  0
 53 54  1  0
 47 55  1  1
 54 55  2  0
M  END
