x1386-x0354
     RDKit          3D

 28 30  0  0  0  0  0  0  0  0999 V2000
   13.1310   -1.2730   22.5040 C   0  0  0  0  0  0  0  0  0  0  0  0
    7.7070   -2.0300   25.4550 O   0  0  0  0  0  0  0  0  0  0  0  0
    7.4760   -0.5020   27.3200 O   0  0  0  0  0  0  0  0  0  0  0  0
    8.6610   -1.2730   25.6380 C   0  0  0  0  0  0  0  0  0  0  0  0
    8.3530   -0.1820   26.5040 C   0  0  0  0  0  0  0  0  0  0  0  0
    5.6180    3.6100   30.9540 C   0  0  0  0  0  0  0  0  0  0  0  0
    7.2670   -2.9810   18.7940 C   0  0  0  0  0  0  0  0  0  0  0  0
    5.3480   -4.0250   19.6890 O   0  0  0  0  0  0  0  0  0  0  0  0
    6.2850   -3.2580   19.8990 C   0  0  0  0  0  0  0  0  0  0  0  0
    9.9160   -1.5180   22.5590 C   0  0  0  0  0  0  0  0  0  0  0  0
   12.1030   -1.4250   23.4260 N   0  0  0  0  0  0  0  0  0  0  0  0
   10.9640   -2.2910   23.3270 C   0  0  1  0  0  0  0  0  0  0  0  0
   10.5310   -2.5910   24.7150 C   0  0  0  0  0  0  0  0  0  0  0  0
    9.9430   -1.4180   25.1150 N   0  0  0  0  0  0  0  0  0  0  0  0
   10.8400   -0.3610   25.1080 C   0  0  0  0  0  0  0  0  0  0  0  0
   11.5990   -0.1470   23.9230 C   0  0  0  0  0  0  0  0  0  0  0  0
    7.6890    1.6920   28.1640 C   0  0  0  0  0  0  0  0  0  0  0  0
    7.2090    2.7680   29.1120 C   0  0  0  0  0  0  0  0  0  0  0  0
    6.1310    2.5440   29.9840 C   0  0  0  0  0  0  0  0  0  0  0  0
    5.5200    1.2820   29.9430 C   0  0  0  0  0  0  0  0  0  0  0  0
    5.9790    0.2840   29.0550 C   0  0  0  0  0  0  0  0  0  0  0  0
    7.0520    0.4840   28.1740 C   0  0  0  0  0  0  0  0  0  0  0  0
    6.4980   -2.6730   21.1670 N   0  0  0  0  0  0  0  0  0  0  0  0
    6.8520   -1.3820   21.2390 C   0  0  0  0  0  0  0  0  0  0  0  0
    8.2320   -1.3440   21.2760 C   0  0  0  0  0  0  0  0  0  0  0  0
    8.8610   -2.2020   22.0890 N   0  0  0  0  0  0  0  0  0  0  0  0
    7.9840   -2.7310   22.9710 C   0  0  0  0  0  0  0  0  0  0  0  0
    6.9820   -3.3570   22.2160 C   0  0  0  0  0  0  0  0  0  0  0  0
  2  4  2  0
  3  5  1  0
  4  5  1  0
  7  9  1  0
  8  9  2  0
  1 11  1  0
 12 10  1  6
 11 12  1  0
 12 13  1  0
  4 14  1  0
 13 14  1  0
 14 15  1  0
 11 16  1  0
 15 16  1  0
 17 18  2  0
  6 19  1  0
 18 19  1  0
 19 20  2  0
 20 21  1  0
  3 22  1  0
 17 22  1  0
 21 22  2  0
  9 23  1  0
 23 24  1  0
 24 25  1  0
 10 26  1  0
 25 26  1  0
 26 27  1  0
 23 28  1  0
 27 28  1  0
M  END
