x1380-x2649
     RDKit          3D

 36 39  0  0  0  0  0  0  0  0999 V2000
    6.8350   -0.5410   21.1090 N   0  0  0  0  0  0  0  0  0  0  0  0
    7.9080   -1.8610   23.7800 C   0  0  0  0  0  0  0  0  0  0  0  0
    8.3950    1.0310   21.8020 O   0  0  0  0  0  0  0  0  0  0  0  0
   13.2990   -2.7240   21.0750 Cl  0  0  0  0  0  0  0  0  0  0  0  0
    8.6300   -1.2470   22.5310 C   0  0  1  0  0  0  0  0  0  0  0  0
    7.9450   -0.1100   21.7890 C   0  0  0  0  0  0  0  0  0  0  0  0
    4.5610    1.4370   21.5030 C   0  0  0  0  0  0  0  0  0  0  0  0
    6.9970   -3.3600   19.3580 C   0  0  0  0  0  0  0  0  0  0  0  0
    5.2450   -4.8540   19.9610 O   0  0  0  0  0  0  0  0  0  0  0  0
    6.2350   -4.2390   20.3180 C   0  0  0  0  0  0  0  0  0  0  0  0
    4.9550   -2.4510   25.3840 O   0  0  0  0  0  0  0  0  0  0  0  0
    6.1000   -3.2790   25.5350 C   0  0  0  0  0  0  0  0  0  0  0  0
    6.2760    0.6240   17.5860 N   0  0  0  0  0  0  0  0  0  0  0  0
    5.1870    1.5610   17.8000 C   0  0  0  0  0  0  0  0  0  0  0  0
    4.6930    1.7680   19.0450 C   0  0  0  0  0  0  0  0  0  0  0  0
    5.1680    1.1300   20.1740 C   0  0  0  0  0  0  0  0  0  0  0  0
    6.2090    0.2180   20.0360 C   0  0  0  0  0  0  0  0  0  0  0  0
    6.7730   -0.0560   18.7910 C   0  0  0  0  0  0  0  0  0  0  0  0
   10.5400    0.2230   23.2940 C   0  0  0  0  0  0  0  0  0  0  0  0
   12.0370    0.5620   23.3460 C   0  0  0  0  0  0  0  0  0  0  0  0
   12.9590   -0.3710   22.6480 C   0  0  0  0  0  0  0  0  0  0  0  0
   12.4170   -1.5930   21.9230 C   0  0  0  0  0  0  0  0  0  0  0  0
   10.9610   -1.8640   21.9120 C   0  0  0  0  0  0  0  0  0  0  0  0
   10.0690   -0.9000   22.6260 C   0  0  0  0  0  0  0  0  0  0  0  0
    6.7540   -4.3490   21.5800 N   0  0  0  0  0  0  0  0  0  0  0  0
    6.3790   -5.4320   22.4400 C   0  0  0  0  0  0  0  0  0  0  0  0
    5.8180   -5.0100   23.6630 C   0  0  0  0  0  0  0  0  0  0  0  0
    6.6710   -4.0730   24.3610 C   0  0  1  0  0  0  0  0  0  0  0  0
    7.4200   -3.2940   23.4240 C   0  0  1  0  0  0  0  0  0  0  0  0
    6.7780   -3.0780   22.2350 C   0  0  0  0  0  0  0  0  0  0  0  0
    7.9250   -3.8550   27.0220 C   0  0  0  0  0  0  0  0  0  0  0  0
    7.8040   -5.1750   27.4210 C   0  0  0  0  0  0  0  0  0  0  0  0
    7.0710   -5.2510   28.6030 C   0  0  0  0  0  0  0  0  0  0  0  0
    5.7600   -4.7670   28.4650 C   0  0  0  0  0  0  0  0  0  0  0  0
    5.7380   -3.4330   28.0230 C   0  0  0  0  0  0  0  0  0  0  0  0
    6.5910   -3.3050   26.8390 N   0  0  0  0  0  0  0  0  0  0  0  0
  5  2  1  1
  1  6  1  0
  3  6  2  0
  5  6  1  0
  8 10  1  0
  9 10  2  0
 11 12  2  0
 13 14  2  0
 14 15  1  0
  7 16  1  0
 15 16  2  0
  1 17  1  0
 16 17  1  0
 13 18  1  0
 17 18  2  0
 19 20  2  0
 20 21  1  0
  4 22  1  0
 21 22  2  0
 22 23  1  0
  5 24  1  0
 19 24  1  0
 23 24  2  0
 10 25  1  0
 25 26  1  0
 26 27  1  0
 28 12  1  6
 27 28  1  0
 29  2  1  1
 28 29  1  0
 25 30  1  0
 29 30  1  0
 31 32  1  0
 32 33  1  0
 33 34  1  0
 34 35  1  0
 12 36  1  0
 31 36  1  0
 35 36  1  0
M  END
