x1380-x2776-x2703
     RDKit          3D

 50 54  0  0  0  0  0  0  0  0999 V2000
    7.2180   -1.1140   21.8380 N   0  0  0  0  0  0  0  0  0  0  0  0
    7.6470    2.2100   22.7970 N   0  0  0  0  0  0  0  0  0  0  0  0
    9.0060    1.3430   21.0040 O   0  0  0  0  0  0  0  0  0  0  0  0
   10.8870    6.6440   23.8580 O   0  0  0  0  0  0  0  0  0  0  0  0
    6.7810    0.1870   21.6790 C   0  0  1  0  0  0  0  0  0  0  0  0
   12.5440   -3.1000   24.5230 O   0  0  0  0  0  0  0  0  0  0  0  0
    7.8630    1.2820   21.8340 C   0  0  0  0  0  0  0  0  0  0  0  0
   10.1760    1.8390   24.0280 C   0  0  0  0  0  0  0  0  0  0  0  0
   11.7400    6.4460   24.7280 C   0  0  0  0  0  0  0  0  0  0  0  0
   12.1650   -1.7260   24.4590 C   0  0  1  0  0  0  0  0  0  0  0  0
   13.0620   -0.8890   23.8620 C   0  0  0  0  0  0  0  0  0  0  0  0
   13.2140   -3.4310   25.7290 C   0  0  0  0  0  0  0  0  0  0  0  0
    9.3200    1.3030   24.9990 C   0  0  0  0  0  0  0  0  0  0  0  0
    6.7090    4.5930   22.0700 C   0  0  0  0  0  0  0  0  0  0  0  0
    7.0860   -3.2770   19.3600 C   0  0  0  0  0  0  0  0  0  0  0  0
    5.6320   -4.8640   19.9870 O   0  0  0  0  0  0  0  0  0  0  0  0
    6.3920   -3.9420   20.3050 C   0  0  0  0  0  0  0  0  0  0  0  0
    5.1560   -3.0000   25.1290 O   0  0  0  0  0  0  0  0  0  0  0  0
    6.2290   -3.5520   25.4320 C   0  0  0  0  0  0  0  0  0  0  0  0
    6.1470   -2.1300   22.0220 C   0  0  0  0  0  0  0  0  0  0  0  0
    6.4000    0.4580   17.8720 N   0  0  0  0  0  0  0  0  0  0  0  0
    5.2180    1.3460   17.7400 C   0  0  0  0  0  0  0  0  0  0  0  0
    4.5830    1.8030   18.8860 C   0  0  0  0  0  0  0  0  0  0  0  0
    5.0100    1.4760   20.1540 C   0  0  0  0  0  0  0  0  0  0  0  0
    6.2190    0.5820   20.3100 C   0  0  0  0  0  0  0  0  0  0  0  0
    6.8980    0.0760   19.2220 C   0  0  0  0  0  0  0  0  0  0  0  0
    9.6780    3.2010   23.6380 C   0  0  0  0  0  0  0  0  0  0  0  0
   10.4840    4.3220   23.8950 C   0  0  0  0  0  0  0  0  0  0  0  0
   10.0280    5.6150   23.5490 C   0  0  0  0  0  0  0  0  0  0  0  0
    8.7520    5.7200   22.9300 C   0  0  0  0  0  0  0  0  0  0  0  0
    7.9690    4.5920   22.6760 C   0  0  0  0  0  0  0  0  0  0  0  0
    8.4380    3.3600   23.0380 C   0  0  0  0  0  0  0  0  0  0  0  0
    9.5140   -1.7990   21.7810 C   0  0  0  0  0  0  0  0  0  0  0  0
   10.7580   -1.9760   22.3550 C   0  0  0  0  0  0  0  0  0  0  0  0
   10.8960   -1.6510   23.6760 C   0  0  0  0  0  0  0  0  0  0  0  0
    9.8600   -1.1880   24.4480 C   0  0  0  0  0  0  0  0  0  0  0  0
    8.6140   -1.0150   23.8510 C   0  0  0  0  0  0  0  0  0  0  0  0
    8.4270   -1.3100   22.4860 C   0  0  0  0  0  0  0  0  0  0  0  0
    6.4900   -3.6200   21.8100 C   0  0  1  0  0  0  0  0  0  0  0  0
    5.5390   -4.4480   22.3960 C   0  0  0  0  0  0  0  0  0  0  0  0
    5.9590   -5.0360   23.5800 C   0  0  0  0  0  0  0  0  0  0  0  0
    6.9360   -4.4090   24.3750 C   0  0  1  0  0  0  0  0  0  0  0  0
    7.8640   -3.6700   23.6510 C   0  0  0  0  0  0  0  0  0  0  0  0
    7.7550   -3.8290   22.2850 C   0  0  0  0  0  0  0  0  0  0  0  0
    8.0110   -4.1760   27.0280 C   0  0  0  0  0  0  0  0  0  0  0  0
    7.6850   -5.5870   27.5650 C   0  0  0  0  0  0  0  0  0  0  0  0
    6.7380   -5.5540   28.7580 C   0  0  0  0  0  0  0  0  0  0  0  0
    5.5440   -4.6390   28.4710 C   0  0  0  0  0  0  0  0  0  0  0  0
    5.9870   -3.2640   27.9970 C   0  0  0  0  0  0  0  0  0  0  0  0
    6.7940   -3.3970   26.7900 N   0  0  0  0  0  0  0  0  0  0  0  0
  1  5  1  0
  2  7  1  0
  3  7  2  0
  5  7  1  6
  4  9  1  0
  6 10  1  0
 10 11  1  6
  6 12  1  0
  8 13  1  0
 15 17  1  0
 16 17  2  0
 18 19  2  0
  1 20  1  0
 21 22  2  0
 22 23  1  0
 23 24  2  0
  5 25  1  0
 24 25  1  0
 21 26  1  0
 25 26  2  0
  8 27  1  0
 27 28  2  0
  4 29  1  0
 28 29  1  0
 29 30  2  0
 14 31  1  0
 30 31  1  0
  2 32  1  0
 27 32  1  0
 31 32  2  0
 33 34  2  0
 10 35  1  0
 34 35  1  0
 35 36  2  0
 36 37  1  0
  1 38  1  0
 33 38  1  0
 37 38  2  0
 39 17  1  0
 39 20  1  6
 39 40  1  0
 40 41  1  0
 42 19  1  1
 41 42  1  0
 42 43  1  0
 39 44  1  0
 43 44  1  0
 45 46  1  0
 46 47  1  0
 47 48  1  0
 48 49  1  0
 19 50  1  0
 45 50  1  0
 49 50  1  0
M  END
