x1386-x0426
     RDKit          3D

 36 40  0  0  0  0  0  0  0  0999 V2000
    2.2670    1.5030   24.0220 C   0  0  0  0  0  0  0  0  0  0  0  0
    1.9610    0.3230   23.8870 O   0  0  0  0  0  0  0  0  0  0  0  0
    3.5410    1.9290   23.6530 N   0  0  0  0  0  0  0  0  0  0  0  0
    4.0410    1.6880   22.3960 C   0  0  0  0  0  0  0  0  0  0  0  0
    3.5250    2.0140   21.0540 C   0  0  0  0  0  0  0  0  0  0  0  0
    2.8760    4.0760   25.1680 F   0  0  0  0  0  0  0  0  0  0  0  0
    5.1880    1.0850   21.7840 C   0  0  0  0  0  0  0  0  0  0  0  0
    6.3040    0.4790   22.0640 C   0  0  0  0  0  0  0  0  0  0  0  0
    1.5950    3.6820   25.1680 C   0  0  0  0  0  0  0  0  0  0  0  0
    1.2060    2.4560   24.6320 C   0  0  0  0  0  0  0  0  0  0  0  0
   -0.1090    2.0230   24.6200 C   0  0  0  0  0  0  0  0  0  0  0  0
   -1.1120    2.8310   25.1650 C   0  0  0  0  0  0  0  0  0  0  0  0
   -0.7310    4.1970   25.7730 C   0  0  0  0  0  0  0  0  0  0  0  0
    0.6440    4.5590   25.7390 C   0  0  0  0  0  0  0  0  0  0  0  0
    5.9510    0.7260   20.5370 C   0  0  0  0  0  0  0  0  0  0  0  0
    6.8500    0.2760   19.5610 C   0  0  0  0  0  0  0  0  0  0  0  0
    6.5880    0.4910   18.1420 N   0  0  0  0  0  0  0  0  0  0  0  0
    5.3790    1.1820   17.7800 C   0  0  0  0  0  0  0  0  0  0  0  0
    4.4290    1.6450   18.7280 C   0  0  0  0  0  0  0  0  0  0  0  0
    4.6930    1.4290   20.0560 C   0  0  0  0  0  0  0  0  0  0  0  0
    7.4300   -2.9720   18.7030 C   0  0  0  0  0  0  0  0  0  0  0  0
    5.5410   -4.0210   19.7270 O   0  0  0  0  0  0  0  0  0  0  0  0
    6.4660   -3.1980   19.8620 C   0  0  0  0  0  0  0  0  0  0  0  0
   10.0030   -2.6600   23.7110 C   0  0  0  0  0  0  0  0  0  0  0  0
    6.7160   -2.4590   21.0400 N   0  0  0  0  0  0  0  0  0  0  0  0
    7.8280   -1.5090   21.1050 C   0  0  2  0  0  0  0  0  0  0  0  0
    9.0360   -1.9670   21.6280 C   0  0  0  0  0  0  0  0  0  0  0  0
    8.7620   -2.4370   22.9720 N   0  0  0  0  0  0  0  0  0  0  0  0
    7.8140   -3.5630   22.9060 C   0  0  0  0  0  0  0  0  0  0  0  0
    6.5730   -3.1770   22.3250 C   0  0  0  0  0  0  0  0  0  0  0  0
   12.2970   -1.8370   22.9800 C   0  0  0  0  0  0  0  0  0  0  0  0
   11.0310   -1.5910   23.4240 C   0  0  0  0  0  0  0  0  0  0  0  0
   10.7780   -0.2330   23.5780 C   0  0  0  0  0  0  0  0  0  0  0  0
   12.1440    0.7400   23.1680 S   0  0  0  0  0  0  0  0  0  0  0  0
   13.0710   -0.6390   22.7770 C   0  0  0  0  0  0  0  0  0  0  0  0
    7.6140   -0.1870   21.6800 C   0  0  0  0  0  0  0  0  0  0  0  0
  1  2  2  0
  1  3  1  0
  3  4  1  0
  4  5  2  0
  4  7  1  0
  7  8  2  0
  6  9  1  0
  1 10  1  0
  9 10  2  0
 10 11  1  0
 11 12  2  0
 12 13  1  0
  9 14  1  0
 13 14  2  0
  8 15  1  0
 15 16  1  0
 16 17  2  0
 17 18  1  0
 18 19  2  0
  5 20  1  0
 15 20  2  0
 19 20  1  0
 21 23  1  0
 22 23  2  0
 23 25  1  0
 25 26  1  0
 26 27  1  0
 24 28  1  0
 27 28  1  0
 28 29  1  0
 25 30  1  0
 29 30  1  0
 24 32  1  0
 31 32  1  0
 32 33  2  0
 33 34  1  0
 31 35  2  0
 34 35  1  0
  8 36  1  0
 26 36  1  1
M  END
