x1386-x2705
     RDKit          3D

 36 39  0  0  0  0  0  0  0  0999 V2000
    7.6420    2.0280   22.7580 N   0  0  0  0  0  0  0  0  0  0  0  0
    8.9990    1.3390   21.0870 O   0  0  0  0  0  0  0  0  0  0  0  0
    6.9300    0.1090   21.4590 C   0  0  1  0  0  0  0  0  0  0  0  0
    7.9730    1.1790   21.7290 C   0  0  0  0  0  0  0  0  0  0  0  0
   10.2500    2.1560   24.0030 C   0  0  0  0  0  0  0  0  0  0  0  0
    9.3120    1.3130   24.9120 C   0  0  0  0  0  0  0  0  0  0  0  0
    6.2290    4.5370   21.8470 C   0  0  0  0  0  0  0  0  0  0  0  0
   12.2620   -1.2270   23.1040 C   0  0  0  0  0  0  0  0  0  0  0  0
   12.5790    0.2110   23.4490 C   0  0  0  0  0  0  0  0  0  0  0  0
   12.8840   -2.0880   24.2330 C   0  0  0  0  0  0  0  0  0  0  0  0
   12.9050   -1.6600   21.9130 C   0  0  0  0  0  0  0  0  0  0  0  0
    7.4910   -2.8680   18.7380 C   0  0  0  0  0  0  0  0  0  0  0  0
    5.4890   -3.7430   19.5960 O   0  0  0  0  0  0  0  0  0  0  0  0
    6.5030   -3.0700   19.8570 C   0  0  0  0  0  0  0  0  0  0  0  0
   10.1640   -3.4110   24.2910 C   0  0  0  0  0  0  0  0  0  0  0  0
    6.3440    0.4180   17.7360 N   0  0  0  0  0  0  0  0  0  0  0  0
    5.2040    1.1280   17.7530 C   0  0  0  0  0  0  0  0  0  0  0  0
    4.5490    1.5250   18.9010 C   0  0  0  0  0  0  0  0  0  0  0  0
    5.0940    1.1940   20.0950 C   0  0  0  0  0  0  0  0  0  0  0  0
    6.2690    0.4760   20.1210 C   0  0  0  0  0  0  0  0  0  0  0  0
    6.8600    0.0990   18.9270 C   0  0  0  0  0  0  0  0  0  0  0  0
   10.0340   -1.9820   24.0950 N   0  0  0  0  0  0  0  0  0  0  0  0
    8.6470   -1.5860   23.8290 N   0  0  0  0  0  0  0  0  0  0  0  0
    8.6580   -1.7370   22.4840 C   0  0  2  0  0  0  0  0  0  0  0  0
    9.8620   -1.3080   21.9780 C   0  0  0  0  0  0  0  0  0  0  0  0
   10.7460   -1.4760   23.0300 C   0  0  0  0  0  0  0  0  0  0  0  0
    9.5010    3.3860   23.5320 C   0  0  0  0  0  0  0  0  0  0  0  0
   10.1140    4.6240   23.7150 C   0  0  0  0  0  0  0  0  0  0  0  0
    9.4540    5.7790   23.2900 C   0  0  0  0  0  0  0  0  0  0  0  0
    8.1960    5.7520   22.6870 C   0  0  0  0  0  0  0  0  0  0  0  0
    7.5850    4.5010   22.5060 C   0  0  0  0  0  0  0  0  0  0  0  0
    8.2200    3.3140   22.9230 C   0  0  0  0  0  0  0  0  0  0  0  0
    6.8260   -2.5650   21.2430 N   0  0  0  0  0  0  0  0  0  0  0  0
    7.2470   -1.3710   21.8480 C   0  0  2  0  0  0  0  0  0  0  0  0
    8.5770   -3.2690   22.3380 C   0  0  0  0  0  0  0  0  0  0  0  0
    7.2050   -3.5310   22.2240 C   0  0  0  0  0  0  0  0  0  0  0  0
  1  4  1  0
  2  4  2  0
  3  4  1  6
  5  6  1  0
  8  9  1  0
  8 10  1  0
  8 11  1  0
 12 14  1  0
 13 14  2  0
 16 17  2  0
 17 18  1  0
 18 19  2  0
  3 20  1  0
 19 20  1  0
 16 21  1  0
 20 21  2  0
 15 22  1  0
 22 23  1  0
 23 24  1  0
 24 25  1  6
  8 26  1  0
 22 26  1  0
 25 26  2  0
  5 27  1  0
 27 28  2  0
 28 29  1  0
 29 30  2  0
  7 31  1  0
 30 31  1  0
  1 32  1  0
 27 32  1  0
 31 32  2  0
 14 33  1  0
  3 34  1  0
 24 34  1  0
 34 33  1  6
 24 35  1  0
 33 36  1  0
 35 36  1  0
M  END
