x1382-x1493
     RDKit          3D

 24 25  0  0  0  0  0  0  0  0999 V2000
   13.4050   -2.2110   21.2720 Cl  0  0  0  0  0  0  0  0  0  0  0  0
    7.0520   -1.2980   22.7320 C   0  0  0  0  0  0  0  0  0  0  0  0
    8.2140   -2.0460   22.0210 C   0  0  1  0  0  0  0  0  0  0  0  0
    8.1470   -2.1770   20.6020 N   0  0  0  0  0  0  0  0  0  0  0  0
    7.2530   -2.9310   19.7290 C   0  0  0  0  0  0  0  0  0  0  0  0
    6.9300   -2.6070   18.5810 O   0  0  0  0  0  0  0  0  0  0  0  0
    6.5260   -4.2180   19.9780 C   0  0  0  0  0  0  0  0  0  0  0  0
    4.8220   -6.2520   26.5330 C   0  0  0  0  0  0  0  0  0  0  0  0
    7.3210   -5.5290   26.6250 O   0  0  0  0  0  0  0  0  0  0  0  0
    6.0780   -5.6100   25.9510 C   0  0  0  0  0  0  0  0  0  0  0  0
    4.9550   -4.0090   21.6270 O   0  0  0  0  0  0  0  0  0  0  0  0
    6.0350   -4.4700   21.3120 C   0  0  0  0  0  0  0  0  0  0  0  0
    9.5520   -1.3840   22.2930 C   0  0  0  0  0  0  0  0  0  0  0  0
   10.7370   -2.0540   21.7450 C   0  0  0  0  0  0  0  0  0  0  0  0
   12.1040   -1.4670   21.9290 C   0  0  0  0  0  0  0  0  0  0  0  0
   12.1720   -0.2850   22.6410 C   0  0  0  0  0  0  0  0  0  0  0  0
   11.0590    0.3220   23.1410 C   0  0  0  0  0  0  0  0  0  0  0  0
    9.7560   -0.1800   23.0010 C   0  0  0  0  0  0  0  0  0  0  0  0
    5.8020   -5.1150   24.6110 N   0  0  0  0  0  0  0  0  0  0  0  0
    6.6810   -4.1550   23.9370 C   0  0  0  0  0  0  0  0  0  0  0  0
    7.5620   -4.8650   23.1320 C   0  0  0  0  0  0  0  0  0  0  0  0
    6.7560   -5.2790   22.1650 N   0  0  0  0  0  0  0  0  0  0  0  0
    5.9950   -6.4430   22.5500 C   0  0  0  0  0  0  0  0  0  0  0  0
    5.1390   -6.0430   23.7240 C   0  0  0  0  0  0  0  0  0  0  0  0
  3  2  1  6
  3  4  1  0
  4  5  1  0
  5  6  2  0
  5  7  1  0
  8 10  1  0
  9 10  2  0
  7 12  1  0
 11 12  2  0
  3 13  1  0
 13 14  2  0
  1 15  1  0
 14 15  1  0
 15 16  2  0
 16 17  1  0
 13 18  1  0
 17 18  2  0
 10 19  1  0
 19 20  1  0
 20 21  1  0
 12 22  1  0
 21 22  1  0
 22 23  1  0
 19 24  1  0
 23 24  1  0
M  END
