x1380-x1374
     RDKit          3D

 27 29  0  0  0  0  0  0  0  0999 V2000
   10.9740   -3.9210   25.5730 C   0  0  0  0  0  0  0  0  0  0  0  0
    6.5120   -4.9190   22.0440 N   0  0  0  0  0  0  0  0  0  0  0  0
    6.3440   -4.5520   20.6810 C   0  0  0  0  0  0  0  0  0  0  0  0
    5.4620   -5.0930   20.0310 O   0  0  0  0  0  0  0  0  0  0  0  0
    7.1910   -3.4910   19.9520 C   0  0  0  0  0  0  0  0  0  0  0  0
    2.2660   -6.8130   23.4280 O   0  0  0  0  0  0  0  0  0  0  0  0
    4.3310   -7.9540   24.2800 O   0  0  0  0  0  0  0  0  0  0  0  0
    9.8460   -4.1490   24.6410 C   0  0  0  0  0  0  0  0  0  0  0  0
    9.3250   -3.1090   23.8680 C   0  0  0  0  0  0  0  0  0  0  0  0
    8.1530   -3.3510   22.9230 C   0  0  0  0  0  0  0  0  0  0  0  0
    7.6480   -4.6280   22.8760 C   0  0  0  0  0  0  0  0  0  0  0  0
    8.2080   -5.6190   23.6500 C   0  0  0  0  0  0  0  0  0  0  0  0
    9.2670   -5.4190   24.5110 C   0  0  0  0  0  0  0  0  0  0  0  0
    5.1940   -4.8310   24.0960 C   0  0  0  0  0  0  0  0  0  0  0  0
    5.6130   -5.5780   23.0230 C   0  0  1  0  0  0  0  0  0  0  0  0
    4.5060   -6.1180   22.4760 C   0  0  0  0  0  0  0  0  0  0  0  0
    3.6500   -6.7780   23.8310 S   0  0  0  0  0  0  0  0  0  0  0  0
    4.0480   -5.3940   24.7170 C   0  0  0  0  0  0  0  0  0  0  0  0
    4.3860   -2.6990   25.9580 O   0  0  0  0  0  0  0  0  0  0  0  0
    5.5150   -3.1660   25.8440 C   0  0  0  0  0  0  0  0  0  0  0  0
    7.7000   -4.0560   26.5320 C   0  0  0  0  0  0  0  0  0  0  0  0
    7.8210   -5.3840   27.2930 C   0  0  0  0  0  0  0  0  0  0  0  0
    7.2410   -5.3620   28.6840 C   0  0  0  0  0  0  0  0  0  0  0  0
    5.8540   -4.7280   28.6710 C   0  0  0  0  0  0  0  0  0  0  0  0
    5.9980   -3.4150   28.2550 C   0  0  0  0  0  0  0  0  0  0  0  0
    6.4330   -3.3460   26.8660 N   0  0  0  0  0  0  0  0  0  0  0  0
    5.9150   -3.5910   24.4860 C   0  0  0  0  0  0  0  0  0  0  0  0
  2  3  1  0
  3  4  2  0
  3  5  1  0
  1  8  1  0
  8  9  2  0
  9 10  1  0
  2 11  1  0
 10 11  2  0
 11 12  1  0
  8 13  1  0
 12 13  2  0
 15  2  1  6
 14 15  1  0
 15 16  1  0
 17  6  1  0
  7 17  1  0
 16 17  1  0
 14 18  2  0
 17 18  1  0
 19 20  2  0
 21 22  1  0
 22 23  1  0
 23 24  1  0
 24 25  1  0
 20 26  1  0
 21 26  1  0
 25 26  1  0
 14 27  1  0
 20 27  1  0
M  END
