x1384-x3124
     RDKit          3D

 38 42  0  0  0  0  0  0  0  0999 V2000
    7.0490   -1.1020   21.9280 N   0  0  0  0  0  0  0  0  0  0  0  0
    7.9570    1.6120   23.3200 N   0  0  0  0  0  0  0  0  0  0  0  0
    8.6910    1.6920   21.1420 O   0  0  0  0  0  0  0  0  0  0  0  0
    6.8020    0.2490   21.7060 C   0  0  1  0  0  0  0  0  0  0  0  0
    7.9090    1.2320   21.9860 C   0  0  0  0  0  0  0  0  0  0  0  0
    8.8970    2.7050   23.6100 C   0  0  0  0  0  0  0  0  0  0  0  0
   12.2290   -1.9380   24.2440 C   0  0  0  0  0  0  0  0  0  0  0  0
   13.2610   -1.1440   23.5800 C   0  0  0  0  0  0  0  0  0  0  0  0
   12.7190   -0.6810   24.8030 C   0  0  0  0  0  0  0  0  0  0  0  0
   12.7680   -3.0820   25.0660 C   0  0  0  0  0  0  0  0  0  0  0  0
    6.3060   -3.3320   21.8080 N   0  0  0  0  0  0  0  0  0  0  0  0
    8.0260   -3.4050   20.1570 C   0  0  0  0  0  0  0  0  0  0  0  0
    5.6970   -4.2370   19.8010 O   0  0  0  0  0  0  0  0  0  0  0  0
    6.5880   -3.7300   20.5010 C   0  0  0  0  0  0  0  0  0  0  0  0
    6.0140   -2.0790   22.1750 C   0  0  0  0  0  0  0  0  0  0  0  0
    6.3090    0.3510   17.7650 N   0  0  0  0  0  0  0  0  0  0  0  0
    5.2300    1.1700   17.8050 C   0  0  0  0  0  0  0  0  0  0  0  0
    4.5880    1.7150   18.9240 C   0  0  0  0  0  0  0  0  0  0  0  0
    5.0170    1.4670   20.2180 C   0  0  0  0  0  0  0  0  0  0  0  0
    6.2330    0.5700   20.3940 C   0  0  0  0  0  0  0  0  0  0  0  0
    6.8480    0.0210   19.1050 C   0  0  0  0  0  0  0  0  0  0  0  0
    9.3150   -1.7690   21.7540 C   0  0  0  0  0  0  0  0  0  0  0  0
   10.6830   -1.9880   22.3750 C   0  0  0  0  0  0  0  0  0  0  0  0
   10.8230   -1.7450   23.7140 C   0  0  0  0  0  0  0  0  0  0  0  0
    9.7360   -1.3280   24.4910 C   0  0  0  0  0  0  0  0  0  0  0  0
    8.4700   -1.1310   23.8950 C   0  0  0  0  0  0  0  0  0  0  0  0
    8.2770   -1.3420   22.5280 C   0  0  0  0  0  0  0  0  0  0  0  0
    5.5810   -2.3700   26.3930 O   0  0  0  0  0  0  0  0  0  0  0  0
    3.8370   -3.8730   23.9050 C   0  0  2  0  0  0  0  0  0  0  0  0
    5.1140   -3.6170   23.8460 C   0  0  1  0  0  0  0  0  0  0  0  0
    5.0190   -4.1590   25.0060 C   0  0  2  0  0  0  0  0  0  0  0  0
    4.9070   -5.5450   25.0290 C   0  0  0  0  0  0  0  0  0  0  0  0
    4.3040   -6.3610   23.9930 C   0  0  0  0  0  0  0  0  0  0  0  0
    3.6840   -5.2960   23.3910 C   0  0  0  0  0  0  0  0  0  0  0  0
    4.7880   -3.5240   26.2110 C   0  0  2  0  0  0  0  0  0  0  0  0
    3.4620   -3.1250   26.0880 C   0  0  0  0  0  0  0  0  0  0  0  0
    2.8540   -3.2760   24.8840 C   0  0  0  0  0  0  0  0  0  0  0  0
    5.9580   -4.2950   22.8060 C   0  0  0  0  0  0  0  0  0  0  0  0
  1  4  1  0
  2  5  1  0
  3  5  2  0
  4  5  1  6
  2  6  1  0
  7  8  1  0
  7  9  1  0
  7 10  1  0
 11 14  1  0
 12 14  1  0
 13 14  2  0
  1 15  1  0
 11 15  1  0
 16 17  2  0
 17 18  1  0
 18 19  2  0
  4 20  1  0
 19 20  1  0
 16 21  1  0
 20 21  2  0
 22 23  2  0
  7 24  1  0
 23 24  1  0
 24 25  2  0
 25 26  1  0
  1 27  1  0
 22 27  1  0
 26 27  2  0
 29 30  1  0
 29 31  1  0
 30 31  1  0
 31 32  1  1
 32 33  1  0
 29 34  1  6
 33 34  2  0
 35 28  1  6
 31 35  1  0
 35 36  1  0
 29 37  1  0
 36 37  2  0
 11 38  1  0
 30 38  1  6
M  END
