x1384-x0752
     RDKit          3D

 15 17  0  0  0  0  0  0  0  0999 V2000
    6.5400   -4.1440   21.3640 N   0  0  0  0  0  0  0  0  0  0  0  0
    7.4270   -3.0540   19.2920 C   0  0  0  0  0  0  0  0  0  0  0  0
    5.2400   -3.9600   19.5890 O   0  0  0  0  0  0  0  0  0  0  0  0
    6.3310   -3.7390   20.0800 C   0  0  0  0  0  0  0  0  0  0  0  0
    4.8520   -2.7230   26.7570 O   0  0  0  0  0  0  0  0  0  0  0  0
    5.8150   -5.3150   21.8290 C   0  0  0  0  0  0  0  0  0  0  0  0
    5.1340   -3.8020   23.8360 C   0  0  2  0  0  0  0  0  0  0  0  0
    6.0110   -3.6580   24.8680 C   0  0  0  0  0  0  0  0  0  0  0  0
    4.9060   -4.4020   25.3430 C   0  0  2  0  0  0  0  0  0  0  0  0
    4.5890   -5.7790   25.3140 C   0  0  0  0  0  0  0  0  0  0  0  0
    4.9630   -6.1630   24.0100 C   0  0  0  0  0  0  0  0  0  0  0  0
    5.2770   -5.0700   23.2070 C   0  0  0  0  0  0  0  0  0  0  0  0
    4.0740   -3.4950   26.1850 C   0  0  2  0  0  0  0  0  0  0  0  0
    3.5310   -2.7320   25.1900 C   0  0  0  0  0  0  0  0  0  0  0  0
    3.9030   -2.6830   23.7930 C   0  0  0  0  0  0  0  0  0  0  0  0
  1  4  1  0
  2  4  1  0
  3  4  2  0
  1  6  1  0
  7  8  1  1
  7  9  1  0
  9  8  1  1
  9 10  1  0
 10 11  1  0
  6 12  1  0
  7 12  1  0
 11 12  2  0
 13  5  1  1
  9 13  1  0
 13 14  1  0
  7 15  1  0
 14 15  2  0
M  END
