x1382-x1077
     RDKit          3D

 24 25  0  0  0  0  0  0  0  0999 V2000
   13.5790   -2.6910   23.2320 Cl  0  0  0  0  0  0  0  0  0  0  0  0
    7.2650   -0.9430   22.6970 C   0  0  0  0  0  0  0  0  0  0  0  0
    8.3310   -1.7870   21.9330 C   0  0  1  0  0  0  0  0  0  0  0  0
    8.0730   -1.8460   20.5510 N   0  0  0  0  0  0  0  0  0  0  0  0
    7.3230   -2.7490   19.6510 C   0  0  0  0  0  0  0  0  0  0  0  0
    6.2790   -3.5050   19.6830 O   0  0  0  0  0  0  0  0  0  0  0  0
    7.8470   -2.8970   18.3120 C   0  0  0  0  0  0  0  0  0  0  0  0
    8.1780    2.4220   21.6950 N   0  0  0  0  0  0  0  0  0  0  0  0
    9.0620    1.3760   22.1260 C   0  0  0  0  0  0  0  0  0  0  0  0
    9.7610   -1.2030   22.2960 C   0  0  0  0  0  0  0  0  0  0  0  0
   10.9270   -2.1490   22.5670 C   0  0  0  0  0  0  0  0  0  0  0  0
   12.3260   -1.6270   22.9380 C   0  0  0  0  0  0  0  0  0  0  0  0
   12.6120   -0.1500   23.0590 C   0  0  0  0  0  0  0  0  0  0  0  0
   11.4180    0.7530   22.7740 C   0  0  0  0  0  0  0  0  0  0  0  0
   10.1470    0.2800   22.4250 C   0  0  0  0  0  0  0  0  0  0  0  0
    6.3250   -6.1070   24.1900 O   0  0  0  0  0  0  0  0  0  0  0  0
    7.4700   -6.0310   23.4570 C   0  0  0  0  0  0  0  0  0  0  0  0
    8.6110   -6.0890   24.2300 C   0  0  0  0  0  0  0  0  0  0  0  0
    9.2630   -4.9240   24.2690 C   0  0  0  0  0  0  0  0  0  0  0  0
    8.2470   -4.0590   24.8100 N   0  0  0  0  0  0  0  0  0  0  0  0
    7.2600   -4.5150   25.5980 C   0  0  0  0  0  0  0  0  0  0  0  0
    6.0980   -5.0030   25.0630 C   0  0  0  0  0  0  0  0  0  0  0  0
    8.3020   -3.1420   22.5240 C   0  0  0  0  0  0  0  0  0  0  0  0
    7.9050   -3.0080   23.9720 C   0  0  0  0  0  0  0  0  0  0  0  0
  3  2  1  1
  3  4  1  0
  4  5  1  0
  5  6  2  0
  5  7  1  0
  8  9  3  0
  3 10  1  0
 10 11  2  0
  1 12  1  0
 11 12  1  0
 12 13  2  0
 13 14  1  0
  9 15  1  0
 10 15  1  0
 14 15  2  0
 16 17  1  0
 17 18  1  0
 18 19  1  0
 19 20  1  0
 20 21  1  0
 16 22  1  0
 21 22  1  0
  3 23  1  0
 20 24  1  0
 23 24  1  0
M  END
