x1386-x2600
     RDKit          3D

 28 31  0  0  0  0  0  0  0  0999 V2000
   13.8480   -1.6640   20.5470 N   0  0  0  0  0  0  0  0  0  0  0  0
    8.2090   -0.4490   21.8810 C   0  0  1  0  0  0  0  0  0  0  0  0
    8.8730    0.0060   21.0000 O   0  0  0  0  0  0  0  0  0  0  0  0
    8.4430    0.2440   23.1570 C   0  0  0  0  0  0  0  0  0  0  0  0
    6.9380   -0.9660   21.4310 N   0  0  0  0  0  0  0  0  0  0  0  0
   13.0290   -1.3160   21.6330 C   0  0  0  0  0  0  0  0  0  0  0  0
    7.5080   -2.9860   18.6520 C   0  0  0  0  0  0  0  0  0  0  0  0
    5.6310   -3.9050   19.7290 O   0  0  0  0  0  0  0  0  0  0  0  0
    6.5990   -3.1190   19.8840 C   0  0  0  0  0  0  0  0  0  0  0  0
    9.7880   -2.5990   23.9000 C   0  0  0  0  0  0  0  0  0  0  0  0
    6.3980    0.6110   17.8370 N   0  0  0  0  0  0  0  0  0  0  0  0
    6.9620   -0.1840   18.9620 C   0  0  0  0  0  0  0  0  0  0  0  0
    6.3350   -0.1370   20.3440 C   0  0  0  0  0  0  0  0  0  0  0  0
    5.1270    0.7570   20.4740 C   0  0  0  0  0  0  0  0  0  0  0  0
    4.6460    1.5180   19.2430 C   0  0  0  0  0  0  0  0  0  0  0  0
    5.3010    1.4060   18.0000 C   0  0  0  0  0  0  0  0  0  0  0  0
   10.4790    0.0450   24.7810 C   0  0  0  0  0  0  0  0  0  0  0  0
   11.9480   -0.3220   24.9410 C   0  0  0  0  0  0  0  0  0  0  0  0
   12.7210   -0.7470   23.9140 C   0  0  0  0  0  0  0  0  0  0  0  0
   12.1870   -0.8610   22.6890 C   0  0  0  0  0  0  0  0  0  0  0  0
   10.8260   -0.5310   22.4970 C   0  0  0  0  0  0  0  0  0  0  0  0
    9.9280   -0.0710   23.5210 C   0  0  0  0  0  0  0  0  0  0  0  0
    6.9950   -2.3400   21.2500 C   0  0  1  0  0  0  0  0  0  0  0  0
    8.2560   -2.5520   21.1240 C   0  0  0  0  0  0  0  0  0  0  0  0
    8.8380   -1.8670   22.0480 C   0  0  2  0  0  0  0  0  0  0  0  0
    8.6180   -2.3490   23.2230 N   0  0  0  0  0  0  0  0  0  0  0  0
    7.5220   -3.1870   23.3190 C   0  0  0  0  0  0  0  0  0  0  0  0
    6.4560   -2.8630   22.4330 C   0  0  0  0  0  0  0  0  0  0  0  0
  2  3  1  6
  2  4  1  0
  2  5  1  0
  1  6  3  0
  7  9  1  0
  8  9  2  0
 11 12  2  0
  5 13  1  0
 12 13  1  0
 13 14  2  0
 14 15  1  0
 11 16  1  0
 15 16  2  0
 17 18  2  0
 18 19  1  0
  6 20  1  0
 19 20  2  0
 20 21  1  0
  4 22  1  0
 17 22  1  0
 21 22  2  0
  5 23  1  0
 23  9  1  6
 23 24  1  0
  2 25  1  0
 24 25  1  0
 10 26  1  0
 25 26  1  1
 26 27  1  0
 23 28  1  0
 27 28  1  0
M  END
