x1384-x2563
     RDKit          3D

 37 42  0  0  0  0  0  0  0  0999 V2000
    6.5180   -3.2430   21.5300 N   0  0  0  0  0  0  0  0  0  0  0  0
    7.1980   -3.1430   19.1490 C   0  0  0  0  0  0  0  0  0  0  0  0
    5.4400   -4.5520   19.9380 O   0  0  0  0  0  0  0  0  0  0  0  0
    6.2990   -3.7180   20.2380 C   0  0  0  0  0  0  0  0  0  0  0  0
    8.5850    0.1530   21.2040 C   0  0  0  0  0  0  0  0  0  0  0  0
    8.6700    1.3920   21.1150 O   0  0  0  0  0  0  0  0  0  0  0  0
    7.3970   -0.7100   20.9130 C   0  0  1  0  0  0  0  0  0  0  0  0
    9.6710   -0.6810   21.5670 N   0  0  0  0  0  0  0  0  0  0  0  0
    7.5190   -2.1460   21.6890 C   0  0  0  0  0  0  0  0  0  0  0  0
    6.6490   -1.0040   22.1540 C   0  0  0  0  0  0  0  0  0  0  0  0
    6.2630    0.5540   17.5540 N   0  0  0  0  0  0  0  0  0  0  0  0
    5.1230    1.3020   17.9640 C   0  0  0  0  0  0  0  0  0  0  0  0
    4.6880    1.4110   19.2850 C   0  0  0  0  0  0  0  0  0  0  0  0
    5.4340    0.7450   20.2820 C   0  0  0  0  0  0  0  0  0  0  0  0
    6.5500    0.0190   19.8680 C   0  0  0  0  0  0  0  0  0  0  0  0
    6.9250   -0.0580   18.5410 C   0  0  0  0  0  0  0  0  0  0  0  0
    3.4570    2.2290   19.5780 C   0  0  0  0  0  0  0  0  0  0  0  0
    2.9860    2.3750   20.8810 C   0  0  0  0  0  0  0  0  0  0  0  0
    3.7040    1.7130   22.0390 C   0  0  0  0  0  0  0  0  0  0  0  0
    4.9410    0.8960   21.6800 C   0  0  0  0  0  0  0  0  0  0  0  0
   11.7990   -0.6740   22.6180 C   0  0  0  0  0  0  0  0  0  0  0  0
   12.6890   -0.5470   23.8420 C   0  0  0  0  0  0  0  0  0  0  0  0
   12.0120   -0.3270   25.0040 C   0  0  0  0  0  0  0  0  0  0  0  0
   10.6090   -0.2140   25.0520 C   0  0  0  0  0  0  0  0  0  0  0  0
    9.7900   -0.3190   23.9360 C   0  0  0  0  0  0  0  0  0  0  0  0
   10.4160   -0.5550   22.7200 C   0  0  0  0  0  0  0  0  0  0  0  0
    3.9890   -1.7240   25.6360 O   0  0  0  0  0  0  0  0  0  0  0  0
    5.5140   -4.5620   24.1920 C   0  0  1  0  0  0  0  0  0  0  0  0
    4.8530   -3.9780   23.2090 C   0  0  1  0  0  0  0  0  0  0  0  0
    3.9340   -3.8540   24.1820 C   0  0  1  0  0  0  0  0  0  0  0  0
    3.1580   -5.0320   24.1510 C   0  0  0  0  0  0  0  0  0  0  0  0
    3.9350   -6.1350   23.6990 C   0  0  0  0  0  0  0  0  0  0  0  0
    5.2550   -5.9610   23.6850 C   0  0  0  0  0  0  0  0  0  0  0  0
    3.9960   -3.1210   25.4610 C   0  0  1  0  0  0  0  0  0  0  0  0
    4.9920   -3.2770   24.7280 C   0  0  0  0  0  0  0  0  0  0  0  0
    4.8630   -4.4790   25.4360 C   0  0  0  0  0  0  0  0  0  0  0  0
    5.4350   -2.8830   22.3900 C   0  0  0  0  0  0  0  0  0  0  0  0
  1  4  1  0
  2  4  1  0
  3  4  2  0
  5  6  2  0
  5  7  1  0
  5  8  1  0
  1  9  1  0
  7 10  1  1
  9 10  1  0
 11 12  2  0
 12 13  1  0
 13 14  2  0
  7 15  1  0
 14 15  1  0
 11 16  1  0
 15 16  2  0
 13 17  1  0
 17 18  2  0
 18 19  1  0
 14 20  1  0
 19 20  2  0
 21 22  2  0
 22 23  1  0
 23 24  2  0
 24 25  1  0
  8 26  1  0
 21 26  1  0
 25 26  2  0
 28 29  1  0
 28 30  1  0
 29 30  1  0
 30 31  1  6
 31 32  1  0
 28 33  1  6
 32 33  2  0
 34 27  1  6
 30 34  1  0
 34 35  1  0
 28 36  1  0
 35 36  2  0
  1 37  1  0
 29 37  1  1
M  END
