x1380-x2646
     RDKit          3D

 36 39  0  0  0  0  0  0  0  0999 V2000
    7.0190   -3.2940   19.2240 C   0  0  0  0  0  0  0  0  0  0  0  0
    5.1210   -4.5990   19.8540 O   0  0  0  0  0  0  0  0  0  0  0  0
    6.1540   -4.0640   20.1960 C   0  0  0  0  0  0  0  0  0  0  0  0
    4.9350   -2.6410   25.2360 O   0  0  0  0  0  0  0  0  0  0  0  0
    6.0050   -3.2330   25.3860 C   0  0  0  0  0  0  0  0  0  0  0  0
    4.7810    1.2180   21.7000 C   0  0  0  0  0  0  0  0  0  0  0  0
    8.8230    0.8110   21.2740 O   0  0  0  0  0  0  0  0  0  0  0  0
   13.1080   -2.2520   21.2300 Cl  0  0  0  0  0  0  0  0  0  0  0  0
    7.2400   -0.5780   21.2790 N   0  0  0  0  0  0  0  0  0  0  0  0
    8.1850   -0.1170   21.7670 C   0  0  0  0  0  0  0  0  0  0  0  0
    8.6460   -0.6730   23.1530 C   0  0  1  0  0  0  0  0  0  0  0  0
    8.2560   -1.8770   23.7880 C   0  0  0  0  0  0  0  0  0  0  0  0
    6.6340   -4.1780   21.4650 N   0  0  0  0  0  0  0  0  0  0  0  0
    6.3770   -5.3130   22.3320 C   0  0  0  0  0  0  0  0  0  0  0  0
    6.1290   -4.9470   23.6390 C   0  0  0  0  0  0  0  0  0  0  0  0
    6.7510   -3.7830   24.1390 C   0  0  1  0  0  0  0  0  0  0  0  0
    7.1160   -2.7540   23.2240 C   0  0  2  0  0  0  0  0  0  0  0  0
    7.5230   -3.1710   21.9950 C   0  0  0  0  0  0  0  0  0  0  0  0
    7.9140   -3.8980   26.9340 C   0  0  0  0  0  0  0  0  0  0  0  0
    7.9760   -5.2650   27.6460 C   0  0  0  0  0  0  0  0  0  0  0  0
    6.8900   -5.3940   28.7050 C   0  0  0  0  0  0  0  0  0  0  0  0
    5.5160   -4.8320   28.3110 C   0  0  0  0  0  0  0  0  0  0  0  0
    5.6720   -3.3910   27.8330 C   0  0  0  0  0  0  0  0  0  0  0  0
    6.5500   -3.4340   26.6470 N   0  0  0  0  0  0  0  0  0  0  0  0
    6.3940    0.4410   17.8050 N   0  0  0  0  0  0  0  0  0  0  0  0
    6.9480   -0.1100   18.9130 C   0  0  0  0  0  0  0  0  0  0  0  0
    6.5150    0.0710   20.2280 C   0  0  0  0  0  0  0  0  0  0  0  0
    5.3770    0.9130   20.3630 C   0  0  0  0  0  0  0  0  0  0  0  0
    4.7670    1.5040   19.2130 C   0  0  0  0  0  0  0  0  0  0  0  0
    5.3330    1.2210   17.9840 C   0  0  0  0  0  0  0  0  0  0  0  0
   10.7150    0.4650   23.8480 C   0  0  0  0  0  0  0  0  0  0  0  0
   12.0960    0.6080   23.7760 C   0  0  0  0  0  0  0  0  0  0  0  0
   12.8500   -0.2190   22.9740 C   0  0  0  0  0  0  0  0  0  0  0  0
   12.2170   -1.2080   22.2330 C   0  0  0  0  0  0  0  0  0  0  0  0
   10.8410   -1.3430   22.3060 C   0  0  0  0  0  0  0  0  0  0  0  0
   10.0660   -0.5140   23.1080 C   0  0  0  0  0  0  0  0  0  0  0  0
  1  3  1  0
  2  3  2  0
  4  5  2  0
  7 10  2  0
  9 10  1  0
 10 11  1  0
 11 12  1  6
  3 13  1  0
 13 14  1  0
 14 15  1  0
 16  5  1  1
 15 16  1  0
 17 12  1  1
 16 17  1  0
 13 18  1  0
 17 18  1  0
 19 20  1  0
 20 21  1  0
 21 22  1  0
 22 23  1  0
  5 24  1  0
 19 24  1  0
 23 24  1  0
 25 26  2  0
  9 27  1  0
 26 27  1  0
  6 28  1  0
 27 28  2  0
 28 29  1  0
 25 30  1  0
 29 30  2  0
 31 32  2  0
 32 33  1  0
  8 34  1  0
 33 34  2  0
 34 35  1  0
 11 36  1  0
 31 36  1  0
 35 36  2  0
M  END
