x1380-x0426-x2694
     RDKit          3D

 59 64  0  0  0  0  0  0  0  0999 V2000
    7.3040   -0.9310   22.1210 N   0  0  0  0  0  0  0  0  0  0  0  0
    7.7940    2.4650   22.8080 N   0  0  0  0  0  0  0  0  0  0  0  0
    8.9790    1.4200   21.1130 O   0  0  0  0  0  0  0  0  0  0  0  0
   11.0380    6.8760   23.8990 O   0  0  0  0  0  0  0  0  0  0  0  0
    6.8560    0.4410   21.8250 C   0  0  1  0  0  0  0  0  0  0  0  0
    8.0130    1.4840   21.8700 C   0  0  0  0  0  0  0  0  0  0  0  0
   10.2880    1.9930   24.0470 C   0  0  0  0  0  0  0  0  0  0  0  0
   11.8840    6.7790   25.0400 C   0  0  0  0  0  0  0  0  0  0  0  0
   12.4200   -1.3550   23.0840 C   0  0  0  0  0  0  0  0  0  0  0  0
   12.8740   -0.0480   23.2720 C   0  0  0  0  0  0  0  0  0  0  0  0
   12.9410   -1.8760   21.7360 C   0  0  0  0  0  0  0  0  0  0  0  0
   12.9650   -2.2210   24.2670 C   0  0  0  0  0  0  0  0  0  0  0  0
    2.3390    1.8250   23.8640 C   0  0  0  0  0  0  0  0  0  0  0  0
    2.1070    0.5670   23.6290 O   0  0  0  0  0  0  0  0  0  0  0  0
    3.5420    2.4560   23.5030 N   0  0  0  0  0  0  0  0  0  0  0  0
    4.3360    1.8260   22.6710 C   0  0  0  0  0  0  0  0  0  0  0  0
    3.9860    1.7480   21.3310 C   0  0  0  0  0  0  0  0  0  0  0  0
    2.8110    4.3460   25.2330 F   0  0  0  0  0  0  0  0  0  0  0  0
    7.0380   -3.3070   19.3720 C   0  0  0  0  0  0  0  0  0  0  0  0
    5.2320   -4.7770   19.9430 O   0  0  0  0  0  0  0  0  0  0  0  0
    6.2690   -4.2460   20.2970 C   0  0  0  0  0  0  0  0  0  0  0  0
    4.5380   -2.8510   25.4580 O   0  0  0  0  0  0  0  0  0  0  0  0
    5.8550   -3.4080   25.4790 C   0  0  0  0  0  0  0  0  0  0  0  0
    6.3550   -1.8300   22.8400 C   0  0  0  0  0  0  0  0  0  0  0  0
    6.4490    0.3560   17.9840 N   0  0  0  0  0  0  0  0  0  0  0  0
    5.2640    0.9360   17.8130 C   0  0  0  0  0  0  0  0  0  0  0  0
    4.3580    1.4380   18.9180 C   0  0  0  0  0  0  0  0  0  0  0  0
    4.8770    1.2650   20.3340 C   0  0  0  0  0  0  0  0  0  0  0  0
    6.1400    0.6700   20.4990 C   0  0  0  0  0  0  0  0  0  0  0  0
    6.8900    0.2120   19.2470 C   0  0  0  0  0  0  0  0  0  0  0  0
    8.7730   -1.6020   24.0130 N   0  0  0  0  0  0  0  0  0  0  0  0
   10.1630   -1.7240   24.2680 O   0  0  0  0  0  0  0  0  0  0  0  0
   10.9220   -1.3430   23.1220 C   0  0  0  0  0  0  0  0  0  0  0  0
    9.9250   -0.9610   22.0650 C   0  0  0  0  0  0  0  0  0  0  0  0
    8.6140   -1.1610   22.7430 C   0  0  0  0  0  0  0  0  0  0  0  0
    9.8220    3.3910   23.6680 C   0  0  0  0  0  0  0  0  0  0  0  0
   10.6650    4.4680   23.9540 C   0  0  0  0  0  0  0  0  0  0  0  0
   10.2920    5.7680   23.6410 C   0  0  0  0  0  0  0  0  0  0  0  0
    9.0650    5.9650   23.0240 C   0  0  0  0  0  0  0  0  0  0  0  0
    8.2020    4.9100   22.7200 C   0  0  0  0  0  0  0  0  0  0  0  0
    8.5910    3.6080   23.0550 C   0  0  0  0  0  0  0  0  0  0  0  0
    1.5670    3.8390   25.2130 C   0  0  0  0  0  0  0  0  0  0  0  0
    1.2890    2.6230   24.5620 C   0  0  0  0  0  0  0  0  0  0  0  0
   -0.0370    2.1180   24.5620 C   0  0  0  0  0  0  0  0  0  0  0  0
   -1.0980    2.7890   25.1930 C   0  0  0  0  0  0  0  0  0  0  0  0
   -0.8440    3.9790   25.8340 C   0  0  0  0  0  0  0  0  0  0  0  0
    0.5550    4.5500   25.8570 C   0  0  0  0  0  0  0  0  0  0  0  0
    6.8160   -4.5390   21.5480 N   0  0  0  0  0  0  0  0  0  0  0  0
    6.1290   -5.4660   22.4410 C   0  0  0  0  0  0  0  0  0  0  0  0
    5.5450   -4.7640   23.5130 C   0  0  0  0  0  0  0  0  0  0  0  0
    6.4920   -4.0100   24.2100 C   0  0  1  0  0  0  0  0  0  0  0  0
    7.1280   -3.0260   23.4320 C   0  0  1  0  0  0  0  0  0  0  0  0
    7.6890   -3.5420   22.1670 C   0  0  0  0  0  0  0  0  0  0  0  0
    7.8450   -4.2190   26.6680 C   0  0  0  0  0  0  0  0  0  0  0  0
    8.1230   -5.0460   27.9360 C   0  0  0  0  0  0  0  0  0  0  0  0
    6.9710   -5.4400   28.5410 C   0  0  0  0  0  0  0  0  0  0  0  0
    5.7450   -4.5520   28.5220 C   0  0  0  0  0  0  0  0  0  0  0  0
    5.9210   -3.3210   27.9830 C   0  0  0  0  0  0  0  0  0  0  0  0
    6.5770   -3.4430   26.6770 N   0  0  0  0  0  0  0  0  0  0  0  0
  1  5  1  0
  2  6  1  0
  3  6  2  0
  5  6  1  6
  4  8  1  0
  9 10  1  0
  9 11  1  0
  9 12  1  0
 13 14  2  0
 13 15  1  0
 15 16  1  0
 16 17  1  0
 19 21  1  0
 20 21  2  0
 22 23  2  0
  1 24  1  0
 25 26  2  0
 26 27  1  0
 17 28  1  0
 27 28  2  0
  5 29  1  0
 28 29  1  0
 25 30  1  0
 29 30  2  0
 31 32  1  0
  9 33  1  0
 32 33  1  0
 33 34  2  0
  1 35  1  0
 31 35  2  0
 34 35  1  0
  7 36  1  0
 36 37  2  0
  4 38  1  0
 37 38  1  0
 38 39  2  0
 39 40  1  0
  2 41  1  0
 36 41  1  0
 40 41  2  0
 18 42  1  0
 13 43  1  0
 42 43  2  0
 43 44  1  0
 44 45  2  0
 45 46  1  0
 42 47  1  0
 46 47  2  0
 21 48  1  0
 48 49  1  0
 49 50  1  0
 51 23  1  1
 50 51  1  0
 52 24  1  6
 51 52  1  0
 48 53  1  0
 52 53  1  0
 54 55  1  0
 55 56  1  0
 56 57  1  0
 57 58  1  0
 23 59  1  0
 54 59  1  0
 58 59  1  0
M  END
