x1382-x2052
     RDKit          3D

 31 34  0  0  0  0  0  0  0  0999 V2000
    5.8090   -1.3470   25.1300 C   0  0  0  0  0  0  0  0  0  0  0  0
    4.5880   -1.1920   25.0910 O   0  0  0  0  0  0  0  0  0  0  0  0
    6.6420   -0.8650   26.1500 N   0  0  0  0  0  0  0  0  0  0  0  0
    5.7620   -4.7090   19.9710 O   0  0  0  0  0  0  0  0  0  0  0  0
    5.4400    2.2650   30.6430 O   0  0  0  0  0  0  0  0  0  0  0  0
    5.8990   -3.5750   19.5210 C   0  0  0  0  0  0  0  0  0  0  0  0
    7.2410   -2.8750   19.2660 C   0  0  0  0  0  0  0  0  0  0  0  0
    6.1060    3.5210   30.7210 C   0  0  0  0  0  0  0  0  0  0  0  0
   13.4450   -1.8260   21.0460 Cl  0  0  0  0  0  0  0  0  0  0  0  0
    7.9890   -2.2660   24.2450 C   0  0  0  0  0  0  0  0  0  0  0  0
    8.7120   -2.3900   22.9380 C   0  0  1  0  0  0  0  0  0  0  0  0
    7.6160   -1.8630   20.4010 C   0  0  0  0  0  0  0  0  0  0  0  0
    7.9510   -0.7010   20.1680 O   0  0  0  0  0  0  0  0  0  0  0  0
    7.0550   -3.6560   21.7970 N   0  0  0  0  0  0  0  0  0  0  0  0
    7.5060   -2.2540   21.9090 C   0  0  1  0  0  0  0  0  0  0  0  0
    6.4450   -1.4400   22.6410 C   0  0  0  0  0  0  0  0  0  0  0  0
    6.5170   -2.1220   24.0270 C   0  0  2  0  0  0  0  0  0  0  0  0
    5.9580   -3.3980   23.9170 C   0  0  0  0  0  0  0  0  0  0  0  0
    6.5140   -4.2450   22.9660 C   0  0  0  0  0  0  0  0  0  0  0  0
    6.5340    2.0820   28.5530 N   0  0  0  0  0  0  0  0  0  0  0  0
    6.8180    1.2280   27.4050 C   0  0  0  0  0  0  0  0  0  0  0  0
    6.3010   -0.0790   27.3390 C   0  0  0  0  0  0  0  0  0  0  0  0
    5.5010   -0.6570   28.3250 C   0  0  0  0  0  0  0  0  0  0  0  0
    5.2150    0.1300   29.4280 C   0  0  0  0  0  0  0  0  0  0  0  0
    5.7650    1.5470   29.5180 C   0  0  0  0  0  0  0  0  0  0  0  0
    9.9780   -1.5620   22.9540 C   0  0  0  0  0  0  0  0  0  0  0  0
   11.0630   -2.0230   22.0500 C   0  0  0  0  0  0  0  0  0  0  0  0
   12.3140   -1.2200   22.0980 C   0  0  0  0  0  0  0  0  0  0  0  0
   12.4490   -0.1170   22.9290 C   0  0  0  0  0  0  0  0  0  0  0  0
   11.3990    0.2730   23.7510 C   0  0  0  0  0  0  0  0  0  0  0  0
   10.1670   -0.4270   23.7800 C   0  0  0  0  0  0  0  0  0  0  0  0
  1  2  2  0
  1  3  1  0
  4  6  2  0
  6  7  1  0
  5  8  1  0
 10 11  1  0
  7 12  1  0
 12 13  2  0
 11 15  1  0
 15 12  1  6
 14 15  1  0
 15 16  1  0
 17  1  1  1
 10 17  1  0
 16 17  1  0
 17 18  1  0
 14 19  1  0
 18 19  1  0
 20 21  2  0
  3 22  1  0
 21 22  1  0
 22 23  2  0
 23 24  1  0
  5 25  1  0
 20 25  1  0
 24 25  2  0
 11 26  1  6
 26 27  2  0
  9 28  1  0
 27 28  1  0
 28 29  2  0
 29 30  1  0
 26 31  1  0
 30 31  2  0
M  END
