x1380-x3115-x2776
     RDKit          3D

 48 52  0  0  0  0  0  0  0  0999 V2000
    7.3800   -1.4310   22.5960 N   0  0  0  0  0  0  0  0  0  0  0  0
    7.7690    1.9860   23.0300 N   0  0  0  0  0  0  0  0  0  0  0  0
    8.7140    1.2450   21.1210 O   0  0  0  0  0  0  0  0  0  0  0  0
    6.8250   -0.1110   22.0490 C   0  0  1  0  0  0  0  0  0  0  0  0
    7.8660    1.0680   22.0060 C   0  0  0  0  0  0  0  0  0  0  0  0
    8.4200    6.9190   22.6630 C   0  0  0  0  0  0  0  0  0  0  0  0
   12.6390   -2.0280   24.3030 C   0  0  0  0  0  0  0  0  0  0  0  0
   13.4750   -2.1620   23.2250 C   0  0  0  0  0  0  0  0  0  0  0  0
   12.9960   -3.0840   25.3620 C   0  0  0  0  0  0  0  0  0  0  0  0
   12.8520   -0.6890   24.9740 C   0  0  0  0  0  0  0  0  0  0  0  0
   10.9750    6.5870   23.6000 O   0  0  0  0  0  0  0  0  0  0  0  0
   10.6840    1.8320   23.9690 C   0  0  0  0  0  0  0  0  0  0  0  0
   11.7630    6.4610   24.7250 C   0  0  0  0  0  0  0  0  0  0  0  0
    7.0090   -3.2160   19.2680 C   0  0  0  0  0  0  0  0  0  0  0  0
    4.8900   -4.2710   19.5640 O   0  0  0  0  0  0  0  0  0  0  0  0
    5.8870   -3.8980   20.0680 C   0  0  0  0  0  0  0  0  0  0  0  0
    5.0460   -2.4060   25.0580 O   0  0  0  0  0  0  0  0  0  0  0  0
    6.2240   -3.0880   25.1460 C   0  0  0  0  0  0  0  0  0  0  0  0
    6.3390    0.0900   18.0550 N   0  0  0  0  0  0  0  0  0  0  0  0
    5.1760    0.7900   17.9100 C   0  0  0  0  0  0  0  0  0  0  0  0
    4.3800    1.2650   19.1340 C   0  0  0  0  0  0  0  0  0  0  0  0
    4.9530    0.9300   20.4830 C   0  0  0  0  0  0  0  0  0  0  0  0
    6.2500    0.1630   20.6550 C   0  0  0  0  0  0  0  0  0  0  0  0
    6.9370   -0.2640   19.3660 C   0  0  0  0  0  0  0  0  0  0  0  0
    9.6870   -1.5830   22.0210 C   0  0  0  0  0  0  0  0  0  0  0  0
   10.9710   -1.7410   22.4440 C   0  0  0  0  0  0  0  0  0  0  0  0
   11.2810   -1.8930   23.8100 C   0  0  0  0  0  0  0  0  0  0  0  0
   10.2470   -1.8910   24.7660 C   0  0  0  0  0  0  0  0  0  0  0  0
    8.9790   -1.7270   24.2730 C   0  0  0  0  0  0  0  0  0  0  0  0
    8.6780   -1.5740   22.9490 C   0  0  0  0  0  0  0  0  0  0  0  0
    9.8780    3.1010   23.5860 C   0  0  0  0  0  0  0  0  0  0  0  0
   10.6690    4.2380   23.7310 C   0  0  0  0  0  0  0  0  0  0  0  0
   10.1450    5.4990   23.4270 C   0  0  0  0  0  0  0  0  0  0  0  0
    8.8240    5.5110   22.9750 C   0  0  0  0  0  0  0  0  0  0  0  0
    8.0130    4.3780   22.8320 C   0  0  0  0  0  0  0  0  0  0  0  0
    8.5650    3.1390   23.1570 C   0  0  0  0  0  0  0  0  0  0  0  0
    5.9140   -4.0500   21.4120 N   0  0  0  0  0  0  0  0  0  0  0  0
    6.5480   -5.1560   22.1760 C   0  0  0  0  0  0  0  0  0  0  0  0
    6.5830   -4.8520   23.5520 C   0  0  0  0  0  0  0  0  0  0  0  0
    6.9360   -3.5190   23.8690 C   0  0  1  0  0  0  0  0  0  0  0  0
    6.8010   -2.7120   22.7130 C   0  0  1  0  0  0  0  0  0  0  0  0
    5.6250   -2.8910   22.1740 C   0  0  0  0  0  0  0  0  0  0  0  0
    8.0010   -4.1780   26.4980 C   0  0  0  0  0  0  0  0  0  0  0  0
    7.8220   -5.4580   27.3150 C   0  0  0  0  0  0  0  0  0  0  0  0
    7.1920   -5.1850   28.6690 C   0  0  0  0  0  0  0  0  0  0  0  0
    5.8630   -4.4690   28.5000 C   0  0  0  0  0  0  0  0  0  0  0  0
    5.9830   -3.2200   27.6460 C   0  0  0  0  0  0  0  0  0  0  0  0
    6.7290   -3.4100   26.4080 N   0  0  0  0  0  0  0  0  0  0  0  0
  1  4  1  0
  2  5  1  0
  3  5  2  0
  4  5  1  6
  7  8  1  0
  7  9  1  0
  7 10  1  0
 11 13  1  0
 14 16  1  0
 15 16  2  0
 17 18  2  0
 19 20  2  0
 20 21  1  0
 21 22  2  0
  4 23  1  0
 22 23  1  0
 19 24  1  0
 23 24  2  0
 25 26  2  0
  7 27  1  0
 26 27  1  0
 27 28  2  0
 28 29  1  0
  1 30  1  0
 25 30  1  0
 29 30  2  0
 12 31  1  0
 31 32  2  0
 11 33  1  0
 32 33  1  0
  6 34  1  0
 33 34  2  0
 34 35  1  0
  2 36  1  0
 31 36  1  0
 35 36  2  0
 16 37  1  0
 37 38  1  0
 38 39  1  0
 40 18  1  1
 39 40  1  0
 41  1  1  1
 40 41  1  0
 37 42  1  0
 41 42  1  0
 43 44  1  0
 44 45  1  0
 45 46  1  0
 46 47  1  0
 18 48  1  0
 43 48  1  0
 47 48  1  0
M  END
