x1382-x0820
     RDKit          3D

 27 30  0  0  0  0  0  0  0  0999 V2000
   13.3160   -2.0330   21.1330 Cl  0  0  0  0  0  0  0  0  0  0  0  0
    7.2370   -0.4620   22.2790 C   0  0  0  0  0  0  0  0  0  0  0  0
    8.0830   -1.7130   22.5880 C   0  0  1  0  0  0  0  0  0  0  0  0
    7.7290   -2.8410   21.8030 N   0  0  0  0  0  0  0  0  0  0  0  0
    7.0610   -2.7790   20.4280 C   0  0  0  0  0  0  0  0  0  0  0  0
    6.6530   -3.0480   19.2340 O   0  0  0  0  0  0  0  0  0  0  0  0
    7.8580   -4.0850   20.4970 C   0  0  0  0  0  0  0  0  0  0  0  0
    7.7510   -5.4390   22.3260 N   0  0  0  0  0  0  0  0  0  0  0  0
    5.6110   -4.7690   21.4440 O   0  0  0  0  0  0  0  0  0  0  0  0
    7.6220   -4.0320   22.7590 C   0  0  2  0  0  0  0  0  0  0  0  0
    7.0390   -4.7680   21.4850 C   0  0  0  0  0  0  0  0  0  0  0  0
    9.5530   -1.3040   22.7310 C   0  0  0  0  0  0  0  0  0  0  0  0
   10.6420   -1.9190   21.8610 C   0  0  0  0  0  0  0  0  0  0  0  0
   12.0670   -1.4280   22.0660 C   0  0  0  0  0  0  0  0  0  0  0  0
   12.3030   -0.3590   23.1430 C   0  0  0  0  0  0  0  0  0  0  0  0
   11.2200    0.1020   23.8650 C   0  0  0  0  0  0  0  0  0  0  0  0
    9.9020   -0.3230   23.6970 C   0  0  0  0  0  0  0  0  0  0  0  0
    6.5500   -4.0960   23.8700 C   0  0  0  0  0  0  0  0  0  0  0  0
    6.9570   -4.2190   25.2320 C   0  0  0  0  0  0  0  0  0  0  0  0
    5.9990   -4.2970   26.2740 C   0  0  0  0  0  0  0  0  0  0  0  0
    4.6350   -4.2550   25.9800 C   0  0  0  0  0  0  0  0  0  0  0  0
    4.1040   -4.1230   24.5600 C   0  0  0  0  0  0  0  0  0  0  0  0
    5.1970   -4.0430   23.4990 C   0  0  0  0  0  0  0  0  0  0  0  0
    6.3650   -4.4200   27.6120 C   0  0  0  0  0  0  0  0  0  0  0  0
    7.8330   -4.4720   27.9780 C   0  0  0  0  0  0  0  0  0  0  0  0
    8.7500   -4.3930   26.9400 C   0  0  0  0  0  0  0  0  0  0  0  0
    8.3190   -4.2700   25.6110 C   0  0  0  0  0  0  0  0  0  0  0  0
  3  2  1  6
  3  4  1  0
  4  5  1  0
  5  6  2  0
  5  7  1  0
  4 10  1  0
  8 10  1  0
  7 11  1  0
  8 11  1  0
  9 11  2  0
  3 12  1  0
 12 13  2  0
  1 14  1  0
 13 14  1  0
 14 15  2  0
 15 16  1  0
 12 17  1  0
 16 17  2  0
 10 18  1  6
 18 19  2  0
 19 20  1  0
 20 21  2  0
 21 22  1  0
 18 23  1  0
 22 23  2  0
 20 24  1  0
 24 25  2  0
 25 26  1  0
 19 27  1  0
 26 27  2  0
M  END
