x1384-x1493
     RDKit          3D

 18 20  0  0  0  0  0  0  0  0999 V2000
    6.0900   -3.2220   21.7690 N   0  0  0  0  0  0  0  0  0  0  0  0
    8.0530   -3.7040   20.4640 C   0  0  0  0  0  0  0  0  0  0  0  0
    5.7080   -3.9920   19.6790 O   0  0  0  0  0  0  0  0  0  0  0  0
    6.5300   -3.6730   20.5470 C   0  0  0  0  0  0  0  0  0  0  0  0
    5.3630   -2.0790   26.2620 O   0  0  0  0  0  0  0  0  0  0  0  0
    5.4210   -6.0010   26.1260 C   0  0  0  0  0  0  0  0  0  0  0  0
    7.9690   -5.6800   26.4630 O   0  0  0  0  0  0  0  0  0  0  0  0
    6.8080   -5.6310   25.6690 C   0  0  0  0  0  0  0  0  0  0  0  0
    3.8550   -3.6860   23.9120 C   0  0  2  0  0  0  0  0  0  0  0  0
    5.3110   -3.3710   24.0690 C   0  0  1  0  0  0  0  0  0  0  0  0
    4.7580   -4.0000   25.1940 C   0  0  2  0  0  0  0  0  0  0  0  0
    4.4170   -5.3670   25.4600 C   0  0  1  0  0  0  0  0  0  0  0  0
    4.0810   -5.9430   24.2470 C   0  0  0  0  0  0  0  0  0  0  0  0
    3.7260   -4.9700   23.3590 C   0  0  0  0  0  0  0  0  0  0  0  0
    4.4870   -3.1140   26.3030 C   0  0  2  0  0  0  0  0  0  0  0  0
    3.1990   -2.7520   26.0970 C   0  0  0  0  0  0  0  0  0  0  0  0
    2.7360   -3.0220   24.8460 C   0  0  0  0  0  0  0  0  0  0  0  0
    6.1970   -4.0120   23.0020 C   0  0  0  0  0  0  0  0  0  0  0  0
  1  4  1  0
  2  4  1  0
  3  4  2  0
  6  8  1  0
  7  8  2  0
  9 10  1  0
 11  9  1  0
 10 11  1  0
 12  6  1  6
 11 12  1  1
 12 13  1  0
  9 14  1  6
 13 14  2  0
 15  5  1  6
 11 15  1  0
 15 16  1  0
  9 17  1  0
 16 17  2  0
  1 18  1  0
 10 18  1  6
M  END
