x1382-x2779
     RDKit          3D

 18 19  0  0  0  0  0  0  0  0999 V2000
   13.3910   -2.1090   21.0440 Cl  0  0  0  0  0  0  0  0  0  0  0  0
    7.5920   -0.8670   23.3010 C   0  0  0  0  0  0  0  0  0  0  0  0
    6.9730   -0.8930   20.5020 O   0  0  0  0  0  0  0  0  0  0  0  0
    7.4380   -2.8350   19.2970 C   0  0  0  0  0  0  0  0  0  0  0  0
    5.5500   -4.2850   19.7930 O   0  0  0  0  0  0  0  0  0  0  0  0
    6.0220   -3.3420   19.1500 C   0  0  0  0  0  0  0  0  0  0  0  0
    9.8940   -1.2990   23.0020 C   0  0  0  0  0  0  0  0  0  0  0  0
   10.9690   -1.8640   22.1050 C   0  0  0  0  0  0  0  0  0  0  0  0
   12.3750   -1.3710   22.1290 C   0  0  0  0  0  0  0  0  0  0  0  0
   12.7700   -0.2580   23.0940 C   0  0  0  0  0  0  0  0  0  0  0  0
   11.7010    0.3140   24.0040 C   0  0  0  0  0  0  0  0  0  0  0  0
   10.2680   -0.1860   23.9820 C   0  0  0  0  0  0  0  0  0  0  0  0
    6.5260   -2.7200   21.6210 N   0  0  0  0  0  0  0  0  0  0  0  0
    7.5220   -2.2010   20.7070 C   0  0  2  0  0  0  0  0  0  0  0  0
    8.7050   -1.9990   21.3890 C   0  0  0  0  0  0  0  0  0  0  0  0
    8.5600   -1.9160   22.7600 C   0  0  2  0  0  0  0  0  0  0  0  0
    8.1730   -3.1330   23.2920 C   0  0  0  0  0  0  0  0  0  0  0  0
    7.0950   -3.7150   22.5820 C   0  0  0  0  0  0  0  0  0  0  0  0
  4  6  1  0
  5  6  2  0
  7  8  2  0
  1  9  1  0
  8  9  1  0
  9 10  2  0
 10 11  1  0
  7 12  1  0
 11 12  2  0
 14  3  1  6
  4 14  1  0
 13 14  1  0
 14 15  1  0
 16  2  1  6
  7 16  1  0
 15 16  1  0
 16 17  1  0
 13 18  1  0
 17 18  1  0
M  END
