x1382-x1358
     RDKit          3D

 31 34  0  0  0  0  0  0  0  0999 V2000
    6.7350   -2.5190   26.0310 N   0  0  0  0  0  0  0  0  0  0  0  0
    5.4860   -0.1610   25.3450 O   0  0  0  0  0  0  0  0  0  0  0  0
    4.6150   -3.6600   26.0960 O   0  0  0  0  0  0  0  0  0  0  0  0
    5.4590   -4.4020   19.8910 O   0  0  0  0  0  0  0  0  0  0  0  0
    5.6090   -3.3000   25.4870 C   0  0  0  0  0  0  0  0  0  0  0  0
    6.5370   -3.9390   20.3050 C   0  0  0  0  0  0  0  0  0  0  0  0
    7.4090   -3.1640   19.3190 C   0  0  0  0  0  0  0  0  0  0  0  0
   13.4480   -1.5930   21.4980 Cl  0  0  0  0  0  0  0  0  0  0  0  0
    7.6350   -1.0990   21.8260 C   0  0  0  0  0  0  0  0  0  0  0  0
    8.6370   -2.2670   22.0050 C   0  0  2  0  0  0  0  0  0  0  0  0
    8.3610   -3.2250   21.1760 N   0  0  0  0  0  0  0  0  0  0  0  0
    8.0110   -2.2720   20.3340 C   0  0  0  0  0  0  0  0  0  0  0  0
    8.1600   -1.0370   20.3980 O   0  0  0  0  0  0  0  0  0  0  0  0
    6.0330   -0.1290   26.6630 C   0  0  0  0  0  0  0  0  0  0  0  0
    6.7210   -1.4430   27.0370 C   0  0  0  0  0  0  0  0  0  0  0  0
    7.3540   -1.5870   28.4090 C   0  0  0  0  0  0  0  0  0  0  0  0
    7.2120   -0.3130   29.2790 C   0  0  0  0  0  0  0  0  0  0  0  0
    6.5480    0.8320   28.7910 C   0  0  0  0  0  0  0  0  0  0  0  0
    5.9650    0.9560   27.5330 C   0  0  0  0  0  0  0  0  0  0  0  0
    7.0130   -4.1900   21.6810 N   0  0  0  0  0  0  0  0  0  0  0  0
    7.6900   -3.2320   22.6930 C   0  0  2  0  0  0  0  0  0  0  0  0
    6.6160   -2.7200   23.3820 C   0  0  0  0  0  0  0  0  0  0  0  0
    5.7810   -3.6350   24.0200 C   0  0  1  0  0  0  0  0  0  0  0  0
    6.0920   -4.9820   23.7390 C   0  0  0  0  0  0  0  0  0  0  0  0
    6.4540   -5.2320   22.2790 C   0  0  0  0  0  0  0  0  0  0  0  0
    9.6560   -1.5640   22.7110 C   0  0  0  0  0  0  0  0  0  0  0  0
   10.9220   -1.8350   21.9640 C   0  0  0  0  0  0  0  0  0  0  0  0
   12.1530   -1.1900   22.4670 C   0  0  0  0  0  0  0  0  0  0  0  0
   12.1160   -0.3840   23.5840 C   0  0  0  0  0  0  0  0  0  0  0  0
   10.8980   -0.1690   24.2550 C   0  0  0  0  0  0  0  0  0  0  0  0
    9.6620   -0.7430   23.8410 C   0  0  0  0  0  0  0  0  0  0  0  0
  1  5  1  0
  3  5  2  0
  4  6  2  0
  6  7  1  0
 10  9  1  6
 10 11  1  0
  7 12  1  0
 11 12  1  0
 12 13  2  0
  2 14  1  0
  1 15  1  0
 14 15  2  0
 15 16  1  0
 16 17  2  0
 17 18  1  0
 14 19  1  0
 18 19  2  0
  6 20  1  0
 10 21  1  0
 20 21  1  0
 21 22  1  6
 23  5  1  1
 22 23  1  0
 23 24  1  0
 20 25  1  0
 24 25  1  0
 10 26  1  0
 26 27  2  0
  8 28  1  0
 27 28  1  0
 28 29  2  0
 29 30  1  0
 26 31  1  0
 30 31  2  0
M  END
