x1380-x2572
     RDKit          3D

 37 40  0  0  0  0  0  0  0  0999 V2000
    4.7300    1.2350   21.6950 C   0  0  0  0  0  0  0  0  0  0  0  0
    8.9250    0.8170   21.5460 O   0  0  0  0  0  0  0  0  0  0  0  0
    6.9240   -0.5010   21.2600 N   0  0  0  0  0  0  0  0  0  0  0  0
   13.6050   -3.2730   20.6010 N   0  0  0  0  0  0  0  0  0  0  0  0
    8.1570   -0.0600   21.9490 C   0  0  0  0  0  0  0  0  0  0  0  0
    8.6200   -0.6610   23.2950 C   0  0  1  0  0  0  0  0  0  0  0  0
   13.0440   -2.2470   21.3580 C   0  0  0  0  0  0  0  0  0  0  0  0
    6.9530   -3.2910   19.3220 C   0  0  0  0  0  0  0  0  0  0  0  0
    5.2240   -4.8240   19.9350 O   0  0  0  0  0  0  0  0  0  0  0  0
    6.1610   -4.1420   20.3050 C   0  0  0  0  0  0  0  0  0  0  0  0
    4.9010   -2.2130   25.4760 O   0  0  0  0  0  0  0  0  0  0  0  0
    5.9280   -3.1770   25.3150 C   0  0  0  0  0  0  0  0  0  0  0  0
    8.3260   -1.9750   23.7380 C   0  0  0  0  0  0  0  0  0  0  0  0
    6.3480    0.5060   17.6870 N   0  0  0  0  0  0  0  0  0  0  0  0
    6.8570   -0.0800   18.7890 C   0  0  0  0  0  0  0  0  0  0  0  0
    6.3620    0.1330   20.0700 C   0  0  0  0  0  0  0  0  0  0  0  0
    5.2840    0.9760   20.3330 C   0  0  0  0  0  0  0  0  0  0  0  0
    4.6870    1.6220   19.2580 C   0  0  0  0  0  0  0  0  0  0  0  0
    5.3080    1.3200   17.9140 C   0  0  0  0  0  0  0  0  0  0  0  0
   10.7240    0.6120   23.7990 C   0  0  0  0  0  0  0  0  0  0  0  0
   12.1870    0.8380   23.6610 C   0  0  0  0  0  0  0  0  0  0  0  0
   13.0400   -0.0760   22.8540 C   0  0  0  0  0  0  0  0  0  0  0  0
   12.3520   -1.2410   22.1870 C   0  0  0  0  0  0  0  0  0  0  0  0
   10.8320   -1.3900   22.3820 C   0  0  0  0  0  0  0  0  0  0  0  0
   10.1150   -0.4660   23.1660 C   0  0  0  0  0  0  0  0  0  0  0  0
    6.5620   -4.1500   21.6310 N   0  0  0  0  0  0  0  0  0  0  0  0
    6.5670   -5.2790   22.3390 C   0  0  0  0  0  0  0  0  0  0  0  0
    6.9170   -4.8910   23.6650 C   0  0  0  0  0  0  0  0  0  0  0  0
    6.3270   -3.6470   23.9380 C   0  0  2  0  0  0  0  0  0  0  0  0
    6.9740   -2.5920   23.2340 C   0  0  2  0  0  0  0  0  0  0  0  0
    7.4600   -3.0820   22.0530 C   0  0  0  0  0  0  0  0  0  0  0  0
    7.9250   -4.1390   26.5380 C   0  0  0  0  0  0  0  0  0  0  0  0
    7.9700   -5.3060   27.3110 C   0  0  0  0  0  0  0  0  0  0  0  0
    7.3670   -5.0780   28.5370 C   0  0  0  0  0  0  0  0  0  0  0  0
    6.0090   -4.7500   28.4550 C   0  0  0  0  0  0  0  0  0  0  0  0
    5.8290   -3.5610   27.7470 C   0  0  0  0  0  0  0  0  0  0  0  0
    6.5370   -3.7070   26.4390 N   0  0  0  0  0  0  0  0  0  0  0  0
  2  5  2  0
  3  5  1  0
  5  6  1  0
  4  7  3  0
  8 10  1  0
  9 10  2  0
 11 12  2  0
  6 13  1  6
 14 15  2  0
  3 16  1  0
 15 16  1  0
  1 17  1  0
 16 17  2  0
 17 18  1  0
 14 19  1  0
 18 19  2  0
 20 21  2  0
 21 22  1  0
  7 23  1  0
 22 23  2  0
 23 24  1  0
  6 25  1  0
 20 25  1  0
 24 25  2  0
 10 26  1  0
 26 27  1  0
 27 28  1  0
 29 12  1  1
 28 29  1  0
 30 13  1  1
 29 30  1  0
 26 31  1  0
 30 31  1  0
 32 33  1  0
 33 34  1  0
 34 35  1  0
 35 36  1  0
 12 37  1  0
 32 37  1  0
 36 37  1  0
M  END
