x1385-x0734
     RDKit          3D

 21 22  0  0  0  0  0  0  0  0999 V2000
    5.1090   -4.6900   25.4660 N   0  0  0  0  0  0  0  0  0  0  0  0
    4.4600   -5.6830   25.1160 O   0  0  0  0  0  0  0  0  0  0  0  0
    4.5570   -3.6560   25.8760 O   0  0  0  0  0  0  0  0  0  0  0  0
    5.1010   -4.1610   19.6700 O   0  0  0  0  0  0  0  0  0  0  0  0
    6.2150   -3.7840   19.9590 C   0  0  0  0  0  0  0  0  0  0  0  0
    7.1520   -3.1030   18.9600 C   0  0  0  0  0  0  0  0  0  0  0  0
    6.9450   -5.9150   28.9780 Br  0  0  0  0  0  0  0  0  0  0  0  0
    6.3060   -5.0080   26.2170 C   0  0  0  0  0  0  0  0  0  0  0  0
    7.3190   -4.7540   25.1030 C   0  0  0  0  0  0  0  0  0  0  0  0
    8.8180   -4.8930   25.2500 C   0  0  0  0  0  0  0  0  0  0  0  0
    9.2900   -5.3340   26.6280 C   0  0  0  0  0  0  0  0  0  0  0  0
    8.4310   -5.6570   27.8550 C   0  0  0  0  0  0  0  0  0  0  0  0
    6.9990   -5.4060   27.3610 C   0  0  0  0  0  0  0  0  0  0  0  0
    6.7230   -4.0170   21.2250 N   0  0  0  0  0  0  0  0  0  0  0  0
    6.4720   -5.3250   21.8080 C   0  0  0  0  0  0  0  0  0  0  0  0
    5.9330   -5.0840   23.1980 C   0  0  0  0  0  0  0  0  0  0  0  0
    6.9150   -4.3810   23.8610 N   0  0  0  0  0  0  0  0  0  0  0  0
    7.2370   -3.1710   23.3210 C   0  0  2  0  0  0  0  0  0  0  0  0
    7.6310   -3.1450   21.9950 C   0  0  0  0  0  0  0  0  0  0  0  0
    9.6370   -2.8090   23.8000 C   0  0  0  0  0  0  0  0  0  0  0  0
    8.3120   -2.5210   24.1680 C   0  0  0  0  0  0  0  0  0  0  0  0
  1  2  2  0
  1  3  1  0
  4  5  2  0
  5  6  1  0
  1  8  1  0
  8  9  2  0
  9 10  1  0
 10 11  2  0
  7 12  1  0
 11 12  1  0
  8 13  1  0
 12 13  2  0
  5 14  1  0
 14 15  1  0
 15 16  1  0
  9 17  1  0
 16 17  1  0
 17 18  1  0
 14 19  1  0
 18 19  1  0
 18 21  1  1
 20 21  1  0
M  CHG  2   1   1   3  -1
M  END
