x1380-x1093
     RDKit          3D

 37 41  0  0  0  0  0  0  0  0999 V2000
    7.3070   -3.2720   19.2720 C   0  0  0  0  0  0  0  0  0  0  0  0
    5.3290   -4.4660   19.8670 O   0  0  0  0  0  0  0  0  0  0  0  0
    6.4470   -4.0910   20.2160 C   0  0  0  0  0  0  0  0  0  0  0  0
    5.2190   -2.2630   25.2820 O   0  0  0  0  0  0  0  0  0  0  0  0
    6.1700   -3.0470   25.3200 C   0  0  0  0  0  0  0  0  0  0  0  0
   13.4750   -1.4620   23.6240 C   0  0  0  0  0  0  0  0  0  0  0  0
    8.6690    1.1440   21.3540 O   0  0  0  0  0  0  0  0  0  0  0  0
    8.7630   -0.0300   21.7240 C   0  0  0  0  0  0  0  0  0  0  0  0
    7.7250   -1.1090   21.3170 C   0  0  1  0  0  0  0  0  0  0  0  0
    6.8470   -1.7420   22.2780 C   0  0  0  0  0  0  0  0  0  0  0  0
    6.9540   -4.4900   21.4360 N   0  0  0  0  0  0  0  0  0  0  0  0
    5.9600   -5.1260   22.2910 C   0  0  0  0  0  0  0  0  0  0  0  0
    5.5790   -4.4060   23.3770 C   0  0  0  0  0  0  0  0  0  0  0  0
    6.6240   -3.7270   24.0000 C   0  0  1  0  0  0  0  0  0  0  0  0
    7.4710   -2.9500   23.1160 C   0  0  1  0  0  0  0  0  0  0  0  0
    8.0400   -3.8260   22.1980 C   0  0  0  0  0  0  0  0  0  0  0  0
    8.0930   -4.0830   26.6410 C   0  0  0  0  0  0  0  0  0  0  0  0
    7.8260   -5.4490   27.3080 C   0  0  0  0  0  0  0  0  0  0  0  0
    7.1250   -5.2290   28.6260 C   0  0  0  0  0  0  0  0  0  0  0  0
    5.8160   -4.4470   28.4970 C   0  0  0  0  0  0  0  0  0  0  0  0
    6.0220   -3.1160   27.7780 C   0  0  0  0  0  0  0  0  0  0  0  0
    6.7970   -3.3450   26.5350 N   0  0  0  0  0  0  0  0  0  0  0  0
   12.1520   -1.2040   23.5950 N   0  0  0  0  0  0  0  0  0  0  0  0
   11.9240    0.1210   23.4500 C   0  0  0  0  0  0  0  0  0  0  0  0
   10.6130    0.5580   23.2950 C   0  0  0  0  0  0  0  0  0  0  0  0
    9.8230   -0.4280   22.5070 N   0  0  0  0  0  0  0  0  0  0  0  0
    9.9350   -1.6340   23.0660 C   0  0  0  0  0  0  0  0  0  0  0  0
   11.2850   -1.9830   22.9670 C   0  0  0  0  0  0  0  0  0  0  0  0
    6.2690    0.1550   18.0550 N   0  0  0  0  0  0  0  0  0  0  0  0
    7.2760   -0.6810   18.7510 C   0  0  0  0  0  0  0  0  0  0  0  0
    6.9740   -0.4800   20.1070 C   0  0  0  0  0  0  0  0  0  0  0  0
    5.9100    0.3670   20.2530 C   0  0  0  0  0  0  0  0  0  0  0  0
    5.5120    0.7300   18.9990 C   0  0  0  0  0  0  0  0  0  0  0  0
    4.4210    1.6180   18.6540 N   0  0  0  0  0  0  0  0  0  0  0  0
    3.7920    2.0810   19.7350 C   0  0  0  0  0  0  0  0  0  0  0  0
    4.1270    1.7660   21.0520 C   0  0  0  0  0  0  0  0  0  0  0  0
    5.1920    0.9050   21.3260 C   0  0  0  0  0  0  0  0  0  0  0  0
  1  3  1  0
  2  3  2  0
  4  5  2  0
  7  8  2  0
  8  9  1  0
  9 10  1  1
  3 11  1  0
 11 12  1  0
 12 13  1  0
 14  5  1  1
 13 14  1  0
 15 10  1  6
 14 15  1  0
 11 16  1  0
 15 16  1  0
 17 18  1  0
 18 19  1  0
 19 20  1  0
 20 21  1  0
  5 22  1  0
 17 22  1  0
 21 22  1  0
  6 23  1  0
 23 24  1  0
 24 25  1  0
  8 26  1  0
 25 26  1  0
 26 27  1  0
 23 28  1  0
 27 28  1  0
 29 30  1  0
  9 31  1  0
 30 31  2  0
 31 32  1  0
 29 33  1  0
 32 33  2  0
 33 34  1  0
 34 35  2  0
 35 36  1  0
 32 37  1  0
 36 37  2  0
M  END
