x1384-x1311
     RDKit          3D

 24 26  0  0  0  0  0  0  0  0999 V2000
    5.7200   -4.4060   19.9380 O   0  0  0  0  0  0  0  0  0  0  0  0
    6.5610   -4.3970   20.8720 C   0  0  0  0  0  0  0  0  0  0  0  0
    8.0830   -4.1420   20.7230 C   0  0  0  0  0  0  0  0  0  0  0  0
    6.1970   -4.6430   22.2060 N   0  0  0  0  0  0  0  0  0  0  0  0
    4.1430   -6.7570   25.7780 O   0  0  0  0  0  0  0  0  0  0  0  0
    2.2930   -5.6000   24.4590 O   0  0  0  0  0  0  0  0  0  0  0  0
    8.0780   -5.8990   23.0710 C   0  0  0  0  0  0  0  0  0  0  0  0
    9.2190   -6.1430   24.0050 C   0  0  0  0  0  0  0  0  0  0  0  0
    9.4510   -5.1110   25.0220 C   0  0  0  0  0  0  0  0  0  0  0  0
    8.5760   -3.8950   25.0810 C   0  0  0  0  0  0  0  0  0  0  0  0
    7.5240   -3.7670   24.1490 C   0  0  0  0  0  0  0  0  0  0  0  0
    7.2850   -4.7680   23.1600 C   0  0  0  0  0  0  0  0  0  0  0  0
    4.6850   -6.4010   22.2730 C   0  0  0  0  0  0  0  0  0  0  0  0
    4.8730   -5.0590   22.6780 C   0  0  1  0  0  0  0  0  0  0  0  0
    4.8140   -4.8370   24.0810 C   0  0  2  0  0  0  0  0  0  0  0  0
    3.6510   -6.0610   24.6080 S   0  0  0  0  0  0  0  0  0  0  0  0
    3.8970   -7.0710   23.3850 C   0  0  0  0  0  0  0  0  0  0  0  0
    5.2940   -1.7130   26.0160 O   0  0  0  0  0  0  0  0  0  0  0  0
    2.2510   -3.5160   25.8130 C   0  0  0  0  0  0  0  0  0  0  0  0
    3.7480   -3.5650   25.7650 N   0  0  0  0  0  0  0  0  0  0  0  0
    4.3750   -2.6060   26.6820 C   0  0  2  0  0  0  0  0  0  0  0  0
    3.2430   -1.7630   27.2680 C   0  0  0  0  0  0  0  0  0  0  0  0
    1.9020   -2.3230   26.7000 C   0  0  0  0  0  0  0  0  0  0  0  0
    4.3550   -3.6390   24.4190 C   0  0  0  0  0  0  0  0  0  0  0  0
  1  2  2  0
  2  3  1  0
  2  4  1  0
  7  8  2  0
  8  9  1  0
  9 10  2  0
 10 11  1  0
  4 12  1  0
  7 12  1  0
 11 12  2  0
 14  4  1  1
 13 14  1  0
 14 15  1  0
 16  5  1  0
  6 16  1  0
 15 16  1  0
 13 17  2  0
 16 17  1  0
 19 20  1  0
 21 18  1  6
 20 21  1  0
 21 22  1  0
 19 23  1  0
 22 23  1  0
 15 24  1  6
 20 24  1  0
M  END
