x1384-x2193
     RDKit          3D

 33 37  0  0  0  0  0  0  0  0999 V2000
    6.3210   -2.8990   21.4070 N   0  0  0  0  0  0  0  0  0  0  0  0
    7.5720   -3.1080   19.2870 C   0  0  0  0  0  0  0  0  0  0  0  0
    5.7750   -4.5800   19.9630 O   0  0  0  0  0  0  0  0  0  0  0  0
    6.4990   -3.6180   20.2430 C   0  0  0  0  0  0  0  0  0  0  0  0
   11.2830    2.3680   23.2350 C   0  0  0  0  0  0  0  0  0  0  0  0
    9.4510    1.9180   21.3530 O   0  0  0  0  0  0  0  0  0  0  0  0
    8.8640    2.6690   23.6680 O   0  0  0  0  0  0  0  0  0  0  0  0
    9.6850    1.8920   22.7780 S   0  0  0  0  0  0  0  0  0  0  0  0
    6.9690   -2.9900   22.6520 C   0  0  2  0  0  0  0  0  0  0  0  0
    7.8100   -4.1230   23.1500 C   0  0  0  0  0  0  0  0  0  0  0  0
    9.4770    0.2190   23.2860 C   0  0  0  0  0  0  0  0  0  0  0  0
    9.1180   -0.0690   24.6120 C   0  0  0  0  0  0  0  0  0  0  0  0
    8.8900   -1.4030   25.0080 C   0  0  0  0  0  0  0  0  0  0  0  0
    9.0290   -2.4220   24.0600 C   0  0  0  0  0  0  0  0  0  0  0  0
    9.4250   -2.1390   22.7440 C   0  0  0  0  0  0  0  0  0  0  0  0
    9.6490   -0.8130   22.3570 C   0  0  0  0  0  0  0  0  0  0  0  0
    9.3670   -6.0570   25.7230 N   0  0  0  0  0  0  0  0  0  0  0  0
    8.3360   -5.2590   26.4000 C   0  0  0  0  0  0  0  0  0  0  0  0
    8.1210   -4.0090   25.7780 C   0  0  0  0  0  0  0  0  0  0  0  0
    8.7440   -3.7410   24.3890 C   0  0  0  0  0  0  0  0  0  0  0  0
    9.9120   -4.6130   24.0980 C   0  0  0  0  0  0  0  0  0  0  0  0
    9.3820   -6.0540   24.2750 C   0  0  0  0  0  0  0  0  0  0  0  0
    4.1070   -1.6870   24.7940 O   0  0  0  0  0  0  0  0  0  0  0  0
    5.1210   -4.5530   24.7210 C   0  0  1  0  0  0  0  0  0  0  0  0
    5.0170   -3.7590   23.7030 C   0  0  1  0  0  0  0  0  0  0  0  0
    3.7910   -3.7580   24.1090 C   0  0  1  0  0  0  0  0  0  0  0  0
    2.9480   -4.8850   23.7900 C   0  0  0  0  0  0  0  0  0  0  0  0
    3.7260   -6.0310   23.6890 C   0  0  0  0  0  0  0  0  0  0  0  0
    4.9480   -5.8270   24.2210 C   0  0  0  0  0  0  0  0  0  0  0  0
    3.5240   -2.8840   25.1160 C   0  0  1  0  0  0  0  0  0  0  0  0
    4.0430   -3.3640   26.2370 C   0  0  0  0  0  0  0  0  0  0  0  0
    5.0340   -4.3680   26.2880 C   0  0  0  0  0  0  0  0  0  0  0  0
    5.8870   -2.6180   23.6500 C   0  0  0  0  0  0  0  0  0  0  0  0
  1  4  1  0
  2  4  1  0
  3  4  2  0
  8  5  1  0
  6  8  2  0
  7  8  2  0
  1  9  1  0
  9 10  1  1
  8 11  1  0
 11 12  2  0
 12 13  1  0
 13 14  2  0
 14 15  1  0
 11 16  1  0
 15 16  2  0
 17 18  1  0
 18 19  1  0
 20 10  1  0
 14 20  1  0
 19 20  1  0
 20 21  1  0
 17 22  1  0
 21 22  1  0
 24 25  1  0
 24 26  1  0
 25 26  1  0
 26 27  1  6
 27 28  1  0
 24 29  1  1
 28 29  2  0
 30 23  1  6
 26 30  1  0
 30 31  1  0
 24 32  1  0
 31 32  2  0
  9 33  1  0
 25 33  1  1
M  END
