x1380-x1077-x3113
     RDKit          3D

 50 55  0  0  0  0  0  0  0  0999 V2000
    7.2780   -1.1540   22.7380 N   0  0  0  0  0  0  0  0  0  0  0  0
    8.2930    1.7310   23.3660 N   0  0  0  0  0  0  0  0  0  0  0  0
    8.8450    1.6770   21.0050 O   0  0  0  0  0  0  0  0  0  0  0  0
   11.8900    4.1850   23.3430 O   0  0  0  0  0  0  0  0  0  0  0  0
    6.9350    0.1860   22.0260 C   0  0  1  0  0  0  0  0  0  0  0  0
    8.0640    1.2120   22.1060 C   0  0  0  0  0  0  0  0  0  0  0  0
    9.3540    2.7030   23.5140 C   0  0  0  0  0  0  0  0  0  0  0  0
   10.7840    2.0830   23.5020 C   0  0  0  0  0  0  0  0  0  0  0  0
   11.8440    3.0230   22.9740 C   0  0  0  0  0  0  0  0  0  0  0  0
   12.9100    4.7370   22.9420 C   0  0  0  0  0  0  0  0  0  0  0  0
   12.5880   -2.0080   24.2760 C   0  0  0  0  0  0  0  0  0  0  0  0
   13.5130   -2.1420   23.0890 C   0  0  0  0  0  0  0  0  0  0  0  0
   12.8560   -3.1100   25.3100 C   0  0  0  0  0  0  0  0  0  0  0  0
   12.8720   -0.6940   24.9640 C   0  0  0  0  0  0  0  0  0  0  0  0
    7.1780   -3.3140   19.3860 C   0  0  0  0  0  0  0  0  0  0  0  0
    5.1290   -4.5160   19.8240 O   0  0  0  0  0  0  0  0  0  0  0  0
    6.1960   -4.1420   20.2340 C   0  0  0  0  0  0  0  0  0  0  0  0
    5.0100   -4.6000   25.5250 O   0  0  0  0  0  0  0  0  0  0  0  0
    6.1060   -3.7090   25.2860 C   0  0  1  0  0  0  0  0  0  0  0  0
    6.4980    0.0040   18.1690 N   0  0  0  0  0  0  0  0  0  0  0  0
    5.3600    0.7170   18.0340 C   0  0  0  0  0  0  0  0  0  0  0  0
    4.6890    1.2570   19.1140 C   0  0  0  0  0  0  0  0  0  0  0  0
    5.1990    1.0690   20.3840 C   0  0  0  0  0  0  0  0  0  0  0  0
    6.3710    0.3480   20.5950 C   0  0  0  0  0  0  0  0  0  0  0  0
    6.9870   -0.1750   19.4420 C   0  0  0  0  0  0  0  0  0  0  0  0
    9.5840   -1.5040   22.0040 C   0  0  0  0  0  0  0  0  0  0  0  0
   10.9030   -1.7300   22.4080 C   0  0  0  0  0  0  0  0  0  0  0  0
   11.1950   -1.8190   23.7890 C   0  0  0  0  0  0  0  0  0  0  0  0
   10.2170   -1.7030   24.7310 C   0  0  0  0  0  0  0  0  0  0  0  0
    8.9370   -1.4830   24.3380 C   0  0  0  0  0  0  0  0  0  0  0  0
    8.6050   -1.3750   22.9940 C   0  0  0  0  0  0  0  0  0  0  0  0
    7.0430   -5.7940   24.4350 O   0  0  0  0  0  0  0  0  0  0  0  0
    8.0940   -6.0550   23.5260 C   0  0  0  0  0  0  0  0  0  0  0  0
    9.2790   -5.9210   24.3210 C   0  0  0  0  0  0  0  0  0  0  0  0
    9.8420   -4.6190   24.3760 C   0  0  0  0  0  0  0  0  0  0  0  0
    9.6190   -4.0820   25.6940 N   0  0  0  0  0  0  0  0  0  0  0  0
    8.2600   -4.4580   26.0050 C   0  0  2  0  0  0  0  0  0  0  0  0
    7.3620   -4.5270   24.9730 C   0  0  2  0  0  0  0  0  0  0  0  0
    6.5730   -4.4640   21.5090 N   0  0  0  0  0  0  0  0  0  0  0  0
    5.6220   -5.0790   22.4330 C   0  0  0  0  0  0  0  0  0  0  0  0
    4.8890   -4.1530   23.1520 C   0  0  0  0  0  0  0  0  0  0  0  0
    5.6470   -3.0530   23.8960 C   0  0  2  0  0  0  0  0  0  0  0  0
    6.4960   -2.4010   22.7630 C   0  0  2  0  0  0  0  0  0  0  0  0
    7.3500   -3.4390   22.1130 C   0  0  0  0  0  0  0  0  0  0  0  0
    7.5460   -3.8600   27.1740 C   0  0  2  0  0  0  0  0  0  0  0  0
    7.3080   -4.8900   28.2810 C   0  0  0  0  0  0  0  0  0  0  0  0
    6.2560   -4.6300   29.1240 C   0  0  0  0  0  0  0  0  0  0  0  0
    5.0200   -4.3020   28.3420 C   0  0  0  0  0  0  0  0  0  0  0  0
    5.2710   -2.9790   27.5670 C   0  0  0  0  0  0  0  0  0  0  0  0
    6.3930   -3.0850   26.6040 N   0  0  0  0  0  0  0  0  0  0  0  0
  1  5  1  0
  2  6  1  0
  3  6  2  0
  5  6  1  6
  2  7  1  0
  7  8  1  0
  4  9  1  0
  8  9  1  0
  4 10  1  0
 11 12  1  0
 11 13  1  0
 11 14  1  0
 15 17  1  0
 16 17  2  0
 19 18  1  1
 20 21  2  0
 21 22  1  0
 22 23  2  0
  5 24  1  0
 23 24  1  0
 20 25  1  0
 24 25  2  0
 26 27  2  0
 11 28  1  0
 27 28  1  0
 28 29  2  0
 29 30  1  0
  1 31  1  0
 26 31  1  0
 30 31  2  0
 32 33  1  0
 33 34  1  0
 34 35  1  0
 35 36  1  0
 37 36  1  6
 19 38  1  0
 38 32  1  1
 37 38  1  0
 17 39  1  0
 39 40  1  0
 40 41  1  0
 19 42  1  0
 42 41  1  6
 43  1  1  1
 42 43  1  0
 39 44  1  0
 43 44  1  0
 37 45  1  0
 45 46  1  1
 46 47  1  0
 47 48  1  0
 48 49  1  0
 19 50  1  0
 45 50  1  0
 49 50  1  0
M  END
