x1384-x1478
     RDKit          3D

 16 18  0  0  0  0  0  0  0  0999 V2000
    6.7420   -4.3970   21.6710 N   0  0  0  0  0  0  0  0  0  0  0  0
    7.3920   -3.2550   19.5500 C   0  0  0  0  0  0  0  0  0  0  0  0
    5.3500   -4.4410   19.8720 O   0  0  0  0  0  0  0  0  0  0  0  0
    6.4090   -4.0750   20.3680 C   0  0  0  0  0  0  0  0  0  0  0  0
    3.9390   -2.3270   26.3880 O   0  0  0  0  0  0  0  0  0  0  0  0
    5.5710   -6.2680   22.6500 C   0  0  0  0  0  0  0  0  0  0  0  0
    5.3750   -3.0490   24.2720 C   0  0  1  0  0  0  0  0  0  0  0  0
    4.3400   -2.6340   23.4790 C   0  0  0  0  0  0  0  0  0  0  0  0
    3.8420   -3.6800   24.3370 C   0  0  1  0  0  0  0  0  0  0  0  0
    3.7040   -4.9870   23.8170 C   0  0  0  0  0  0  0  0  0  0  0  0
    5.0330   -5.2150   23.3660 C   0  0  0  0  0  0  0  0  0  0  0  0
    5.9180   -4.1870   23.6660 C   0  0  0  0  0  0  0  0  0  0  0  0
    3.7440   -3.4980   26.0340 C   0  0  1  0  0  0  0  0  0  0  0  0
    4.9430   -4.0350   25.9330 C   0  0  0  0  0  0  0  0  0  0  0  0
    4.3370   -2.9420   25.3310 C   0  0  0  0  0  0  0  0  0  0  0  0
    6.7600   -5.7820   22.0140 C   0  0  0  0  0  0  0  0  0  0  0  0
  1  4  1  0
  2  4  1  0
  3  4  2  0
  7  8  1  6
  7  9  1  0
  9  8  1  6
  9 10  1  0
  6 11  1  0
 10 11  1  0
  7 12  1  0
 11 12  2  0
 13  5  1  6
  9 13  1  0
 13 14  1  0
  7 15  1  0
 14 15  2  0
  1 16  1  0
  6 16  1  0
M  END
