x1386-x1334
     RDKit          3D

 21 23  0  0  0  0  0  0  0  0999 V2000
    7.3540   -2.9970   18.6980 C   0  0  0  0  0  0  0  0  0  0  0  0
    5.5010   -4.0520   19.7240 O   0  0  0  0  0  0  0  0  0  0  0  0
    7.6840   -5.5100   28.4750 Cl  0  0  0  0  0  0  0  0  0  0  0  0
    6.3980   -3.2100   19.8300 C   0  0  0  0  0  0  0  0  0  0  0  0
    9.2390   -2.9940   23.7330 C   0  0  2  0  0  0  0  0  0  0  0  0
    6.6200   -2.4340   20.9590 N   0  0  0  0  0  0  0  0  0  0  0  0
    7.6970   -1.3800   20.9910 C   0  0  0  0  0  0  0  0  0  0  0  0
    8.9580   -1.8160   21.8110 C   0  0  0  0  0  0  0  0  0  0  0  0
    8.5910   -2.4280   22.9870 N   0  0  0  0  0  0  0  0  0  0  0  0
    7.6300   -3.5310   22.7840 C   0  0  0  0  0  0  0  0  0  0  0  0
    6.3420   -2.9440   22.2850 C   0  0  0  0  0  0  0  0  0  0  0  0
    9.9870   -5.1150   25.2630 C   0  0  0  0  0  0  0  0  0  0  0  0
    9.1710   -3.8860   24.9390 C   0  0  0  0  0  0  0  0  0  0  0  0
    7.9790   -3.6210   26.1630 S   0  0  0  0  0  0  0  0  0  0  0  0
    8.4980   -5.0590   27.0430 C   0  0  0  0  0  0  0  0  0  0  0  0
    9.5520   -5.8080   26.5500 C   0  0  0  0  0  0  0  0  0  0  0  0
   11.5460   -2.0550   22.8380 C   0  0  0  0  0  0  0  0  0  0  0  0
   10.3720   -2.0330   23.8230 C   0  0  0  0  0  0  0  0  0  0  0  0
   10.5530   -0.9980   24.7310 C   0  0  0  0  0  0  0  0  0  0  0  0
   11.9990   -0.0980   24.4680 S   0  0  0  0  0  0  0  0  0  0  0  0
   12.4680   -1.0490   23.1110 C   0  0  0  0  0  0  0  0  0  0  0  0
  1  4  1  0
  2  4  2  0
  4  6  1  0
  6  7  1  0
  7  8  1  0
  5  9  1  0
  8  9  1  0
  9 10  1  0
  6 11  1  0
 10 11  1  0
  5 13  1  1
 12 13  2  0
 13 14  1  0
  3 15  1  0
 14 15  1  0
 12 16  1  0
 15 16  2  0
  5 18  1  0
 17 18  1  0
 18 19  2  0
 19 20  1  0
 17 21  2  0
 20 21  1  0
M  END
