x1380-x3115-x3113-x0981
     RDKit          3D

 58 62  0  0  0  0  0  0  0  0999 V2000
    7.5670   -1.6240   21.6960 N   0  0  0  0  0  0  0  0  0  0  0  0
    8.5720    1.2650   23.2100 N   0  0  0  0  0  0  0  0  0  0  0  0
    8.7500    1.5330   20.8050 O   0  0  0  0  0  0  0  0  0  0  0  0
   11.7540    4.1600   23.3080 O   0  0  0  0  0  0  0  0  0  0  0  0
    7.1260   -0.1740   21.6800 C   0  0  1  0  0  0  0  0  0  0  0  0
    8.1980    0.9000   21.8500 C   0  0  0  0  0  0  0  0  0  0  0  0
    8.7500    2.6450   23.2300 C   0  0  2  0  0  0  0  0  0  0  0  0
    9.9980    2.8450   23.8740 C   0  0  0  0  0  0  0  0  0  0  0  0
   11.1850    3.0780   23.1520 C   0  0  0  0  0  0  0  0  0  0  0  0
   12.8500    4.2770   22.7500 C   0  0  0  0  0  0  0  0  0  0  0  0
   12.7550   -2.0580   24.4610 C   0  0  0  0  0  0  0  0  0  0  0  0
   13.5160   -2.3180   23.3360 C   0  0  0  0  0  0  0  0  0  0  0  0
   13.0510   -3.1520   25.4850 C   0  0  0  0  0  0  0  0  0  0  0  0
   12.8900   -0.7020   25.0930 C   0  0  0  0  0  0  0  0  0  0  0  0
    9.0810    4.9340   22.9310 O   0  0  0  0  0  0  0  0  0  0  0  0
    8.2710    4.0980   23.3480 C   0  0  0  0  0  0  0  0  0  0  0  0
    8.5140    5.9280   22.4680 C   0  0  0  0  0  0  0  0  0  0  0  0
    1.2280   -8.8380   21.0690 C   0  0  0  0  0  0  0  0  0  0  0  0
    2.4980   -7.4970   22.7060 N   0  0  0  0  0  0  0  0  0  0  0  0
    0.3560   -6.9760   22.0340 O   0  0  0  0  0  0  0  0  0  0  0  0
    1.3060   -7.7450   21.9360 C   0  0  0  0  0  0  0  0  0  0  0  0
    2.3800   -8.4670   26.3460 N   0  0  0  0  0  0  0  0  0  0  0  0
    3.8770   -8.2670   24.7200 O   0  0  0  0  0  0  0  0  0  0  0  0
    2.6060   -6.2850   23.4520 C   0  0  1  0  0  0  0  0  0  0  0  0
    4.7890   -5.6870   22.0380 N   0  0  0  0  0  0  0  0  0  0  0  0
    4.3210   -4.7570   24.2430 N   0  0  0  0  0  0  0  0  0  0  0  0
    2.3950   -6.4590   24.8180 C   0  0  0  0  0  0  0  0  0  0  0  0
    2.9240   -7.7990   25.3060 C   0  0  0  0  0  0  0  0  0  0  0  0
    3.9120   -5.5650   23.2710 C   0  0  0  0  0  0  0  0  0  0  0  0
    7.0640   -3.1990   19.2840 C   0  0  0  0  0  0  0  0  0  0  0  0
    5.2420   -4.6320   19.9060 O   0  0  0  0  0  0  0  0  0  0  0  0
    6.2040   -3.9730   20.2770 C   0  0  0  0  0  0  0  0  0  0  0  0
    5.0630   -2.4600   25.7250 O   0  0  0  0  0  0  0  0  0  0  0  0
    6.0760   -3.1620   25.7690 C   0  0  0  0  0  0  0  0  0  0  0  0
    6.3270    0.1920   17.8940 N   0  0  0  0  0  0  0  0  0  0  0  0
    5.2430    1.0210   18.0110 C   0  0  0  0  0  0  0  0  0  0  0  0
    4.8240    1.4000   19.2880 C   0  0  0  0  0  0  0  0  0  0  0  0
    5.4570    0.9850   20.4710 C   0  0  0  0  0  0  0  0  0  0  0  0
    6.5370    0.1640   20.2780 C   0  0  0  0  0  0  0  0  0  0  0  0
    7.0510   -0.3020   18.9400 C   0  0  0  0  0  0  0  0  0  0  0  0
   10.1010   -1.1990   21.6890 C   0  0  0  0  0  0  0  0  0  0  0  0
   11.3870   -1.3460   22.4250 C   0  0  0  0  0  0  0  0  0  0  0  0
   11.4730   -1.9790   23.7810 C   0  0  0  0  0  0  0  0  0  0  0  0
   10.2200   -2.4960   24.4300 C   0  0  0  0  0  0  0  0  0  0  0  0
    8.9110   -2.3560   23.6940 C   0  0  0  0  0  0  0  0  0  0  0  0
    8.8230   -1.6990   22.2940 C   0  0  0  0  0  0  0  0  0  0  0  0
    6.5930   -3.9320   21.6270 N   0  0  0  0  0  0  0  0  0  0  0  0
    6.0240   -4.9820   22.4700 C   0  0  1  0  0  0  0  0  0  0  0  0
    5.5240   -4.1870   23.6180 C   0  0  2  0  0  0  0  0  0  0  0  0
    6.6190   -3.8420   24.5330 C   0  0  1  0  0  0  0  0  0  0  0  0
    7.3290   -2.8760   23.6370 C   0  0  0  0  0  0  0  0  0  0  0  0
    6.7660   -2.6390   22.3760 C   0  0  1  0  0  0  0  0  0  0  0  0
    7.9430   -4.2490   26.8330 C   0  0  0  0  0  0  0  0  0  0  0  0
    8.0990   -5.1710   28.0450 C   0  0  0  0  0  0  0  0  0  0  0  0
    6.9210   -5.6330   28.6490 C   0  0  0  0  0  0  0  0  0  0  0  0
    5.7270   -4.6880   28.6000 C   0  0  0  0  0  0  0  0  0  0  0  0
    6.0170   -3.4000   28.2020 C   0  0  0  0  0  0  0  0  0  0  0  0
    6.7540   -3.3820   26.9330 N   0  0  0  0  0  0  0  0  0  0  0  0
  1  5  1  0
  2  6  1  0
  3  6  2  0
  5  6  1  6
  2  7  1  0
  7  8  1  1
  4  9  1  0
  8  9  1  0
  4 10  1  0
 11 12  1  0
 11 13  1  0
 11 14  1  0
  7 16  1  0
 15 16  1  0
 15 17  1  0
 18 21  1  0
 19 21  1  0
 20 21  2  0
 19 24  1  0
 24 27  1  1
 22 28  1  0
 23 28  2  0
 27 28  1  0
 24 29  1  0
 25 29  1  0
 26 29  2  0
 30 32  1  0
 31 32  2  0
 33 34  2  0
 35 36  2  0
 36 37  1  0
 37 38  2  0
  5 39  1  0
 38 39  1  0
 35 40  1  0
 39 40  2  0
 41 42  2  0
 11 43  1  0
 42 43  1  0
 43 44  2  0
 44 45  1  0
  1 46  1  0
 41 46  1  0
 45 46  2  0
 32 47  1  0
 48 25  1  6
 47 48  1  0
 49 26  1  1
 48 49  1  0
 50 34  1  1
 49 50  1  0
 50 51  1  0
 52  1  1  6
 47 52  1  0
 51 52  1  0
 53 54  1  0
 54 55  1  0
 55 56  1  0
 56 57  1  0
 34 58  1  0
 53 58  1  0
 57 58  1  0
M  END
