x1380-x3298
     RDKit          3D

 46 50  0  0  0  0  0  0  0  0999 V2000
    6.9990    2.1360   22.2960 N   0  0  0  0  0  0  0  0  0  0  0  0
    7.1950   -0.2340   21.2700 C   0  0  2  0  0  0  0  0  0  0  0  0
    6.8860   -0.7260   22.5720 O   0  0  0  0  0  0  0  0  0  0  0  0
    7.8050    1.1560   21.5150 C   0  0  0  0  0  0  0  0  0  0  0  0
    8.9440    1.2470   23.6000 N   0  0  0  0  0  0  0  0  0  0  0  0
    8.9020    1.4450   21.0440 O   0  0  0  0  0  0  0  0  0  0  0  0
   10.8390    1.8730   24.7600 O   0  0  0  0  0  0  0  0  0  0  0  0
    9.7300   -0.2350   25.6680 O   0  0  0  0  0  0  0  0  0  0  0  0
   13.6950   -1.8260   20.8450 F   0  0  0  0  0  0  0  0  0  0  0  0
   10.1370    0.6630   24.6000 S   0  0  0  0  0  0  0  0  0  0  0  0
    7.1250   -3.3730   19.4720 C   0  0  0  0  0  0  0  0  0  0  0  0
    5.3360   -4.8360   19.9920 O   0  0  0  0  0  0  0  0  0  0  0  0
    6.3710   -4.3110   20.3920 C   0  0  0  0  0  0  0  0  0  0  0  0
    4.8100   -2.5050   25.5070 O   0  0  0  0  0  0  0  0  0  0  0  0
    5.7040   -3.3320   25.3460 C   0  0  0  0  0  0  0  0  0  0  0  0
    6.1760   -1.8850   22.5040 C   0  0  0  0  0  0  0  0  0  0  0  0
    6.2460    0.3670   17.6740 N   0  0  0  0  0  0  0  0  0  0  0  0
    6.9830   -0.1290   18.8130 C   0  0  0  0  0  0  0  0  0  0  0  0
    6.4920    0.1810   20.0560 C   0  0  0  0  0  0  0  0  0  0  0  0
    5.3310    0.9140   20.1970 C   0  0  0  0  0  0  0  0  0  0  0  0
    4.6480    1.3670   19.0890 C   0  0  0  0  0  0  0  0  0  0  0  0
    5.1310    1.0860   17.8300 C   0  0  0  0  0  0  0  0  0  0  0  0
    7.6430    4.6370   22.4830 C   0  0  0  0  0  0  0  0  0  0  0  0
    8.7030    5.6300   22.9930 C   0  0  0  0  0  0  0  0  0  0  0  0
    9.9570    5.1500   23.7350 C   0  0  0  0  0  0  0  0  0  0  0  0
   10.0560    3.6560   23.9320 C   0  0  0  0  0  0  0  0  0  0  0  0
    8.9760    2.7250   23.4360 C   0  0  0  0  0  0  0  0  0  0  0  0
    7.8010    3.2580   22.7010 C   0  0  0  0  0  0  0  0  0  0  0  0
   12.3880    0.4110   23.3420 C   0  0  0  0  0  0  0  0  0  0  0  0
   13.2400   -0.1540   22.4650 C   0  0  0  0  0  0  0  0  0  0  0  0
   12.8690   -1.2870   21.7190 C   0  0  0  0  0  0  0  0  0  0  0  0
   11.5850   -1.8510   21.8880 C   0  0  0  0  0  0  0  0  0  0  0  0
   10.7280   -1.2510   22.7920 C   0  0  0  0  0  0  0  0  0  0  0  0
   11.1370   -0.1390   23.4960 C   0  0  0  0  0  0  0  0  0  0  0  0
    6.9400   -4.6030   21.6480 N   0  0  0  0  0  0  0  0  0  0  0  0
    6.2660   -5.5800   22.5220 C   0  0  0  0  0  0  0  0  0  0  0  0
    6.3340   -5.1230   23.8410 C   0  0  0  0  0  0  0  0  0  0  0  0
    6.0190   -3.7570   23.9230 C   0  0  2  0  0  0  0  0  0  0  0  0
    6.9580   -2.9610   23.2600 C   0  0  1  0  0  0  0  0  0  0  0  0
    7.7710   -3.6130   22.3530 C   0  0  0  0  0  0  0  0  0  0  0  0
    7.8370   -4.1480   26.3940 C   0  0  0  0  0  0  0  0  0  0  0  0
    8.0780   -5.2330   27.2420 C   0  0  0  0  0  0  0  0  0  0  0  0
    7.4980   -5.1230   28.5060 C   0  0  0  0  0  0  0  0  0  0  0  0
    6.1270   -4.8530   28.5190 C   0  0  0  0  0  0  0  0  0  0  0  0
    5.8700   -3.6810   27.8310 C   0  0  0  0  0  0  0  0  0  0  0  0
    6.3770   -3.8500   26.4710 N   0  0  0  0  0  0  0  0  0  0  0  0
  2  3  1  1
  1  4  1  0
  2  4  1  0
  4  6  2  0
 10  5  1  0
  7 10  2  0
  8 10  2  0
 11 13  1  0
 12 13  2  0
 14 15  2  0
  3 16  1  0
 17 18  2  0
  2 19  1  0
 18 19  1  0
 19 20  2  0
 20 21  1  0
 17 22  1  0
 21 22  2  0
 23 24  2  0
 24 25  1  0
 25 26  2  0
  5 27  1  0
 26 27  1  0
  1 28  1  0
 23 28  1  0
 27 28  2  0
 29 30  2  0
  9 31  1  0
 30 31  1  0
 31 32  2  0
 32 33  1  0
 10 34  1  0
 29 34  1  0
 33 34  2  0
 13 35  1  0
 35 36  1  0
 36 37  1  0
 38 15  1  1
 37 38  1  0
 39 16  1  6
 38 39  1  0
 35 40  1  0
 39 40  1  0
 41 42  1  0
 42 43  1  0
 43 44  1  0
 44 45  1  0
 15 46  1  0
 41 46  1  0
 45 46  1  0
M  END
