x1380-x2569
     RDKit          3D

 36 39  0  0  0  0  0  0  0  0999 V2000
    6.9910   -3.3070   19.3020 C   0  0  0  0  0  0  0  0  0  0  0  0
    5.2430   -4.7870   19.9470 O   0  0  0  0  0  0  0  0  0  0  0  0
    6.2480   -4.1820   20.2870 C   0  0  0  0  0  0  0  0  0  0  0  0
    4.9480   -2.6260   25.2560 O   0  0  0  0  0  0  0  0  0  0  0  0
    6.0240   -3.2110   25.4060 C   0  0  0  0  0  0  0  0  0  0  0  0
    8.1090   -0.0030   21.7690 C   0  0  0  0  0  0  0  0  0  0  0  0
    8.7230    1.0400   21.5310 O   0  0  0  0  0  0  0  0  0  0  0  0
    8.6650   -0.9880   22.5760 C   0  0  2  0  0  0  0  0  0  0  0  0
   13.8720   -1.3480   20.4730 N   0  0  0  0  0  0  0  0  0  0  0  0
    6.8600   -0.3370   21.2820 N   0  0  0  0  0  0  0  0  0  0  0  0
   13.3640   -1.9270   21.6360 C   0  0  0  0  0  0  0  0  0  0  0  0
    7.8360   -1.5920   23.7540 C   0  0  0  0  0  0  0  0  0  0  0  0
    6.7910   -4.3220   21.5470 N   0  0  0  0  0  0  0  0  0  0  0  0
    6.4790   -5.3910   22.4780 C   0  0  0  0  0  0  0  0  0  0  0  0
    5.9800   -4.8640   23.6590 C   0  0  0  0  0  0  0  0  0  0  0  0
    6.7320   -3.7740   24.1500 C   0  0  1  0  0  0  0  0  0  0  0  0
    6.9270   -2.7380   23.1990 C   0  0  2  0  0  0  0  0  0  0  0  0
    7.5450   -3.2180   22.0710 C   0  0  0  0  0  0  0  0  0  0  0  0
    7.9320   -3.8050   26.9880 C   0  0  0  0  0  0  0  0  0  0  0  0
    7.9480   -5.2820   27.4430 C   0  0  0  0  0  0  0  0  0  0  0  0
    6.9950   -5.3900   28.6210 C   0  0  0  0  0  0  0  0  0  0  0  0
    5.6090   -4.7660   28.4430 C   0  0  0  0  0  0  0  0  0  0  0  0
    5.5980   -3.3740   27.8280 C   0  0  0  0  0  0  0  0  0  0  0  0
    6.5530   -3.3680   26.6810 N   0  0  0  0  0  0  0  0  0  0  0  0
   11.9110    0.6880   23.9740 N   0  0  0  0  0  0  0  0  0  0  0  0
   12.7520   -0.0500   23.2960 C   0  0  0  0  0  0  0  0  0  0  0  0
   12.4210   -1.0630   22.4230 C   0  0  0  0  0  0  0  0  0  0  0  0
   11.1100   -1.4020   22.1670 C   0  0  0  0  0  0  0  0  0  0  0  0
   10.1160   -0.6770   22.8290 C   0  0  0  0  0  0  0  0  0  0  0  0
   10.5110    0.3410   23.7150 C   0  0  0  0  0  0  0  0  0  0  0  0
    6.3990    0.5970   17.7730 N   0  0  0  0  0  0  0  0  0  0  0  0
    6.8600    0.0820   18.9300 C   0  0  0  0  0  0  0  0  0  0  0  0
    6.2490    0.2440   20.1610 C   0  0  0  0  0  0  0  0  0  0  0  0
    5.0750    0.9740   20.2060 C   0  0  0  0  0  0  0  0  0  0  0  0
    4.5690    1.5160   19.0280 C   0  0  0  0  0  0  0  0  0  0  0  0
    5.2580    1.3100   17.8450 C   0  0  0  0  0  0  0  0  0  0  0  0
  1  3  1  0
  2  3  2  0
  4  5  2  0
  6  7  2  0
  6  8  1  0
  6 10  1  0
  9 11  3  0
  8 12  1  1
  3 13  1  0
 13 14  1  0
 14 15  1  0
 16  5  1  1
 15 16  1  0
 17 12  1  1
 16 17  1  0
 13 18  1  0
 17 18  1  0
 19 20  1  0
 20 21  1  0
 21 22  1  0
 22 23  1  0
  5 24  1  0
 19 24  1  0
 23 24  1  0
 25 26  2  0
 11 27  1  0
 26 27  1  0
 27 28  2  0
  8 29  1  0
 28 29  1  0
 25 30  1  0
 29 30  2  0
 31 32  2  0
 10 33  1  0
 32 33  1  0
 33 34  2  0
 34 35  1  0
 31 36  1  0
 35 36  2  0
M  END
