x1382-x1384
     RDKit          3D

 27 30  0  0  0  0  0  0  0  0999 V2000
   13.2990   -2.3460   21.2450 Cl  0  0  0  0  0  0  0  0  0  0  0  0
    7.3020   -1.2370   22.6400 C   0  0  0  0  0  0  0  0  0  0  0  0
    8.4550   -1.9190   21.8940 C   0  0  1  0  0  0  0  0  0  0  0  0
    8.3730   -1.9870   20.6740 N   0  0  0  0  0  0  0  0  0  0  0  0
    7.5830   -2.9130   19.9060 C   0  0  0  0  0  0  0  0  0  0  0  0
    7.0190   -2.8240   18.7590 O   0  0  0  0  0  0  0  0  0  0  0  0
    7.2330   -4.2020   20.5730 C   0  0  0  0  0  0  0  0  0  0  0  0
    5.2970   -3.4850   21.8960 N   0  0  0  0  0  0  0  0  0  0  0  0
    5.1110   -3.9070   19.5880 O   0  0  0  0  0  0  0  0  0  0  0  0
    5.7870   -3.8770   20.5970 C   0  0  0  0  0  0  0  0  0  0  0  0
    9.7610   -1.2480   22.2320 C   0  0  0  0  0  0  0  0  0  0  0  0
   10.8770   -1.8680   21.7710 C   0  0  0  0  0  0  0  0  0  0  0  0
   12.1460   -1.4020   21.9550 C   0  0  0  0  0  0  0  0  0  0  0  0
   12.4340   -0.2500   22.6400 C   0  0  0  0  0  0  0  0  0  0  0  0
   11.4150    0.4690   23.1530 C   0  0  0  0  0  0  0  0  0  0  0  0
    9.9690   -0.0460   22.9540 C   0  0  0  0  0  0  0  0  0  0  0  0
    5.3840   -3.4680   27.3220 O   0  0  0  0  0  0  0  0  0  0  0  0
    3.8820   -3.7710   24.1220 C   0  0  2  0  0  0  0  0  0  0  0  0
    5.0970   -3.3030   24.0420 C   0  0  1  0  0  0  0  0  0  0  0  0
    5.2060   -3.9550   25.1370 C   0  0  2  0  0  0  0  0  0  0  0  0
    5.4180   -5.3780   25.1650 C   0  0  0  0  0  0  0  0  0  0  0  0
    4.6630   -5.9790   24.1720 C   0  0  0  0  0  0  0  0  0  0  0  0
    3.7220   -5.0410   23.5180 C   0  0  0  0  0  0  0  0  0  0  0  0
    4.8940   -3.0710   26.1310 C   0  0  1  0  0  0  0  0  0  0  0  0
    3.5540   -2.8730   26.1210 C   0  0  0  0  0  0  0  0  0  0  0  0
    2.7050   -3.2310   25.0170 C   0  0  0  0  0  0  0  0  0  0  0  0
    5.9300   -3.7530   23.0730 C   0  0  0  0  0  0  0  0  0  0  0  0
  3  2  1  6
  3  4  1  0
  4  5  1  0
  5  6  2  0
  5  7  1  0
  7 10  1  0
  8 10  1  0
  9 10  2  0
  3 11  1  0
 11 12  2  0
  1 13  1  0
 12 13  1  0
 13 14  2  0
 14 15  1  0
 11 16  1  0
 15 16  2  0
 18 19  1  0
 18 20  1  0
 19 20  1  0
 20 21  1  1
 21 22  1  0
 18 23  1  6
 22 23  2  0
 24 17  1  1
 20 24  1  0
 24 25  1  0
 18 26  1  0
 25 26  2  0
  8 27  1  0
 19 27  1  6
M  END
