x1384-x0387
     RDKit          3D

 30 34  0  0  0  0  0  0  0  0999 V2000
    6.0000   -2.9650   21.5650 N   0  0  0  0  0  0  0  0  0  0  0  0
    7.8560   -3.8640   20.4070 C   0  0  0  0  0  0  0  0  0  0  0  0
    5.5810   -3.7830   19.5200 O   0  0  0  0  0  0  0  0  0  0  0  0
    6.3910   -3.5400   20.4170 C   0  0  0  0  0  0  0  0  0  0  0  0
    5.0070   -2.4350   26.8880 O   0  0  0  0  0  0  0  0  0  0  0  0
    8.9070   -4.5210   27.7150 O   0  0  0  0  0  0  0  0  0  0  0  0
    9.4740   -1.3160   24.3070 C   0  0  0  0  0  0  0  0  0  0  0  0
    6.0860   -2.2780   26.2880 C   0  0  0  0  0  0  0  0  0  0  0  0
    6.8400   -3.4580   25.7280 C   0  0  0  0  0  0  0  0  0  0  0  0
    3.6780   -3.8190   23.8150 C   0  0  2  0  0  0  0  0  0  0  0  0
    4.9970   -3.3410   23.7840 C   0  0  1  0  0  0  0  0  0  0  0  0
    4.6970   -4.0240   25.0070 C   0  0  2  0  0  0  0  0  0  0  0  0
    4.9720   -5.4120   25.1770 C   0  0  0  0  0  0  0  0  0  0  0  0
    4.4080   -6.0010   24.0430 C   0  0  0  0  0  0  0  0  0  0  0  0
    3.6820   -5.1200   23.2760 C   0  0  0  0  0  0  0  0  0  0  0  0
    4.0340   -3.0750   26.1180 C   0  0  2  0  0  0  0  0  0  0  0  0
    3.9550   -2.4950   25.0110 C   0  0  0  0  0  0  0  0  0  0  0  0
    3.2080   -3.8960   25.1500 C   0  0  0  0  0  0  0  0  0  0  0  0
    9.1020   -4.5670   26.3250 C   0  0  1  0  0  0  0  0  0  0  0  0
    8.3160   -3.3630   25.6880 C   0  0  1  0  0  0  0  0  0  0  0  0
    8.9860   -2.7590   24.4120 C   0  0  2  0  0  0  0  0  0  0  0  0
   10.2050   -3.5180   24.1690 N   0  0  0  0  0  0  0  0  0  0  0  0
   10.9630   -3.5850   25.2940 C   0  0  0  0  0  0  0  0  0  0  0  0
   10.5620   -4.6600   26.0960 C   0  0  0  0  0  0  0  0  0  0  0  0
   11.7230   -0.1360   23.9750 C   0  0  0  0  0  0  0  0  0  0  0  0
   10.8300   -1.1340   23.6530 C   0  0  0  0  0  0  0  0  0  0  0  0
   11.3310   -1.9510   22.6480 C   0  0  0  0  0  0  0  0  0  0  0  0
   12.8920   -1.4880   22.1180 S   0  0  0  0  0  0  0  0  0  0  0  0
   12.8940   -0.1720   23.2370 C   0  0  0  0  0  0  0  0  0  0  0  0
    5.8770   -3.8560   22.6940 C   0  0  0  0  0  0  0  0  0  0  0  0
  1  4  1  0
  2  4  1  0
  3  4  2  0
  5  8  1  0
  8  9  1  0
 10 11  1  0
 10 12  1  0
 11 12  1  0
 12 13  1  1
 13 14  1  0
 10 15  1  6
 14 15  2  0
 16  5  1  1
 12 16  1  0
 16 17  1  0
 10 18  1  0
 17 18  2  0
 19  6  1  1
 20  9  1  6
 19 20  1  0
 21  7  1  1
 20 21  1  0
 21 22  1  0
 22 23  1  0
 19 24  1  0
 23 24  1  0
  7 26  1  0
 25 26  1  0
 26 27  2  0
 27 28  1  0
 25 29  2  0
 28 29  1  0
  1 30  1  0
 11 30  1  6
M  END
