x1380-x2705-x2703
     RDKit          3D

 48 52  0  0  0  0  0  0  0  0999 V2000
    7.4840   -1.0140   21.9360 N   0  0  0  0  0  0  0  0  0  0  0  0
    7.6300    2.1770   22.8330 N   0  0  0  0  0  0  0  0  0  0  0  0
    9.0200    1.4310   21.0470 O   0  0  0  0  0  0  0  0  0  0  0  0
    7.0230    0.2840   21.6920 C   0  0  1  0  0  0  0  0  0  0  0  0
    7.9430    1.3180   21.8480 C   0  0  0  0  0  0  0  0  0  0  0  0
   10.0780    2.1340   23.9610 C   0  0  0  0  0  0  0  0  0  0  0  0
    9.2450    1.5130   24.9090 C   0  0  0  0  0  0  0  0  0  0  0  0
    6.3000    4.5990   21.9390 C   0  0  0  0  0  0  0  0  0  0  0  0
   12.4290   -1.3990   23.1960 C   0  0  0  0  0  0  0  0  0  0  0  0
   12.9960   -0.1450   23.3960 C   0  0  0  0  0  0  0  0  0  0  0  0
   12.9840   -2.3290   24.2980 C   0  0  0  0  0  0  0  0  0  0  0  0
   12.9080   -1.8970   21.8230 C   0  0  0  0  0  0  0  0  0  0  0  0
   12.0660   -3.0180   25.0500 C   0  0  0  0  0  0  0  0  0  0  0  0
    7.0050   -3.4000   19.5330 C   0  0  0  0  0  0  0  0  0  0  0  0
    5.3520   -5.0010   20.0150 O   0  0  0  0  0  0  0  0  0  0  0  0
    6.3430   -4.4190   20.4390 C   0  0  0  0  0  0  0  0  0  0  0  0
    4.5390   -2.5160   25.6720 O   0  0  0  0  0  0  0  0  0  0  0  0
    5.5650   -3.2720   25.3860 C   0  0  0  0  0  0  0  0  0  0  0  0
    6.4090   -1.8700   22.4030 C   0  0  0  0  0  0  0  0  0  0  0  0
    6.3210    0.1660   17.9710 N   0  0  0  0  0  0  0  0  0  0  0  0
    5.1890    0.8920   17.8650 C   0  0  0  0  0  0  0  0  0  0  0  0
    4.5960    1.4360   18.9810 C   0  0  0  0  0  0  0  0  0  0  0  0
    5.1690    1.2440   20.2250 C   0  0  0  0  0  0  0  0  0  0  0  0
    6.3400    0.5060   20.3600 C   0  0  0  0  0  0  0  0  0  0  0  0
    6.8840   -0.0280   19.1890 C   0  0  0  0  0  0  0  0  0  0  0  0
   10.1670   -1.3100   24.4810 N   0  0  0  0  0  0  0  0  0  0  0  0
    8.9060   -1.2010   24.0180 N   0  0  0  0  0  0  0  0  0  0  0  0
    8.7230   -1.1360   22.6680 C   0  0  0  0  0  0  0  0  0  0  0  0
   10.0390   -1.2170   22.2270 C   0  0  0  0  0  0  0  0  0  0  0  0
   10.9260   -1.3160   23.2690 C   0  0  0  0  0  0  0  0  0  0  0  0
    9.5180    3.5020   23.5610 C   0  0  0  0  0  0  0  0  0  0  0  0
   10.1800    4.7160   23.7320 C   0  0  0  0  0  0  0  0  0  0  0  0
    9.5850    5.9230   23.3220 C   0  0  0  0  0  0  0  0  0  0  0  0
    8.2980    5.8940   22.7280 C   0  0  0  0  0  0  0  0  0  0  0  0
    7.6370    4.6570   22.5600 C   0  0  0  0  0  0  0  0  0  0  0  0
    8.2460    3.4770   22.9770 C   0  0  0  0  0  0  0  0  0  0  0  0
    6.9150   -4.7060   21.6960 N   0  0  0  0  0  0  0  0  0  0  0  0
    6.2460   -5.5190   22.5310 C   0  0  0  0  0  0  0  0  0  0  0  0
    5.8590   -5.0680   23.8060 C   0  0  0  0  0  0  0  0  0  0  0  0
    5.7540   -3.6660   23.8960 C   0  0  2  0  0  0  0  0  0  0  0  0
    6.8510   -2.9840   23.3640 C   0  0  1  0  0  0  0  0  0  0  0  0
    7.6290   -3.8200   22.4000 C   0  0  0  0  0  0  0  0  0  0  0  0
    7.7860   -4.2300   26.2960 C   0  0  0  0  0  0  0  0  0  0  0  0
    8.1250   -5.1740   27.4420 C   0  0  0  0  0  0  0  0  0  0  0  0
    7.1720   -4.9160   28.6310 C   0  0  0  0  0  0  0  0  0  0  0  0
    5.8690   -4.8770   28.4900 C   0  0  0  0  0  0  0  0  0  0  0  0
    5.9360   -3.5190   27.7880 C   0  0  0  0  0  0  0  0  0  0  0  0
    6.4240   -3.6870   26.4170 N   0  0  0  0  0  0  0  0  0  0  0  0
  1  4  1  0
  2  5  1  0
  3  5  2  0
  4  5  1  6
  6  7  1  0
  9 10  1  0
  9 11  1  0
  9 12  1  0
 11 13  1  0
 14 16  1  0
 15 16  2  0
 17 18  2  0
  1 19  1  0
 20 21  2  0
 21 22  1  0
 22 23  2  0
  4 24  1  0
 23 24  1  0
 20 25  1  0
 24 25  2  0
 26 27  1  0
  1 28  1  0
 27 28  1  0
 28 29  2  0
  9 30  1  0
 26 30  2  0
 29 30  1  0
  6 31  1  0
 31 32  2  0
 32 33  1  0
 33 34  2  0
  8 35  1  0
 34 35  1  0
  2 36  1  0
 31 36  1  0
 35 36  2  0
 16 37  1  0
 37 38  1  0
 38 39  1  0
 40 18  1  1
 39 40  1  0
 41 19  1  6
 40 41  1  0
 37 42  1  0
 41 42  1  0
 43 44  1  0
 44 45  1  0
 45 46  1  0
 46 47  1  0
 18 48  1  0
 43 48  1  0
 47 48  1  0
M  END
