x1385-x0978-x2694
     RDKit          3D

 55 59  0  0  0  0  0  0  0  0999 V2000
    7.7300    2.0880   22.6690 N   0  0  0  0  0  0  0  0  0  0  0  0
    9.3130    1.5000   21.2590 O   0  0  0  0  0  0  0  0  0  0  0  0
   10.8200    6.7510   23.9410 O   0  0  0  0  0  0  0  0  0  0  0  0
    7.4600    0.0410   21.0900 C   0  0  0  0  0  0  0  0  0  0  0  0
    8.2320    1.2380   21.7080 C   0  0  0  0  0  0  0  0  0  0  0  0
   10.3690    1.8110   24.0040 C   0  0  0  0  0  0  0  0  0  0  0  0
   11.8450    6.5270   24.9080 C   0  0  0  0  0  0  0  0  0  0  0  0
   12.4770   -1.1570   23.1360 C   0  0  0  0  0  0  0  0  0  0  0  0
   12.8170    0.3140   23.3020 C   0  0  0  0  0  0  0  0  0  0  0  0
   13.0720   -1.7130   21.8420 C   0  0  0  0  0  0  0  0  0  0  0  0
   13.0460   -1.9690   24.3270 C   0  0  0  0  0  0  0  0  0  0  0  0
    1.8350   -5.7110   23.2850 N   0  0  0  0  0  0  0  0  0  0  0  0
    2.1790   -8.3630   24.8330 C   0  0  0  0  0  0  0  0  0  0  0  0
    4.3300   -7.7640   24.7130 O   0  0  0  0  0  0  0  0  0  0  0  0
    3.2150   -7.2440   24.6590 C   0  0  1  0  0  0  0  0  0  0  0  0
    5.2180   -5.9530   22.2660 N   0  0  0  0  0  0  0  0  0  0  0  0
    0.6380   -7.3770   21.8080 O   0  0  0  0  0  0  0  0  0  0  0  0
    3.0760   -6.4890   23.3380 C   0  0  2  0  0  0  0  0  0  0  0  0
    4.2560   -4.3910   23.6260 O   0  0  0  0  0  0  0  0  0  0  0  0
    0.7440   -6.1730   22.5870 C   0  0  0  0  0  0  0  0  0  0  0  0
   -0.5630   -5.3520   22.5920 C   0  0  0  0  0  0  0  0  0  0  0  0
    4.2370   -5.4970   23.1030 C   0  0  0  0  0  0  0  0  0  0  0  0
    6.0480   -5.0770   21.5790 C   0  0  0  0  0  0  0  0  0  0  0  0
    7.3480   -2.9290   18.8600 C   0  0  0  0  0  0  0  0  0  0  0  0
    5.4330   -3.8160   19.5630 O   0  0  0  0  0  0  0  0  0  0  0  0
    6.4340   -3.1330   19.8260 C   0  0  0  0  0  0  0  0  0  0  0  0
    9.9700   -3.0200   24.3750 C   0  0  0  0  0  0  0  0  0  0  0  0
    6.8690   -5.9210   28.5060 Br  0  0  0  0  0  0  0  0  0  0  0  0
    6.1940    0.5720   17.7090 N   0  0  0  0  0  0  0  0  0  0  0  0
    5.1110    1.2960   17.9360 C   0  0  0  0  0  0  0  0  0  0  0  0
    4.6270    1.6880   19.1790 C   0  0  0  0  0  0  0  0  0  0  0  0
    5.3320    1.3100   20.3210 C   0  0  0  0  0  0  0  0  0  0  0  0
    6.4860    0.5580   20.0950 C   0  0  0  0  0  0  0  0  0  0  0  0
    6.8560    0.2200   18.8020 C   0  0  0  0  0  0  0  0  0  0  0  0
    9.1260   -2.0060   23.9500 N   0  0  0  0  0  0  0  0  0  0  0  0
   10.1690   -0.9580   24.0590 O   0  0  0  0  0  0  0  0  0  0  0  0
   11.0060   -1.3900   23.0530 C   0  0  0  0  0  0  0  0  0  0  0  0
   10.2030   -2.0090   22.1220 C   0  0  0  0  0  0  0  0  0  0  0  0
    8.8730   -2.0570   22.4960 C   0  0  1  0  0  0  0  0  0  0  0  0
    9.7330    3.1660   23.6080 C   0  0  0  0  0  0  0  0  0  0  0  0
   10.5600    4.4570   23.9310 C   0  0  0  0  0  0  0  0  0  0  0  0
   10.0230    5.6800   23.6030 C   0  0  0  0  0  0  0  0  0  0  0  0
    8.7560    5.7650   22.9760 C   0  0  0  0  0  0  0  0  0  0  0  0
    7.9660    4.5790   22.6530 C   0  0  0  0  0  0  0  0  0  0  0  0
    8.4790    3.2710   22.9840 C   0  0  0  0  0  0  0  0  0  0  0  0
    6.6050   -2.6000   21.1300 N   0  0  0  0  0  0  0  0  0  0  0  0
    6.2300   -3.6400   22.1640 C   0  0  2  0  0  0  0  0  0  0  0  0
    7.2050   -3.6880   23.1410 C   0  0  0  0  0  0  0  0  0  0  0  0
    8.5040   -3.4670   22.5940 N   0  0  0  0  0  0  0  0  0  0  0  0
    7.7360   -1.5060   21.4930 C   0  0  1  0  0  0  0  0  0  0  0  0
    9.8210   -5.3800   25.5390 C   0  0  0  0  0  0  0  0  0  0  0  0
    9.4260   -4.0520   25.3040 C   0  0  0  0  0  0  0  0  0  0  0  0
    8.0120   -3.8180   26.4670 S   0  0  0  0  0  0  0  0  0  0  0  0
    8.0500   -5.3250   27.1370 C   0  0  0  0  0  0  0  0  0  0  0  0
    9.0740   -6.0660   26.5380 C   0  0  0  0  0  0  0  0  0  0  0  0
  1  5  1  0
  2  5  2  0
  4  5  1  0
  3  7  1  0
  8  9  1  0
  8 10  1  0
  8 11  1  0
 15 13  1  6
 14 15  1  0
 18 12  1  1
 15 18  1  0
 12 20  1  0
 17 20  2  0
 20 21  1  0
 16 22  1  0
 18 22  1  0
 19 22  2  0
 16 23  1  0
 24 26  1  0
 25 26  2  0
 29 30  2  0
 30 31  1  0
 31 32  2  0
  4 33  1  0
 32 33  1  0
 29 34  1  0
 33 34  2  0
 27 35  1  0
 35 36  1  0
  8 37  1  0
 36 37  1  0
 37 38  2  0
 35 39  1  0
 39 38  1  6
  6 40  1  0
 40 41  2  0
  3 42  1  0
 41 42  1  0
 42 43  2  0
 43 44  1  0
  1 45  1  0
 40 45  1  0
 44 45  2  0
 26 46  1  0
 47 23  1  6
 46 47  1  0
 47 48  1  0
 39 49  1  0
 48 49  1  0
 50  4  1  1
 39 50  1  0
 46 50  1  0
 27 52  1  0
 51 52  2  0
 52 53  1  0
 28 54  1  0
 53 54  1  0
 51 55  1  0
 54 55  2  0
M  END
