x1386-x1249
     RDKit          3D

 28 30  0  0  0  0  0  0  0  0999 V2000
    8.3530    0.6510   24.6570 N   0  0  0  0  0  0  0  0  0  0  0  0
    7.5710    1.5020   23.9270 C   0  0  0  0  0  0  0  0  0  0  0  0
    8.0400    2.5080   23.3870 O   0  0  0  0  0  0  0  0  0  0  0  0
    9.6110    1.0290   25.0330 C   0  0  0  0  0  0  0  0  0  0  0  0
   13.6800   -1.4030   20.6970 N   0  0  0  0  0  0  0  0  0  0  0  0
   13.2070   -2.0460   21.8080 C   0  0  0  0  0  0  0  0  0  0  0  0
    7.4080   -2.9870   18.7060 C   0  0  0  0  0  0  0  0  0  0  0  0
    5.4060   -3.9130   19.6430 O   0  0  0  0  0  0  0  0  0  0  0  0
    6.4010   -3.1910   19.8060 C   0  0  0  0  0  0  0  0  0  0  0  0
    9.9060   -2.5220   23.6340 C   0  0  0  0  0  0  0  0  0  0  0  0
    3.4630    0.7200   23.5370 O   0  0  0  0  0  0  0  0  0  0  0  0
    4.3620    0.9450   22.4720 C   0  0  0  0  0  0  0  0  0  0  0  0
    5.4590    1.7210   22.8460 C   0  0  0  0  0  0  0  0  0  0  0  0
    6.1820    1.1250   23.8570 N   0  0  0  0  0  0  0  0  0  0  0  0
    5.4050    1.0200   24.9670 C   0  0  0  0  0  0  0  0  0  0  0  0
    4.1380    0.1880   24.6730 C   0  0  0  0  0  0  0  0  0  0  0  0
   11.7810    0.9340   23.6870 C   0  0  0  0  0  0  0  0  0  0  0  0
   12.6330    0.0470   22.8690 C   0  0  0  0  0  0  0  0  0  0  0  0
   12.2420   -1.2690   22.6510 C   0  0  0  0  0  0  0  0  0  0  0  0
   11.1060   -2.0080   23.0840 C   0  0  0  0  0  0  0  0  0  0  0  0
   10.3770   -0.9800   23.8820 C   0  0  0  0  0  0  0  0  0  0  0  0
   10.6550    0.3480   24.1680 C   0  0  0  0  0  0  0  0  0  0  0  0
    6.7940   -2.5130   21.0440 N   0  0  0  0  0  0  0  0  0  0  0  0
    7.6470   -1.4540   21.0130 C   0  0  0  0  0  0  0  0  0  0  0  0
    8.8900   -1.5960   21.6150 C   0  0  0  0  0  0  0  0  0  0  0  0
    8.7190   -1.9490   23.0070 N   0  0  0  0  0  0  0  0  0  0  0  0
    7.4570   -2.6770   23.2220 C   0  0  0  0  0  0  0  0  0  0  0  0
    7.0500   -3.3860   22.0790 C   0  0  0  0  0  0  0  0  0  0  0  0
  1  2  1  0
  2  3  2  0
  1  4  1  0
  5  6  3  0
  7  9  1  0
  8  9  2  0
 11 12  1  0
 12 13  1  0
  2 14  1  0
 13 14  1  0
 14 15  1  0
 11 16  1  0
 15 16  1  0
 17 18  2  0
  6 19  1  0
 18 19  1  0
 10 20  1  0
 19 20  2  0
 20 21  1  0
  4 22  1  0
 17 22  1  0
 21 22  2  0
  9 23  1  0
 23 24  1  0
 24 25  1  0
 10 26  1  0
 25 26  1  0
 26 27  1  0
 23 28  1  0
 27 28  1  0
M  END
