x1385-x2562
     RDKit          3D

 39 43  0  0  0  0  0  0  0  0999 V2000
    8.1300   -0.8120   21.3980 C   0  0  1  0  0  0  0  0  0  0  0  0
    7.7480    0.1670   22.0550 O   0  0  0  0  0  0  0  0  0  0  0  0
   11.7960    2.9230   23.3500 O   0  0  0  0  0  0  0  0  0  0  0  0
    9.4610   -1.0180   21.3060 N   0  0  0  0  0  0  0  0  0  0  0  0
   12.9980    6.6660   22.5350 O   0  0  0  0  0  0  0  0  0  0  0  0
    7.4080   -2.9750   18.9260 C   0  0  0  0  0  0  0  0  0  0  0  0
    5.4880   -4.0500   19.7470 O   0  0  0  0  0  0  0  0  0  0  0  0
    6.4060   -3.2650   20.0270 C   0  0  0  0  0  0  0  0  0  0  0  0
    9.0500   -3.5240   23.9980 C   0  0  0  0  0  0  0  0  0  0  0  0
    7.1800   -5.9300   28.6860 Br  0  0  0  0  0  0  0  0  0  0  0  0
   12.4210    4.4610   21.7430 N   0  0  0  0  0  0  0  0  0  0  0  0
   13.2880    5.5070   22.2280 C   0  0  2  0  0  0  0  0  0  0  0  0
   13.4660    4.8180   23.4820 C   0  0  0  0  0  0  0  0  0  0  0  0
   12.7920    3.7630   22.7110 C   0  0  1  0  0  0  0  0  0  0  0  0
   11.8420   -1.3740   22.0670 C   0  0  0  0  0  0  0  0  0  0  0  0
   13.0240   -0.6860   22.6500 C   0  0  0  0  0  0  0  0  0  0  0  0
   12.9500    0.7720   23.0590 C   0  0  0  0  0  0  0  0  0  0  0  0
   11.8080    1.5850   22.9600 C   0  0  0  0  0  0  0  0  0  0  0  0
   10.6650    1.0010   22.4310 C   0  0  0  0  0  0  0  0  0  0  0  0
   10.6370   -0.4600   21.9490 C   0  0  0  0  0  0  0  0  0  0  0  0
    6.4930   -2.7160   21.3620 N   0  0  0  0  0  0  0  0  0  0  0  0
    6.0480   -3.5420   22.3610 C   0  0  0  0  0  0  0  0  0  0  0  0
    7.1100   -4.1380   23.0440 C   0  0  0  0  0  0  0  0  0  0  0  0
    7.7780   -3.2340   23.8360 N   0  0  0  0  0  0  0  0  0  0  0  0
    7.6790   -2.1020   23.2250 C   0  0  0  0  0  0  0  0  0  0  0  0
    7.6390   -2.1620   21.8920 C   0  0  2  0  0  0  0  0  0  0  0  0
    9.6540   -5.5310   25.3590 C   0  0  0  0  0  0  0  0  0  0  0  0
    8.9270   -4.4070   25.1190 C   0  0  0  0  0  0  0  0  0  0  0  0
    7.7310   -4.0310   26.2520 S   0  0  0  0  0  0  0  0  0  0  0  0
    8.1580   -5.4760   27.1280 C   0  0  0  0  0  0  0  0  0  0  0  0
    9.2180   -6.1690   26.5360 C   0  0  0  0  0  0  0  0  0  0  0  0
    4.1080    1.8320   18.7280 N   0  0  0  0  0  0  0  0  0  0  0  0
    4.9470    1.6580   17.6910 C   0  0  0  0  0  0  0  0  0  0  0  0
    6.1770    1.1960   17.6770 N   0  0  0  0  0  0  0  0  0  0  0  0
    6.9320    0.8180   18.6930 C   0  0  0  0  0  0  0  0  0  0  0  0
    6.0260    1.0060   19.7810 C   0  0  0  0  0  0  0  0  0  0  0  0
    4.7340    1.4600   19.8030 C   0  0  0  0  0  0  0  0  0  0  0  0
    7.5330   -0.7400   20.0140 C   0  0  0  0  0  0  0  0  0  0  0  0
    7.3480    0.5490   19.9210 C   0  0  0  0  0  0  0  0  0  0  0  0
  1  2  1  1
  1  4  1  0
  6  8  1  0
  7  8  2  0
 12  5  1  1
 11 12  1  0
 12 13  1  0
 14  3  1  1
 11 14  1  0
 13 14  1  0
 15 16  2  0
 16 17  1  0
  3 18  1  0
 17 18  2  0
 18 19  1  0
  4 20  1  0
 15 20  1  0
 19 20  2  0
  8 21  1  0
 21 22  1  0
 22 23  1  0
  9 24  1  0
 23 24  1  0
 24 25  1  0
  1 26  1  0
 21 26  1  0
 26 25  1  1
  9 28  1  0
 27 28  2  0
 28 29  1  0
 10 30  1  0
 29 30  1  0
 27 31  1  0
 30 31  2  0
 32 33  2  0
 33 34  1  0
 34 35  2  0
 35 36  1  0
 32 37  1  0
 36 37  2  0
  1 38  1  0
 35 39  1  0
 38 39  1  0
M  END
