x1380-x0734
     RDKit          3D

 18 19  0  0  0  0  0  0  0  0999 V2000
    5.2370   -4.9410   26.3510 N   0  0  0  0  0  0  0  0  0  0  0  0
    4.6750   -5.7570   25.6050 O   0  0  0  0  0  0  0  0  0  0  0  0
    4.7030   -3.9130   26.7930 O   0  0  0  0  0  0  0  0  0  0  0  0
    5.0730   -4.1370   19.6480 O   0  0  0  0  0  0  0  0  0  0  0  0
    6.1940   -3.8040   19.9940 C   0  0  0  0  0  0  0  0  0  0  0  0
    7.1110   -3.1150   19.0070 C   0  0  0  0  0  0  0  0  0  0  0  0
    6.6330   -5.0070   26.4210 C   0  0  0  0  0  0  0  0  0  0  0  0
    7.4080   -4.6310   25.1570 C   0  0  0  0  0  0  0  0  0  0  0  0
    8.7700   -4.7090   25.2950 C   0  0  0  0  0  0  0  0  0  0  0  0
    9.4880   -5.1310   26.5710 C   0  0  0  0  0  0  0  0  0  0  0  0
    8.6970   -5.4610   27.6740 C   0  0  0  0  0  0  0  0  0  0  0  0
    7.2910   -5.3990   27.6020 C   0  0  0  0  0  0  0  0  0  0  0  0
    6.6760   -4.0910   21.2520 N   0  0  0  0  0  0  0  0  0  0  0  0
    6.5490   -5.3790   21.9490 C   0  0  0  0  0  0  0  0  0  0  0  0
    5.9890   -5.1910   23.2030 C   0  0  0  0  0  0  0  0  0  0  0  0
    6.8430   -4.2420   23.9610 N   0  0  0  0  0  0  0  0  0  0  0  0
    7.2350   -3.1250   23.3160 C   0  0  0  0  0  0  0  0  0  0  0  0
    7.6010   -3.2030   21.9830 C   0  0  0  0  0  0  0  0  0  0  0  0
  1  2  2  0
  1  3  1  0
  4  5  2  0
  5  6  1  0
  1  7  1  0
  7  8  2  0
  8  9  1  0
  9 10  2  0
 10 11  1  0
  7 12  1  0
 11 12  2  0
  5 13  1  0
 13 14  1  0
 14 15  1  0
  8 16  1  0
 15 16  1  0
 16 17  1  0
 13 18  1  0
 17 18  1  0
M  CHG  2   1   1   3  -1
M  END
