x1380-x1493
     RDKit          3D

 20 21  0  0  0  0  0  0  0  0999 V2000
    7.1670   -3.2900   19.2990 C   0  0  0  0  0  0  0  0  0  0  0  0
    5.2520   -4.5770   19.8960 O   0  0  0  0  0  0  0  0  0  0  0  0
    6.2930   -4.0540   20.2790 C   0  0  0  0  0  0  0  0  0  0  0  0
    5.0670   -2.6130   25.4190 O   0  0  0  0  0  0  0  0  0  0  0  0
    6.1450   -3.2140   25.4710 C   0  0  0  0  0  0  0  0  0  0  0  0
    4.7110   -6.2600   26.0330 C   0  0  0  0  0  0  0  0  0  0  0  0
    7.0890   -5.6410   26.2280 N   0  0  0  0  0  0  0  0  0  0  0  0
    5.9260   -5.6420   26.3080 C   0  0  0  0  0  0  0  0  0  0  0  0
    6.7370   -4.1930   21.5830 N   0  0  0  0  0  0  0  0  0  0  0  0
    6.3070   -5.0030   22.2900 C   0  0  0  0  0  0  0  0  0  0  0  0
    5.9090   -4.6520   23.5840 C   0  0  0  0  0  0  0  0  0  0  0  0
    6.7080   -3.7440   24.2930 C   0  0  0  0  0  0  0  0  0  0  0  0
    7.3150   -2.8070   23.4770 C   0  0  0  0  0  0  0  0  0  0  0  0
    7.6740   -3.2620   22.2140 C   0  0  0  0  0  0  0  0  0  0  0  0
    7.7730   -4.5100   26.8450 C   0  0  2  0  0  0  0  0  0  0  0  0
    7.9860   -4.8290   28.1810 C   0  0  0  0  0  0  0  0  0  0  0  0
    6.6930   -5.2930   28.8440 C   0  0  0  0  0  0  0  0  0  0  0  0
    5.5150   -4.3480   28.5510 C   0  0  0  0  0  0  0  0  0  0  0  0
    5.9710   -3.0560   27.8850 C   0  0  0  0  0  0  0  0  0  0  0  0
    6.8140   -3.3890   26.6830 N   0  0  0  0  0  0  0  0  0  0  0  0
  1  3  1  0
  2  3  2  0
  4  5  2  0
  6  8  1  0
  7  8  2  3
  3  9  1  0
  9 10  1  0
 10 11  1  0
  5 12  1  0
 11 12  1  0
 12 13  1  0
  9 14  1  0
 13 14  1  0
 15  7  1  6
 15 16  1  0
 16 17  1  0
 17 18  1  0
 18 19  1  0
  5 20  1  0
 15 20  1  0
 19 20  1  0
M  END
