x1380-x2964
     RDKit          3D

 36 39  0  0  0  0  0  0  0  0999 V2000
    7.2070   -3.2700   19.2680 C   0  0  0  0  0  0  0  0  0  0  0  0
    5.3180   -4.5840   19.9120 O   0  0  0  0  0  0  0  0  0  0  0  0
    6.4030   -4.1090   20.2430 C   0  0  0  0  0  0  0  0  0  0  0  0
    5.0060   -2.3820   25.1310 O   0  0  0  0  0  0  0  0  0  0  0  0
    5.9810   -3.1310   25.1730 C   0  0  0  0  0  0  0  0  0  0  0  0
    3.3150    1.9410   19.1770 N   0  0  0  0  0  0  0  0  0  0  0  0
    8.5030    1.0670   21.3650 O   0  0  0  0  0  0  0  0  0  0  0  0
   13.3640   -1.9680   21.2000 Cl  0  0  0  0  0  0  0  0  0  0  0  0
    7.0840   -0.7850   21.4010 N   0  0  0  0  0  0  0  0  0  0  0  0
    8.9730   -0.6800   22.8380 N   0  0  0  0  0  0  0  0  0  0  0  0
    8.1970   -0.0380   21.8210 C   0  0  0  0  0  0  0  0  0  0  0  0
    6.3390   -1.6530   22.3550 C   0  0  0  0  0  0  0  0  0  0  0  0
    6.9920   -4.3850   21.4810 N   0  0  0  0  0  0  0  0  0  0  0  0
    6.3310   -5.2680   22.3030 C   0  0  0  0  0  0  0  0  0  0  0  0
    5.7300   -4.5350   23.3210 C   0  0  0  0  0  0  0  0  0  0  0  0
    6.5540   -3.6340   23.9860 C   0  0  1  0  0  0  0  0  0  0  0  0
    7.2160   -2.7370   23.1000 C   0  0  1  0  0  0  0  0  0  0  0  0
    7.9220   -3.4870   22.1770 C   0  0  0  0  0  0  0  0  0  0  0  0
    7.9260   -3.8760   26.6400 C   0  0  0  0  0  0  0  0  0  0  0  0
    7.9100   -5.1820   27.1360 C   0  0  0  0  0  0  0  0  0  0  0  0
    7.2820   -5.2010   28.5280 C   0  0  0  0  0  0  0  0  0  0  0  0
    5.8360   -4.6470   28.4900 C   0  0  0  0  0  0  0  0  0  0  0  0
    5.7340   -3.3850   27.6360 C   0  0  0  0  0  0  0  0  0  0  0  0
    6.5250   -3.5230   26.4040 N   0  0  0  0  0  0  0  0  0  0  0  0
    4.5090    1.2250   19.1760 C   0  0  0  0  0  0  0  0  0  0  0  0
    5.0460    0.6050   20.4710 C   0  0  0  0  0  0  0  0  0  0  0  0
    6.3680   -0.1430   20.2930 C   0  0  0  0  0  0  0  0  0  0  0  0
    6.9120   -0.1840   19.0210 C   0  0  0  0  0  0  0  0  0  0  0  0
    6.3620    0.4270   17.8120 N   0  0  0  0  0  0  0  0  0  0  0  0
    5.2060    1.0890   17.9680 C   0  0  0  0  0  0  0  0  0  0  0  0
   10.8320    0.7130   23.6400 C   0  0  0  0  0  0  0  0  0  0  0  0
   12.1940    0.9120   23.5740 C   0  0  0  0  0  0  0  0  0  0  0  0
   13.0570    0.1350   22.8530 C   0  0  0  0  0  0  0  0  0  0  0  0
   12.4880   -0.9130   22.1580 C   0  0  0  0  0  0  0  0  0  0  0  0
   11.1510   -1.1490   22.1910 C   0  0  0  0  0  0  0  0  0  0  0  0
   10.3050   -0.3490   22.9180 C   0  0  0  0  0  0  0  0  0  0  0  0
  1  3  1  0
  2  3  2  0
  4  5  2  0
  7 11  2  0
  9 11  1  0
 10 11  1  0
  9 12  1  0
  3 13  1  0
 13 14  1  0
 14 15  1  0
 16  5  1  1
 15 16  1  0
 17 12  1  6
 16 17  1  0
 13 18  1  0
 17 18  1  0
 19 20  1  0
 20 21  1  0
 21 22  1  0
 22 23  1  0
  5 24  1  0
 19 24  1  0
 23 24  1  0
  6 25  1  0
 25 26  2  0
  9 27  1  0
 26 27  1  0
 27 28  2  0
 28 29  1  0
 25 30  1  0
 29 30  2  0
 31 32  2  0
 32 33  1  0
  8 34  1  0
 33 34  2  0
 34 35  1  0
 10 36  1  0
 31 36  1  0
 35 36  2  0
M  END
