x1384-x2705-x0978
     RDKit          3D

 55 61  0  0  0  0  0  0  0  0999 V2000
    7.4020   -1.1770   22.0150 N   0  0  0  0  0  0  0  0  0  0  0  0
    7.6670    2.1800   22.8220 N   0  0  0  0  0  0  0  0  0  0  0  0
    9.0600    1.4820   21.1730 O   0  0  0  0  0  0  0  0  0  0  0  0
    7.0000    0.2000   21.6120 C   0  0  1  0  0  0  0  0  0  0  0  0
    8.0360    1.3210   21.8260 C   0  0  0  0  0  0  0  0  0  0  0  0
   10.2670    2.1930   23.9020 C   0  0  0  0  0  0  0  0  0  0  0  0
    9.3080    1.3620   24.7850 C   0  0  0  0  0  0  0  0  0  0  0  0
    6.2840    4.5990   21.9570 C   0  0  0  0  0  0  0  0  0  0  0  0
   12.3490   -1.4420   23.1750 C   0  0  0  0  0  0  0  0  0  0  0  0
   12.9150   -0.0340   23.3980 C   0  0  0  0  0  0  0  0  0  0  0  0
   12.9440   -2.3770   24.3010 C   0  0  0  0  0  0  0  0  0  0  0  0
   12.7940   -1.9810   21.7990 C   0  0  0  0  0  0  0  0  0  0  0  0
    1.8010   -5.6960   23.5190 N   0  0  0  0  0  0  0  0  0  0  0  0
    1.9790   -8.4990   24.5020 C   0  0  0  0  0  0  0  0  0  0  0  0
    4.2450   -8.0340   24.5210 O   0  0  0  0  0  0  0  0  0  0  0  0
    2.9420   -7.4940   24.5050 C   0  0  1  0  0  0  0  0  0  0  0  0
    0.7730   -7.3720   21.8190 O   0  0  0  0  0  0  0  0  0  0  0  0
    2.9900   -6.5620   23.5060 C   0  0  2  0  0  0  0  0  0  0  0  0
    5.2710   -5.7580   24.5430 N   0  0  0  0  0  0  0  0  0  0  0  0
    0.7550   -6.1960   22.6410 C   0  0  0  0  0  0  0  0  0  0  0  0
   -0.4240   -5.4410   22.5900 C   0  0  0  0  0  0  0  0  0  0  0  0
    5.2660   -4.2610   21.9200 C   0  0  0  0  0  0  0  0  0  0  0  0
    6.3920   -2.0080   22.5520 C   0  0  0  0  0  0  0  0  0  0  0  0
    6.4750   -3.4980   22.3120 C   0  0  2  0  0  0  0  0  0  0  0  0
    7.2870   -3.7330   21.2730 N   0  0  0  0  0  0  0  0  0  0  0  0
    7.6320   -3.1230   19.0210 C   0  0  0  0  0  0  0  0  0  0  0  0
    5.5850   -4.0980   19.7390 O   0  0  0  0  0  0  0  0  0  0  0  0
    6.7110   -3.6900   20.0400 C   0  0  0  0  0  0  0  0  0  0  0  0
    5.8290   -2.1930   26.3070 O   0  0  0  0  0  0  0  0  0  0  0  0
    6.3300    0.2110   17.8250 N   0  0  0  0  0  0  0  0  0  0  0  0
    5.1510    1.0480   17.8150 C   0  0  0  0  0  0  0  0  0  0  0  0
    4.6420    1.5280   18.9920 C   0  0  0  0  0  0  0  0  0  0  0  0
    5.2470    1.2320   20.1890 C   0  0  0  0  0  0  0  0  0  0  0  0
    6.3950    0.4350   20.2480 C   0  0  0  0  0  0  0  0  0  0  0  0
    6.9600   -0.1000   19.0900 C   0  0  0  0  0  0  0  0  0  0  0  0
   10.0630   -1.3730   24.4820 N   0  0  0  0  0  0  0  0  0  0  0  0
    8.7560   -1.3040   24.1690 N   0  0  0  0  0  0  0  0  0  0  0  0
    8.6520   -1.2570   22.8180 C   0  0  0  0  0  0  0  0  0  0  0  0
    9.8850   -1.2960   22.1580 C   0  0  0  0  0  0  0  0  0  0  0  0
   10.8590   -1.3770   23.2930 C   0  0  0  0  0  0  0  0  0  0  0  0
    9.6260    3.5360   23.5020 C   0  0  0  0  0  0  0  0  0  0  0  0
   10.3910    4.8530   23.6910 C   0  0  0  0  0  0  0  0  0  0  0  0
    9.6370    6.1090   23.2390 C   0  0  0  0  0  0  0  0  0  0  0  0
    8.2440    5.9230   22.6620 C   0  0  0  0  0  0  0  0  0  0  0  0
    7.6660    4.6570   22.5500 C   0  0  0  0  0  0  0  0  0  0  0  0
    8.3400    3.5070   22.9630 C   0  0  0  0  0  0  0  0  0  0  0  0
    4.4650   -3.3580   24.1200 C   0  0  0  0  0  0  0  0  0  0  0  0
    4.7220   -4.5060   24.1690 C   0  0  0  0  0  0  0  0  0  0  0  0
    5.1150   -4.2560   25.2520 C   0  0  1  0  0  0  0  0  0  0  0  0
    4.0830   -5.2710   25.1950 C   0  0  0  0  0  0  0  0  0  0  0  0
    4.2070   -5.6020   23.7010 C   0  0  1  0  0  0  0  0  0  0  0  0
    4.2260   -4.2620   23.0160 C   0  0  2  0  0  0  0  0  0  0  0  0
    4.8930   -3.2540   26.3870 C   0  0  2  0  0  0  0  0  0  0  0  0
    3.7120   -2.7350   26.0160 C   0  0  0  0  0  0  0  0  0  0  0  0
    3.2030   -2.6740   24.7070 C   0  0  0  0  0  0  0  0  0  0  0  0
  1  4  1  0
  2  5  1  0
  3  5  2  0
  4  5  1  6
  6  7  1  0
  9 10  1  0
  9 11  1  0
  9 12  1  0
 16 14  1  6
 15 16  1  0
 18 13  1  1
 16 18  1  0
 13 20  1  0
 17 20  2  0
 20 21  1  0
  1 23  1  0
 24 22  1  6
 23 24  1  0
 24 25  1  0
 25 28  1  0
 26 28  1  0
 27 28  2  0
 30 31  2  0
 31 32  1  0
 32 33  2  0
  4 34  1  0
 33 34  1  0
 30 35  1  0
 34 35  2  0
 36 37  1  0
  1 38  1  0
 37 38  2  0
 38 39  1  0
  9 40  1  0
 36 40  1  0
 39 40  2  0
  6 41  1  0
 41 42  2  0
 42 43  1  0
 43 44  2  0
  8 45  1  0
 44 45  1  0
  2 46  1  0
 41 46  1  0
 45 46  2  0
 19 48  2  0
 47 48  1  0
 47 49  1  0
 48 49  1  0
 49 50  1  1
 18 51  1  0
 51 19  1  0
 51 50  1  1
 52 22  1  6
 47 52  1  0
 51 52  1  0
 53 29  1  6
 49 53  1  0
 53 54  1  0
 47 55  1  0
 54 55  2  0
M  END
