x1386-x0978-x3110
     RDKit          3D

 47 50  0  0  0  0  0  0  0  0999 V2000
    7.9060    1.4840   23.1010 N   0  0  0  0  0  0  0  0  0  0  0  0
   13.3730    5.1820   22.8940 C   0  0  0  0  0  0  0  0  0  0  0  0
   12.0670    3.3830   22.4180 O   0  0  0  0  0  0  0  0  0  0  0  0
   12.4160    4.4750   21.9600 C   0  0  0  0  0  0  0  0  0  0  0  0
   10.9320    4.3110   24.1270 O   0  0  0  0  0  0  0  0  0  0  0  0
   11.1050    3.3160   23.4020 C   0  0  0  0  0  0  0  0  0  0  0  0
    8.9300    1.8270   20.9620 O   0  0  0  0  0  0  0  0  0  0  0  0
   10.2480    2.0190   23.5920 C   0  0  0  0  0  0  0  0  0  0  0  0
    8.7970    2.4130   23.6330 C   0  0  0  0  0  0  0  0  0  0  0  0
    8.0300    1.0620   21.7280 C   0  0  0  0  0  0  0  0  0  0  0  0
    7.2080   -0.1210   21.1990 C   0  0  1  0  0  0  0  0  0  0  0  0
   12.3260   -1.9740   24.0190 C   0  0  0  0  0  0  0  0  0  0  0  0
   12.5820   -0.6960   24.7720 C   0  0  0  0  0  0  0  0  0  0  0  0
   13.2240   -2.0900   22.8280 C   0  0  0  0  0  0  0  0  0  0  0  0
   12.7570   -3.0580   24.9950 C   0  0  0  0  0  0  0  0  0  0  0  0
    7.4020   -2.9610   18.8370 C   0  0  0  0  0  0  0  0  0  0  0  0
    5.5410   -3.8250   19.6610 O   0  0  0  0  0  0  0  0  0  0  0  0
    6.6120   -3.2150   19.8900 C   0  0  0  0  0  0  0  0  0  0  0  0
    2.0810   -5.5960   23.0250 N   0  0  0  0  0  0  0  0  0  0  0  0
    2.1690   -8.1230   24.6380 C   0  0  0  0  0  0  0  0  0  0  0  0
    4.5250   -7.7660   24.7200 O   0  0  0  0  0  0  0  0  0  0  0  0
    3.3250   -7.0900   24.4980 C   0  0  1  0  0  0  0  0  0  0  0  0
    5.8370   -5.8170   22.7740 N   0  0  0  0  0  0  0  0  0  0  0  0
    0.9160   -7.3150   22.0200 O   0  0  0  0  0  0  0  0  0  0  0  0
    3.3610   -6.3400   23.1670 C   0  0  2  0  0  0  0  0  0  0  0  0
    4.3620   -4.1300   23.2150 O   0  0  0  0  0  0  0  0  0  0  0  0
    0.9310   -6.2180   22.5660 C   0  0  0  0  0  0  0  0  0  0  0  0
   -0.2590   -5.4870   22.7630 C   0  0  0  0  0  0  0  0  0  0  0  0
    4.5700   -5.3250   23.0500 C   0  0  0  0  0  0  0  0  0  0  0  0
    6.6600   -5.3030   21.7660 C   0  0  0  0  0  0  0  0  0  0  0  0
    7.5950   -4.2170   21.9470 C   0  0  0  0  0  0  0  0  0  0  0  0
    6.2790    0.5610   17.6040 N   0  0  0  0  0  0  0  0  0  0  0  0
    5.2040    1.3640   17.7310 C   0  0  0  0  0  0  0  0  0  0  0  0
    4.6370    1.7620   18.9420 C   0  0  0  0  0  0  0  0  0  0  0  0
    5.2810    1.2680   20.2440 C   0  0  0  0  0  0  0  0  0  0  0  0
    6.5030    0.3770   19.9970 C   0  0  0  0  0  0  0  0  0  0  0  0
    6.8860    0.0990   18.7070 C   0  0  0  0  0  0  0  0  0  0  0  0
    9.0120   -1.4600   22.3360 C   0  0  1  0  0  0  0  0  0  0  0  0
   10.3770   -1.5570   22.3750 C   0  0  0  0  0  0  0  0  0  0  0  0
   10.8580   -1.9560   23.6120 C   0  0  0  0  0  0  0  0  0  0  0  0
    9.7780   -2.2950   24.4710 C   0  0  0  0  0  0  0  0  0  0  0  0
    8.5650   -1.9250   23.8230 C   0  0  1  0  0  0  0  0  0  0  0  0
    8.6390   -0.7480   23.3450 C   0  0  0  0  0  0  0  0  0  0  0  0
    7.1450   -2.8470   21.3350 C   0  0  1  0  0  0  0  0  0  0  0  0
    7.8190   -1.5740   21.4100 C   0  0  1  0  0  0  0  0  0  0  0  0
    7.1480   -2.4530   23.8530 C   0  0  0  0  0  0  0  0  0  0  0  0
    6.4090   -2.8580   22.6650 C   0  0  0  0  0  0  0  0  0  0  0  0
  2  4  1  0
  3  4  1  0
  3  6  1  0
  5  6  2  0
  6  8  1  0
  1  9  1  0
  8  9  1  0
  1 10  1  0
  7 10  2  0
 11 10  1  6
 12 13  1  0
 12 14  1  0
 12 15  1  0
 16 18  1  0
 17 18  2  0
 22 20  1  6
 21 22  1  0
 25 19  1  1
 22 25  1  0
 19 27  1  0
 24 27  2  0
 27 28  1  0
 23 29  1  0
 25 29  1  0
 26 29  2  0
 23 30  1  0
 30 31  1  0
 32 33  2  0
 33 34  1  0
 34 35  2  0
 11 36  1  0
 35 36  1  0
 32 37  1  0
 36 37  2  0
 38 39  1  6
 12 40  1  0
 39 40  2  0
 40 41  1  0
 38 42  1  0
 42 41  1  1
 38 43  1  0
 42 43  1  0
 44 18  1  0
 44 31  1  1
 45 11  1  1
 38 45  1  0
 44 45  1  0
 42 46  1  0
 44 47  1  0
 46 47  2  0
M  END
