x1385-x2694
     RDKit          3D

 43 47  0  0  0  0  0  0  0  0999 V2000
    7.8580    2.0550   22.4210 N   0  0  0  0  0  0  0  0  0  0  0  0
    9.7330    0.9850   21.7960 O   0  0  0  0  0  0  0  0  0  0  0  0
   10.8370    6.6300   24.0130 O   0  0  0  0  0  0  0  0  0  0  0  0
    7.7520   -0.1170   21.0480 C   0  0  2  0  0  0  0  0  0  0  0  0
    8.5220    0.9930   21.7920 C   0  0  0  0  0  0  0  0  0  0  0  0
   10.2760    1.8100   24.0730 C   0  0  0  0  0  0  0  0  0  0  0  0
   11.7950    6.3850   24.7580 C   0  0  0  0  0  0  0  0  0  0  0  0
   12.2690   -1.1590   23.0520 C   0  0  0  0  0  0  0  0  0  0  0  0
   12.6150    0.3280   23.2750 C   0  0  0  0  0  0  0  0  0  0  0  0
   12.9580   -1.6690   21.8270 C   0  0  0  0  0  0  0  0  0  0  0  0
   12.8900   -1.9430   24.2240 C   0  0  0  0  0  0  0  0  0  0  0  0
    7.4460   -2.8770   18.8460 C   0  0  0  0  0  0  0  0  0  0  0  0
    5.5970   -3.9760   19.7710 O   0  0  0  0  0  0  0  0  0  0  0  0
    6.4870   -3.1170   19.9850 C   0  0  0  0  0  0  0  0  0  0  0  0
    9.7340   -3.1140   24.3770 C   0  0  0  0  0  0  0  0  0  0  0  0
    6.9180   -5.9200   28.5150 Br  0  0  0  0  0  0  0  0  0  0  0  0
    6.2600    0.5350   17.7190 N   0  0  0  0  0  0  0  0  0  0  0  0
    5.1110    1.3850   17.9610 C   0  0  0  0  0  0  0  0  0  0  0  0
    4.8170    1.7390   19.4080 C   0  0  0  0  0  0  0  0  0  0  0  0
    5.6430    1.2650   20.4410 C   0  0  0  0  0  0  0  0  0  0  0  0
    6.7250    0.4710   20.1000 C   0  0  0  0  0  0  0  0  0  0  0  0
    6.9590    0.1530   18.7760 C   0  0  0  0  0  0  0  0  0  0  0  0
    8.9090   -2.1050   23.8910 N   0  0  0  0  0  0  0  0  0  0  0  0
    9.9000   -1.0410   23.9940 O   0  0  0  0  0  0  0  0  0  0  0  0
   10.7590   -1.4480   22.9910 C   0  0  0  0  0  0  0  0  0  0  0  0
   10.0180   -2.1310   22.0340 C   0  0  0  0  0  0  0  0  0  0  0  0
    8.7000   -2.2860   22.4550 C   0  0  1  0  0  0  0  0  0  0  0  0
    9.7460    3.1660   23.5880 C   0  0  0  0  0  0  0  0  0  0  0  0
   10.4570    4.3270   23.9470 C   0  0  0  0  0  0  0  0  0  0  0  0
   10.0410    5.5900   23.5720 C   0  0  0  0  0  0  0  0  0  0  0  0
    8.8780    5.7000   22.8000 C   0  0  0  0  0  0  0  0  0  0  0  0
    8.1430    4.5600   22.4100 C   0  0  0  0  0  0  0  0  0  0  0  0
    8.5670    3.2680   22.7980 C   0  0  0  0  0  0  0  0  0  0  0  0
    6.6550   -2.3540   21.3060 N   0  0  0  0  0  0  0  0  0  0  0  0
    6.1750   -2.9880   22.3980 C   0  0  0  0  0  0  0  0  0  0  0  0
    7.0630   -4.0180   22.7540 C   0  0  0  0  0  0  0  0  0  0  0  0
    8.4070   -3.5980   22.3220 N   0  0  0  0  0  0  0  0  0  0  0  0
    7.4740   -1.5150   21.6990 C   0  0  2  0  0  0  0  0  0  0  0  0
    9.7310   -5.4110   25.5350 C   0  0  0  0  0  0  0  0  0  0  0  0
    9.2330   -4.1140   25.3460 C   0  0  0  0  0  0  0  0  0  0  0  0
    7.9260   -3.7510   26.4020 S   0  0  0  0  0  0  0  0  0  0  0  0
    8.0640   -5.3470   27.1100 C   0  0  0  0  0  0  0  0  0  0  0  0
    9.0550   -6.1070   26.5500 C   0  0  0  0  0  0  0  0  0  0  0  0
  1  5  1  0
  2  5  2  0
  4  5  1  1
  3  7  1  0
  8  9  1  0
  8 10  1  0
  8 11  1  0
 12 14  1  0
 13 14  2  0
 17 18  2  0
 18 19  1  0
 19 20  2  0
  4 21  1  0
 20 21  1  0
 17 22  1  0
 21 22  2  0
 15 23  1  0
 23 24  1  0
  8 25  1  0
 24 25  1  0
 25 26  2  0
 23 27  1  0
 27 26  1  6
  6 28  1  0
 28 29  2  0
  3 30  1  0
 29 30  1  0
 30 31  2  0
 31 32  1  0
  1 33  1  0
 28 33  1  0
 32 33  2  0
 14 34  1  0
 34 35  1  0
 35 36  1  0
 27 37  1  0
 36 37  1  0
  4 38  1  0
 27 38  1  0
 38 34  1  6
 15 40  1  0
 39 40  2  0
 40 41  1  0
 16 42  1  0
 41 42  1  0
 39 43  1  0
 42 43  2  0
M  END
