x1384-x2600
     RDKit          3D

 35 39  0  0  0  0  0  0  0  0999 V2000
    6.1710   -3.2400   21.5560 N   0  0  0  0  0  0  0  0  0  0  0  0
    7.1810   -3.1630   19.2470 C   0  0  0  0  0  0  0  0  0  0  0  0
    5.4160   -4.6260   19.9300 O   0  0  0  0  0  0  0  0  0  0  0  0
    6.1940   -3.7430   20.2640 C   0  0  0  0  0  0  0  0  0  0  0  0
   13.5370   -3.3530   20.6340 N   0  0  0  0  0  0  0  0  0  0  0  0
    8.1790    0.6300   21.5730 C   0  0  0  0  0  0  0  0  0  0  0  0
    8.6650    1.6850   21.1380 O   0  0  0  0  0  0  0  0  0  0  0  0
    8.6250   -0.0800   22.8210 C   0  0  0  0  0  0  0  0  0  0  0  0
    7.2100   -0.1250   21.0230 N   0  0  0  0  0  0  0  0  0  0  0  0
   12.9360   -2.4100   21.3840 C   0  0  0  0  0  0  0  0  0  0  0  0
    6.9340   -2.1120   21.8690 C   0  0  0  0  0  0  0  0  0  0  0  0
    7.5600   -1.4800   20.8030 C   0  0  0  0  0  0  0  0  0  0  0  0
    6.2330    0.6670   17.6530 N   0  0  0  0  0  0  0  0  0  0  0  0
    6.8900    0.1510   18.6870 C   0  0  0  0  0  0  0  0  0  0  0  0
    6.5500    0.3800   19.9940 C   0  0  0  0  0  0  0  0  0  0  0  0
    5.4550    1.1830   20.2900 C   0  0  0  0  0  0  0  0  0  0  0  0
    4.7650    1.7240   19.1990 C   0  0  0  0  0  0  0  0  0  0  0  0
    5.1670    1.4620   17.8740 C   0  0  0  0  0  0  0  0  0  0  0  0
   10.7780    0.5820   23.8730 C   0  0  0  0  0  0  0  0  0  0  0  0
   12.2510    0.4650   24.0330 C   0  0  0  0  0  0  0  0  0  0  0  0
   13.0140   -0.5370   23.2130 C   0  0  0  0  0  0  0  0  0  0  0  0
   12.2450   -1.4150   22.2230 C   0  0  0  0  0  0  0  0  0  0  0  0
   10.7180   -1.2130   22.1380 C   0  0  0  0  0  0  0  0  0  0  0  0
   10.1190   -0.2360   22.9650 C   0  0  0  0  0  0  0  0  0  0  0  0
    5.7350   -2.1920   26.2330 O   0  0  0  0  0  0  0  0  0  0  0  0
    3.8810   -3.9320   23.9680 C   0  0  2  0  0  0  0  0  0  0  0  0
    5.1460   -3.5730   23.7760 C   0  0  1  0  0  0  0  0  0  0  0  0
    5.3080   -4.1680   24.9290 C   0  0  2  0  0  0  0  0  0  0  0  0
    5.4010   -5.5780   24.9340 C   0  0  0  0  0  0  0  0  0  0  0  0
    4.4530   -6.1480   24.0840 C   0  0  0  0  0  0  0  0  0  0  0  0
    3.5870   -5.2480   23.5390 C   0  0  0  0  0  0  0  0  0  0  0  0
    5.0770   -3.4380   26.1120 C   0  0  2  0  0  0  0  0  0  0  0  0
    3.9750   -3.3440   25.4510 C   0  0  0  0  0  0  0  0  0  0  0  0
    2.8460   -3.1510   25.0030 C   0  0  0  0  0  0  0  0  0  0  0  0
    5.9160   -4.1490   22.6430 C   0  0  0  0  0  0  0  0  0  0  0  0
  1  4  1  0
  2  4  1  0
  3  4  2  0
  6  7  2  0
  6  8  1  0
  6  9  1  0
  5 10  3  0
  1 11  1  0
  9 12  1  0
 11 12  1  0
 13 14  2  0
  9 15  1  0
 14 15  1  0
 15 16  2  0
 16 17  1  0
 13 18  1  0
 17 18  2  0
 19 20  2  0
 20 21  1  0
 10 22  1  0
 21 22  2  0
 22 23  1  0
  8 24  1  0
 19 24  1  0
 23 24  2  0
 26 27  1  0
 26 28  1  0
 27 28  1  0
 28 29  1  1
 29 30  1  0
 26 31  1  6
 30 31  2  0
 32 25  1  6
 28 32  1  0
 32 33  1  0
 26 34  1  0
 33 34  2  0
  1 35  1  0
 27 35  1  6
M  END
