x1385-x1412
     RDKit          3D

 17 18  0  0  0  0  0  0  0  0999 V2000
    7.4620   -2.9560   18.7330 C   0  0  0  0  0  0  0  0  0  0  0  0
    5.4950   -3.9420   19.6560 O   0  0  0  0  0  0  0  0  0  0  0  0
    6.4850   -3.2290   19.8510 C   0  0  0  0  0  0  0  0  0  0  0  0
    8.8980   -2.9360   24.1430 C   0  0  0  0  0  0  0  0  0  0  0  0
    7.1510   -5.9480   28.6630 Br  0  0  0  0  0  0  0  0  0  0  0  0
    8.9010   -1.8590   24.7490 O   0  0  0  0  0  0  0  0  0  0  0  0
    6.7700   -2.6910   21.1100 N   0  0  0  0  0  0  0  0  0  0  0  0
    6.9640   -3.6450   22.2070 C   0  0  0  0  0  0  0  0  0  0  0  0
    8.5040   -3.6900   22.2970 C   0  0  0  0  0  0  0  0  0  0  0  0
    8.9500   -2.6670   23.0490 N   0  0  0  0  0  0  0  0  0  0  0  0
    8.1720   -1.4540   22.7540 C   0  0  0  0  0  0  0  0  0  0  0  0
    7.6840   -1.5320   21.2890 C   0  0  0  0  0  0  0  0  0  0  0  0
    9.5640   -5.2320   25.3190 C   0  0  0  0  0  0  0  0  0  0  0  0
    8.7660   -3.9430   25.2050 C   0  0  0  0  0  0  0  0  0  0  0  0
    7.6190   -3.7800   26.4630 S   0  0  0  0  0  0  0  0  0  0  0  0
    8.0920   -5.3370   27.1380 C   0  0  0  0  0  0  0  0  0  0  0  0
    9.1210   -6.0540   26.5190 C   0  0  0  0  0  0  0  0  0  0  0  0
  1  3  1  0
  2  3  2  0
  4  6  2  0
  3  7  1  0
  7  8  1  0
  8  9  1  0
  4 10  1  0
  9 10  1  0
 10 11  1  0
  7 12  1  0
 11 12  1  0
  4 14  1  0
 13 14  2  0
 14 15  1  0
  5 16  1  0
 15 16  1  0
 13 17  1  0
 16 17  2  0
M  END
