x1380-x2705-x2776
     RDKit          3D

 50 54  0  0  0  0  0  0  0  0999 V2000
    7.4560   -0.8130   22.2890 N   0  0  0  0  0  0  0  0  0  0  0  0
    7.4090    2.4150   22.7280 N   0  0  0  0  0  0  0  0  0  0  0  0
    9.0210    1.5910   21.1040 O   0  0  0  0  0  0  0  0  0  0  0  0
    7.0330    0.4190   21.7490 C   0  0  1  0  0  0  0  0  0  0  0  0
    7.8880    1.5050   21.8420 C   0  0  0  0  0  0  0  0  0  0  0  0
    9.7480    2.3020   24.0690 C   0  0  0  0  0  0  0  0  0  0  0  0
   11.0630    2.0350   23.7480 C   0  0  0  0  0  0  0  0  0  0  0  0
    6.1920    4.6250   21.7090 C   0  0  0  0  0  0  0  0  0  0  0  0
   12.3630   -1.5370   23.1460 C   0  0  0  0  0  0  0  0  0  0  0  0
   13.0300   -0.4210   23.6190 C   0  0  0  0  0  0  0  0  0  0  0  0
   12.8070   -2.7630   23.9590 C   0  0  0  0  0  0  0  0  0  0  0  0
   12.7900   -1.7580   21.6940 C   0  0  0  0  0  0  0  0  0  0  0  0
   13.2170   -2.5740   25.2520 C   0  0  0  0  0  0  0  0  0  0  0  0
   10.8000    6.0560   24.1010 O   0  0  0  0  0  0  0  0  0  0  0  0
   11.8360    6.1300   24.7620 C   0  0  0  0  0  0  0  0  0  0  0  0
    7.1330   -3.3980   19.3630 C   0  0  0  0  0  0  0  0  0  0  0  0
    5.3360   -4.8550   19.9770 O   0  0  0  0  0  0  0  0  0  0  0  0
    6.4020   -4.3490   20.3000 C   0  0  0  0  0  0  0  0  0  0  0  0
    4.6050   -2.7020   25.3010 O   0  0  0  0  0  0  0  0  0  0  0  0
    5.8670   -3.3470   25.3340 C   0  0  0  0  0  0  0  0  0  0  0  0
    6.5970   -1.4540   23.1960 C   0  0  0  0  0  0  0  0  0  0  0  0
    6.3560    0.0250   17.9720 N   0  0  0  0  0  0  0  0  0  0  0  0
    5.2480    0.7980   17.9380 C   0  0  0  0  0  0  0  0  0  0  0  0
    4.6910    1.4290   19.0380 C   0  0  0  0  0  0  0  0  0  0  0  0
    5.2970    1.2780   20.2780 C   0  0  0  0  0  0  0  0  0  0  0  0
    6.4520    0.4830   20.3360 C   0  0  0  0  0  0  0  0  0  0  0  0
    6.9510   -0.1290   19.1860 C   0  0  0  0  0  0  0  0  0  0  0  0
   10.2040   -1.2840   24.4290 N   0  0  0  0  0  0  0  0  0  0  0  0
    8.8720   -1.0880   24.2350 N   0  0  0  0  0  0  0  0  0  0  0  0
    8.7580   -1.0220   22.8830 C   0  0  0  0  0  0  0  0  0  0  0  0
    9.9640   -1.1750   22.2130 C   0  0  0  0  0  0  0  0  0  0  0  0
   10.8490   -1.3340   23.2500 C   0  0  0  0  0  0  0  0  0  0  0  0
    9.3270    3.6800   23.6180 C   0  0  0  0  0  0  0  0  0  0  0  0
   10.1750    4.8300   23.9280 C   0  0  0  0  0  0  0  0  0  0  0  0
    9.4010    5.9100   23.3230 C   0  0  0  0  0  0  0  0  0  0  0  0
    8.1700    5.8800   22.6300 C   0  0  0  0  0  0  0  0  0  0  0  0
    7.5160    4.7120   22.4380 C   0  0  0  0  0  0  0  0  0  0  0  0
    8.1090    3.5980   22.9420 C   0  0  0  0  0  0  0  0  0  0  0  0
    7.0480   -4.6320   21.4950 N   0  0  0  0  0  0  0  0  0  0  0  0
    6.4290   -5.6550   22.3640 C   0  0  0  0  0  0  0  0  0  0  0  0
    5.9880   -5.2050   23.6480 C   0  0  0  0  0  0  0  0  0  0  0  0
    6.4820   -3.9450   24.0510 C   0  0  1  0  0  0  0  0  0  0  0  0
    6.4980   -2.9450   22.9330 C   0  0  2  0  0  0  0  0  0  0  0  0
    7.6260   -3.4900   22.1250 C   0  0  0  0  0  0  0  0  0  0  0  0
    7.7630   -4.3030   26.4840 C   0  0  0  0  0  0  0  0  0  0  0  0
    7.6780   -5.3550   27.5960 C   0  0  0  0  0  0  0  0  0  0  0  0
    7.2050   -4.9840   28.7540 C   0  0  0  0  0  0  0  0  0  0  0  0
    5.7570   -4.7580   28.2860 C   0  0  0  0  0  0  0  0  0  0  0  0
    5.9420   -3.4650   27.8540 C   0  0  0  0  0  0  0  0  0  0  0  0
    6.5760   -3.4560   26.5300 N   0  0  0  0  0  0  0  0  0  0  0  0
  1  4  1  0
  2  5  1  0
  3  5  2  0
  4  5  1  6
  6  7  1  0
  9 10  1  0
  9 11  1  0
  9 12  1  0
 11 13  1  0
 14 15  1  0
 16 18  1  0
 17 18  2  0
 19 20  2  0
  1 21  1  0
 22 23  2  0
 23 24  1  0
 24 25  2  0
  4 26  1  0
 25 26  1  0
 22 27  1  0
 26 27  2  0
 28 29  1  0
  1 30  1  0
 29 30  2  0
 30 31  1  0
  9 32  1  0
 28 32  1  0
 31 32  2  0
  6 33  1  0
 14 34  1  0
 33 34  2  0
 34 35  1  0
 35 36  2  0
  8 37  1  0
 36 37  1  0
  2 38  1  0
 33 38  1  0
 37 38  2  0
 18 39  1  0
 39 40  1  0
 40 41  1  0
 42 20  1  1
 41 42  1  0
 43 21  1  1
 42 43  1  0
 39 44  1  0
 43 44  1  0
 45 46  1  0
 46 47  1  0
 47 48  1  0
 48 49  1  0
 20 50  1  0
 45 50  1  0
 49 50  1  0
M  END
