x1384-x0397
     RDKit          3D

 23 25  0  0  0  0  0  0  0  0999 V2000
    8.0220   -2.0480   20.6780 C   0  0  0  0  0  0  0  0  0  0  0  0
    7.3320   -2.9390   19.6170 C   0  0  2  0  0  0  0  0  0  0  0  0
    6.8450   -2.0480   18.4520 C   0  0  0  0  0  0  0  0  0  0  0  0
    3.8600    1.9200   19.7480 C   0  0  0  0  0  0  0  0  0  0  0  0
    6.2080   -3.6460   20.3400 C   0  0  0  0  0  0  0  0  0  0  0  0
    5.2630   -4.1840   19.7620 O   0  0  0  0  0  0  0  0  0  0  0  0
    6.2930   -3.6910   21.7410 N   0  0  0  0  0  0  0  0  0  0  0  0
    5.1540   -0.4500   19.5190 C   0  0  0  0  0  0  0  0  0  0  0  0
    6.1500   -0.8160   18.6360 C   0  0  0  0  0  0  0  0  0  0  0  0
    6.4350    0.3550   17.7890 N   0  0  0  0  0  0  0  0  0  0  0  0
    5.6100    1.4110   18.1670 O   0  0  0  0  0  0  0  0  0  0  0  0
    4.7670    0.9970   19.2410 C   0  0  0  0  0  0  0  0  0  0  0  0
    6.6060   -5.3970   23.4160 C   0  0  0  0  0  0  0  0  0  0  0  0
    5.6600   -4.7180   22.5560 C   0  0  0  0  0  0  0  0  0  0  0  0
    6.0920   -5.9670   22.1240 C   0  0  0  0  0  0  0  0  0  0  0  0
    5.5460   -2.2650   26.2700 O   0  0  0  0  0  0  0  0  0  0  0  0
    2.3970   -3.7300   25.7130 C   0  0  0  0  0  0  0  0  0  0  0  0
    3.6410   -3.1280   25.1420 N   0  0  0  0  0  0  0  0  0  0  0  0
    4.1820   -2.0080   25.9340 C   0  0  1  0  0  0  0  0  0  0  0  0
    3.2260   -1.8790   27.1010 C   0  0  0  0  0  0  0  0  0  0  0  0
    2.0450   -2.8340   26.8940 C   0  0  0  0  0  0  0  0  0  0  0  0
    4.4650   -4.3280   23.0250 C   0  0  0  0  0  0  0  0  0  0  0  0
    4.5800   -4.0860   24.5590 C   0  0  0  0  0  0  0  0  0  0  0  0
  2  1  1  1
  2  3  1  0
  2  5  1  0
  5  6  2  0
  5  7  1  0
  3  9  1  0
  8  9  1  0
  9 10  2  0
 10 11  1  0
  4 12  1  0
  8 12  2  0
 11 12  1  0
 14  7  1  0
 13 14  1  0
 13 15  1  0
 14 15  1  0
 17 18  1  0
 19 16  1  1
 18 19  1  0
 19 20  1  0
 17 21  1  0
 20 21  1  0
 14 22  1  0
 18 23  1  0
 22 23  1  0
M  END
