x1386-x0104
     RDKit          3D

 26 28  0  0  0  0  0  0  0  0999 V2000
    9.0120    6.5280   22.6510 C   0  0  0  0  0  0  0  0  0  0  0  0
   10.2430    6.1710   23.4360 C   0  0  0  0  0  0  0  0  0  0  0  0
   10.3290    6.3120   24.6510 O   0  0  0  0  0  0  0  0  0  0  0  0
   11.3130    5.6410   22.6220 N   0  0  0  0  0  0  0  0  0  0  0  0
   12.4660    5.0210   23.2790 C   0  0  0  0  0  0  0  0  0  0  0  0
   12.7010    3.5940   22.7200 C   0  0  0  0  0  0  0  0  0  0  0  0
   13.6260   -2.0140   21.9210 F   0  0  0  0  0  0  0  0  0  0  0  0
    7.4550   -2.9820   18.6770 C   0  0  0  0  0  0  0  0  0  0  0  0
    5.5200   -3.9010   19.6630 O   0  0  0  0  0  0  0  0  0  0  0  0
    6.4980   -3.1520   19.8090 C   0  0  0  0  0  0  0  0  0  0  0  0
    9.3780   -1.7760   24.0590 C   0  0  0  0  0  0  0  0  0  0  0  0
   11.7400    2.5210   23.1900 C   0  0  0  0  0  0  0  0  0  0  0  0
   10.4200    2.6940   23.8830 C   0  0  0  0  0  0  0  0  0  0  0  0
    9.8320    1.4860   24.1090 N   0  0  0  0  0  0  0  0  0  0  0  0
   10.6470    0.4830   23.6240 C   0  0  0  0  0  0  0  0  0  0  0  0
   11.8410    0.9810   23.0650 C   0  0  0  0  0  0  0  0  0  0  0  0
   10.4510   -1.0230   23.5980 C   0  0  0  0  0  0  0  0  0  0  0  0
   11.5870   -1.7910   22.9660 C   0  0  0  0  0  0  0  0  0  0  0  0
   12.7350   -1.2210   22.4480 C   0  0  0  0  0  0  0  0  0  0  0  0
   12.9380    0.1370   22.4740 C   0  0  0  0  0  0  0  0  0  0  0  0
    6.8110   -2.4800   21.0160 N   0  0  0  0  0  0  0  0  0  0  0  0
    7.6360   -1.3880   20.9470 C   0  0  0  0  0  0  0  0  0  0  0  0
    8.7740   -1.5760   21.7580 C   0  0  0  0  0  0  0  0  0  0  0  0
    8.3760   -1.8560   23.1450 N   0  0  0  0  0  0  0  0  0  0  0  0
    7.6100   -2.9640   23.1840 C   0  0  0  0  0  0  0  0  0  0  0  0
    6.4950   -3.0290   22.3470 C   0  0  0  0  0  0  0  0  0  0  0  0
  1  2  1  0
  2  3  2  0
  2  4  1  0
  4  5  1  0
  5  6  1  0
  8 10  1  0
  9 10  2  0
  6 12  1  0
 12 13  2  0
 13 14  1  0
 14 15  1  0
 12 16  1  0
 15 16  2  0
 11 17  1  0
 15 17  1  0
 17 18  2  0
  7 19  1  0
 18 19  1  0
 16 20  1  0
 19 20  2  0
 10 21  1  0
 21 22  1  0
 22 23  1  0
 11 24  1  0
 23 24  1  0
 24 25  1  0
 21 26  1  0
 25 26  1  0
M  END
