x1386-x2572
     RDKit          3D

 29 32  0  0  0  0  0  0  0  0999 V2000
    4.3710    1.2790   21.4470 C   0  0  0  0  0  0  0  0  0  0  0  0
    8.4620    1.3080   21.2120 O   0  0  0  0  0  0  0  0  0  0  0  0
    6.8030   -0.4140   20.9680 N   0  0  0  0  0  0  0  0  0  0  0  0
   13.7010   -3.0230   20.6130 N   0  0  0  0  0  0  0  0  0  0  0  0
    7.9470    0.1930   21.4590 C   0  0  0  0  0  0  0  0  0  0  0  0
    8.6400   -0.6380   22.3100 C   0  0  2  0  0  0  0  0  0  0  0  0
   13.1430   -2.0530   21.4210 C   0  0  0  0  0  0  0  0  0  0  0  0
    7.5640   -2.8440   18.6260 C   0  0  0  0  0  0  0  0  0  0  0  0
    5.7440   -3.6980   19.6790 O   0  0  0  0  0  0  0  0  0  0  0  0
    6.6720   -2.8350   19.8200 C   0  0  0  0  0  0  0  0  0  0  0  0
    9.2760   -3.0300   24.0530 C   0  0  0  0  0  0  0  0  0  0  0  0
    6.2490    0.7240   17.5600 N   0  0  0  0  0  0  0  0  0  0  0  0
    6.6930    0.1870   18.4710 C   0  0  0  0  0  0  0  0  0  0  0  0
    6.2040    0.2460   19.8570 C   0  0  0  0  0  0  0  0  0  0  0  0
    5.0010    1.0900   20.1100 C   0  0  0  0  0  0  0  0  0  0  0  0
    4.5260    1.7010   18.9590 C   0  0  0  0  0  0  0  0  0  0  0  0
    5.1560    1.5040   17.7390 C   0  0  0  0  0  0  0  0  0  0  0  0
   10.5730    0.5730   23.4970 C   0  0  0  0  0  0  0  0  0  0  0  0
   11.9500    0.7050   23.7120 C   0  0  0  0  0  0  0  0  0  0  0  0
   12.8140   -0.1280   23.0600 C   0  0  0  0  0  0  0  0  0  0  0  0
   12.3300   -1.0930   22.1960 C   0  0  0  0  0  0  0  0  0  0  0  0
   10.9780   -1.2350   21.9750 C   0  0  0  0  0  0  0  0  0  0  0  0
   10.0930   -0.4120   22.6110 C   0  0  0  0  0  0  0  0  0  0  0  0
    6.9440   -1.8810   21.1430 C   0  0  1  0  0  0  0  0  0  0  0  0
    8.2980   -1.8620   21.4030 C   0  0  2  0  0  0  0  0  0  0  0  0
    8.7560   -2.9320   21.9530 C   0  0  0  0  0  0  0  0  0  0  0  0
    8.3680   -2.6370   23.1850 N   0  0  0  0  0  0  0  0  0  0  0  0
    7.1130   -3.0910   23.2580 C   0  0  0  0  0  0  0  0  0  0  0  0
    6.2970   -2.3400   22.3250 C   0  0  0  0  0  0  0  0  0  0  0  0
  2  5  2  0
  3  5  1  0
  5  6  1  0
  4  7  3  0
  8 10  1  0
  9 10  2  0
 12 13  2  0
  3 14  1  0
 13 14  1  0
  1 15  1  0
 14 15  2  0
 15 16  1  0
 12 17  1  0
 16 17  2  0
 18 19  2  0
 19 20  1  0
  7 21  1  0
 20 21  2  0
 21 22  1  0
  6 23  1  6
 18 23  1  0
 22 23  2  0
  3 24  1  0
 24 10  1  6
  6 25  1  0
 24 25  1  0
 25 26  1  1
 11 27  1  0
 26 27  1  0
 27 28  1  0
 24 29  1  0
 28 29  1  0
M  END
