x1385-x0830
     RDKit          3D

 28 31  0  0  0  0  0  0  0  0999 V2000
    7.4600   -2.9420   18.6660 C   0  0  0  0  0  0  0  0  0  0  0  0
    5.5590   -3.9610   19.6610 O   0  0  0  0  0  0  0  0  0  0  0  0
    6.4680   -3.1280   19.7720 C   0  0  0  0  0  0  0  0  0  0  0  0
    8.6890   -3.1650   24.0830 C   0  0  0  0  0  0  0  0  0  0  0  0
    7.2430   -6.0030   28.6550 Br  0  0  0  0  0  0  0  0  0  0  0  0
    6.6350   -2.3530   20.9130 N   0  0  0  0  0  0  0  0  0  0  0  0
    5.9290   -2.7220   22.1360 C   0  0  0  0  0  0  0  0  0  0  0  0
    6.9860   -3.4870   22.9090 C   0  0  0  0  0  0  0  0  0  0  0  0
    7.9920   -2.6800   23.3450 N   0  0  0  0  0  0  0  0  0  0  0  0
    8.6880   -1.8450   22.3760 C   0  0  2  0  0  0  0  0  0  0  0  0
    7.8220   -1.4830   21.1470 C   0  0  0  0  0  0  0  0  0  0  0  0
    9.7130   -5.3150   25.3200 C   0  0  0  0  0  0  0  0  0  0  0  0
    8.7740   -4.1540   25.1310 C   0  0  0  0  0  0  0  0  0  0  0  0
    7.5920   -4.0310   26.3450 S   0  0  0  0  0  0  0  0  0  0  0  0
    8.2060   -5.4600   27.1210 C   0  0  0  0  0  0  0  0  0  0  0  0
    9.3270   -6.1000   26.5660 C   0  0  0  0  0  0  0  0  0  0  0  0
   12.1360   -1.9210   22.6210 C   0  0  0  0  0  0  0  0  0  0  0  0
   13.0910   -0.7460   22.4780 C   0  0  0  0  0  0  0  0  0  0  0  0
   12.9720    0.5820   22.8050 C   0  0  0  0  0  0  0  0  0  0  0  0
   11.8700    1.0570   23.3640 C   0  0  0  0  0  0  0  0  0  0  0  0
   10.9240    0.1010   23.5990 C   0  0  0  0  0  0  0  0  0  0  0  0
   11.0730   -1.2300   23.2460 C   0  0  0  0  0  0  0  0  0  0  0  0
   11.5970    2.3530   23.7090 C   0  0  0  0  0  0  0  0  0  0  0  0
   10.3930    2.6990   24.3050 C   0  0  0  0  0  0  0  0  0  0  0  0
    9.4630    1.7040   24.5630 C   0  0  0  0  0  0  0  0  0  0  0  0
    9.7070    0.4180   24.2200 C   0  0  0  0  0  0  0  0  0  0  0  0
    9.9650   -2.4980   21.9500 C   0  0  0  0  0  0  0  0  0  0  0  0
   10.9330   -2.7140   22.9450 C   0  0  0  0  0  0  0  0  0  0  0  0
  1  3  1  0
  2  3  2  0
  3  6  1  0
  6  7  1  0
  7  8  1  0
  4  9  1  0
  8  9  1  0
  9 10  1  0
  6 11  1  0
 10 11  1  0
  4 13  1  0
 12 13  2  0
 13 14  1  0
  5 15  1  0
 14 15  1  0
 12 16  1  0
 15 16  2  0
 17 18  2  0
 18 19  1  0
 19 20  2  0
 20 21  1  0
 17 22  1  0
 21 22  2  0
 20 23  1  0
 23 24  2  0
 24 25  1  0
 21 26  1  0
 25 26  2  0
 10 27  1  6
 17 28  1  0
 27 28  1  0
M  END
