x1385-x0967
     RDKit          3D

 36 38  0  0  0  0  0  0  0  0999 V2000
    7.5570    4.3860   22.2070 C   0  0  0  0  0  0  0  0  0  0  0  0
    7.9530    2.2480   23.2500 N   0  0  0  0  0  0  0  0  0  0  0  0
    5.8960    3.2240   23.4940 O   0  0  0  0  0  0  0  0  0  0  0  0
    7.0340    3.2440   23.0360 C   0  0  0  0  0  0  0  0  0  0  0  0
    9.3240   -1.1980   22.8860 N   0  0  0  0  0  0  0  0  0  0  0  0
    5.7340    0.9010   17.0630 O   0  0  0  0  0  0  0  0  0  0  0  0
    7.6210    0.8120   23.2890 C   0  0  1  0  0  0  0  0  0  0  0  0
    9.4160    0.7730   21.7550 O   0  0  0  0  0  0  0  0  0  0  0  0
    6.2650    0.5150   22.6020 C   0  0  0  0  0  0  0  0  0  0  0  0
    8.8170    0.0990   22.6050 C   0  0  0  0  0  0  0  0  0  0  0  0
   10.3070   -1.4730   21.8360 C   0  0  0  0  0  0  0  0  0  0  0  0
   11.7250   -1.1330   22.1790 C   0  0  0  0  0  0  0  0  0  0  0  0
   12.4660   -1.8040   23.2980 C   0  0  0  0  0  0  0  0  0  0  0  0
   13.3860   -2.5940   24.7400 Br  0  0  0  0  0  0  0  0  0  0  0  0
    7.3850   -3.0620   18.7670 C   0  0  0  0  0  0  0  0  0  0  0  0
    5.4860   -4.1060   19.7670 O   0  0  0  0  0  0  0  0  0  0  0  0
    6.4300   -3.3240   19.9220 C   0  0  0  0  0  0  0  0  0  0  0  0
    9.6590   -3.0780   24.0240 C   0  0  0  0  0  0  0  0  0  0  0  0
    7.1370   -5.8050   28.4630 Br  0  0  0  0  0  0  0  0  0  0  0  0
    6.0510    0.6840   21.2180 C   0  0  0  0  0  0  0  0  0  0  0  0
    6.9800   -0.0730   20.2860 C   0  0  0  0  0  0  0  0  0  0  0  0
    6.8510    0.0170   18.9100 C   0  0  0  0  0  0  0  0  0  0  0  0
    5.8590    0.8150   18.3880 C   0  0  0  0  0  0  0  0  0  0  0  0
    5.0190    1.5050   19.2490 C   0  0  0  0  0  0  0  0  0  0  0  0
    5.0660    1.4780   20.6450 C   0  0  0  0  0  0  0  0  0  0  0  0
    6.7370   -2.6500   21.1300 N   0  0  0  0  0  0  0  0  0  0  0  0
    6.5030   -3.2180   22.3580 C   0  0  0  0  0  0  0  0  0  0  0  0
    7.2900   -2.5310   23.3500 C   0  0  0  0  0  0  0  0  0  0  0  0
    8.6860   -2.3880   23.0780 C   0  0  0  0  0  0  0  0  0  0  0  0
    8.8240   -2.8050   21.8120 C   0  0  0  0  0  0  0  0  0  0  0  0
    7.9870   -1.9470   21.1480 C   0  0  0  0  0  0  0  0  0  0  0  0
    9.7270   -5.2940   25.3240 C   0  0  0  0  0  0  0  0  0  0  0  0
    9.1930   -4.0270   25.1110 C   0  0  0  0  0  0  0  0  0  0  0  0
    7.9590   -3.7120   26.2590 S   0  0  0  0  0  0  0  0  0  0  0  0
    8.1760   -5.2280   26.9770 C   0  0  0  0  0  0  0  0  0  0  0  0
    9.1800   -5.9770   26.3560 C   0  0  0  0  0  0  0  0  0  0  0  0
  1  4  1  0
  2  4  1  0
  3  4  2  0
  2  7  1  0
  7  9  1  6
  5 10  1  0
  7 10  1  0
  8 10  2  0
  5 11  1  0
 11 12  1  0
 12 13  3  0
 13 14  1  0
 15 17  1  0
 16 17  2  0
  9 20  1  0
 20 21  2  0
 21 22  1  0
  6 23  1  0
 22 23  2  0
 23 24  1  0
 20 25  1  0
 24 25  2  0
 17 26  1  0
 26 27  1  0
 27 28  1  0
 29  5  1  0
 18 29  1  0
 28 29  1  0
 29 30  1  0
 26 31  1  0
 30 31  1  0
 18 33  1  0
 32 33  2  0
 33 34  1  0
 19 35  1  0
 34 35  1  0
 32 36  1  0
 35 36  2  0
M  END
