x1382
     RDKit          3D

 14 14  0  0  0  0  0  0  0  0999 V2000
   13.8810   -1.9170   21.2970 Cl  0  0  0  0  0  0  0  0  0  0  0  0
    7.8040   -1.2960   23.5290 C   0  0  0  0  0  0  0  0  0  0  0  0
    8.9690   -2.0710   22.9180 C   0  0  1  0  0  0  0  0  0  0  0  0
    8.6140   -2.5340   21.5630 N   0  0  0  0  0  0  0  0  0  0  0  0
    8.2610   -1.7500   20.5350 C   0  0  0  0  0  0  0  0  0  0  0  0
    8.1950   -0.5180   20.6040 O   0  0  0  0  0  0  0  0  0  0  0  0
    7.9190   -2.4180   19.2000 C   0  0  0  0  0  0  0  0  0  0  0  0
   10.2990   -1.3350   22.9390 C   0  0  0  0  0  0  0  0  0  0  0  0
   10.5190   -0.1920   23.6980 C   0  0  0  0  0  0  0  0  0  0  0  0
   11.7590    0.4230   23.6990 C   0  0  0  0  0  0  0  0  0  0  0  0
   12.8050   -0.0970   22.9710 C   0  0  0  0  0  0  0  0  0  0  0  0
   12.5860   -1.2350   22.2360 C   0  0  0  0  0  0  0  0  0  0  0  0
   11.3590   -1.8510   22.2170 C   0  0  0  0  0  0  0  0  0  0  0  0
    7.2880   -4.1280   19.3750 R   0  0  0  0  0  0  0  0  0  0  0  0
  3  2  1  6
  3  4  1  0
  4  5  1  0
  5  6  2  0
  5  7  1  0
  3  8  1  0
  8  9  2  0
  9 10  1  0
 10 11  2  0
  1 12  1  0
 11 12  1  0
  8 13  1  0
 12 13  2  0
  7 14  1  0
M  END
