x1384-x3303
     RDKit          3D

 39 45  0  0  0  0  0  0  0  0999 V2000
    6.4600   -2.4120   21.6180 C   0  0  2  0  0  0  0  0  0  0  0  0
    7.9510   -4.1130   20.5110 C   0  0  0  0  0  0  0  0  0  0  0  0
    5.7270   -3.9230   19.7580 O   0  0  0  0  0  0  0  0  0  0  0  0
    6.6340   -3.5270   20.5550 C   0  0  0  0  0  0  0  0  0  0  0  0
    5.3200   -1.5920   21.1520 C   0  0  0  0  0  0  0  0  0  0  0  0
    6.5030    1.1190   16.9020 O   0  0  0  0  0  0  0  0  0  0  0  0
    8.4030    0.3450   21.4730 C   0  0  0  0  0  0  0  0  0  0  0  0
    9.4710    0.2170   22.5300 C   0  0  0  0  0  0  0  0  0  0  0  0
    9.5420   -1.0420   23.1580 N   0  0  0  0  0  0  0  0  0  0  0  0
    8.7190   -2.0270   22.5710 C   0  0  0  0  0  0  0  0  0  0  0  0
    7.5770   -1.5150   21.9540 C   0  0  1  0  0  0  0  0  0  0  0  0
    8.0500   -0.9170   20.8510 N   0  0  0  0  0  0  0  0  0  0  0  0
    5.0860    1.9860   18.6100 N   0  0  0  0  0  0  0  0  0  0  0  0
    4.4740    1.9230   19.7740 C   0  0  0  0  0  0  0  0  0  0  0  0
    4.6190    0.7650   20.5260 C   0  0  0  0  0  0  0  0  0  0  0  0
    5.3400   -0.3640   20.1690 C   0  0  0  0  0  0  0  0  0  0  0  0
    6.0000   -0.2710   18.9300 C   0  0  0  0  0  0  0  0  0  0  0  0
    5.8990    0.8840   18.1360 C   0  0  0  0  0  0  0  0  0  0  0  0
   11.6790   -1.7560   22.1260 C   0  0  0  0  0  0  0  0  0  0  0  0
   13.0860   -2.3090   22.2240 C   0  0  0  0  0  0  0  0  0  0  0  0
   13.6630   -2.6480   23.6080 C   0  0  0  0  0  0  0  0  0  0  0  0
   12.8090   -2.3970   24.8250 C   0  0  0  0  0  0  0  0  0  0  0  0
   11.5430   -1.8910   24.6410 C   0  0  0  0  0  0  0  0  0  0  0  0
   10.8960   -1.5580   23.4320 C   0  0  0  0  0  0  0  0  0  0  0  0
    3.9390    0.6780   21.8820 C   0  0  0  0  0  0  0  0  0  0  0  0
    3.2040    1.7920   22.2530 C   0  0  0  0  0  0  0  0  0  0  0  0
    3.0790    2.9240   21.4490 C   0  0  0  0  0  0  0  0  0  0  0  0
    3.7160    2.9840   20.2160 C   0  0  0  0  0  0  0  0  0  0  0  0
    2.7270   -2.8680   25.5500 O   0  0  0  0  0  0  0  0  0  0  0  0
    5.2900   -4.7970   24.1810 C   0  0  1  0  0  0  0  0  0  0  0  0
    5.1950   -4.0990   23.1880 C   0  0  1  0  0  0  0  0  0  0  0  0
    4.0270   -4.0640   24.0440 C   0  0  1  0  0  0  0  0  0  0  0  0
    3.0180   -4.9870   23.9400 C   0  0  0  0  0  0  0  0  0  0  0  0
    3.6620   -6.2530   23.6790 C   0  0  0  0  0  0  0  0  0  0  0  0
    5.0140   -6.1260   23.8260 C   0  0  0  0  0  0  0  0  0  0  0  0
    3.9580   -3.0630   24.9920 C   0  0  2  0  0  0  0  0  0  0  0  0
    4.8160   -3.5000   25.9080 C   0  0  0  0  0  0  0  0  0  0  0  0
    5.7370   -4.5330   25.6520 C   0  0  0  0  0  0  0  0  0  0  0  0
    6.2030   -3.0540   23.0200 C   0  0  0  0  0  0  0  0  0  0  0  0
  1  4  1  0
  2  4  1  0
  3  4  2  0
  1  5  1  6
  7  8  1  0
  8  9  1  0
  9 10  1  0
  1 11  1  0
 11 10  1  6
  7 12  1  0
 11 12  1  0
 13 14  2  0
 14 15  1  0
  5 16  1  0
 15 16  2  0
 16 17  1  0
  6 18  1  0
 13 18  1  0
 17 18  2  0
 19 20  2  0
 20 21  1  0
 21 22  2  0
 22 23  1  0
  9 24  1  0
 19 24  1  0
 23 24  2  0
 15 25  1  0
 25 26  2  0
 26 27  1  0
 14 28  1  0
 27 28  2  0
 30 31  1  0
 30 32  1  0
 31 32  1  0
 32 33  1  6
 33 34  1  0
 30 35  1  6
 34 35  2  0
 36 29  1  1
 32 36  1  0
 36 37  1  0
 30 38  1  0
 37 38  2  0
  1 39  1  0
 31 39  1  1
M  END
