x1385-x3124
     RDKit          3D

 36 40  0  0  0  0  0  0  0  0999 V2000
    7.5080    1.2010   22.9080 N   0  0  0  0  0  0  0  0  0  0  0  0
    8.9460    1.7340   21.2340 O   0  0  0  0  0  0  0  0  0  0  0  0
    7.5740   -0.2260   20.9190 C   0  0  2  0  0  0  0  0  0  0  0  0
    8.0880    0.9740   21.6860 C   0  0  0  0  0  0  0  0  0  0  0  0
    7.9260    2.3750   23.6660 C   0  0  0  0  0  0  0  0  0  0  0  0
   12.3700   -2.1610   24.6970 C   0  0  0  0  0  0  0  0  0  0  0  0
   12.5630   -0.6740   25.0760 C   0  0  0  0  0  0  0  0  0  0  0  0
   13.1690   -1.8390   23.5950 C   0  0  0  0  0  0  0  0  0  0  0  0
   13.1490   -3.1540   25.5590 C   0  0  0  0  0  0  0  0  0  0  0  0
    7.3820   -2.9850   18.7310 C   0  0  0  0  0  0  0  0  0  0  0  0
    5.3190   -3.8210   19.6190 O   0  0  0  0  0  0  0  0  0  0  0  0
    6.3970   -3.2740   19.8410 C   0  0  0  0  0  0  0  0  0  0  0  0
    9.3290   -2.7800   24.1560 C   0  0  1  0  0  0  0  0  0  0  0  0
    7.2900   -5.9300   28.5240 Br  0  0  0  0  0  0  0  0  0  0  0  0
    6.1860    0.6340   17.6090 N   0  0  0  0  0  0  0  0  0  0  0  0
    5.0380    1.2620   17.8300 C   0  0  0  0  0  0  0  0  0  0  0  0
    4.5110    1.4670   19.0730 C   0  0  0  0  0  0  0  0  0  0  0  0
    5.3000    0.9680   20.2600 C   0  0  0  0  0  0  0  0  0  0  0  0
    6.5110    0.3380   19.9680 C   0  0  0  0  0  0  0  0  0  0  0  0
    6.8640    0.2070   18.6640 C   0  0  0  0  0  0  0  0  0  0  0  0
    9.6460   -2.2320   22.1970 C   0  0  0  0  0  0  0  0  0  0  0  0
   10.8640   -2.5880   22.8620 C   0  0  0  0  0  0  0  0  0  0  0  0
   10.9380   -2.4850   24.2650 C   0  0  2  0  0  0  0  0  0  0  0  0
   10.1750   -1.3870   24.3200 C   0  0  0  0  0  0  0  0  0  0  0  0
    8.9840   -0.9130   23.7350 C   0  0  0  0  0  0  0  0  0  0  0  0
    8.4370   -1.8370   22.8480 C   0  0  2  0  0  0  0  0  0  0  0  0
    7.0180   -2.9710   21.1550 C   0  0  0  0  0  0  0  0  0  0  0  0
    7.1090   -4.1400   21.9230 C   0  0  0  0  0  0  0  0  0  0  0  0
    7.4930   -3.9040   23.2380 C   0  0  0  0  0  0  0  0  0  0  0  0
    8.7040   -3.1290   23.0930 N   0  0  0  0  0  0  0  0  0  0  0  0
    7.5980   -1.6000   21.6330 C   0  0  0  0  0  0  0  0  0  0  0  0
    9.8460   -5.1120   25.3320 C   0  0  0  0  0  0  0  0  0  0  0  0
    9.2040   -3.9000   25.1470 C   0  0  0  0  0  0  0  0  0  0  0  0
    7.9170   -3.7450   26.4030 S   0  0  0  0  0  0  0  0  0  0  0  0
    8.3310   -5.3200   27.0570 C   0  0  0  0  0  0  0  0  0  0  0  0
    9.3820   -6.0380   26.4700 C   0  0  0  0  0  0  0  0  0  0  0  0
  1  4  1  0
  2  4  2  0
  3  4  1  1
  1  5  1  0
  6  7  1  0
  6  8  1  0
  6  9  1  0
 10 12  1  0
 11 12  2  0
 15 16  2  0
 16 17  1  0
 17 18  2  0
  3 19  1  0
 18 19  1  0
 15 20  1  0
 19 20  2  0
 21 22  2  0
 23  6  1  6
 22 23  1  0
 13 24  1  0
 23 24  1  0
 24 25  2  0
 26 21  1  6
 25 26  1  0
 12 27  1  0
 27 28  1  0
 28 29  1  0
 13 30  1  0
 26 30  1  0
 29 30  1  0
  3 31  1  0
 26 31  1  0
 27 31  2  0
 13 33  1  6
 32 33  2  0
 33 34  1  0
 14 35  1  0
 34 35  1  0
 32 36  1  0
 35 36  2  0
M  END
