x1385-x2705-x0978-x2694
     RDKit          3D

 57 62  0  0  0  0  0  0  0  0999 V2000
    7.5900    1.8210   22.6120 N   0  0  0  0  0  0  0  0  0  0  0  0
    9.4290    1.5810   21.2610 O   0  0  0  0  0  0  0  0  0  0  0  0
    7.7090   -0.2430   20.9800 C   0  0  2  0  0  0  0  0  0  0  0  0
    8.2320    1.0450   21.6800 C   0  0  0  0  0  0  0  0  0  0  0  0
   10.3680    1.9660   23.7740 C   0  0  0  0  0  0  0  0  0  0  0  0
    9.5020    0.9390   24.4940 C   0  0  0  0  0  0  0  0  0  0  0  0
    6.1000    4.4890   21.9290 C   0  0  0  0  0  0  0  0  0  0  0  0
   12.0970   -1.6670   23.7830 C   0  0  0  0  0  0  0  0  0  0  0  0
   12.5990   -0.4120   24.2820 C   0  0  0  0  0  0  0  0  0  0  0  0
   12.6410   -2.7630   24.7010 C   0  0  0  0  0  0  0  0  0  0  0  0
   12.7270   -1.8650   22.3870 C   0  0  0  0  0  0  0  0  0  0  0  0
   10.4400    6.8500   23.7750 O   0  0  0  0  0  0  0  0  0  0  0  0
   11.5610    6.5830   24.6400 C   0  0  0  0  0  0  0  0  0  0  0  0
    1.8590   -5.6610   23.3590 N   0  0  0  0  0  0  0  0  0  0  0  0
    2.0590   -8.2600   24.6770 C   0  0  0  0  0  0  0  0  0  0  0  0
    4.3540   -7.8860   24.4050 O   0  0  0  0  0  0  0  0  0  0  0  0
    3.2600   -7.3740   24.5010 C   0  0  1  0  0  0  0  0  0  0  0  0
    5.4490   -6.0770   22.1780 N   0  0  0  0  0  0  0  0  0  0  0  0
    0.8100   -7.3770   21.8850 O   0  0  0  0  0  0  0  0  0  0  0  0
    3.0860   -6.4360   23.3180 C   0  0  2  0  0  0  0  0  0  0  0  0
    4.1550   -4.1500   23.3960 O   0  0  0  0  0  0  0  0  0  0  0  0
    0.7670   -6.1640   22.6410 C   0  0  0  0  0  0  0  0  0  0  0  0
   -0.4960   -5.3360   22.7020 C   0  0  0  0  0  0  0  0  0  0  0  0
    4.3200   -5.4960   22.9370 C   0  0  0  0  0  0  0  0  0  0  0  0
    6.4290   -5.3000   21.4150 C   0  0  0  0  0  0  0  0  0  0  0  0
    7.2910   -2.9450   18.8200 C   0  0  0  0  0  0  0  0  0  0  0  0
    5.3450   -3.7470   19.5970 O   0  0  0  0  0  0  0  0  0  0  0  0
    6.4230   -3.1730   19.8230 C   0  0  0  0  0  0  0  0  0  0  0  0
    9.4670   -2.7230   24.1580 C   0  0  2  0  0  0  0  0  0  0  0  0
    7.3180   -5.9080   28.4950 Br  0  0  0  0  0  0  0  0  0  0  0  0
    6.1750    0.4860   17.6100 N   0  0  0  0  0  0  0  0  0  0  0  0
    5.0560    1.1110   17.9200 C   0  0  0  0  0  0  0  0  0  0  0  0
    4.6700    1.3310   19.2140 C   0  0  0  0  0  0  0  0  0  0  0  0
    5.4960    0.8950   20.2390 C   0  0  0  0  0  0  0  0  0  0  0  0
    6.6970    0.2430   19.9540 C   0  0  0  0  0  0  0  0  0  0  0  0
    6.9330    0.0830   18.6190 C   0  0  0  0  0  0  0  0  0  0  0  0
    9.3990   -1.1420   24.6340 C   0  0  0  0  0  0  0  0  0  0  0  0
    8.1220   -0.9190   24.0670 N   0  0  0  0  0  0  0  0  0  0  0  0
    8.3120   -1.8280   22.9260 C   0  0  1  0  0  0  0  0  0  0  0  0
    9.6750   -2.0040   22.6960 C   0  0  0  0  0  0  0  0  0  0  0  0
   10.5590   -1.6600   23.7040 C   0  0  0  0  0  0  0  0  0  0  0  0
    9.5250    3.1950   23.4130 C   0  0  0  0  0  0  0  0  0  0  0  0
   10.2150    4.4010   23.6920 C   0  0  0  0  0  0  0  0  0  0  0  0
    9.6280    5.7780   23.4330 C   0  0  0  0  0  0  0  0  0  0  0  0
    8.2220    5.7560   22.8310 C   0  0  0  0  0  0  0  0  0  0  0  0
    7.4770    4.4230   22.5270 C   0  0  0  0  0  0  0  0  0  0  0  0
    8.2250    3.1180   22.8680 C   0  0  0  0  0  0  0  0  0  0  0  0
    6.9680   -2.8390   21.1530 C   0  0  0  0  0  0  0  0  0  0  0  0
    6.8950   -3.9480   21.9970 C   0  0  2  0  0  0  0  0  0  0  0  0
    7.9620   -4.0790   22.8300 C   0  0  0  0  0  0  0  0  0  0  0  0
    8.1240   -2.9270   23.6450 N   0  0  0  0  0  0  0  0  0  0  0  0
    7.5620   -1.6390   21.6340 C   0  0  0  0  0  0  0  0  0  0  0  0
    9.9710   -4.9640   25.3100 C   0  0  0  0  0  0  0  0  0  0  0  0
    9.2490   -3.8040   25.2100 C   0  0  0  0  0  0  0  0  0  0  0  0
    7.9060   -3.6050   26.3880 S   0  0  0  0  0  0  0  0  0  0  0  0
    8.3410   -5.2060   27.0590 C   0  0  0  0  0  0  0  0  0  0  0  0
    9.5430   -5.8980   26.3730 C   0  0  0  0  0  0  0  0  0  0  0  0
  1  4  1  0
  2  4  2  0
  3  4  1  1
  5  6  1  0
  8  9  1  0
  8 10  1  0
  8 11  1  0
 12 13  1  0
 17 15  1  6
 16 17  1  0
 20 14  1  1
 17 20  1  0
 14 22  1  0
 19 22  2  0
 22 23  1  0
 18 24  1  0
 20 24  1  0
 21 24  2  0
 18 25  1  0
 26 28  1  0
 27 28  2  0
 31 32  2  0
 32 33  1  0
 33 34  2  0
  3 35  1  0
 34 35  1  0
 31 36  1  0
 35 36  2  0
 29 37  1  0
 37 38  2  0
 38 39  1  0
 39 40  1  6
  8 41  1  0
 37 41  1  0
 40 41  2  0
  5 42  1  0
 42 43  2  0
 12 44  1  0
 43 44  1  0
 44 45  2  0
  7 46  1  0
 45 46  1  0
  1 47  1  0
 42 47  1  0
 46 47  2  0
 28 48  1  0
 49 25  1  6
 48 49  1  0
 49 50  1  0
 29 51  1  0
 39 51  1  0
 50 51  1  0
  3 52  1  0
 39 52  1  0
 48 52  2  0
 29 54  1  1
 53 54  2  0
 54 55  1  0
 30 56  1  0
 55 56  1  0
 53 57  1  0
 56 57  2  0
M  END
