x1384-x0107
     RDKit          3D

 28 31  0  0  0  0  0  0  0  0999 V2000
    6.8540   -3.7450   21.6240 N   0  0  0  0  0  0  0  0  0  0  0  0
    7.3770   -3.1490   19.2910 C   0  0  0  0  0  0  0  0  0  0  0  0
    5.4950   -4.4830   19.9190 O   0  0  0  0  0  0  0  0  0  0  0  0
    6.4870   -3.8490   20.2940 C   0  0  0  0  0  0  0  0  0  0  0  0
    9.9930   -0.4330   22.5450 C   0  0  0  0  0  0  0  0  0  0  0  0
    8.9320    0.1700   21.6260 C   0  0  0  0  0  0  0  0  0  0  0  0
    9.1690    1.5490   21.2650 O   0  0  0  0  0  0  0  0  0  0  0  0
    7.8080   -0.5700   21.1280 N   0  0  0  0  0  0  0  0  0  0  0  0
    5.2850    1.0750   21.8020 C   0  0  0  0  0  0  0  0  0  0  0  0
    7.7670   -2.7500   22.0050 C   0  0  0  0  0  0  0  0  0  0  0  0
    7.2790   -1.4550   21.9910 C   0  0  0  0  0  0  0  0  0  0  0  0
    7.0450   -0.1170   20.1830 C   0  0  0  0  0  0  0  0  0  0  0  0
    5.9420    0.6080   20.4820 C   0  0  0  0  0  0  0  0  0  0  0  0
    4.9620    1.2180   19.7180 C   0  0  0  0  0  0  0  0  0  0  0  0
    5.1640    1.0410   18.3280 C   0  0  0  0  0  0  0  0  0  0  0  0
    6.2140    0.3350   17.8020 N   0  0  0  0  0  0  0  0  0  0  0  0
    7.1810   -0.2670   18.7260 C   0  0  0  0  0  0  0  0  0  0  0  0
    3.5350   -2.9910   26.7220 O   0  0  0  0  0  0  0  0  0  0  0  0
    3.8600   -3.7610   23.7980 C   0  0  2  0  0  0  0  0  0  0  0  0
    5.4160   -3.5580   23.5950 C   0  0  1  0  0  0  0  0  0  0  0  0
    5.1270   -3.9210   24.9360 C   0  0  2  0  0  0  0  0  0  0  0  0
    5.0770   -5.4750   25.2040 C   0  0  0  0  0  0  0  0  0  0  0  0
    4.1950   -6.0480   24.0800 C   0  0  0  0  0  0  0  0  0  0  0  0
    3.5460   -5.0740   23.3500 C   0  0  0  0  0  0  0  0  0  0  0  0
    4.6560   -2.7490   25.9040 C   0  0  1  0  0  0  0  0  0  0  0  0
    4.3620   -2.4890   24.7050 C   0  0  0  0  0  0  0  0  0  0  0  0
    3.5960   -3.5960   25.2310 C   0  0  0  0  0  0  0  0  0  0  0  0
    6.2300   -4.4580   22.7260 C   0  0  0  0  0  0  0  0  0  0  0  0
  1  4  1  0
  2  4  1  0
  3  4  2  0
  5  6  1  0
  6  7  2  0
  6  8  1  0
  1 10  1  0
  8 11  1  0
 10 11  1  0
  8 12  1  0
  9 13  1  0
 12 13  2  0
 13 14  1  0
 14 15  2  0
 15 16  1  0
 12 17  1  0
 16 17  2  0
 19 20  1  0
 19 21  1  0
 20 21  1  0
 21 22  1  1
 22 23  1  0
 19 24  1  6
 23 24  2  0
 25 18  1  1
 21 25  1  0
 25 26  1  0
 19 27  1  0
 26 27  2  0
  1 28  1  0
 20 28  1  6
M  END
