x1384-x2581
     RDKit          3D

 39 44  0  0  0  0  0  0  0  0999 V2000
    9.7970   -2.5780   23.4030 C   0  0  0  0  0  0  0  0  0  0  0  0
   10.0090   -1.4120   23.7800 O   0  0  0  0  0  0  0  0  0  0  0  0
   10.2430    3.3280   22.1390 N   0  0  0  0  0  0  0  0  0  0  0  0
   11.2980    3.0900   24.1290 O   0  0  0  0  0  0  0  0  0  0  0  0
   11.1020    3.7100   23.1110 C   0  0  0  0  0  0  0  0  0  0  0  0
   11.7330    4.8420   22.8810 C   0  0  0  0  0  0  0  0  0  0  0  0
    6.5230   -3.6810   21.9250 N   0  0  0  0  0  0  0  0  0  0  0  0
    7.3150   -3.1800   19.5280 C   0  0  0  0  0  0  0  0  0  0  0  0
    5.5690   -4.7160   20.0200 O   0  0  0  0  0  0  0  0  0  0  0  0
    6.4130   -3.9340   20.5010 C   0  0  0  0  0  0  0  0  0  0  0  0
    8.2990   -2.8490   23.4460 C   0  0  0  0  0  0  0  0  0  0  0  0
    7.8200   -3.7040   22.4180 C   0  0  0  0  0  0  0  0  0  0  0  0
    8.8550    1.7110   21.2230 N   0  0  0  0  0  0  0  0  0  0  0  0
    9.6670    1.9820   22.0380 C   0  0  0  0  0  0  0  0  0  0  0  0
   10.1340    0.9870   22.9630 C   0  0  0  0  0  0  0  0  0  0  0  0
    9.6710   -0.3620   22.9680 C   0  0  0  0  0  0  0  0  0  0  0  0
    8.7290   -0.6750   22.0080 C   0  0  0  0  0  0  0  0  0  0  0  0
    8.3540    0.3550   21.1830 C   0  0  0  0  0  0  0  0  0  0  0  0
    9.8790    6.4660   22.8490 C   0  0  0  0  0  0  0  0  0  0  0  0
    9.1030    7.6960   23.3140 C   0  0  0  0  0  0  0  0  0  0  0  0
    9.6230    8.5650   24.4600 C   0  0  0  0  0  0  0  0  0  0  0  0
   10.9650    8.0780   25.0680 C   0  0  0  0  0  0  0  0  0  0  0  0
   11.6340    6.7980   24.4820 C   0  0  0  0  0  0  0  0  0  0  0  0
   11.1010    6.0410   23.4220 C   0  0  0  0  0  0  0  0  0  0  0  0
    8.9620    9.7820   24.9870 C   0  0  0  0  0  0  0  0  0  0  0  0
    9.5610   10.4850   26.0380 C   0  0  0  0  0  0  0  0  0  0  0  0
   10.7740   10.0000   26.5530 C   0  0  0  0  0  0  0  0  0  0  0  0
   11.4700    8.8560   26.1160 C   0  0  0  0  0  0  0  0  0  0  0  0
    5.1460   -2.1190   26.5680 O   0  0  0  0  0  0  0  0  0  0  0  0
    3.8300   -3.7710   23.5970 C   0  0  2  0  0  0  0  0  0  0  0  0
    4.8020   -2.9350   23.6300 C   0  0  1  0  0  0  0  0  0  0  0  0
    5.0600   -3.6450   24.7420 C   0  0  2  0  0  0  0  0  0  0  0  0
    5.3170   -5.0350   24.7640 C   0  0  0  0  0  0  0  0  0  0  0  0
    5.3950   -5.8260   23.6240 C   0  0  0  0  0  0  0  0  0  0  0  0
    4.3990   -5.0110   22.8990 C   0  0  0  0  0  0  0  0  0  0  0  0
    4.3000   -3.0340   25.8970 C   0  0  2  0  0  0  0  0  0  0  0  0
    4.0540   -2.7710   24.7170 C   0  0  0  0  0  0  0  0  0  0  0  0
    3.3590   -4.0260   24.9060 C   0  0  0  0  0  0  0  0  0  0  0  0
    5.7410   -2.6470   22.4850 C   0  0  0  0  0  0  0  0  0  0  0  0
  1  2  1  0
  3  5  1  0
  4  5  2  0
  5  6  1  0
  7 10  1  0
  8 10  1  0
  9 10  2  0
  1 11  1  0
  7 12  1  0
 11 12  1  0
  3 14  1  0
 13 14  2  0
 14 15  1  0
  2 16  1  0
 15 16  2  0
 16 17  1  0
 13 18  1  0
 17 18  2  0
 19 20  2  0
 20 21  1  0
 21 22  2  0
 22 23  1  0
  6 24  1  0
 19 24  1  0
 23 24  2  0
 21 25  1  0
 25 26  2  0
 26 27  1  0
 22 28  1  0
 27 28  2  0
 30 31  1  0
 30 32  1  0
 31 32  1  0
 32 33  1  1
 33 34  1  0
 30 35  1  6
 34 35  2  0
 36 29  1  1
 32 36  1  0
 36 37  1  0
 30 38  1  0
 37 38  2  0
  7 39  1  0
 31 39  1  6
M  END
