x1392-x1334
     RDKit          3D

 22 24  0  0  0  0  0  0  0  0999 V2000
    7.4830   -3.0110   18.6790 C   0  0  0  0  0  0  0  0  0  0  0  0
    5.5820   -4.0050   19.7100 O   0  0  0  0  0  0  0  0  0  0  0  0
    7.3300   -5.8320   28.5220 Cl  0  0  0  0  0  0  0  0  0  0  0  0
    6.5880   -3.2690   19.8410 C   0  0  0  0  0  0  0  0  0  0  0  0
    9.5280   -3.0620   24.0600 C   0  0  0  0  0  0  0  0  0  0  0  0
    6.9790   -2.6720   21.0740 N   0  0  0  0  0  0  0  0  0  0  0  0
    8.1830   -1.9710   21.2800 C   0  0  0  0  0  0  0  0  0  0  0  0
    8.5560   -1.5800   22.7210 C   0  0  1  0  0  0  0  0  0  0  0  0
    8.4710   -2.7290   23.4240 N   0  0  0  0  0  0  0  0  0  0  0  0
    7.7040   -3.7610   22.9420 C   0  0  0  0  0  0  0  0  0  0  0  0
    6.5310   -3.3020   22.3450 C   0  0  0  0  0  0  0  0  0  0  0  0
    9.8420   -5.3600   25.3140 C   0  0  0  0  0  0  0  0  0  0  0  0
    9.2150   -4.1180   25.1730 C   0  0  0  0  0  0  0  0  0  0  0  0
    7.9780   -3.7710   26.3620 S   0  0  0  0  0  0  0  0  0  0  0  0
    8.2200   -5.3200   27.1560 C   0  0  0  0  0  0  0  0  0  0  0  0
    9.2900   -6.1220   26.4850 C   0  0  0  0  0  0  0  0  0  0  0  0
   11.1210   -1.6040   22.1880 C   0  0  0  0  0  0  0  0  0  0  0  0
   12.3970   -1.0420   22.3650 C   0  0  0  0  0  0  0  0  0  0  0  0
   12.5510    0.0660   23.1730 C   0  0  0  0  0  0  0  0  0  0  0  0
   11.4310    0.5750   23.7820 C   0  0  0  0  0  0  0  0  0  0  0  0
   10.1500    0.0460   23.6350 C   0  0  0  0  0  0  0  0  0  0  0  0
    9.9680   -1.0280   22.8530 C   0  0  0  0  0  0  0  0  0  0  0  0
  1  4  1  0
  2  4  2  0
  4  6  1  0
  6  7  1  0
  7  8  1  0
  5  9  1  0
  8  9  1  0
  9 10  1  0
  6 11  1  0
 10 11  1  0
  5 13  1  0
 12 13  2  0
 13 14  1  0
  3 15  1  0
 14 15  1  0
 12 16  1  0
 15 16  2  0
 17 18  2  0
 18 19  1  0
 19 20  2  0
 20 21  1  0
  8 22  1  6
 17 22  1  0
 21 22  2  0
M  END
