x1402-x2776
     RDKit          3D

 50 54  0  0  0  0  0  0  0  0999 V2000
    7.2670   -1.1410   21.7270 N   0  0  0  0  0  0  0  0  0  0  0  0
    7.8200    2.0950   22.9500 N   0  0  0  0  0  0  0  0  0  0  0  0
    9.1190    1.4470   21.0510 O   0  0  0  0  0  0  0  0  0  0  0  0
   10.8450    6.7300   23.8740 O   0  0  0  0  0  0  0  0  0  0  0  0
    6.9270    0.2040   21.6420 C   0  0  1  0  0  0  0  0  0  0  0  0
   12.6750   -3.0570   24.5280 O   0  0  0  0  0  0  0  0  0  0  0  0
    7.9940    1.2680   21.8880 C   0  0  0  0  0  0  0  0  0  0  0  0
   10.4950    1.7940   23.8830 C   0  0  0  0  0  0  0  0  0  0  0  0
   11.8310    6.5610   24.8910 C   0  0  0  0  0  0  0  0  0  0  0  0
   12.2420   -1.6940   24.4560 C   0  0  1  0  0  0  0  0  0  0  0  0
   13.0950   -0.9480   23.6590 C   0  0  0  0  0  0  0  0  0  0  0  0
   13.2630   -3.4390   25.7690 C   0  0  0  0  0  0  0  0  0  0  0  0
    7.2420   -3.4100   19.7330 C   0  0  0  0  0  0  0  0  0  0  0  0
    5.5810   -5.1220   20.0050 O   0  0  0  0  0  0  0  0  0  0  0  0
    0.9230   -1.5220   26.1850 Cl  0  0  0  0  0  0  0  0  0  0  0  0
    6.3870   -4.3940   20.5580 C   0  0  0  0  0  0  0  0  0  0  0  0
    4.2980   -6.3590   26.2050 O   0  0  0  0  0  0  0  0  0  0  0  0
    6.3170   -4.9990   26.8780 O   0  0  0  0  0  0  0  0  0  0  0  0
    5.2290   -5.2770   25.9690 S   0  0  0  0  0  0  0  0  0  0  0  0
    6.1010   -2.0340   22.0050 C   0  0  0  0  0  0  0  0  0  0  0  0
    6.4460   -3.1190   22.7860 C   0  0  0  0  0  0  0  0  0  0  0  0
    6.3660    0.4160   17.7830 N   0  0  0  0  0  0  0  0  0  0  0  0
    5.1900    1.2820   17.7890 C   0  0  0  0  0  0  0  0  0  0  0  0
    4.6090    1.7500   18.9560 C   0  0  0  0  0  0  0  0  0  0  0  0
    5.0880    1.4520   20.2200 C   0  0  0  0  0  0  0  0  0  0  0  0
    6.3300    0.5550   20.3100 C   0  0  0  0  0  0  0  0  0  0  0  0
    6.8790    0.0880   18.9590 C   0  0  0  0  0  0  0  0  0  0  0  0
    9.8310    3.1820   23.6090 C   0  0  0  0  0  0  0  0  0  0  0  0
   10.6720    4.4280   23.8600 C   0  0  0  0  0  0  0  0  0  0  0  0
   10.0480    5.6470   23.6150 C   0  0  0  0  0  0  0  0  0  0  0  0
    8.7270    5.7190   23.1510 C   0  0  0  0  0  0  0  0  0  0  0  0
    7.9950    4.5500   22.9290 C   0  0  0  0  0  0  0  0  0  0  0  0
    8.5250    3.2910   23.1550 C   0  0  0  0  0  0  0  0  0  0  0  0
    9.5850   -1.9560   21.8540 C   0  0  0  0  0  0  0  0  0  0  0  0
   10.7860   -2.0780   22.5280 C   0  0  0  0  0  0  0  0  0  0  0  0
   10.8970   -1.5620   23.8090 C   0  0  0  0  0  0  0  0  0  0  0  0
    9.8250   -0.9280   24.4860 C   0  0  0  0  0  0  0  0  0  0  0  0
    8.6840   -0.8580   23.7180 C   0  0  0  0  0  0  0  0  0  0  0  0
    8.5020   -1.3310   22.4150 C   0  0  0  0  0  0  0  0  0  0  0  0
    6.4090   -4.5050   22.0940 C   0  0  0  0  0  0  0  0  0  0  0  0
    7.4050   -5.2080   22.6870 C   0  0  0  0  0  0  0  0  0  0  0  0
    7.2990   -5.2140   24.0840 C   0  0  0  0  0  0  0  0  0  0  0  0
    5.8800   -5.4830   24.4190 N   0  0  0  0  0  0  0  0  0  0  0  0
    5.0440   -6.0710   23.3910 C   0  0  0  0  0  0  0  0  0  0  0  0
    5.0670   -5.2630   22.3130 C   0  0  0  0  0  0  0  0  0  0  0  0
    2.5200   -3.9850   26.0590 S   0  0  0  0  0  0  0  0  0  0  0  0
    4.2250   -3.9120   26.0100 C   0  0  0  0  0  0  0  0  0  0  0  0
    4.7380   -2.6470   26.0130 C   0  0  0  0  0  0  0  0  0  0  0  0
    3.6890   -1.6770   26.0640 C   0  0  0  0  0  0  0  0  0  0  0  0
    2.4550   -2.2940   26.0990 C   0  0  0  0  0  0  0  0  0  0  0  0
  1  5  1  0
  2  7  1  0
  3  7  2  0
  5  7  1  6
  4  9  1  0
  6 10  1  0
 10 11  1  6
  6 12  1  0
 13 16  1  0
 14 16  2  0
 17 19  2  0
 18 19  2  0
  1 20  1  0
 20 21  1  0
 22 23  2  0
 23 24  1  0
 24 25  2  0
  5 26  1  0
 25 26  1  0
 22 27  1  0
 26 27  2  0
  8 28  1  0
 28 29  2  0
  4 30  1  0
 29 30  1  0
 30 31  2  0
 31 32  1  0
  2 33  1  0
 28 33  1  0
 32 33  2  0
 34 35  2  0
 10 36  1  0
 35 36  1  0
 36 37  2  0
 37 38  1  0
  1 39  1  0
 34 39  1  0
 38 39  2  0
 40 16  1  0
 21 40  1  0
 40 41  1  0
 41 42  1  0
 19 43  1  0
 42 43  1  0
 43 44  1  0
 40 45  1  0
 44 45  1  0
 19 47  1  0
 46 47  1  0
 47 48  2  0
 48 49  1  0
 15 50  1  0
 46 50  1  0
 49 50  2  0
M  END
