x1402-x0072
     RDKit          3D

 30 33  0  0  0  0  0  0  0  0999 V2000
    7.2690   -3.4130   19.8070 C   0  0  0  0  0  0  0  0  0  0  0  0
    5.2430   -4.6500   19.9270 O   0  0  0  0  0  0  0  0  0  0  0  0
    0.8700   -1.3460   26.2390 Cl  0  0  0  0  0  0  0  0  0  0  0  0
    6.3320   -4.4480   20.4380 C   0  0  0  0  0  0  0  0  0  0  0  0
    4.3540   -6.3760   25.8230 O   0  0  0  0  0  0  0  0  0  0  0  0
    6.4340   -4.7790   26.7830 N   0  0  0  0  0  0  0  0  0  0  0  0
    5.2040   -5.2100   25.7030 S   0  0  1  0  0  0  0  0  0  0  0  0
    7.8590   -4.3410   26.3580 S   0  0  0  0  0  0  0  0  0  0  0  0
    8.8310   -5.4270   26.2780 O   0  0  0  0  0  0  0  0  0  0  0  0
    8.2810   -3.0940   26.9550 O   0  0  0  0  0  0  0  0  0  0  0  0
    7.7330   -3.9100   24.7270 N   0  0  0  0  0  0  0  0  0  0  0  0
    8.9730   -3.3540   24.1280 C   0  0  0  0  0  0  0  0  0  0  0  0
    9.0290   -2.1440   23.3670 C   0  0  0  0  0  0  0  0  0  0  0  0
    6.7000   -5.2040   21.5600 N   0  0  0  0  0  0  0  0  0  0  0  0
    7.3420   -4.5340   22.5510 C   0  0  0  0  0  0  0  0  0  0  0  0
    7.1690   -4.9800   23.8690 C   0  0  2  0  0  0  0  0  0  0  0  0
    5.8090   -5.1840   24.1330 N   0  0  0  0  0  0  0  0  0  0  0  0
    5.2610   -5.9610   23.1800 C   0  0  0  0  0  0  0  0  0  0  0  0
    5.9540   -6.2110   22.0280 C   0  0  0  0  0  0  0  0  0  0  0  0
    2.3950   -3.9260   25.8750 S   0  0  0  0  0  0  0  0  0  0  0  0
    4.1290   -3.8770   25.8820 C   0  0  0  0  0  0  0  0  0  0  0  0
    4.6030   -2.5930   26.0510 C   0  0  0  0  0  0  0  0  0  0  0  0
    3.6010   -1.6740   26.1760 C   0  0  0  0  0  0  0  0  0  0  0  0
    2.3290   -2.2330   26.1060 C   0  0  0  0  0  0  0  0  0  0  0  0
   10.3730   -1.4530   23.2140 C   0  0  0  0  0  0  0  0  0  0  0  0
   11.3160   -2.0400   22.3610 C   0  0  0  0  0  0  0  0  0  0  0  0
   12.7170   -1.3950   22.1600 C   0  0  0  0  0  0  0  0  0  0  0  0
   13.0010   -0.0830   22.9430 C   0  0  0  0  0  0  0  0  0  0  0  0
   11.9300    0.4880   23.8410 C   0  0  0  0  0  0  0  0  0  0  0  0
   10.6040   -0.2620   23.9400 C   0  0  0  0  0  0  0  0  0  0  0  0
  1  4  1  0
  2  4  2  0
  5  7  2  0
  6  7  2  0
  8  6  1  0
  8  9  2  0
  8 10  2  0
  8 11  1  0
 11 12  1  0
 12 13  1  0
  4 14  1  0
 14 15  1  0
 11 16  1  0
 16 15  1  6
  7 17  1  0
 16 17  1  0
 17 18  1  0
 14 19  1  0
 18 19  1  0
  7 21  1  6
 20 21  1  0
 21 22  2  0
 22 23  1  0
  3 24  1  0
 20 24  1  0
 23 24  2  0
 13 25  1  0
 25 26  2  0
 26 27  1  0
 27 28  2  0
 28 29  1  0
 25 30  1  0
 29 30  2  0
M  END
