x1402-x3080
     RDKit          3D

 46 50  0  0  0  0  0  0  0  0999 V2000
    9.9080   -0.3210   23.3730 N   0  0  0  0  0  0  0  0  0  0  0  0
   10.8200    0.6870   23.6540 C   0  0  0  0  0  0  0  0  0  0  0  0
    9.0530    1.3860   21.2270 O   0  0  0  0  0  0  0  0  0  0  0  0
    9.7450   -0.9120   22.1430 C   0  0  0  0  0  0  0  0  0  0  0  0
    7.6880   -0.6140   20.7890 N   0  0  0  0  0  0  0  0  0  0  0  0
    7.3910   -1.1500   23.8140 N   0  0  0  0  0  0  0  0  0  0  0  0
    8.8300    0.0390   21.3680 C   0  0  0  0  0  0  0  0  0  0  0  0
    8.8750    0.2520   25.6140 O   0  0  0  0  0  0  0  0  0  0  0  0
    5.1750    0.9460   21.8830 C   0  0  0  0  0  0  0  0  0  0  0  0
    8.8020   -0.7530   24.5730 S   0  0  2  0  0  0  0  0  0  0  0  0
    7.2890   -3.4220   19.9660 C   0  0  0  0  0  0  0  0  0  0  0  0
    5.2720   -4.6930   19.9320 O   0  0  0  0  0  0  0  0  0  0  0  0
    0.7550   -1.5150   26.1910 Cl  0  0  0  0  0  0  0  0  0  0  0  0
    6.3030   -4.4580   20.5420 C   0  0  0  0  0  0  0  0  0  0  0  0
    3.9690   -6.4190   25.9130 O   0  0  0  0  0  0  0  0  0  0  0  0
    6.1010   -5.3450   26.7770 O   0  0  0  0  0  0  0  0  0  0  0  0
    5.0270   -5.4310   25.8130 S   0  0  0  0  0  0  0  0  0  0  0  0
    7.3910   -2.1090   22.8140 C   0  0  0  0  0  0  0  0  0  0  0  0
    6.5100   -3.1570   22.9910 C   0  0  0  0  0  0  0  0  0  0  0  0
    6.2440    0.5850   17.6540 N   0  0  0  0  0  0  0  0  0  0  0  0
    5.1850    1.2580   18.1490 C   0  0  0  0  0  0  0  0  0  0  0  0
    4.8520    1.3660   19.4850 C   0  0  0  0  0  0  0  0  0  0  0  0
    5.6570    0.7500   20.4180 C   0  0  0  0  0  0  0  0  0  0  0  0
    6.7500    0.0650   19.9240 C   0  0  0  0  0  0  0  0  0  0  0  0
    7.0110   -0.0040   18.5920 C   0  0  0  0  0  0  0  0  0  0  0  0
   11.6120   -1.3930   24.8130 N   0  0  0  0  0  0  0  0  0  0  0  0
   10.7920   -2.3930   25.2670 C   0  0  0  0  0  0  0  0  0  0  0  0
   11.2950   -3.7340   25.8690 C   0  0  0  0  0  0  0  0  0  0  0  0
   12.8490   -3.8310   25.9350 C   0  0  0  0  0  0  0  0  0  0  0  0
   13.6850   -2.6960   25.4330 C   0  0  0  0  0  0  0  0  0  0  0  0
   12.9390   -1.5130   24.8770 C   0  0  0  0  0  0  0  0  0  0  0  0
    8.5440   -3.2570   25.6730 C   0  0  0  0  0  0  0  0  0  0  0  0
    9.0260   -4.4390   26.1930 C   0  0  0  0  0  0  0  0  0  0  0  0
   10.3600   -4.6980   26.2990 C   0  0  0  0  0  0  0  0  0  0  0  0
    9.4200   -2.2600   25.2230 C   0  0  0  0  0  0  0  0  0  0  0  0
    6.5230   -5.1410   21.7490 N   0  0  0  0  0  0  0  0  0  0  0  0
    7.1420   -4.5480   22.8080 C   0  0  2  0  0  0  0  0  0  0  0  0
    7.1150   -5.2790   24.0000 C   0  0  0  0  0  0  0  0  0  0  0  0
    5.6840   -5.5450   24.2670 N   0  0  0  0  0  0  0  0  0  0  0  0
    4.8840   -6.0380   23.1380 C   0  0  0  0  0  0  0  0  0  0  0  0
    5.7570   -6.3470   22.0860 C   0  0  0  0  0  0  0  0  0  0  0  0
    2.4770   -3.8940   25.9700 S   0  0  0  0  0  0  0  0  0  0  0  0
    4.1960   -3.8640   25.9260 C   0  0  0  0  0  0  0  0  0  0  0  0
    4.5970   -2.5490   25.9950 C   0  0  0  0  0  0  0  0  0  0  0  0
    3.5090   -1.4900   26.0920 C   0  0  0  0  0  0  0  0  0  0  0  0
    2.3240   -2.1940   26.0860 C   0  0  0  0  0  0  0  0  0  0  0  0
  1  2  1  0
  1  4  1  0
  3  7  2  0
  4  7  1  0
  5  7  1  0
 10  1  1  6
  6 10  2  0
  8 10  2  0
 11 14  1  0
 12 14  2  0
 15 17  2  0
 16 17  2  0
  6 18  1  0
 18 19  1  0
 20 21  2  0
 21 22  1  0
  9 23  1  0
 22 23  2  0
  5 24  1  0
 23 24  1  0
 20 25  1  0
 24 25  2  0
 26 27  2  0
 27 28  1  0
 28 29  2  0
 29 30  1  0
 26 31  1  0
 30 31  2  0
 32 33  1  0
 28 34  1  0
 33 34  2  0
 10 35  1  0
 27 35  1  0
 32 35  2  0
 14 36  1  0
 37 19  1  1
 36 37  1  0
 37 38  1  0
 17 39  1  0
 38 39  1  0
 39 40  1  0
 36 41  1  0
 40 41  1  0
 17 43  1  0
 42 43  1  0
 43 44  2  0
 44 45  1  0
 13 46  1  0
 42 46  1  0
 45 46  2  0
M  END
