x1402-x0786
     RDKit          3D

 26 28  0  0  0  0  0  0  0  0999 V2000
    7.2570   -3.3510   19.7200 C   0  0  0  0  0  0  0  0  0  0  0  0
    5.2690   -4.6380   19.9250 O   0  0  0  0  0  0  0  0  0  0  0  0
    0.7500   -1.5680   26.3410 Cl  0  0  0  0  0  0  0  0  0  0  0  0
    6.3200   -4.3170   20.4550 C   0  0  0  0  0  0  0  0  0  0  0  0
    4.0850   -6.3860   25.1500 C   0  0  0  0  0  0  0  0  0  0  0  0
    5.7090   -3.8520   25.6760 O   0  0  0  0  0  0  0  0  0  0  0  0
    5.3130   -5.1550   25.2320 S   0  0  1  0  0  0  0  0  0  0  0  0
    3.3900   -7.6440   24.8930 N   0  0  0  0  0  0  0  0  0  0  0  0
    6.6700   -4.8750   21.6840 N   0  0  0  0  0  0  0  0  0  0  0  0
    7.6620   -4.2430   22.5290 C   0  0  0  0  0  0  0  0  0  0  0  0
    7.3060   -4.4220   23.8630 C   0  0  0  0  0  0  0  0  0  0  0  0
    6.6410   -5.4970   24.3150 N   0  0  0  0  0  0  0  0  0  0  0  0
    5.9450   -6.1760   23.2450 C   0  0  0  0  0  0  0  0  0  0  0  0
    6.4230   -6.1600   21.9640 C   0  0  0  0  0  0  0  0  0  0  0  0
    2.4630   -3.9180   25.5020 S   0  0  0  0  0  0  0  0  0  0  0  0
    4.1770   -3.8730   25.7400 C   0  0  0  0  0  0  0  0  0  0  0  0
    4.5110   -2.6710   26.3410 C   0  0  0  0  0  0  0  0  0  0  0  0
    3.4710   -1.8270   26.5920 C   0  0  0  0  0  0  0  0  0  0  0  0
    2.2530   -2.3350   26.1940 C   0  0  0  0  0  0  0  0  0  0  0  0
    1.2770   -5.8160   23.5570 C   0  0  0  0  0  0  0  0  0  0  0  0
    0.4320   -5.1390   24.4250 C   0  0  0  0  0  0  0  0  0  0  0  0
   -1.2360   -5.8270   24.2560 S   0  0  0  0  0  0  0  0  0  0  0  0
   -0.7800   -7.5200   24.7160 C   0  0  0  0  0  0  0  0  0  0  0  0
    0.2510   -8.0450   23.7010 C   0  0  0  0  0  0  0  0  0  0  0  0
    1.4670   -7.2520   23.8870 N   0  0  0  0  0  0  0  0  0  0  0  0
    2.0070   -7.6230   25.0630 C   0  0  0  0  0  0  0  0  0  0  0  0
  1  4  1  0
  2  4  2  0
  5  7  2  0
  6  7  2  0
  5  8  2  0
  4  9  1  0
  9 10  1  0
 10 11  1  0
  7 12  1  0
 11 12  1  0
 12 13  1  0
  9 14  1  0
 13 14  1  0
  7 16  1  1
 15 16  1  0
 16 17  2  0
 17 18  1  0
  3 19  1  0
 15 19  1  0
 18 19  2  0
 20 21  1  0
 21 22  1  0
 22 23  1  0
 23 24  1  0
 20 25  1  0
 24 25  1  0
  8 26  1  0
 25 26  1  0
M  END
