x1402-x0426
     RDKit          3D

 37 40  0  0  0  0  0  0  0  0999 V2000
    7.2860   -3.5070   19.9490 C   0  0  0  0  0  0  0  0  0  0  0  0
    5.3150   -4.8430   19.9790 O   0  0  0  0  0  0  0  0  0  0  0  0
    1.4790   -0.9040   26.1760 C   0  0  0  0  0  0  0  0  0  0  0  0
    6.3350   -4.5380   20.5760 C   0  0  0  0  0  0  0  0  0  0  0  0
    3.9590   -6.3780   25.9370 O   0  0  0  0  0  0  0  0  0  0  0  0
    5.9820   -5.2640   26.8760 O   0  0  0  0  0  0  0  0  0  0  0  0
    4.9510   -5.3310   25.8670 S   0  0  0  0  0  0  0  0  0  0  0  0
    2.2550    1.6530   23.8900 C   0  0  0  0  0  0  0  0  0  0  0  0
    2.2250    0.2910   24.0550 N   0  0  0  0  0  0  0  0  0  0  0  0
    3.2850    2.1450   23.0880 N   0  0  0  0  0  0  0  0  0  0  0  0
    4.0310    1.1030   22.4970 C   0  0  0  0  0  0  0  0  0  0  0  0
    3.6790    1.5390   21.2080 C   0  0  0  0  0  0  0  0  0  0  0  0
    2.8290    4.3340   25.3360 F   0  0  0  0  0  0  0  0  0  0  0  0
    1.1010   -0.2220   24.8890 C   0  0  0  0  0  0  0  0  0  0  0  0
    6.6320   -5.1610   21.8020 N   0  0  0  0  0  0  0  0  0  0  0  0
    7.3910   -4.6320   22.7980 C   0  0  0  0  0  0  0  0  0  0  0  0
    6.5860   -4.3590   23.9140 C   0  0  0  0  0  0  0  0  0  0  0  0
    5.7340   -5.4600   24.3560 N   0  0  0  0  0  0  0  0  0  0  0  0
    5.1060   -6.1020   23.3440 C   0  0  0  0  0  0  0  0  0  0  0  0
    5.7840   -6.2180   22.1370 C   0  0  0  0  0  0  0  0  0  0  0  0
    2.4050   -3.7440   26.2020 S   0  0  0  0  0  0  0  0  0  0  0  0
    4.1070   -3.8700   25.9230 C   0  0  0  0  0  0  0  0  0  0  0  0
    4.7720   -2.6620   25.7400 C   0  0  0  0  0  0  0  0  0  0  0  0
    3.9710   -1.5500   25.8030 C   0  0  0  0  0  0  0  0  0  0  0  0
    2.5510   -2.0490   26.0670 C   0  0  0  0  0  0  0  0  0  0  0  0
    1.5600    3.8770   25.2470 C   0  0  0  0  0  0  0  0  0  0  0  0
    1.2550    2.5680   24.5380 C   0  0  0  0  0  0  0  0  0  0  0  0
   -0.2280    2.1580   24.5020 C   0  0  0  0  0  0  0  0  0  0  0  0
   -1.1980    2.9680   25.1020 C   0  0  0  0  0  0  0  0  0  0  0  0
   -0.8150    4.1510   25.7330 C   0  0  0  0  0  0  0  0  0  0  0  0
    0.4960    4.6010   25.8100 C   0  0  0  0  0  0  0  0  0  0  0  0
    5.6710    0.1350   20.3260 C   0  0  0  0  0  0  0  0  0  0  0  0
    6.5150   -0.1880   19.2720 C   0  0  0  0  0  0  0  0  0  0  0  0
    6.4440    0.3630   18.0430 N   0  0  0  0  0  0  0  0  0  0  0  0
    5.4780    1.2750   17.8830 C   0  0  0  0  0  0  0  0  0  0  0  0
    4.5780    1.6850   18.8440 C   0  0  0  0  0  0  0  0  0  0  0  0
    4.6580    1.1090   20.1180 C   0  0  0  0  0  0  0  0  0  0  0  0
  1  4  1  0
  2  4  2  0
  5  7  2  0
  6  7  2  0
  8  9  2  3
  8 10  1  0
 10 11  1  0
 11 12  1  0
  3 14  1  0
  9 14  1  0
  4 15  1  0
 15 16  1  0
 16 17  1  0
  7 18  1  0
 17 18  1  0
 18 19  1  0
 15 20  1  0
 19 20  1  0
  7 22  1  0
 21 22  1  0
 22 23  2  0
 23 24  1  0
  3 25  1  0
 21 25  1  0
 24 25  2  0
 13 26  1  0
  8 27  1  0
 26 27  2  0
 27 28  1  0
 28 29  2  0
 29 30  1  0
 26 31  1  0
 30 31  2  0
 32 33  2  0
 33 34  1  0
 34 35  2  0
 35 36  1  0
 12 37  1  0
 32 37  1  0
 36 37  2  0
M  END
