x1402-x3108
     RDKit          3D

 41 44  0  0  0  0  0  0  0  0999 V2000
    6.0900    1.6460   21.9320 C   0  0  0  0  0  0  0  0  0  0  0  0
    9.3060    1.7330   21.4210 O   0  0  0  0  0  0  0  0  0  0  0  0
    8.0850   -0.3730   21.0820 N   0  0  0  0  0  0  0  0  0  0  0  0
    8.5700    0.2120   25.2770 O   0  0  0  0  0  0  0  0  0  0  0  0
    9.3860   -1.2220   23.5210 N   0  0  0  0  0  0  0  0  0  0  0  0
    9.0570    0.4210   21.7100 C   0  0  0  0  0  0  0  0  0  0  0  0
    9.9560   -0.2080   22.7900 C   0  0  0  0  0  0  0  0  0  0  0  0
    8.5230   -0.8320   24.6400 C   0  0  0  0  0  0  0  0  0  0  0  0
    7.4840   -1.9650   24.8850 C   0  0  0  0  0  0  0  0  0  0  0  0
    7.4370   -3.4940   20.0750 C   0  0  0  0  0  0  0  0  0  0  0  0
    5.3460   -4.6620   19.9530 O   0  0  0  0  0  0  0  0  0  0  0  0
    0.8150   -1.2550   26.1560 Cl  0  0  0  0  0  0  0  0  0  0  0  0
    6.4080   -4.5440   20.5660 C   0  0  0  0  0  0  0  0  0  0  0  0
    3.9400   -6.5130   25.8000 O   0  0  0  0  0  0  0  0  0  0  0  0
    5.9860   -5.3670   26.6820 O   0  0  0  0  0  0  0  0  0  0  0  0
    4.9010   -5.4350   25.7290 S   0  0  0  0  0  0  0  0  0  0  0  0
    7.4850   -1.5650   21.6910 C   0  0  0  0  0  0  0  0  0  0  0  0
    8.1990   -2.8070   21.2470 C   0  0  0  0  0  0  0  0  0  0  0  0
    6.2440    0.2350   17.8400 N   0  0  0  0  0  0  0  0  0  0  0  0
    7.1630   -0.2750   18.8310 C   0  0  0  0  0  0  0  0  0  0  0  0
    7.1450    0.1590   20.1460 C   0  0  0  0  0  0  0  0  0  0  0  0
    6.2060    1.1100   20.5360 C   0  0  0  0  0  0  0  0  0  0  0  0
    5.3080    1.6090   19.5890 C   0  0  0  0  0  0  0  0  0  0  0  0
    5.2640    1.2310   18.2480 C   0  0  0  0  0  0  0  0  0  0  0  0
    9.9000   -5.0110   24.7080 N   0  0  0  0  0  0  0  0  0  0  0  0
    9.1860   -3.7800   24.3570 C   0  0  0  0  0  0  0  0  0  0  0  0
    8.2560   -3.2470   25.2560 C   0  0  0  0  0  0  0  0  0  0  0  0
    7.9400   -3.8730   26.6070 C   0  0  0  0  0  0  0  0  0  0  0  0
    8.6810   -5.1420   26.9630 C   0  0  0  0  0  0  0  0  0  0  0  0
    9.6630   -5.6480   25.9230 C   0  0  0  0  0  0  0  0  0  0  0  0
    6.6640   -5.3970   21.6770 N   0  0  0  0  0  0  0  0  0  0  0  0
    7.5460   -5.0790   22.7940 C   0  0  0  0  0  0  0  0  0  0  0  0
    6.7280   -4.7440   23.8920 C   0  0  0  0  0  0  0  0  0  0  0  0
    5.5520   -5.4480   24.1800 N   0  0  0  0  0  0  0  0  0  0  0  0
    4.9060   -6.0190   23.1420 C   0  0  0  0  0  0  0  0  0  0  0  0
    5.7210   -6.2900   22.0250 C   0  0  0  0  0  0  0  0  0  0  0  0
    2.2620   -3.8420   25.8420 S   0  0  0  0  0  0  0  0  0  0  0  0
    3.9810   -3.9300   25.8890 C   0  0  0  0  0  0  0  0  0  0  0  0
    4.4930   -2.6670   26.0690 C   0  0  0  0  0  0  0  0  0  0  0  0
    3.5880   -1.6500   26.1730 C   0  0  0  0  0  0  0  0  0  0  0  0
    2.2820   -2.1410   26.0720 C   0  0  0  0  0  0  0  0  0  0  0  0
  2  6  2  0
  3  6  1  0
  5  7  1  0
  6  7  1  0
  4  8  2  0
  5  8  1  0
  8  9  1  0
 10 13  1  0
 11 13  2  0
 14 16  2  0
 15 16  2  0
  3 17  1  0
 10 18  1  0
 17 18  1  0
 19 20  2  0
  3 21  1  0
 20 21  1  0
  1 22  1  0
 21 22  2  0
 22 23  1  0
 19 24  1  0
 23 24  2  0
 25 26  2  0
  9 27  1  0
 26 27  1  0
 27 28  2  0
 28 29  1  0
 25 30  1  0
 29 30  2  0
 13 31  1  0
 31 32  1  0
 32 33  1  0
 16 34  1  0
 33 34  1  0
 34 35  1  0
 31 36  1  0
 35 36  1  0
 16 38  1  0
 37 38  1  0
 38 39  2  0
 39 40  1  0
 12 41  1  0
 37 41  1  0
 40 41  2  0
M  END
