x1402-x0769
     RDKit          3D

 19 20  0  0  0  0  0  0  0  0999 V2000
    7.3060   -3.4880   19.9730 C   0  0  0  0  0  0  0  0  0  0  0  0
    5.3370   -4.8060   19.9720 O   0  0  0  0  0  0  0  0  0  0  0  0
    0.7570   -1.3490   26.1310 Cl  0  0  0  0  0  0  0  0  0  0  0  0
    6.3700   -4.5560   20.5760 C   0  0  0  0  0  0  0  0  0  0  0  0
    4.0430   -6.4900   25.8550 O   0  0  0  0  0  0  0  0  0  0  0  0
    6.0750   -5.2730   26.6670 O   0  0  0  0  0  0  0  0  0  0  0  0
    4.9840   -5.4030   25.7280 S   0  0  0  0  0  0  0  0  0  0  0  0
    5.8980   -2.2810   26.1470 F   0  0  0  0  0  0  0  0  0  0  0  0
    6.6310   -5.2670   21.7510 N   0  0  0  0  0  0  0  0  0  0  0  0
    7.2280   -4.7580   22.6020 C   0  0  0  0  0  0  0  0  0  0  0  0
    6.4850   -4.4100   23.7560 C   0  0  0  0  0  0  0  0  0  0  0  0
    5.6760   -5.4610   24.1600 N   0  0  0  0  0  0  0  0  0  0  0  0
    4.7820   -5.7750   23.1210 C   0  0  0  0  0  0  0  0  0  0  0  0
    5.7840   -6.2110   22.2500 C   0  0  0  0  0  0  0  0  0  0  0  0
    2.3320   -3.8970   25.8280 S   0  0  0  0  0  0  0  0  0  0  0  0
    4.0660   -3.8820   25.8880 C   0  0  0  0  0  0  0  0  0  0  0  0
    4.5820   -2.6090   26.0650 C   0  0  0  0  0  0  0  0  0  0  0  0
    3.5350   -1.7240   26.1460 C   0  0  0  0  0  0  0  0  0  0  0  0
    2.2450   -2.1950   26.0490 C   0  0  0  0  0  0  0  0  0  0  0  0
  1  4  1  0
  2  4  2  0
  5  7  2  0
  6  7  2  0
  4  9  1  0
  9 10  1  0
 10 11  1  0
  7 12  1  0
 11 12  1  0
 12 13  1  0
  9 14  1  0
 13 14  1  0
  7 16  1  0
 15 16  1  0
  8 17  1  0
 16 17  2  0
 17 18  1  0
  3 19  1  0
 15 19  1  0
 18 19  2  0
M  END
