x1402-x2563
     RDKit          3D

 40 44  0  0  0  0  0  0  0  0999 V2000
    7.2030   -3.4490   19.5430 C   0  0  0  0  0  0  0  0  0  0  0  0
    5.5940   -5.1730   20.0330 O   0  0  0  0  0  0  0  0  0  0  0  0
    0.8530   -1.4750   26.0300 Cl  0  0  0  0  0  0  0  0  0  0  0  0
    6.4050   -4.3740   20.4850 C   0  0  0  0  0  0  0  0  0  0  0  0
    4.2500   -6.5240   26.2520 O   0  0  0  0  0  0  0  0  0  0  0  0
    6.2940   -5.1650   26.8340 O   0  0  0  0  0  0  0  0  0  0  0  0
    5.1370   -5.4100   25.9980 S   0  0  0  0  0  0  0  0  0  0  0  0
    8.2190   -0.3330   21.1700 C   0  0  0  0  0  0  0  0  0  0  0  0
    8.3050    0.8890   21.0100 O   0  0  0  0  0  0  0  0  0  0  0  0
    7.2610   -1.0750   20.5160 C   0  0  1  0  0  0  0  0  0  0  0  0
    9.0750   -1.1300   22.0260 N   0  0  0  0  0  0  0  0  0  0  0  0
    7.1830   -2.8480   22.2320 C   0  0  0  0  0  0  0  0  0  0  0  0
    6.4270   -1.9270   21.5060 C   0  0  0  0  0  0  0  0  0  0  0  0
    6.5490   -4.2350   22.0100 C   0  0  0  0  0  0  0  0  0  0  0  0
    7.3230   -5.1870   22.6590 C   0  0  0  0  0  0  0  0  0  0  0  0
    7.1260   -5.1670   24.0560 C   0  0  0  0  0  0  0  0  0  0  0  0
    5.7630   -5.6070   24.4210 N   0  0  0  0  0  0  0  0  0  0  0  0
    4.9170   -5.4080   23.3370 C   0  0  0  0  0  0  0  0  0  0  0  0
    5.1260   -4.2810   22.5930 C   0  0  0  0  0  0  0  0  0  0  0  0
    2.4300   -4.0250   25.9510 S   0  0  0  0  0  0  0  0  0  0  0  0
    4.1620   -4.0170   26.0030 C   0  0  0  0  0  0  0  0  0  0  0  0
    4.7010   -2.7460   26.0590 C   0  0  0  0  0  0  0  0  0  0  0  0
    3.7780   -1.7370   26.0710 C   0  0  0  0  0  0  0  0  0  0  0  0
    2.3550   -2.3090   26.0190 C   0  0  0  0  0  0  0  0  0  0  0  0
    6.1740    0.6860   17.4870 N   0  0  0  0  0  0  0  0  0  0  0  0
    5.1460    1.4350   17.8860 C   0  0  0  0  0  0  0  0  0  0  0  0
    4.6180    1.4760   19.2850 C   0  0  0  0  0  0  0  0  0  0  0  0
    5.3380    0.6030   20.2590 C   0  0  0  0  0  0  0  0  0  0  0  0
    6.3980   -0.1450   19.7600 C   0  0  0  0  0  0  0  0  0  0  0  0
    6.7380   -0.0570   18.4410 C   0  0  0  0  0  0  0  0  0  0  0  0
    3.5630    2.2310   19.7190 C   0  0  0  0  0  0  0  0  0  0  0  0
    3.1610    2.2020   21.0440 C   0  0  0  0  0  0  0  0  0  0  0  0
    3.7850    1.4190   22.0210 C   0  0  0  0  0  0  0  0  0  0  0  0
    4.8860    0.6170   21.5840 C   0  0  0  0  0  0  0  0  0  0  0  0
   11.3830   -0.6270   22.5250 C   0  0  0  0  0  0  0  0  0  0  0  0
   12.3440    0.0800   23.2280 C   0  0  0  0  0  0  0  0  0  0  0  0
   11.8240    0.9210   24.1210 C   0  0  0  0  0  0  0  0  0  0  0  0
   10.4840    1.1300   24.3940 C   0  0  0  0  0  0  0  0  0  0  0  0
    9.4430    0.3730   23.6430 C   0  0  0  0  0  0  0  0  0  0  0  0
   10.0160   -0.4640   22.7380 C   0  0  0  0  0  0  0  0  0  0  0  0
  1  4  1  0
  2  4  2  0
  5  7  2  0
  6  7  2  0
  8  9  2  0
  8 10  1  0
  8 11  1  0
 10 13  1  1
 12 13  1  0
 14  4  1  0
 12 14  1  0
 14 15  1  0
 15 16  1  0
  7 17  1  0
 16 17  1  0
 17 18  1  0
 14 19  1  0
 18 19  1  0
  7 21  1  0
 20 21  1  0
 21 22  2  0
 22 23  1  0
  3 24  1  0
 20 24  1  0
 23 24  2  0
 25 26  2  0
 26 27  1  0
 27 28  2  0
 10 29  1  0
 28 29  1  0
 25 30  1  0
 29 30  2  0
 27 31  1  0
 31 32  2  0
 32 33  1  0
 28 34  1  0
 33 34  2  0
 35 36  2  0
 36 37  1  0
 37 38  2  0
 38 39  1  0
 11 40  1  0
 35 40  1  0
 39 40  2  0
M  END
