x1402-x2910
     RDKit          3D

 44 48  0  0  0  0  0  0  0  0999 V2000
    7.2470   -1.6450   21.2100 N   0  0  0  0  0  0  0  0  0  0  0  0
   10.2190    2.5250   23.7040 C   0  0  0  0  0  0  0  0  0  0  0  0
   10.0750    1.3090   23.7400 O   0  0  0  0  0  0  0  0  0  0  0  0
    9.4580   -1.2730   23.1090 O   0  0  0  0  0  0  0  0  0  0  0  0
    5.0360   -2.8240   20.8070 O   0  0  0  0  0  0  0  0  0  0  0  0
    6.3020    1.3210   16.8030 O   0  0  0  0  0  0  0  0  0  0  0  0
    9.0210   -2.1770   22.3880 C   0  0  0  0  0  0  0  0  0  0  0  0
    7.4900   -2.0360   22.2560 C   0  0  2  0  0  0  0  0  0  0  0  0
    5.9060   -1.7120   20.6810 C   0  0  0  0  0  0  0  0  0  0  0  0
    7.2910   -3.4890   19.7830 C   0  0  0  0  0  0  0  0  0  0  0  0
    5.7300   -5.2840   20.0120 O   0  0  0  0  0  0  0  0  0  0  0  0
    0.9560   -1.4260   26.1030 Cl  0  0  0  0  0  0  0  0  0  0  0  0
    6.4900   -4.5250   20.5940 C   0  0  0  0  0  0  0  0  0  0  0  0
    4.3720   -6.3520   26.1700 O   0  0  0  0  0  0  0  0  0  0  0  0
    6.3440   -4.9880   26.9520 O   0  0  0  0  0  0  0  0  0  0  0  0
    5.2920   -5.2430   25.9990 S   0  0  0  0  0  0  0  0  0  0  0  0
    6.5290   -3.2160   22.7170 C   0  0  0  0  0  0  0  0  0  0  0  0
   11.0940    0.5510   23.2440 C   0  0  0  0  0  0  0  0  0  0  0  0
   10.7870   -0.7640   22.9120 C   0  0  0  0  0  0  0  0  0  0  0  0
   11.7320   -1.6320   22.3940 C   0  0  0  0  0  0  0  0  0  0  0  0
   13.0170   -1.1780   22.2100 C   0  0  0  0  0  0  0  0  0  0  0  0
   13.3260    0.1440   22.5490 C   0  0  0  0  0  0  0  0  0  0  0  0
   12.3860    1.0050   23.0600 C   0  0  0  0  0  0  0  0  0  0  0  0
    4.6690    1.9230   18.4210 N   0  0  0  0  0  0  0  0  0  0  0  0
    4.0880    1.6080   19.5860 C   0  0  0  0  0  0  0  0  0  0  0  0
    4.3950    0.4020   20.4960 C   0  0  0  0  0  0  0  0  0  0  0  0
    5.5090   -0.5560   19.9730 C   0  0  0  0  0  0  0  0  0  0  0  0
    6.1790   -0.2290   18.6700 C   0  0  0  0  0  0  0  0  0  0  0  0
    5.7110    1.0150   17.9620 C   0  0  0  0  0  0  0  0  0  0  0  0
    2.9880    2.5160   20.1220 C   0  0  0  0  0  0  0  0  0  0  0  0
    2.3530    2.2490   21.3240 C   0  0  0  0  0  0  0  0  0  0  0  0
    2.6900    1.1380   22.1010 C   0  0  0  0  0  0  0  0  0  0  0  0
    3.6770    0.2430   21.7040 C   0  0  0  0  0  0  0  0  0  0  0  0
    6.4460   -4.6380   22.1300 C   0  0  0  0  0  0  0  0  0  0  0  0
    7.5360   -5.2540   22.7640 C   0  0  0  0  0  0  0  0  0  0  0  0
    7.4360   -5.1270   24.1850 C   0  0  0  0  0  0  0  0  0  0  0  0
    5.9630   -5.3780   24.4290 N   0  0  0  0  0  0  0  0  0  0  0  0
    5.1550   -5.9760   23.4660 C   0  0  0  0  0  0  0  0  0  0  0  0
    5.1450   -5.3570   22.2960 C   0  0  0  0  0  0  0  0  0  0  0  0
    2.5660   -3.9410   26.1740 S   0  0  0  0  0  0  0  0  0  0  0  0
    4.2770   -3.8830   26.0050 C   0  0  0  0  0  0  0  0  0  0  0  0
    4.8280   -2.4650   25.8530 C   0  0  0  0  0  0  0  0  0  0  0  0
    3.7290   -1.6590   25.8890 C   0  0  0  0  0  0  0  0  0  0  0  0
    2.4750   -2.2380   26.0420 C   0  0  0  0  0  0  0  0  0  0  0  0
  2  3  1  0
  4  7  1  0
  1  8  1  0
  8  7  1  6
  1  9  1  0
  5  9  2  0
 10 13  1  0
 11 13  2  0
 14 16  2  0
 15 16  2  0
  8 17  1  0
  3 18  1  0
  4 19  1  0
 18 19  2  0
 19 20  1  0
 20 21  2  0
 21 22  1  0
 18 23  1  0
 22 23  2  0
 24 25  2  0
 25 26  1  0
  9 27  1  0
 26 27  2  0
 27 28  1  0
  6 29  1  0
 24 29  1  0
 28 29  2  0
 25 30  1  0
 30 31  2  0
 31 32  1  0
 26 33  1  0
 32 33  2  0
 34 13  1  0
 17 34  1  0
 34 35  1  0
 35 36  1  0
 16 37  1  0
 36 37  1  0
 37 38  1  0
 34 39  1  0
 38 39  1  0
 16 41  1  0
 40 41  1  0
 41 42  2  0
 42 43  1  0
 12 44  1  0
 40 44  1  0
 43 44  2  0
M  END
