x1402-x3124
     RDKit          3D

 42 45  0  0  0  0  0  0  0  0999 V2000
    7.1200   -1.2400   21.9630 N   0  0  0  0  0  0  0  0  0  0  0  0
    7.9020    1.5550   23.3850 N   0  0  0  0  0  0  0  0  0  0  0  0
    8.7520    1.7070   21.0960 O   0  0  0  0  0  0  0  0  0  0  0  0
    6.8060    0.1010   21.7820 C   0  0  1  0  0  0  0  0  0  0  0  0
    7.8700    1.1490   22.0840 C   0  0  0  0  0  0  0  0  0  0  0  0
    8.8360    2.5850   23.7910 C   0  0  0  0  0  0  0  0  0  0  0  0
   12.3690   -1.8820   24.2400 C   0  0  0  0  0  0  0  0  0  0  0  0
   12.6030   -0.7520   24.9900 C   0  0  0  0  0  0  0  0  0  0  0  0
   13.4060   -1.9290   23.1170 C   0  0  0  0  0  0  0  0  0  0  0  0
   12.7480   -3.0810   25.1650 C   0  0  0  0  0  0  0  0  0  0  0  0
    7.2080   -3.4330   19.7860 C   0  0  0  0  0  0  0  0  0  0  0  0
    5.5830   -5.1830   19.9970 O   0  0  0  0  0  0  0  0  0  0  0  0
    0.8840   -1.4360   26.1610 Cl  0  0  0  0  0  0  0  0  0  0  0  0
    6.3580   -4.4510   20.5760 C   0  0  0  0  0  0  0  0  0  0  0  0
    4.1140   -6.4570   25.9670 O   0  0  0  0  0  0  0  0  0  0  0  0
    6.0500   -5.1910   26.9220 O   0  0  0  0  0  0  0  0  0  0  0  0
    5.0580   -5.3580   25.9030 S   0  0  0  0  0  0  0  0  0  0  0  0
    5.9430   -2.1550   22.0590 C   0  0  0  0  0  0  0  0  0  0  0  0
    6.2460   -3.2820   22.7910 C   0  0  0  0  0  0  0  0  0  0  0  0
    6.3570    0.2910   17.8820 N   0  0  0  0  0  0  0  0  0  0  0  0
    5.1820    1.1560   17.8470 C   0  0  0  0  0  0  0  0  0  0  0  0
    4.5910    1.6070   19.0050 C   0  0  0  0  0  0  0  0  0  0  0  0
    5.0150    1.3270   20.2870 C   0  0  0  0  0  0  0  0  0  0  0  0
    6.2580    0.4320   20.4170 C   0  0  0  0  0  0  0  0  0  0  0  0
    6.8570   -0.0470   19.0770 C   0  0  0  0  0  0  0  0  0  0  0  0
    9.4160   -1.8610   21.8060 C   0  0  0  0  0  0  0  0  0  0  0  0
   10.8250   -2.0660   22.2820 C   0  0  0  0  0  0  0  0  0  0  0  0
   11.0120   -1.7770   23.6250 C   0  0  0  0  0  0  0  0  0  0  0  0
    9.9380   -1.3560   24.4410 C   0  0  0  0  0  0  0  0  0  0  0  0
    8.6410   -1.1910   23.9070 C   0  0  0  0  0  0  0  0  0  0  0  0
    8.3920   -1.4370   22.5660 C   0  0  0  0  0  0  0  0  0  0  0  0
    6.3130   -4.6190   22.1030 C   0  0  0  0  0  0  0  0  0  0  0  0
    7.4380   -5.2280   22.6560 C   0  0  0  0  0  0  0  0  0  0  0  0
    7.2310   -5.2100   24.0430 C   0  0  0  0  0  0  0  0  0  0  0  0
    5.7690   -5.4160   24.3600 N   0  0  0  0  0  0  0  0  0  0  0  0
    5.0380   -6.1480   23.3510 C   0  0  0  0  0  0  0  0  0  0  0  0
    5.0080   -5.3420   22.2890 C   0  0  0  0  0  0  0  0  0  0  0  0
    2.4000   -3.9620   25.9930 S   0  0  0  0  0  0  0  0  0  0  0  0
    4.1060   -3.9630   25.9760 C   0  0  0  0  0  0  0  0  0  0  0  0
    4.7010   -2.5640   26.0320 C   0  0  0  0  0  0  0  0  0  0  0  0
    3.6650   -1.6730   26.0890 C   0  0  0  0  0  0  0  0  0  0  0  0
    2.3930   -2.2590   26.0820 C   0  0  0  0  0  0  0  0  0  0  0  0
  1  4  1  0
  2  5  1  0
  3  5  2  0
  4  5  1  6
  2  6  1  0
  7  8  1  0
  7  9  1  0
  7 10  1  0
 11 14  1  0
 12 14  2  0
 15 17  2  0
 16 17  2  0
  1 18  1  0
 18 19  1  0
 20 21  2  0
 21 22  1  0
 22 23  2  0
  4 24  1  0
 23 24  1  0
 20 25  1  0
 24 25  2  0
 26 27  2  0
  7 28  1  0
 27 28  1  0
 28 29  2  0
 29 30  1  0
  1 31  1  0
 26 31  1  0
 30 31  2  0
 32 14  1  0
 19 32  1  0
 32 33  1  0
 33 34  1  0
 17 35  1  0
 34 35  1  0
 35 36  1  0
 32 37  1  0
 36 37  1  0
 17 39  1  0
 38 39  1  0
 39 40  2  0
 40 41  1  0
 13 42  1  0
 38 42  1  0
 41 42  2  0
M  END
