x1402-x1382
     RDKit          3D

 30 32  0  0  0  0  0  0  0  0999 V2000
    7.2740   -3.3850   19.8190 C   0  0  0  0  0  0  0  0  0  0  0  0
    5.2770   -4.6680   19.9480 O   0  0  0  0  0  0  0  0  0  0  0  0
    0.9090   -1.2700   26.1800 Cl  0  0  0  0  0  0  0  0  0  0  0  0
    6.3570   -4.4490   20.4850 C   0  0  0  0  0  0  0  0  0  0  0  0
    4.0820   -6.4520   25.8710 O   0  0  0  0  0  0  0  0  0  0  0  0
    6.0360   -5.1200   26.7100 O   0  0  0  0  0  0  0  0  0  0  0  0
    4.9820   -5.3290   25.7400 S   0  0  0  0  0  0  0  0  0  0  0  0
   13.3700   -2.0590   21.3620 Cl  0  0  0  0  0  0  0  0  0  0  0  0
    7.4260   -1.0080   23.3640 C   0  0  0  0  0  0  0  0  0  0  0  0
    8.4610   -1.9190   23.1130 C   0  0  1  0  0  0  0  0  0  0  0  0
    8.1720   -2.7230   22.0430 N   0  0  0  0  0  0  0  0  0  0  0  0
    7.7400   -2.2550   20.7880 C   0  0  0  0  0  0  0  0  0  0  0  0
    7.7360   -1.0470   20.5020 O   0  0  0  0  0  0  0  0  0  0  0  0
    6.7130   -5.2330   21.6080 N   0  0  0  0  0  0  0  0  0  0  0  0
    7.4960   -4.8070   22.7720 C   0  0  0  0  0  0  0  0  0  0  0  0
    6.6170   -4.3300   23.7470 C   0  0  0  0  0  0  0  0  0  0  0  0
    5.6760   -5.3810   24.1820 N   0  0  0  0  0  0  0  0  0  0  0  0
    4.9690   -5.8430   23.1110 C   0  0  0  0  0  0  0  0  0  0  0  0
    5.7590   -6.2610   22.0280 C   0  0  0  0  0  0  0  0  0  0  0  0
    2.3250   -3.9070   25.8670 S   0  0  0  0  0  0  0  0  0  0  0  0
    4.0400   -3.9350   25.8850 C   0  0  0  0  0  0  0  0  0  0  0  0
    4.5690   -2.6700   26.0310 C   0  0  0  0  0  0  0  0  0  0  0  0
    3.6170   -1.6850   26.1350 C   0  0  0  0  0  0  0  0  0  0  0  0
    2.3390   -2.2120   26.0680 C   0  0  0  0  0  0  0  0  0  0  0  0
    9.7170   -1.2730   22.8880 C   0  0  0  0  0  0  0  0  0  0  0  0
   10.8740   -2.0230   22.2760 C   0  0  0  0  0  0  0  0  0  0  0  0
   12.1520   -1.2400   22.0800 C   0  0  0  0  0  0  0  0  0  0  0  0
   12.3440    0.1870   22.4640 C   0  0  0  0  0  0  0  0  0  0  0  0
   11.1370    0.8560   23.0370 C   0  0  0  0  0  0  0  0  0  0  0  0
    9.9140    0.2190   23.2520 C   0  0  0  0  0  0  0  0  0  0  0  0
  1  4  1  0
  2  4  2  0
  5  7  2  0
  6  7  2  0
 10  9  1  6
 10 11  1  0
  1 12  1  0
 11 12  1  0
 12 13  2  0
  4 14  1  0
 14 15  1  0
 15 16  1  0
  7 17  1  0
 16 17  1  0
 17 18  1  0
 14 19  1  0
 18 19  1  0
  7 21  1  0
 20 21  1  0
 21 22  2  0
 22 23  1  0
  3 24  1  0
 20 24  1  0
 23 24  2  0
 10 25  1  0
 25 26  2  0
  8 27  1  0
 26 27  1  0
 27 28  2  0
 28 29  1  0
 25 30  1  0
 29 30  2  0
M  END
