x1402-x2912
     RDKit          3D

 40 43  0  0  0  0  0  0  0  0999 V2000
    7.2540   -3.4220   19.9080 C   0  0  0  0  0  0  0  0  0  0  0  0
    5.3050   -4.7800   19.9650 O   0  0  0  0  0  0  0  0  0  0  0  0
    0.7230   -1.3690   26.1140 Cl  0  0  0  0  0  0  0  0  0  0  0  0
    6.3320   -4.4720   20.5500 C   0  0  0  0  0  0  0  0  0  0  0  0
    3.9080   -6.4550   25.7940 O   0  0  0  0  0  0  0  0  0  0  0  0
    5.9210   -5.3380   26.8000 O   0  0  0  0  0  0  0  0  0  0  0  0
    4.9040   -5.4100   25.7740 S   0  0  0  0  0  0  0  0  0  0  0  0
    7.0410   -0.4740   21.0380 N   0  0  0  0  0  0  0  0  0  0  0  0
    7.8720   -0.9230   23.7960 C   0  0  0  0  0  0  0  0  0  0  0  0
    8.8620    1.2420   21.3010 O   0  0  0  0  0  0  0  0  0  0  0  0
    8.6390   -0.8880   22.6310 C   0  0  1  0  0  0  0  0  0  0  0  0
    8.2060   -0.0080   21.6600 C   0  0  0  0  0  0  0  0  0  0  0  0
   13.7540   -2.2810   20.6270 N   0  0  0  0  0  0  0  0  0  0  0  0
    4.7130    1.3100   21.6550 C   0  0  0  0  0  0  0  0  0  0  0  0
   13.1370   -1.6240   21.5210 C   0  0  0  0  0  0  0  0  0  0  0  0
    6.6810   -2.9730   22.8130 C   0  0  0  0  0  0  0  0  0  0  0  0
    7.2770   -2.2950   23.8940 C   0  0  0  0  0  0  0  0  0  0  0  0
    6.6390   -5.1210   21.7650 N   0  0  0  0  0  0  0  0  0  0  0  0
    7.2060   -4.4270   22.8120 C   0  0  2  0  0  0  0  0  0  0  0  0
    7.0100   -4.8340   24.1210 C   0  0  0  0  0  0  0  0  0  0  0  0
    5.6860   -5.4100   24.2690 N   0  0  0  0  0  0  0  0  0  0  0  0
    5.0790   -6.0660   23.2670 C   0  0  0  0  0  0  0  0  0  0  0  0
    5.8310   -6.1590   22.1200 C   0  0  0  0  0  0  0  0  0  0  0  0
    2.3040   -3.8780   25.8410 S   0  0  0  0  0  0  0  0  0  0  0  0
    4.0340   -3.9710   25.9110 C   0  0  0  0  0  0  0  0  0  0  0  0
    4.7310   -2.6220   26.1140 C   0  0  0  0  0  0  0  0  0  0  0  0
    3.6160   -1.5910   26.1950 C   0  0  0  0  0  0  0  0  0  0  0  0
    2.2280   -2.1790   26.0610 C   0  0  0  0  0  0  0  0  0  0  0  0
    6.2520    0.5600   17.6460 N   0  0  0  0  0  0  0  0  0  0  0  0
    5.2130    1.3660   17.9010 C   0  0  0  0  0  0  0  0  0  0  0  0
    4.6900    1.6290   19.1480 C   0  0  0  0  0  0  0  0  0  0  0  0
    5.2970    1.0120   20.2290 C   0  0  0  0  0  0  0  0  0  0  0  0
    6.3760    0.1740   20.0050 C   0  0  0  0  0  0  0  0  0  0  0  0
    6.8020   -0.0140   18.7150 C   0  0  0  0  0  0  0  0  0  0  0  0
   10.4260    0.4820   23.8970 C   0  0  0  0  0  0  0  0  0  0  0  0
   11.7890    0.7230   24.0210 C   0  0  0  0  0  0  0  0  0  0  0  0
   12.6820    0.0390   23.2580 C   0  0  0  0  0  0  0  0  0  0  0  0
   12.3270   -0.9130   22.3310 C   0  0  0  0  0  0  0  0  0  0  0  0
   11.0120   -1.1260   22.2280 C   0  0  0  0  0  0  0  0  0  0  0  0
   10.0570   -0.4770   22.9570 C   0  0  0  0  0  0  0  0  0  0  0  0
  1  4  1  0
  2  4  2  0
  5  7  2  0
  6  7  2  0
 11  9  1  1
  8 12  1  0
 10 12  2  0
 11 12  1  0
 13 15  3  0
  9 17  1  0
 16 17  1  0
  4 18  1  0
 19 16  1  1
 18 19  1  0
 19 20  1  0
  7 21  1  0
 20 21  1  0
 21 22  1  0
 18 23  1  0
 22 23  1  0
  7 25  1  0
 24 25  1  0
 25 26  2  0
 26 27  1  0
  3 28  1  0
 24 28  1  0
 27 28  2  0
 29 30  2  0
 30 31  1  0
 14 32  1  0
 31 32  2  0
  8 33  1  0
 32 33  1  0
 29 34  1  0
 33 34  2  0
 35 36  2  0
 36 37  1  0
 15 38  1  0
 37 38  2  0
 38 39  1  0
 11 40  1  0
 35 40  1  0
 39 40  2  0
M  END
