x1402-x3305
     RDKit          3D

 36 39  0  0  0  0  0  0  0  0999 V2000
    3.6820   -7.4160   24.2160 C   0  0  0  0  0  0  0  0  0  0  0  0
    5.6870   -3.4580   20.2320 C   0  0  0  0  0  0  0  0  0  0  0  0
    7.5410   -3.9800   21.8710 N   0  0  0  0  0  0  0  0  0  0  0  0
    7.5340   -1.9010   20.7800 N   0  0  0  0  0  0  0  0  0  0  0  0
    6.9100   -3.7430   22.8590 C   0  0  0  0  0  0  0  0  0  0  0  0
    7.1800   -3.3560   20.5510 C   0  0  2  0  0  0  0  0  0  0  0  0
    8.1300   -1.4170   22.0030 C   0  0  0  0  0  0  0  0  0  0  0  0
    9.3580   -2.1310   21.9980 C   0  0  0  0  0  0  0  0  0  0  0  0
    7.6370   -0.9440   19.8290 C   0  0  0  0  0  0  0  0  0  0  0  0
    5.1460   -4.5140   19.8910 O   0  0  0  0  0  0  0  0  0  0  0  0
    0.6870   -1.4270   26.1040 Cl  0  0  0  0  0  0  0  0  0  0  0  0
    4.3470   -6.1330   26.3930 O   0  0  0  0  0  0  0  0  0  0  0  0
    6.4540   -4.7680   26.3320 O   0  0  0  0  0  0  0  0  0  0  0  0
    5.1390   -5.0710   25.8090 S   0  0  0  0  0  0  0  0  0  0  0  0
    4.5840   -6.5120   23.5640 N   0  0  0  0  0  0  0  0  0  0  0  0
    5.2530   -5.4850   24.0890 C   0  0  0  0  0  0  0  0  0  0  0  0
    5.9740   -4.9050   23.0460 C   0  0  0  0  0  0  0  0  0  0  0  0
    5.7050   -5.6770   21.8660 N   0  0  0  0  0  0  0  0  0  0  0  0
    4.8590   -6.6330   22.2470 N   0  0  0  0  0  0  0  0  0  0  0  0
    5.7210    1.4570   17.7360 N   0  0  0  0  0  0  0  0  0  0  0  0
    6.5990    0.6300   18.3040 C   0  0  0  0  0  0  0  0  0  0  0  0
    6.4120   -0.1010   19.4570 C   0  0  0  0  0  0  0  0  0  0  0  0
    5.2050    0.0140   20.1180 C   0  0  0  0  0  0  0  0  0  0  0  0
    4.2680    0.8650   19.5780 C   0  0  0  0  0  0  0  0  0  0  0  0
    4.5740    1.5460   18.4150 C   0  0  0  0  0  0  0  0  0  0  0  0
   10.4760    0.2620   22.8460 C   0  0  0  0  0  0  0  0  0  0  0  0
   11.7640    1.0780   23.1100 C   0  0  0  0  0  0  0  0  0  0  0  0
   13.0830    0.4130   22.8490 C   0  0  0  0  0  0  0  0  0  0  0  0
   13.0580   -1.0240   22.3370 C   0  0  0  0  0  0  0  0  0  0  0  0
   11.8590   -1.6960   22.1170 C   0  0  0  0  0  0  0  0  0  0  0  0
   10.5750   -1.1790   22.3250 C   0  0  0  0  0  0  0  0  0  0  0  0
    2.4740   -3.7640   25.9140 S   0  0  0  0  0  0  0  0  0  0  0  0
    4.1830   -3.5930   25.9030 C   0  0  0  0  0  0  0  0  0  0  0  0
    4.5410   -2.2680   25.9770 C   0  0  0  0  0  0  0  0  0  0  0  0
    3.4910   -1.3970   26.0460 C   0  0  0  0  0  0  0  0  0  0  0  0
    2.2650   -2.0910   26.0250 C   0  0  0  0  0  0  0  0  0  0  0  0
  3  5  1  0
  6  2  1  1
  3  6  1  0
  4  6  1  0
  4  7  1  0
  7  8  1  0
  4  9  1  0
  2 10  2  0
 12 14  2  0
 13 14  2  0
  1 15  1  0
 14 16  1  0
 15 16  1  0
  5 17  1  0
 16 17  2  0
 17 18  1  0
 15 19  1  0
 18 19  2  0
 20 21  2  0
  9 22  1  0
 21 22  1  0
 22 23  2  0
 23 24  1  0
 20 25  1  0
 24 25  2  0
 26 27  2  0
 27 28  1  0
 28 29  2  0
 29 30  1  0
  8 31  1  0
 26 31  1  0
 30 31  2  0
 14 33  1  0
 32 33  1  0
 33 34  2  0
 34 35  1  0
 11 36  1  0
 32 36  1  0
 35 36  2  0
M  END
