x1402-x1358
     RDKit          3D

 28 30  0  0  0  0  0  0  0  0999 V2000
    7.8050   -3.6650   20.3040 C   0  0  0  0  0  0  0  0  0  0  0  0
    5.5400   -4.4380   19.9110 O   0  0  0  0  0  0  0  0  0  0  0  0
    0.4450   -1.5260   26.1730 Cl  0  0  0  0  0  0  0  0  0  0  0  0
    6.5780   -4.5410   20.5860 C   0  0  0  0  0  0  0  0  0  0  0  0
    3.9310   -6.5040   25.8780 O   0  0  0  0  0  0  0  0  0  0  0  0
    5.8990   -5.2390   26.7470 O   0  0  0  0  0  0  0  0  0  0  0  0
    4.8110   -5.3640   25.7930 S   0  0  0  0  0  0  0  0  0  0  0  0
    7.2310   -1.8500   25.8770 N   0  0  0  0  0  0  0  0  0  0  0  0
    5.8880   -0.3300   25.2910 O   0  0  0  0  0  0  0  0  0  0  0  0
    5.4170   -3.6050   25.5510 N   0  0  0  0  0  0  0  0  0  0  0  0
    6.6890   -3.1680   25.6830 C   0  0  0  0  0  0  0  0  0  0  0  0
    6.6910   -5.4610   21.6240 N   0  0  0  0  0  0  0  0  0  0  0  0
    7.5790   -5.2220   22.6480 C   0  0  0  0  0  0  0  0  0  0  0  0
    6.8680   -4.8380   23.9770 C   0  0  0  0  0  0  0  0  0  0  0  0
    5.5580   -5.4930   24.2690 N   0  0  0  0  0  0  0  0  0  0  0  0
    4.8510   -5.9500   23.2130 C   0  0  0  0  0  0  0  0  0  0  0  0
    5.6500   -6.4200   22.0100 C   0  0  0  0  0  0  0  0  0  0  0  0
    2.0760   -3.9400   26.0850 S   0  0  0  0  0  0  0  0  0  0  0  0
    3.7710   -3.8270   25.8270 C   0  0  0  0  0  0  0  0  0  0  0  0
    4.5090   -2.4990   25.6170 C   0  0  0  0  0  0  0  0  0  0  0  0
    3.1780   -1.7240   25.7680 C   0  0  0  0  0  0  0  0  0  0  0  0
    1.9560   -2.3100   25.9940 C   0  0  0  0  0  0  0  0  0  0  0  0
    6.3770   -0.2870   26.5710 C   0  0  0  0  0  0  0  0  0  0  0  0
    7.2640   -1.1930   27.1300 C   0  0  0  0  0  0  0  0  0  0  0  0
    7.8440   -1.3020   28.3640 C   0  0  0  0  0  0  0  0  0  0  0  0
    7.4700   -0.2950   29.2570 C   0  0  0  0  0  0  0  0  0  0  0  0
    6.5580    0.7220   28.8400 C   0  0  0  0  0  0  0  0  0  0  0  0
    5.9880    0.7080   27.4050 C   0  0  0  0  0  0  0  0  0  0  0  0
  1  4  1  0
  2  4  2  0
  5  7  2  0
  6  7  2  0
  8 11  1  0
 10 11  2  3
  4 12  1  0
 12 13  1  0
 13 14  1  0
  7 15  1  0
 14 15  1  0
 15 16  1  0
 12 17  1  0
 16 17  1  0
  7 19  1  0
 18 19  1  0
 10 20  1  0
 19 20  2  0
 20 21  1  0
  3 22  1  0
 18 22  1  0
 21 22  2  0
  9 23  1  0
  8 24  1  0
 23 24  2  0
 24 25  1  0
 25 26  2  0
 26 27  1  0
 23 28  1  0
 27 28  2  0
M  END
