x1402-x1308
     RDKit          3D

 18 19  0  0  0  0  0  0  0  0999 V2000
    7.3540   -3.5270   19.9920 C   0  0  0  0  0  0  0  0  0  0  0  0
    5.3460   -4.7870   19.9750 O   0  0  0  0  0  0  0  0  0  0  0  0
    0.8060   -1.2950   26.1380 Cl  0  0  0  0  0  0  0  0  0  0  0  0
    6.3810   -4.5610   20.5850 C   0  0  0  0  0  0  0  0  0  0  0  0
    4.0740   -6.4880   25.8860 O   0  0  0  0  0  0  0  0  0  0  0  0
    6.1120   -5.2500   26.6620 O   0  0  0  0  0  0  0  0  0  0  0  0
    5.0110   -5.3980   25.7390 S   0  0  0  0  0  0  0  0  0  0  0  0
    6.6280   -5.2740   21.7580 N   0  0  0  0  0  0  0  0  0  0  0  0
    7.2220   -4.7710   22.6140 C   0  0  0  0  0  0  0  0  0  0  0  0
    6.4670   -4.4010   23.7460 C   0  0  0  0  0  0  0  0  0  0  0  0
    5.6810   -5.4620   24.1640 N   0  0  0  0  0  0  0  0  0  0  0  0
    4.7780   -5.7830   23.1350 C   0  0  0  0  0  0  0  0  0  0  0  0
    5.7700   -6.2180   22.2570 C   0  0  0  0  0  0  0  0  0  0  0  0
    2.3620   -3.8620   25.8690 S   0  0  0  0  0  0  0  0  0  0  0  0
    4.0960   -3.8780   25.8790 C   0  0  0  0  0  0  0  0  0  0  0  0
    4.5760   -2.5950   26.0060 C   0  0  0  0  0  0  0  0  0  0  0  0
    3.5890   -1.6590   26.0950 C   0  0  0  0  0  0  0  0  0  0  0  0
    2.2930   -2.1410   26.0450 C   0  0  0  0  0  0  0  0  0  0  0  0
  1  4  1  0
  2  4  2  0
  5  7  2  0
  6  7  2  0
  4  8  1  0
  8  9  1  0
  9 10  1  0
  7 11  1  0
 10 11  1  0
 11 12  1  0
  8 13  1  0
 12 13  1  0
  7 15  1  0
 14 15  1  0
 15 16  2  0
 16 17  1  0
  3 18  1  0
 14 18  1  0
 17 18  2  0
M  END
