x1402-x3298
     RDKit          3D

 48 52  0  0  0  0  0  0  0  0999 V2000
    6.9680    2.0040   22.1510 N   0  0  0  0  0  0  0  0  0  0  0  0
    7.2090   -0.2990   21.2740 C   0  0  2  0  0  0  0  0  0  0  0  0
    6.5150   -0.8300   22.1550 O   0  0  0  0  0  0  0  0  0  0  0  0
    7.7920    1.0830   21.5130 C   0  0  0  0  0  0  0  0  0  0  0  0
    8.7640    1.2310   23.8180 N   0  0  0  0  0  0  0  0  0  0  0  0
    8.9180    1.3920   21.1080 O   0  0  0  0  0  0  0  0  0  0  0  0
   10.5800    1.9370   24.7830 O   0  0  0  0  0  0  0  0  0  0  0  0
    9.6590   -0.2180   25.8200 O   0  0  0  0  0  0  0  0  0  0  0  0
   13.6360   -1.8610   20.9300 F   0  0  0  0  0  0  0  0  0  0  0  0
   10.0020    0.6370   24.7060 S   0  0  0  0  0  0  0  0  0  0  0  0
    7.2700   -3.4670   19.8950 C   0  0  0  0  0  0  0  0  0  0  0  0
    5.3010   -4.7690   19.9670 O   0  0  0  0  0  0  0  0  0  0  0  0
    0.7860   -1.3530   26.1690 Cl  0  0  0  0  0  0  0  0  0  0  0  0
    6.3680   -4.5400   20.5170 C   0  0  0  0  0  0  0  0  0  0  0  0
    4.0860   -6.3190   25.7800 O   0  0  0  0  0  0  0  0  0  0  0  0
    6.0520   -5.0590   26.7120 O   0  0  0  0  0  0  0  0  0  0  0  0
    5.0240   -5.2230   25.7140 S   0  0  0  0  0  0  0  0  0  0  0  0
    6.9640   -2.0550   22.6140 C   0  0  0  0  0  0  0  0  0  0  0  0
    5.9770   -2.9940   22.9840 C   0  0  0  0  0  0  0  0  0  0  0  0
    6.3090    0.3100   17.6730 N   0  0  0  0  0  0  0  0  0  0  0  0
    6.9690   -0.1360   18.7910 C   0  0  0  0  0  0  0  0  0  0  0  0
    6.5250    0.1050   20.0720 C   0  0  0  0  0  0  0  0  0  0  0  0
    5.3340    0.8220   20.1790 C   0  0  0  0  0  0  0  0  0  0  0  0
    4.6360    1.2840   19.0850 C   0  0  0  0  0  0  0  0  0  0  0  0
    5.1450    1.0240   17.8410 C   0  0  0  0  0  0  0  0  0  0  0  0
    7.6380    4.4220   22.3790 C   0  0  0  0  0  0  0  0  0  0  0  0
    8.4870    5.3790   22.9320 C   0  0  0  0  0  0  0  0  0  0  0  0
    9.5200    5.0820   23.8120 C   0  0  0  0  0  0  0  0  0  0  0  0
    9.7300    3.5980   24.2030 C   0  0  0  0  0  0  0  0  0  0  0  0
    8.7600    2.5710   23.5900 C   0  0  0  0  0  0  0  0  0  0  0  0
    7.7370    3.0580   22.6660 C   0  0  0  0  0  0  0  0  0  0  0  0
   12.3780    0.4260   23.3510 C   0  0  0  0  0  0  0  0  0  0  0  0
   13.2340   -0.1420   22.4750 C   0  0  0  0  0  0  0  0  0  0  0  0
   12.8210   -1.2960   21.8190 C   0  0  0  0  0  0  0  0  0  0  0  0
   11.5820   -1.8830   22.0410 C   0  0  0  0  0  0  0  0  0  0  0  0
   10.6950   -1.3200   22.9350 C   0  0  0  0  0  0  0  0  0  0  0  0
   11.0540   -0.1780   23.5900 C   0  0  0  0  0  0  0  0  0  0  0  0
    6.7130   -5.2790   21.6590 N   0  0  0  0  0  0  0  0  0  0  0  0
    7.5870   -4.7510   22.7430 C   0  0  0  0  0  0  0  0  0  0  0  0
    6.7370   -4.1790   23.6990 C   0  0  2  0  0  0  0  0  0  0  0  0
    5.7410   -5.2480   24.1420 N   0  0  0  0  0  0  0  0  0  0  0  0
    4.8970   -5.8560   23.0750 C   0  0  0  0  0  0  0  0  0  0  0  0
    5.7530   -6.2930   22.1190 C   0  0  0  0  0  0  0  0  0  0  0  0
    2.3250   -3.8600   25.8470 S   0  0  0  0  0  0  0  0  0  0  0  0
    4.0430   -3.8340   25.8670 C   0  0  0  0  0  0  0  0  0  0  0  0
    4.6470   -2.4450   26.0380 C   0  0  0  0  0  0  0  0  0  0  0  0
    3.5680   -1.6260   26.1320 C   0  0  0  0  0  0  0  0  0  0  0  0
    2.2910   -2.1760   26.0600 C   0  0  0  0  0  0  0  0  0  0  0  0
  2  3  1  1
  1  4  1  0
  2  4  1  0
  4  6  2  0
 10  5  1  0
  7 10  2  0
  8 10  2  0
 11 14  1  0
 12 14  2  0
 15 17  2  0
 16 17  2  0
  3 18  1  0
 18 19  1  0
 20 21  2  0
  2 22  1  0
 21 22  1  0
 22 23  2  0
 23 24  1  0
 20 25  1  0
 24 25  2  0
 26 27  2  0
 27 28  1  0
 28 29  2  0
  5 30  1  0
 29 30  1  0
  1 31  1  0
 26 31  1  0
 30 31  2  0
 32 33  2  0
  9 34  1  0
 33 34  1  0
 34 35  2  0
 35 36  1  0
 10 37  1  0
 32 37  1  0
 36 37  2  0
 14 38  1  0
 38 39  1  0
 40 19  1  6
 39 40  1  0
 17 41  1  0
 40 41  1  0
 41 42  1  0
 38 43  1  0
 42 43  1  0
 17 45  1  0
 44 45  1  0
 45 46  2  0
 46 47  1  0
 13 48  1  0
 44 48  1  0
 47 48  2  0
M  END
