x1402-x1493
     RDKit          3D

 18 19  0  0  0  0  0  0  0  0999 V2000
    7.3110   -3.4880   19.9770 C   0  0  0  0  0  0  0  0  0  0  0  0
    5.3400   -4.8020   19.9710 O   0  0  0  0  0  0  0  0  0  0  0  0
    0.8200   -1.3640   26.1300 Cl  0  0  0  0  0  0  0  0  0  0  0  0
    6.3780   -4.5620   20.5740 C   0  0  0  0  0  0  0  0  0  0  0  0
    4.2500   -6.4730   25.9820 O   0  0  0  0  0  0  0  0  0  0  0  0
    6.2960   -5.1510   26.6320 O   0  0  0  0  0  0  0  0  0  0  0  0
    5.1470   -5.3590   25.7730 S   0  0  0  0  0  0  0  0  0  0  0  0
    6.6400   -5.2910   21.7380 N   0  0  0  0  0  0  0  0  0  0  0  0
    7.3050   -4.8220   22.5640 C   0  0  0  0  0  0  0  0  0  0  0  0
    6.6550   -4.4680   23.7730 C   0  0  0  0  0  0  0  0  0  0  0  0
    5.7640   -5.4490   24.1790 N   0  0  0  0  0  0  0  0  0  0  0  0
    4.8160   -5.6920   23.1680 C   0  0  0  0  0  0  0  0  0  0  0  0
    5.7620   -6.1890   22.2700 C   0  0  0  0  0  0  0  0  0  0  0  0
    2.4470   -3.8940   25.8810 S   0  0  0  0  0  0  0  0  0  0  0  0
    4.1830   -3.8640   25.9070 C   0  0  0  0  0  0  0  0  0  0  0  0
    4.6230   -2.5670   26.0370 C   0  0  0  0  0  0  0  0  0  0  0  0
    3.6110   -1.6580   26.1160 C   0  0  0  0  0  0  0  0  0  0  0  0
    2.3280   -2.1730   26.0540 C   0  0  0  0  0  0  0  0  0  0  0  0
  1  4  1  0
  2  4  2  0
  5  7  2  0
  6  7  2  0
  4  8  1  0
  8  9  1  0
  9 10  1  0
  7 11  1  0
 10 11  1  0
 11 12  1  0
  8 13  1  0
 12 13  1  0
  7 15  1  0
 14 15  1  0
 15 16  2  0
 16 17  1  0
  3 18  1  0
 14 18  1  0
 17 18  2  0
M  END
