x1402-x1311
     RDKit          3D

 24 26  0  0  0  0  0  0  0  0999 V2000
    7.8900   -4.7300   20.8830 C   0  0  0  0  0  0  0  0  0  0  0  0
    5.7690   -5.5780   20.0640 O   0  0  0  0  0  0  0  0  0  0  0  0
    0.4060   -0.5080   25.9030 Cl  0  0  0  0  0  0  0  0  0  0  0  0
    6.5590   -5.4950   21.0250 C   0  0  0  0  0  0  0  0  0  0  0  0
    2.9090   -6.1960   24.9090 N   0  0  0  0  0  0  0  0  0  0  0  0
    4.5620   -5.4060   26.7500 O   0  0  0  0  0  0  0  0  0  0  0  0
    4.0630   -5.0790   25.4250 S   0  0  1  0  0  0  0  0  0  0  0  0
    6.2570   -6.0910   22.2530 N   0  0  0  0  0  0  0  0  0  0  0  0
    7.0320   -5.7570   23.4730 C   0  0  0  0  0  0  0  0  0  0  0  0
    6.6730   -5.0560   24.7820 C   0  0  0  0  0  0  0  0  0  0  0  0
    5.3470   -4.9380   24.2950 N   0  0  0  0  0  0  0  0  0  0  0  0
    4.8420   -5.0650   23.0650 C   0  0  0  0  0  0  0  0  0  0  0  0
    4.9030   -6.3250   22.5710 C   0  0  0  0  0  0  0  0  0  0  0  0
    1.6690   -3.2260   25.8090 S   0  0  0  0  0  0  0  0  0  0  0  0
    3.3330   -3.4550   25.4390 C   0  0  0  0  0  0  0  0  0  0  0  0
    3.9150   -2.2370   25.2030 C   0  0  0  0  0  0  0  0  0  0  0  0
    3.0910   -1.1480   25.3170 C   0  0  0  0  0  0  0  0  0  0  0  0
    1.7790   -1.5120   25.6540 C   0  0  0  0  0  0  0  0  0  0  0  0
    8.3430   -6.3290   23.0280 C   0  0  0  0  0  0  0  0  0  0  0  0
    9.4570   -6.3080   23.7400 C   0  0  0  0  0  0  0  0  0  0  0  0
    9.3230   -5.7160   24.9020 C   0  0  0  0  0  0  0  0  0  0  0  0
    8.1000   -5.1830   25.3050 C   0  0  0  0  0  0  0  0  0  0  0  0
    0.9130   -6.3570   23.6930 O   0  0  0  0  0  0  0  0  0  0  0  0
    2.3080   -6.0740   23.6040 C   0  0  0  0  0  0  0  0  0  0  0  0
  1  4  1  0
  2  4  2  0
  5  7  2  0
  6  7  2  0
  4  8  1  0
  8  9  1  0
  9 10  2  0
  7 11  1  0
 10 11  1  0
 11 12  1  0
  8 13  1  0
 12 13  1  0
  7 15  1  1
 14 15  1  0
 15 16  2  0
 16 17  1  0
  3 18  1  0
 14 18  1  0
 17 18  2  0
  9 19  1  0
 19 20  2  0
 20 21  1  0
 10 22  1  0
 21 22  2  0
  5 24  1  0
 23 24  1  0
M  END
