x1402-x2572
     RDKit          3D

 40 43  0  0  0  0  0  0  0  0999 V2000
    7.2810   -3.5850   20.0060 C   0  0  0  0  0  0  0  0  0  0  0  0
    5.3880   -5.0340   19.9930 O   0  0  0  0  0  0  0  0  0  0  0  0
    0.8420   -1.3750   26.2010 Cl  0  0  0  0  0  0  0  0  0  0  0  0
    6.3970   -4.7100   20.5920 C   0  0  0  0  0  0  0  0  0  0  0  0
    4.1710   -6.5220   26.0750 O   0  0  0  0  0  0  0  0  0  0  0  0
    6.2490   -5.2250   26.6630 O   0  0  0  0  0  0  0  0  0  0  0  0
    5.0930   -5.4400   25.8160 S   0  0  0  0  0  0  0  0  0  0  0  0
    6.6800   -5.3730   21.7780 N   0  0  0  0  0  0  0  0  0  0  0  0
    7.0630   -4.7190   22.6280 C   0  0  2  0  0  0  0  0  0  0  0  0
    7.0140   -5.2610   23.9130 C   0  0  0  0  0  0  0  0  0  0  0  0
    5.7190   -5.6480   24.2390 N   0  0  0  0  0  0  0  0  0  0  0  0
    4.8460   -5.9060   23.1570 C   0  0  0  0  0  0  0  0  0  0  0  0
    5.8690   -6.3290   22.3040 C   0  0  0  0  0  0  0  0  0  0  0  0
    2.4310   -3.9290   25.9940 S   0  0  0  0  0  0  0  0  0  0  0  0
    4.1660   -3.9170   25.9070 C   0  0  0  0  0  0  0  0  0  0  0  0
    4.6420   -2.6220   25.9280 C   0  0  0  0  0  0  0  0  0  0  0  0
    3.6250   -1.7130   26.0160 C   0  0  0  0  0  0  0  0  0  0  0  0
    2.3370   -2.2050   26.0720 C   0  0  0  0  0  0  0  0  0  0  0  0
    4.6720    1.4300   21.5240 C   0  0  0  0  0  0  0  0  0  0  0  0
    8.7690    1.3920   21.2910 O   0  0  0  0  0  0  0  0  0  0  0  0
    6.9670   -0.2010   21.2820 N   0  0  0  0  0  0  0  0  0  0  0  0
   13.6930   -2.4850   20.6700 N   0  0  0  0  0  0  0  0  0  0  0  0
    8.1540    0.4330   21.8230 C   0  0  0  0  0  0  0  0  0  0  0  0
    8.5650   -0.1360   23.0100 C   0  0  0  0  0  0  0  0  0  0  0  0
   12.9740   -1.8090   21.4880 C   0  0  0  0  0  0  0  0  0  0  0  0
    6.9850   -2.2380   22.7080 C   0  0  0  0  0  0  0  0  0  0  0  0
    7.0060   -1.5230   21.3420 C   0  0  0  0  0  0  0  0  0  0  0  0
    6.3410    0.6720   17.5920 N   0  0  0  0  0  0  0  0  0  0  0  0
    6.9940    0.0520   18.7100 C   0  0  0  0  0  0  0  0  0  0  0  0
    6.4180    0.3290   20.0700 C   0  0  0  0  0  0  0  0  0  0  0  0
    5.3020    1.1300   20.1970 C   0  0  0  0  0  0  0  0  0  0  0  0
    4.7010    1.7050   19.0870 C   0  0  0  0  0  0  0  0  0  0  0  0
    5.1590    1.5280   17.7940 C   0  0  0  0  0  0  0  0  0  0  0  0
   10.8560    0.8070   23.8570 C   0  0  0  0  0  0  0  0  0  0  0  0
   12.1980    0.8300   23.8640 C   0  0  0  0  0  0  0  0  0  0  0  0
   12.7690   -0.0970   23.0360 C   0  0  0  0  0  0  0  0  0  0  0  0
   12.0860   -0.9800   22.2610 C   0  0  0  0  0  0  0  0  0  0  0  0
   10.7000   -1.0530   22.2110 C   0  0  0  0  0  0  0  0  0  0  0  0
   10.0450   -0.1630   23.0000 C   0  0  0  0  0  0  0  0  0  0  0  0
    6.1710   -3.4870   22.7020 C   0  0  0  0  0  0  0  0  0  0  0  0
  1  4  1  0
  2  4  2  0
  5  7  2  0
  6  7  2  0
  4  8  1  0
  8  9  1  0
  9 10  1  0
  7 11  1  0
 10 11  1  0
 11 12  1  0
  8 13  1  0
 12 13  1  0
  7 15  1  0
 14 15  1  0
 15 16  2  0
 16 17  1  0
  3 18  1  0
 14 18  1  0
 17 18  2  0
 20 23  2  0
 21 23  1  0
 23 24  1  0
 22 25  3  0
 21 27  1  0
 26 27  1  0
 28 29  2  0
 21 30  1  0
 29 30  1  0
 19 31  1  0
 30 31  2  0
 31 32  1  0
 28 33  1  0
 32 33  2  0
 34 35  2  0
 35 36  1  0
 25 37  1  0
 36 37  2  0
 37 38  1  0
 24 39  1  0
 34 39  1  0
 38 39  2  0
  9 40  1  1
 26 40  1  0
M  END
