x1402-x0752
     RDKit          3D

 19 20  0  0  0  0  0  0  0  0999 V2000
    7.2300   -3.4030   19.7310 C   0  0  0  0  0  0  0  0  0  0  0  0
    5.5130   -4.0160   19.6300 O   0  0  0  0  0  0  0  0  0  0  0  0
    0.7700   -1.2340   26.1210 Cl  0  0  0  0  0  0  0  0  0  0  0  0
    6.2670   -4.3880   20.5110 C   0  0  0  0  0  0  0  0  0  0  0  0
    3.9610   -6.5200   25.7130 O   0  0  0  0  0  0  0  0  0  0  0  0
    5.9080   -5.3640   26.8510 O   0  0  0  0  0  0  0  0  0  0  0  0
    4.8890   -5.4230   25.8240 S   0  0  0  0  0  0  0  0  0  0  0  0
    7.3420   -4.5760   21.3330 N   0  0  0  0  0  0  0  0  0  0  0  0
    7.3120   -5.6190   22.2320 N   0  0  0  0  0  0  0  0  0  0  0  0
    7.7060   -5.0640   23.4830 C   0  0  0  0  0  0  0  0  0  0  0  0
    6.7240   -4.3550   24.1440 C   0  0  0  0  0  0  0  0  0  0  0  0
    5.5960   -5.0740   24.3140 N   0  0  0  0  0  0  0  0  0  0  0  0
    5.1320   -5.7670   23.2400 C   0  0  0  0  0  0  0  0  0  0  0  0
    6.0040   -6.3590   22.2920 C   0  0  0  0  0  0  0  0  0  0  0  0
    2.2710   -3.8310   25.8980 S   0  0  0  0  0  0  0  0  0  0  0  0
    3.9980   -3.8880   25.9390 C   0  0  0  0  0  0  0  0  0  0  0  0
    4.4810   -2.6160   26.0680 C   0  0  0  0  0  0  0  0  0  0  0  0
    3.5480   -1.6230   26.1380 C   0  0  0  0  0  0  0  0  0  0  0  0
    2.2440   -2.1040   26.0630 C   0  0  0  0  0  0  0  0  0  0  0  0
  1  4  1  0
  2  4  2  0
  5  7  2  0
  6  7  2  0
  4  8  1  0
  8  9  1  0
  9 10  1  0
 10 11  1  0
  7 12  1  0
 11 12  1  0
 12 13  1  0
  9 14  1  0
 13 14  1  0
  7 16  1  0
 15 16  1  0
 16 17  2  0
 17 18  1  0
  3 19  1  0
 15 19  1  0
 18 19  2  0
M  END
