x1418-x0946
     RDKit          3D

 25 27  0  0  0  0  0  0  0  0999 V2000
    7.3900   -2.9860   18.7130 C   0  0  0  0  0  0  0  0  0  0  0  0
    5.5150   -4.0460   19.7230 O   0  0  0  0  0  0  0  0  0  0  0  0
    6.4420   -3.2250   19.8650 C   0  0  0  0  0  0  0  0  0  0  0  0
    9.8030   -3.0230   23.3480 C   0  0  0  0  0  0  0  0  0  0  0  0
    8.9800    5.4730   22.7580 N   0  0  0  0  0  0  0  0  0  0  0  0
    9.7590    5.6230   25.1180 O   0  0  0  0  0  0  0  0  0  0  0  0
   11.1540    6.8190   23.3840 O   0  0  0  0  0  0  0  0  0  0  0  0
   10.3440    5.6980   23.7980 S   0  0  0  0  0  0  0  0  0  0  0  0
    6.6510   -2.5350   21.0630 N   0  0  0  0  0  0  0  0  0  0  0  0
    6.4970   -3.2790   22.2540 C   0  0  0  0  0  0  0  0  0  0  0  0
    7.6680   -3.6230   22.9190 C   0  0  0  0  0  0  0  0  0  0  0  0
    8.5470   -2.5640   23.0050 N   0  0  0  0  0  0  0  0  0  0  0  0
    8.6410   -1.7560   21.7900 C   0  0  0  0  0  0  0  0  0  0  0  0
    7.4220   -1.6480   21.1100 C   0  0  0  0  0  0  0  0  0  0  0  0
   12.1010   -2.0950   23.1770 C   0  0  0  0  0  0  0  0  0  0  0  0
   10.8200   -1.9030   23.3890 C   0  0  0  0  0  0  0  0  0  0  0  0
   10.5830   -0.2800   23.6820 S   0  0  0  0  0  0  0  0  0  0  0  0
   12.2200    0.3350   23.5200 C   0  0  0  0  0  0  0  0  0  0  0  0
   12.7860   -0.9280   23.2560 C   0  0  0  0  0  0  0  0  0  0  0  0
   12.6040    1.7900   23.0980 C   0  0  0  0  0  0  0  0  0  0  0  0
   13.2010    3.0990   22.5890 C   0  0  0  0  0  0  0  0  0  0  0  0
   12.5410    4.4090   22.7650 C   0  0  0  0  0  0  0  0  0  0  0  0
   11.2720    4.2490   23.4800 C   0  0  0  0  0  0  0  0  0  0  0  0
   10.7960    2.8770   23.9270 C   0  0  0  0  0  0  0  0  0  0  0  0
   11.4050    1.4700   23.7990 C   0  0  0  0  0  0  0  0  0  0  0  0
  1  3  1  0
  2  3  2  0
  8  5  1  0
  6  8  2  0
  7  8  2  0
  3  9  1  0
  9 10  1  0
 10 11  1  0
  4 12  1  0
 11 12  1  0
 12 13  1  0
  9 14  1  0
 13 14  1  0
  4 16  1  0
 15 16  2  0
 16 17  1  0
 17 18  1  0
 15 19  1  0
 18 19  2  0
 20 21  2  0
 21 22  1  0
  8 23  1  0
 22 23  2  0
 23 24  1  0
 18 25  1  0
 20 25  1  0
 24 25  2  0
M  END
