x1418-x0991
     RDKit          3D

 19 20  0  0  0  0  0  0  0  0999 V2000
    7.4100   -2.9720   18.7420 C   0  0  0  0  0  0  0  0  0  0  0  0
    5.4950   -4.0190   19.7100 O   0  0  0  0  0  0  0  0  0  0  0  0
    6.4370   -3.2190   19.8700 C   0  0  0  0  0  0  0  0  0  0  0  0
   10.5970   -3.2010   23.9690 C   0  0  0  0  0  0  0  0  0  0  0  0
    8.5580   -5.5690   24.3570 N   0  0  0  0  0  0  0  0  0  0  0  0
    9.1750   -3.6940   23.5090 C   0  0  1  0  0  0  0  0  0  0  0  0
    7.2150   -3.8760   25.0340 N   0  0  0  0  0  0  0  0  0  0  0  0
    8.3310   -4.4320   24.3100 C   0  0  0  0  0  0  0  0  0  0  0  0
    6.6620   -2.5510   21.0750 N   0  0  0  0  0  0  0  0  0  0  0  0
    7.1110   -3.2730   22.2550 C   0  0  0  0  0  0  0  0  0  0  0  0
    8.3910   -2.8350   22.5250 C   0  0  1  0  0  0  0  0  0  0  0  0
    8.5430   -1.5180   22.8150 N   0  0  0  0  0  0  0  0  0  0  0  0
    8.3480   -0.9910   21.5980 C   0  0  0  0  0  0  0  0  0  0  0  0
    7.1050   -1.2530   20.9850 C   0  0  0  0  0  0  0  0  0  0  0  0
   12.1230   -1.4630   22.8280 C   0  0  0  0  0  0  0  0  0  0  0  0
   11.1050   -1.8340   23.7880 C   0  0  0  0  0  0  0  0  0  0  0  0
   10.5120   -0.5230   24.7930 S   0  0  0  0  0  0  0  0  0  0  0  0
   11.6320    0.5170   23.9300 C   0  0  0  0  0  0  0  0  0  0  0  0
   12.4770   -0.0850   22.8690 C   0  0  0  0  0  0  0  0  0  0  0  0
  1  3  1  0
  2  3  2  0
  6  4  1  1
  5  8  2  3
  6  8  1  0
  7  8  1  0
  3  9  1  0
  9 10  1  0
  6 11  1  0
 11 10  1  1
 11 12  1  0
 12 13  1  0
  9 14  1  0
 13 14  1  0
  4 16  1  0
 15 16  2  0
 16 17  1  0
 17 18  1  0
 15 19  1  0
 18 19  2  0
M  END
