x1412-x2912
     RDKit          3D

 35 39  0  0  0  0  0  0  0  0999 V2000
    6.9910   -0.6880   21.4760 N   0  0  0  0  0  0  0  0  0  0  0  0
    8.6440   -2.0010   23.7130 C   0  0  0  0  0  0  0  0  0  0  0  0
    8.0360    1.2170   22.2920 O   0  0  0  0  0  0  0  0  0  0  0  0
    8.9190   -0.9990   22.6260 C   0  0  1  0  0  0  0  0  0  0  0  0
    7.9370    0.0070   22.1440 C   0  0  0  0  0  0  0  0  0  0  0  0
   14.2010   -1.4690   20.2430 N   0  0  0  0  0  0  0  0  0  0  0  0
    4.8320    1.1650   21.8050 C   0  0  0  0  0  0  0  0  0  0  0  0
   13.4890   -1.2090   21.3820 C   0  0  0  0  0  0  0  0  0  0  0  0
    7.2480   -2.9950   19.0330 C   0  0  0  0  0  0  0  0  0  0  0  0
    5.2120   -4.1120   19.6700 O   0  0  0  0  0  0  0  0  0  0  0  0
    6.1340   -3.3860   20.0130 C   0  0  0  0  0  0  0  0  0  0  0  0
    8.1440   -3.3640   24.2050 C   0  0  0  0  0  0  0  0  0  0  0  0
    6.3430    0.3360   17.8050 N   0  0  0  0  0  0  0  0  0  0  0  0
    5.2380    1.2770   17.9580 C   0  0  0  0  0  0  0  0  0  0  0  0
    4.7380    1.5300   19.3780 C   0  0  0  0  0  0  0  0  0  0  0  0
    5.3540    0.8630   20.4350 C   0  0  0  0  0  0  0  0  0  0  0  0
    6.4020   -0.0330   20.2570 C   0  0  0  0  0  0  0  0  0  0  0  0
    6.9160   -0.3180   18.9810 C   0  0  0  0  0  0  0  0  0  0  0  0
   10.5270    0.5510   23.8320 C   0  0  0  0  0  0  0  0  0  0  0  0
   11.8230    0.9650   23.9600 C   0  0  0  0  0  0  0  0  0  0  0  0
   12.8040    0.3960   23.1910 C   0  0  0  0  0  0  0  0  0  0  0  0
   12.5070   -0.6810   22.2040 C   0  0  0  0  0  0  0  0  0  0  0  0
   11.1380   -1.1200   22.0830 C   0  0  0  0  0  0  0  0  0  0  0  0
   10.1960   -0.4360   22.9340 C   0  0  0  0  0  0  0  0  0  0  0  0
    6.1330   -2.9760   21.3550 N   0  0  0  0  0  0  0  0  0  0  0  0
    6.9070   -2.0560   21.9670 C   0  0  1  0  0  0  0  0  0  0  0  0
    8.1930   -2.5440   22.3460 C   0  0  2  0  0  0  0  0  0  0  0  0
    8.3290   -3.8670   22.4740 N   0  0  0  0  0  0  0  0  0  0  0  0
    7.2040   -4.6150   22.4630 C   0  0  0  0  0  0  0  0  0  0  0  0
    5.9580   -4.0300   22.1830 C   0  0  0  0  0  0  0  0  0  0  0  0
    9.0680   -5.0970   25.5580 C   0  0  0  0  0  0  0  0  0  0  0  0
    8.2180   -3.9830   25.6000 C   0  0  0  0  0  0  0  0  0  0  0  0
    7.5120   -3.6310   27.1230 S   0  0  0  0  0  0  0  0  0  0  0  0
    8.3110   -4.9860   27.8270 C   0  0  0  0  0  0  0  0  0  0  0  0
    9.1680   -5.7290   26.8100 C   0  0  0  0  0  0  0  0  0  0  0  0
  2  4  1  0
  1  5  1  0
  3  5  2  0
  4  5  1  0
  6  8  3  0
  9 11  1  0
 10 11  2  0
  2 12  2  3
 13 14  2  0
 14 15  1  0
  7 16  1  0
 15 16  2  0
  1 17  1  0
 16 17  1  0
 13 18  1  0
 17 18  2  0
 19 20  2  0
 20 21  1  0
  8 22  1  0
 21 22  2  0
 22 23  1  0
  4 24  1  1
 19 24  1  0
 23 24  2  0
 11 25  1  0
 26  1  1  6
 25 26  1  0
  2 27  1  0
 26 27  1  0
 27 28  1  1
 28 29  1  0
 25 30  1  0
 29 30  1  0
 12 32  1  0
 31 32  2  0
 32 33  1  0
 33 34  1  0
 31 35  1  0
 34 35  2  0
M  END
