x1412-x0107
     RDKit          3D

 27 30  0  0  0  0  0  0  0  0999 V2000
    7.4180   -2.9960   18.8340 C   0  0  0  0  0  0  0  0  0  0  0  0
    5.4550   -4.0150   19.7100 O   0  0  0  0  0  0  0  0  0  0  0  0
    6.4680   -3.3360   19.9550 C   0  0  0  0  0  0  0  0  0  0  0  0
    8.2930   -1.5950   25.4920 O   0  0  0  0  0  0  0  0  0  0  0  0
    8.4190   -2.7080   24.9900 C   0  0  0  0  0  0  0  0  0  0  0  0
    9.5340   -1.2370   22.2310 C   0  0  0  0  0  0  0  0  0  0  0  0
    8.8720   -0.1090   21.4370 C   0  0  0  0  0  0  0  0  0  0  0  0
    9.3460    1.2570   21.3900 O   0  0  0  0  0  0  0  0  0  0  0  0
    7.6940   -0.7290   20.8430 N   0  0  0  0  0  0  0  0  0  0  0  0
    5.3680    0.7630   21.9640 C   0  0  0  0  0  0  0  0  0  0  0  0
    6.8110   -2.9420   21.2540 N   0  0  0  0  0  0  0  0  0  0  0  0
    7.1770   -1.7140   21.7700 C   0  0  1  0  0  0  0  0  0  0  0  0
    8.2620   -1.7700   22.8570 C   0  0  1  0  0  0  0  0  0  0  0  0
    8.4060   -2.8890   23.6370 N   0  0  0  0  0  0  0  0  0  0  0  0
    7.8180   -4.1690   23.1820 C   0  0  0  0  0  0  0  0  0  0  0  0
    6.5840   -3.9500   22.2770 C   0  0  0  0  0  0  0  0  0  0  0  0
    9.3560   -5.0790   25.5540 C   0  0  0  0  0  0  0  0  0  0  0  0
    8.6000   -3.9500   25.8110 C   0  0  0  0  0  0  0  0  0  0  0  0
    7.8210   -4.1900   27.3830 S   0  0  0  0  0  0  0  0  0  0  0  0
    8.4860   -5.7750   27.7160 C   0  0  0  0  0  0  0  0  0  0  0  0
    9.2880   -6.1180   26.6480 C   0  0  0  0  0  0  0  0  0  0  0  0
    6.8340   -0.0430   19.9470 C   0  0  0  0  0  0  0  0  0  0  0  0
    5.7600    0.6460   20.4750 C   0  0  0  0  0  0  0  0  0  0  0  0
    4.8120    1.3980   19.5600 C   0  0  0  0  0  0  0  0  0  0  0  0
    5.2220    1.2680   18.0980 C   0  0  0  0  0  0  0  0  0  0  0  0
    6.2900    0.5660   17.6880 N   0  0  0  0  0  0  0  0  0  0  0  0
    7.0410   -0.0520   18.6020 C   0  0  0  0  0  0  0  0  0  0  0  0
  1  3  1  0
  2  3  2  0
  4  5  2  0
  6  7  1  0
  7  8  2  0
  7  9  1  0
  3 11  1  0
 12  9  1  6
 11 12  1  0
 13  6  1  6
 12 13  1  0
  5 14  1  0
 13 14  1  0
 14 15  1  0
 11 16  1  0
 15 16  1  0
  5 18  1  0
 17 18  2  0
 18 19  1  0
 19 20  1  0
 17 21  1  0
 20 21  2  0
  9 22  1  0
 10 23  1  0
 22 23  2  0
 23 24  1  0
 24 25  2  0
 25 26  1  0
 22 27  1  0
 26 27  2  0
M  END
