x1412-x2600
     RDKit          3D

 35 40  0  0  0  0  0  0  0  0999 V2000
    7.4150   -2.9440   18.8840 C   0  0  0  0  0  0  0  0  0  0  0  0
    5.3770   -3.8680   19.6150 O   0  0  0  0  0  0  0  0  0  0  0  0
    6.4100   -3.2680   19.9670 C   0  0  0  0  0  0  0  0  0  0  0  0
    8.4170   -1.6590   25.1170 N   0  0  0  0  0  0  0  0  0  0  0  0
    7.8780   -3.0080   25.0880 C   0  0  0  0  0  0  0  0  0  0  0  0
   13.7000   -2.9690   20.6120 N   0  0  0  0  0  0  0  0  0  0  0  0
    7.9590   -0.8780   21.4920 C   0  0  1  0  0  0  0  0  0  0  0  0
    8.7160   -0.5880   20.6300 O   0  0  0  0  0  0  0  0  0  0  0  0
    8.7930   -0.8400   22.7270 C   0  0  2  0  0  0  0  0  0  0  0  0
    6.6110   -0.1220   21.5750 N   0  0  0  0  0  0  0  0  0  0  0  0
   13.1960   -1.9110   21.4340 C   0  0  0  0  0  0  0  0  0  0  0  0
    7.9210   -1.2940   23.7920 C   0  0  1  0  0  0  0  0  0  0  0  0
    6.6490   -3.0510   21.3390 N   0  0  0  0  0  0  0  0  0  0  0  0
    7.8360   -2.3500   21.7990 C   0  0  2  0  0  0  0  0  0  0  0  0
    8.0860   -2.5470   23.1560 C   0  0  2  0  0  0  0  0  0  0  0  0
    7.1590   -3.2340   23.9150 N   0  0  0  0  0  0  0  0  0  0  0  0
    7.0110   -4.5370   23.3080 C   0  0  0  0  0  0  0  0  0  0  0  0
    6.4410   -4.3560   22.0630 C   0  0  0  0  0  0  0  0  0  0  0  0
    9.0230   -5.0020   25.7280 C   0  0  0  0  0  0  0  0  0  0  0  0
    8.1460   -4.0150   26.1760 C   0  0  0  0  0  0  0  0  0  0  0  0
    7.5650   -4.1360   27.7890 S   0  0  0  0  0  0  0  0  0  0  0  0
    8.5370   -5.6020   27.8770 C   0  0  0  0  0  0  0  0  0  0  0  0
    9.2570   -5.9600   26.7490 C   0  0  0  0  0  0  0  0  0  0  0  0
    6.3290    0.6630   17.7640 N   0  0  0  0  0  0  0  0  0  0  0  0
    6.8230    0.1130   19.0410 C   0  0  0  0  0  0  0  0  0  0  0  0
    6.1120    0.4000   20.3920 C   0  0  0  0  0  0  0  0  0  0  0  0
    4.9710    1.1870   20.4010 C   0  0  0  0  0  0  0  0  0  0  0  0
    4.4750    1.7410   19.0660 C   0  0  0  0  0  0  0  0  0  0  0  0
    5.2210    1.4240   17.8260 C   0  0  0  0  0  0  0  0  0  0  0  0
   10.6980    0.9880   23.5950 C   0  0  0  0  0  0  0  0  0  0  0  0
   12.0860    1.2220   23.5510 C   0  0  0  0  0  0  0  0  0  0  0  0
   13.0720    0.3190   22.8600 C   0  0  0  0  0  0  0  0  0  0  0  0
   12.4600   -0.8590   22.2100 C   0  0  0  0  0  0  0  0  0  0  0  0
   11.1440   -1.0670   22.2560 C   0  0  0  0  0  0  0  0  0  0  0  0
   10.2010   -0.2840   22.8680 C   0  0  0  0  0  0  0  0  0  0  0  0
  1  3  1  0
  2  3  2  0
  4  5  2  0
  7  8  1  6
  7  9  1  0
  7 10  1  0
  6 11  3  0
 12  4  1  1
  9 12  1  0
  3 13  1  0
  7 14  1  0
 14 13  1  1
 12 15  1  0
 14 15  1  0
  5 16  1  0
 15 16  1  1
 16 17  1  0
 13 18  1  0
 17 18  1  0
  5 20  1  0
 19 20  2  0
 20 21  1  0
 21 22  1  0
 19 23  1  0
 22 23  2  0
 24 25  2  0
 10 26  1  0
 25 26  1  0
 26 27  2  0
 27 28  1  0
 24 29  1  0
 28 29  2  0
 30 31  2  0
 31 32  1  0
 11 33  1  0
 32 33  2  0
 33 34  1  0
  9 35  1  1
 30 35  1  0
 34 35  2  0
M  END
