x1412-x2608
     RDKit          3D

 32 35  0  0  0  0  0  0  0  0999 V2000
    7.4730   -2.9990   18.7980 C   0  0  0  0  0  0  0  0  0  0  0  0
    5.5970   -4.0530   19.7710 O   0  0  0  0  0  0  0  0  0  0  0  0
    6.5800   -3.2920   19.9740 C   0  0  0  0  0  0  0  0  0  0  0  0
    7.9270   -1.6840   25.3770 O   0  0  0  0  0  0  0  0  0  0  0  0
    8.1370   -2.8580   25.1070 C   0  0  0  0  0  0  0  0  0  0  0  0
    8.5340   -0.8870   21.9300 N   0  0  0  0  0  0  0  0  0  0  0  0
   12.9630    1.6270   23.0190 C   0  0  0  0  0  0  0  0  0  0  0  0
    8.4010    1.2540   20.9790 O   0  0  0  0  0  0  0  0  0  0  0  0
    6.5450   -0.3100   21.0240 N   0  0  0  0  0  0  0  0  0  0  0  0
    7.8770    0.1580   21.2700 C   0  0  0  0  0  0  0  0  0  0  0  0
    6.8770   -2.7560   21.2720 N   0  0  0  0  0  0  0  0  0  0  0  0
    8.2930   -2.2620   21.5860 C   0  0  2  0  0  0  0  0  0  0  0  0
    8.9700   -2.7670   22.8300 C   0  0  0  0  0  0  0  0  0  0  0  0
    8.2130   -3.3990   23.7700 N   0  0  0  0  0  0  0  0  0  0  0  0
    7.1800   -4.0780   23.2540 C   0  0  0  0  0  0  0  0  0  0  0  0
    6.1580   -3.3430   22.4070 C   0  0  0  0  0  0  0  0  0  0  0  0
    9.2100   -4.9560   25.7530 C   0  0  0  0  0  0  0  0  0  0  0  0
    8.3560   -3.9150   26.0170 C   0  0  0  0  0  0  0  0  0  0  0  0
    7.5920   -4.0530   27.5500 S   0  0  0  0  0  0  0  0  0  0  0  0
    8.4470   -5.5840   27.8400 C   0  0  0  0  0  0  0  0  0  0  0  0
    9.2880   -5.9880   26.8300 C   0  0  0  0  0  0  0  0  0  0  0  0
   11.9740    0.6180   22.7490 C   0  0  0  0  0  0  0  0  0  0  0  0
   12.2300   -0.7390   22.6240 C   0  0  0  0  0  0  0  0  0  0  0  0
   11.0770   -1.4180   22.3370 C   0  0  0  0  0  0  0  0  0  0  0  0
    9.8600   -0.5150   22.2380 C   0  0  0  0  0  0  0  0  0  0  0  0
   10.3410    1.0800   22.5530 S   0  0  0  0  0  0  0  0  0  0  0  0
    6.1120    0.9100   17.5510 N   0  0  0  0  0  0  0  0  0  0  0  0
    6.6210    0.2790   18.5940 C   0  0  0  0  0  0  0  0  0  0  0  0
    5.9910    0.3110   19.9520 C   0  0  0  0  0  0  0  0  0  0  0  0
    4.7070    1.1010   20.0640 C   0  0  0  0  0  0  0  0  0  0  0  0
    4.2540    1.7260   18.9230 C   0  0  0  0  0  0  0  0  0  0  0  0
    4.9740    1.6100   17.7360 C   0  0  0  0  0  0  0  0  0  0  0  0
  1  3  1  0
  2  3  2  0
  4  5  2  0
  6 10  1  0
  8 10  2  0
  9 10  1  0
  3 11  1  0
 12  6  1  1
 11 12  1  0
 12 13  1  0
  5 14  1  0
 13 14  1  0
 14 15  1  0
 11 16  1  0
 15 16  1  0
  5 18  1  0
 17 18  2  0
 18 19  1  0
 19 20  1  0
 17 21  1  0
 20 21  2  0
  7 22  1  0
 22 23  2  0
 23 24  1  0
  6 25  1  0
 24 25  2  0
 22 26  1  0
 25 26  1  0
 27 28  2  0
  9 29  1  0
 28 29  1  0
 29 30  2  0
 30 31  1  0
 27 32  1  0
 31 32  2  0
M  END
