x1412-x1425
     RDKit          3D

 26 28  0  0  0  0  0  0  0  0999 V2000
    7.3810   -3.0030   18.6970 C   0  0  0  0  0  0  0  0  0  0  0  0
    5.4220   -3.9980   19.6530 O   0  0  0  0  0  0  0  0  0  0  0  0
    6.4400   -3.3150   19.8320 C   0  0  0  0  0  0  0  0  0  0  0  0
    8.5440   -1.4160   25.4190 O   0  0  0  0  0  0  0  0  0  0  0  0
    8.4280   -2.5250   24.9220 C   0  0  0  0  0  0  0  0  0  0  0  0
    6.8090   -2.8730   21.0980 N   0  0  0  0  0  0  0  0  0  0  0  0
    7.7550   -1.7750   21.3570 C   0  0  0  0  0  0  0  0  0  0  0  0
    8.7320   -1.9390   22.4740 C   0  0  0  0  0  0  0  0  0  0  0  0
    8.1400   -2.6170   23.5120 N   0  0  0  0  0  0  0  0  0  0  0  0
    7.9580   -3.9640   22.9880 C   0  0  0  0  0  0  0  0  0  0  0  0
    6.7330   -3.9400   22.0810 C   0  0  1  0  0  0  0  0  0  0  0  0
    9.3710   -4.8130   25.3230 C   0  0  0  0  0  0  0  0  0  0  0  0
    8.5550   -3.7280   25.7390 C   0  0  0  0  0  0  0  0  0  0  0  0
    7.7440   -3.9250   27.2690 S   0  0  0  0  0  0  0  0  0  0  0  0
    8.5410   -5.4780   27.3030 C   0  0  0  0  0  0  0  0  0  0  0  0
    9.3570   -5.8790   26.2870 C   0  0  0  0  0  0  0  0  0  0  0  0
    1.2480   -2.3050   28.3970 C   0  0  0  0  0  0  0  0  0  0  0  0
    2.5910   -1.8710   28.2240 O   0  0  0  0  0  0  0  0  0  0  0  0
    3.2840   -2.4720   27.2310 C   0  0  0  0  0  0  0  0  0  0  0  0
    4.6050   -2.0720   27.0050 C   0  0  0  0  0  0  0  0  0  0  0  0
    5.4060   -2.6300   26.0180 C   0  0  0  0  0  0  0  0  0  0  0  0
    4.8680   -3.6270   25.2260 C   0  0  0  0  0  0  0  0  0  0  0  0
    3.4330   -4.0640   25.4570 C   0  0  0  0  0  0  0  0  0  0  0  0
    2.6760   -3.4800   26.4510 C   0  0  0  0  0  0  0  0  0  0  0  0
    5.4790   -3.6310   22.8940 C   0  0  0  0  0  0  0  0  0  0  0  0
    5.5980   -4.2380   24.2400 C   0  0  0  0  0  0  0  0  0  0  0  0
  1  3  1  0
  2  3  2  0
  4  5  2  0
  3  6  1  0
  6  7  1  0
  7  8  1  0
  5  9  1  0
  8  9  1  0
  9 10  1  0
  6 11  1  0
 10 11  1  0
  5 13  1  0
 12 13  2  0
 13 14  1  0
 14 15  1  0
 12 16  1  0
 15 16  2  0
 17 18  1  0
 18 19  1  0
 19 20  2  0
 20 21  1  0
 21 22  2  0
 22 23  1  0
 19 24  1  0
 23 24  2  0
 11 25  1  1
 22 26  1  0
 25 26  1  0
M  END
