x1412-x0692
     RDKit          3D

 24 26  0  0  0  0  0  0  0  0999 V2000
    7.2910   -3.0250   18.8310 C   0  0  0  0  0  0  0  0  0  0  0  0
    5.3450   -4.1200   19.7020 O   0  0  0  0  0  0  0  0  0  0  0  0
    6.3140   -3.3990   19.9290 C   0  0  0  0  0  0  0  0  0  0  0  0
    8.8340   -1.3800   25.2240 N   0  0  0  0  0  0  0  0  0  0  0  0
    8.5770   -2.6590   24.7640 C   0  0  0  0  0  0  0  0  0  0  0  0
    6.5550   -2.9510   21.2090 N   0  0  0  0  0  0  0  0  0  0  0  0
    7.3900   -1.7540   21.4630 C   0  0  0  0  0  0  0  0  0  0  0  0
    8.6000   -2.0020   22.3800 C   0  0  0  0  0  0  0  0  0  0  0  0
    8.4140   -2.9480   23.4050 N   0  0  0  0  0  0  0  0  0  0  0  0
    7.5530   -4.0910   23.1080 C   0  0  0  0  0  0  0  0  0  0  0  0
    6.3070   -3.7470   22.2850 C   0  0  0  0  0  0  0  0  0  0  0  0
    9.4130   -5.0500   25.4540 C   0  0  0  0  0  0  0  0  0  0  0  0
    8.5400   -3.8300   25.7930 C   0  0  0  0  0  0  0  0  0  0  0  0
    7.6780   -3.9630   27.2970 S   0  0  0  0  0  0  0  0  0  0  0  0
    8.4330   -5.5490   27.4780 C   0  0  0  0  0  0  0  0  0  0  0  0
    9.2960   -6.0780   26.5510 C   0  0  0  0  0  0  0  0  0  0  0  0
   10.7220    2.1180   23.9860 C   0  0  0  0  0  0  0  0  0  0  0  0
   11.0900    0.8420   23.6010 C   0  0  0  0  0  0  0  0  0  0  0  0
   10.2970   -0.2950   23.7550 C   0  0  0  0  0  0  0  0  0  0  0  0
   10.7740   -1.5410   23.2970 C   0  0  0  0  0  0  0  0  0  0  0  0
   12.0340   -1.6460   22.6980 C   0  0  0  0  0  0  0  0  0  0  0  0
   12.9500   -0.4520   22.5170 C   0  0  0  0  0  0  0  0  0  0  0  0
   12.3590    0.8460   23.0310 C   0  0  0  0  0  0  0  0  0  0  0  0
    9.0280   -0.2630   24.3600 C   0  0  0  0  0  0  0  0  0  0  0  0
  1  3  1  0
  2  3  2  0
  4  5  2  3
  3  6  1  0
  6  7  1  0
  7  8  1  0
  5  9  1  0
  8  9  1  0
  9 10  1  0
  6 11  1  0
 10 11  1  0
  5 13  1  0
 12 13  2  0
 13 14  1  0
 14 15  1  0
 12 16  1  0
 15 16  2  0
 17 18  1  0
 18 19  2  0
 19 20  1  0
 20 21  2  0
 21 22  1  0
 18 23  1  0
 22 23  2  0
  4 24  1  0
 19 24  1  0
M  END
