x1412-x0736
     RDKit          3D

 21 23  0  0  0  0  0  0  0  0999 V2000
    7.3290   -3.0130   18.8460 C   0  0  0  0  0  0  0  0  0  0  0  0
    5.4170   -4.1360   19.7510 O   0  0  0  0  0  0  0  0  0  0  0  0
    6.3840   -3.3910   19.9790 C   0  0  0  0  0  0  0  0  0  0  0  0
    7.7610   -2.7550   24.8950 C   0  0  2  0  0  0  0  0  0  0  0  0
    6.3380   -2.6620   24.7940 O   0  0  0  0  0  0  0  0  0  0  0  0
    6.6730   -2.8960   21.2790 N   0  0  0  0  0  0  0  0  0  0  0  0
    7.5800   -1.7680   21.5540 C   0  0  0  0  0  0  0  0  0  0  0  0
    8.6540   -1.8920   22.6120 C   0  0  0  0  0  0  0  0  0  0  0  0
    8.4010   -2.8590   23.5860 N   0  0  0  0  0  0  0  0  0  0  0  0
    8.0050   -4.0730   22.8530 C   0  0  0  0  0  0  0  0  0  0  0  0
    6.5710   -3.8490   22.3770 C   0  0  0  0  0  0  0  0  0  0  0  0
    9.1630   -4.7870   25.3120 C   0  0  0  0  0  0  0  0  0  0  0  0
    8.1930   -3.8580   25.7610 C   0  0  0  0  0  0  0  0  0  0  0  0
    7.5780   -4.1270   27.3540 S   0  0  0  0  0  0  0  0  0  0  0  0
    8.6490   -5.5050   27.3880 C   0  0  0  0  0  0  0  0  0  0  0  0
    9.4400   -5.7970   26.3050 C   0  0  0  0  0  0  0  0  0  0  0  0
    8.5930   -0.3940   25.0200 O   0  0  0  0  0  0  0  0  0  0  0  0
    8.2950   -1.5830   25.6160 C   0  0  0  0  0  0  0  0  0  0  0  0
    8.5330   -1.5950   26.9830 C   0  0  0  0  0  0  0  0  0  0  0  0
    9.0100   -0.3830   27.3130 C   0  0  0  0  0  0  0  0  0  0  0  0
    9.0590    0.3730   26.1620 C   0  0  0  0  0  0  0  0  0  0  0  0
  1  3  1  0
  2  3  2  0
  4  5  1  6
  3  6  1  0
  6  7  1  0
  7  8  1  0
  4  9  1  0
  8  9  1  0
  9 10  1  0
  6 11  1  0
 10 11  1  0
  4 13  1  0
 12 13  2  0
 13 14  1  0
 14 15  1  0
 12 16  1  0
 15 16  2  0
  4 18  1  0
 17 18  1  0
 18 19  2  0
 19 20  1  0
 17 21  1  0
 20 21  2  0
M  END
