x1418-x2562
     RDKit          3D

 32 35  0  0  0  0  0  0  0  0999 V2000
    7.9330   -0.0250   21.4430 C   0  0  0  0  0  0  0  0  0  0  0  0
    7.4330    1.2660   21.0650 O   0  0  0  0  0  0  0  0  0  0  0  0
   12.0950    3.0820   23.3150 O   0  0  0  0  0  0  0  0  0  0  0  0
    8.7930   -0.2950   22.5490 N   0  0  0  0  0  0  0  0  0  0  0  0
   12.5760    6.7230   22.4870 O   0  0  0  0  0  0  0  0  0  0  0  0
    7.3960   -3.0770   18.6850 C   0  0  0  0  0  0  0  0  0  0  0  0
    5.5760   -4.1420   19.8000 O   0  0  0  0  0  0  0  0  0  0  0  0
    6.4300   -3.2200   19.8800 C   0  0  0  0  0  0  0  0  0  0  0  0
    9.9940   -2.7120   23.5390 C   0  0  0  0  0  0  0  0  0  0  0  0
   12.6080    4.4830   21.7560 N   0  0  0  0  0  0  0  0  0  0  0  0
   13.1970    5.7260   22.1860 C   0  0  2  0  0  0  0  0  0  0  0  0
   13.6720    4.8810   23.3090 C   0  0  0  0  0  0  0  0  0  0  0  0
   13.0810    3.8370   22.6350 C   0  0  1  0  0  0  0  0  0  0  0  0
   11.2910   -0.9640   22.4130 C   0  0  0  0  0  0  0  0  0  0  0  0
   12.6130   -0.5430   22.5330 C   0  0  0  0  0  0  0  0  0  0  0  0
   12.8950    0.7850   22.8280 C   0  0  0  0  0  0  0  0  0  0  0  0
   11.9260    1.7680   23.0160 C   0  0  0  0  0  0  0  0  0  0  0  0
   10.5930    1.4280   22.9090 C   0  0  0  0  0  0  0  0  0  0  0  0
   10.2550   -0.0130   22.6000 C   0  0  0  0  0  0  0  0  0  0  0  0
    6.5930   -2.2850   20.9730 N   0  0  0  0  0  0  0  0  0  0  0  0
    6.3620   -2.7830   22.3560 C   0  0  0  0  0  0  0  0  0  0  0  0
    7.6080   -3.4600   22.9020 C   0  0  0  0  0  0  0  0  0  0  0  0
    8.7670   -2.5220   22.7550 N   0  0  0  0  0  0  0  0  0  0  0  0
    8.9550   -2.1560   21.2990 C   0  0  0  0  0  0  0  0  0  0  0  0
    7.7500   -1.3590   20.7580 C   0  0  2  0  0  0  0  0  0  0  0  0
    4.3400    1.4740   19.3590 N   0  0  0  0  0  0  0  0  0  0  0  0
    5.0810    1.6420   18.3200 C   0  0  0  0  0  0  0  0  0  0  0  0
    6.1970    0.9500   17.9830 N   0  0  0  0  0  0  0  0  0  0  0  0
    6.8750   -0.0940   18.5730 C   0  0  0  0  0  0  0  0  0  0  0  0
    5.9980   -0.2150   19.6980 C   0  0  0  0  0  0  0  0  0  0  0  0
    4.8390    0.4970   20.0660 C   0  0  0  0  0  0  0  0  0  0  0  0
    7.4700   -1.2250   19.3600 C   0  0  0  0  0  0  0  0  0  0  0  0
  1  2  2  0
  1  4  1  0
  6  8  1  0
  7  8  2  0
 11  5  1  1
 10 11  1  0
 11 12  1  0
 13  3  1  1
 10 13  1  0
 12 13  1  0
 14 15  2  0
 15 16  1  0
  3 17  1  0
 16 17  2  0
 17 18  1  0
  4 19  1  0
 14 19  1  0
 18 19  2  0
  8 20  1  0
 20 21  1  0
 21 22  1  0
  9 23  1  0
 22 23  1  0
 23 24  1  0
 25  1  1  0
 20 25  1  0
 24 25  1  0
 26 27  2  0
 27 28  1  0
 28 29  2  0
 29 30  1  0
 26 31  1  0
 30 31  2  0
 25 32  1  6
 29 32  1  0
M  END
