x1412-x2649
     RDKit          3D

 34 37  0  0  0  0  0  0  0  0999 V2000
    6.6770   -0.2420   21.4560 N   0  0  0  0  0  0  0  0  0  0  0  0
    8.9630   -1.9890   23.7060 C   0  0  0  0  0  0  0  0  0  0  0  0
    8.8450   -0.7300   20.9130 O   0  0  0  0  0  0  0  0  0  0  0  0
    8.0280   -0.5920   21.7880 C   0  0  2  0  0  0  0  0  0  0  0  0
    4.6340    1.3900   21.5290 C   0  0  0  0  0  0  0  0  0  0  0  0
    7.4650   -3.0770   18.8620 C   0  0  0  0  0  0  0  0  0  0  0  0
    5.4190   -4.0450   19.6770 O   0  0  0  0  0  0  0  0  0  0  0  0
    6.5280   -3.5710   19.9490 C   0  0  0  0  0  0  0  0  0  0  0  0
    8.2930   -3.1510   24.3410 C   0  0  0  0  0  0  0  0  0  0  0  0
    6.3320    0.6360   17.7230 N   0  0  0  0  0  0  0  0  0  0  0  0
    5.2430    1.4970   17.7810 C   0  0  0  0  0  0  0  0  0  0  0  0
    4.7170    1.7140   19.0450 C   0  0  0  0  0  0  0  0  0  0  0  0
    5.1770    1.1610   20.2050 C   0  0  0  0  0  0  0  0  0  0  0  0
    6.2480    0.3100   20.1470 C   0  0  0  0  0  0  0  0  0  0  0  0
    6.8610    0.0110   18.9380 C   0  0  0  0  0  0  0  0  0  0  0  0
    6.9740   -3.5410   21.2510 N   0  0  0  0  0  0  0  0  0  0  0  0
    8.2670   -2.9910   21.7280 C   0  0  0  0  0  0  0  0  0  0  0  0
    7.9910   -1.8870   22.5190 C   0  0  1  0  0  0  0  0  0  0  0  0
    6.6930   -1.9690   23.0770 N   0  0  0  0  0  0  0  0  0  0  0  0
    6.2080   -3.3120   23.4570 C   0  0  0  0  0  0  0  0  0  0  0  0
    6.1570   -4.0490   22.3130 C   0  0  0  0  0  0  0  0  0  0  0  0
    9.3790   -5.2730   25.4910 C   0  0  0  0  0  0  0  0  0  0  0  0
    8.4970   -4.0150   25.5600 C   0  0  0  0  0  0  0  0  0  0  0  0
    7.7870   -3.7680   27.1160 S   0  0  0  0  0  0  0  0  0  0  0  0
    8.5910   -5.2470   27.6570 C   0  0  0  0  0  0  0  0  0  0  0  0
    9.4410   -5.9590   26.6150 C   0  0  0  0  0  0  0  0  0  0  0  0
   13.1330   -2.2960   21.6370 Cl  0  0  0  0  0  0  0  0  0  0  0  0
   10.8720    1.3010   23.1280 C   0  0  0  0  0  0  0  0  0  0  0  0
   12.3530    1.3140   23.1850 C   0  0  0  0  0  0  0  0  0  0  0  0
   13.0450    0.2220   22.7460 C   0  0  0  0  0  0  0  0  0  0  0  0
   12.3010   -0.9680   22.2150 C   0  0  0  0  0  0  0  0  0  0  0  0
   10.7830   -0.9120   22.2020 C   0  0  0  0  0  0  0  0  0  0  0  0
   10.1470    0.2410   22.6670 C   0  0  0  0  0  0  0  0  0  0  0  0
    8.7770    0.3930   22.6810 C   0  0  0  0  0  0  0  0  0  0  0  0
  1  4  1  0
  4  3  1  6
  6  8  1  0
  7  8  2  0
  2  9  2  3
 10 11  2  0
 11 12  1  0
  5 13  1  0
 12 13  2  0
  1 14  1  0
 13 14  1  0
 10 15  1  0
 14 15  2  0
  8 16  1  0
 16 17  1  0
 18  2  1  1
  4 18  1  0
 17 18  1  0
 18 19  1  0
 19 20  1  0
 16 21  1  0
 20 21  1  0
  9 23  1  0
 22 23  2  0
 23 24  1  0
 24 25  1  0
 22 26  1  0
 25 26  2  0
 28 29  2  0
 29 30  1  0
 27 31  1  0
 30 31  2  0
 31 32  1  0
 28 33  1  0
 32 33  2  0
  4 34  1  0
 33 34  1  0
M  END
