x1412-x0831
     RDKit          3D

 24 26  0  0  0  0  0  0  0  0999 V2000
    7.3700   -2.9840   18.7790 C   0  0  0  0  0  0  0  0  0  0  0  0
    5.4420   -4.0500   19.6980 O   0  0  0  0  0  0  0  0  0  0  0  0
    6.4120   -3.3110   19.9050 C   0  0  0  0  0  0  0  0  0  0  0  0
    8.6340   -1.2890   25.4870 O   0  0  0  0  0  0  0  0  0  0  0  0
    8.3820   -2.3830   25.0030 C   0  0  0  0  0  0  0  0  0  0  0  0
    6.6420   -2.8130   21.1820 N   0  0  0  0  0  0  0  0  0  0  0  0
    7.8520   -1.9990   21.4480 C   0  0  0  0  0  0  0  0  0  0  0  0
    8.6500   -2.7270   22.5680 C   0  0  2  0  0  0  0  0  0  0  0  0
    7.9280   -2.4900   23.7270 N   0  0  0  0  0  0  0  0  0  0  0  0
    7.6690   -3.6970   23.1500 C   0  0  0  0  0  0  0  0  0  0  0  0
    6.4640   -3.8070   22.2140 C   0  0  0  0  0  0  0  0  0  0  0  0
    9.4130   -4.8530   25.3410 C   0  0  0  0  0  0  0  0  0  0  0  0
    8.5320   -3.6970   25.8480 C   0  0  0  0  0  0  0  0  0  0  0  0
    7.7910   -4.0120   27.3810 S   0  0  0  0  0  0  0  0  0  0  0  0
    8.5890   -5.5870   27.3920 C   0  0  0  0  0  0  0  0  0  0  0  0
    9.4020   -5.9920   26.3550 C   0  0  0  0  0  0  0  0  0  0  0  0
   12.7270   -1.8330   21.8200 C   0  0  0  0  0  0  0  0  0  0  0  0
   11.9660   -0.9430   22.5710 C   0  0  0  0  0  0  0  0  0  0  0  0
   10.6500   -1.1920   22.9940 C   0  0  0  0  0  0  0  0  0  0  0  0
    9.9610   -0.2160   23.7580 C   0  0  0  0  0  0  0  0  0  0  0  0
   10.6360    0.9900   24.0550 C   0  0  0  0  0  0  0  0  0  0  0  0
   12.0630    1.3040   23.6030 C   0  0  0  0  0  0  0  0  0  0  0  0
   12.6920    0.1960   22.8170 C   0  0  0  0  0  0  0  0  0  0  0  0
   10.1250   -2.4450   22.6050 C   0  0  0  0  0  0  0  0  0  0  0  0
  1  3  1  0
  2  3  2  0
  4  5  2  0
  3  6  1  0
  6  7  1  0
  7  8  1  0
  5  9  1  0
  8  9  1  0
  9 10  1  0
  6 11  1  0
 10 11  1  0
  5 13  1  0
 12 13  2  0
 13 14  1  0
 14 15  1  0
 12 16  1  0
 15 16  2  0
 17 18  1  0
 18 19  2  0
 19 20  1  0
 20 21  2  0
 21 22  1  0
 18 23  1  0
 22 23  2  0
  8 24  1  1
 19 24  1  0
M  END
