x1412-x0734
     RDKit          3D

 20 21  0  0  0  0  0  0  0  0999 V2000
    5.1060   -4.9290   26.2100 N   0  0  0  0  0  0  0  0  0  0  0  0
    4.5050   -5.7630   25.5180 O   0  0  0  0  0  0  0  0  0  0  0  0
    4.5860   -3.9330   26.7310 O   0  0  0  0  0  0  0  0  0  0  0  0
    5.1410   -4.3650   19.7800 O   0  0  0  0  0  0  0  0  0  0  0  0
    6.1830   -3.8320   20.1340 C   0  0  0  0  0  0  0  0  0  0  0  0
    7.0480   -3.1370   19.0890 C   0  0  0  0  0  0  0  0  0  0  0  0
    8.1160   -1.3020   24.9750 O   0  0  0  0  0  0  0  0  0  0  0  0
    8.4430   -2.2950   24.3150 C   0  0  0  0  0  0  0  0  0  0  0  0
    6.5740   -5.0080   26.2500 C   0  0  0  0  0  0  0  0  0  0  0  0
    7.4590   -4.6890   25.1000 C   0  0  0  0  0  0  0  0  0  0  0  0
    8.8220   -4.7830   25.2250 C   0  0  0  0  0  0  0  0  0  0  0  0
    9.4720   -5.2180   26.5360 C   0  0  0  0  0  0  0  0  0  0  0  0
    8.6150   -5.5150   27.6010 C   0  0  0  0  0  0  0  0  0  0  0  0
    7.2280   -5.4290   27.5150 C   0  0  0  0  0  0  0  0  0  0  0  0
    6.5810   -3.9050   21.4890 N   0  0  0  0  0  0  0  0  0  0  0  0
    6.5410   -5.2170   21.9270 C   0  0  0  0  0  0  0  0  0  0  0  0
    6.1620   -5.1890   23.2770 C   0  0  0  0  0  0  0  0  0  0  0  0
    7.1260   -4.3430   24.0400 N   0  0  0  0  0  0  0  0  0  0  0  0
    7.4400   -3.0090   23.4910 C   0  0  2  0  0  0  0  0  0  0  0  0
    7.7310   -3.1220   22.1200 C   0  0  0  0  0  0  0  0  0  0  0  0
  1  2  2  0
  1  3  1  0
  4  5  2  0
  5  6  1  0
  7  8  2  0
  1  9  1  0
  9 10  2  0
 10 11  1  0
 11 12  2  0
 12 13  1  0
  9 14  1  0
 13 14  2  0
  5 15  1  0
 15 16  1  0
 16 17  1  0
 10 18  1  0
 17 18  1  0
 19  8  1  1
 18 19  1  0
 15 20  1  0
 19 20  1  0
M  CHG  2   1   1   3  -1
M  END
