x1418-x0981
     RDKit          3D

 29 30  0  0  0  0  0  0  0  0999 V2000
    1.2070   -8.7590   21.3340 C   0  0  0  0  0  0  0  0  0  0  0  0
    2.7900   -7.1660   22.7730 N   0  0  0  0  0  0  0  0  0  0  0  0
    0.6290   -6.5600   22.3650 O   0  0  0  0  0  0  0  0  0  0  0  0
    1.4460   -7.4550   22.1600 C   0  0  0  0  0  0  0  0  0  0  0  0
    2.3950   -8.3150   26.4370 N   0  0  0  0  0  0  0  0  0  0  0  0
    4.0020   -8.1970   24.5830 O   0  0  0  0  0  0  0  0  0  0  0  0
    3.0340   -5.9980   23.5060 C   0  0  1  0  0  0  0  0  0  0  0  0
    5.4710   -6.1440   22.5690 N   0  0  0  0  0  0  0  0  0  0  0  0
    4.8620   -4.5470   24.1700 O   0  0  0  0  0  0  0  0  0  0  0  0
    2.7210   -6.2700   24.9910 C   0  0  0  0  0  0  0  0  0  0  0  0
    3.0090   -7.5710   25.3560 C   0  0  0  0  0  0  0  0  0  0  0  0
    4.5120   -5.4900   23.4640 C   0  0  0  0  0  0  0  0  0  0  0  0
    5.9290   -5.2640   21.4760 C   0  0  0  0  0  0  0  0  0  0  0  0
    7.3090   -3.0430   18.6680 C   0  0  0  0  0  0  0  0  0  0  0  0
    5.3040   -3.9730   19.6250 O   0  0  0  0  0  0  0  0  0  0  0  0
    6.3630   -3.3830   19.8310 C   0  0  0  0  0  0  0  0  0  0  0  0
    9.8770   -2.6630   23.6440 C   0  0  0  0  0  0  0  0  0  0  0  0
    7.2100   -4.3430   21.6940 C   0  0  0  0  0  0  0  0  0  0  0  0
    6.8490   -3.0510   21.2500 C   0  0  0  0  0  0  0  0  0  0  0  0
    6.1430   -2.6000   22.4720 C   0  0  0  0  0  0  0  0  0  0  0  0
    7.2850   -2.6350   23.5650 C   0  0  0  0  0  0  0  0  0  0  0  0
    8.6440   -2.1230   23.0850 N   0  0  0  0  0  0  0  0  0  0  0  0
    8.9130   -2.0170   21.7820 C   0  0  0  0  0  0  0  0  0  0  0  0
    7.6950   -2.0150   20.9390 C   0  0  0  0  0  0  0  0  0  0  0  0
   12.1530   -1.5010   22.6370 C   0  0  0  0  0  0  0  0  0  0  0  0
   10.9250   -1.5980   23.5550 C   0  0  0  0  0  0  0  0  0  0  0  0
   10.8270   -0.2210   24.5770 S   0  0  0  0  0  0  0  0  0  0  0  0
   12.2380    0.4560   23.8860 C   0  0  0  0  0  0  0  0  0  0  0  0
   12.8550   -0.3010   22.8810 C   0  0  0  0  0  0  0  0  0  0  0  0
  1  4  1  0
  2  4  1  0
  3  4  2  0
  2  7  1  0
  7 10  1  1
  5 11  1  0
  6 11  2  0
 10 11  1  0
  7 12  1  0
  8 12  1  0
  9 12  2  0
  8 13  1  0
 14 16  1  0
 15 16  2  0
 13 18  1  0
 19 16  1  0
 18 19  1  0
 19 20  1  0
 20 21  1  0
 17 22  1  0
 21 22  1  0
 22 23  1  0
 19 24  1  0
 23 24  1  0
 17 26  1  0
 25 26  2  0
 26 27  1  0
 27 28  1  0
 25 29  1  0
 28 29  2  0
M  END
