x1412-x1336
     RDKit          3D

 20 21  0  0  0  0  0  0  0  0999 V2000
    6.0750   -5.4690   29.0710 C   0  0  0  0  0  0  0  0  0  0  0  0
    8.7110   -1.0480   25.2700 O   0  0  0  0  0  0  0  0  0  0  0  0
    6.0900   -1.2590   25.7200 O   0  0  0  0  0  0  0  0  0  0  0  0
    5.3700   -4.1450   19.7380 O   0  0  0  0  0  0  0  0  0  0  0  0
   10.0560   -3.5830   25.2020 C   0  0  0  0  0  0  0  0  0  0  0  0
    6.4080   -3.5280   19.9930 C   0  0  0  0  0  0  0  0  0  0  0  0
    7.3310   -3.0950   18.8760 C   0  0  0  0  0  0  0  0  0  0  0  0
    7.5110   -1.8530   25.3020 S   0  0  0  0  0  0  0  0  0  0  0  0
    7.0550   -4.9120   28.0350 C   0  0  0  0  0  0  0  0  0  0  0  0
    6.7700   -3.7880   27.2970 C   0  0  0  0  0  0  0  0  0  0  0  0
    7.8060   -3.3020   26.2900 C   0  0  0  0  0  0  0  0  0  0  0  0
    8.9880   -4.0340   26.1820 C   0  0  0  0  0  0  0  0  0  0  0  0
    9.2390   -5.1650   26.9390 C   0  0  0  0  0  0  0  0  0  0  0  0
    8.2760   -5.5920   27.8550 C   0  0  0  0  0  0  0  0  0  0  0  0
    6.8210   -3.2480   21.3040 N   0  0  0  0  0  0  0  0  0  0  0  0
    6.5890   -4.1580   22.4190 C   0  0  0  0  0  0  0  0  0  0  0  0
    6.2430   -3.4290   23.5380 C   0  0  0  0  0  0  0  0  0  0  0  0
    7.3360   -2.4730   23.7780 N   0  0  0  0  0  0  0  0  0  0  0  0
    7.7900   -1.5660   22.6400 C   0  0  0  0  0  0  0  0  0  0  0  0
    7.9470   -2.3140   21.4860 C   0  0  0  0  0  0  0  0  0  0  0  0
  4  6  2  0
  6  7  1  0
  2  8  2  0
  3  8  2  0
  1  9  1  0
  9 10  2  0
  8 11  1  0
 10 11  1  0
  5 12  1  0
 11 12  2  0
 12 13  1  0
  9 14  1  0
 13 14  2  0
  6 15  1  0
 15 16  1  0
 16 17  1  0
  8 18  1  0
 17 18  1  0
 18 19  1  0
 15 20  1  0
 19 20  1  0
M  END
