x1418-x0692-x2694-x0734
     RDKit          3D

 47 51  0  0  0  0  0  0  0  0999 V2000
    7.7240    2.3260   22.8080 N   0  0  0  0  0  0  0  0  0  0  0  0
    9.2030    1.5740   21.1770 O   0  0  0  0  0  0  0  0  0  0  0  0
   11.0550    6.7650   23.9070 O   0  0  0  0  0  0  0  0  0  0  0  0
    6.9510    0.2130   21.4570 C   0  0  1  0  0  0  0  0  0  0  0  0
    7.9570    1.3120   21.8000 C   0  0  0  0  0  0  0  0  0  0  0  0
   10.2720    1.9700   24.0720 C   0  0  0  0  0  0  0  0  0  0  0  0
   11.8670    6.5540   25.0620 C   0  0  0  0  0  0  0  0  0  0  0  0
   12.3590   -1.2610   23.1420 C   0  0  0  0  0  0  0  0  0  0  0  0
   12.6840    0.2470   23.3460 C   0  0  0  0  0  0  0  0  0  0  0  0
   12.9950   -1.7770   21.8520 C   0  0  0  0  0  0  0  0  0  0  0  0
   12.9470   -2.0850   24.3110 C   0  0  0  0  0  0  0  0  0  0  0  0
    5.4680   -3.9280   19.7090 O   0  0  0  0  0  0  0  0  0  0  0  0
    8.3480   -2.5630   24.3680 C   0  0  0  0  0  0  0  0  0  0  0  0
    6.3640   -3.0660   19.9270 C   0  0  0  0  0  0  0  0  0  0  0  0
    7.3310   -2.8430   18.7780 C   0  0  0  0  0  0  0  0  0  0  0  0
    6.2940    0.6600   17.5690 N   0  0  0  0  0  0  0  0  0  0  0  0
    5.2150    1.4440   17.6450 C   0  0  0  0  0  0  0  0  0  0  0  0
    4.5850    1.8810   18.9370 C   0  0  0  0  0  0  0  0  0  0  0  0
    5.1800    1.4430   20.2400 C   0  0  0  0  0  0  0  0  0  0  0  0
    6.3070    0.6400   20.1700 C   0  0  0  0  0  0  0  0  0  0  0  0
    6.8610    0.2390   18.8450 C   0  0  0  0  0  0  0  0  0  0  0  0
    8.7500   -1.6700   23.8190 N   0  0  0  0  0  0  0  0  0  0  0  0
   10.1950   -1.8420   24.1430 O   0  0  0  0  0  0  0  0  0  0  0  0
   10.8670   -1.4720   23.0090 C   0  0  0  0  0  0  0  0  0  0  0  0
    9.8460   -1.3710   21.8930 C   0  0  0  0  0  0  0  0  0  0  0  0
    8.6730   -1.7640   22.4800 C   0  0  2  0  0  0  0  0  0  0  0  0
    9.7570    3.3230   23.6630 C   0  0  0  0  0  0  0  0  0  0  0  0
   10.5680    4.4560   23.9200 C   0  0  0  0  0  0  0  0  0  0  0  0
   10.1710    5.7740   23.5830 C   0  0  0  0  0  0  0  0  0  0  0  0
    8.9670    5.8970   22.9830 C   0  0  0  0  0  0  0  0  0  0  0  0
    8.1780    4.7700   22.7310 C   0  0  0  0  0  0  0  0  0  0  0  0
    8.5360    3.4640   23.0600 C   0  0  0  0  0  0  0  0  0  0  0  0
    6.4520   -2.4150   21.2190 N   0  0  0  0  0  0  0  0  0  0  0  0
    7.3030   -1.2970   21.7950 C   0  0  2  0  0  0  0  0  0  0  0  0
    8.6080   -3.2270   22.3800 N   0  0  0  0  0  0  0  0  0  0  0  0
    7.4170   -3.9180   22.5200 C   0  0  0  0  0  0  0  0  0  0  0  0
    6.2100   -3.2990   22.1690 C   0  0  0  0  0  0  0  0  0  0  0  0
    5.1040   -5.0850   26.4700 N   0  0  0  0  0  0  0  0  0  0  0  0
    4.5630   -5.9160   25.5240 O   0  0  0  0  0  0  0  0  0  0  0  0
    4.5380   -4.0420   26.8350 O   0  0  0  0  0  0  0  0  0  0  0  0
    6.4510   -5.1020   26.6050 C   0  0  0  0  0  0  0  0  0  0  0  0
    7.1980   -4.4030   25.6740 C   0  0  0  0  0  0  0  0  0  0  0  0
    8.5810   -4.3860   25.7850 C   0  0  0  0  0  0  0  0  0  0  0  0
    9.1910   -5.0680   26.8100 C   0  0  0  0  0  0  0  0  0  0  0  0
    8.4700   -5.7710   27.7470 C   0  0  0  0  0  0  0  0  0  0  0  0
    7.0760   -5.7920   27.6490 C   0  0  0  0  0  0  0  0  0  0  0  0
    9.3110   -3.6020   24.7770 C   0  0  0  0  0  0  0  0  0  0  0  0
  1  5  1  0
  2  5  2  0
  4  5  1  6
  3  7  1  0
  8  9  1  0
  8 10  1  0
  8 11  1  0
 12 14  2  0
 14 15  1  0
 16 17  2  0
 17 18  1  0
 18 19  2  0
  4 20  1  0
 19 20  1  0
 16 21  1  0
 20 21  2  0
 13 22  1  0
 22 23  1  0
  8 24  1  0
 23 24  1  0
 24 25  2  0
 22 26  1  0
 26 25  1  6
  6 27  1  0
 27 28  2  0
  3 29  1  0
 28 29  1  0
 29 30  2  0
 30 31  1  0
  1 32  1  0
 27 32  1  0
 31 32  2  0
 14 33  1  0
  4 34  1  0
 26 34  1  0
 34 33  1  6
 26 35  1  0
 35 36  1  0
 33 37  1  0
 36 37  1  0
 38 39  2  0
 38 40  1  0
 38 41  1  0
 41 42  2  0
 42 43  1  0
 43 44  2  0
 44 45  1  0
 41 46  1  0
 45 46  2  0
 13 47  1  0
 43 47  1  0
M  CHG  2  38   1  40  -1
M  END
