x1418-x2119
     RDKit          3D

 15 16  0  0  0  0  0  0  0  0999 V2000
    7.3140   -2.9830   18.6870 C   0  0  0  0  0  0  0  0  0  0  0  0
    5.4900   -4.0600   19.7440 O   0  0  0  0  0  0  0  0  0  0  0  0
    6.4070   -3.2210   19.8640 C   0  0  0  0  0  0  0  0  0  0  0  0
    9.8800   -2.5730   23.3770 C   0  0  0  0  0  0  0  0  0  0  0  0
    6.6770   -2.4950   21.0310 N   0  0  0  0  0  0  0  0  0  0  0  0
    6.6860   -3.2320   22.2620 C   0  0  0  0  0  0  0  0  0  0  0  0
    7.9370   -3.1950   22.9070 C   0  0  0  0  0  0  0  0  0  0  0  0
    8.6560   -2.2600   22.7930 N   0  0  0  0  0  0  0  0  0  0  0  0
    8.6890   -1.7890   21.7200 C   0  0  0  0  0  0  0  0  0  0  0  0
    7.5510   -1.3370   21.0450 C   0  0  0  0  0  0  0  0  0  0  0  0
   11.9800   -1.3640   22.6740 C   0  0  0  0  0  0  0  0  0  0  0  0
   10.8380   -1.3850   23.4910 C   0  0  0  0  0  0  0  0  0  0  0  0
   10.6680   -0.0220   24.5430 S   0  0  0  0  0  0  0  0  0  0  0  0
   12.1700    0.5710   23.8370 C   0  0  0  0  0  0  0  0  0  0  0  0
   12.7410   -0.2240   22.8870 C   0  0  0  0  0  0  0  0  0  0  0  0
  1  3  1  0
  2  3  2  0
  3  5  1  0
  5  6  1  0
  6  7  1  0
  4  8  1  0
  7  8  1  0
  8  9  1  0
  5 10  1  0
  9 10  1  0
  4 12  1  0
 11 12  2  0
 12 13  1  0
 13 14  1  0
 11 15  1  0
 14 15  2  0
M  END
