x1418-x0978-x2694
     RDKit          3D

 49 52  0  0  0  0  0  0  0  0999 V2000
    7.6390    2.2280   22.7310 N   0  0  0  0  0  0  0  0  0  0  0  0
    9.2820    1.3670   21.1360 O   0  0  0  0  0  0  0  0  0  0  0  0
   10.8290    6.7720   23.8850 O   0  0  0  0  0  0  0  0  0  0  0  0
    7.0580    0.0290   21.4430 C   0  0  1  0  0  0  0  0  0  0  0  0
    8.0470    1.2050   21.7740 C   0  0  0  0  0  0  0  0  0  0  0  0
   10.3030    1.8570   24.0060 C   0  0  0  0  0  0  0  0  0  0  0  0
   11.8570    6.6680   24.8700 C   0  0  0  0  0  0  0  0  0  0  0  0
   12.4160   -1.2790   23.1760 C   0  0  0  0  0  0  0  0  0  0  0  0
   12.7630    0.1890   23.4600 C   0  0  0  0  0  0  0  0  0  0  0  0
   13.0210   -1.8420   21.8950 C   0  0  0  0  0  0  0  0  0  0  0  0
   12.9660   -2.1120   24.3430 C   0  0  0  0  0  0  0  0  0  0  0  0
    7.4300   -2.9000   18.7060 C   0  0  0  0  0  0  0  0  0  0  0  0
    5.4290   -3.7760   19.5510 O   0  0  0  0  0  0  0  0  0  0  0  0
    6.4440   -3.0920   19.8020 C   0  0  0  0  0  0  0  0  0  0  0  0
    8.0920   -1.8040   24.7950 C   0  0  0  0  0  0  0  0  0  0  0  0
    1.8200   -5.5540   23.4630 N   0  0  0  0  0  0  0  0  0  0  0  0
    2.2660   -8.1870   24.6620 C   0  0  0  0  0  0  0  0  0  0  0  0
    4.4400   -7.8680   24.2630 O   0  0  0  0  0  0  0  0  0  0  0  0
    3.2050   -7.2060   24.3960 C   0  0  1  0  0  0  0  0  0  0  0  0
    5.3900   -5.8560   22.3690 N   0  0  0  0  0  0  0  0  0  0  0  0
    1.2170   -6.9840   22.3410 O   0  0  0  0  0  0  0  0  0  0  0  0
    3.0290   -6.3890   23.2940 C   0  0  2  0  0  0  0  0  0  0  0  0
    4.1150   -4.0670   23.6070 O   0  0  0  0  0  0  0  0  0  0  0  0
    0.9060   -5.8910   22.7960 C   0  0  0  0  0  0  0  0  0  0  0  0
   -0.3780   -5.7150   22.2400 C   0  0  0  0  0  0  0  0  0  0  0  0
    4.1990   -5.3830   23.1000 C   0  0  0  0  0  0  0  0  0  0  0  0
    6.2260   -5.0250   21.6740 C   0  0  0  0  0  0  0  0  0  0  0  0
    6.3130    0.5300   17.7670 N   0  0  0  0  0  0  0  0  0  0  0  0
    5.1930    1.2620   17.8700 C   0  0  0  0  0  0  0  0  0  0  0  0
    4.5950    1.6310   19.0610 C   0  0  0  0  0  0  0  0  0  0  0  0
    5.1920    1.2270   20.2530 C   0  0  0  0  0  0  0  0  0  0  0  0
    6.3490    0.4770   20.1800 C   0  0  0  0  0  0  0  0  0  0  0  0
    6.8660    0.1510   18.9200 C   0  0  0  0  0  0  0  0  0  0  0  0
    8.7130   -1.0790   23.7240 N   0  0  0  0  0  0  0  0  0  0  0  0
   10.1270   -1.0940   24.2310 O   0  0  0  0  0  0  0  0  0  0  0  0
   10.9140   -1.3930   23.1500 C   0  0  0  0  0  0  0  0  0  0  0  0
   10.1110   -1.8040   22.0920 C   0  0  0  0  0  0  0  0  0  0  0  0
    8.8130   -1.8230   22.4800 C   0  0  1  0  0  0  0  0  0  0  0  0
    9.7480    3.2100   23.6390 C   0  0  0  0  0  0  0  0  0  0  0  0
   10.5420    4.3370   23.9160 C   0  0  0  0  0  0  0  0  0  0  0  0
   10.1200    5.6270   23.6310 C   0  0  0  0  0  0  0  0  0  0  0  0
    8.8630    5.7600   23.0370 C   0  0  0  0  0  0  0  0  0  0  0  0
    8.0730    4.6350   22.7520 C   0  0  0  0  0  0  0  0  0  0  0  0
    8.4820    3.3410   23.0420 C   0  0  0  0  0  0  0  0  0  0  0  0
    6.6780   -2.5770   21.1070 N   0  0  0  0  0  0  0  0  0  0  0  0
    6.3730   -3.5410   22.1820 C   0  0  2  0  0  0  0  0  0  0  0  0
    7.3470   -3.6270   23.1580 C   0  0  0  0  0  0  0  0  0  0  0  0
    8.6930   -3.2420   22.7690 N   0  0  0  0  0  0  0  0  0  0  0  0
    7.6950   -1.4690   21.3340 C   0  0  1  0  0  0  0  0  0  0  0  0
  1  5  1  0
  2  5  2  0
  4  5  1  6
  3  7  1  0
  8  9  1  0
  8 10  1  0
  8 11  1  0
 12 14  1  0
 13 14  2  0
 19 17  1  6
 18 19  1  0
 22 16  1  1
 19 22  1  0
 16 24  1  0
 21 24  2  0
 24 25  1  0
 20 26  1  0
 22 26  1  0
 23 26  2  0
 20 27  1  0
 28 29  2  0
 29 30  1  0
 30 31  2  0
  4 32  1  0
 31 32  1  0
 28 33  1  0
 32 33  2  0
 15 34  1  0
 34 35  1  0
  8 36  1  0
 35 36  1  0
 36 37  2  0
 34 38  1  0
 38 37  1  6
  6 39  1  0
 39 40  2  0
  3 41  1  0
 40 41  1  0
 41 42  2  0
 42 43  1  0
  1 44  1  0
 39 44  1  0
 43 44  2  0
 14 45  1  0
 46 27  1  6
 45 46  1  0
 46 47  1  0
 38 48  1  0
 47 48  1  0
  4 49  1  0
 38 49  1  0
 49 45  1  1
M  END
