x1418-x0830
     RDKit          3D

 20 22  0  0  0  0  0  0  0  0999 V2000
    7.7420   -3.6270   19.5610 C   0  0  0  0  0  0  0  0  0  0  0  0
    5.5080   -3.1760   19.1660 O   0  0  0  0  0  0  0  0  0  0  0  0
    6.5110   -2.8970   19.8700 C   0  0  0  0  0  0  0  0  0  0  0  0
    9.6370   -2.4840   23.6020 C   0  0  0  0  0  0  0  0  0  0  0  0
    6.6160   -2.0460   20.9610 N   0  0  0  0  0  0  0  0  0  0  0  0
    6.4950   -2.7470   22.2160 C   0  0  0  0  0  0  0  0  0  0  0  0
    7.7550   -3.0540   22.7610 C   0  0  0  0  0  0  0  0  0  0  0  0
    8.5540   -2.1990   22.7630 N   0  0  0  0  0  0  0  0  0  0  0  0
    8.7310   -1.7120   21.7060 C   0  0  0  0  0  0  0  0  0  0  0  0
    7.7020   -1.0760   20.9810 C   0  0  0  0  0  0  0  0  0  0  0  0
   12.0620   -2.0680   22.7570 C   0  0  0  0  0  0  0  0  0  0  0  0
   13.1100   -1.2140   22.4920 C   0  0  0  0  0  0  0  0  0  0  0  0
   13.0200    0.1350   22.7520 C   0  0  0  0  0  0  0  0  0  0  0  0
   11.8900    0.7000   23.2850 C   0  0  0  0  0  0  0  0  0  0  0  0
   10.7710   -0.0960   23.6070 C   0  0  0  0  0  0  0  0  0  0  0  0
   10.8790   -1.5720   23.3050 C   0  0  0  0  0  0  0  0  0  0  0  0
   11.9160    2.0930   23.4730 C   0  0  0  0  0  0  0  0  0  0  0  0
   10.7120    2.7460   24.0400 C   0  0  0  0  0  0  0  0  0  0  0  0
    9.5000    1.9560   24.4310 C   0  0  0  0  0  0  0  0  0  0  0  0
    9.6130    0.4800   24.1700 C   0  0  0  0  0  0  0  0  0  0  0  0
  1  3  1  0
  2  3  2  0
  3  5  1  0
  5  6  1  0
  6  7  1  0
  4  8  1  0
  7  8  1  0
  8  9  1  0
  5 10  1  0
  9 10  1  0
 11 12  2  0
 12 13  1  0
 13 14  2  0
 14 15  1  0
  4 16  1  0
 11 16  1  0
 15 16  2  0
 14 17  1  0
 17 18  2  0
 18 19  1  0
 15 20  1  0
 19 20  2  0
M  END
