x1412-x0770
     RDKit          3D

 24 26  0  0  0  0  0  0  0  0999 V2000
    7.3110   -3.0060   18.8120 C   0  0  0  0  0  0  0  0  0  0  0  0
    5.3660   -4.0840   19.6960 O   0  0  0  0  0  0  0  0  0  0  0  0
    6.3460   -3.3690   19.9300 C   0  0  0  0  0  0  0  0  0  0  0  0
    9.0460   -1.4780   25.6650 N   0  0  0  0  0  0  0  0  0  0  0  0
    8.4930   -2.6780   25.0280 C   0  0  0  0  0  0  0  0  0  0  0  0
    6.5980   -2.9440   21.2490 N   0  0  0  0  0  0  0  0  0  0  0  0
    7.5000   -1.7820   21.5930 C   0  0  0  0  0  0  0  0  0  0  0  0
    8.3210   -2.0370   22.8250 C   0  0  0  0  0  0  0  0  0  0  0  0
    8.0070   -2.7540   23.7020 N   0  0  0  0  0  0  0  0  0  0  0  0
    7.5950   -3.9500   23.1900 C   0  0  0  0  0  0  0  0  0  0  0  0
    6.4790   -3.9560   22.1620 C   0  0  0  0  0  0  0  0  0  0  0  0
    9.3310   -4.9370   25.4860 C   0  0  0  0  0  0  0  0  0  0  0  0
    8.5310   -3.8490   25.8680 C   0  0  0  0  0  0  0  0  0  0  0  0
    7.6890   -4.0290   27.3630 S   0  0  0  0  0  0  0  0  0  0  0  0
    8.4630   -5.6000   27.4330 C   0  0  0  0  0  0  0  0  0  0  0  0
    9.3080   -6.0160   26.4250 C   0  0  0  0  0  0  0  0  0  0  0  0
   13.5170   -1.5490   21.1720 Cl  0  0  0  0  0  0  0  0  0  0  0  0
   10.3880   -0.4410   24.1880 C   0  0  0  0  0  0  0  0  0  0  0  0
   11.4590    0.4490   23.9100 C   0  0  0  0  0  0  0  0  0  0  0  0
   12.4330    0.0980   22.9820 C   0  0  0  0  0  0  0  0  0  0  0  0
   12.3750   -1.1290   22.3070 C   0  0  0  0  0  0  0  0  0  0  0  0
   11.3690   -2.0020   22.5630 C   0  0  0  0  0  0  0  0  0  0  0  0
   10.3040   -1.6700   23.5540 C   0  0  0  0  0  0  0  0  0  0  0  0
    9.2730   -0.2020   25.1410 C   0  0  0  0  0  0  0  0  0  0  0  0
  1  3  1  0
  2  3  2  0
  4  5  2  3
  3  6  1  0
  6  7  1  0
  7  8  1  0
  5  9  1  0
  8  9  1  0
  9 10  1  0
  6 11  1  0
 10 11  1  0
  5 13  1  0
 12 13  2  0
 13 14  1  0
 14 15  1  0
 12 16  1  0
 15 16  2  0
 18 19  2  0
 19 20  1  0
 17 21  1  0
 20 21  2  0
 21 22  1  0
 18 23  1  0
 22 23  2  0
  4 24  1  0
 18 24  1  0
M  END
