x1418-x0692
     RDKit          3D

 17 18  0  0  0  0  0  0  0  0999 V2000
   10.6910    2.0600   23.9640 C   0  0  0  0  0  0  0  0  0  0  0  0
    5.4150   -4.1100   19.7420 O   0  0  0  0  0  0  0  0  0  0  0  0
    9.3110   -2.2940   23.9860 C   0  0  0  0  0  0  0  0  0  0  0  0
    6.2850   -3.2280   19.8530 C   0  0  0  0  0  0  0  0  0  0  0  0
    7.2300   -2.9940   18.7070 C   0  0  0  0  0  0  0  0  0  0  0  0
   11.5560    0.8590   23.5730 C   0  0  0  0  0  0  0  0  0  0  0  0
   10.3280    0.0480   23.8920 C   0  0  0  0  0  0  0  0  0  0  0  0
   10.4280   -1.3210   23.7210 C   0  0  0  0  0  0  0  0  0  0  0  0
   11.6950   -1.7590   23.2670 C   0  0  0  0  0  0  0  0  0  0  0  0
   12.8380   -0.9720   22.9740 C   0  0  0  0  0  0  0  0  0  0  0  0
   12.7770    0.4250   23.1340 C   0  0  0  0  0  0  0  0  0  0  0  0
    6.4870   -2.4500   20.9870 N   0  0  0  0  0  0  0  0  0  0  0  0
    7.4180   -1.3080   21.1620 C   0  0  0  0  0  0  0  0  0  0  0  0
    8.6130   -1.7570   21.7240 C   0  0  0  0  0  0  0  0  0  0  0  0
    8.3510   -2.4170   23.0110 N   0  0  0  0  0  0  0  0  0  0  0  0
    7.3540   -3.4980   22.9280 C   0  0  0  0  0  0  0  0  0  0  0  0
    6.0850   -2.9720   22.2130 C   0  0  0  0  0  0  0  0  0  0  0  0
  2  4  2  0
  4  5  1  0
  1  6  1  0
  6  7  2  0
  3  8  1  0
  7  8  1  0
  8  9  2  0
  9 10  1  0
  6 11  1  0
 10 11  2  0
  4 12  1  0
 12 13  1  0
 13 14  1  0
  3 15  1  0
 14 15  1  0
 15 16  1  0
 12 17  1  0
 16 17  1  0
M  END
