x1412-x2562
     RDKit          3D

 38 42  0  0  0  0  0  0  0  0999 V2000
    7.9270   -0.7730   21.3330 C   0  0  1  0  0  0  0  0  0  0  0  0
    7.4640    0.2460   21.8680 O   0  0  0  0  0  0  0  0  0  0  0  0
    7.3530   -0.9430   20.0320 C   0  0  0  0  0  0  0  0  0  0  0  0
   11.8530    2.8590   23.3460 O   0  0  0  0  0  0  0  0  0  0  0  0
    9.3110   -1.0380   21.3620 N   0  0  0  0  0  0  0  0  0  0  0  0
   13.4520    6.7260   22.1140 O   0  0  0  0  0  0  0  0  0  0  0  0
    7.4140   -2.9490   18.9280 C   0  0  0  0  0  0  0  0  0  0  0  0
    5.5500   -4.1000   19.8050 O   0  0  0  0  0  0  0  0  0  0  0  0
    6.5210   -3.3480   20.1020 C   0  0  0  0  0  0  0  0  0  0  0  0
    8.0470   -1.8090   25.2600 O   0  0  0  0  0  0  0  0  0  0  0  0
    8.2700   -2.9800   24.9280 C   0  0  0  0  0  0  0  0  0  0  0  0
    4.3520    1.3710   19.5670 N   0  0  0  0  0  0  0  0  0  0  0  0
    4.8130    1.7520   18.2380 C   0  0  0  0  0  0  0  0  0  0  0  0
    6.0120    1.2970   17.5500 N   0  0  0  0  0  0  0  0  0  0  0  0
    6.7970    0.3950   18.2910 C   0  0  0  0  0  0  0  0  0  0  0  0
    6.3860    0.0230   19.5050 C   0  0  0  0  0  0  0  0  0  0  0  0
    5.2330    0.4690   20.1380 C   0  0  0  0  0  0  0  0  0  0  0  0
   12.4470    4.6300   21.8600 N   0  0  0  0  0  0  0  0  0  0  0  0
   12.5850    5.7450   22.6120 C   0  0  1  0  0  0  0  0  0  0  0  0
   13.1980    4.8700   23.4380 C   0  0  0  0  0  0  0  0  0  0  0  0
   12.9100    3.6650   22.7690 C   0  0  1  0  0  0  0  0  0  0  0  0
   11.5890   -1.1840   22.0980 C   0  0  0  0  0  0  0  0  0  0  0  0
   12.7580   -0.6430   22.6160 C   0  0  0  0  0  0  0  0  0  0  0  0
   12.8950    0.6730   23.0310 C   0  0  0  0  0  0  0  0  0  0  0  0
   11.8140    1.5340   22.9570 C   0  0  0  0  0  0  0  0  0  0  0  0
   10.5230    0.9270   22.3940 C   0  0  0  0  0  0  0  0  0  0  0  0
   10.4250   -0.3940   21.9590 C   0  0  0  0  0  0  0  0  0  0  0  0
    6.7300   -3.0070   21.4940 N   0  0  0  0  0  0  0  0  0  0  0  0
    7.4770   -1.9540   22.0910 C   0  0  1  0  0  0  0  0  0  0  0  0
    8.7470   -2.5660   22.5370 C   0  0  0  0  0  0  0  0  0  0  0  0
    8.3200   -3.3960   23.6140 N   0  0  0  0  0  0  0  0  0  0  0  0
    7.5390   -4.4150   23.2530 C   0  0  0  0  0  0  0  0  0  0  0  0
    6.5260   -3.9820   22.3910 C   0  0  0  0  0  0  0  0  0  0  0  0
    9.3730   -5.2580   25.5820 C   0  0  0  0  0  0  0  0  0  0  0  0
    8.5080   -4.0460   25.8260 C   0  0  0  0  0  0  0  0  0  0  0  0
    7.7940   -4.0950   27.3880 S   0  0  0  0  0  0  0  0  0  0  0  0
    8.5550   -5.5930   27.7280 C   0  0  0  0  0  0  0  0  0  0  0  0
    9.3580   -6.0970   26.6960 C   0  0  0  0  0  0  0  0  0  0  0  0
  1  2  1  1
  1  3  1  0
  1  5  1  0
  7  9  1  0
  8  9  2  0
 10 11  2  0
 12 13  2  0
 13 14  1  0
 14 15  2  0
  3 16  1  0
 15 16  1  0
 12 17  1  0
 16 17  2  0
 19  6  1  6
 18 19  1  0
 19 20  1  0
 21  4  1  1
 18 21  1  0
 20 21  1  0
 22 23  2  0
 23 24  1  0
  4 25  1  0
 24 25  2  0
 25 26  1  0
  5 27  1  0
 22 27  1  0
 26 27  2  0
  9 28  1  0
  1 29  1  0
 28 29  1  0
 29 30  1  6
 11 31  1  0
 30 31  1  0
 31 32  1  0
 28 33  1  0
 32 33  1  0
 11 35  1  0
 34 35  2  0
 35 36  1  0
 36 37  1  0
 34 38  1  0
 37 38  2  0
M  END
