x1412-x0967
     RDKit          3D

 36 38  0  0  0  0  0  0  0  0999 V2000
    7.6320    4.3580   22.2540 C   0  0  0  0  0  0  0  0  0  0  0  0
    7.8830    2.0760   23.3090 N   0  0  0  0  0  0  0  0  0  0  0  0
    5.8630    3.2650   23.3970 O   0  0  0  0  0  0  0  0  0  0  0  0
    7.0220    3.2140   23.0180 C   0  0  0  0  0  0  0  0  0  0  0  0
    8.9750   -1.0260   21.4030 N   0  0  0  0  0  0  0  0  0  0  0  0
    5.7970    1.0380   16.9460 O   0  0  0  0  0  0  0  0  0  0  0  0
    7.7390    0.6260   23.0850 C   0  0  1  0  0  0  0  0  0  0  0  0
    9.5230    1.1180   21.6970 O   0  0  0  0  0  0  0  0  0  0  0  0
    6.3650    0.2230   22.5640 C   0  0  0  0  0  0  0  0  0  0  0  0
    8.7580    0.2150   22.0210 C   0  0  0  0  0  0  0  0  0  0  0  0
   10.4010   -1.2040   21.7310 C   0  0  0  0  0  0  0  0  0  0  0  0
   10.4520   -1.8660   23.0820 C   0  0  0  0  0  0  0  0  0  0  0  0
   11.7350   -2.0740   23.5420 C   0  0  0  0  0  0  0  0  0  0  0  0
   13.4320   -2.3870   24.2870 Br  0  0  0  0  0  0  0  0  0  0  0  0
    7.4900   -2.9620   18.7230 C   0  0  0  0  0  0  0  0  0  0  0  0
    5.6790   -4.0840   19.7750 O   0  0  0  0  0  0  0  0  0  0  0  0
    6.6260   -3.2670   19.9410 C   0  0  0  0  0  0  0  0  0  0  0  0
    8.0170   -1.4060   25.5850 O   0  0  0  0  0  0  0  0  0  0  0  0
    8.0650   -2.5550   25.1520 C   0  0  0  0  0  0  0  0  0  0  0  0
    6.2090    0.4410   21.1040 C   0  0  0  0  0  0  0  0  0  0  0  0
    6.9330   -0.2500   20.1340 C   0  0  0  0  0  0  0  0  0  0  0  0
    6.7920   -0.0520   18.8080 C   0  0  0  0  0  0  0  0  0  0  0  0
    5.9220    0.8500   18.2560 C   0  0  0  0  0  0  0  0  0  0  0  0
    5.1460    1.5940   19.1320 C   0  0  0  0  0  0  0  0  0  0  0  0
    5.2720    1.4030   20.6610 C   0  0  0  0  0  0  0  0  0  0  0  0
    6.8890   -2.6630   21.2100 N   0  0  0  0  0  0  0  0  0  0  0  0
    8.2820   -2.3360   21.5620 C   0  0  2  0  0  0  0  0  0  0  0  0
    8.7350   -2.7510   22.9440 C   0  0  0  0  0  0  0  0  0  0  0  0
    7.8180   -2.7900   23.8530 N   0  0  0  0  0  0  0  0  0  0  0  0
    6.7980   -3.5700   23.5030 C   0  0  0  0  0  0  0  0  0  0  0  0
    6.1560   -3.1300   22.2280 C   0  0  0  0  0  0  0  0  0  0  0  0
    9.3930   -4.7930   25.5860 C   0  0  0  0  0  0  0  0  0  0  0  0
    8.3830   -3.7490   25.9710 C   0  0  0  0  0  0  0  0  0  0  0  0
    7.6620   -4.1610   27.4700 S   0  0  0  0  0  0  0  0  0  0  0  0
    8.6070   -5.5920   27.5800 C   0  0  0  0  0  0  0  0  0  0  0  0
    9.4980   -5.8400   26.5230 C   0  0  0  0  0  0  0  0  0  0  0  0
  1  4  1  0
  2  4  1  0
  3  4  2  0
  2  7  1  0
  7  9  1  6
  5 10  1  0
  7 10  1  0
  8 10  2  0
  5 11  1  0
 11 12  1  0
 12 13  3  0
 13 14  1  0
 15 17  1  0
 16 17  2  0
 18 19  2  0
  9 20  1  0
 20 21  2  0
 21 22  1  0
  6 23  1  0
 22 23  2  0
 23 24  1  0
 20 25  1  0
 24 25  2  0
 17 26  1  0
 27  5  1  1
 26 27  1  0
 27 28  1  0
 19 29  1  0
 28 29  1  0
 29 30  1  0
 26 31  1  0
 30 31  1  0
 19 33  1  0
 32 33  2  0
 33 34  1  0
 34 35  1  0
 32 36  1  0
 35 36  2  0
M  END
