x1418-x2646
     RDKit          3D

 28 31  0  0  0  0  0  0  0  0999 V2000
    4.2260    1.2960   21.6170 C   0  0  0  0  0  0  0  0  0  0  0  0
    6.1220    0.4990   18.2380 N   0  0  0  0  0  0  0  0  0  0  0  0
    7.0840   -0.2680   18.9860 C   0  0  0  0  0  0  0  0  0  0  0  0
    6.1810    0.1710   20.2140 C   0  0  0  0  0  0  0  0  0  0  0  0
    4.8580    1.0650   20.2890 C   0  0  0  0  0  0  0  0  0  0  0  0
    4.3080    1.6160   19.1340 C   0  0  0  0  0  0  0  0  0  0  0  0
    5.0580    1.2790   17.9290 C   0  0  0  0  0  0  0  0  0  0  0  0
    7.1380    0.8150   22.1010 O   0  0  0  0  0  0  0  0  0  0  0  0
   13.2240   -2.0240   21.2500 Cl  0  0  0  0  0  0  0  0  0  0  0  0
    7.5870   -0.4800   22.1690 C   0  0  0  0  0  0  0  0  0  0  0  0
    8.3260   -0.9720   23.2360 C   0  0  2  0  0  0  0  0  0  0  0  0
    7.2890   -2.9920   18.7400 C   0  0  0  0  0  0  0  0  0  0  0  0
    5.5050   -4.1580   19.7900 O   0  0  0  0  0  0  0  0  0  0  0  0
    6.3230   -3.2200   19.9290 C   0  0  0  0  0  0  0  0  0  0  0  0
    9.5380   -3.0920   23.6560 C   0  0  0  0  0  0  0  0  0  0  0  0
   10.2850    0.5130   23.9010 C   0  0  0  0  0  0  0  0  0  0  0  0
   11.7690    0.9010   23.8440 C   0  0  0  0  0  0  0  0  0  0  0  0
   12.7950    0.1260   23.0100 C   0  0  0  0  0  0  0  0  0  0  0  0
   12.2560   -1.0470   22.2370 C   0  0  0  0  0  0  0  0  0  0  0  0
   10.7810   -1.3610   22.3410 C   0  0  0  0  0  0  0  0  0  0  0  0
    9.7830   -0.5740   23.1840 C   0  0  0  0  0  0  0  0  0  0  0  0
    6.3850   -2.3880   21.1190 N   0  0  0  0  0  0  0  0  0  0  0  0
    6.1160   -3.1490   22.3720 C   0  0  0  0  0  0  0  0  0  0  0  0
    7.1320   -3.0590   23.3940 C   0  0  0  0  0  0  0  0  0  0  0  0
    8.3390   -2.4700   22.9530 C   0  0  1  0  0  0  0  0  0  0  0  0
    8.4400   -2.5730   21.5780 C   0  0  0  0  0  0  0  0  0  0  0  0
    7.5460   -1.6110   21.1900 C   0  0  2  0  0  0  0  0  0  0  0  0
    7.8780   -0.9550   20.0850 C   0  0  0  0  0  0  0  0  0  0  0  0
  2  3  2  0
  3  4  1  0
  1  5  1  0
  4  5  2  0
  5  6  1  0
  2  7  1  0
  6  7  2  0
  8 10  2  0
 10 11  1  0
 12 14  1  0
 13 14  2  0
 16 17  2  0
 17 18  1  0
  9 19  1  0
 18 19  2  0
 19 20  1  0
 11 21  1  6
 16 21  1  0
 20 21  2  0
 14 22  1  0
 22 23  1  0
 23 24  1  0
 11 25  1  0
 25 15  1  1
 24 25  1  0
 25 26  1  0
 10 27  1  0
 22 27  1  0
 26 27  1  0
  3 28  1  0
 27 28  1  6
M  END
