x1412-x0759
     RDKit          3D

 23 25  0  0  0  0  0  0  0  0999 V2000
    7.2960   -3.0150   18.9680 C   0  0  0  0  0  0  0  0  0  0  0  0
    5.2070   -4.0760   19.6430 O   0  0  0  0  0  0  0  0  0  0  0  0
    6.2310   -3.4820   19.9340 C   0  0  0  0  0  0  0  0  0  0  0  0
    8.3730   -1.5320   25.3320 O   0  0  0  0  0  0  0  0  0  0  0  0
    8.3140   -2.6810   24.9010 C   0  0  0  0  0  0  0  0  0  0  0  0
   13.0290    1.0550   23.5790 F   0  0  0  0  0  0  0  0  0  0  0  0
    6.7390   -3.1100   21.1430 N   0  0  0  0  0  0  0  0  0  0  0  0
    7.6980   -1.9850   21.4470 C   0  0  0  0  0  0  0  0  0  0  0  0
    8.7770   -2.5330   22.4170 C   0  0  2  0  0  0  0  0  0  0  0  0
    7.9640   -3.0010   23.5130 N   0  0  0  0  0  0  0  0  0  0  0  0
    7.2210   -4.2040   23.3290 C   0  0  0  0  0  0  0  0  0  0  0  0
    6.1980   -3.8840   22.2540 C   0  0  0  0  0  0  0  0  0  0  0  0
    9.3910   -4.9970   25.3790 C   0  0  0  0  0  0  0  0  0  0  0  0
    8.5610   -3.8920   25.7360 C   0  0  0  0  0  0  0  0  0  0  0  0
    7.7790   -3.9950   27.3060 S   0  0  0  0  0  0  0  0  0  0  0  0
    8.5650   -5.5370   27.5080 C   0  0  0  0  0  0  0  0  0  0  0  0
    9.4340   -5.9990   26.3820 C   0  0  0  0  0  0  0  0  0  0  0  0
    9.5970   -0.4740   23.7390 C   0  0  0  0  0  0  0  0  0  0  0  0
   10.7330    0.5320   24.0930 C   0  0  0  0  0  0  0  0  0  0  0  0
   12.0180    0.2580   23.3620 C   0  0  0  0  0  0  0  0  0  0  0  0
   12.2130   -0.7780   22.4620 C   0  0  0  0  0  0  0  0  0  0  0  0
   11.1000   -1.7460   22.1310 C   0  0  0  0  0  0  0  0  0  0  0  0
    9.8060   -1.5100   22.8290 C   0  0  0  0  0  0  0  0  0  0  0  0
  1  3  1  0
  2  3  2  0
  4  5  2  0
  3  7  1  0
  7  8  1  0
  8  9  1  0
  5 10  1  0
  9 10  1  0
 10 11  1  0
  7 12  1  0
 11 12  1  0
  5 14  1  0
 13 14  2  0
 14 15  1  0
 15 16  1  0
 13 17  1  0
 16 17  2  0
 18 19  2  0
  6 20  1  0
 19 20  1  0
 20 21  2  0
 21 22  1  0
  9 23  1  1
 18 23  1  0
 22 23  2  0
M  END
