x1418-x0540
     RDKit          3D

 34 37  0  0  0  0  0  0  0  0999 V2000
    3.1020    1.4170   24.3560 O   0  0  0  0  0  0  0  0  0  0  0  0
    3.0610    2.1790   23.3820 C   0  0  0  0  0  0  0  0  0  0  0  0
    3.9460    2.1500   22.2560 N   0  0  0  0  0  0  0  0  0  0  0  0
    5.3030    1.5200   22.5120 C   0  0  0  0  0  0  0  0  0  0  0  0
    5.4800   -0.0260   22.6150 C   0  0  0  0  0  0  0  0  0  0  0  0
    2.1150    3.2020   23.2110 N   0  0  0  0  0  0  0  0  0  0  0  0
    7.2840   -3.0030   18.7240 C   0  0  0  0  0  0  0  0  0  0  0  0
    5.4230   -4.1170   19.7240 O   0  0  0  0  0  0  0  0  0  0  0  0
    6.3740   -3.3360   19.8770 C   0  0  0  0  0  0  0  0  0  0  0  0
    9.9810   -2.6040   23.2210 C   0  0  0  0  0  0  0  0  0  0  0  0
    5.8590   -0.7830   21.3170 C   0  0  1  0  0  0  0  0  0  0  0  0
    5.6610   -0.0610   20.1520 C   0  0  0  0  0  0  0  0  0  0  0  0
    6.5000   -0.0790   19.0480 C   0  0  0  0  0  0  0  0  0  0  0  0
    6.3350    0.6100   17.8880 N   0  0  0  0  0  0  0  0  0  0  0  0
    5.2270    1.3740   17.8810 C   0  0  0  0  0  0  0  0  0  0  0  0
    4.3120    1.4700   18.9310 C   0  0  0  0  0  0  0  0  0  0  0  0
    4.5260    0.7380   20.0900 C   0  0  0  0  0  0  0  0  0  0  0  0
    0.7540    4.6510   24.4470 C   0  0  0  0  0  0  0  0  0  0  0  0
   -0.5440    4.9270   25.2440 C   0  0  0  0  0  0  0  0  0  0  0  0
   -1.6730    4.6880   24.2560 C   0  0  0  0  0  0  0  0  0  0  0  0
   -1.6700    3.2600   23.6970 C   0  0  0  0  0  0  0  0  0  0  0  0
   -0.3110    2.6680   23.3150 C   0  0  0  0  0  0  0  0  0  0  0  0
    0.8880    3.3250   24.0240 C   0  0  0  0  0  0  0  0  0  0  0  0
    6.7010   -2.7560   21.1060 N   0  0  0  0  0  0  0  0  0  0  0  0
    6.8000   -3.5110   22.2010 C   0  0  0  0  0  0  0  0  0  0  0  0
    7.8560   -3.3120   23.0960 C   0  0  0  0  0  0  0  0  0  0  0  0
    8.5900   -2.1820   23.0410 N   0  0  0  0  0  0  0  0  0  0  0  0
    8.3750   -1.3180   22.0010 C   0  0  0  0  0  0  0  0  0  0  0  0
    7.1880   -1.5090   21.2330 C   0  0  2  0  0  0  0  0  0  0  0  0
   12.3050   -1.5730   22.9300 C   0  0  0  0  0  0  0  0  0  0  0  0
   10.9340   -1.4570   23.1670 C   0  0  0  0  0  0  0  0  0  0  0  0
   10.4380    0.1700   23.3870 S   0  0  0  0  0  0  0  0  0  0  0  0
   12.0820    0.7050   23.1680 C   0  0  0  0  0  0  0  0  0  0  0  0
   12.9760   -0.3150   22.9280 C   0  0  0  0  0  0  0  0  0  0  0  0
  1  2  2  0
  2  3  1  0
  3  4  1  0
  4  5  1  0
  2  6  1  0
  7  9  1  0
  8  9  2  0
 11  5  1  1
 11 12  1  0
 12 13  2  0
 13 14  1  0
 14 15  2  0
 15 16  1  0
 12 17  1  0
 16 17  2  0
 18 19  1  0
 19 20  1  0
 20 21  1  0
 21 22  1  0
  6 23  1  0
 18 23  1  0
 22 23  1  0
  9 24  1  0
 24 25  1  0
 25 26  1  0
 10 27  1  0
 26 27  1  0
 27 28  1  0
 11 29  1  0
 24 29  1  0
 29 28  1  1
 10 31  1  0
 30 31  2  0
 31 32  1  0
 32 33  1  0
 30 34  1  0
 33 34  2  0
M  END
