x1412-x0678
     RDKit          3D

 32 36  0  0  0  0  0  0  0  0999 V2000
    7.4010   -3.0420   18.7430 C   0  0  0  0  0  0  0  0  0  0  0  0
    5.4960   -4.0740   19.7390 O   0  0  0  0  0  0  0  0  0  0  0  0
    6.4760   -3.3230   19.9090 C   0  0  0  0  0  0  0  0  0  0  0  0
    8.3740   -1.3630   25.2010 O   0  0  0  0  0  0  0  0  0  0  0  0
    8.4320   -2.5130   24.8160 C   0  0  0  0  0  0  0  0  0  0  0  0
    9.1660    1.2740   21.4040 O   0  0  0  0  0  0  0  0  0  0  0  0
    8.6000    0.2160   21.7240 C   0  0  0  0  0  0  0  0  0  0  0  0
    9.2360   -0.5560   22.8530 C   0  0  1  0  0  0  0  0  0  0  0  0
    7.5460   -0.4080   21.2940 N   0  0  0  0  0  0  0  0  0  0  0  0
    6.7910   -2.7510   21.1690 N   0  0  0  0  0  0  0  0  0  0  0  0
    7.9220   -1.7690   21.2280 C   0  0  2  0  0  0  0  0  0  0  0  0
    8.9270   -2.0080   22.3750 C   0  0  2  0  0  0  0  0  0  0  0  0
    8.3140   -2.8200   23.4680 N   0  0  0  0  0  0  0  0  0  0  0  0
    7.6460   -3.9340   23.0080 C   0  0  0  0  0  0  0  0  0  0  0  0
    6.5580   -3.5190   22.2880 C   0  0  0  0  0  0  0  0  0  0  0  0
    9.4350   -4.7070   25.4640 C   0  0  0  0  0  0  0  0  0  0  0  0
    8.5970   -3.6410   25.7300 C   0  0  0  0  0  0  0  0  0  0  0  0
    7.8190   -3.9150   27.2680 S   0  0  0  0  0  0  0  0  0  0  0  0
    8.6400   -5.7110   27.7680 C   0  0  0  0  0  0  0  0  0  0  0  0
    9.4220   -5.7840   26.5730 C   0  0  0  0  0  0  0  0  0  0  0  0
   11.5390   -0.9720   22.2750 C   0  0  0  0  0  0  0  0  0  0  0  0
   12.3480   -1.9920   22.7560 C   0  0  0  0  0  0  0  0  0  0  0  0
   13.2370   -1.4060   23.6520 C   0  0  0  0  0  0  0  0  0  0  0  0
   12.5130   -0.5260   24.6780 C   0  0  0  0  0  0  0  0  0  0  0  0
   11.1420   -0.5420   24.5780 C   0  0  0  0  0  0  0  0  0  0  0  0
   10.6720   -0.3070   23.1410 C   0  0  0  0  0  0  0  0  0  0  0  0
    5.6510    1.0100   20.4830 C   0  0  0  0  0  0  0  0  0  0  0  0
    4.9050    1.5720   19.3070 C   0  0  0  0  0  0  0  0  0  0  0  0
    5.3620    1.2370   18.0400 C   0  0  0  0  0  0  0  0  0  0  0  0
    6.4060    0.4540   17.7620 N   0  0  0  0  0  0  0  0  0  0  0  0
    7.0800   -0.0580   18.7920 C   0  0  0  0  0  0  0  0  0  0  0  0
    6.7500    0.1890   20.2540 C   0  0  0  0  0  0  0  0  0  0  0  0
  1  3  1  0
  2  3  2  0
  4  5  2  0
  6  7  2  0
  7  8  1  0
  7  9  1  0
  3 10  1  0
 11  9  1  1
 10 11  1  0
  8 12  1  0
 11 12  1  0
  5 13  1  0
 12 13  1  1
 13 14  1  0
 10 15  1  0
 14 15  1  0
  5 17  1  0
 16 17  2  0
 17 18  1  0
 18 19  1  0
 16 20  1  0
 19 20  2  0
 21 22  1  0
 22 23  1  0
 23 24  1  0
 24 25  1  0
  8 26  1  6
 21 26  1  0
 25 26  1  0
 27 28  2  0
 28 29  1  0
 29 30  2  0
 30 31  1  0
  9 32  1  0
 27 32  1  0
 31 32  2  0
M  END
