x1418-x0395
     RDKit          3D

 22 25  0  0  0  0  0  0  0  0999 V2000
    7.4590   -2.9830   18.6820 C   0  0  0  0  0  0  0  0  0  0  0  0
    5.4860   -3.9550   19.6370 O   0  0  0  0  0  0  0  0  0  0  0  0
    6.4730   -3.2210   19.8170 C   0  0  0  0  0  0  0  0  0  0  0  0
   10.3030   -2.5580   23.1890 C   0  0  1  0  0  0  0  0  0  0  0  0
   12.9430   -1.9540   21.7280 F   0  0  0  0  0  0  0  0  0  0  0  0
    8.9580   -5.5710   27.2050 C   0  0  0  0  0  0  0  0  0  0  0  0
    6.6980   -2.6540   21.0640 N   0  0  0  0  0  0  0  0  0  0  0  0
    6.7910   -3.4430   21.8950 C   0  0  0  0  0  0  0  0  0  0  0  0
    8.2710   -3.6200   22.1630 C   0  0  0  0  0  0  0  0  0  0  0  0
    8.8050   -2.5660   22.8080 C   0  0  0  0  0  0  0  0  0  0  0  0
    8.3320   -1.3430   22.3590 C   0  0  0  0  0  0  0  0  0  0  0  0
    7.5440   -1.4190   21.1930 C   0  0  0  0  0  0  0  0  0  0  0  0
   12.3530   -1.1090   22.5790 C   0  0  0  0  0  0  0  0  0  0  0  0
   11.1170   -1.3720   23.2740 C   0  0  0  0  0  0  0  0  0  0  0  0
   10.5630   -0.1120   24.3340 S   0  0  0  0  0  0  0  0  0  0  0  0
   11.9780    0.7940   23.8460 C   0  0  0  0  0  0  0  0  0  0  0  0
   12.9080    0.1590   22.8830 C   0  0  0  0  0  0  0  0  0  0  0  0
    8.9220   -4.4570   26.1980 C   0  0  0  0  0  0  0  0  0  0  0  0
    8.5440   -3.1570   26.4170 N   0  0  0  0  0  0  0  0  0  0  0  0
    8.6620   -2.3420   25.3020 N   0  0  0  0  0  0  0  0  0  0  0  0
    9.2290   -3.0110   24.2420 C   0  0  2  0  0  0  0  0  0  0  0  0
    9.3820   -4.7640   24.6220 S   0  0  0  0  0  0  0  0  0  0  0  0
  1  3  1  0
  2  3  2  0
  3  7  1  0
  7  8  1  0
  8  9  1  0
  4 10  1  0
 10  9  1  0
 10 11  1  0
  7 12  1  0
 11 12  1  0
  5 13  1  0
  4 14  1  1
 13 14  2  0
 14 15  1  0
 15 16  1  0
 13 17  1  0
 16 17  2  0
  6 18  1  0
 18 19  2  0
 19 20  1  0
  4 21  1  0
 10 21  1  0
 21 20  1  1
 18 22  1  0
 21 22  1  0
M  END
