x1418-x2964
     RDKit          3D

 28 31  0  0  0  0  0  0  0  0999 V2000
    3.2380    2.7520   18.8810 N   0  0  0  0  0  0  0  0  0  0  0  0
    4.3110    1.7630   19.0630 C   0  0  0  0  0  0  0  0  0  0  0  0
    4.5500    1.0420   20.3940 C   0  0  0  0  0  0  0  0  0  0  0  0
    5.6760    0.0420   20.4030 C   0  0  0  0  0  0  0  0  0  0  0  0
    6.4870   -0.1830   19.1270 C   0  0  0  0  0  0  0  0  0  0  0  0
    6.2850    0.4790   17.9170 N   0  0  0  0  0  0  0  0  0  0  0  0
    5.2120    1.4380   17.8810 C   0  0  0  0  0  0  0  0  0  0  0  0
    7.7530    0.9510   21.4540 O   0  0  0  0  0  0  0  0  0  0  0  0
   13.4420   -1.8400   21.1890 Cl  0  0  0  0  0  0  0  0  0  0  0  0
    8.7420   -0.8060   22.9660 N   0  0  0  0  0  0  0  0  0  0  0  0
    8.0380   -0.3580   21.7680 C   0  0  0  0  0  0  0  0  0  0  0  0
    7.4230   -3.0310   18.6790 C   0  0  0  0  0  0  0  0  0  0  0  0
    5.6220   -4.1520   19.7950 O   0  0  0  0  0  0  0  0  0  0  0  0
    6.4840   -3.2420   19.8820 C   0  0  0  0  0  0  0  0  0  0  0  0
   10.0070   -2.7590   23.3700 C   0  0  0  0  0  0  0  0  0  0  0  0
   10.5560    0.6680   23.7190 C   0  0  0  0  0  0  0  0  0  0  0  0
   11.9280    1.0080   23.6880 C   0  0  0  0  0  0  0  0  0  0  0  0
   12.8680    0.2880   22.9470 C   0  0  0  0  0  0  0  0  0  0  0  0
   12.4370   -0.9060   22.1340 C   0  0  0  0  0  0  0  0  0  0  0  0
   10.9950   -1.2280   22.1880 C   0  0  0  0  0  0  0  0  0  0  0  0
   10.0460   -0.4170   23.0020 C   0  0  0  0  0  0  0  0  0  0  0  0
    6.6760   -2.3710   21.0160 N   0  0  0  0  0  0  0  0  0  0  0  0
    6.3240   -2.7450   22.4210 C   0  0  0  0  0  0  0  0  0  0  0  0
    7.5600   -2.8890   23.3130 C   0  0  0  0  0  0  0  0  0  0  0  0
    8.7580   -2.1040   22.7520 C   0  0  1  0  0  0  0  0  0  0  0  0
    8.8150   -2.3140   21.4080 C   0  0  0  0  0  0  0  0  0  0  0  0
    7.7340   -1.5730   20.8210 C   0  0  2  0  0  0  0  0  0  0  0  0
    7.4900   -1.2370   19.4470 C   0  0  0  0  0  0  0  0  0  0  0  0
  1  2  1  0
  2  3  2  0
  3  4  1  0
  4  5  2  0
  5  6  1  0
  2  7  1  0
  6  7  2  0
  8 11  2  0
 10 11  1  0
 12 14  1  0
 13 14  2  0
 16 17  2  0
 17 18  1  0
  9 19  1  0
 18 19  2  0
 19 20  1  0
 10 21  1  0
 16 21  1  0
 20 21  2  0
 14 22  1  0
 22 23  1  0
 23 24  1  0
 10 25  1  0
 25 15  1  1
 24 25  1  0
 25 26  1  0
 11 27  1  0
 22 27  1  0
 26 27  1  0
  5 28  1  0
 27 28  1  6
M  END
