x1418-x0104
     RDKit          3D

 26 28  0  0  0  0  0  0  0  0999 V2000
    9.0530    6.4890   22.6140 C   0  0  0  0  0  0  0  0  0  0  0  0
   10.3410    6.1340   23.4200 C   0  0  0  0  0  0  0  0  0  0  0  0
   10.4160    6.3010   24.6350 O   0  0  0  0  0  0  0  0  0  0  0  0
   11.3640    5.6240   22.6580 N   0  0  0  0  0  0  0  0  0  0  0  0
   12.4440    4.9640   23.2550 C   0  0  0  0  0  0  0  0  0  0  0  0
   12.6670    3.5440   22.6820 C   0  0  0  0  0  0  0  0  0  0  0  0
   13.7230   -1.8510   21.8430 F   0  0  0  0  0  0  0  0  0  0  0  0
    7.3300   -2.9900   18.7090 C   0  0  0  0  0  0  0  0  0  0  0  0
    5.4320   -4.0490   19.6930 O   0  0  0  0  0  0  0  0  0  0  0  0
    6.3610   -3.2370   19.8370 C   0  0  0  0  0  0  0  0  0  0  0  0
    9.3660   -1.8640   24.0790 C   0  0  0  0  0  0  0  0  0  0  0  0
   11.6450    2.4890   23.2010 C   0  0  0  0  0  0  0  0  0  0  0  0
   10.4840    2.8880   23.8220 C   0  0  0  0  0  0  0  0  0  0  0  0
    9.6520    1.7820   24.2020 N   0  0  0  0  0  0  0  0  0  0  0  0
   10.4350    0.6600   23.7290 C   0  0  0  0  0  0  0  0  0  0  0  0
   11.6810    1.0710   23.1250 C   0  0  0  0  0  0  0  0  0  0  0  0
   10.4250   -1.1220   23.6060 C   0  0  0  0  0  0  0  0  0  0  0  0
   11.6040   -1.7820   22.9500 C   0  0  0  0  0  0  0  0  0  0  0  0
   12.7870   -1.1560   22.3980 C   0  0  0  0  0  0  0  0  0  0  0  0
   12.8070    0.2730   22.5150 C   0  0  0  0  0  0  0  0  0  0  0  0
    6.5760   -2.5690   21.0290 N   0  0  0  0  0  0  0  0  0  0  0  0
    6.3140   -3.1970   22.3500 C   0  0  0  0  0  0  0  0  0  0  0  0
    7.5680   -3.2470   23.2170 C   0  0  0  0  0  0  0  0  0  0  0  0
    8.3410   -1.9730   23.1530 N   0  0  0  0  0  0  0  0  0  0  0  0
    8.6720   -1.5920   21.8920 C   0  0  0  0  0  0  0  0  0  0  0  0
    7.5930   -1.5180   21.0220 C   0  0  0  0  0  0  0  0  0  0  0  0
  1  2  1  0
  2  3  2  0
  2  4  1  0
  4  5  1  0
  5  6  1  0
  8 10  1  0
  9 10  2  0
  6 12  1  0
 12 13  2  0
 13 14  1  0
 14 15  1  0
 12 16  1  0
 15 16  2  0
 11 17  1  0
 15 17  1  0
 17 18  2  0
  7 19  1  0
 18 19  1  0
 16 20  1  0
 19 20  2  0
 10 21  1  0
 21 22  1  0
 22 23  1  0
 11 24  1  0
 23 24  1  0
 24 25  1  0
 21 26  1  0
 25 26  1  0
M  END
