x1412-x1418
     RDKit          3D

 22 24  0  0  0  0  0  0  0  0999 V2000
    7.4500   -2.9840   18.7490 C   0  0  0  0  0  0  0  0  0  0  0  0
    5.5740   -4.0620   19.7360 O   0  0  0  0  0  0  0  0  0  0  0  0
    6.4940   -3.2320   19.8900 C   0  0  0  0  0  0  0  0  0  0  0  0
    8.5550   -1.9760   25.1710 O   0  0  0  0  0  0  0  0  0  0  0  0
    8.2260   -3.0770   24.7580 C   0  0  0  0  0  0  0  0  0  0  0  0
   10.0790   -2.7310   22.8880 C   0  0  0  0  0  0  0  0  0  0  0  0
    6.6850   -2.5300   21.1120 N   0  0  0  0  0  0  0  0  0  0  0  0
    8.0360   -1.9410   21.4970 C   0  0  0  0  0  0  0  0  0  0  0  0
    8.6160   -2.7370   22.4860 C   0  0  2  0  0  0  0  0  0  0  0  0
    7.6840   -2.8000   23.4720 N   0  0  0  0  0  0  0  0  0  0  0  0
    6.8130   -3.7720   23.0740 C   0  0  0  0  0  0  0  0  0  0  0  0
    5.9050   -3.1000   22.2930 C   0  0  0  0  0  0  0  0  0  0  0  0
    9.3580   -5.0900   25.5430 C   0  0  0  0  0  0  0  0  0  0  0  0
    8.5240   -3.9900   25.7960 C   0  0  0  0  0  0  0  0  0  0  0  0
    7.9260   -3.9320   27.3920 S   0  0  0  0  0  0  0  0  0  0  0  0
    8.8350   -5.4140   27.6410 C   0  0  0  0  0  0  0  0  0  0  0  0
    9.5420   -5.9100   26.5740 C   0  0  0  0  0  0  0  0  0  0  0  0
   12.1370   -1.2710   22.4490 C   0  0  0  0  0  0  0  0  0  0  0  0
   10.9500   -1.5370   23.1180 C   0  0  0  0  0  0  0  0  0  0  0  0
   10.5900   -0.3100   24.2780 S   0  0  0  0  0  0  0  0  0  0  0  0
   11.9950    0.6020   23.9030 C   0  0  0  0  0  0  0  0  0  0  0  0
   12.7980    0.0530   22.9260 C   0  0  0  0  0  0  0  0  0  0  0  0
  1  3  1  0
  2  3  2  0
  4  5  2  0
  3  7  1  0
  7  8  1  0
  9  6  1  1
  8  9  1  0
  5 10  1  0
  9 10  1  0
 10 11  1  0
  7 12  1  0
 11 12  1  0
  5 14  1  0
 13 14  2  0
 14 15  1  0
 15 16  1  0
 13 17  1  0
 16 17  2  0
  6 19  1  0
 18 19  2  0
 19 20  1  0
 20 21  1  0
 18 22  1  0
 21 22  2  0
M  END
