x1418-x1334-x2694
     RDKit          3D

 45 49  0  0  0  0  0  0  0  0999 V2000
    7.8160    2.3560   22.6880 N   0  0  0  0  0  0  0  0  0  0  0  0
    9.2770    1.4390   21.2760 O   0  0  0  0  0  0  0  0  0  0  0  0
   11.0220    6.8070   23.9710 O   0  0  0  0  0  0  0  0  0  0  0  0
    7.1180    0.1640   21.4220 C   0  0  1  0  0  0  0  0  0  0  0  0
    8.1740    1.2580   21.7430 C   0  0  0  0  0  0  0  0  0  0  0  0
   10.4000    2.0020   24.0550 C   0  0  0  0  0  0  0  0  0  0  0  0
   11.8880    6.5780   25.0930 C   0  0  0  0  0  0  0  0  0  0  0  0
   12.3800   -1.0550   23.1460 C   0  0  0  0  0  0  0  0  0  0  0  0
   12.7120    0.4290   23.2910 C   0  0  0  0  0  0  0  0  0  0  0  0
   13.0310   -1.6290   21.8750 C   0  0  0  0  0  0  0  0  0  0  0  0
   12.9690   -1.8000   24.3570 C   0  0  0  0  0  0  0  0  0  0  0  0
    7.3770   -2.8830   18.7410 C   0  0  0  0  0  0  0  0  0  0  0  0
    5.4700   -3.9200   19.6600 O   0  0  0  0  0  0  0  0  0  0  0  0
    6.4040   -3.1100   19.8690 C   0  0  0  0  0  0  0  0  0  0  0  0
    8.9480   -2.9210   24.5200 C   0  0  0  0  0  0  0  0  0  0  0  0
    6.2860    0.5500   17.6420 N   0  0  0  0  0  0  0  0  0  0  0  0
    5.1300    1.4490   17.6900 C   0  0  0  0  0  0  0  0  0  0  0  0
    4.5660    1.9270   19.0080 C   0  0  0  0  0  0  0  0  0  0  0  0
    5.2180    1.4910   20.3070 C   0  0  0  0  0  0  0  0  0  0  0  0
    6.4180    0.5800   20.1910 C   0  0  0  0  0  0  0  0  0  0  0  0
    6.9480    0.0990   18.8600 C   0  0  0  0  0  0  0  0  0  0  0  0
    8.7640   -1.6940   23.7500 N   0  0  0  0  0  0  0  0  0  0  0  0
    9.9810   -0.9210   24.0900 O   0  0  0  0  0  0  0  0  0  0  0  0
   10.8870   -1.2500   23.0640 C   0  0  0  0  0  0  0  0  0  0  0  0
   10.0860   -1.8330   21.9460 C   0  0  0  0  0  0  0  0  0  0  0  0
    8.7840   -1.9590   22.3360 C   0  0  1  0  0  0  0  0  0  0  0  0
    9.8730    3.3590   23.6610 C   0  0  0  0  0  0  0  0  0  0  0  0
   10.6540    4.5160   23.9630 C   0  0  0  0  0  0  0  0  0  0  0  0
   10.1800    5.7870   23.6120 C   0  0  0  0  0  0  0  0  0  0  0  0
    8.9580    5.9480   22.9600 C   0  0  0  0  0  0  0  0  0  0  0  0
    8.2120    4.8060   22.6710 C   0  0  0  0  0  0  0  0  0  0  0  0
    8.6560    3.5430   23.0150 C   0  0  0  0  0  0  0  0  0  0  0  0
    6.5450   -2.5010   21.1590 N   0  0  0  0  0  0  0  0  0  0  0  0
    6.3390   -3.3650   22.1760 C   0  0  0  0  0  0  0  0  0  0  0  0
    7.4140   -3.9880   22.7970 C   0  0  0  0  0  0  0  0  0  0  0  0
    8.6210   -3.4080   22.2150 N   0  0  0  0  0  0  0  0  0  0  0  0
    7.4320   -1.3700   21.6720 C   0  0  2  0  0  0  0  0  0  0  0  0
    7.0050   -6.2730   28.7160 Cl  0  0  0  0  0  0  0  0  0  0  0  0
    9.3890   -4.7870   25.9300 C   0  0  0  0  0  0  0  0  0  0  0  0
    8.4900   -3.7680   25.9540 C   0  0  0  0  0  0  0  0  0  0  0  0
    7.2170   -3.9570   27.0440 S   0  0  0  0  0  0  0  0  0  0  0  0
    7.8680   -5.4400   27.5120 C   0  0  0  0  0  0  0  0  0  0  0  0
    9.0500   -5.8050   26.8420 C   0  0  0  0  0  0  0  0  0  0  0  0
   10.3150   -3.5770   24.2620 C   0  0  0  0  0  0  0  0  0  0  0  0
   10.4290   -4.6830   25.0810 C   0  0  0  0  0  0  0  0  0  0  0  0
  1  5  1  0
  2  5  2  0
  4  5  1  6
  3  7  1  0
  8  9  1  0
  8 10  1  0
  8 11  1  0
 12 14  1  0
 13 14  2  0
 16 17  2  0
 17 18  1  0
 18 19  2  0
  4 20  1  0
 19 20  1  0
 16 21  1  0
 20 21  2  0
 15 22  1  0
 22 23  1  0
  8 24  1  0
 23 24  1  0
 24 25  2  0
 22 26  1  0
 26 25  1  6
  6 27  1  0
 27 28  2  0
  3 29  1  0
 28 29  1  0
 29 30  2  0
 30 31  1  0
  1 32  1  0
 27 32  1  0
 31 32  2  0
 14 33  1  0
 33 34  1  0
 34 35  1  0
 26 36  1  0
 35 36  1  0
  4 37  1  0
 26 37  1  0
 37 33  1  6
 39 40  2  0
 40 41  1  0
 38 42  1  0
 41 42  1  0
 39 43  1  0
 42 43  2  0
 15 44  1  0
 39 45  1  0
 44 45  1  0
M  END
