x1418-x2572
     RDKit          3D

 29 32  0  0  0  0  0  0  0  0999 V2000
    4.5320    1.6340   21.6130 C   0  0  0  0  0  0  0  0  0  0  0  0
    6.0300    0.5610   18.0970 N   0  0  0  0  0  0  0  0  0  0  0  0
    6.9470   -0.2920   18.7740 C   0  0  0  0  0  0  0  0  0  0  0  0
    6.2100    0.2720   20.0660 C   0  0  0  0  0  0  0  0  0  0  0  0
    5.0100    1.3100   20.2390 C   0  0  0  0  0  0  0  0  0  0  0  0
    4.4330    1.8960   19.1180 C   0  0  0  0  0  0  0  0  0  0  0  0
    5.0380    1.4540   17.8660 C   0  0  0  0  0  0  0  0  0  0  0  0
    7.1110    0.6470   22.5190 O   0  0  0  0  0  0  0  0  0  0  0  0
   13.7230   -2.4600   20.6660 N   0  0  0  0  0  0  0  0  0  0  0  0
    7.7050   -0.5190   22.1290 C   0  0  0  0  0  0  0  0  0  0  0  0
    8.8490   -0.9860   22.6090 C   0  0  1  0  0  0  0  0  0  0  0  0
   13.1920   -1.5510   21.6010 C   0  0  0  0  0  0  0  0  0  0  0  0
    7.3000   -3.0420   18.7940 C   0  0  0  0  0  0  0  0  0  0  0  0
    5.5270   -4.2800   19.8330 O   0  0  0  0  0  0  0  0  0  0  0  0
    6.3060   -3.3170   19.9630 C   0  0  0  0  0  0  0  0  0  0  0  0
    9.6440   -3.2190   23.5080 C   0  0  0  0  0  0  0  0  0  0  0  0
   10.1930    0.6900   23.7670 C   0  0  0  0  0  0  0  0  0  0  0  0
   11.6430    1.1590   23.9300 C   0  0  0  0  0  0  0  0  0  0  0  0
   12.7420    0.4280   23.2140 C   0  0  0  0  0  0  0  0  0  0  0  0
   12.3950   -0.7420   22.3560 C   0  0  0  0  0  0  0  0  0  0  0  0
   10.9880   -1.1540   22.2250 C   0  0  0  0  0  0  0  0  0  0  0  0
    9.9170   -0.3920   22.9570 C   0  0  0  0  0  0  0  0  0  0  0  0
    6.2900   -2.4750   21.1350 N   0  0  0  0  0  0  0  0  0  0  0  0
    6.3000   -3.1510   22.4450 C   0  0  0  0  0  0  0  0  0  0  0  0
    7.2290   -2.7020   23.4660 C   0  0  0  0  0  0  0  0  0  0  0  0
    8.4960   -2.4270   22.8840 C   0  0  1  0  0  0  0  0  0  0  0  0
    8.4070   -2.5280   21.5260 C   0  0  0  0  0  0  0  0  0  0  0  0
    7.4250   -1.6040   21.0490 C   0  0  2  0  0  0  0  0  0  0  0  0
    7.6930   -1.0020   19.8820 C   0  0  0  0  0  0  0  0  0  0  0  0
  2  3  2  0
  3  4  1  0
  1  5  1  0
  4  5  2  0
  5  6  1  0
  2  7  1  0
  6  7  2  0
  8 10  2  0
 10 11  1  0
  9 12  3  0
 13 15  1  0
 14 15  2  0
 17 18  2  0
 18 19  1  0
 12 20  1  0
 19 20  2  0
 20 21  1  0
 11 22  1  1
 17 22  1  0
 21 22  2  0
 15 23  1  0
 23 24  1  0
 24 25  1  0
 11 26  1  0
 26 16  1  1
 25 26  1  0
 26 27  1  0
 10 28  1  0
 23 28  1  0
 27 28  1  0
  3 29  1  0
 28 29  1  6
M  END
