x1418-x2052
     RDKit          3D

 27 29  0  0  0  0  0  0  0  0999 V2000
    6.0710   -1.5620   25.2230 C   0  0  0  0  0  0  0  0  0  0  0  0
    4.6470   -1.3940   25.2740 O   0  0  0  0  0  0  0  0  0  0  0  0
    7.0210   -1.0080   26.1060 N   0  0  0  0  0  0  0  0  0  0  0  0
    5.4290   -4.4980   19.9130 O   0  0  0  0  0  0  0  0  0  0  0  0
    5.2830    2.2600   30.4860 O   0  0  0  0  0  0  0  0  0  0  0  0
    6.3580   -3.7560   20.2540 C   0  0  0  0  0  0  0  0  0  0  0  0
    7.2310   -3.1680   19.1500 C   0  0  0  0  0  0  0  0  0  0  0  0
    5.9650    3.2690   30.6500 C   0  0  0  0  0  0  0  0  0  0  0  0
    6.6380   -3.4890   21.6030 N   0  0  0  0  0  0  0  0  0  0  0  0
    7.7820   -2.6520   21.8700 C   0  0  1  0  0  0  0  0  0  0  0  0
    7.3100   -1.7820   23.0520 C   0  0  0  0  0  0  0  0  0  0  0  0
    6.6700   -2.4380   24.1050 C   0  0  2  0  0  0  0  0  0  0  0  0
    5.7960   -3.4240   23.6610 C   0  0  0  0  0  0  0  0  0  0  0  0
    6.3200   -4.3440   22.7570 C   0  0  0  0  0  0  0  0  0  0  0  0
    6.5710    2.0720   28.3700 N   0  0  0  0  0  0  0  0  0  0  0  0
    6.9260    1.2260   27.3810 C   0  0  0  0  0  0  0  0  0  0  0  0
    6.5810   -0.1230   27.2130 C   0  0  0  0  0  0  0  0  0  0  0  0
    5.7560   -0.7710   28.1450 C   0  0  0  0  0  0  0  0  0  0  0  0
    5.2440    0.0280   29.3560 C   0  0  0  0  0  0  0  0  0  0  0  0
    5.7050    1.4960   29.4180 C   0  0  0  0  0  0  0  0  0  0  0  0
    9.8840   -2.6490   23.3420 C   0  0  0  0  0  0  0  0  0  0  0  0
   12.1430   -1.3860   22.5920 C   0  0  0  0  0  0  0  0  0  0  0  0
   10.8990   -1.5160   23.4530 C   0  0  0  0  0  0  0  0  0  0  0  0
   10.8680   -0.1430   24.5270 S   0  0  0  0  0  0  0  0  0  0  0  0
   12.2700    0.5070   23.9080 C   0  0  0  0  0  0  0  0  0  0  0  0
   12.8880   -0.2150   22.8910 C   0  0  0  0  0  0  0  0  0  0  0  0
    9.1680   -2.3790   22.0450 C   0  0  0  0  0  0  0  0  0  0  0  0
  1  2  2  0
  1  3  1  0
  4  6  2  0
  6  7  1  0
  5  8  1  0
  6  9  1  0
  9 10  1  0
 10 11  1  0
 12  1  1  6
 11 12  1  0
 12 13  1  0
  9 14  1  0
 13 14  1  0
 15 16  2  0
  3 17  1  0
 16 17  1  0
 17 18  2  0
 18 19  1  0
  5 20  1  0
 15 20  1  0
 19 20  2  0
 21 23  1  0
 22 23  2  0
 23 24  1  0
 24 25  1  0
 22 26  1  0
 25 26  2  0
 10 27  1  1
 21 27  1  0
M  END
