x1418-x0387
     RDKit          3D

 22 24  0  0  0  0  0  0  0  0999 V2000
    7.3340   -2.9450   18.6610 C   0  0  0  0  0  0  0  0  0  0  0  0
    5.4780   -4.0050   19.6950 O   0  0  0  0  0  0  0  0  0  0  0  0
    6.3840   -3.1510   19.8050 C   0  0  0  0  0  0  0  0  0  0  0  0
    9.7800   -2.5990   23.3000 C   0  0  1  0  0  0  0  0  0  0  0  0
    9.1750   -5.4580   27.8530 O   0  0  0  0  0  0  0  0  0  0  0  0
    6.5980   -2.3880   20.9550 N   0  0  0  0  0  0  0  0  0  0  0  0
    6.6560   -3.1370   22.1620 C   0  0  0  0  0  0  0  0  0  0  0  0
    7.9870   -3.2500   22.5100 C   0  0  0  0  0  0  0  0  0  0  0  0
    8.6000   -2.2550   22.6600 N   0  0  0  0  0  0  0  0  0  0  0  0
    8.6500   -1.6260   21.6730 C   0  0  0  0  0  0  0  0  0  0  0  0
    7.5010   -1.2340   20.9510 C   0  0  0  0  0  0  0  0  0  0  0  0
   11.8830   -1.3710   22.5920 C   0  0  0  0  0  0  0  0  0  0  0  0
   10.7560   -1.4200   23.4350 C   0  0  0  0  0  0  0  0  0  0  0  0
   10.6330   -0.1000   24.5470 S   0  0  0  0  0  0  0  0  0  0  0  0
   12.1280    0.5120   23.8350 C   0  0  0  0  0  0  0  0  0  0  0  0
   12.6630   -0.2490   22.8380 C   0  0  0  0  0  0  0  0  0  0  0  0
    9.2210   -4.4890   26.9190 C   0  0  0  0  0  0  0  0  0  0  0  0
    7.9990   -4.2220   26.0560 C   0  0  0  0  0  0  0  0  0  0  0  0
    8.3630   -3.0200   25.1700 C   0  0  0  0  0  0  0  0  0  0  0  0
    9.5690   -3.2870   24.4650 N   0  0  0  0  0  0  0  0  0  0  0  0
   10.6590   -3.4670   25.2550 C   0  0  0  0  0  0  0  0  0  0  0  0
   10.3980   -4.6170   26.2400 C   0  0  0  0  0  0  0  0  0  0  0  0
  1  3  1  0
  2  3  2  0
  3  6  1  0
  6  7  1  0
  7  8  1  0
  4  9  1  0
  8  9  1  0
  9 10  1  0
  6 11  1  0
 10 11  1  0
  4 13  1  1
 12 13  2  0
 13 14  1  0
 14 15  1  0
 12 16  1  0
 15 16  2  0
  5 17  1  0
 17 18  1  0
 18 19  1  0
  4 20  1  0
 19 20  1  0
 20 21  1  0
 17 22  1  0
 21 22  1  0
M  END
