x1412-x2119
     RDKit          3D

 16 17  0  0  0  0  0  0  0  0999 V2000
    7.3130   -3.0210   18.7860 C   0  0  0  0  0  0  0  0  0  0  0  0
    5.3770   -4.0870   19.7060 O   0  0  0  0  0  0  0  0  0  0  0  0
    6.3590   -3.3670   19.9090 C   0  0  0  0  0  0  0  0  0  0  0  0
    8.5050   -1.4560   25.4140 O   0  0  0  0  0  0  0  0  0  0  0  0
    8.4100   -2.5770   24.9430 C   0  0  0  0  0  0  0  0  0  0  0  0
    6.6670   -2.8820   21.1880 N   0  0  0  0  0  0  0  0  0  0  0  0
    7.6930   -1.8470   21.4220 C   0  0  0  0  0  0  0  0  0  0  0  0
    8.7380   -2.1200   22.4550 C   0  0  0  0  0  0  0  0  0  0  0  0
    8.1440   -2.7200   23.5370 N   0  0  0  0  0  0  0  0  0  0  0  0
    7.7110   -4.0400   23.0900 C   0  0  0  0  0  0  0  0  0  0  0  0
    6.4320   -3.8480   22.2740 C   0  0  0  0  0  0  0  0  0  0  0  0
    9.3440   -4.8460   25.3850 C   0  0  0  0  0  0  0  0  0  0  0  0
    8.5370   -3.7610   25.7790 C   0  0  0  0  0  0  0  0  0  0  0  0
    7.7400   -3.9530   27.3040 S   0  0  0  0  0  0  0  0  0  0  0  0
    8.5410   -5.5130   27.3650 C   0  0  0  0  0  0  0  0  0  0  0  0
    9.3600   -5.9230   26.3430 C   0  0  0  0  0  0  0  0  0  0  0  0
  1  3  1  0
  2  3  2  0
  4  5  2  0
  3  6  1  0
  6  7  1  0
  7  8  1  0
  5  9  1  0
  8  9  1  0
  9 10  1  0
  6 11  1  0
 10 11  1  0
  5 13  1  0
 12 13  2  0
 13 14  1  0
 14 15  1  0
 12 16  1  0
 15 16  2  0
M  END
