x1418-x2193
     RDKit          3D

 27 29  0  0  0  0  0  0  0  0999 V2000
    7.4220   -3.0000   18.7090 C   0  0  0  0  0  0  0  0  0  0  0  0
    5.5100   -4.0020   19.7100 O   0  0  0  0  0  0  0  0  0  0  0  0
    6.4480   -3.1880   19.8410 C   0  0  0  0  0  0  0  0  0  0  0  0
    9.7440   -2.7850   23.4870 C   0  0  1  0  0  0  0  0  0  0  0  0
    6.6750   -2.4530   21.0060 N   0  0  0  0  0  0  0  0  0  0  0  0
    6.6250   -3.1960   22.2210 C   0  0  0  0  0  0  0  0  0  0  0  0
    7.9170   -3.3310   22.7140 C   0  0  0  0  0  0  0  0  0  0  0  0
    8.5770   -2.3590   22.8570 N   0  0  0  0  0  0  0  0  0  0  0  0
    8.6910   -1.7560   21.8490 C   0  0  0  0  0  0  0  0  0  0  0  0
    7.6060   -1.3330   21.0580 C   0  0  0  0  0  0  0  0  0  0  0  0
   11.8860   -1.7330   22.5550 C   0  0  0  0  0  0  0  0  0  0  0  0
   10.9040   -1.7340   23.5240 C   0  0  0  0  0  0  0  0  0  0  0  0
   11.1180   -0.7290   24.4910 C   0  0  1  0  0  0  0  0  0  0  0  0
   12.3360   -0.1670   24.0800 C   0  0  0  0  0  0  0  0  0  0  0  0
   12.7960   -0.7390   22.8990 C   0  0  0  0  0  0  0  0  0  0  0  0
    8.2710   -5.6170   26.3050 N   0  0  0  0  0  0  0  0  0  0  0  0
    7.5290   -4.5930   25.8310 C   0  0  0  0  0  0  0  0  0  0  0  0
    8.4550   -3.3470   25.6920 C   0  0  0  0  0  0  0  0  0  0  0  0
    9.4700   -3.5600   24.6380 N   0  0  0  0  0  0  0  0  0  0  0  0
    9.8500   -4.8210   24.5540 C   0  0  0  0  0  0  0  0  0  0  0  0
    9.6410   -5.7060   25.7780 C   0  0  0  0  0  0  0  0  0  0  0  0
   10.2110    2.6320   23.2890 C   0  0  0  0  0  0  0  0  0  0  0  0
    9.1140    1.9530   21.0420 O   0  0  0  0  0  0  0  0  0  0  0  0
    7.6440    2.6930   22.9270 O   0  0  0  0  0  0  0  0  0  0  0  0
    8.8130    2.0070   22.4430 S   0  0  0  0  0  0  0  0  0  0  0  0
   10.2720    0.4820   24.2870 C   0  0  0  0  0  0  0  0  0  0  0  0
   11.0500    1.4740   23.6720 C   0  0  0  0  0  0  0  0  0  0  0  0
  1  3  1  0
  2  3  2  0
  3  5  1  0
  5  6  1  0
  6  7  1  0
  4  8  1  0
  7  8  1  0
  8  9  1  0
  5 10  1  0
  9 10  1  0
  4 12  1  1
 11 12  2  0
 12 13  1  0
 13 14  1  0
 11 15  1  0
 14 15  2  0
 16 17  1  0
 17 18  1  0
  4 19  1  0
 18 19  1  0
 19 20  1  0
 16 21  1  0
 20 21  1  0
 22 25  1  0
 23 25  2  0
 24 25  2  0
 13 26  1  6
 22 27  1  0
 26 27  1  0
M  END
