x1418-x2643
     RDKit          3D

 25 28  0  0  0  0  0  0  0  0999 V2000
    7.2280   -3.0050   18.6990 C   0  0  0  0  0  0  0  0  0  0  0  0
    5.4150   -4.1560   19.7490 O   0  0  0  0  0  0  0  0  0  0  0  0
    6.2710   -3.2610   19.8450 C   0  0  0  0  0  0  0  0  0  0  0  0
    9.4330   -2.7210   23.6840 C   0  0  0  0  0  0  0  0  0  0  0  0
   13.3270    0.8300   22.9350 Cl  0  0  0  0  0  0  0  0  0  0  0  0
    8.3640    0.8370   22.1440 O   0  0  0  0  0  0  0  0  0  0  0  0
    8.3380   -0.5420   21.7550 C   0  0  0  0  0  0  0  0  0  0  0  0
    6.4380   -2.4690   20.9690 N   0  0  0  0  0  0  0  0  0  0  0  0
    6.2890   -2.9650   22.0040 C   0  0  0  0  0  0  0  0  0  0  0  0
    7.5800   -3.6210   22.4840 C   0  0  0  0  0  0  0  0  0  0  0  0
    8.4830   -2.6320   22.6890 N   0  0  0  0  0  0  0  0  0  0  0  0
    8.7600   -2.0190   21.7200 C   0  0  1  0  0  0  0  0  0  0  0  0
    7.6860   -1.6470   20.8890 C   0  0  2  0  0  0  0  0  0  0  0  0
   11.4300   -1.6350   22.6230 C   0  0  0  0  0  0  0  0  0  0  0  0
   10.5140   -1.6590   23.6090 C   0  0  0  0  0  0  0  0  0  0  0  0
   10.6890   -0.4060   24.7070 S   0  0  0  0  0  0  0  0  0  0  0  0
   12.0690    0.4100   23.9570 C   0  0  0  0  0  0  0  0  0  0  0  0
   12.3040   -0.4480   22.8410 C   0  0  0  0  0  0  0  0  0  0  0  0
    6.4480    0.5480   18.0580 N   0  0  0  0  0  0  0  0  0  0  0  0
    7.1550   -0.0130   19.1450 C   0  0  0  0  0  0  0  0  0  0  0  0
    6.0650    0.3400   20.2120 C   0  0  0  0  0  0  0  0  0  0  0  0
    4.7340    1.0230   20.1750 C   0  0  0  0  0  0  0  0  0  0  0  0
    4.2220    1.5350   18.9070 C   0  0  0  0  0  0  0  0  0  0  0  0
    5.1660    1.2650   17.8070 C   0  0  0  0  0  0  0  0  0  0  0  0
    7.5420   -0.4330   20.4250 C   0  0  0  0  0  0  0  0  0  0  0  0
  1  3  1  0
  2  3  2  0
  6  7  2  0
  3  8  1  0
  8  9  1  0
  9 10  1  0
  4 11  1  0
 10 11  1  0
 12  7  1  1
 11 12  1  0
  7 13  1  0
  8 13  1  0
 12 13  1  0
  4 15  1  0
 14 15  2  0
 15 16  1  0
  5 17  1  0
 16 17  1  0
 14 18  1  0
 17 18  2  0
 19 20  2  0
 20 21  1  0
 21 22  2  0
 22 23  1  0
 19 24  1  0
 23 24  2  0
 13 25  1  6
 20 25  1  0
M  END
