x1412-x0161
     RDKit          3D

 33 35  0  0  0  0  0  0  0  0999 V2000
   13.4620   -2.4090   23.8400 C   0  0  0  0  0  0  0  0  0  0  0  0
   13.1250   -1.0700   24.0890 N   0  0  0  0  0  0  0  0  0  0  0  0
   13.0580   -0.1800   22.9890 C   0  0  0  0  0  0  0  0  0  0  0  0
   13.5260   -0.4670   21.9080 O   0  0  0  0  0  0  0  0  0  0  0  0
   10.0550    5.2240   23.7880 S   0  0  0  0  0  0  0  0  0  0  0  0
   10.6770    6.4610   23.3680 O   0  0  0  0  0  0  0  0  0  0  0  0
    9.4430    5.1560   25.0890 O   0  0  0  0  0  0  0  0  0  0  0  0
    8.8400    4.9580   22.6740 N   0  0  0  0  0  0  0  0  0  0  0  0
    7.2680   -3.0100   18.7980 C   0  0  0  0  0  0  0  0  0  0  0  0
    5.2500   -4.0980   19.6030 O   0  0  0  0  0  0  0  0  0  0  0  0
    6.2080   -3.3840   19.8360 C   0  0  0  0  0  0  0  0  0  0  0  0
    9.2980   -1.3280   24.4840 N   0  0  0  0  0  0  0  0  0  0  0  0
    8.5730   -2.5890   24.4040 C   0  0  0  0  0  0  0  0  0  0  0  0
   12.2900   -0.8110   25.1230 C   0  0  0  0  0  0  0  0  0  0  0  0
   11.2580   -1.9080   25.0090 C   0  0  0  0  0  0  0  0  0  0  0  0
   10.1320   -1.3180   25.5050 C   0  0  0  0  0  0  0  0  0  0  0  0
   12.3640    1.1760   23.1720 C   0  0  0  0  0  0  0  0  0  0  0  0
   13.0860    2.3000   22.7960 C   0  0  0  0  0  0  0  0  0  0  0  0
   12.5860    3.5750   22.8910 C   0  0  0  0  0  0  0  0  0  0  0  0
   11.3400    3.6810   23.3890 C   0  0  0  0  0  0  0  0  0  0  0  0
   10.4380    2.7110   23.8370 C   0  0  0  0  0  0  0  0  0  0  0  0
   10.9160    1.3810   23.7470 C   0  0  0  0  0  0  0  0  0  0  0  0
    6.3500   -2.9280   21.0890 N   0  0  0  0  0  0  0  0  0  0  0  0
    7.1110   -1.7760   21.3690 C   0  0  0  0  0  0  0  0  0  0  0  0
    8.1350   -2.0080   22.2270 C   0  0  0  0  0  0  0  0  0  0  0  0
    7.7370   -2.6970   23.2910 N   0  0  0  0  0  0  0  0  0  0  0  0
    7.3110   -3.9260   23.0250 C   0  0  0  0  0  0  0  0  0  0  0  0
    6.1960   -3.8970   22.2160 C   0  0  0  0  0  0  0  0  0  0  0  0
    9.7470   -4.8040   25.3910 C   0  0  0  0  0  0  0  0  0  0  0  0
    8.7320   -3.7070   25.4060 C   0  0  0  0  0  0  0  0  0  0  0  0
    7.6810   -3.8890   26.7840 S   0  0  0  0  0  0  0  0  0  0  0  0
    8.4420   -5.3070   27.3890 C   0  0  0  0  0  0  0  0  0  0  0  0
    9.4930   -5.6940   26.5890 C   0  0  0  0  0  0  0  0  0  0  0  0
  1  2  1  0
  2  3  1  0
  3  4  2  0
  5  6  2  0
  5  7  2  0
  5  8  1  0
  9 11  1  0
 10 11  2  0
 12 13  2  3
  2 14  1  0
 14 15  1  0
 12 16  1  0
 15 16  1  0
  3 17  1  0
 17 18  2  0
 18 19  1  0
  5 20  1  0
 19 20  2  0
 20 21  1  0
 17 22  1  0
 21 22  2  0
 11 23  1  0
 23 24  1  0
 24 25  1  0
 13 26  1  0
 25 26  1  0
 26 27  1  0
 23 28  1  0
 27 28  1  0
 13 30  1  0
 29 30  2  0
 30 31  1  0
 31 32  1  0
 29 33  1  0
 32 33  2  0
M  END
