x1418-x1334
     RDKit          3D

 21 23  0  0  0  0  0  0  0  0999 V2000
    7.3600   -3.0050   18.7850 C   0  0  0  0  0  0  0  0  0  0  0  0
    5.4280   -4.0550   19.7130 O   0  0  0  0  0  0  0  0  0  0  0  0
    7.6410   -5.5530   28.3870 Cl  0  0  0  0  0  0  0  0  0  0  0  0
    6.3890   -3.2930   19.9100 C   0  0  0  0  0  0  0  0  0  0  0  0
    9.6610   -3.1200   23.6860 C   0  0  2  0  0  0  0  0  0  0  0  0
    6.6240   -2.7180   21.1580 N   0  0  0  0  0  0  0  0  0  0  0  0
    7.6740   -1.7260   21.2400 C   0  0  0  0  0  0  0  0  0  0  0  0
    8.7430   -2.1890   22.0210 C   0  0  0  0  0  0  0  0  0  0  0  0
    8.4910   -2.8120   22.9920 N   0  0  0  0  0  0  0  0  0  0  0  0
    7.7360   -3.6910   22.8030 C   0  0  0  0  0  0  0  0  0  0  0  0
    6.4310   -3.4740   22.3650 C   0  0  0  0  0  0  0  0  0  0  0  0
    9.8810   -5.1530   25.2150 C   0  0  0  0  0  0  0  0  0  0  0  0
    9.2620   -3.9320   24.9570 C   0  0  0  0  0  0  0  0  0  0  0  0
    8.0710   -3.5310   26.1440 S   0  0  0  0  0  0  0  0  0  0  0  0
    8.4460   -5.0500   26.9620 C   0  0  0  0  0  0  0  0  0  0  0  0
    9.4230   -5.7940   26.3540 C   0  0  0  0  0  0  0  0  0  0  0  0
   11.8720   -1.7220   22.7500 C   0  0  0  0  0  0  0  0  0  0  0  0
   10.6830   -1.8810   23.7410 C   0  0  0  0  0  0  0  0  0  0  0  0
   10.6420   -0.5370   24.8430 S   0  0  0  0  0  0  0  0  0  0  0  0
   12.0090    0.2150   24.1400 C   0  0  0  0  0  0  0  0  0  0  0  0
   12.6070   -0.5420   22.9890 C   0  0  0  0  0  0  0  0  0  0  0  0
  1  4  1  0
  2  4  2  0
  4  6  1  0
  6  7  1  0
  7  8  1  0
  5  9  1  0
  8  9  1  0
  9 10  1  0
  6 11  1  0
 10 11  1  0
  5 13  1  1
 12 13  2  0
 13 14  1  0
  3 15  1  0
 14 15  1  0
 12 16  1  0
 15 16  2  0
  5 18  1  0
 17 18  2  0
 18 19  1  0
 19 20  1  0
 17 21  1  0
 20 21  2  0
M  END
