x1425-x2608
     RDKit          3D

 34 37  0  0  0  0  0  0  0  0999 V2000
    1.3800   -2.3820   28.2210 C   0  0  0  0  0  0  0  0  0  0  0  0
    2.6030   -2.2920   28.3490 O   0  0  0  0  0  0  0  0  0  0  0  0
    5.1710   -4.4170   19.7870 O   0  0  0  0  0  0  0  0  0  0  0  0
    6.2560   -3.9580   20.1070 C   0  0  0  0  0  0  0  0  0  0  0  0
    7.1420   -3.2270   19.1030 C   0  0  0  0  0  0  0  0  0  0  0  0
    8.8000   -1.2010   22.4300 N   0  0  0  0  0  0  0  0  0  0  0  0
   12.8250    2.0630   22.8410 C   0  0  0  0  0  0  0  0  0  0  0  0
    8.5280    0.6930   21.1010 O   0  0  0  0  0  0  0  0  0  0  0  0
    6.6370   -0.7200   21.2980 N   0  0  0  0  0  0  0  0  0  0  0  0
    8.0210   -0.3310   21.5580 C   0  0  0  0  0  0  0  0  0  0  0  0
    7.4540   -1.7840   21.1050 C   0  0  0  0  0  0  0  0  0  0  0  0
    3.3470   -2.6960   27.2060 C   0  0  0  0  0  0  0  0  0  0  0  0
    4.7450   -2.0740   27.1760 C   0  0  0  0  0  0  0  0  0  0  0  0
    5.6280   -2.4340   26.0010 C   0  0  0  0  0  0  0  0  0  0  0  0
    5.0500   -3.3970   24.9270 C   0  0  0  0  0  0  0  0  0  0  0  0
    3.7360   -3.8670   25.1280 C   0  0  0  0  0  0  0  0  0  0  0  0
    2.9010   -3.5580   26.1930 C   0  0  0  0  0  0  0  0  0  0  0  0
    6.7210   -4.1460   21.3970 N   0  0  0  0  0  0  0  0  0  0  0  0
    7.2430   -2.9790   22.1030 C   0  0  2  0  0  0  0  0  0  0  0  0
    6.2880   -2.5720   23.0350 C   0  0  0  0  0  0  0  0  0  0  0  0
    5.8480   -3.7370   23.8350 N   0  0  0  0  0  0  0  0  0  0  0  0
    5.4780   -4.8860   23.2090 C   0  0  0  0  0  0  0  0  0  0  0  0
    6.3550   -5.3070   22.2140 C   0  0  0  0  0  0  0  0  0  0  0  0
   12.0210    0.8700   22.8270 C   0  0  0  0  0  0  0  0  0  0  0  0
   12.5020   -0.5570   22.9940 C   0  0  0  0  0  0  0  0  0  0  0  0
   11.3760   -1.5360   22.8770 C   0  0  0  0  0  0  0  0  0  0  0  0
   10.1040   -0.7240   22.6310 C   0  0  0  0  0  0  0  0  0  0  0  0
   10.3540    0.9790   22.5910 S   0  0  0  0  0  0  0  0  0  0  0  0
    6.1930    0.6070   17.8490 N   0  0  0  0  0  0  0  0  0  0  0  0
    6.6700   -0.0370   18.9410 C   0  0  0  0  0  0  0  0  0  0  0  0
    6.0420   -0.0290   20.1900 C   0  0  0  0  0  0  0  0  0  0  0  0
    4.8510    0.6820   20.2910 C   0  0  0  0  0  0  0  0  0  0  0  0
    4.3260    1.3560   19.1920 C   0  0  0  0  0  0  0  0  0  0  0  0
    5.0390    1.2930   17.9870 C   0  0  0  0  0  0  0  0  0  0  0  0
  1  2  1  0
  3  4  2  0
  4  5  1  0
  6 10  1  0
  8 10  2  0
  9 10  1  0
  9 11  1  0
  2 12  1  0
 12 13  2  0
 13 14  1  0
 14 15  2  0
 15 16  1  0
 12 17  1  0
 16 17  2  0
  4 18  1  0
 19 11  1  6
 18 19  1  0
 19 20  1  0
 15 21  1  0
 20 21  1  0
 21 22  1  0
 18 23  1  0
 22 23  1  0
  7 24  1  0
 24 25  2  0
 25 26  1  0
  6 27  1  0
 26 27  2  0
 24 28  1  0
 27 28  1  0
 29 30  2  0
  9 31  1  0
 30 31  1  0
 31 32  2  0
 32 33  1  0
 29 34  1  0
 33 34  2  0
M  END
