x1425-x1334-x2694
     RDKit          3D

 61 68  0  0  0  0  0  0  0  0999 V2000
    7.7870    2.1730   22.8490 N   0  0  0  0  0  0  0  0  0  0  0  0
    9.4040    1.6160   21.3550 O   0  0  0  0  0  0  0  0  0  0  0  0
   10.8920    6.7960   24.0180 O   0  0  0  0  0  0  0  0  0  0  0  0
    7.6330    0.1460   21.2390 C   0  0  2  0  0  0  0  0  0  0  0  0
    8.3480    1.3190   21.8310 C   0  0  0  0  0  0  0  0  0  0  0  0
   10.2760    1.9120   24.0580 C   0  0  0  0  0  0  0  0  0  0  0  0
   11.8820    6.6090   25.0480 C   0  0  0  0  0  0  0  0  0  0  0  0
   12.6590   -0.9080   23.3140 C   0  0  0  0  0  0  0  0  0  0  0  0
   12.9540    0.4240   23.2780 C   0  0  0  0  0  0  0  0  0  0  0  0
   13.2580   -1.6430   22.1210 C   0  0  0  0  0  0  0  0  0  0  0  0
   13.0500   -1.5260   24.5550 C   0  0  0  0  0  0  0  0  0  0  0  0
    1.3750   -2.2140   28.7880 C   0  0  0  0  0  0  0  0  0  0  0  0
    2.6040   -2.2810   28.8570 O   0  0  0  0  0  0  0  0  0  0  0  0
    6.4060   -5.5990   19.9330 O   0  0  0  0  0  0  0  0  0  0  0  0
    6.6240   -4.4420   20.2200 C   0  0  0  0  0  0  0  0  0  0  0  0
    7.5240   -3.4770   19.3570 C   0  0  0  0  0  0  0  0  0  0  0  0
    7.0590   -2.2010   22.7560 C   0  0  2  0  0  0  0  0  0  0  0  0
    5.8280   -1.8320   18.5980 C   0  0  0  0  0  0  0  0  0  0  0  0
    4.7970   -3.4300   20.4500 N   0  0  0  0  0  0  0  0  0  0  0  0
    7.2310   -5.6580   28.3980 Cl  0  0  0  0  0  0  0  0  0  0  0  0
    5.5780   -2.6890   19.6480 C   0  0  0  0  0  0  0  0  0  0  0  0
    9.8520   -3.2680   24.1070 C   0  0  0  0  0  0  0  0  0  0  0  0
    6.2150    0.4300   17.6940 N   0  0  0  0  0  0  0  0  0  0  0  0
    5.0500    1.2880   17.8780 C   0  0  0  0  0  0  0  0  0  0  0  0
    4.6740    1.7800   19.2890 C   0  0  0  0  0  0  0  0  0  0  0  0
    5.4320    1.4430   20.3940 C   0  0  0  0  0  0  0  0  0  0  0  0
    6.6620    0.5630   20.1970 C   0  0  0  0  0  0  0  0  0  0  0  0
    7.0030    0.0740   18.8470 C   0  0  0  0  0  0  0  0  0  0  0  0
    9.2680   -1.9070   23.9090 N   0  0  0  0  0  0  0  0  0  0  0  0
   10.4680   -1.3000   24.2630 O   0  0  0  0  0  0  0  0  0  0  0  0
   11.2440   -1.1430   23.1620 C   0  0  0  0  0  0  0  0  0  0  0  0
   10.4860   -1.2580   22.0760 C   0  0  0  0  0  0  0  0  0  0  0  0
    9.2340   -1.6490   22.6060 C   0  0  2  0  0  0  0  0  0  0  0  0
    9.7320    3.2870   23.7040 C   0  0  0  0  0  0  0  0  0  0  0  0
   10.5200    4.4090   23.9940 C   0  0  0  0  0  0  0  0  0  0  0  0
   10.1130    5.7110   23.7150 C   0  0  0  0  0  0  0  0  0  0  0  0
    8.7440    5.9040   23.0510 C   0  0  0  0  0  0  0  0  0  0  0  0
    7.9570    4.7940   22.7540 C   0  0  0  0  0  0  0  0  0  0  0  0
    8.4740    3.3890   23.1020 C   0  0  0  0  0  0  0  0  0  0  0  0
    3.1340   -2.7060   27.6870 C   0  0  0  0  0  0  0  0  0  0  0  0
    4.4110   -2.2550   27.3340 C   0  0  0  0  0  0  0  0  0  0  0  0
    4.9860   -2.6480   26.1640 C   0  0  0  0  0  0  0  0  0  0  0  0
    4.3190   -3.5000   25.3040 C   0  0  0  0  0  0  0  0  0  0  0  0
    3.0790   -3.9560   25.6300 C   0  0  0  0  0  0  0  0  0  0  0  0
    2.4750   -3.5730   26.8100 C   0  0  0  0  0  0  0  0  0  0  0  0
    5.7030   -4.0130   21.3680 C   0  0  2  0  0  0  0  0  0  0  0  0
    5.9560   -3.2260   22.4940 C   0  0  2  0  0  0  0  0  0  0  0  0
    4.7760   -2.8420   23.1670 C   0  0  0  0  0  0  0  0  0  0  0  0
    4.8260   -3.9310   24.0670 N   0  0  0  0  0  0  0  0  0  0  0  0
    4.3870   -5.1690   23.4060 C   0  0  0  0  0  0  0  0  0  0  0  0
    5.2310   -5.3450   22.1030 C   0  0  0  0  0  0  0  0  0  0  0  0
    7.5710   -2.4060   20.7370 N   0  0  0  0  0  0  0  0  0  0  0  0
    7.8210   -1.3380   21.8030 C   0  0  2  0  0  0  0  0  0  0  0  0
    9.2600   -2.9770   22.1800 N   0  0  0  0  0  0  0  0  0  0  0  0
    7.9910   -3.4070   22.6280 C   0  0  2  0  0  0  0  0  0  0  0  0
    7.3490   -3.7070   21.5040 C   0  0  0  0  0  0  0  0  0  0  0  0
    9.8230   -5.4300   25.4430 C   0  0  0  0  0  0  0  0  0  0  0  0
    9.3670   -4.1880   25.1770 C   0  0  0  0  0  0  0  0  0  0  0  0
    8.1040   -3.7850   26.2770 S   0  0  0  0  0  0  0  0  0  0  0  0
    8.2390   -5.2780   27.0660 C   0  0  0  0  0  0  0  0  0  0  0  0
    9.1910   -6.0720   26.5260 C   0  0  0  0  0  0  0  0  0  0  0  0
  1  5  1  0
  2  5  2  0
  4  5  1  1
  3  7  1  0
  8  9  1  0
  8 10  1  0
  8 11  1  0
 12 13  1  0
 14 15  2  0
 15 16  1  0
 18 21  1  0
 19 21  2  3
 23 24  2  0
 24 25  1  0
 25 26  2  0
  4 27  1  0
 26 27  1  0
 23 28  1  0
 27 28  2  0
 22 29  1  0
 29 30  1  0
  8 31  1  0
 30 31  1  0
 31 32  2  0
 29 33  1  0
 33 32  1  6
  6 34  1  0
 34 35  2  0
  3 36  1  0
 35 36  1  0
 36 37  2  0
 37 38  1  0
  1 39  1  0
 34 39  1  0
 38 39  2  0
 13 40  1  0
 40 41  2  0
 41 42  1  0
 42 43  2  0
 43 44  1  0
 40 45  1  0
 44 45  2  0
 15 46  1  0
 46 19  1  6
 17 47  1  0
 46 47  1  0
 47 48  1  6
 43 49  1  0
 48 49  1  0
 49 50  1  0
 46 51  1  0
 50 51  1  0
  4 53  1  0
 17 53  1  0
 33 53  1  0
 53 52  1  6
 33 54  1  0
 17 55  1  6
 54 55  1  0
 52 56  1  0
 55 56  1  6
 22 58  1  0
 57 58  2  0
 58 59  1  0
 20 60  1  0
 59 60  1  0
 57 61  1  0
 60 61  2  0
M  END
