x1425-x1093
     RDKit          3D

 37 41  0  0  0  0  0  0  0  0999 V2000
    1.3640   -2.3670   28.1390 C   0  0  0  0  0  0  0  0  0  0  0  0
    2.5760   -2.2780   28.3450 O   0  0  0  0  0  0  0  0  0  0  0  0
    5.2260   -4.4560   19.8180 O   0  0  0  0  0  0  0  0  0  0  0  0
    6.3240   -4.0210   20.1280 C   0  0  0  0  0  0  0  0  0  0  0  0
    7.1890   -3.2710   19.1200 C   0  0  0  0  0  0  0  0  0  0  0  0
   13.3680   -1.9500   23.9040 C   0  0  0  0  0  0  0  0  0  0  0  0
    8.9530    1.4730   21.2040 O   0  0  0  0  0  0  0  0  0  0  0  0
    8.9670    0.3240   21.6860 C   0  0  0  0  0  0  0  0  0  0  0  0
    7.7590   -0.5840   21.4200 C   0  0  2  0  0  0  0  0  0  0  0  0
    8.0580   -2.0820   21.3240 C   0  0  0  0  0  0  0  0  0  0  0  0
    3.4140   -2.5690   27.3060 C   0  0  0  0  0  0  0  0  0  0  0  0
    4.8180   -2.0270   27.1490 C   0  0  0  0  0  0  0  0  0  0  0  0
    5.5530   -2.5070   25.9000 C   0  0  0  0  0  0  0  0  0  0  0  0
    4.9290   -3.3730   25.0110 C   0  0  0  0  0  0  0  0  0  0  0  0
    3.6290   -3.8390   25.2080 C   0  0  0  0  0  0  0  0  0  0  0  0
    2.8780   -3.4460   26.3360 C   0  0  0  0  0  0  0  0  0  0  0  0
    6.8350   -4.2390   21.3870 N   0  0  0  0  0  0  0  0  0  0  0  0
    7.3800   -3.1550   22.2380 C   0  0  2  0  0  0  0  0  0  0  0  0
    6.3480   -2.6570   23.0290 C   0  0  0  0  0  0  0  0  0  0  0  0
    5.7740   -3.7350   23.8700 N   0  0  0  0  0  0  0  0  0  0  0  0
    5.5910   -5.0740   23.2980 C   0  0  0  0  0  0  0  0  0  0  0  0
    6.4720   -5.4020   22.1080 C   0  0  0  0  0  0  0  0  0  0  0  0
   12.2970   -1.3660   23.2840 N   0  0  0  0  0  0  0  0  0  0  0  0
   12.2690    0.0730   23.4400 C   0  0  0  0  0  0  0  0  0  0  0  0
   10.9050    0.7160   23.2440 C   0  0  0  0  0  0  0  0  0  0  0  0
   10.0070   -0.1400   22.4520 N   0  0  0  0  0  0  0  0  0  0  0  0
   10.0600   -1.4610   22.7430 C   0  0  0  0  0  0  0  0  0  0  0  0
   11.0900   -1.8660   23.5630 C   0  0  0  0  0  0  0  0  0  0  0  0
    6.3200    0.2040   17.9500 N   0  0  0  0  0  0  0  0  0  0  0  0
    7.2060   -0.3830   18.8280 C   0  0  0  0  0  0  0  0  0  0  0  0
    6.9750   -0.1280   20.1760 C   0  0  0  0  0  0  0  0  0  0  0  0
    5.8630    0.6280   20.1540 C   0  0  0  0  0  0  0  0  0  0  0  0
    5.4820    0.8500   18.8150 C   0  0  0  0  0  0  0  0  0  0  0  0
    4.3540    1.6550   18.4940 N   0  0  0  0  0  0  0  0  0  0  0  0
    3.5930    2.1480   19.5150 C   0  0  0  0  0  0  0  0  0  0  0  0
    3.9590    1.9050   20.9500 C   0  0  0  0  0  0  0  0  0  0  0  0
    5.1900    1.0990   21.2690 C   0  0  0  0  0  0  0  0  0  0  0  0
  1  2  1  0
  3  4  2  0
  4  5  1  0
  7  8  2  0
  8  9  1  0
  9 10  1  6
  2 11  1  0
 11 12  2  0
 12 13  1  0
 13 14  2  0
 14 15  1  0
 11 16  1  0
 15 16  2  0
  4 17  1  0
 18 10  1  6
 17 18  1  0
 18 19  1  0
 14 20  1  0
 19 20  1  0
 20 21  1  0
 17 22  1  0
 21 22  1  0
  6 23  1  0
 23 24  1  0
 24 25  1  0
  8 26  1  0
 25 26  1  0
 26 27  1  0
 23 28  1  0
 27 28  1  0
 29 30  1  0
  9 31  1  0
 30 31  2  0
 31 32  1  0
 29 33  2  0
 32 33  1  0
 33 34  1  0
 34 35  1  0
 35 36  2  0
 32 37  2  0
 36 37  1  0
M  END
