x1425-x2569
     RDKit          3D

 37 40  0  0  0  0  0  0  0  0999 V2000
    1.4530   -2.2620   28.4300 C   0  0  0  0  0  0  0  0  0  0  0  0
    2.6740   -2.0930   28.3690 O   0  0  0  0  0  0  0  0  0  0  0  0
    5.2100   -4.4940   19.8720 O   0  0  0  0  0  0  0  0  0  0  0  0
    6.3060   -4.1060   20.2550 C   0  0  0  0  0  0  0  0  0  0  0  0
    7.1670   -3.2780   19.3370 C   0  0  0  0  0  0  0  0  0  0  0  0
    8.2740    0.3720   21.8020 C   0  0  0  0  0  0  0  0  0  0  0  0
    8.8410    1.3150   21.2140 O   0  0  0  0  0  0  0  0  0  0  0  0
    8.7280   -0.1750   23.1520 C   0  0  1  0  0  0  0  0  0  0  0  0
   13.9950   -1.5850   20.4130 N   0  0  0  0  0  0  0  0  0  0  0  0
    7.1060   -0.1610   21.1230 N   0  0  0  0  0  0  0  0  0  0  0  0
   13.1850   -1.3800   21.5130 C   0  0  0  0  0  0  0  0  0  0  0  0
    8.0080   -2.4990   22.1430 C   0  0  0  0  0  0  0  0  0  0  0  0
    8.0520   -1.5070   23.3260 C   0  0  0  0  0  0  0  0  0  0  0  0
    3.2810   -2.6640   27.2080 C   0  0  0  0  0  0  0  0  0  0  0  0
    4.7390   -2.2310   26.9460 C   0  0  0  0  0  0  0  0  0  0  0  0
    5.3850   -2.7560   25.8280 C   0  0  0  0  0  0  0  0  0  0  0  0
    4.7700   -3.6430   24.9550 C   0  0  0  0  0  0  0  0  0  0  0  0
    3.4580   -4.0550   25.1570 C   0  0  0  0  0  0  0  0  0  0  0  0
    2.6530   -3.6330   26.2250 C   0  0  0  0  0  0  0  0  0  0  0  0
    6.8270   -4.4960   21.4980 N   0  0  0  0  0  0  0  0  0  0  0  0
    7.1000   -3.6300   22.4830 C   0  0  2  0  0  0  0  0  0  0  0  0
    6.0090   -3.0310   23.0470 C   0  0  0  0  0  0  0  0  0  0  0  0
    5.5260   -4.0660   23.9120 N   0  0  0  0  0  0  0  0  0  0  0  0
    5.1760   -5.2290   23.2930 C   0  0  0  0  0  0  0  0  0  0  0  0
    6.1450   -5.5970   22.1380 C   0  0  0  0  0  0  0  0  0  0  0  0
   12.0870   -0.1330   24.8640 N   0  0  0  0  0  0  0  0  0  0  0  0
   12.8670   -0.5740   23.8900 C   0  0  0  0  0  0  0  0  0  0  0  0
   12.3030   -0.9310   22.5350 C   0  0  0  0  0  0  0  0  0  0  0  0
   10.9470   -0.7900   22.3360 C   0  0  0  0  0  0  0  0  0  0  0  0
   10.1460   -0.3350   23.3320 C   0  0  0  0  0  0  0  0  0  0  0  0
   10.6940   -0.0200   24.5450 C   0  0  0  0  0  0  0  0  0  0  0  0
    6.3000    0.7440   17.5420 N   0  0  0  0  0  0  0  0  0  0  0  0
    6.9030    0.2030   18.7220 C   0  0  0  0  0  0  0  0  0  0  0  0
    6.4240    0.4030   19.9980 C   0  0  0  0  0  0  0  0  0  0  0  0
    5.2860    1.1420   20.2990 C   0  0  0  0  0  0  0  0  0  0  0  0
    4.5760    1.7540   19.1100 C   0  0  0  0  0  0  0  0  0  0  0  0
    5.1800    1.4970   17.7340 C   0  0  0  0  0  0  0  0  0  0  0  0
  1  2  1  0
  3  4  2  0
  4  5  1  0
  6  7  2  0
  6  8  1  0
  6 10  1  0
  9 11  3  0
  8 13  1  6
 12 13  1  0
  2 14  1  0
 14 15  2  0
 15 16  1  0
 16 17  2  0
 17 18  1  0
 14 19  1  0
 18 19  2  0
  4 20  1  0
 21 12  1  6
 20 21  1  0
 21 22  1  0
 17 23  1  0
 22 23  1  0
 23 24  1  0
 20 25  1  0
 24 25  1  0
 26 27  2  0
 11 28  1  0
 27 28  1  0
 28 29  2  0
  8 30  1  0
 29 30  1  0
 26 31  1  0
 30 31  2  0
 32 33  2  0
 10 34  1  0
 33 34  1  0
 34 35  2  0
 35 36  1  0
 32 37  1  0
 36 37  2  0
M  END
