x1425-x1412
     RDKit          3D

 25 27  0  0  0  0  0  0  0  0999 V2000
    1.4330   -2.3290   28.3620 C   0  0  0  0  0  0  0  0  0  0  0  0
    2.6580   -2.2070   28.4270 O   0  0  0  0  0  0  0  0  0  0  0  0
    5.0570   -4.3900   19.7190 O   0  0  0  0  0  0  0  0  0  0  0  0
    6.1090   -3.9080   20.0470 C   0  0  0  0  0  0  0  0  0  0  0  0
    7.0510   -3.2010   19.0700 C   0  0  0  0  0  0  0  0  0  0  0  0
    3.3660   -2.5570   27.3090 C   0  0  0  0  0  0  0  0  0  0  0  0
    4.7640   -1.9670   27.0870 C   0  0  0  0  0  0  0  0  0  0  0  0
    5.5280   -2.3640   25.8380 C   0  0  0  0  0  0  0  0  0  0  0  0
    4.9800   -3.3330   24.7710 C   0  0  0  0  0  0  0  0  0  0  0  0
    3.5640   -3.9180   25.0190 C   0  0  0  0  0  0  0  0  0  0  0  0
    2.7890   -3.5230   26.2720 C   0  0  0  0  0  0  0  0  0  0  0  0
    6.4990   -3.9950   21.3320 N   0  0  0  0  0  0  0  0  0  0  0  0
    7.0120   -2.7650   21.8990 C   0  0  0  0  0  0  0  0  0  0  0  0
    6.8290   -2.7380   23.2580 C   0  0  1  0  0  0  0  0  0  0  0  0
    5.7250   -3.6570   23.6530 N   0  0  0  0  0  0  0  0  0  0  0  0
    5.8650   -5.0140   23.2980 C   0  0  0  0  0  0  0  0  0  0  0  0
    6.5160   -5.2590   22.1160 C   0  0  0  0  0  0  0  0  0  0  0  0
    8.4880   -1.3770   25.3370 O   0  0  0  0  0  0  0  0  0  0  0  0
    8.3940   -2.7290   25.0760 C   0  0  0  0  0  0  0  0  0  0  0  0
    9.3520   -4.7360   25.6090 C   0  0  0  0  0  0  0  0  0  0  0  0
    8.4540   -3.8290   26.1490 C   0  0  0  0  0  0  0  0  0  0  0  0
    7.7290   -4.1350   27.6630 S   0  0  0  0  0  0  0  0  0  0  0  0
    8.6070   -5.5960   27.7290 C   0  0  0  0  0  0  0  0  0  0  0  0
    9.4930   -5.8210   26.4970 C   0  0  0  0  0  0  0  0  0  0  0  0
    8.2180   -3.1430   23.7730 C   0  0  0  0  0  0  0  0  0  0  0  0
  1  2  1  0
  3  4  2  0
  4  5  1  0
  2  6  1  0
  6  7  2  0
  7  8  1  0
  8  9  2  0
  9 10  1  0
  6 11  1  0
 10 11  2  0
  4 12  1  0
 12 13  1  0
 13 14  1  0
  9 15  1  0
 14 15  1  0
 15 16  1  0
 12 17  1  0
 16 17  1  0
 18 19  2  0
 19 21  1  0
 20 21  2  0
 21 22  1  0
 22 23  1  0
 20 24  1  0
 23 24  2  0
 14 25  1  1
 19 25  1  0
M  END
