x1425-x0434
     RDKit          3D

 34 37  0  0  0  0  0  0  0  0999 V2000
    1.3280   -2.3940   28.1530 C   0  0  0  0  0  0  0  0  0  0  0  0
    2.5320   -2.2190   28.3450 O   0  0  0  0  0  0  0  0  0  0  0  0
    5.1040   -4.6830   19.8590 O   0  0  0  0  0  0  0  0  0  0  0  0
    6.0960   -4.1220   20.2420 C   0  0  0  0  0  0  0  0  0  0  0  0
    6.9400   -3.2760   19.2950 C   0  0  0  0  0  0  0  0  0  0  0  0
    8.7970    0.9410   21.2110 O   0  0  0  0  0  0  0  0  0  0  0  0
    8.3830   -0.3700   21.5790 C   0  0  0  0  0  0  0  0  0  0  0  0
    9.1480   -1.2350   22.4140 N   0  0  0  0  0  0  0  0  0  0  0  0
    7.0960   -0.8150   21.0720 N   0  0  0  0  0  0  0  0  0  0  0  0
    6.3290   -1.8650   21.7080 C   0  0  0  0  0  0  0  0  0  0  0  0
    3.3800   -2.5360   27.3250 C   0  0  0  0  0  0  0  0  0  0  0  0
    4.8080   -2.0260   27.1280 C   0  0  0  0  0  0  0  0  0  0  0  0
    5.6070   -2.4960   25.9240 C   0  0  0  0  0  0  0  0  0  0  0  0
    5.0540   -3.4600   24.8920 C   0  0  0  0  0  0  0  0  0  0  0  0
    3.5910   -3.9500   25.1330 C   0  0  0  0  0  0  0  0  0  0  0  0
    2.8490   -3.5130   26.2550 C   0  0  0  0  0  0  0  0  0  0  0  0
    6.4830   -4.2740   21.5560 N   0  0  0  0  0  0  0  0  0  0  0  0
    7.0530   -3.0820   22.1880 C   0  0  2  0  0  0  0  0  0  0  0  0
    7.0890   -3.2580   23.5470 C   0  0  0  0  0  0  0  0  0  0  0  0
    5.7930   -3.8780   23.8100 N   0  0  0  0  0  0  0  0  0  0  0  0
    5.4410   -5.0020   22.9600 C   0  0  0  0  0  0  0  0  0  0  0  0
    6.5120   -5.4770   22.1930 C   0  0  0  0  0  0  0  0  0  0  0  0
   10.5250    0.4640   23.3300 C   0  0  0  0  0  0  0  0  0  0  0  0
   11.8730    1.1090   23.5890 C   0  0  0  0  0  0  0  0  0  0  0  0
   13.0910    0.3830   23.0390 C   0  0  0  0  0  0  0  0  0  0  0  0
   12.9130   -0.9170   22.2930 C   0  0  0  0  0  0  0  0  0  0  0  0
   11.5070   -1.4390   22.1110 C   0  0  0  0  0  0  0  0  0  0  0  0
   10.4190   -0.7360   22.6210 C   0  0  0  0  0  0  0  0  0  0  0  0
    5.1770    0.7180   20.2990 C   0  0  0  0  0  0  0  0  0  0  0  0
    4.6610    1.3920   19.1940 C   0  0  0  0  0  0  0  0  0  0  0  0
    5.2690    1.3360   17.9520 C   0  0  0  0  0  0  0  0  0  0  0  0
    6.3910    0.6240   17.7450 N   0  0  0  0  0  0  0  0  0  0  0  0
    6.9600   -0.0650   18.7550 C   0  0  0  0  0  0  0  0  0  0  0  0
    6.4600   -0.0910   20.0560 C   0  0  0  0  0  0  0  0  0  0  0  0
  1  2  1  0
  3  4  2  0
  4  5  1  0
  6  7  2  0
  7  8  1  0
  7  9  1  0
  9 10  1  0
  2 11  1  0
 11 12  2  0
 12 13  1  0
 13 14  2  0
 14 15  1  0
 11 16  1  0
 15 16  2  0
  4 17  1  0
 18 10  1  1
 17 18  1  0
 18 19  1  0
 14 20  1  0
 19 20  1  0
 20 21  1  0
 17 22  1  0
 21 22  1  0
 23 24  2  0
 24 25  1  0
 25 26  2  0
 26 27  1  0
  8 28  1  0
 23 28  1  0
 27 28  2  0
 29 30  2  0
 30 31  1  0
 31 32  2  0
 32 33  1  0
  9 34  1  0
 29 34  1  0
 33 34  2  0
M  END
