x1425-x2910
     RDKit          3D

 41 45  0  0  0  0  0  0  0  0999 V2000
    6.9790   -1.6900   21.4830 N   0  0  0  0  0  0  0  0  0  0  0  0
   10.1990    2.4330   23.7490 C   0  0  0  0  0  0  0  0  0  0  0  0
    9.9020    1.2460   23.5850 O   0  0  0  0  0  0  0  0  0  0  0  0
    9.1690   -1.3510   22.5880 O   0  0  0  0  0  0  0  0  0  0  0  0
    5.0460   -2.6480   20.7680 O   0  0  0  0  0  0  0  0  0  0  0  0
    6.4300    1.3170   16.7560 O   0  0  0  0  0  0  0  0  0  0  0  0
    9.0110   -2.5610   22.2740 C   0  0  0  0  0  0  0  0  0  0  0  0
    5.8110   -1.7040   20.7740 C   0  0  0  0  0  0  0  0  0  0  0  0
    1.5310   -2.3720   28.2660 C   0  0  0  0  0  0  0  0  0  0  0  0
    2.7380   -2.3150   28.4730 O   0  0  0  0  0  0  0  0  0  0  0  0
    5.4650   -4.5760   19.9400 O   0  0  0  0  0  0  0  0  0  0  0  0
    6.5160   -3.9970   20.2530 C   0  0  0  0  0  0  0  0  0  0  0  0
    7.3100   -3.2620   19.2160 C   0  0  0  0  0  0  0  0  0  0  0  0
   10.9720    0.4510   23.1020 C   0  0  0  0  0  0  0  0  0  0  0  0
   10.4850   -0.9330   22.5830 C   0  0  0  0  0  0  0  0  0  0  0  0
   11.6170   -1.8070   22.0550 C   0  0  0  0  0  0  0  0  0  0  0  0
   13.0440   -1.2290   22.1000 C   0  0  0  0  0  0  0  0  0  0  0  0
   13.2650    0.0500   22.6090 C   0  0  0  0  0  0  0  0  0  0  0  0
   12.2980    0.8760   23.0960 C   0  0  0  0  0  0  0  0  0  0  0  0
    4.7900    1.8710   18.3770 N   0  0  0  0  0  0  0  0  0  0  0  0
    4.1040    1.5760   19.6300 C   0  0  0  0  0  0  0  0  0  0  0  0
    4.4580    0.4300   20.3850 C   0  0  0  0  0  0  0  0  0  0  0  0
    5.4570   -0.4540   19.9500 C   0  0  0  0  0  0  0  0  0  0  0  0
    6.1520   -0.2390   18.7720 C   0  0  0  0  0  0  0  0  0  0  0  0
    5.8000    0.9780   17.9590 C   0  0  0  0  0  0  0  0  0  0  0  0
    3.1100    2.4610   20.0330 C   0  0  0  0  0  0  0  0  0  0  0  0
    2.3130    2.2940   21.3120 C   0  0  0  0  0  0  0  0  0  0  0  0
    2.7050    1.0640   22.1250 C   0  0  0  0  0  0  0  0  0  0  0  0
    3.7090    0.2070   21.6720 C   0  0  0  0  0  0  0  0  0  0  0  0
    3.5420   -2.5950   27.3180 C   0  0  0  0  0  0  0  0  0  0  0  0
    4.6860   -1.8710   26.9160 C   0  0  0  0  0  0  0  0  0  0  0  0
    5.3740   -2.2590   25.7470 C   0  0  0  0  0  0  0  0  0  0  0  0
    5.0090   -3.3410   24.9200 C   0  0  0  0  0  0  0  0  0  0  0  0
    3.8930   -4.0750   25.2930 C   0  0  0  0  0  0  0  0  0  0  0  0
    3.1340   -3.6870   26.5350 C   0  0  0  0  0  0  0  0  0  0  0  0
    7.0730   -4.0790   21.5350 N   0  0  0  0  0  0  0  0  0  0  0  0
    7.4490   -2.8630   22.2290 C   0  0  2  0  0  0  0  0  0  0  0  0
    6.9800   -2.8880   23.6740 C   0  0  0  0  0  0  0  0  0  0  0  0
    5.7010   -3.6590   23.8080 N   0  0  0  0  0  0  0  0  0  0  0  0
    5.6120   -5.0290   23.2430 C   0  0  0  0  0  0  0  0  0  0  0  0
    6.8310   -5.2700   22.3700 C   0  0  0  0  0  0  0  0  0  0  0  0
  2  3  1  0
  4  7  1  0
  1  8  1  0
  5  8  2  0
  9 10  1  0
 11 12  2  0
 12 13  1  0
  3 14  1  0
  4 15  1  0
 14 15  2  0
 15 16  1  0
 16 17  2  0
 17 18  1  0
 14 19  1  0
 18 19  2  0
 20 21  2  0
 21 22  1  0
  8 23  1  0
 22 23  2  0
 23 24  1  0
  6 25  1  0
 20 25  1  0
 24 25  2  0
 21 26  1  0
 26 27  2  0
 27 28  1  0
 22 29  1  0
 28 29  2  0
 10 30  1  0
 30 31  2  0
 31 32  1  0
 32 33  2  0
 33 34  1  0
 30 35  1  0
 34 35  2  0
 12 36  1  0
 37  1  1  0
 37  7  1  1
 36 37  1  0
 37 38  1  0
 33 39  1  0
 38 39  1  0
 39 40  1  0
 36 41  1  0
 40 41  1  0
M  END
