x1425-x2563
     RDKit          3D

 38 42  0  0  0  0  0  0  0  0999 V2000
    1.4860   -2.3260   28.2950 C   0  0  0  0  0  0  0  0  0  0  0  0
    2.7140   -2.2010   28.3500 O   0  0  0  0  0  0  0  0  0  0  0  0
    5.2150   -4.5180   19.8380 O   0  0  0  0  0  0  0  0  0  0  0  0
    6.3100   -4.0880   20.1590 C   0  0  0  0  0  0  0  0  0  0  0  0
    7.1700   -3.3170   19.1520 C   0  0  0  0  0  0  0  0  0  0  0  0
    8.5240    0.0880   21.2330 C   0  0  0  0  0  0  0  0  0  0  0  0
    8.6770    1.3120   21.0730 O   0  0  0  0  0  0  0  0  0  0  0  0
    7.1820   -0.5750   21.0590 C   0  0  2  0  0  0  0  0  0  0  0  0
    9.6410   -0.6890   21.5440 N   0  0  0  0  0  0  0  0  0  0  0  0
    7.4570   -2.0480   20.9550 C   0  0  0  0  0  0  0  0  0  0  0  0
    3.3960   -2.6490   27.1830 C   0  0  0  0  0  0  0  0  0  0  0  0
    4.8040   -2.0640   27.0770 C   0  0  0  0  0  0  0  0  0  0  0  0
    5.6240   -2.4680   25.8810 C   0  0  0  0  0  0  0  0  0  0  0  0
    4.9470   -3.4410   24.8790 C   0  0  0  0  0  0  0  0  0  0  0  0
    3.6250   -3.8990   25.1150 C   0  0  0  0  0  0  0  0  0  0  0  0
    2.8620   -3.5240   26.2270 C   0  0  0  0  0  0  0  0  0  0  0  0
    6.8150   -4.3230   21.4240 N   0  0  0  0  0  0  0  0  0  0  0  0
    7.1760   -3.0730   22.0920 C   0  0  2  0  0  0  0  0  0  0  0  0
    6.1600   -2.6410   22.9520 C   0  0  0  0  0  0  0  0  0  0  0  0
    5.7220   -3.7950   23.7920 N   0  0  0  0  0  0  0  0  0  0  0  0
    5.4790   -4.9740   23.1780 C   0  0  0  0  0  0  0  0  0  0  0  0
    6.4200   -5.4420   22.2720 C   0  0  0  0  0  0  0  0  0  0  0  0
    6.2660    0.5890   17.6670 N   0  0  0  0  0  0  0  0  0  0  0  0
    5.1340    1.3000   17.8480 C   0  0  0  0  0  0  0  0  0  0  0  0
    4.4850    1.4650   19.2170 C   0  0  0  0  0  0  0  0  0  0  0  0
    5.1890    0.7990   20.3630 C   0  0  0  0  0  0  0  0  0  0  0  0
    6.4270    0.0660   20.0210 C   0  0  0  0  0  0  0  0  0  0  0  0
    6.8730    0.0040   18.7130 C   0  0  0  0  0  0  0  0  0  0  0  0
    3.3380    2.1540   19.5070 C   0  0  0  0  0  0  0  0  0  0  0  0
    2.7840    2.2780   20.7840 C   0  0  0  0  0  0  0  0  0  0  0  0
    3.4600    1.6480   21.8430 C   0  0  0  0  0  0  0  0  0  0  0  0
    4.6330    0.9250   21.6470 C   0  0  0  0  0  0  0  0  0  0  0  0
   11.7570   -0.6910   22.6280 C   0  0  0  0  0  0  0  0  0  0  0  0
   12.6640   -0.5910   23.7990 C   0  0  0  0  0  0  0  0  0  0  0  0
   12.0720   -0.3820   25.1590 C   0  0  0  0  0  0  0  0  0  0  0  0
   10.5470   -0.2680   25.3120 C   0  0  0  0  0  0  0  0  0  0  0  0
    9.6810   -0.3670   24.0850 C   0  0  0  0  0  0  0  0  0  0  0  0
   10.3870   -0.5830   22.7670 C   0  0  0  0  0  0  0  0  0  0  0  0
  1  2  1  0
  3  4  2  0
  4  5  1  0
  6  7  2  0
  6  8  1  0
  6  9  1  0
  8 10  1  6
  2 11  1  0
 11 12  2  0
 12 13  1  0
 13 14  2  0
 14 15  1  0
 11 16  1  0
 15 16  2  0
  4 17  1  0
 18 10  1  6
 17 18  1  0
 18 19  1  0
 14 20  1  0
 19 20  1  0
 20 21  1  0
 17 22  1  0
 21 22  1  0
 23 24  2  0
 24 25  1  0
 25 26  2  0
  8 27  1  0
 26 27  1  0
 23 28  1  0
 27 28  2  0
 25 29  1  0
 29 30  2  0
 30 31  1  0
 26 32  1  0
 31 32  2  0
 33 34  2  0
 34 35  1  0
 35 36  2  0
 36 37  1  0
  9 38  1  0
 33 38  1  0
 37 38  2  0
M  END
