x1425-x0678
     RDKit          3D

 34 37  0  0  0  0  0  0  0  0999 V2000
    1.4990   -2.3390   28.2450 C   0  0  0  0  0  0  0  0  0  0  0  0
    2.7140   -2.1270   28.2640 O   0  0  0  0  0  0  0  0  0  0  0  0
    5.1770   -4.4150   19.8140 O   0  0  0  0  0  0  0  0  0  0  0  0
    6.2390   -3.9420   20.1920 C   0  0  0  0  0  0  0  0  0  0  0  0
    7.1090   -3.1710   19.2180 C   0  0  0  0  0  0  0  0  0  0  0  0
    9.0770    1.2650   21.3020 O   0  0  0  0  0  0  0  0  0  0  0  0
    8.6040    0.0140   21.8490 C   0  0  0  0  0  0  0  0  0  0  0  0
    9.2560   -0.5870   23.1130 C   0  0  0  0  0  0  0  0  0  0  0  0
    7.4970   -0.6240   21.1850 N   0  0  0  0  0  0  0  0  0  0  0  0
    6.6950   -1.6410   21.8820 C   0  0  0  0  0  0  0  0  0  0  0  0
    3.4150   -2.6080   27.1210 C   0  0  0  0  0  0  0  0  0  0  0  0
    4.8510   -2.0940   27.0670 C   0  0  0  0  0  0  0  0  0  0  0  0
    5.6980   -2.5340   25.9010 C   0  0  0  0  0  0  0  0  0  0  0  0
    5.0140   -3.4720   24.8680 C   0  0  0  0  0  0  0  0  0  0  0  0
    3.6610   -3.8630   25.0570 C   0  0  0  0  0  0  0  0  0  0  0  0
    2.8750   -3.4540   26.1410 C   0  0  0  0  0  0  0  0  0  0  0  0
    6.6790   -4.1640   21.4840 N   0  0  0  0  0  0  0  0  0  0  0  0
    7.3090   -3.0330   22.2290 C   0  0  2  0  0  0  0  0  0  0  0  0
    7.1300   -3.2200   23.6040 C   0  0  0  0  0  0  0  0  0  0  0  0
    5.8050   -3.8780   23.8020 N   0  0  0  0  0  0  0  0  0  0  0  0
    5.6790   -5.1260   23.3140 C   0  0  0  0  0  0  0  0  0  0  0  0
    6.4510   -5.4200   22.2050 C   0  0  0  0  0  0  0  0  0  0  0  0
   11.0610   -1.5620   22.0620 C   0  0  0  0  0  0  0  0  0  0  0  0
   12.5150   -2.0610   21.9790 C   0  0  0  0  0  0  0  0  0  0  0  0
   13.3770   -1.5360   23.1270 C   0  0  0  0  0  0  0  0  0  0  0  0
   12.6000   -0.9920   24.3020 C   0  0  0  0  0  0  0  0  0  0  0  0
   11.2590   -1.2990   24.2140 C   0  0  0  0  0  0  0  0  0  0  0  0
   10.7270   -0.7020   23.0940 C   0  0  0  0  0  0  0  0  0  0  0  0
    5.7050    0.8460   20.4390 C   0  0  0  0  0  0  0  0  0  0  0  0
    5.0200    1.4580   19.3870 C   0  0  0  0  0  0  0  0  0  0  0  0
    5.3820    1.2650   18.0580 C   0  0  0  0  0  0  0  0  0  0  0  0
    6.4110    0.4750   17.7080 N   0  0  0  0  0  0  0  0  0  0  0  0
    7.0830   -0.1280   18.7000 C   0  0  0  0  0  0  0  0  0  0  0  0
    6.7380    0.0500   20.1490 C   0  0  0  0  0  0  0  0  0  0  0  0
  1  2  1  0
  3  4  2  0
  4  5  1  0
  6  7  2  0
  7  8  1  0
  7  9  1  0
  9 10  1  0
  2 11  1  0
 11 12  2  0
 12 13  1  0
 13 14  2  0
 14 15  1  0
 11 16  1  0
 15 16  2  0
  4 17  1  0
 18 10  1  6
 17 18  1  0
 18 19  1  0
 14 20  1  0
 19 20  1  0
 20 21  1  0
 17 22  1  0
 21 22  1  0
 23 24  1  0
 24 25  1  0
 25 26  1  0
 26 27  1  0
  8 28  1  0
 23 28  1  0
 27 28  1  0
 29 30  2  0
 30 31  1  0
 31 32  2  0
 32 33  1  0
  9 34  1  0
 29 34  1  0
 33 34  2  0
M  END
