x1425-x0691
     RDKit          3D

 22 23  0  0  0  0  0  0  0  0999 V2000
    3.8990   -6.8490   26.1290 O   0  0  0  0  0  0  0  0  0  0  0  0
    5.7750   -5.4170   26.9620 O   0  0  0  0  0  0  0  0  0  0  0  0
    5.4560   -5.2090   20.0460 O   0  0  0  0  0  0  0  0  0  0  0  0
    6.4180   -4.8620   20.7490 C   0  0  0  0  0  0  0  0  0  0  0  0
    7.2740   -3.6740   20.3200 C   0  0  0  0  0  0  0  0  0  0  0  0
    3.6330   -0.2670   26.4780 F   0  0  0  0  0  0  0  0  0  0  0  0
    4.7100   -5.6610   26.0130 S   0  0  0  0  0  0  0  0  0  0  0  0
    3.3000   -1.5460   26.2480 C   0  0  0  0  0  0  0  0  0  0  0  0
    4.2230   -2.7750   26.2860 C   0  0  0  0  0  0  0  0  0  0  0  0
    3.6560   -4.2310   25.9770 C   0  0  0  0  0  0  0  0  0  0  0  0
    2.1090   -4.3950   25.6290 C   0  0  0  0  0  0  0  0  0  0  0  0
    1.1820   -3.1310   25.5980 C   0  0  0  0  0  0  0  0  0  0  0  0
    2.0470   -1.9430   25.9310 C   0  0  0  0  0  0  0  0  0  0  0  0
    6.7410   -5.5320   21.9320 N   0  0  0  0  0  0  0  0  0  0  0  0
    5.8230   -6.6180   22.2720 C   0  0  0  0  0  0  0  0  0  0  0  0
    4.8600   -6.4840   23.4790 C   0  0  0  0  0  0  0  0  0  0  0  0
    5.3740   -5.6380   24.4790 N   0  0  0  0  0  0  0  0  0  0  0  0
    6.0460   -4.4240   23.9870 C   0  0  0  0  0  0  0  0  0  0  0  0
    7.0850   -4.7230   23.1300 C   0  0  0  0  0  0  0  0  0  0  0  0
    2.8320   -3.6220   27.3380 C   0  0  0  0  0  0  0  0  0  0  0  0
    1.5830   -3.2540   27.9150 O   0  0  0  0  0  0  0  0  0  0  0  0
    2.8880   -3.1740   25.9850 C   0  0  0  0  0  0  0  0  0  0  0  0
  3  4  2  0
  4  5  1  0
  1  7  2  0
  2  7  2  0
  6  8  1  0
  8  9  2  0
  7 10  1  0
  9 10  1  0
 10 11  2  0
 11 12  1  0
  8 13  1  0
 12 13  2  0
  4 14  1  0
 14 15  1  0
 15 16  1  0
  7 17  1  0
 16 17  1  0
 17 18  1  0
 14 19  1  0
 18 19  1  0
 20 21  1  0
 13 22  1  0
 20 22  1  0
M  END
