x1425-x1493
     RDKit          3D

 21 22  0  0  0  0  0  0  0  0999 V2000
    1.4290   -2.3020   28.4430 C   0  0  0  0  0  0  0  0  0  0  0  0
    2.6580   -2.1810   28.4400 O   0  0  0  0  0  0  0  0  0  0  0  0
    5.1280   -4.4050   19.7920 O   0  0  0  0  0  0  0  0  0  0  0  0
    6.2210   -4.0130   20.1530 C   0  0  0  0  0  0  0  0  0  0  0  0
    7.0950   -3.2140   19.2020 C   0  0  0  0  0  0  0  0  0  0  0  0
    3.2980   -2.5400   27.2820 C   0  0  0  0  0  0  0  0  0  0  0  0
    4.7130   -2.0180   27.0060 C   0  0  0  0  0  0  0  0  0  0  0  0
    5.3960   -2.4310   25.7130 C   0  0  0  0  0  0  0  0  0  0  0  0
    4.7450   -3.3480   24.6590 C   0  0  0  0  0  0  0  0  0  0  0  0
    3.3150   -3.8600   24.9610 C   0  0  0  0  0  0  0  0  0  0  0  0
    2.6230   -3.4510   26.2580 C   0  0  0  0  0  0  0  0  0  0  0  0
    6.7010   -4.3230   21.4110 N   0  0  0  0  0  0  0  0  0  0  0  0
    7.3600   -3.2880   22.2010 C   0  0  0  0  0  0  0  0  0  0  0  0
    6.4490   -2.7090   23.0890 C   0  0  0  0  0  0  0  0  0  0  0  0
    5.4200   -3.6970   23.5010 N   0  0  0  0  0  0  0  0  0  0  0  0
    5.8090   -5.0530   23.4150 C   0  0  1  0  0  0  0  0  0  0  0  0
    6.2030   -5.4960   22.1620 C   0  0  0  0  0  0  0  0  0  0  0  0
    4.9160   -5.8650   25.8310 C   0  0  0  0  0  0  0  0  0  0  0  0
    7.2820   -5.7090   26.6240 O   0  0  0  0  0  0  0  0  0  0  0  0
    6.2710   -5.6050   25.6270 C   0  0  0  0  0  0  0  0  0  0  0  0
    6.8070   -5.2550   24.3800 C   0  0  0  0  0  0  0  0  0  0  0  0
  1  2  1  0
  3  4  2  0
  4  5  1  0
  2  6  1  0
  6  7  2  0
  7  8  1  0
  8  9  2  0
  9 10  1  0
  6 11  1  0
 10 11  2  0
  4 12  1  0
 12 13  1  0
 13 14  1  0
  9 15  1  0
 14 15  1  0
 15 16  1  0
 12 17  1  0
 16 17  1  0
 18 20  1  0
 19 20  2  0
 16 21  1  1
 20 21  1  0
M  END
