x1425-x0731
     RDKit          3D

 21 22  0  0  0  0  0  0  0  0999 V2000
    0.5600   -1.3130   26.2100 C   0  0  0  0  0  0  0  0  0  0  0  0
    6.2690   -5.0080   26.8780 O   0  0  0  0  0  0  0  0  0  0  0  0
    4.7700   -6.7700   25.9730 O   0  0  0  0  0  0  0  0  0  0  0  0
    5.2840   -5.0970   19.9950 O   0  0  0  0  0  0  0  0  0  0  0  0
    6.2510   -4.5840   20.5200 C   0  0  0  0  0  0  0  0  0  0  0  0
    6.9790   -3.4870   19.7650 C   0  0  0  0  0  0  0  0  0  0  0  0
    5.3510   -5.4530   25.8710 S   0  0  0  0  0  0  0  0  0  0  0  0
    1.9010   -1.3220   28.8270 C   0  0  0  0  0  0  0  0  0  0  0  0
    2.7890   -1.1610   27.9820 O   0  0  0  0  0  0  0  0  0  0  0  0
    1.6910   -2.2890   26.1260 C   0  0  0  0  0  0  0  0  0  0  0  0
    1.6450   -3.4020   25.0910 C   0  0  0  0  0  0  0  0  0  0  0  0
    2.7860   -4.4100   24.9770 C   0  0  0  0  0  0  0  0  0  0  0  0
    3.9730   -4.2750   25.9290 C   0  0  0  0  0  0  0  0  0  0  0  0
    4.0260   -3.1750   26.9620 C   0  0  0  0  0  0  0  0  0  0  0  0
    2.8680   -2.1630   27.0780 C   0  0  0  0  0  0  0  0  0  0  0  0
    6.6950   -5.0310   21.7480 N   0  0  0  0  0  0  0  0  0  0  0  0
    7.2320   -4.1490   22.7850 C   0  0  0  0  0  0  0  0  0  0  0  0
    6.4610   -4.0330   23.9280 C   0  0  0  0  0  0  0  0  0  0  0  0
    6.0440   -5.3100   24.3500 N   0  0  0  0  0  0  0  0  0  0  0  0
    5.3520   -6.0990   23.3190 C   0  0  0  0  0  0  0  0  0  0  0  0
    6.2300   -6.3290   22.2670 C   0  0  0  0  0  0  0  0  0  0  0  0
  4  5  2  0
  5  6  1  0
  2  7  2  0
  3  7  2  0
  8  9  1  0
  1 10  1  0
 10 11  2  0
 11 12  1  0
  7 13  1  0
 12 13  2  0
 13 14  1  0
  9 15  1  0
 10 15  1  0
 14 15  2  0
  5 16  1  0
 16 17  1  0
 17 18  1  0
  7 19  1  0
 18 19  1  0
 19 20  1  0
 16 21  1  0
 20 21  1  0
M  END
