x1425-x1249
     RDKit          3D

 37 40  0  0  0  0  0  0  0  0999 V2000
    1.3720   -2.2910   28.3970 C   0  0  0  0  0  0  0  0  0  0  0  0
    2.5790   -2.0340   28.4420 O   0  0  0  0  0  0  0  0  0  0  0  0
    5.1370   -4.4010   19.7920 O   0  0  0  0  0  0  0  0  0  0  0  0
    6.2220   -3.9920   20.1610 C   0  0  0  0  0  0  0  0  0  0  0  0
    7.1290   -3.2360   19.2160 C   0  0  0  0  0  0  0  0  0  0  0  0
    5.8130   -1.7090   23.2140 C   0  0  0  0  0  0  0  0  0  0  0  0
    3.3160   -2.5580   27.3340 C   0  0  0  0  0  0  0  0  0  0  0  0
    4.7500   -2.0700   27.1710 C   0  0  0  0  0  0  0  0  0  0  0  0
    5.6130   -2.5790   26.0210 C   0  0  0  0  0  0  0  0  0  0  0  0
    5.0110   -3.5890   25.0300 C   0  0  0  0  0  0  0  0  0  0  0  0
    3.5740   -4.0640   25.2050 C   0  0  0  0  0  0  0  0  0  0  0  0
    2.6910   -3.5540   26.3720 C   0  0  0  0  0  0  0  0  0  0  0  0
    6.6900   -4.2420   21.4240 N   0  0  0  0  0  0  0  0  0  0  0  0
    7.3400   -3.2310   22.2330 C   0  0  0  0  0  0  0  0  0  0  0  0
    6.7190   -2.9120   23.4190 C   0  0  2  0  0  0  0  0  0  0  0  0
    5.9710   -3.9880   23.9710 N   0  0  0  0  0  0  0  0  0  0  0  0
    5.4310   -5.0630   23.1040 C   0  0  0  0  0  0  0  0  0  0  0  0
    6.3700   -5.4600   22.1690 C   0  0  0  0  0  0  0  0  0  0  0  0
    8.0490    0.5140   25.0440 N   0  0  0  0  0  0  0  0  0  0  0  0
    7.5200    1.2930   24.0890 C   0  0  0  0  0  0  0  0  0  0  0  0
    8.1010    2.2760   23.6350 O   0  0  0  0  0  0  0  0  0  0  0  0
    9.4170    0.8700   25.3800 C   0  0  0  0  0  0  0  0  0  0  0  0
   13.8510   -1.7250   20.5850 N   0  0  0  0  0  0  0  0  0  0  0  0
   13.0900   -1.3970   21.5770 C   0  0  0  0  0  0  0  0  0  0  0  0
    3.5660    1.1960   23.7330 O   0  0  0  0  0  0  0  0  0  0  0  0
    4.1800    1.2760   22.5300 C   0  0  0  0  0  0  0  0  0  0  0  0
    5.5770    1.8430   22.6690 C   0  0  0  0  0  0  0  0  0  0  0  0
    6.2540    0.8990   23.6600 C   0  0  0  0  0  0  0  0  0  0  0  0
    5.5590    0.6180   24.8440 C   0  0  0  0  0  0  0  0  0  0  0  0
    4.1890    0.4170   24.6500 C   0  0  0  0  0  0  0  0  0  0  0  0
   11.4830    0.9820   23.9280 C   0  0  0  0  0  0  0  0  0  0  0  0
   12.3450    0.3860   23.0150 C   0  0  0  0  0  0  0  0  0  0  0  0
   12.1110   -0.9150   22.5650 C   0  0  0  0  0  0  0  0  0  0  0  0
   11.0680   -1.7230   22.9540 C   0  0  0  0  0  0  0  0  0  0  0  0
   10.1060   -1.1470   23.9380 C   0  0  0  0  0  0  0  0  0  0  0  0
   10.3690    0.2740   24.4110 C   0  0  0  0  0  0  0  0  0  0  0  0
    6.5520   -0.4100   22.8550 C   0  0  0  0  0  0  0  0  0  0  0  0
  1  2  1  0
  3  4  2  0
  4  5  1  0
  2  7  1  0
  7  8  2  0
  8  9  1  0
  9 10  2  0
 10 11  1  0
  7 12  1  0
 11 12  2  0
  4 13  1  0
 13 14  1  0
 15  6  1  6
 14 15  1  0
 10 16  1  0
 15 16  1  0
 16 17  1  0
 13 18  1  0
 17 18  1  0
 19 20  1  0
 20 21  2  0
 19 22  1  0
 23 24  3  0
 25 26  1  0
 26 27  1  0
 28 20  1  0
 27 28  1  0
 28 29  1  0
 25 30  1  0
 29 30  1  0
 31 32  2  0
 24 33  1  0
 32 33  1  0
 33 34  2  0
 34 35  1  0
 22 36  1  0
 31 36  1  0
 35 36  2  0
  6 37  1  0
 28 37  1  0
M  END
