x1425-x3108
     RDKit          3D

 39 42  0  0  0  0  0  0  0  0999 V2000
    6.0250    1.7620   22.0240 C   0  0  0  0  0  0  0  0  0  0  0  0
    9.2960    1.8930   21.3920 O   0  0  0  0  0  0  0  0  0  0  0  0
    8.2180   -0.1550   21.3070 N   0  0  0  0  0  0  0  0  0  0  0  0
    8.3110    0.0330   25.3390 O   0  0  0  0  0  0  0  0  0  0  0  0
    9.7340   -1.0270   23.4950 N   0  0  0  0  0  0  0  0  0  0  0  0
    9.1760    0.7290   21.7880 C   0  0  0  0  0  0  0  0  0  0  0  0
   10.1570    0.1990   22.8630 C   0  0  0  0  0  0  0  0  0  0  0  0
    8.6240   -1.0560   24.4640 C   0  0  0  0  0  0  0  0  0  0  0  0
    7.8420   -2.3750   24.3880 C   0  0  1  0  0  0  0  0  0  0  0  0
    1.4400   -2.3420   28.3430 C   0  0  0  0  0  0  0  0  0  0  0  0
    2.6660   -2.4360   28.4720 O   0  0  0  0  0  0  0  0  0  0  0  0
    5.1230   -4.5130   19.7910 O   0  0  0  0  0  0  0  0  0  0  0  0
    6.1610   -3.9870   20.1210 C   0  0  0  0  0  0  0  0  0  0  0  0
    7.0800   -3.2510   19.1530 C   0  0  0  0  0  0  0  0  0  0  0  0
    7.9600   -2.8850   22.9670 C   0  0  0  0  0  0  0  0  0  0  0  0
    6.2920    0.0310   18.0170 N   0  0  0  0  0  0  0  0  0  0  0  0
    7.2580   -0.3210   19.0540 C   0  0  0  0  0  0  0  0  0  0  0  0
    7.1830    0.2340   20.3340 C   0  0  0  0  0  0  0  0  0  0  0  0
    6.1780    1.1170   20.6460 C   0  0  0  0  0  0  0  0  0  0  0  0
    5.2400    1.4640   19.6820 C   0  0  0  0  0  0  0  0  0  0  0  0
    5.2420    0.9680   18.3760 C   0  0  0  0  0  0  0  0  0  0  0  0
    9.8150   -5.4630   24.9280 N   0  0  0  0  0  0  0  0  0  0  0  0
    9.2280   -4.3450   24.4860 C   0  0  0  0  0  0  0  0  0  0  0  0
    8.3460   -3.5520   25.1890 C   0  0  0  0  0  0  0  0  0  0  0  0
    7.9440   -3.8890   26.6180 C   0  0  0  0  0  0  0  0  0  0  0  0
    8.6020   -5.1660   27.1650 C   0  0  0  0  0  0  0  0  0  0  0  0
    9.5340   -5.8590   26.1710 C   0  0  0  0  0  0  0  0  0  0  0  0
    3.3870   -2.6730   27.3370 C   0  0  0  0  0  0  0  0  0  0  0  0
    4.6270   -2.1200   27.0370 C   0  0  0  0  0  0  0  0  0  0  0  0
    5.2470   -2.4390   25.8460 C   0  0  0  0  0  0  0  0  0  0  0  0
    4.6760   -3.3120   24.9070 C   0  0  0  0  0  0  0  0  0  0  0  0
    3.4300   -3.8600   25.2320 C   0  0  0  0  0  0  0  0  0  0  0  0
    2.7700   -3.5560   26.4340 C   0  0  0  0  0  0  0  0  0  0  0  0
    6.5590   -4.0370   21.4100 N   0  0  0  0  0  0  0  0  0  0  0  0
    6.7560   -2.7690   22.0580 C   0  0  1  0  0  0  0  0  0  0  0  0
    5.5060   -2.6130   22.8670 C   0  0  0  0  0  0  0  0  0  0  0  0
    5.2740   -3.6110   23.7520 N   0  0  0  0  0  0  0  0  0  0  0  0
    5.3480   -4.9230   23.3250 C   0  0  0  0  0  0  0  0  0  0  0  0
    6.4190   -5.2140   22.2660 C   0  0  0  0  0  0  0  0  0  0  0  0
  2  6  2  0
  3  6  1  0
  5  7  1  0
  6  7  1  0
  4  8  2  0
  5  8  1  0
  8  9  1  0
 10 11  1  0
 12 13  2  0
 13 14  1  0
  9 15  1  6
 16 17  2  0
  3 18  1  0
 17 18  1  0
  1 19  1  0
 18 19  2  0
 19 20  1  0
 16 21  1  0
 20 21  2  0
 22 23  2  0
  9 24  1  0
 23 24  1  0
 24 25  2  0
 25 26  1  0
 22 27  1  0
 26 27  2  0
 11 28  1  0
 28 29  2  0
 29 30  1  0
 30 31  2  0
 31 32  1  0
 28 33  1  0
 32 33  2  0
 13 34  1  0
 35 15  1  1
 34 35  1  0
 35 36  1  0
 31 37  1  0
 36 37  1  0
 37 38  1  0
 34 39  1  0
 38 39  1  0
M  END
