x1425-x2649
     RDKit          3D

 37 40  0  0  0  0  0  0  0  0999 V2000
    6.8750   -0.4490   21.1880 N   0  0  0  0  0  0  0  0  0  0  0  0
    8.1300   -1.5700   23.7680 C   0  0  0  0  0  0  0  0  0  0  0  0
    8.5140    1.1450   21.5130 O   0  0  0  0  0  0  0  0  0  0  0  0
   13.2990   -2.7450   21.0870 Cl  0  0  0  0  0  0  0  0  0  0  0  0
    8.7840   -1.0430   22.4850 C   0  0  1  0  0  0  0  0  0  0  0  0
    8.0600    0.0160   21.6890 C   0  0  0  0  0  0  0  0  0  0  0  0
    4.6770    1.3410   21.6010 C   0  0  0  0  0  0  0  0  0  0  0  0
    1.5240   -2.2750   28.5160 C   0  0  0  0  0  0  0  0  0  0  0  0
    2.7520   -2.2460   28.4950 O   0  0  0  0  0  0  0  0  0  0  0  0
    5.3300   -4.8850   19.9670 O   0  0  0  0  0  0  0  0  0  0  0  0
    6.2970   -4.2260   20.3120 C   0  0  0  0  0  0  0  0  0  0  0  0
    7.0310   -3.3300   19.3390 C   0  0  0  0  0  0  0  0  0  0  0  0
    7.6910   -3.0160   23.5630 C   0  0  0  0  0  0  0  0  0  0  0  0
    6.3190    0.6690   17.5650 N   0  0  0  0  0  0  0  0  0  0  0  0
    5.2120    1.5700   17.7610 C   0  0  0  0  0  0  0  0  0  0  0  0
    4.6680    1.7750   19.1670 C   0  0  0  0  0  0  0  0  0  0  0  0
    5.2370    1.1030   20.2350 C   0  0  0  0  0  0  0  0  0  0  0  0
    6.2950    0.2420   20.0330 C   0  0  0  0  0  0  0  0  0  0  0  0
    6.8350    0.0090   18.7710 C   0  0  0  0  0  0  0  0  0  0  0  0
   10.7880    0.3470   23.2210 C   0  0  0  0  0  0  0  0  0  0  0  0
   12.1640    0.5690   23.2690 C   0  0  0  0  0  0  0  0  0  0  0  0
   12.9920   -0.3430   22.6410 C   0  0  0  0  0  0  0  0  0  0  0  0
   12.4510   -1.5690   21.9080 C   0  0  0  0  0  0  0  0  0  0  0  0
   10.9980   -1.7830   21.8810 C   0  0  0  0  0  0  0  0  0  0  0  0
   10.2200   -0.7490   22.5780 C   0  0  0  0  0  0  0  0  0  0  0  0
    3.3590   -2.6350   27.2840 C   0  0  0  0  0  0  0  0  0  0  0  0
    4.6280   -2.1640   26.9560 C   0  0  0  0  0  0  0  0  0  0  0  0
    5.2000   -2.5650   25.7490 C   0  0  0  0  0  0  0  0  0  0  0  0
    4.5340   -3.4300   24.8540 C   0  0  0  0  0  0  0  0  0  0  0  0
    3.2660   -3.8710   25.2370 C   0  0  0  0  0  0  0  0  0  0  0  0
    2.6660   -3.4910   26.4330 C   0  0  0  0  0  0  0  0  0  0  0  0
    6.7870   -4.3020   21.6010 N   0  0  0  0  0  0  0  0  0  0  0  0
    6.7580   -3.1000   22.3520 C   0  0  1  0  0  0  0  0  0  0  0  0
    5.3950   -2.8520   22.8630 C   0  0  0  0  0  0  0  0  0  0  0  0
    5.0380   -3.8220   23.7020 N   0  0  0  0  0  0  0  0  0  0  0  0
    5.3240   -5.1820   23.3880 C   0  0  0  0  0  0  0  0  0  0  0  0
    6.4910   -5.4860   22.4450 C   0  0  0  0  0  0  0  0  0  0  0  0
  5  2  1  1
  1  6  1  0
  3  6  2  0
  5  6  1  0
  8  9  1  0
 10 11  2  0
 11 12  1  0
  2 13  1  0
 14 15  2  0
 15 16  1  0
  7 17  1  0
 16 17  2  0
  1 18  1  0
 17 18  1  0
 14 19  1  0
 18 19  2  0
 20 21  2  0
 21 22  1  0
  4 23  1  0
 22 23  2  0
 23 24  1  0
  5 25  1  0
 20 25  1  0
 24 25  2  0
  9 26  1  0
 26 27  2  0
 27 28  1  0
 28 29  2  0
 29 30  1  0
 26 31  1  0
 30 31  2  0
 11 32  1  0
 33 13  1  1
 32 33  1  0
 33 34  1  0
 29 35  1  0
 34 35  1  0
 35 36  1  0
 32 37  1  0
 36 37  1  0
M  END
