x1425-x2776-x2694
     RDKit          3D

 49 53  0  0  0  0  0  0  0  0999 V2000
    7.1800   -1.2440   22.2180 C   0  0  2  0  0  0  0  0  0  0  0  0
    7.8400    1.8360   22.8420 N   0  0  0  0  0  0  0  0  0  0  0  0
    9.3220    0.4730   21.4050 O   0  0  0  0  0  0  0  0  0  0  0  0
   10.8920    6.7160   23.8480 O   0  0  0  0  0  0  0  0  0  0  0  0
    6.9400    0.0990   21.4570 C   0  0  1  0  0  0  0  0  0  0  0  0
   13.7910   -2.5360   24.0760 O   0  0  0  0  0  0  0  0  0  0  0  0
    8.0870    0.7550   21.8660 C   0  0  0  0  0  0  0  0  0  0  0  0
   10.5650    1.6740   23.8730 C   0  0  0  0  0  0  0  0  0  0  0  0
   11.7700    6.5690   24.7110 C   0  0  0  0  0  0  0  0  0  0  0  0
   12.9560   -1.7240   23.7250 C   0  0  1  0  0  0  0  0  0  0  0  0
   13.1210   -0.2940   23.5060 C   0  0  0  0  0  0  0  0  0  0  0  0
   13.4760   -2.9730   25.3970 C   0  0  0  0  0  0  0  0  0  0  0  0
   12.2090   -2.0720   22.5880 C   0  0  0  0  0  0  0  0  0  0  0  0
    1.6070   -2.3890   28.0200 C   0  0  0  0  0  0  0  0  0  0  0  0
    2.8160   -2.2010   28.1340 O   0  0  0  0  0  0  0  0  0  0  0  0
    4.9260   -4.0000   19.4350 O   0  0  0  0  0  0  0  0  0  0  0  0
    5.9820   -3.5870   19.8470 C   0  0  0  0  0  0  0  0  0  0  0  0
    7.0690   -3.0480   18.9080 C   0  0  0  0  0  0  0  0  0  0  0  0
    6.1870   -1.3010   23.3710 C   0  0  0  0  0  0  0  0  0  0  0  0
    6.3640    0.1070   17.7870 N   0  0  0  0  0  0  0  0  0  0  0  0
    5.2260    0.8190   17.8160 C   0  0  0  0  0  0  0  0  0  0  0  0
    4.6230    1.2790   18.9780 C   0  0  0  0  0  0  0  0  0  0  0  0
    5.1820    1.0300   20.2170 C   0  0  0  0  0  0  0  0  0  0  0  0
    6.3680    0.3040   20.2440 C   0  0  0  0  0  0  0  0  0  0  0  0
    6.9520   -0.1550   19.0980 C   0  0  0  0  0  0  0  0  0  0  0  0
    9.8930    3.0270   23.5660 C   0  0  0  0  0  0  0  0  0  0  0  0
   10.6140    4.1990   23.8000 C   0  0  0  0  0  0  0  0  0  0  0  0
   10.0600    5.5860   23.5540 C   0  0  0  0  0  0  0  0  0  0  0  0
    8.6450    5.7450   23.0060 C   0  0  0  0  0  0  0  0  0  0  0  0
    7.8720    4.4250   22.7500 C   0  0  0  0  0  0  0  0  0  0  0  0
    8.5780    3.0910   23.0660 C   0  0  0  0  0  0  0  0  0  0  0  0
    9.6840   -1.6530   22.3620 C   0  0  0  0  0  0  0  0  0  0  0  0
   10.8790   -1.6330   23.0640 C   0  0  0  0  0  0  0  0  0  0  0  0
   10.8840   -1.1590   24.3680 C   0  0  0  0  0  0  0  0  0  0  0  0
    9.7480   -0.7190   24.9560 C   0  0  0  0  0  0  0  0  0  0  0  0
    8.5600   -0.7240   24.3010 C   0  0  0  0  0  0  0  0  0  0  0  0
    8.4950   -1.1900   22.9950 C   0  0  0  0  0  0  0  0  0  0  0  0
    3.6210   -2.5880   27.0920 C   0  0  0  0  0  0  0  0  0  0  0  0
    4.9560   -2.2360   26.9390 C   0  0  0  0  0  0  0  0  0  0  0  0
    5.6720   -2.6920   25.8410 C   0  0  0  0  0  0  0  0  0  0  0  0
    5.0700   -3.5050   24.8750 C   0  0  0  0  0  0  0  0  0  0  0  0
    3.7290   -3.8460   25.0450 C   0  0  0  0  0  0  0  0  0  0  0  0
    3.0020   -3.3970   26.1410 C   0  0  0  0  0  0  0  0  0  0  0  0
    6.1830   -3.6420   21.1840 N   0  0  0  0  0  0  0  0  0  0  0  0
    7.1890   -2.8330   21.9200 C   0  0  2  0  0  0  0  0  0  0  0  0
    7.1550   -3.5100   23.3260 C   0  0  0  0  0  0  0  0  0  0  0  0
    5.7960   -3.9850   23.7390 N   0  0  0  0  0  0  0  0  0  0  0  0
    5.3150   -5.1240   22.9750 C   0  0  0  0  0  0  0  0  0  0  0  0
    6.0880   -5.0500   21.6640 C   0  0  0  0  0  0  0  0  0  0  0  0
  1  5  1  0
  2  7  1  0
  3  7  2  0
  5  7  1  6
  4  9  1  0
  6 10  1  0
 10 11  1  6
  6 12  1  0
 10 13  1  0
 14 15  1  0
 16 17  2  0
 17 18  1  0
  1 19  1  1
 20 21  2  0
 21 22  1  0
 22 23  2  0
  5 24  1  0
 23 24  1  0
 20 25  1  0
 24 25  2  0
  8 26  1  0
 26 27  2  0
  4 28  1  0
 27 28  1  0
 28 29  2  0
 29 30  1  0
  2 31  1  0
 26 31  1  0
 30 31  2  0
 13 33  1  0
 32 33  2  0
 33 34  1  0
 34 35  2  0
 35 36  1  0
  1 37  1  0
 32 37  1  0
 36 37  2  0
 15 38  1  0
 38 39  2  0
 39 40  1  0
 40 41  2  0
 41 42  1  0
 38 43  1  0
 42 43  2  0
 17 44  1  0
  1 45  1  0
 44 45  1  0
 45 46  1  1
 41 47  1  0
 46 47  1  0
 47 48  1  0
 44 49  1  0
 48 49  1  0
M  END
