x1425-x3117
     RDKit          3D

 45 49  0  0  0  0  0  0  0  0999 V2000
    7.1950   -1.1500   22.2480 C   0  0  2  0  0  0  0  0  0  0  0  0
    7.9510    1.8320   23.2080 N   0  0  0  0  0  0  0  0  0  0  0  0
    8.9320    1.6050   21.1370 O   0  0  0  0  0  0  0  0  0  0  0  0
    6.9540    0.2610   21.6010 C   0  0  1  0  0  0  0  0  0  0  0  0
    8.0570    1.2800   21.9420 C   0  0  0  0  0  0  0  0  0  0  0  0
   12.4390   -2.0480   24.3520 C   0  0  0  0  0  0  0  0  0  0  0  0
   12.8030   -0.7880   25.1110 C   0  0  0  0  0  0  0  0  0  0  0  0
   13.4870   -2.3470   23.2880 C   0  0  0  0  0  0  0  0  0  0  0  0
   12.2370   -3.2010   25.3230 C   0  0  0  0  0  0  0  0  0  0  0  0
    1.3420   -2.3540   28.2960 C   0  0  0  0  0  0  0  0  0  0  0  0
    2.5470   -2.5410   28.4830 O   0  0  0  0  0  0  0  0  0  0  0  0
    5.1640   -4.4090   19.7740 O   0  0  0  0  0  0  0  0  0  0  0  0
    6.1850   -3.8210   20.0820 C   0  0  0  0  0  0  0  0  0  0  0  0
    7.1210   -3.1920   19.0820 C   0  0  0  0  0  0  0  0  0  0  0  0
    6.5710   -0.7340   23.5680 C   0  0  0  0  0  0  0  0  0  0  0  0
    6.2310    0.0900   17.8160 N   0  0  0  0  0  0  0  0  0  0  0  0
    5.0680    0.8540   17.8440 C   0  0  0  0  0  0  0  0  0  0  0  0
    4.5090    1.3820   18.9620 C   0  0  0  0  0  0  0  0  0  0  0  0
    5.1380    1.1600   20.1690 C   0  0  0  0  0  0  0  0  0  0  0  0
    6.3150    0.4100   20.2230 C   0  0  0  0  0  0  0  0  0  0  0  0
    6.8860   -0.1420   19.0850 C   0  0  0  0  0  0  0  0  0  0  0  0
    9.7120    5.1380   24.3190 O   0  0  0  0  0  0  0  0  0  0  0  0
   10.6890    4.3280   23.6880 C   0  0  0  0  0  0  0  0  0  0  0  0
   10.1280    2.9130   23.5050 C   0  0  0  0  0  0  0  0  0  0  0  0
    8.6030    3.0810   23.5300 C   0  0  0  0  0  0  0  0  0  0  0  0
    8.2940    4.3480   22.7140 C   0  0  0  0  0  0  0  0  0  0  0  0
    8.7330    5.5150   23.3620 C   0  0  0  0  0  0  0  0  0  0  0  0
    9.5850   -1.8840   21.8860 C   0  0  0  0  0  0  0  0  0  0  0  0
   10.8720   -2.1070   22.3700 C   0  0  0  0  0  0  0  0  0  0  0  0
   11.1190   -1.8500   23.7270 C   0  0  0  0  0  0  0  0  0  0  0  0
   10.1660   -1.3880   24.6100 C   0  0  0  0  0  0  0  0  0  0  0  0
    8.9130   -1.1560   24.1830 C   0  0  0  0  0  0  0  0  0  0  0  0
    8.5980   -1.4150   22.7390 C   0  0  0  0  0  0  0  0  0  0  0  0
    3.3100   -2.7660   27.3770 C   0  0  0  0  0  0  0  0  0  0  0  0
    4.7310   -2.2450   27.1660 C   0  0  0  0  0  0  0  0  0  0  0  0
    5.4030   -2.6120   25.8580 C   0  0  0  0  0  0  0  0  0  0  0  0
    4.6430   -3.4570   24.8520 C   0  0  0  0  0  0  0  0  0  0  0  0
    3.3590   -3.8560   25.1900 C   0  0  0  0  0  0  0  0  0  0  0  0
    2.6900   -3.5500   26.3820 C   0  0  0  0  0  0  0  0  0  0  0  0
    6.5500   -3.7330   21.3880 N   0  0  0  0  0  0  0  0  0  0  0  0
    6.2910   -2.4970   22.1700 C   0  0  1  0  0  0  0  0  0  0  0  0
    6.3400   -2.9560   23.4330 C   0  0  0  0  0  0  0  0  0  0  0  0
    5.2010   -3.8020   23.6290 N   0  0  0  0  0  0  0  0  0  0  0  0
    5.4220   -5.1600   23.1330 C   0  0  0  0  0  0  0  0  0  0  0  0
    6.3810   -5.0230   22.0870 C   0  0  0  0  0  0  0  0  0  0  0  0
  1  4  1  0
  2  5  1  0
  3  5  2  0
  4  5  1  6
  6  7  1  0
  6  8  1  0
  6  9  1  0
 10 11  1  0
 12 13  2  0
 13 14  1  0
  1 15  1  1
 16 17  2  0
 17 18  1  0
 18 19  2  0
  4 20  1  0
 19 20  1  0
 16 21  1  0
 20 21  2  0
 22 23  1  0
 23 24  1  0
  2 25  1  0
 24 25  1  0
 25 26  1  0
 22 27  1  0
 26 27  1  0
 28 29  2  0
  6 30  1  0
 29 30  1  0
 30 31  2  0
 31 32  1  0
  1 33  1  0
 28 33  1  0
 32 33  2  0
 11 34  1  0
 34 35  2  0
 35 36  1  0
 36 37  2  0
 37 38  1  0
 34 39  1  0
 38 39  2  0
 13 40  1  0
  1 41  1  0
 40 41  1  0
 41 42  1  1
 37 43  1  0
 42 43  1  0
 43 44  1  0
 40 45  1  0
 44 45  1  0
M  END
