x1425-x0831
     RDKit          3D

 27 29  0  0  0  0  0  0  0  0999 V2000
    1.3640   -2.3200   28.3610 C   0  0  0  0  0  0  0  0  0  0  0  0
    2.5810   -2.1360   28.4150 O   0  0  0  0  0  0  0  0  0  0  0  0
    5.1110   -4.3970   19.7720 O   0  0  0  0  0  0  0  0  0  0  0  0
    6.2080   -4.0070   20.1160 C   0  0  0  0  0  0  0  0  0  0  0  0
    7.1040   -3.2200   19.1680 C   0  0  0  0  0  0  0  0  0  0  0  0
    3.3140   -2.5580   27.3370 C   0  0  0  0  0  0  0  0  0  0  0  0
    4.7520   -2.0590   27.1680 C   0  0  0  0  0  0  0  0  0  0  0  0
    5.5480   -2.5370   25.9690 C   0  0  0  0  0  0  0  0  0  0  0  0
    4.9840   -3.5010   24.9090 C   0  0  0  0  0  0  0  0  0  0  0  0
    3.5310   -3.9940   25.0950 C   0  0  0  0  0  0  0  0  0  0  0  0
    2.7240   -3.5170   26.3000 C   0  0  0  0  0  0  0  0  0  0  0  0
    6.6870   -4.2950   21.3630 N   0  0  0  0  0  0  0  0  0  0  0  0
    7.1600   -3.1760   22.1460 C   0  0  1  0  0  0  0  0  0  0  0  0
    6.1520   -2.7470   22.9890 C   0  0  0  0  0  0  0  0  0  0  0  0
    5.7830   -3.8780   23.8550 N   0  0  0  0  0  0  0  0  0  0  0  0
    5.4510   -5.0780   23.1730 C   0  0  0  0  0  0  0  0  0  0  0  0
    6.2590   -5.4920   22.1230 C   0  0  0  0  0  0  0  0  0  0  0  0
   12.9660   -2.0160   22.3760 C   0  0  0  0  0  0  0  0  0  0  0  0
   10.2050   -2.3350   23.8610 C   0  0  0  0  0  0  0  0  0  0  0  0
   12.2290   -0.8160   23.0090 C   0  0  0  0  0  0  0  0  0  0  0  0
   10.8910   -1.0150   23.7190 C   0  0  0  0  0  0  0  0  0  0  0  0
   10.2160    0.2170   24.3070 C   0  0  0  0  0  0  0  0  0  0  0  0
   10.9180    1.5450   24.1380 C   0  0  0  0  0  0  0  0  0  0  0  0
   12.2520    1.5840   23.4090 C   0  0  0  0  0  0  0  0  0  0  0  0
   12.8370    0.4350   22.8930 C   0  0  0  0  0  0  0  0  0  0  0  0
    8.3960   -3.5340   22.9790 C   0  0  0  0  0  0  0  0  0  0  0  0
    9.4240   -2.6760   22.6130 C   0  0  0  0  0  0  0  0  0  0  0  0
  1  2  1  0
  3  4  2  0
  4  5  1  0
  2  6  1  0
  6  7  2  0
  7  8  1  0
  8  9  2  0
  9 10  1  0
  6 11  1  0
 10 11  2  0
  4 12  1  0
 12 13  1  0
 13 14  1  0
  9 15  1  0
 14 15  1  0
 15 16  1  0
 12 17  1  0
 16 17  1  0
 18 20  1  0
 19 21  1  0
 20 21  2  0
 21 22  1  0
 22 23  2  0
 23 24  1  0
 20 25  1  0
 24 25  2  0
 13 26  1  1
 19 27  1  0
 26 27  1  0
M  END
