x1425-x1336
     RDKit          3D

 28 30  0  0  0  0  0  0  0  0999 V2000
    5.8910   -5.3720   29.1650 C   0  0  0  0  0  0  0  0  0  0  0  0
    8.6900   -1.0280   25.1460 O   0  0  0  0  0  0  0  0  0  0  0  0
    5.9930   -1.0390   25.8980 N   0  0  0  0  0  0  0  0  0  0  0  0
    5.4490   -4.1770   19.7760 O   0  0  0  0  0  0  0  0  0  0  0  0
   10.1030   -3.5520   25.0850 C   0  0  0  0  0  0  0  0  0  0  0  0
    6.4530   -3.4970   20.0400 C   0  0  0  0  0  0  0  0  0  0  0  0
    7.3780   -3.0830   18.9140 C   0  0  0  0  0  0  0  0  0  0  0  0
    7.4480   -1.7490   25.2940 S   0  0  2  0  0  0  0  0  0  0  0  0
    1.7720   -2.2940   28.2380 C   0  0  0  0  0  0  0  0  0  0  0  0
    3.2040   -2.4320   28.2830 O   0  0  0  0  0  0  0  0  0  0  0  0
    6.9530   -4.9550   28.1580 C   0  0  0  0  0  0  0  0  0  0  0  0
    6.7080   -3.7070   27.3120 C   0  0  0  0  0  0  0  0  0  0  0  0
    7.7670   -3.2540   26.2850 C   0  0  0  0  0  0  0  0  0  0  0  0
    9.0840   -4.0050   26.0640 C   0  0  0  0  0  0  0  0  0  0  0  0
    9.2270   -5.2540   26.9630 C   0  0  0  0  0  0  0  0  0  0  0  0
    8.2710   -5.6620   27.8890 C   0  0  0  0  0  0  0  0  0  0  0  0
    6.7950   -3.1340   21.3440 N   0  0  0  0  0  0  0  0  0  0  0  0
    6.5870   -4.1130   22.3130 C   0  0  0  0  0  0  0  0  0  0  0  0
    7.0450   -3.8160   23.5790 C   0  0  0  0  0  0  0  0  0  0  0  0
    7.0930   -2.3670   23.7260 N   0  0  0  0  0  0  0  0  0  0  0  0
    7.8660   -1.6230   22.7120 C   0  0  0  0  0  0  0  0  0  0  0  0
    8.0060   -2.3080   21.4960 C   0  0  0  0  0  0  0  0  0  0  0  0
    3.7070   -2.6370   27.0340 C   0  0  0  0  0  0  0  0  0  0  0  0
    4.9150   -1.7110   26.5840 C   0  0  0  0  0  0  0  0  0  0  0  0
    5.0840   -2.3180   25.1600 C   0  0  0  0  0  0  0  0  0  0  0  0
    4.3810   -3.4200   24.3990 C   0  0  0  0  0  0  0  0  0  0  0  0
    3.2900   -4.0860   25.1300 C   0  0  0  0  0  0  0  0  0  0  0  0
    3.0040   -3.6760   26.3860 C   0  0  0  0  0  0  0  0  0  0  0  0
  4  6  2  0
  6  7  1  0
  2  8  2  0
  3  8  2  0
  9 10  1  0
  1 11  1  0
 11 12  2  0
  8 13  1  1
 12 13  1  0
  5 14  1  0
 13 14  2  0
 14 15  1  0
 11 16  1  0
 15 16  2  0
  6 17  1  0
 17 18  1  0
 18 19  1  0
  8 20  1  0
 19 20  1  0
 20 21  1  0
 17 22  1  0
 21 22  1  0
 10 23  1  0
  3 24  1  0
 23 24  2  0
 24 25  1  0
 25 26  2  0
 26 27  1  0
 23 28  1  0
 27 28  2  0
M  END
