x1425-x0387
     RDKit          3D

 31 34  0  0  0  0  0  0  0  0999 V2000
    1.4110   -2.3490   28.2530 C   0  0  0  0  0  0  0  0  0  0  0  0
    2.6010   -2.0260   28.2490 O   0  0  0  0  0  0  0  0  0  0  0  0
    5.1120   -4.2810   19.7330 O   0  0  0  0  0  0  0  0  0  0  0  0
    6.2470   -4.0160   20.0810 C   0  0  0  0  0  0  0  0  0  0  0  0
    7.1760   -3.2200   19.1700 C   0  0  0  0  0  0  0  0  0  0  0  0
    3.3600   -2.4890   27.2050 C   0  0  0  0  0  0  0  0  0  0  0  0
    4.7980   -1.9860   27.0460 C   0  0  0  0  0  0  0  0  0  0  0  0
    5.6290   -2.5120   25.8890 C   0  0  0  0  0  0  0  0  0  0  0  0
    5.1140   -3.5330   24.8500 C   0  0  0  0  0  0  0  0  0  0  0  0
    3.6510   -4.0210   25.0310 C   0  0  0  0  0  0  0  0  0  0  0  0
    2.8080   -3.4960   26.1950 C   0  0  0  0  0  0  0  0  0  0  0  0
    6.7310   -4.4830   21.2830 N   0  0  0  0  0  0  0  0  0  0  0  0
    7.5150   -3.5930   22.1000 C   0  0  0  0  0  0  0  0  0  0  0  0
    6.6960   -2.9750   23.0340 C   0  0  1  0  0  0  0  0  0  0  0  0
    5.9280   -3.9910   23.8140 N   0  0  0  0  0  0  0  0  0  0  0  0
    5.4280   -5.1140   23.0890 C   0  0  0  0  0  0  0  0  0  0  0  0
    6.1440   -5.6180   22.0140 C   0  0  0  0  0  0  0  0  0  0  0  0
    8.7100   -5.3980   26.9750 O   0  0  0  0  0  0  0  0  0  0  0  0
    9.7360   -1.5150   24.8240 C   0  0  0  0  0  0  0  0  0  0  0  0
    9.3580   -4.2000   26.6100 C   0  0  2  0  0  0  0  0  0  0  0  0
    8.4200   -3.4260   25.8830 C   0  0  0  0  0  0  0  0  0  0  0  0
    8.9090   -2.6340   24.6390 C   0  0  2  0  0  0  0  0  0  0  0  0
    9.7070   -3.3050   23.8700 N   0  0  0  0  0  0  0  0  0  0  0  0
   10.8300   -3.6410   24.6950 C   0  0  0  0  0  0  0  0  0  0  0  0
   10.4640   -4.5600   25.8420 C   0  0  0  0  0  0  0  0  0  0  0  0
   11.7740   -0.1340   24.0790 C   0  0  0  0  0  0  0  0  0  0  0  0
   10.9680   -1.2630   23.9050 C   0  0  0  0  0  0  0  0  0  0  0  0
   11.4130   -2.0860   22.8480 C   0  0  0  0  0  0  0  0  0  0  0  0
   12.8160   -1.5040   22.0750 S   0  0  0  0  0  0  0  0  0  0  0  0
   12.8260   -0.0700   23.1930 C   0  0  0  0  0  0  0  0  0  0  0  0
    7.6070   -2.1040   23.9290 C   0  0  0  0  0  0  0  0  0  0  0  0
  1  2  1  0
  3  4  2  0
  4  5  1  0
  2  6  1  0
  6  7  2  0
  7  8  1  0
  8  9  2  0
  9 10  1  0
  6 11  1  0
 10 11  2  0
  4 12  1  0
 12 13  1  0
 13 14  1  0
  9 15  1  0
 14 15  1  0
 15 16  1  0
 12 17  1  0
 16 17  1  0
 20 18  1  6
 20 21  1  0
 22 19  1  1
 21 22  1  0
 22 23  1  0
 23 24  1  0
 20 25  1  0
 24 25  1  0
 19 27  1  0
 26 27  1  0
 27 28  2  0
 28 29  1  0
 26 30  2  0
 29 30  1  0
 14 31  1  1
 22 31  1  0
M  END
