x1425-x1402
     RDKit          3D

 21 22  0  0  0  0  0  0  0  0999 V2000
    7.2650   -3.3690   19.7080 C   0  0  0  0  0  0  0  0  0  0  0  0
    5.2310   -4.5830   19.9090 O   0  0  0  0  0  0  0  0  0  0  0  0
    0.7180   -1.0170   26.4240 Cl  0  0  0  0  0  0  0  0  0  0  0  0
    6.3170   -4.3480   20.4220 C   0  0  0  0  0  0  0  0  0  0  0  0
    4.0720   -6.3860   25.6580 O   0  0  0  0  0  0  0  0  0  0  0  0
    6.0560   -5.4820   26.7150 O   0  0  0  0  0  0  0  0  0  0  0  0
    5.0700   -5.3360   25.6710 S   0  0  0  0  0  0  0  0  0  0  0  0
    6.6640   -5.0140   21.5990 N   0  0  0  0  0  0  0  0  0  0  0  0
    7.4390   -4.4910   22.6260 C   0  0  0  0  0  0  0  0  0  0  0  0
    6.5550   -4.0650   23.8290 C   0  0  0  0  0  0  0  0  0  0  0  0
    5.8280   -5.3040   24.1720 N   0  0  0  0  0  0  0  0  0  0  0  0
    5.1570   -6.1460   23.1860 C   0  0  0  0  0  0  0  0  0  0  0  0
    6.0490   -6.2800   21.9630 C   0  0  0  0  0  0  0  0  0  0  0  0
    2.3250   -3.6650   25.9820 S   0  0  0  0  0  0  0  0  0  0  0  0
    4.1200   -3.8380   25.9210 C   0  0  0  0  0  0  0  0  0  0  0  0
    4.5210   -2.4190   26.1220 C   0  0  0  0  0  0  0  0  0  0  0  0
    3.6980   -1.2160   26.3220 C   0  0  0  0  0  0  0  0  0  0  0  0
    2.2290   -1.8270   26.2630 C   0  0  0  0  0  0  0  0  0  0  0  0
    2.2950   -3.0500   28.4350 C   0  0  0  0  0  0  0  0  0  0  0  0
    2.6190   -2.0500   27.4690 O   0  0  0  0  0  0  0  0  0  0  0  0
    3.0510   -2.5750   26.1830 C   0  0  0  0  0  0  0  0  0  0  0  0
  1  4  1  0
  2  4  2  0
  5  7  2  0
  6  7  2  0
  4  8  1  0
  8  9  1  0
  9 10  1  0
  7 11  1  0
 10 11  1  0
 11 12  1  0
  8 13  1  0
 12 13  1  0
  7 15  1  0
 14 15  1  0
 15 16  2  0
 16 17  1  0
  3 18  1  0
 14 18  1  0
 17 18  2  0
 19 20  1  0
 16 21  1  0
 20 21  1  0
M  END
