x1425-x2705
     RDKit          3D

 47 51  0  0  0  0  0  0  0  0999 V2000
    7.3830   -1.4240   22.2830 C   0  0  2  0  0  0  0  0  0  0  0  0
    7.5920    2.0270   22.8340 N   0  0  0  0  0  0  0  0  0  0  0  0
    8.9140    1.3020   21.1110 O   0  0  0  0  0  0  0  0  0  0  0  0
    6.9480   -0.0270   21.7030 C   0  0  1  0  0  0  0  0  0  0  0  0
    7.9370    1.1440   21.8410 C   0  0  0  0  0  0  0  0  0  0  0  0
   10.2820    2.1560   23.8890 C   0  0  0  0  0  0  0  0  0  0  0  0
    9.3860    1.2520   24.7620 C   0  0  0  0  0  0  0  0  0  0  0  0
    6.1660    4.6680   21.9220 C   0  0  0  0  0  0  0  0  0  0  0  0
   12.4810   -1.5040   23.1140 C   0  0  0  0  0  0  0  0  0  0  0  0
   13.0130   -0.0810   23.3270 C   0  0  0  0  0  0  0  0  0  0  0  0
   13.0550   -2.4100   24.2310 C   0  0  0  0  0  0  0  0  0  0  0  0
   12.9150   -2.0000   21.7190 C   0  0  0  0  0  0  0  0  0  0  0  0
    1.2180   -2.4590   28.1690 C   0  0  0  0  0  0  0  0  0  0  0  0
    2.5810   -2.0610   28.2170 O   0  0  0  0  0  0  0  0  0  0  0  0
    5.1390   -4.2540   19.7260 O   0  0  0  0  0  0  0  0  0  0  0  0
    6.2270   -3.8240   20.0740 C   0  0  0  0  0  0  0  0  0  0  0  0
    7.1720   -3.1690   19.1040 C   0  0  0  0  0  0  0  0  0  0  0  0
    6.7990   -1.1890   23.6490 C   0  0  0  0  0  0  0  0  0  0  0  0
    6.3550    0.2510   17.8200 N   0  0  0  0  0  0  0  0  0  0  0  0
    5.1150    1.0250   17.7310 C   0  0  0  0  0  0  0  0  0  0  0  0
    4.5190    1.3850   18.9240 C   0  0  0  0  0  0  0  0  0  0  0  0
    5.0470    1.0620   20.2980 C   0  0  0  0  0  0  0  0  0  0  0  0
    6.3400    0.2780   20.3760 C   0  0  0  0  0  0  0  0  0  0  0  0
    6.9110   -0.0900   19.0480 C   0  0  0  0  0  0  0  0  0  0  0  0
   10.1880   -1.4240   24.4110 N   0  0  0  0  0  0  0  0  0  0  0  0
    8.8740   -1.4070   24.1520 N   0  0  0  0  0  0  0  0  0  0  0  0
    8.8020   -1.4490   22.8040 C   0  0  0  0  0  0  0  0  0  0  0  0
   10.0360   -1.5000   22.2110 C   0  0  0  0  0  0  0  0  0  0  0  0
   10.9760   -1.4820   23.2160 C   0  0  0  0  0  0  0  0  0  0  0  0
    9.5660    3.4060   23.4650 C   0  0  0  0  0  0  0  0  0  0  0  0
   10.2210    4.6540   23.5880 C   0  0  0  0  0  0  0  0  0  0  0  0
    9.6070    5.8680   23.1990 C   0  0  0  0  0  0  0  0  0  0  0  0
    8.3170    5.8890   22.6670 C   0  0  0  0  0  0  0  0  0  0  0  0
    7.5520    4.5900   22.5060 C   0  0  0  0  0  0  0  0  0  0  0  0
    8.2700    3.3160   22.9520 C   0  0  0  0  0  0  0  0  0  0  0  0
    3.3990   -2.5270   27.2310 C   0  0  0  0  0  0  0  0  0  0  0  0
    4.8820   -2.2110   27.0530 C   0  0  0  0  0  0  0  0  0  0  0  0
    5.5950   -2.8450   25.8930 C   0  0  0  0  0  0  0  0  0  0  0  0
    4.9250   -3.6880   25.0130 C   0  0  0  0  0  0  0  0  0  0  0  0
    3.5660   -3.9340   25.2280 C   0  0  0  0  0  0  0  0  0  0  0  0
    2.8290   -3.3890   26.2790 C   0  0  0  0  0  0  0  0  0  0  0  0
    6.6860   -3.9850   21.3510 N   0  0  0  0  0  0  0  0  0  0  0  0
    6.6270   -2.8470   22.2960 C   0  0  1  0  0  0  0  0  0  0  0  0
    6.9190   -3.4340   23.5210 C   0  0  0  0  0  0  0  0  0  0  0  0
    5.7590   -4.2350   23.9370 N   0  0  0  0  0  0  0  0  0  0  0  0
    5.2760   -5.1760   22.9350 C   0  0  0  0  0  0  0  0  0  0  0  0
    6.3020   -5.2890   21.9740 C   0  0  0  0  0  0  0  0  0  0  0  0
  1  4  1  0
  2  5  1  0
  3  5  2  0
  4  5  1  6
  6  7  1  0
  9 10  1  0
  9 11  1  0
  9 12  1  0
 13 14  1  0
 15 16  2  0
 16 17  1  0
  1 18  1  1
 19 20  2  0
 20 21  1  0
 21 22  2  0
  4 23  1  0
 22 23  1  0
 19 24  1  0
 23 24  2  0
 25 26  1  0
  1 27  1  0
 26 27  2  0
 27 28  1  0
  9 29  1  0
 25 29  1  0
 28 29  2  0
  6 30  1  0
 30 31  2  0
 31 32  1  0
 32 33  2  0
  8 34  1  0
 33 34  1  0
  2 35  1  0
 30 35  1  0
 34 35  2  0
 14 36  1  0
 36 37  2  0
 37 38  1  0
 38 39  2  0
 39 40  1  0
 36 41  1  0
 40 41  2  0
 16 42  1  0
  1 43  1  0
 42 43  1  0
 43 44  1  1
 39 45  1  0
 44 45  1  0
 45 46  1  0
 42 47  1  0
 46 47  1  0
M  END
