x1425-x0752
     RDKit          3D

 17 18  0  0  0  0  0  0  0  0999 V2000
    1.3590   -2.3320   28.3290 C   0  0  0  0  0  0  0  0  0  0  0  0
    2.5680   -2.0940   28.3620 O   0  0  0  0  0  0  0  0  0  0  0  0
    5.1680   -4.4610   19.8300 O   0  0  0  0  0  0  0  0  0  0  0  0
    6.2630   -4.0540   20.1780 C   0  0  0  0  0  0  0  0  0  0  0  0
    7.1150   -3.2380   19.2270 C   0  0  0  0  0  0  0  0  0  0  0  0
    3.3190   -2.5370   27.3040 C   0  0  0  0  0  0  0  0  0  0  0  0
    4.7690   -2.0540   27.1680 C   0  0  0  0  0  0  0  0  0  0  0  0
    5.5930   -2.5530   25.9970 C   0  0  0  0  0  0  0  0  0  0  0  0
    5.0550   -3.5220   24.9310 C   0  0  0  0  0  0  0  0  0  0  0  0
    3.5860   -3.9970   25.0830 C   0  0  0  0  0  0  0  0  0  0  0  0
    2.7500   -3.4990   26.2600 C   0  0  0  0  0  0  0  0  0  0  0  0
    6.7840   -4.3670   21.4160 N   0  0  0  0  0  0  0  0  0  0  0  0
    7.3700   -3.2990   22.2140 C   0  0  0  0  0  0  0  0  0  0  0  0
    6.3980   -2.8140   23.0810 C   0  0  0  0  0  0  0  0  0  0  0  0
    5.8730   -3.9280   23.9020 N   0  0  0  0  0  0  0  0  0  0  0  0
    5.4760   -5.1000   23.2030 C   0  0  0  0  0  0  0  0  0  0  0  0
    6.3040   -5.5300   22.1840 C   0  0  0  0  0  0  0  0  0  0  0  0
  1  2  1  0
  3  4  2  0
  4  5  1  0
  2  6  1  0
  6  7  2  0
  7  8  1  0
  8  9  2  0
  9 10  1  0
  6 11  1  0
 10 11  2  0
  4 12  1  0
 12 13  1  0
 13 14  1  0
  9 15  1  0
 14 15  1  0
 15 16  1  0
 12 17  1  0
 16 17  1  0
M  END
