x1425-x2705-x2694
     RDKit          3D

 49 53  0  0  0  0  0  0  0  0999 V2000
    7.3200   -1.4160   22.4310 C   0  0  2  0  0  0  0  0  0  0  0  0
    7.4950    2.1390   22.8090 N   0  0  0  0  0  0  0  0  0  0  0  0
    9.0410    1.1700   21.1040 O   0  0  0  0  0  0  0  0  0  0  0  0
    6.8810   -0.1090   21.7390 C   0  0  1  0  0  0  0  0  0  0  0  0
    7.8800    1.1000   21.8880 C   0  0  0  0  0  0  0  0  0  0  0  0
   10.1700    1.9860   23.9930 C   0  0  0  0  0  0  0  0  0  0  0  0
    9.3620    1.2730   24.8300 C   0  0  0  0  0  0  0  0  0  0  0  0
    6.2800    4.7440   21.9450 C   0  0  0  0  0  0  0  0  0  0  0  0
   12.4550   -1.4030   23.2990 C   0  0  0  0  0  0  0  0  0  0  0  0
   12.8910    0.0560   23.3210 C   0  0  0  0  0  0  0  0  0  0  0  0
   12.8920   -2.3260   24.2730 C   0  0  0  0  0  0  0  0  0  0  0  0
   12.9260   -1.8680   21.9420 C   0  0  0  0  0  0  0  0  0  0  0  0
   10.5670    6.8050   23.6430 O   0  0  0  0  0  0  0  0  0  0  0  0
   11.6270    6.5830   24.5930 C   0  0  0  0  0  0  0  0  0  0  0  0
    1.4270   -2.3970   28.1410 C   0  0  0  0  0  0  0  0  0  0  0  0
    2.6160   -2.1090   28.2500 O   0  0  0  0  0  0  0  0  0  0  0  0
    4.9840   -4.0220   19.5090 O   0  0  0  0  0  0  0  0  0  0  0  0
    6.0380   -3.6190   19.9520 C   0  0  0  0  0  0  0  0  0  0  0  0
    7.1240   -3.0670   19.0400 C   0  0  0  0  0  0  0  0  0  0  0  0
    6.4090   -1.4200   23.6180 C   0  0  0  0  0  0  0  0  0  0  0  0
    6.3990    0.2100   17.8190 N   0  0  0  0  0  0  0  0  0  0  0  0
    5.1660    1.0070   17.7640 C   0  0  0  0  0  0  0  0  0  0  0  0
    4.4550    1.4250   19.0300 C   0  0  0  0  0  0  0  0  0  0  0  0
    5.0440    1.0230   20.3730 C   0  0  0  0  0  0  0  0  0  0  0  0
    6.3460    0.2000   20.3710 C   0  0  0  0  0  0  0  0  0  0  0  0
    6.9810   -0.1900   19.0570 C   0  0  0  0  0  0  0  0  0  0  0  0
   10.3130   -1.1940   24.4520 N   0  0  0  0  0  0  0  0  0  0  0  0
    8.9720   -1.1800   24.3000 N   0  0  0  0  0  0  0  0  0  0  0  0
    8.7440   -1.3560   22.9670 C   0  0  0  0  0  0  0  0  0  0  0  0
   10.0670   -1.4850   22.2590 C   0  0  0  0  0  0  0  0  0  0  0  0
   10.9570   -1.3680   23.2920 C   0  0  0  0  0  0  0  0  0  0  0  0
    9.5370    3.2850   23.5660 C   0  0  0  0  0  0  0  0  0  0  0  0
   10.3530    4.4910   23.7910 C   0  0  0  0  0  0  0  0  0  0  0  0
    9.7960    5.8550   23.3980 C   0  0  0  0  0  0  0  0  0  0  0  0
    8.5000    5.9350   22.8080 C   0  0  0  0  0  0  0  0  0  0  0  0
    7.6470    4.6630   22.5700 C   0  0  0  0  0  0  0  0  0  0  0  0
    8.2640    3.3260   23.0020 C   0  0  0  0  0  0  0  0  0  0  0  0
    3.4520   -2.5270   27.2530 C   0  0  0  0  0  0  0  0  0  0  0  0
    4.9400   -2.1560   27.1050 C   0  0  0  0  0  0  0  0  0  0  0  0
    5.7960   -2.6710   25.9680 C   0  0  0  0  0  0  0  0  0  0  0  0
    5.2030   -3.5940   24.9060 C   0  0  0  0  0  0  0  0  0  0  0  0
    3.6920   -3.9350   25.1000 C   0  0  0  0  0  0  0  0  0  0  0  0
    2.8680   -3.3800   26.2840 C   0  0  0  0  0  0  0  0  0  0  0  0
    6.2060   -3.7440   21.2990 N   0  0  0  0  0  0  0  0  0  0  0  0
    7.2780   -3.0060   22.0490 C   0  0  2  0  0  0  0  0  0  0  0  0
    7.2460   -3.6610   23.4450 C   0  0  0  0  0  0  0  0  0  0  0  0
    5.8810   -4.1360   23.8190 N   0  0  0  0  0  0  0  0  0  0  0  0
    5.3300   -5.2100   23.0060 C   0  0  0  0  0  0  0  0  0  0  0  0
    6.1190   -5.1690   21.7140 C   0  0  0  0  0  0  0  0  0  0  0  0
  1  4  1  0
  2  5  1  0
  3  5  2  0
  4  5  1  6
  6  7  1  0
  9 10  1  0
  9 11  1  0
  9 12  1  0
 13 14  1  0
 15 16  1  0
 17 18  2  0
 18 19  1  0
  1 20  1  1
 21 22  2  0
 22 23  1  0
 23 24  2  0
  4 25  1  0
 24 25  1  0
 21 26  1  0
 25 26  2  0
 27 28  1  0
  1 29  1  0
 28 29  2  0
 29 30  1  0
  9 31  1  0
 27 31  1  0
 30 31  2  0
  6 32  1  0
 32 33  2  0
 13 34  1  0
 33 34  1  0
 34 35  2  0
  8 36  1  0
 35 36  1  0
  2 37  1  0
 32 37  1  0
 36 37  2  0
 16 38  1  0
 38 39  2  0
 39 40  1  0
 40 41  2  0
 41 42  1  0
 38 43  1  0
 42 43  2  0
 18 44  1  0
  1 45  1  0
 44 45  1  0
 45 46  1  1
 41 47  1  0
 46 47  1  0
 47 48  1  0
 44 49  1  0
 48 49  1  0
M  END
