x1425-x0770
     RDKit          3D

 26 28  0  0  0  0  0  0  0  0999 V2000
    1.3410   -2.3520   28.3120 C   0  0  0  0  0  0  0  0  0  0  0  0
    2.5550   -2.1520   28.3930 O   0  0  0  0  0  0  0  0  0  0  0  0
    5.1980   -4.3690   19.7930 O   0  0  0  0  0  0  0  0  0  0  0  0
    6.2930   -3.9570   20.1430 C   0  0  0  0  0  0  0  0  0  0  0  0
    7.2110   -3.2370   19.1740 C   0  0  0  0  0  0  0  0  0  0  0  0
    3.3210   -2.5630   27.3350 C   0  0  0  0  0  0  0  0  0  0  0  0
    4.7600   -2.0470   27.2110 C   0  0  0  0  0  0  0  0  0  0  0  0
    5.5990   -2.5100   26.0410 C   0  0  0  0  0  0  0  0  0  0  0  0
    5.0880   -3.4760   24.9590 C   0  0  0  0  0  0  0  0  0  0  0  0
    3.6290   -3.9870   25.0950 C   0  0  0  0  0  0  0  0  0  0  0  0
    2.7780   -3.5250   26.2730 C   0  0  0  0  0  0  0  0  0  0  0  0
    6.7680   -4.1790   21.4130 N   0  0  0  0  0  0  0  0  0  0  0  0
    7.2800   -3.0390   22.1650 C   0  0  1  0  0  0  0  0  0  0  0  0
    6.3510   -2.6680   23.1300 C   0  0  0  0  0  0  0  0  0  0  0  0
    5.9310   -3.8360   23.9370 N   0  0  0  0  0  0  0  0  0  0  0  0
    5.5970   -5.0110   23.2190 C   0  0  0  0  0  0  0  0  0  0  0  0
    6.4210   -5.3950   22.1780 C   0  0  0  0  0  0  0  0  0  0  0  0
   13.4490   -1.6510   21.1410 Cl  0  0  0  0  0  0  0  0  0  0  0  0
    9.1490   -2.6090   24.0090 C   0  0  0  0  0  0  0  0  0  0  0  0
   10.4010   -0.4330   24.4310 C   0  0  0  0  0  0  0  0  0  0  0  0
   11.4520    0.4450   24.1480 C   0  0  0  0  0  0  0  0  0  0  0  0
   12.5230    0.1700   23.1050 C   0  0  0  0  0  0  0  0  0  0  0  0
   12.3920   -1.1500   22.3440 C   0  0  0  0  0  0  0  0  0  0  0  0
   11.2480   -2.0660   22.6740 C   0  0  0  0  0  0  0  0  0  0  0  0
   10.2770   -1.6430   23.7390 C   0  0  0  0  0  0  0  0  0  0  0  0
    8.6850   -3.3220   22.7550 C   0  0  0  0  0  0  0  0  0  0  0  0
  1  2  1  0
  3  4  2  0
  4  5  1  0
  2  6  1  0
  6  7  2  0
  7  8  1  0
  8  9  2  0
  9 10  1  0
  6 11  1  0
 10 11  2  0
  4 12  1  0
 12 13  1  0
 13 14  1  0
  9 15  1  0
 14 15  1  0
 15 16  1  0
 12 17  1  0
 16 17  1  0
 20 21  2  0
 21 22  1  0
 18 23  1  0
 22 23  2  0
 23 24  1  0
 19 25  1  0
 20 25  1  0
 24 25  2  0
 13 26  1  1
 19 26  1  0
M  END
