x1425-x2694
     RDKit          3D

 47 51  0  0  0  0  0  0  0  0999 V2000
    7.5650   -0.8060   22.1550 N   0  0  0  0  0  0  0  0  0  0  0  0
    7.7930    2.6150   22.7340 N   0  0  0  0  0  0  0  0  0  0  0  0
    9.0670    1.6650   21.1180 O   0  0  0  0  0  0  0  0  0  0  0  0
   11.1710    6.8870   24.0080 O   0  0  0  0  0  0  0  0  0  0  0  0
    7.0100    0.5190   21.7870 C   0  0  1  0  0  0  0  0  0  0  0  0
    8.0730    1.6320   21.8250 C   0  0  0  0  0  0  0  0  0  0  0  0
   10.3290    2.1180   24.0130 C   0  0  0  0  0  0  0  0  0  0  0  0
   11.8840    6.6640   25.2300 C   0  0  0  0  0  0  0  0  0  0  0  0
   12.4080   -1.5510   23.3150 C   0  0  0  0  0  0  0  0  0  0  0  0
   12.9610   -0.1620   23.5660 C   0  0  0  0  0  0  0  0  0  0  0  0
   12.8960   -2.0080   21.9140 C   0  0  0  0  0  0  0  0  0  0  0  0
   12.9040   -2.4090   24.4850 C   0  0  0  0  0  0  0  0  0  0  0  0
    1.2510   -2.3610   28.3250 C   0  0  0  0  0  0  0  0  0  0  0  0
    2.6280   -2.0100   28.2590 O   0  0  0  0  0  0  0  0  0  0  0  0
    5.1200   -4.5640   19.8120 O   0  0  0  0  0  0  0  0  0  0  0  0
    6.1780   -4.0800   20.1370 C   0  0  0  0  0  0  0  0  0  0  0  0
    7.0470   -3.2930   19.1610 C   0  0  0  0  0  0  0  0  0  0  0  0
    7.0320   -1.8480   21.3090 C   0  0  0  0  0  0  0  0  0  0  0  0
    6.3770    0.2070   17.9840 N   0  0  0  0  0  0  0  0  0  0  0  0
    5.2000    1.0590   17.9080 C   0  0  0  0  0  0  0  0  0  0  0  0
    4.6680    1.6690   19.0540 C   0  0  0  0  0  0  0  0  0  0  0  0
    5.2420    1.4950   20.3140 C   0  0  0  0  0  0  0  0  0  0  0  0
    6.3680    0.6930   20.4210 C   0  0  0  0  0  0  0  0  0  0  0  0
    6.9280    0.0340   19.1830 C   0  0  0  0  0  0  0  0  0  0  0  0
    8.8840   -1.2310   24.1490 N   0  0  0  0  0  0  0  0  0  0  0  0
   10.2350   -1.4400   24.4510 O   0  0  0  0  0  0  0  0  0  0  0  0
   11.0080   -1.3950   23.3200 C   0  0  0  0  0  0  0  0  0  0  0  0
   10.1240   -1.1400   22.1490 C   0  0  0  0  0  0  0  0  0  0  0  0
    8.7910   -1.0500   22.8100 C   0  0  0  0  0  0  0  0  0  0  0  0
    9.8270    3.5000   23.6430 C   0  0  0  0  0  0  0  0  0  0  0  0
   10.6470    4.6000   23.9400 C   0  0  0  0  0  0  0  0  0  0  0  0
   10.2730    5.9290   23.6450 C   0  0  0  0  0  0  0  0  0  0  0  0
    9.0360    6.1220   23.0230 C   0  0  0  0  0  0  0  0  0  0  0  0
    8.2540    5.0100   22.7410 C   0  0  0  0  0  0  0  0  0  0  0  0
    8.6010    3.7020   23.0300 C   0  0  0  0  0  0  0  0  0  0  0  0
    3.3350   -2.5560   27.2320 C   0  0  0  0  0  0  0  0  0  0  0  0
    4.7960   -2.0730   27.1790 C   0  0  0  0  0  0  0  0  0  0  0  0
    5.6760   -2.6330   26.0650 C   0  0  0  0  0  0  0  0  0  0  0  0
    5.0560   -3.6230   25.0890 C   0  0  0  0  0  0  0  0  0  0  0  0
    3.6010   -3.9840   25.2860 C   0  0  0  0  0  0  0  0  0  0  0  0
    2.8010   -3.4700   26.3060 C   0  0  0  0  0  0  0  0  0  0  0  0
    6.6410   -4.2350   21.4080 N   0  0  0  0  0  0  0  0  0  0  0  0
    6.4140   -3.0140   22.1110 C   0  0  1  0  0  0  0  0  0  0  0  0
    6.8400   -3.1610   23.3940 C   0  0  0  0  0  0  0  0  0  0  0  0
    5.9500   -4.1340   24.0390 N   0  0  0  0  0  0  0  0  0  0  0  0
    5.5120   -5.2860   23.2250 C   0  0  0  0  0  0  0  0  0  0  0  0
    6.3350   -5.4880   22.1060 C   0  0  0  0  0  0  0  0  0  0  0  0
  1  5  1  0
  2  6  1  0
  3  6  2  0
  5  6  1  6
  4  8  1  0
  9 10  1  0
  9 11  1  0
  9 12  1  0
 13 14  1  0
 15 16  2  0
 16 17  1  0
  1 18  1  0
 19 20  2  0
 20 21  1  0
 21 22  2  0
  5 23  1  0
 22 23  1  0
 19 24  1  0
 23 24  2  0
 25 26  1  0
  9 27  1  0
 26 27  1  0
 27 28  2  0
  1 29  1  0
 25 29  2  0
 28 29  1  0
  7 30  1  0
 30 31  2  0
  4 32  1  0
 31 32  1  0
 32 33  2  0
 33 34  1  0
  2 35  1  0
 30 35  1  0
 34 35  2  0
 14 36  1  0
 36 37  2  0
 37 38  1  0
 38 39  2  0
 39 40  1  0
 36 41  1  0
 40 41  2  0
 16 42  1  0
 43 18  1  6
 42 43  1  0
 43 44  1  0
 39 45  1  0
 44 45  1  0
 45 46  1  0
 42 47  1  0
 46 47  1  0
M  END
