x1425-x2540
     RDKit          3D

 42 45  0  0  0  0  0  0  0  0999 V2000
    7.5940   -0.8530   21.9090 N   0  0  0  0  0  0  0  0  0  0  0  0
    8.1170    2.1520   23.1080 N   0  0  0  0  0  0  0  0  0  0  0  0
    9.0410    1.9660   21.0600 O   0  0  0  0  0  0  0  0  0  0  0  0
    7.1380    0.5230   21.6480 C   0  0  1  0  0  0  0  0  0  0  0  0
    8.2100    1.5980   21.8720 C   0  0  0  0  0  0  0  0  0  0  0  0
    9.0410    3.1670   23.4800 C   0  0  0  0  0  0  0  0  0  0  0  0
    8.8980    3.3440   24.9840 C   0  0  0  0  0  0  0  0  0  0  0  0
    8.6640    4.5090   22.8170 C   0  0  0  0  0  0  0  0  0  0  0  0
   10.4950    2.7970   23.0980 C   0  0  0  0  0  0  0  0  0  0  0  0
   12.2220   -1.3180   23.5870 C   0  0  0  0  0  0  0  0  0  0  0  0
   12.9910   -1.3030   22.2560 C   0  0  0  0  0  0  0  0  0  0  0  0
   12.5400   -0.0220   24.3160 C   0  0  0  0  0  0  0  0  0  0  0  0
   12.7460   -2.5040   24.4320 C   0  0  0  0  0  0  0  0  0  0  0  0
    1.2120   -2.3870   28.2410 C   0  0  0  0  0  0  0  0  0  0  0  0
    2.6160   -2.1920   28.3460 O   0  0  0  0  0  0  0  0  0  0  0  0
    5.1100   -4.6010   19.8450 O   0  0  0  0  0  0  0  0  0  0  0  0
    6.1680   -4.1370   20.1950 C   0  0  0  0  0  0  0  0  0  0  0  0
    7.0020   -3.2840   19.2480 C   0  0  0  0  0  0  0  0  0  0  0  0
    6.6510   -1.9630   21.7970 C   0  0  0  0  0  0  0  0  0  0  0  0
    6.2540    0.2610   17.8840 N   0  0  0  0  0  0  0  0  0  0  0  0
    5.1870    1.0680   17.8050 C   0  0  0  0  0  0  0  0  0  0  0  0
    4.6150    1.7610   18.8460 C   0  0  0  0  0  0  0  0  0  0  0  0
    5.1810    1.6650   20.2410 C   0  0  0  0  0  0  0  0  0  0  0  0
    6.4000    0.7620   20.3720 C   0  0  0  0  0  0  0  0  0  0  0  0
    6.8320    0.1060   19.0790 C   0  0  0  0  0  0  0  0  0  0  0  0
    9.9050   -1.7400   24.4830 O   0  0  0  0  0  0  0  0  0  0  0  0
    8.5670   -1.6170   24.0430 N   0  0  0  0  0  0  0  0  0  0  0  0
    8.6740   -1.1480   22.7770 C   0  0  0  0  0  0  0  0  0  0  0  0
    9.9550   -0.9730   22.3890 C   0  0  0  0  0  0  0  0  0  0  0  0
   10.7060   -1.3390   23.4600 C   0  0  0  0  0  0  0  0  0  0  0  0
    3.3740   -2.5900   27.2860 C   0  0  0  0  0  0  0  0  0  0  0  0
    4.7030   -2.2030   27.0260 C   0  0  0  0  0  0  0  0  0  0  0  0
    5.4740   -2.6290   25.9220 C   0  0  0  0  0  0  0  0  0  0  0  0
    4.9860   -3.5050   24.9390 C   0  0  0  0  0  0  0  0  0  0  0  0
    3.5550   -3.9360   25.1920 C   0  0  0  0  0  0  0  0  0  0  0  0
    2.7600   -3.4570   26.3900 C   0  0  0  0  0  0  0  0  0  0  0  0
    6.6740   -4.3920   21.4460 N   0  0  0  0  0  0  0  0  0  0  0  0
    7.2740   -3.3190   22.1980 C   0  0  2  0  0  0  0  0  0  0  0  0
    7.0450   -3.5650   23.6620 C   0  0  0  0  0  0  0  0  0  0  0  0
    5.6440   -3.9810   23.8320 N   0  0  0  0  0  0  0  0  0  0  0  0
    5.3510   -5.3030   23.1910 C   0  0  0  0  0  0  0  0  0  0  0  0
    6.3300   -5.5900   22.2250 C   0  0  0  0  0  0  0  0  0  0  0  0
  1  4  1  0
  2  5  1  0
  3  5  2  0
  4  5  1  6
  6  2  1  0
  6  7  1  0
  6  8  1  0
  6  9  1  0
 10 11  1  0
 10 12  1  0
 10 13  1  0
 14 15  1  0
 16 17  2  0
 17 18  1  0
  1 19  1  0
 20 21  2  0
 21 22  1  0
 22 23  2  0
  4 24  1  0
 23 24  1  0
 20 25  1  0
 24 25  2  0
 26 27  1  0
  1 28  1  0
 27 28  2  0
 28 29  1  0
 10 30  1  0
 26 30  1  0
 29 30  2  0
 15 31  1  0
 31 32  2  0
 32 33  1  0
 33 34  2  0
 34 35  1  0
 31 36  1  0
 35 36  2  0
 17 37  1  0
 38 19  1  6
 37 38  1  0
 38 39  1  0
 34 40  1  0
 39 40  1  0
 40 41  1  0
 37 42  1  0
 41 42  1  0
M  END
