x1425-x3080
     RDKit          3D

 44 48  0  0  0  0  0  0  0  0999 V2000
   10.1370   -0.4520   23.3040 N   0  0  0  0  0  0  0  0  0  0  0  0
   10.9560    0.7900   23.3710 C   0  0  0  0  0  0  0  0  0  0  0  0
    9.0740    1.3740   21.2750 O   0  0  0  0  0  0  0  0  0  0  0  0
    9.8530   -0.8160   22.0080 C   0  0  0  0  0  0  0  0  0  0  0  0
    7.6230   -0.4600   20.9210 N   0  0  0  0  0  0  0  0  0  0  0  0
    7.7490   -0.9190   23.4680 N   0  0  0  0  0  0  0  0  0  0  0  0
    8.8420    0.1580   21.3810 C   0  0  0  0  0  0  0  0  0  0  0  0
    8.9620    0.2960   25.4430 O   0  0  0  0  0  0  0  0  0  0  0  0
    5.4230    0.9460   21.8880 C   0  0  0  0  0  0  0  0  0  0  0  0
    8.9260   -0.7420   24.4340 S   0  0  2  0  0  0  0  0  0  0  0  0
    1.4930   -2.2440   28.5340 C   0  0  0  0  0  0  0  0  0  0  0  0
    2.9240   -2.2680   28.4550 O   0  0  0  0  0  0  0  0  0  0  0  0
    5.3160   -4.6830   19.9420 O   0  0  0  0  0  0  0  0  0  0  0  0
    6.3450   -4.1550   20.3530 C   0  0  0  0  0  0  0  0  0  0  0  0
    7.1190   -3.2500   19.4190 C   0  0  0  0  0  0  0  0  0  0  0  0
    7.4870   -2.2520   22.9080 C   0  0  0  0  0  0  0  0  0  0  0  0
    6.2870    0.4890   17.7120 N   0  0  0  0  0  0  0  0  0  0  0  0
    5.1520    1.2470   18.1200 C   0  0  0  0  0  0  0  0  0  0  0  0
    4.7920    1.4390   19.5700 C   0  0  0  0  0  0  0  0  0  0  0  0
    5.6850    0.8160   20.4190 C   0  0  0  0  0  0  0  0  0  0  0  0
    6.7830    0.0990   19.9440 C   0  0  0  0  0  0  0  0  0  0  0  0
    7.1300   -0.1080   18.6010 C   0  0  0  0  0  0  0  0  0  0  0  0
   11.6580   -1.4430   24.7790 N   0  0  0  0  0  0  0  0  0  0  0  0
   10.7290   -2.4600   25.2750 C   0  0  0  0  0  0  0  0  0  0  0  0
   11.1960   -3.6460   25.8750 C   0  0  0  0  0  0  0  0  0  0  0  0
   12.5860   -3.8190   26.0060 C   0  0  0  0  0  0  0  0  0  0  0  0
   13.6080   -2.8030   25.5260 C   0  0  0  0  0  0  0  0  0  0  0  0
   12.9710   -1.6010   24.8900 C   0  0  0  0  0  0  0  0  0  0  0  0
    8.4410   -3.1910   25.6130 C   0  0  0  0  0  0  0  0  0  0  0  0
    8.9200   -4.4670   26.2480 C   0  0  0  0  0  0  0  0  0  0  0  0
   10.2890   -4.6400   26.3550 C   0  0  0  0  0  0  0  0  0  0  0  0
    9.3730   -2.2650   25.1680 C   0  0  0  0  0  0  0  0  0  0  0  0
    3.4460   -2.6680   27.2630 C   0  0  0  0  0  0  0  0  0  0  0  0
    4.6590   -2.2420   26.6980 C   0  0  0  0  0  0  0  0  0  0  0  0
    5.1070   -2.7140   25.4480 C   0  0  0  0  0  0  0  0  0  0  0  0
    4.3910   -3.6450   24.6600 C   0  0  0  0  0  0  0  0  0  0  0  0
    3.0850   -4.1220   25.2490 C   0  0  0  0  0  0  0  0  0  0  0  0
    2.6390   -3.5880   26.5970 C   0  0  0  0  0  0  0  0  0  0  0  0
    6.8910   -4.4110   21.6510 N   0  0  0  0  0  0  0  0  0  0  0  0
    6.7170   -3.4030   22.6870 C   0  0  2  0  0  0  0  0  0  0  0  0
    5.2940   -3.0980   22.5340 C   0  0  0  0  0  0  0  0  0  0  0  0
    4.8050   -4.1090   23.4280 N   0  0  0  0  0  0  0  0  0  0  0  0
    5.4550   -5.4830   23.3240 C   0  0  0  0  0  0  0  0  0  0  0  0
    6.4770   -5.6840   22.3300 C   0  0  0  0  0  0  0  0  0  0  0  0
  1  2  1  0
  1  4  1  0
  3  7  2  0
  4  7  1  0
  5  7  1  0
 10  1  1  6
  6 10  2  0
  8 10  2  0
 11 12  1  0
 13 14  2  0
 14 15  1  0
  6 16  1  0
 17 18  2  0
 18 19  1  0
  9 20  1  0
 19 20  2  0
  5 21  1  0
 20 21  1  0
 17 22  1  0
 21 22  2  0
 23 24  2  0
 24 25  1  0
 25 26  2  0
 26 27  1  0
 23 28  1  0
 27 28  2  0
 29 30  1  0
 25 31  1  0
 30 31  2  0
 10 32  1  0
 24 32  1  0
 29 32  2  0
 12 33  1  0
 33 34  2  0
 34 35  1  0
 35 36  2  0
 36 37  1  0
 33 38  1  0
 37 38  2  0
 14 39  1  0
 40 16  1  6
 39 40  1  0
 40 41  1  0
 36 42  1  0
 41 42  1  0
 42 43  1  0
 39 44  1  0
 43 44  1  0
M  END
