x1425-x1077-x2705
     RDKit          3D

 55 60  0  0  0  0  0  0  0  0999 V2000
    7.3700   -1.1590   22.4660 C   0  0  2  0  0  0  0  0  0  0  0  0
    7.6280    2.2420   22.9600 N   0  0  0  0  0  0  0  0  0  0  0  0
    9.0650    1.3340   21.1110 O   0  0  0  0  0  0  0  0  0  0  0  0
    6.9300    0.1510   21.8640 C   0  0  1  0  0  0  0  0  0  0  0  0
    7.9580    1.2830   21.9710 C   0  0  0  0  0  0  0  0  0  0  0  0
   10.2300    2.2030   23.9670 C   0  0  0  0  0  0  0  0  0  0  0  0
    9.4010    1.4070   24.7140 C   0  0  0  0  0  0  0  0  0  0  0  0
    6.2020    4.8300   21.9730 C   0  0  0  0  0  0  0  0  0  0  0  0
   12.3820   -1.4000   23.2230 C   0  0  0  0  0  0  0  0  0  0  0  0
   12.8160    0.0530   23.3920 C   0  0  0  0  0  0  0  0  0  0  0  0
   12.8300   -2.3950   24.1120 C   0  0  0  0  0  0  0  0  0  0  0  0
   12.9030   -1.7180   21.8520 C   0  0  0  0  0  0  0  0  0  0  0  0
    1.4660   -2.2930   28.7380 C   0  0  0  0  0  0  0  0  0  0  0  0
    2.8760   -2.4220   28.6100 O   0  0  0  0  0  0  0  0  0  0  0  0
    5.6870   -4.8580   20.0060 O   0  0  0  0  0  0  0  0  0  0  0  0
    6.6180   -4.0780   20.2530 C   0  0  0  0  0  0  0  0  0  0  0  0
    7.3980   -3.3550   19.1840 C   0  0  0  0  0  0  0  0  0  0  0  0
    6.7440   -1.3010   23.8190 C   0  0  0  0  0  0  0  0  0  0  0  0
    6.3180    0.2370   17.8390 N   0  0  0  0  0  0  0  0  0  0  0  0
    5.2190    1.0200   17.7960 C   0  0  0  0  0  0  0  0  0  0  0  0
    4.5620    1.5770   19.0620 C   0  0  0  0  0  0  0  0  0  0  0  0
    5.1700    1.2500   20.4110 C   0  0  0  0  0  0  0  0  0  0  0  0
    6.4200    0.3720   20.4570 C   0  0  0  0  0  0  0  0  0  0  0  0
    6.9450   -0.1140   19.1110 C   0  0  0  0  0  0  0  0  0  0  0  0
   10.2330   -1.5460   24.4210 N   0  0  0  0  0  0  0  0  0  0  0  0
    8.8900   -1.4740   24.1530 N   0  0  0  0  0  0  0  0  0  0  0  0
    8.8530   -1.2830   22.8750 C   0  0  0  0  0  0  0  0  0  0  0  0
    9.8710   -1.1900   22.0370 C   0  0  0  0  0  0  0  0  0  0  0  0
   10.8850   -1.3770   23.1790 C   0  0  0  0  0  0  0  0  0  0  0  0
    9.5610    3.4890   23.5260 C   0  0  0  0  0  0  0  0  0  0  0  0
   10.2890    4.6730   23.6380 C   0  0  0  0  0  0  0  0  0  0  0  0
    9.7120    5.9620   23.2150 C   0  0  0  0  0  0  0  0  0  0  0  0
    8.2950    5.9930   22.6410 C   0  0  0  0  0  0  0  0  0  0  0  0
    7.5920    4.7730   22.5460 C   0  0  0  0  0  0  0  0  0  0  0  0
    8.2640    3.4790   23.0180 C   0  0  0  0  0  0  0  0  0  0  0  0
    3.2920   -2.7090   27.3520 C   0  0  0  0  0  0  0  0  0  0  0  0
    4.6460   -2.1430   26.9320 C   0  0  0  0  0  0  0  0  0  0  0  0
    5.2130   -2.3870   25.5390 C   0  0  0  0  0  0  0  0  0  0  0  0
    4.4350   -3.2080   24.5120 C   0  0  0  0  0  0  0  0  0  0  0  0
    3.0840   -3.7660   24.9810 C   0  0  0  0  0  0  0  0  0  0  0  0
    2.5760   -3.4710   26.4240 C   0  0  0  0  0  0  0  0  0  0  0  0
    7.0460   -3.7850   21.5140 N   0  0  0  0  0  0  0  0  0  0  0  0
    6.6030   -2.4010   21.7800 C   0  0  1  0  0  0  0  0  0  0  0  0
    5.1320   -2.4500   22.1910 C   0  0  0  0  0  0  0  0  0  0  0  0
    4.8230   -3.4940   23.1960 N   0  0  0  0  0  0  0  0  0  0  0  0
    5.2720   -4.8530   22.8730 C   0  0  0  0  0  0  0  0  0  0  0  0
    6.7430   -4.6530   22.6850 C   0  0  1  0  0  0  0  0  0  0  0  0
    7.4000   -4.4810   25.1690 O   0  0  0  0  0  0  0  0  0  0  0  0
    7.9530   -5.6680   24.6390 C   0  0  2  0  0  0  0  0  0  0  0  0
    9.3080   -5.8620   24.8010 C   0  0  0  0  0  0  0  0  0  0  0  0
   10.1090   -4.7590   25.0530 C   0  0  0  0  0  0  0  0  0  0  0  0
    9.5840   -3.8470   26.0400 N   0  0  0  0  0  0  0  0  0  0  0  0
    8.7090   -4.4950   27.0060 C   0  0  0  0  0  0  0  0  0  0  0  0
    7.3930   -4.4970   26.5860 C   0  0  0  0  0  0  0  0  0  0  0  0
    7.5320   -5.8500   23.1690 C   0  0  0  0  0  0  0  0  0  0  0  0
  1  4  1  0
  2  5  1  0
  3  5  2  0
  4  5  1  6
  6  7  1  0
  9 10  1  0
  9 11  1  0
  9 12  1  0
 13 14  1  0
 15 16  2  0
 16 17  1  0
  1 18  1  1
 19 20  2  0
 20 21  1  0
 21 22  2  0
  4 23  1  0
 22 23  1  0
 19 24  1  0
 23 24  2  0
 25 26  1  0
  1 27  1  0
 26 27  1  0
 27 28  2  0
  9 29  1  0
 25 29  2  0
 28 29  1  0
  6 30  1  0
 30 31  2  0
 31 32  1  0
 32 33  2  0
  8 34  1  0
 33 34  1  0
  2 35  1  0
 30 35  1  0
 34 35  2  0
 14 36  1  0
 36 37  2  0
 37 38  1  0
 38 39  2  0
 39 40  1  0
 36 41  1  0
 40 41  2  0
 16 42  1  0
  1 43  1  0
 42 43  1  0
 43 44  1  1
 39 45  1  0
 44 45  1  0
 45 46  1  0
 42 47  1  0
 46 47  1  0
 48 49  1  0
 49 50  1  0
 50 51  1  0
 51 52  1  0
 52 53  1  0
 48 54  1  0
 53 54  1  0
 47 55  1  6
 49 55  1  6
M  END
