x1425-x3115
     RDKit          3D

 42 45  0  0  0  0  0  0  0  0999 V2000
    7.4850   -1.6450   21.6620 N   0  0  0  0  0  0  0  0  0  0  0  0
    7.7170    1.5210   23.1150 N   0  0  0  0  0  0  0  0  0  0  0  0
    8.6250    1.3310   21.0270 O   0  0  0  0  0  0  0  0  0  0  0  0
    8.4710    5.1480   23.0490 O   0  0  0  0  0  0  0  0  0  0  0  0
    6.8250   -0.2790   21.6260 C   0  0  1  0  0  0  0  0  0  0  0  0
    7.8240    0.9140   21.8760 C   0  0  0  0  0  0  0  0  0  0  0  0
    8.4660    2.7320   23.3680 C   0  0  0  0  0  0  0  0  0  0  0  0
    7.9580    3.9160   22.5060 C   0  0  0  0  0  0  0  0  0  0  0  0
    8.1940    6.2620   22.2030 C   0  0  0  0  0  0  0  0  0  0  0  0
   12.5630   -1.9610   24.4120 C   0  0  0  0  0  0  0  0  0  0  0  0
   13.4860   -2.1010   23.2110 C   0  0  0  0  0  0  0  0  0  0  0  0
   12.9780   -3.0860   25.4080 C   0  0  0  0  0  0  0  0  0  0  0  0
   12.7010   -0.6120   25.0790 C   0  0  0  0  0  0  0  0  0  0  0  0
    1.3770   -2.3170   28.4940 C   0  0  0  0  0  0  0  0  0  0  0  0
    2.6020   -2.3700   28.6230 O   0  0  0  0  0  0  0  0  0  0  0  0
    5.1260   -4.3750   19.7760 O   0  0  0  0  0  0  0  0  0  0  0  0
    6.1880   -3.9000   20.1320 C   0  0  0  0  0  0  0  0  0  0  0  0
    7.1120   -3.1960   19.1650 C   0  0  0  0  0  0  0  0  0  0  0  0
    6.3740    0.2970   17.8590 N   0  0  0  0  0  0  0  0  0  0  0  0
    5.1510    1.0830   17.9020 C   0  0  0  0  0  0  0  0  0  0  0  0
    4.5120    1.3770   19.1190 C   0  0  0  0  0  0  0  0  0  0  0  0
    5.0310    0.9340   20.3390 C   0  0  0  0  0  0  0  0  0  0  0  0
    6.2050    0.1890   20.3270 C   0  0  0  0  0  0  0  0  0  0  0  0
    6.8720   -0.1290   19.0140 C   0  0  0  0  0  0  0  0  0  0  0  0
    9.8890   -1.3090   21.7530 C   0  0  0  0  0  0  0  0  0  0  0  0
   11.2250   -1.3770   22.4040 C   0  0  0  0  0  0  0  0  0  0  0  0
   11.2350   -1.9340   23.8210 C   0  0  0  0  0  0  0  0  0  0  0  0
   10.0160   -2.3270   24.3760 C   0  0  0  0  0  0  0  0  0  0  0  0
    8.8240   -2.2250   23.6730 C   0  0  0  0  0  0  0  0  0  0  0  0
    8.7560   -1.7210   22.3620 C   0  0  0  0  0  0  0  0  0  0  0  0
    3.3360   -2.6680   27.4230 C   0  0  0  0  0  0  0  0  0  0  0  0
    4.5950   -2.1660   27.0940 C   0  0  0  0  0  0  0  0  0  0  0  0
    5.2830   -2.4560   25.9330 C   0  0  0  0  0  0  0  0  0  0  0  0
    4.6450   -3.3940   24.9150 C   0  0  0  0  0  0  0  0  0  0  0  0
    3.2680   -3.9860   25.2130 C   0  0  0  0  0  0  0  0  0  0  0  0
    2.6740   -3.5430   26.5470 C   0  0  0  0  0  0  0  0  0  0  0  0
    6.6310   -4.0340   21.4350 N   0  0  0  0  0  0  0  0  0  0  0  0
    6.8120   -2.8270   22.2560 C   0  0  2  0  0  0  0  0  0  0  0  0
    5.5120   -2.5430   22.8530 C   0  0  0  0  0  0  0  0  0  0  0  0
    5.3130   -3.6700   23.7560 N   0  0  0  0  0  0  0  0  0  0  0  0
    5.1990   -4.9970   23.1180 C   0  0  0  0  0  0  0  0  0  0  0  0
    6.2960   -5.2240   22.2470 C   0  0  0  0  0  0  0  0  0  0  0  0
  1  5  1  0
  2  6  1  0
  3  6  2  0
  5  6  1  6
  2  7  1  0
  4  8  1  0
  7  8  1  0
  4  9  1  0
 10 11  1  0
 10 12  1  0
 10 13  1  0
 14 15  1  0
 16 17  2  0
 17 18  1  0
 19 20  2  0
 20 21  1  0
 21 22  2  0
  5 23  1  0
 22 23  1  0
 19 24  1  0
 23 24  2  0
 25 26  2  0
 10 27  1  0
 26 27  1  0
 27 28  2  0
 28 29  1  0
  1 30  1  0
 25 30  1  0
 29 30  2  0
 15 31  1  0
 31 32  2  0
 32 33  1  0
 33 34  2  0
 34 35  1  0
 31 36  1  0
 35 36  2  0
 17 37  1  0
 38  1  1  6
 37 38  1  0
 38 39  1  0
 34 40  1  0
 39 40  1  0
 40 41  1  0
 37 42  1  0
 41 42  1  0
M  END
