x1458-x3115
     RDKit          3D

 41 43  0  0  0  0  0  0  0  0999 V2000
    7.6630   -1.7370   21.6030 N   0  0  0  0  0  0  0  0  0  0  0  0
    7.4680    1.6810   22.9370 N   0  0  0  0  0  0  0  0  0  0  0  0
    8.9590    0.8300   21.3980 O   0  0  0  0  0  0  0  0  0  0  0  0
    8.3830    4.9840   23.0410 O   0  0  0  0  0  0  0  0  0  0  0  0
    6.8900   -0.4340   21.6640 C   0  0  1  0  0  0  0  0  0  0  0  0
    7.8910    0.7450   21.9920 C   0  0  0  0  0  0  0  0  0  0  0  0
    8.1790    2.7090   23.2810 C   0  0  0  0  0  0  0  0  0  0  0  0
    7.8290    3.9950   22.5210 C   0  0  0  0  0  0  0  0  0  0  0  0
    8.2270    6.0190   22.3840 C   0  0  0  0  0  0  0  0  0  0  0  0
   12.5630   -1.8980   24.3330 C   0  0  0  0  0  0  0  0  0  0  0  0
   13.5050   -2.0110   23.1560 C   0  0  0  0  0  0  0  0  0  0  0  0
   12.9170   -3.0330   25.2950 C   0  0  0  0  0  0  0  0  0  0  0  0
   12.6780   -0.5530   25.0120 C   0  0  0  0  0  0  0  0  0  0  0  0
    7.0790   -3.3430   26.5890 N   0  0  0  0  0  0  0  0  0  0  0  0
    8.7980   -4.6450   27.1730 C   0  0  0  0  0  0  0  0  0  0  0  0
    4.8280   -4.1980   26.0330 O   0  0  0  0  0  0  0  0  0  0  0  0
    7.4170   -4.4410   27.2800 C   0  0  0  0  0  0  0  0  0  0  0  0
    5.0940   -4.3820   19.7570 O   0  0  0  0  0  0  0  0  0  0  0  0
    6.6110   -5.5710   27.1520 C   0  0  0  0  0  0  0  0  0  0  0  0
    6.5880   -2.2900   27.2620 C   0  0  0  0  0  0  0  0  0  0  0  0
    6.1780   -3.8780   25.6690 C   0  0  0  0  0  0  0  0  0  0  0  0
    6.1290   -3.8770   20.1400 C   0  0  0  0  0  0  0  0  0  0  0  0
    7.1000   -3.1680   19.2120 C   0  0  0  0  0  0  0  0  0  0  0  0
    6.3860    0.2320   17.9490 N   0  0  0  0  0  0  0  0  0  0  0  0
    5.1490    1.0130   17.9910 C   0  0  0  0  0  0  0  0  0  0  0  0
    4.4390    1.3250   19.2610 C   0  0  0  0  0  0  0  0  0  0  0  0
    5.0750    0.8130   20.3260 C   0  0  0  0  0  0  0  0  0  0  0  0
    6.2550    0.0680   20.3510 C   0  0  0  0  0  0  0  0  0  0  0  0
    6.8750   -0.2010   19.1200 C   0  0  0  0  0  0  0  0  0  0  0  0
    9.9820   -1.3580   21.7840 C   0  0  0  0  0  0  0  0  0  0  0  0
   11.1280   -1.4260   22.4640 C   0  0  0  0  0  0  0  0  0  0  0  0
   11.1940   -1.9000   23.7630 C   0  0  0  0  0  0  0  0  0  0  0  0
   10.1120   -2.3520   24.5400 C   0  0  0  0  0  0  0  0  0  0  0  0
    8.7610   -2.3020   23.8060 C   0  0  0  0  0  0  0  0  0  0  0  0
    8.8230   -1.7650   22.3420 C   0  0  0  0  0  0  0  0  0  0  0  0
    6.4310   -3.9860   21.4590 N   0  0  0  0  0  0  0  0  0  0  0  0
    7.1310   -2.9410   22.1940 C   0  0  2  0  0  0  0  0  0  0  0  0
    6.4390   -2.8680   23.5300 C   0  0  0  0  0  0  0  0  0  0  0  0
    6.6430   -4.0440   24.2230 C   0  0  2  0  0  0  0  0  0  0  0  0
    6.1660   -5.1920   23.5770 C   0  0  0  0  0  0  0  0  0  0  0  0
    6.3260   -5.2780   22.1780 C   0  0  0  0  0  0  0  0  0  0  0  0
  1  5  1  0
  2  6  1  0
  3  6  2  0
  5  6  1  6
  2  7  1  0
  4  8  1  0
  7  8  1  0
  4  9  1  0
 10 11  1  0
 10 12  1  0
 10 13  1  0
 14 17  1  0
 15 17  1  0
 17 19  1  0
 14 20  1  0
 14 21  1  0
 16 21  2  0
 18 22  2  0
 22 23  1  0
 24 25  2  0
 25 26  1  0
 26 27  2  0
  5 28  1  0
 27 28  1  0
 24 29  1  0
 28 29  2  0
 30 31  2  0
 10 32  1  0
 31 32  1  0
 32 33  2  0
 33 34  1  0
  1 35  1  0
 30 35  1  0
 34 35  2  0
 22 36  1  0
 37  1  1  6
 36 37  1  0
 37 38  1  0
 39 21  1  1
 38 39  1  0
 39 40  1  0
 36 41  1  0
 40 41  1  0
M  END
