x1458-x2608
     RDKit          3D

 33 35  0  0  0  0  0  0  0  0999 V2000
    7.3110   -3.6570   26.4650 N   0  0  0  0  0  0  0  0  0  0  0  0
    9.0100   -4.7870   27.9010 C   0  0  0  0  0  0  0  0  0  0  0  0
    5.0430   -3.3870   25.7180 O   0  0  0  0  0  0  0  0  0  0  0  0
    7.8230   -4.8650   26.9120 C   0  0  0  0  0  0  0  0  0  0  0  0
    5.3790   -4.5440   19.9230 O   0  0  0  0  0  0  0  0  0  0  0  0
    6.7940   -5.7230   27.6350 C   0  0  0  0  0  0  0  0  0  0  0  0
    7.7620   -2.3590   26.9880 C   0  0  0  0  0  0  0  0  0  0  0  0
    6.2080   -3.6820   25.4360 C   0  0  0  0  0  0  0  0  0  0  0  0
    6.4210   -4.0210   20.3340 C   0  0  0  0  0  0  0  0  0  0  0  0
    7.2810   -3.2400   19.3800 C   0  0  0  0  0  0  0  0  0  0  0  0
    8.7230   -1.1540   21.8890 N   0  0  0  0  0  0  0  0  0  0  0  0
   12.9020    1.4110   23.1550 C   0  0  0  0  0  0  0  0  0  0  0  0
    8.5200    1.1440   20.9490 O   0  0  0  0  0  0  0  0  0  0  0  0
    6.6990   -0.5470   20.7270 N   0  0  0  0  0  0  0  0  0  0  0  0
    8.0220   -0.1220   21.1800 C   0  0  0  0  0  0  0  0  0  0  0  0
    7.8420   -2.1340   22.5850 C   0  0  0  0  0  0  0  0  0  0  0  0
    6.8220   -4.2110   21.6440 N   0  0  0  0  0  0  0  0  0  0  0  0
    7.9450   -3.5080   22.3980 C   0  0  2  0  0  0  0  0  0  0  0  0
    7.8560   -4.0510   23.6610 C   0  0  0  0  0  0  0  0  0  0  0  0
    6.5210   -4.0680   24.0180 C   0  0  1  0  0  0  0  0  0  0  0  0
    6.0070   -5.2750   23.5920 C   0  0  0  0  0  0  0  0  0  0  0  0
    6.4350   -5.5130   22.2860 C   0  0  0  0  0  0  0  0  0  0  0  0
   11.9970    0.4690   22.8580 C   0  0  0  0  0  0  0  0  0  0  0  0
   12.2650   -0.8650   22.7530 C   0  0  0  0  0  0  0  0  0  0  0  0
   11.1030   -1.6890   22.3940 C   0  0  0  0  0  0  0  0  0  0  0  0
   10.0440   -0.8660   22.2590 C   0  0  0  0  0  0  0  0  0  0  0  0
   10.3790    0.7950   22.5660 S   0  0  0  0  0  0  0  0  0  0  0  0
    6.0600    0.8840   17.5410 N   0  0  0  0  0  0  0  0  0  0  0  0
    6.6410    0.0930   18.6010 C   0  0  0  0  0  0  0  0  0  0  0  0
    6.1100    0.1490   19.8540 C   0  0  0  0  0  0  0  0  0  0  0  0
    5.0290    0.8940   20.2300 C   0  0  0  0  0  0  0  0  0  0  0  0
    4.4330    1.6790   19.2560 C   0  0  0  0  0  0  0  0  0  0  0  0
    4.8900    1.7350   17.9150 C   0  0  0  0  0  0  0  0  0  0  0  0
  1  4  1  0
  2  4  1  0
  4  6  1  0
  1  7  1  0
  1  8  1  0
  3  8  2  0
  5  9  2  0
  9 10  1  0
 11 15  1  0
 13 15  2  0
 14 15  1  0
 11 16  1  0
  9 17  1  0
 18 16  1  1
 17 18  1  0
 18 19  1  0
 20  8  1  1
 19 20  1  0
 20 21  1  0
 17 22  1  0
 21 22  1  0
 12 23  1  0
 23 24  2  0
 24 25  1  0
 11 26  1  0
 25 26  2  0
 23 27  1  0
 26 27  1  0
 28 29  2  0
 14 30  1  0
 29 30  1  0
 30 31  2  0
 31 32  1  0
 28 33  1  0
 32 33  2  0
M  END
