x1458-x0678
     RDKit          3D

 34 36  0  0  0  0  0  0  0  0999 V2000
    7.3040   -3.5130   26.6960 N   0  0  0  0  0  0  0  0  0  0  0  0
    8.9150   -5.4350   26.8250 C   0  0  0  0  0  0  0  0  0  0  0  0
    5.1700   -3.4810   25.5620 O   0  0  0  0  0  0  0  0  0  0  0  0
    7.7590   -4.5940   27.4510 C   0  0  0  0  0  0  0  0  0  0  0  0
    5.2830   -4.7200   19.9430 O   0  0  0  0  0  0  0  0  0  0  0  0
    6.6860   -5.6290   27.7490 C   0  0  0  0  0  0  0  0  0  0  0  0
    7.7540   -2.1430   26.9660 C   0  0  0  0  0  0  0  0  0  0  0  0
    6.3790   -3.7370   25.5150 C   0  0  0  0  0  0  0  0  0  0  0  0
    6.3130   -4.1560   20.2920 C   0  0  0  0  0  0  0  0  0  0  0  0
    7.0990   -3.3350   19.3170 C   0  0  0  0  0  0  0  0  0  0  0  0
    9.1640    1.6190   21.2750 O   0  0  0  0  0  0  0  0  0  0  0  0
    8.6550    0.4920   21.8530 C   0  0  0  0  0  0  0  0  0  0  0  0
    9.2620   -0.2890   23.0310 C   0  0  0  0  0  0  0  0  0  0  0  0
    7.4250   -0.2580   21.5100 N   0  0  0  0  0  0  0  0  0  0  0  0
    6.3740   -2.1210   22.0020 C   0  0  0  0  0  0  0  0  0  0  0  0
    7.6700   -1.6900   21.6950 C   0  0  0  0  0  0  0  0  0  0  0  0
    6.8130   -4.3180   21.5550 N   0  0  0  0  0  0  0  0  0  0  0  0
    7.3640   -3.2430   22.1770 C   0  0  2  0  0  0  0  0  0  0  0  0
    7.7170   -3.3360   23.5250 C   0  0  0  0  0  0  0  0  0  0  0  0
    6.9870   -4.2750   24.2750 C   0  0  2  0  0  0  0  0  0  0  0  0
    6.0800   -5.0800   23.5660 C   0  0  0  0  0  0  0  0  0  0  0  0
    6.5090   -5.3850   22.2950 C   0  0  0  0  0  0  0  0  0  0  0  0
   11.1910   -1.4150   22.2580 C   0  0  0  0  0  0  0  0  0  0  0  0
   12.6460   -1.6600   22.1710 C   0  0  0  0  0  0  0  0  0  0  0  0
   13.2920   -0.8110   22.9910 C   0  0  0  0  0  0  0  0  0  0  0  0
   12.6710    0.0040   23.9500 C   0  0  0  0  0  0  0  0  0  0  0  0
   11.3010   -0.0780   24.1240 C   0  0  0  0  0  0  0  0  0  0  0  0
   10.7690   -0.2470   22.8920 C   0  0  0  0  0  0  0  0  0  0  0  0
    5.5960    1.0510   20.4480 C   0  0  0  0  0  0  0  0  0  0  0  0
    4.8970    1.5160   19.3070 C   0  0  0  0  0  0  0  0  0  0  0  0
    5.3390    1.1050   18.0120 C   0  0  0  0  0  0  0  0  0  0  0  0
    6.3760    0.2950   17.7710 N   0  0  0  0  0  0  0  0  0  0  0  0
    7.0840   -0.1820   18.9400 C   0  0  0  0  0  0  0  0  0  0  0  0
    6.7070    0.1990   20.3520 C   0  0  0  0  0  0  0  0  0  0  0  0
  1  4  1  0
  2  4  1  0
  4  6  1  0
  1  7  1  0
  1  8  1  0
  3  8  2  0
  5  9  2  0
  9 10  1  0
 11 12  2  0
 12 13  1  0
 12 14  1  0
 14 16  1  0
 15 16  1  0
  9 17  1  0
 18 15  1  1
 17 18  1  0
 18 19  1  0
 20  8  1  1
 19 20  1  0
 20 21  1  0
 17 22  1  0
 21 22  1  0
 23 24  1  0
 24 25  1  0
 25 26  1  0
 26 27  1  0
 13 28  1  0
 23 28  1  0
 27 28  1  0
 29 30  2  0
 30 31  1  0
 31 32  2  0
 32 33  1  0
 14 34  1  0
 29 34  1  0
 33 34  2  0
M  END
