x1458-x2572
     RDKit          3D

 36 38  0  0  0  0  0  0  0  0999 V2000
    7.2910   -3.6470   26.5780 N   0  0  0  0  0  0  0  0  0  0  0  0
    9.1850   -4.9650   27.5650 C   0  0  0  0  0  0  0  0  0  0  0  0
    5.0660   -3.2040   25.7830 O   0  0  0  0  0  0  0  0  0  0  0  0
    7.7720   -4.9040   26.9230 C   0  0  0  0  0  0  0  0  0  0  0  0
    5.4020   -4.5410   19.9300 O   0  0  0  0  0  0  0  0  0  0  0  0
    6.8730   -5.6610   27.8870 C   0  0  0  0  0  0  0  0  0  0  0  0
    7.9240   -2.3930   27.0180 C   0  0  0  0  0  0  0  0  0  0  0  0
    6.2160   -3.5730   25.5230 C   0  0  0  0  0  0  0  0  0  0  0  0
    6.3910   -3.9110   20.3490 C   0  0  0  0  0  0  0  0  0  0  0  0
    7.2060   -3.1450   19.3440 C   0  0  0  0  0  0  0  0  0  0  0  0
    4.4760    1.5850   21.3930 C   0  0  0  0  0  0  0  0  0  0  0  0
    8.7870    1.3580   21.2980 O   0  0  0  0  0  0  0  0  0  0  0  0
    6.7550   -0.0380   21.1850 N   0  0  0  0  0  0  0  0  0  0  0  0
   13.7210   -3.0010   20.6280 N   0  0  0  0  0  0  0  0  0  0  0  0
    8.1410    0.1570   21.4930 C   0  0  0  0  0  0  0  0  0  0  0  0
    8.6500   -1.0240   21.9390 C   0  0  2  0  0  0  0  0  0  0  0  0
   13.2270   -2.1260   21.4350 C   0  0  0  0  0  0  0  0  0  0  0  0
    7.6460   -1.9120   22.6350 C   0  0  0  0  0  0  0  0  0  0  0  0
    6.7300   -3.9830   21.7010 N   0  0  0  0  0  0  0  0  0  0  0  0
    7.8770   -3.2720   22.3860 C   0  0  2  0  0  0  0  0  0  0  0  0
    7.8400   -3.8740   23.6200 C   0  0  0  0  0  0  0  0  0  0  0  0
    6.5340   -3.9590   24.1110 C   0  0  1  0  0  0  0  0  0  0  0  0
    6.0560   -5.1800   23.6720 C   0  0  0  0  0  0  0  0  0  0  0  0
    6.4720   -5.2860   22.3540 C   0  0  0  0  0  0  0  0  0  0  0  0
    6.2630    0.6870   17.6230 N   0  0  0  0  0  0  0  0  0  0  0  0
    6.8110    0.1420   18.8490 C   0  0  0  0  0  0  0  0  0  0  0  0
    6.2350    0.4470   20.0080 C   0  0  0  0  0  0  0  0  0  0  0  0
    5.1210    1.2530   20.0830 C   0  0  0  0  0  0  0  0  0  0  0  0
    4.5850    1.7770   18.9130 C   0  0  0  0  0  0  0  0  0  0  0  0
    5.1870    1.4740   17.7190 C   0  0  0  0  0  0  0  0  0  0  0  0
   10.3490    0.2880   23.4410 C   0  0  0  0  0  0  0  0  0  0  0  0
   11.6960    0.5030   23.7740 C   0  0  0  0  0  0  0  0  0  0  0  0
   12.8160   -0.1800   23.2290 C   0  0  0  0  0  0  0  0  0  0  0  0
   12.4500   -1.2650   22.1820 C   0  0  0  0  0  0  0  0  0  0  0  0
   11.0040   -1.4970   21.8330 C   0  0  0  0  0  0  0  0  0  0  0  0
   10.0120   -0.6720   22.4930 C   0  0  0  0  0  0  0  0  0  0  0  0
  1  4  1  0
  2  4  1  0
  4  6  1  0
  1  7  1  0
  1  8  1  0
  3  8  2  0
  5  9  2  0
  9 10  1  0
 12 15  2  0
 13 15  1  0
 15 16  1  0
 14 17  3  0
 16 18  1  1
  9 19  1  0
 20 18  1  1
 19 20  1  0
 20 21  1  0
 22  8  1  1
 21 22  1  0
 22 23  1  0
 19 24  1  0
 23 24  1  0
 25 26  2  0
 13 27  1  0
 26 27  1  0
 11 28  1  0
 27 28  2  0
 28 29  1  0
 25 30  1  0
 29 30  2  0
 31 32  2  0
 32 33  1  0
 17 34  1  0
 33 34  2  0
 34 35  1  0
 16 36  1  0
 31 36  1  0
 35 36  2  0
M  END
