x1458-x3117
     RDKit          3D

 44 47  0  0  0  0  0  0  0  0999 V2000
    6.9310   -3.4560   26.3990 N   0  0  0  0  0  0  0  0  0  0  0  0
    9.0550   -4.6690   27.0470 C   0  0  0  0  0  0  0  0  0  0  0  0
    4.7860   -4.2270   25.7060 O   0  0  0  0  0  0  0  0  0  0  0  0
    7.5650   -4.2800   27.3370 C   0  0  0  0  0  0  0  0  0  0  0  0
    5.1720   -4.8150   19.9270 O   0  0  0  0  0  0  0  0  0  0  0  0
    6.8630   -5.6150   27.5510 C   0  0  0  0  0  0  0  0  0  0  0  0
    6.7570   -2.0280   26.6110 C   0  0  0  0  0  0  0  0  0  0  0  0
    5.9530   -3.9980   25.3950 C   0  0  0  0  0  0  0  0  0  0  0  0
    6.1640   -4.2540   20.3370 C   0  0  0  0  0  0  0  0  0  0  0  0
    6.9780   -3.3630   19.4310 C   0  0  0  0  0  0  0  0  0  0  0  0
    7.2650   -0.9950   21.9950 N   0  0  0  0  0  0  0  0  0  0  0  0
    7.7070    2.0460   23.2420 N   0  0  0  0  0  0  0  0  0  0  0  0
    8.9490    1.6620   21.0680 O   0  0  0  0  0  0  0  0  0  0  0  0
    6.7650    0.3900   21.7680 C   0  0  1  0  0  0  0  0  0  0  0  0
    7.9370    1.3920   21.9270 C   0  0  0  0  0  0  0  0  0  0  0  0
   12.4600   -2.4350   23.9340 C   0  0  0  0  0  0  0  0  0  0  0  0
   12.9500   -1.5130   24.8730 C   0  0  0  0  0  0  0  0  0  0  0  0
   13.4330   -1.3970   23.6310 C   0  0  0  0  0  0  0  0  0  0  0  0
   12.8150   -2.8510   25.3210 C   0  0  0  0  0  0  0  0  0  0  0  0
    6.4350   -2.2080   21.9710 C   0  0  0  0  0  0  0  0  0  0  0  0
    6.5890   -4.4580   21.6080 N   0  0  0  0  0  0  0  0  0  0  0  0
    7.2940   -3.2920   22.2200 C   0  0  2  0  0  0  0  0  0  0  0  0
    7.4150   -3.4890   23.5780 C   0  0  0  0  0  0  0  0  0  0  0  0
    6.3150   -4.2360   23.9330 C   0  0  1  0  0  0  0  0  0  0  0  0
    6.3880   -5.6510   23.5470 C   0  0  0  0  0  0  0  0  0  0  0  0
    6.5820   -5.7010   22.2280 C   0  0  0  0  0  0  0  0  0  0  0  0
    6.3310    0.2180   17.9740 N   0  0  0  0  0  0  0  0  0  0  0  0
    5.1840    1.1200   17.9150 C   0  0  0  0  0  0  0  0  0  0  0  0
    4.6020    1.7170   19.0100 C   0  0  0  0  0  0  0  0  0  0  0  0
    5.1620    1.4360   20.2360 C   0  0  0  0  0  0  0  0  0  0  0  0
    6.2590    0.5900   20.3730 C   0  0  0  0  0  0  0  0  0  0  0  0
    6.9230   -0.0790   19.3120 C   0  0  0  0  0  0  0  0  0  0  0  0
    9.7270    5.2100   24.3420 O   0  0  0  0  0  0  0  0  0  0  0  0
   10.6420    4.2600   23.8130 C   0  0  0  0  0  0  0  0  0  0  0  0
   10.0130    2.8420   23.8800 C   0  0  0  0  0  0  0  0  0  0  0  0
    8.5040    3.1330   23.6370 C   0  0  0  0  0  0  0  0  0  0  0  0
    8.5350    4.1560   22.5250 C   0  0  0  0  0  0  0  0  0  0  0  0
    8.7000    5.4280   23.3930 C   0  0  0  0  0  0  0  0  0  0  0  0
    9.4850   -1.8090   21.8050 C   0  0  0  0  0  0  0  0  0  0  0  0
   10.7210   -2.1550   22.2650 C   0  0  0  0  0  0  0  0  0  0  0  0
   11.0670   -2.0070   23.5850 C   0  0  0  0  0  0  0  0  0  0  0  0
   10.1850   -1.4870   24.5350 C   0  0  0  0  0  0  0  0  0  0  0  0
    8.7640   -1.0670   24.0760 C   0  0  0  0  0  0  0  0  0  0  0  0
    8.4960   -1.2870   22.5930 C   0  0  0  0  0  0  0  0  0  0  0  0
  1  4  1  0
  2  4  1  0
  4  6  1  0
  1  7  1  0
  1  8  1  0
  3  8  2  0
  5  9  2  0
  9 10  1  0
 11 14  1  0
 12 15  1  0
 13 15  2  0
 14 15  1  6
 16 17  1  0
 16 18  1  0
 16 19  1  0
 11 20  1  0
  9 21  1  0
 22 20  1  1
 21 22  1  0
 22 23  1  0
 24  8  1  1
 23 24  1  0
 24 25  1  0
 21 26  1  0
 25 26  1  0
 27 28  2  0
 28 29  1  0
 29 30  2  0
 14 31  1  0
 30 31  1  0
 27 32  1  0
 31 32  2  0
 33 34  1  0
 34 35  1  0
 12 36  1  0
 35 36  1  0
 36 37  1  0
 33 38  1  0
 37 38  1  0
 39 40  2  0
 16 41  1  0
 40 41  1  0
 41 42  2  0
 42 43  1  0
 11 44  1  0
 39 44  1  0
 43 44  2  0
M  END
