x1458-x1358
     RDKit          3D

 22 23  0  0  0  0  0  0  0  0999 V2000
    6.8740   -3.2850   26.2760 N   0  0  0  0  0  0  0  0  0  0  0  0
    8.9280   -4.2100   27.5340 C   0  0  0  0  0  0  0  0  0  0  0  0
    4.5510   -3.5220   25.4380 O   0  0  0  0  0  0  0  0  0  0  0  0
    7.5420   -4.4030   26.8330 C   0  0  0  0  0  0  0  0  0  0  0  0
    5.3850   -4.7340   19.9710 O   0  0  0  0  0  0  0  0  0  0  0  0
    6.7130   -5.2210   27.8160 C   0  0  0  0  0  0  0  0  0  0  0  0
    5.9010   -3.5270   25.2040 C   0  0  0  0  0  0  0  0  0  0  0  0
    6.3890   -4.1260   20.3390 C   0  0  0  0  0  0  0  0  0  0  0  0
    7.1970   -3.2960   19.3630 C   0  0  0  0  0  0  0  0  0  0  0  0
    5.6640   -0.8010   25.2700 O   0  0  0  0  0  0  0  0  0  0  0  0
    6.8420   -4.2210   21.6350 N   0  0  0  0  0  0  0  0  0  0  0  0
    7.8780   -3.3020   22.1480 C   0  0  0  0  0  0  0  0  0  0  0  0
    7.9100   -3.5350   23.6720 C   0  0  0  0  0  0  0  0  0  0  0  0
    6.4030   -3.7570   23.9150 C   0  0  0  0  0  0  0  0  0  0  0  0
    6.3460   -5.1380   23.6530 C   0  0  0  0  0  0  0  0  0  0  0  0
    6.6680   -5.4960   22.3320 C   0  0  0  0  0  0  0  0  0  0  0  0
    6.0580   -0.8850   26.5810 C   0  0  0  0  0  0  0  0  0  0  0  0
    6.6400   -2.0290   27.1260 C   0  0  0  0  0  0  0  0  0  0  0  0
    7.0170   -2.0650   28.4460 C   0  0  0  0  0  0  0  0  0  0  0  0
    6.8330   -0.9590   29.2910 C   0  0  0  0  0  0  0  0  0  0  0  0
    6.2490    0.2280   28.7970 C   0  0  0  0  0  0  0  0  0  0  0  0
    5.8780    0.2130   27.4330 C   0  0  0  0  0  0  0  0  0  0  0  0
  1  4  1  0
  2  4  1  0
  4  6  1  0
  1  7  1  0
  3  7  2  0
  5  8  2  0
  8  9  1  0
  8 11  1  0
 11 12  1  0
 12 13  1  0
  7 14  1  0
 13 14  1  0
 14 15  1  0
 11 16  1  0
 15 16  1  0
 10 17  1  0
  1 18  1  0
 17 18  2  0
 18 19  1  0
 19 20  2  0
 20 21  1  0
 17 22  1  0
 21 22  2  0
M  END
