x1458-x2912
     RDKit          3D

 37 39  0  0  0  0  0  0  0  0999 V2000
    7.1360   -3.2880   26.5540 N   0  0  0  0  0  0  0  0  0  0  0  0
    9.0680   -4.7240   27.2620 C   0  0  0  0  0  0  0  0  0  0  0  0
    4.8900   -3.5280   25.7530 O   0  0  0  0  0  0  0  0  0  0  0  0
    7.6080   -4.2250   27.4790 C   0  0  0  0  0  0  0  0  0  0  0  0
    5.3110   -4.6800   19.9450 O   0  0  0  0  0  0  0  0  0  0  0  0
    6.7960   -5.5120   27.5340 C   0  0  0  0  0  0  0  0  0  0  0  0
    7.4310   -1.8440   26.6420 C   0  0  0  0  0  0  0  0  0  0  0  0
    6.0930   -3.6980   25.5420 C   0  0  0  0  0  0  0  0  0  0  0  0
    6.4100   -4.2430   20.2670 C   0  0  0  0  0  0  0  0  0  0  0  0
    7.1810   -3.3230   19.3620 C   0  0  0  0  0  0  0  0  0  0  0  0
    6.8300   -0.5830   21.2970 N   0  0  0  0  0  0  0  0  0  0  0  0
    7.7320   -0.5440   24.2990 C   0  0  0  0  0  0  0  0  0  0  0  0
    8.6960    0.9190   21.5790 O   0  0  0  0  0  0  0  0  0  0  0  0
    8.5600   -0.9880   23.0610 C   0  0  1  0  0  0  0  0  0  0  0  0
    8.0680   -0.2090   22.0190 C   0  0  0  0  0  0  0  0  0  0  0  0
   13.7320   -2.4840   20.6380 N   0  0  0  0  0  0  0  0  0  0  0  0
    4.8320    1.2330   21.6670 C   0  0  0  0  0  0  0  0  0  0  0  0
   13.1110   -1.7410   21.4700 C   0  0  0  0  0  0  0  0  0  0  0  0
    8.3970   -1.2580   25.5140 C   0  0  0  0  0  0  0  0  0  0  0  0
    7.0260   -4.6280   21.4270 N   0  0  0  0  0  0  0  0  0  0  0  0
    7.5690   -3.6820   22.1960 C   0  0  0  0  0  0  0  0  0  0  0  0
    6.8920   -3.2870   23.3460 C   0  0  0  0  0  0  0  0  0  0  0  0
    6.5460   -4.2980   24.2520 C   0  0  0  0  0  0  0  0  0  0  0  0
    5.8500   -5.2860   23.5170 C   0  0  0  0  0  0  0  0  0  0  0  0
    6.3950   -5.6690   22.1990 C   0  0  0  0  0  0  0  0  0  0  0  0
    6.2380    0.5230   17.6640 N   0  0  0  0  0  0  0  0  0  0  0  0
    5.1690    1.4840   17.8960 C   0  0  0  0  0  0  0  0  0  0  0  0
    4.7720    1.6530   19.2150 C   0  0  0  0  0  0  0  0  0  0  0  0
    5.3480    0.9540   20.2840 C   0  0  0  0  0  0  0  0  0  0  0  0
    6.3580    0.0430   20.0640 C   0  0  0  0  0  0  0  0  0  0  0  0
    6.8450   -0.2210   18.8110 C   0  0  0  0  0  0  0  0  0  0  0  0
   10.4200    0.4790   23.8330 C   0  0  0  0  0  0  0  0  0  0  0  0
   11.7320    0.9480   23.9110 C   0  0  0  0  0  0  0  0  0  0  0  0
   12.7880    0.2030   23.0910 C   0  0  0  0  0  0  0  0  0  0  0  0
   12.2970   -0.9940   22.2530 C   0  0  0  0  0  0  0  0  0  0  0  0
   10.8720   -1.4430   22.2090 C   0  0  0  0  0  0  0  0  0  0  0  0
   10.0000   -0.5870   23.0780 C   0  0  0  0  0  0  0  0  0  0  0  0
  1  4  1  0
  2  4  1  0
  4  6  1  0
  1  7  1  0
  1  8  1  0
  3  8  2  0
  5  9  2  0
  9 10  1  0
 14 12  1  1
 11 15  1  0
 13 15  2  0
 14 15  1  0
 16 18  3  0
  7 19  1  0
 12 19  1  0
  9 20  1  0
 20 21  1  0
 21 22  1  0
  8 23  1  0
 22 23  1  0
 23 24  1  0
 20 25  1  0
 24 25  1  0
 26 27  2  0
 27 28  1  0
 17 29  1  0
 28 29  2  0
 11 30  1  0
 29 30  1  0
 26 31  1  0
 30 31  2  0
 32 33  2  0
 33 34  1  0
 18 35  1  0
 34 35  2  0
 35 36  1  0
 14 37  1  0
 32 37  1  0
 36 37  2  0
M  END
