x1458-x2694-x2705
     RDKit          3D

 49 52  0  0  0  0  0  0  0  0999 V2000
    7.6560   -0.7980   21.9480 N   0  0  0  0  0  0  0  0  0  0  0  0
    7.6770    2.5910   22.6840 N   0  0  0  0  0  0  0  0  0  0  0  0
    9.1930    1.5800   21.1250 O   0  0  0  0  0  0  0  0  0  0  0  0
   11.2040    6.7220   24.0320 O   0  0  0  0  0  0  0  0  0  0  0  0
    7.1640    0.5080   21.7190 C   0  0  1  0  0  0  0  0  0  0  0  0
    8.0580    1.5870   21.8420 C   0  0  0  0  0  0  0  0  0  0  0  0
   10.2480    1.9680   23.9300 C   0  0  0  0  0  0  0  0  0  0  0  0
   11.8590    6.5090   25.0500 C   0  0  0  0  0  0  0  0  0  0  0  0
   12.4480   -1.4030   23.2480 C   0  0  0  0  0  0  0  0  0  0  0  0
   12.9140   -0.0910   23.3670 C   0  0  0  0  0  0  0  0  0  0  0  0
   12.9410   -1.9770   21.9020 C   0  0  0  0  0  0  0  0  0  0  0  0
   12.8870   -2.3600   24.3590 C   0  0  0  0  0  0  0  0  0  0  0  0
    9.3110    1.3030   24.8980 C   0  0  0  0  0  0  0  0  0  0  0  0
    6.6080   -3.8390   26.7480 N   0  0  0  0  0  0  0  0  0  0  0  0
    8.9180   -4.5180   27.4470 C   0  0  0  0  0  0  0  0  0  0  0  0
    4.6890   -3.7600   25.4110 O   0  0  0  0  0  0  0  0  0  0  0  0
    7.4560   -4.8500   27.0520 C   0  0  0  0  0  0  0  0  0  0  0  0
    5.1640   -4.5730   19.8600 O   0  0  0  0  0  0  0  0  0  0  0  0
    6.9210   -5.8140   27.9070 C   0  0  0  0  0  0  0  0  0  0  0  0
    7.0890   -2.6140   26.8540 C   0  0  0  0  0  0  0  0  0  0  0  0
    6.0270   -4.0490   25.5690 C   0  0  0  0  0  0  0  0  0  0  0  0
    6.2330   -4.1010   20.2010 C   0  0  0  0  0  0  0  0  0  0  0  0
    7.0620   -3.2670   19.2380 C   0  0  0  0  0  0  0  0  0  0  0  0
    6.7790   -1.8900   21.8370 C   0  0  0  0  0  0  0  0  0  0  0  0
    6.2730    0.1980   17.9510 N   0  0  0  0  0  0  0  0  0  0  0  0
    5.1910    1.0140   17.8990 C   0  0  0  0  0  0  0  0  0  0  0  0
    4.7590    1.6340   19.0680 C   0  0  0  0  0  0  0  0  0  0  0  0
    5.3910    1.4610   20.2880 C   0  0  0  0  0  0  0  0  0  0  0  0
    6.4980    0.6330   20.3390 C   0  0  0  0  0  0  0  0  0  0  0  0
    6.9800   -0.0290   19.2080 C   0  0  0  0  0  0  0  0  0  0  0  0
    8.8590   -1.2640   24.1690 N   0  0  0  0  0  0  0  0  0  0  0  0
   10.2170   -1.4210   24.4200 O   0  0  0  0  0  0  0  0  0  0  0  0
   10.9650   -1.2890   23.1890 C   0  0  0  0  0  0  0  0  0  0  0  0
   10.0410   -1.0590   22.1950 C   0  0  0  0  0  0  0  0  0  0  0  0
    8.7790   -1.0280   22.7300 C   0  0  0  0  0  0  0  0  0  0  0  0
    9.8200    3.3710   23.6200 C   0  0  0  0  0  0  0  0  0  0  0  0
   10.6680    4.4590   23.9320 C   0  0  0  0  0  0  0  0  0  0  0  0
   10.2930    5.7710   23.6650 C   0  0  0  0  0  0  0  0  0  0  0  0
    9.0550    6.0100   23.0640 C   0  0  0  0  0  0  0  0  0  0  0  0
    8.2190    4.9460   22.7510 C   0  0  0  0  0  0  0  0  0  0  0  0
    8.5820    3.6220   23.0240 C   0  0  0  0  0  0  0  0  0  0  0  0
    6.7560   -4.3450   21.4550 N   0  0  0  0  0  0  0  0  0  0  0  0
    7.4420   -3.2620   22.1530 C   0  0  2  0  0  0  0  0  0  0  0  0
    7.5910   -3.4410   23.6650 C   0  0  0  0  0  0  0  0  0  0  0  0
    6.7900   -4.5700   24.3630 C   0  0  2  0  0  0  0  0  0  0  0  0
    5.8410   -5.3150   23.4550 C   0  0  0  0  0  0  0  0  0  0  0  0
    6.5490   -5.6020   22.1400 C   0  0  0  0  0  0  0  0  0  0  0  0
    5.9750    4.2130   21.6770 C   0  0  0  0  0  0  0  0  0  0  0  0
    6.3000    3.1230   22.7070 C   0  0  0  0  0  0  0  0  0  0  0  0
  1  5  1  0
  2  6  1  0
  3  6  2  0
  5  6  1  6
  4  8  1  0
  9 10  1  0
  9 11  1  0
  9 12  1  0
  7 13  1  0
 14 17  1  0
 15 17  1  0
 17 19  1  0
 14 20  1  0
 14 21  1  0
 16 21  2  0
 18 22  2  0
 22 23  1  0
  1 24  1  0
 25 26  2  0
 26 27  1  0
 27 28  2  0
  5 29  1  0
 28 29  1  0
 25 30  1  0
 29 30  2  0
 31 32  1  0
  9 33  1  0
 32 33  1  0
 33 34  2  0
  1 35  1  0
 31 35  2  0
 34 35  1  0
  7 36  1  0
 36 37  2  0
  4 38  1  0
 37 38  1  0
 38 39  2  0
 39 40  1  0
  2 41  1  0
 36 41  1  0
 40 41  2  0
 22 42  1  0
 43 24  1  1
 42 43  1  0
 43 44  1  0
 45 21  1  1
 44 45  1  0
 45 46  1  0
 42 47  1  0
 46 47  1  0
  2 49  1  0
 48 49  1  0
M  END
