x1458-x2643
     RDKit          3D

 33 35  0  0  0  0  0  0  0  0999 V2000
    7.2550   -3.6850   26.6710 N   0  0  0  0  0  0  0  0  0  0  0  0
    9.1230   -4.9700   27.7640 C   0  0  0  0  0  0  0  0  0  0  0  0
    5.2970   -3.1900   25.3460 O   0  0  0  0  0  0  0  0  0  0  0  0
    7.7210   -4.9210   27.1060 C   0  0  0  0  0  0  0  0  0  0  0  0
    5.3410   -4.4800   19.8710 O   0  0  0  0  0  0  0  0  0  0  0  0
    6.7960   -5.6220   28.0850 C   0  0  0  0  0  0  0  0  0  0  0  0
    7.8500   -2.4070   27.0950 C   0  0  0  0  0  0  0  0  0  0  0  0
    6.4160   -3.7120   25.4230 C   0  0  0  0  0  0  0  0  0  0  0  0
    6.3260   -3.8440   20.2500 C   0  0  0  0  0  0  0  0  0  0  0  0
    7.1780   -3.1420   19.2180 C   0  0  0  0  0  0  0  0  0  0  0  0
    6.5460   -0.8390   20.9410 N   0  0  0  0  0  0  0  0  0  0  0  0
    8.6290    0.5280   21.1620 O   0  0  0  0  0  0  0  0  0  0  0  0
   13.3870    0.0600   22.8800 Cl  0  0  0  0  0  0  0  0  0  0  0  0
    7.9890   -1.2050   22.9130 C   0  0  1  0  0  0  0  0  0  0  0  0
    7.7760   -0.4350   21.5990 C   0  0  0  0  0  0  0  0  0  0  0  0
    7.6190   -2.1080   21.7620 C   0  0  0  0  0  0  0  0  0  0  0  0
    6.5970   -3.8610   21.6100 N   0  0  0  0  0  0  0  0  0  0  0  0
    7.7390   -3.4320   22.1660 C   0  0  2  0  0  0  0  0  0  0  0  0
    7.8940   -3.5890   23.5560 C   0  0  0  0  0  0  0  0  0  0  0  0
    7.0130   -4.4320   24.2540 C   0  0  2  0  0  0  0  0  0  0  0  0
    6.0350   -5.0780   23.5070 C   0  0  0  0  0  0  0  0  0  0  0  0
    6.2320   -5.0530   22.1530 C   0  0  0  0  0  0  0  0  0  0  0  0
   11.7410   -0.1270   23.1500 C   0  0  0  0  0  0  0  0  0  0  0  0
   11.0440    0.5600   24.0840 C   0  0  0  0  0  0  0  0  0  0  0  0
    9.6190    0.2460   24.1370 C   0  0  0  0  0  0  0  0  0  0  0  0
    9.3570   -0.6790   23.1900 C   0  0  0  0  0  0  0  0  0  0  0  0
   10.7420   -1.1830   22.2880 S   0  0  0  0  0  0  0  0  0  0  0  0
    6.3460    0.8120   17.5750 N   0  0  0  0  0  0  0  0  0  0  0  0
    6.7760    0.0700   18.6010 C   0  0  0  0  0  0  0  0  0  0  0  0
    6.0980   -0.0610   19.8040 C   0  0  0  0  0  0  0  0  0  0  0  0
    4.8930    0.5900   20.0040 C   0  0  0  0  0  0  0  0  0  0  0  0
    4.4300    1.3640   18.9540 C   0  0  0  0  0  0  0  0  0  0  0  0
    5.1740    1.4530   17.7720 C   0  0  0  0  0  0  0  0  0  0  0  0
  1  4  1  0
  2  4  1  0
  4  6  1  0
  1  7  1  0
  1  8  1  0
  3  8  2  0
  5  9  2  0
  9 10  1  0
 11 15  1  0
 12 15  2  0
 14 15  1  0
 14 16  1  6
  9 17  1  0
 18 16  1  1
 17 18  1  0
 18 19  1  0
 20  8  1  1
 19 20  1  0
 20 21  1  0
 17 22  1  0
 21 22  1  0
 13 23  1  0
 23 24  2  0
 24 25  1  0
 14 26  1  0
 25 26  2  0
 23 27  1  0
 26 27  1  0
 28 29  2  0
 11 30  1  0
 29 30  1  0
 30 31  2  0
 31 32  1  0
 28 33  1  0
 32 33  2  0
M  END
