x1458-x0774
     RDKit          3D

 22 24  0  0  0  0  0  0  0  0999 V2000
    5.7700   -2.4310   25.8760 O   0  0  0  0  0  0  0  0  0  0  0  0
    5.3460   -4.4900   19.8680 O   0  0  0  0  0  0  0  0  0  0  0  0
    5.8930   -5.9610   27.1400 C   0  0  0  0  0  0  0  0  0  0  0  0
    6.1020   -3.2520   27.7220 C   0  0  0  0  0  0  0  0  0  0  0  0
    6.4460   -3.3410   25.4080 C   0  0  0  0  0  0  0  0  0  0  0  0
    6.4160   -3.9850   20.2040 C   0  0  0  0  0  0  0  0  0  0  0  0
    7.2940   -3.2400   19.2100 C   0  0  0  0  0  0  0  0  0  0  0  0
   10.5120   -2.8810   24.1820 N   0  0  0  0  0  0  0  0  0  0  0  0
    9.8580   -4.1900   24.3460 C   0  0  0  0  0  0  0  0  0  0  0  0
    6.5800   -1.9910   27.1760 O   0  0  0  0  0  0  0  0  0  0  0  0
    6.8490   -4.1200   21.4860 N   0  0  0  0  0  0  0  0  0  0  0  0
    8.0640   -3.4930   22.0150 C   0  0  0  0  0  0  0  0  0  0  0  0
    7.6180   -2.5920   23.1570 C   0  0  0  0  0  0  0  0  0  0  0  0
    6.6440   -3.4990   23.9610 C   0  0  0  0  0  0  0  0  0  0  0  0
    6.8020   -4.8460   23.5300 C   0  0  0  0  0  0  0  0  0  0  0  0
    6.3660   -5.2230   22.2720 C   0  0  0  0  0  0  0  0  0  0  0  0
    7.0370   -4.6280   26.8570 S   0  0  0  0  0  0  0  0  0  0  0  0
    8.1740   -4.3850   28.4350 C   0  0  0  0  0  0  0  0  0  0  0  0
    8.6940   -5.0990   27.2820 C   0  0  2  0  0  0  0  0  0  0  0  0
    9.5970   -4.3740   26.5650 C   0  0  0  0  0  0  0  0  0  0  0  0
    8.8820   -4.1430   25.4820 C   0  0  2  0  0  0  0  0  0  0  0  0
    7.9600   -5.1880   25.5770 C   0  0  0  0  0  0  0  0  0  0  0  0
  1  5  2  0
  2  6  2  0
  6  7  1  0
  8  9  1  0
  4 10  1  0
  6 11  1  0
 11 12  1  0
 12 13  1  0
  5 14  1  0
 13 14  1  0
 14 15  1  0
 11 16  1  0
 15 16  1  0
  3 17  1  0
  4 17  1  0
  5 17  1  0
 17 18  1  0
 17 19  1  0
 19 18  1  1
 19 20  1  0
 21  9  1  6
 20 21  1  0
 17 22  1  0
 21 22  1  0
M  END
