x1458-x0749
     RDKit          3D

 26 28  0  0  0  0  0  0  0  0999 V2000
    7.0560   -3.5690   26.3720 N   0  0  0  0  0  0  0  0  0  0  0  0
    8.9800   -4.9470   27.3870 C   0  0  0  0  0  0  0  0  0  0  0  0
    4.9480   -4.3070   25.5100 O   0  0  0  0  0  0  0  0  0  0  0  0
    7.5030   -4.4030   27.4180 C   0  0  2  0  0  0  0  0  0  0  0  0
    5.2480   -4.6000   19.8990 O   0  0  0  0  0  0  0  0  0  0  0  0
    6.6690   -5.6650   27.5650 C   0  0  0  0  0  0  0  0  0  0  0  0
    6.8310   -2.1410   26.5570 C   0  0  0  0  0  0  0  0  0  0  0  0
    6.1440   -4.0980   25.3000 C   0  0  0  0  0  0  0  0  0  0  0  0
    6.3350   -4.1680   20.2500 C   0  0  0  0  0  0  0  0  0  0  0  0
    7.1750   -3.3060   19.3330 C   0  0  0  0  0  0  0  0  0  0  0  0
    6.8520   -4.4790   21.4670 N   0  0  0  0  0  0  0  0  0  0  0  0
    7.7280   -3.5400   22.2010 C   0  0  0  0  0  0  0  0  0  0  0  0
    6.8320   -3.0640   23.3600 C   0  0  0  0  0  0  0  0  0  0  0  0
    6.6220   -4.3000   24.0020 C   0  0  0  0  0  0  0  0  0  0  0  0
    5.8240   -5.1950   23.2630 C   0  0  0  0  0  0  0  0  0  0  0  0
    6.5200   -5.7440   22.1840 C   0  0  0  0  0  0  0  0  0  0  0  0
    9.8460   -2.1490   23.5760 N   0  0  0  0  0  0  0  0  0  0  0  0
    9.0490   -3.1380   24.0350 C   0  0  0  0  0  0  0  0  0  0  0  0
   10.0120   -4.0050   25.0890 S   0  0  0  0  0  0  0  0  0  0  0  0
   11.4960   -3.2040   25.0320 C   0  0  0  0  0  0  0  0  0  0  0  0
   11.1180   -2.2260   24.1320 C   0  0  0  0  0  0  0  0  0  0  0  0
   11.9800   -1.2580   23.7250 C   0  0  0  0  0  0  0  0  0  0  0  0
   13.2520   -1.3160   24.2660 C   0  0  0  0  0  0  0  0  0  0  0  0
   13.6560   -2.3960   25.2470 C   0  0  0  0  0  0  0  0  0  0  0  0
   12.7520   -3.3040   25.5910 C   0  0  0  0  0  0  0  0  0  0  0  0
    9.4640   -5.4360   26.0210 C   0  0  0  0  0  0  0  0  0  0  0  0
  1  4  1  0
  2  4  1  0
  4  6  1  6
  1  7  1  0
  1  8  1  0
  3  8  2  0
  5  9  2  0
  9 10  1  0
  9 11  1  0
 11 12  1  0
 12 13  1  0
  8 14  1  0
 13 14  1  0
 14 15  1  0
 11 16  1  0
 15 16  1  0
 17 18  1  0
 18 19  2  0
 19 20  1  0
 17 21  1  0
 20 21  2  0
 21 22  1  0
 22 23  2  0
 23 24  1  0
 20 25  1  0
 24 25  2  0
  2 26  1  0
 19 26  1  0
M  END
