x1458-x0689
     RDKit          3D

 22 23  0  0  0  0  0  0  0  0999 V2000
    6.9700   -3.4740   26.3830 N   0  0  0  0  0  0  0  0  0  0  0  0
    9.0660   -4.6010   27.2300 C   0  0  0  0  0  0  0  0  0  0  0  0
    4.6830   -4.0040   25.3130 N   0  0  0  0  0  0  0  0  0  0  0  0
    7.5590   -4.2220   27.4130 C   0  0  0  0  0  0  0  0  0  0  0  0
    5.2570   -4.5530   19.8850 O   0  0  0  0  0  0  0  0  0  0  0  0
    6.8760   -5.5600   27.6700 C   0  0  0  0  0  0  0  0  0  0  0  0
    7.0160   -2.0120   26.3780 C   0  0  0  0  0  0  0  0  0  0  0  0
    6.1420   -4.1680   25.3120 C   0  0  1  0  0  0  0  0  0  0  0  0
    6.3060   -4.0410   20.2560 C   0  0  0  0  0  0  0  0  0  0  0  0
    7.1810   -3.2760   19.2940 C   0  0  0  0  0  0  0  0  0  0  0  0
    4.1000   -5.2770   25.3990 O   0  0  0  0  0  0  0  0  0  0  0  0
    6.7340   -4.1900   21.5440 N   0  0  0  0  0  0  0  0  0  0  0  0
    7.7580   -3.3070   22.2030 C   0  0  0  0  0  0  0  0  0  0  0  0
    7.8150   -3.4630   23.7470 C   0  0  0  0  0  0  0  0  0  0  0  0
    6.6690   -4.2120   24.0190 C   0  0  0  0  0  0  0  0  0  0  0  0
    6.6450   -5.4850   23.4540 C   0  0  0  0  0  0  0  0  0  0  0  0
    6.5910   -5.4170   22.0820 C   0  0  0  0  0  0  0  0  0  0  0  0
    3.9070   -3.1440   26.1820 C   0  0  0  0  0  0  0  0  0  0  0  0
    2.9900   -4.0200   26.7310 C   0  0  0  0  0  0  0  0  0  0  0  0
    1.6820   -3.7590   26.3320 C   0  0  0  0  0  0  0  0  0  0  0  0
    1.6580   -2.6570   25.5150 C   0  0  0  0  0  0  0  0  0  0  0  0
    2.9750   -2.2160   25.3820 C   0  0  0  0  0  0  0  0  0  0  0  0
  1  4  1  0
  2  4  1  0
  4  6  1  0
  1  7  1  0
  8  1  1  1
  3  8  1  0
  5  9  2  0
  9 10  1  0
  3 11  1  0
  9 12  1  0
 12 13  1  0
 13 14  1  0
  8 15  1  0
 14 15  1  0
 15 16  1  0
 12 17  1  0
 16 17  1  0
  3 18  1  0
 18 19  1  0
 19 20  2  0
 20 21  1  0
 18 22  1  0
 21 22  2  0
M  END
