x1458-x3117-x2694-x2754-x2705
     RDKit          3D

 61 67  0  0  0  0  0  0  0  0999 V2000
    7.6300   -0.3220   22.0920 N   0  0  0  0  0  0  0  0  0  0  0  0
    7.8670    3.3150   22.5690 N   0  0  0  0  0  0  0  0  0  0  0  0
    9.3150    2.1450   21.2330 O   0  0  0  0  0  0  0  0  0  0  0  0
   11.5810    7.5540   23.0520 O   0  0  0  0  0  0  0  0  0  0  0  0
    7.1770    1.0760   21.6560 C   0  0  1  0  0  0  0  0  0  0  0  0
    8.2310    2.2190   21.8020 C   0  0  0  0  0  0  0  0  0  0  0  0
   10.4390    2.8730   24.1770 C   0  0  0  0  0  0  0  0  0  0  0  0
   12.8770    7.3030   23.5800 C   0  0  0  0  0  0  0  0  0  0  0  0
   12.5770   -1.5260   22.3710 C   0  0  0  0  0  0  0  0  0  0  0  0
   13.4160   -0.2980   22.5310 C   0  0  0  0  0  0  0  0  0  0  0  0
   12.7960   -2.0830   20.9470 C   0  0  0  0  0  0  0  0  0  0  0  0
   12.9510   -2.5830   23.4500 C   0  0  0  0  0  0  0  0  0  0  0  0
    9.3040    2.2280   24.9670 C   0  0  0  0  0  0  0  0  0  0  0  0
   13.4260   -2.0320   24.8220 C   0  0  0  0  0  0  0  0  0  0  0  0
    4.5810   -3.1140   25.6690 C   0  0  0  0  0  0  0  0  0  0  0  0
    6.3270   -5.1850   19.9890 O   0  0  0  0  0  0  0  0  0  0  0  0
    6.6670   -6.1750   27.4080 C   0  0  0  0  0  0  0  0  0  0  0  0
    6.0940   -3.6090   26.0100 C   0  0  0  0  0  0  0  0  0  0  0  0
    6.8160   -4.2630   20.6630 C   0  0  0  0  0  0  0  0  0  0  0  0
    8.1430   -3.6070   20.3130 C   0  0  0  0  0  0  0  0  0  0  0  0
    6.7850   -1.4160   21.5790 C   0  0  0  0  0  0  0  0  0  0  0  0
    3.9000   -2.8410   24.4160 C   0  0  0  0  0  0  0  0  0  0  0  0
    3.9100   -4.0460   24.2450 O   0  0  0  0  0  0  0  0  0  0  0  0
    4.0900   -1.6140   25.0030 N   0  0  0  0  0  0  0  0  0  0  0  0
    4.8610   -3.2770   20.9930 N   0  0  0  0  0  0  0  0  0  0  0  0
    5.5150   -2.6440   19.8270 C   0  0  0  0  0  0  0  0  0  0  0  0
    4.7740   -2.0950   18.8480 C   0  0  0  0  0  0  0  0  0  0  0  0
    3.0890   -1.0790   25.8870 C   0  0  0  0  0  0  0  0  0  0  0  0
    6.2900    0.4040   17.9890 N   0  0  0  0  0  0  0  0  0  0  0  0
    5.2970    1.3170   17.8040 C   0  0  0  0  0  0  0  0  0  0  0  0
    4.8740    2.1640   18.7690 C   0  0  0  0  0  0  0  0  0  0  0  0
    5.4830    2.0870   20.0280 C   0  0  0  0  0  0  0  0  0  0  0  0
    6.4950    1.1800   20.2820 C   0  0  0  0  0  0  0  0  0  0  0  0
    6.8650    0.3580   19.2250 C   0  0  0  0  0  0  0  0  0  0  0  0
    9.4120   -0.4450   23.7840 N   0  0  0  0  0  0  0  0  0  0  0  0
   10.7740   -0.8130   23.7240 O   0  0  0  0  0  0  0  0  0  0  0  0
   11.1280   -1.1280   22.5660 C   0  0  0  0  0  0  0  0  0  0  0  0
    9.9790   -0.9870   21.8070 C   0  0  0  0  0  0  0  0  0  0  0  0
    8.9160   -0.5700   22.5340 C   0  0  0  0  0  0  0  0  0  0  0  0
   10.0450    4.1590   23.4780 C   0  0  0  0  0  0  0  0  0  0  0  0
   10.9510    5.2380   23.5810 C   0  0  0  0  0  0  0  0  0  0  0  0
   10.7340    6.5000   22.9760 C   0  0  0  0  0  0  0  0  0  0  0  0
    9.5790    6.7510   22.2370 C   0  0  0  0  0  0  0  0  0  0  0  0
    8.6150    5.7640   22.0750 C   0  0  0  0  0  0  0  0  0  0  0  0
    8.8540    4.3340   22.7470 C   0  0  0  0  0  0  0  0  0  0  0  0
    5.9460   -3.7430   21.8560 C   0  0  2  0  0  0  0  0  0  0  0  0
    6.3650   -2.6030   22.5280 C   0  0  1  0  0  0  0  0  0  0  0  0
    7.1490   -2.7700   23.7080 C   0  0  0  0  0  0  0  0  0  0  0  0
    6.7420   -3.8670   24.5440 C   0  0  2  0  0  0  0  0  0  0  0  0
    5.6470   -4.5150   24.0890 C   0  0  2  0  0  0  0  0  0  0  0  0
    5.4920   -4.8200   22.7090 C   0  0  0  0  0  0  0  0  0  0  0  0
    5.0350   -2.3020   23.2280 C   0  0  0  0  0  0  0  0  0  0  0  0
    5.4270   -3.1120   24.4880 C   0  0  1  0  0  0  0  0  0  0  0  0
    7.7690   -5.2490   26.9750 C   0  0  0  0  0  0  0  0  0  0  0  0
    9.2140   -5.6490   27.2760 C   0  0  0  0  0  0  0  0  0  0  0  0
   10.2880   -4.7840   26.8760 C   0  0  0  0  0  0  0  0  0  0  0  0
    9.9880   -3.6180   26.2310 C   0  0  0  0  0  0  0  0  0  0  0  0
    8.5370   -3.2190   25.9270 C   0  0  0  0  0  0  0  0  0  0  0  0
    7.4760   -4.0620   26.3200 C   0  0  0  0  0  0  0  0  0  0  0  0
    6.0300    4.7920   21.7930 C   0  0  0  0  0  0  0  0  0  0  0  0
    6.4750    3.7480   22.8020 C   0  0  0  0  0  0  0  0  0  0  0  0
  1  5  1  0
  2  6  1  0
  3  6  2  0
  5  6  1  6
  4  8  1  0
  9 10  1  0
  9 11  1  0
  9 12  1  0
  7 13  1  0
 12 14  1  0
 15 18  2  0
 16 19  2  0
 19 20  1  0
  1 21  1  0
 15 22  1  0
 22 23  2  0
 22 24  1  0
 25 26  2  3
 26 27  1  0
 24 28  1  0
 29 30  2  0
 30 31  1  0
 31 32  2  0
  5 33  1  0
 32 33  1  0
 29 34  1  0
 33 34  2  0
 35 36  1  0
  9 37  1  0
 36 37  1  0
 37 38  2  0
  1 39  1  0
 35 39  2  0
 38 39  1  0
  7 40  1  0
 40 41  2  0
  4 42  1  0
 41 42  1  0
 42 43  2  0
 43 44  1  0
  2 45  1  0
 40 45  1  0
 44 45  2  0
 19 46  1  0
 46 25  1  6
 47 21  1  6
 46 47  1  0
 47 48  1  0
 49 18  1  1
 48 49  1  0
 49 50  1  0
 46 51  1  0
 50 51  1  6
 47 52  1  0
 53 15  1  1
 50 53  1  0
 52 53  1  0
 17 54  1  0
 54 55  2  0
 55 56  1  0
 56 57  2  0
 57 58  1  0
 18 59  1  0
 54 59  1  0
 58 59  2  0
  2 61  1  0
 60 61  1  0
M  END
