x1458-x0072
     RDKit          3D

 25 27  0  0  0  0  0  0  0  0999 V2000
    6.7630   -3.4570   26.4090 N   0  0  0  0  0  0  0  0  0  0  0  0
    9.0680   -4.0570   27.2080 C   0  0  0  0  0  0  0  0  0  0  0  0
    4.5410   -3.2200   25.5300 O   0  0  0  0  0  0  0  0  0  0  0  0
    7.9020   -4.1870   26.1810 C   0  0  0  0  0  0  0  0  0  0  0  0
    5.3400   -4.6400   19.9460 O   0  0  0  0  0  0  0  0  0  0  0  0
    7.5790   -5.6490   26.4120 C   0  0  0  0  0  0  0  0  0  0  0  0
    6.7050   -2.2730   27.2470 C   0  0  0  0  0  0  0  0  0  0  0  0
    5.6790   -3.6700   25.3860 C   0  0  0  0  0  0  0  0  0  0  0  0
    6.4140   -4.2550   20.4050 C   0  0  0  0  0  0  0  0  0  0  0  0
    7.2710   -3.3470   19.5640 C   0  0  0  0  0  0  0  0  0  0  0  0
    8.2730   -4.1040   24.8040 N   0  0  0  0  0  0  0  0  0  0  0  0
    9.5720   -3.4400   24.4340 C   0  0  0  0  0  0  0  0  0  0  0  0
    9.3250   -2.1170   23.6710 C   0  0  0  0  0  0  0  0  0  0  0  0
    6.8350   -4.7160   21.6430 N   0  0  0  0  0  0  0  0  0  0  0  0
    7.7270   -4.0080   22.5770 C   0  0  0  0  0  0  0  0  0  0  0  0
    7.2000   -3.7000   23.8590 C   0  0  1  0  0  0  0  0  0  0  0  0
    6.0850   -4.4650   24.1940 C   0  0  2  0  0  0  0  0  0  0  0  0
    5.2460   -4.7930   23.1510 C   0  0  0  0  0  0  0  0  0  0  0  0
    5.9620   -5.5610   22.2600 C   0  0  0  0  0  0  0  0  0  0  0  0
   10.6250   -1.4000   23.4210 C   0  0  0  0  0  0  0  0  0  0  0  0
   11.5310   -1.9420   22.5200 C   0  0  0  0  0  0  0  0  0  0  0  0
   12.7330   -1.2660   22.3030 C   0  0  0  0  0  0  0  0  0  0  0  0
   13.0880    0.0110   22.9870 C   0  0  0  0  0  0  0  0  0  0  0  0
   12.1580    0.4600   23.8380 C   0  0  0  0  0  0  0  0  0  0  0  0
   10.9480   -0.1550   24.1080 C   0  0  0  0  0  0  0  0  0  0  0  0
  1  4  1  0
  4  2  1  0
  4  6  1  0
  1  7  1  0
  1  8  1  0
  3  8  2  0
  5  9  2  0
  9 10  1  0
  4 11  1  0
 11 12  1  0
 12 13  1  0
  9 14  1  0
 14 15  1  0
 11 16  1  0
 16 15  1  6
  8 17  1  0
 16 17  1  0
 17 18  1  6
 14 19  1  0
 18 19  1  0
 13 20  1  0
 20 21  2  0
 21 22  1  0
 22 23  2  0
 23 24  1  0
 20 25  1  0
 24 25  2  0
M  END
