x1458-x0946-x2754-x3110-x3113
     RDKit          3D

 62 68  0  0  0  0  0  0  0  0999 V2000
    7.8480    2.0870   23.3610 N   0  0  0  0  0  0  0  0  0  0  0  0
   13.9380    5.2910   22.5470 C   0  0  0  0  0  0  0  0  0  0  0  0
   12.4830    5.1720   22.6570 C   0  0  0  0  0  0  0  0  0  0  0  0
    7.2850   -0.9820   22.2160 N   0  0  0  0  0  0  0  0  0  0  0  0
   10.1170    4.9340   23.6550 C   0  0  0  0  0  0  0  0  0  0  0  0
    8.8110    1.7260   21.2480 O   0  0  0  0  0  0  0  0  0  0  0  0
    8.8660    2.1420   24.2820 C   0  0  0  0  0  0  0  0  0  0  0  0
    7.9460    1.3970   22.0780 C   0  0  0  0  0  0  0  0  0  0  0  0
    6.9980    0.3420   21.7610 C   0  0  1  0  0  0  0  0  0  0  0  0
   12.5920   -1.9450   24.2880 C   0  0  0  0  0  0  0  0  0  0  0  0
   12.8770   -0.6820   24.9760 C   0  0  0  0  0  0  0  0  0  0  0  0
   13.4560   -2.1600   23.0790 C   0  0  0  0  0  0  0  0  0  0  0  0
   12.9670   -3.0440   25.2870 C   0  0  0  0  0  0  0  0  0  0  0  0
   10.6820    5.6790   24.7040 N   0  0  0  0  0  0  0  0  0  0  0  0
    8.7790    4.8970   23.9880 O   0  0  0  0  0  0  0  0  0  0  0  0
   10.2920    5.8390   22.6000 O   0  0  0  0  0  0  0  0  0  0  0  0
    5.2250   -3.4230   25.4940 C   0  0  0  0  0  0  0  0  0  0  0  0
    6.1400   -5.8240   19.9030 O   0  0  0  0  0  0  0  0  0  0  0  0
    6.0900   -5.8660   27.5830 C   0  0  0  0  0  0  0  0  0  0  0  0
    6.5490   -4.1410   25.2800 C   0  0  0  0  0  0  0  0  0  0  0  0
    6.3940   -4.6900   20.2720 C   0  0  0  0  0  0  0  0  0  0  0  0
    7.1020   -3.6000   19.4250 C   0  0  0  0  0  0  0  0  0  0  0  0
    7.0780   -2.1650   21.4050 C   0  0  0  0  0  0  0  0  0  0  0  0
    3.9240   -2.8070   25.4230 C   0  0  0  0  0  0  0  0  0  0  0  0
    3.0120   -2.0400   25.6220 O   0  0  0  0  0  0  0  0  0  0  0  0
    4.6520   -2.0340   26.3080 N   0  0  0  0  0  0  0  0  0  0  0  0
    4.8870   -3.5960   20.8540 N   0  0  0  0  0  0  0  0  0  0  0  0
    5.6260   -2.8110   20.1630 C   0  0  0  0  0  0  0  0  0  0  0  0
    5.2410   -1.9170   19.2100 C   0  0  0  0  0  0  0  0  0  0  0  0
    4.9030   -2.4530   27.6640 C   0  0  0  0  0  0  0  0  0  0  0  0
    6.3870    0.2150   17.8890 N   0  0  0  0  0  0  0  0  0  0  0  0
    5.3230    1.0480   17.8890 C   0  0  0  0  0  0  0  0  0  0  0  0
    4.7760    1.6450   19.0380 C   0  0  0  0  0  0  0  0  0  0  0  0
    5.3280    1.4010   20.2730 C   0  0  0  0  0  0  0  0  0  0  0  0
    6.4180    0.5680   20.3700 C   0  0  0  0  0  0  0  0  0  0  0  0
    6.9420   -0.0410   19.0890 C   0  0  0  0  0  0  0  0  0  0  0  0
    9.6620   -1.2800   21.8740 C   0  0  0  0  0  0  0  0  0  0  0  0
   10.9300   -1.5180   22.3160 C   0  0  0  0  0  0  0  0  0  0  0  0
   11.1890   -1.7260   23.8240 C   0  0  0  0  0  0  0  0  0  0  0  0
   10.0290   -1.6730   24.7970 C   0  0  0  0  0  0  0  0  0  0  0  0
    8.7690   -1.4250   24.2560 C   0  0  0  0  0  0  0  0  0  0  0  0
    8.5720   -1.2190   22.7530 C   0  0  0  0  0  0  0  0  0  0  0  0
   12.3550    1.6140   23.0240 C   0  0  0  0  0  0  0  0  0  0  0  0
   13.1980    2.7980   22.6070 C   0  0  0  0  0  0  0  0  0  0  0  0
   12.1040    3.7560   22.9430 C   0  0  0  0  0  0  0  0  0  0  0  0
   10.8360    3.5720   23.4530 C   0  0  0  0  0  0  0  0  0  0  0  0
   10.2630    2.3360   23.7590 C   0  0  0  0  0  0  0  0  0  0  0  0
   11.0860    1.2780   23.5310 C   0  0  0  0  0  0  0  0  0  0  0  0
    5.8730   -4.2570   21.5840 C   0  0  2  0  0  0  0  0  0  0  0  0
    6.5470   -3.2860   22.3220 C   0  0  1  0  0  0  0  0  0  0  0  0
    7.4740   -3.7410   23.1920 C   0  0  0  0  0  0  0  0  0  0  0  0
    6.9030   -4.7350   23.9780 C   0  0  2  0  0  0  0  0  0  0  0  0
    5.6280   -5.1020   23.7150 C   0  0  2  0  0  0  0  0  0  0  0  0
    5.4200   -5.3920   22.1700 C   0  0  0  0  0  0  0  0  0  0  0  0
    5.5310   -2.6800   23.0630 C   0  0  0  0  0  0  0  0  0  0  0  0
    4.9310   -3.7670   24.0320 C   0  0  2  0  0  0  0  0  0  0  0  0
    7.3850   -5.2000   27.2510 C   0  0  0  0  0  0  0  0  0  0  0  0
    8.5590   -5.4240   28.0930 C   0  0  0  0  0  0  0  0  0  0  0  0
    9.7150   -4.8020   27.7350 C   0  0  0  0  0  0  0  0  0  0  0  0
    9.8540   -3.9720   26.6370 C   0  0  0  0  0  0  0  0  0  0  0  0
    8.7330   -3.7530   25.8350 C   0  0  0  0  0  0  0  0  0  0  0  0
    7.5750   -4.3730   26.1680 C   0  0  0  0  0  0  0  0  0  0  0  0
  2  3  1  0
  1  7  1  0
  1  8  1  0
  6  8  2  0
  4  9  1  0
  9  8  1  6
 10 11  1  0
 10 12  1  0
 10 13  1  0
  5 14  1  0
  5 15  1  0
  5 16  1  0
 17 20  2  0
 18 21  2  0
 21 22  1  0
  4 23  1  0
 17 24  1  0
 24 25  2  0
 24 26  1  0
 27 28  2  3
 28 29  1  0
 26 30  1  0
 31 32  2  0
 32 33  1  0
 33 34  2  0
  9 35  1  0
 34 35  1  0
 31 36  1  0
 35 36  2  0
 37 38  2  0
 10 39  1  0
 38 39  1  0
 39 40  2  0
 40 41  1  0
  4 42  1  0
 37 42  1  0
 41 42  2  0
 43 44  2  0
  3 45  1  0
 44 45  1  0
  5 46  1  0
 45 46  2  0
  7 47  1  0
 46 47  1  0
 43 48  1  0
 47 48  2  0
 21 49  1  0
 49 27  1  6
 50 23  1  6
 49 50  1  0
 50 51  1  0
 52 20  1  1
 51 52  1  0
 52 53  1  0
 49 54  1  0
 53 54  1  6
 50 55  1  0
 56 17  1  1
 53 56  1  0
 55 56  1  0
 19 57  1  0
 57 58  2  0
 58 59  1  0
 59 60  2  0
 60 61  1  0
 20 62  1  0
 57 62  1  0
 61 62  2  0
M  END
