x1458-x3117-x2705
     RDKit          3D

 47 50  0  0  0  0  0  0  0  0999 V2000
    7.5110   -1.0370   21.8200 N   0  0  0  0  0  0  0  0  0  0  0  0
    7.6610    2.3240   22.7060 N   0  0  0  0  0  0  0  0  0  0  0  0
    9.0150    1.5070   21.1130 O   0  0  0  0  0  0  0  0  0  0  0  0
    7.0120    0.2790   21.6380 C   0  0  1  0  0  0  0  0  0  0  0  0
    7.9960    1.3800   21.7740 C   0  0  0  0  0  0  0  0  0  0  0  0
   10.5270    2.5480   23.7440 C   0  0  0  0  0  0  0  0  0  0  0  0
    9.6760    1.4790   24.4460 C   0  0  0  0  0  0  0  0  0  0  0  0
    6.1920    4.5940   21.9930 C   0  0  0  0  0  0  0  0  0  0  0  0
   12.3330   -1.4690   23.0800 C   0  0  0  0  0  0  0  0  0  0  0  0
   12.8600   -0.1910   23.6970 C   0  0  0  0  0  0  0  0  0  0  0  0
   12.7980   -2.6800   23.9100 C   0  0  0  0  0  0  0  0  0  0  0  0
   12.8590   -1.7200   21.7800 C   0  0  0  0  0  0  0  0  0  0  0  0
   13.2600   -2.4540   25.3490 C   0  0  0  0  0  0  0  0  0  0  0  0
    6.9990   -3.5390   26.5670 N   0  0  0  0  0  0  0  0  0  0  0  0
    8.9090   -4.7990   27.0650 C   0  0  0  0  0  0  0  0  0  0  0  0
    4.8800   -3.7600   25.5480 O   0  0  0  0  0  0  0  0  0  0  0  0
    7.5830   -4.4900   27.3410 C   0  0  0  0  0  0  0  0  0  0  0  0
    5.2600   -4.9810   19.9840 O   0  0  0  0  0  0  0  0  0  0  0  0
    6.7630   -5.7450   27.6420 C   0  0  0  0  0  0  0  0  0  0  0  0
    6.3860   -2.5120   27.2420 C   0  0  0  0  0  0  0  0  0  0  0  0
    6.2310   -3.9470   25.5340 C   0  0  0  0  0  0  0  0  0  0  0  0
    6.2340   -4.3680   20.3350 C   0  0  0  0  0  0  0  0  0  0  0  0
    6.9590   -3.3910   19.4090 C   0  0  0  0  0  0  0  0  0  0  0  0
    6.6630   -2.1410   22.0740 C   0  0  0  0  0  0  0  0  0  0  0  0
    6.3710    0.1520   17.9630 N   0  0  0  0  0  0  0  0  0  0  0  0
    5.1740    0.9930   17.8470 C   0  0  0  0  0  0  0  0  0  0  0  0
    4.6450    1.5380   19.0030 C   0  0  0  0  0  0  0  0  0  0  0  0
    5.2350    1.2990   20.2160 C   0  0  0  0  0  0  0  0  0  0  0  0
    6.3650    0.5080   20.2960 C   0  0  0  0  0  0  0  0  0  0  0  0
    6.9530   -0.0860   19.1730 C   0  0  0  0  0  0  0  0  0  0  0  0
   10.1110   -1.5010   24.2290 N   0  0  0  0  0  0  0  0  0  0  0  0
    8.8080   -1.3680   23.8380 N   0  0  0  0  0  0  0  0  0  0  0  0
    8.7420   -1.1820   22.5150 C   0  0  0  0  0  0  0  0  0  0  0  0
    9.9920   -1.1760   21.9830 C   0  0  0  0  0  0  0  0  0  0  0  0
   10.8170   -1.3770   23.0660 C   0  0  0  0  0  0  0  0  0  0  0  0
    9.6700    3.7280   23.3680 C   0  0  0  0  0  0  0  0  0  0  0  0
   10.2700    4.9830   23.5230 C   0  0  0  0  0  0  0  0  0  0  0  0
    9.5760    6.1560   23.1920 C   0  0  0  0  0  0  0  0  0  0  0  0
    8.2660    6.0820   22.6970 C   0  0  0  0  0  0  0  0  0  0  0  0
    7.6180    4.6890   22.5360 C   0  0  0  0  0  0  0  0  0  0  0  0
    8.3600    3.5750   22.8890 C   0  0  0  0  0  0  0  0  0  0  0  0
    6.7880   -4.5580   21.5860 N   0  0  0  0  0  0  0  0  0  0  0  0
    7.4360   -3.4530   22.2930 C   0  0  2  0  0  0  0  0  0  0  0  0
    7.6260   -3.6790   23.6460 C   0  0  0  0  0  0  0  0  0  0  0  0
    6.8210   -4.5980   24.2910 C   0  0  2  0  0  0  0  0  0  0  0  0
    5.8890   -5.3470   23.5620 C   0  0  0  0  0  0  0  0  0  0  0  0
    6.4460   -5.7440   22.3630 C   0  0  0  0  0  0  0  0  0  0  0  0
  1  4  1  0
  2  5  1  0
  3  5  2  0
  4  5  1  6
  6  7  1  0
  9 10  1  0
  9 11  1  0
  9 12  1  0
 11 13  1  0
 14 17  1  0
 15 17  1  0
 17 19  1  0
 14 20  1  0
 14 21  1  0
 16 21  2  0
 18 22  2  0
 22 23  1  0
  1 24  1  0
 25 26  2  0
 26 27  1  0
 27 28  2  0
  4 29  1  0
 28 29  1  0
 25 30  1  0
 29 30  2  0
 31 32  1  0
  1 33  1  0
 32 33  1  0
 33 34  2  0
  9 35  1  0
 31 35  2  0
 34 35  1  0
  6 36  1  0
 36 37  2  0
 37 38  1  0
 38 39  2  0
  8 40  1  0
 39 40  1  0
  2 41  1  0
 36 41  1  0
 40 41  2  0
 22 42  1  0
 43 24  1  1
 42 43  1  0
 43 44  1  0
 45 21  1  1
 44 45  1  0
 45 46  1  0
 42 47  1  0
 46 47  1  0
M  END
