x1458-x0731
     RDKit          3D

 24 25  0  0  0  0  0  0  0  0999 V2000
    7.3520   -3.6980   26.5360 N   0  0  0  0  0  0  0  0  0  0  0  0
    8.9550   -5.5530   26.9360 C   0  0  0  0  0  0  0  0  0  0  0  0
    5.1050   -4.6940   25.8230 N   0  0  0  0  0  0  0  0  0  0  0  0
    7.7450   -4.6980   27.4190 C   0  0  0  0  0  0  0  0  0  0  0  0
    5.3260   -4.6870   19.9360 O   0  0  0  0  0  0  0  0  0  0  0  0
    6.6630   -5.7270   27.6980 C   0  0  0  0  0  0  0  0  0  0  0  0
    7.8180   -2.3170   26.7380 C   0  0  0  0  0  0  0  0  0  0  0  0
    6.2750   -3.9250   25.4790 C   0  0  1  0  0  0  0  0  0  0  0  0
    6.3590   -4.1250   20.2820 C   0  0  0  0  0  0  0  0  0  0  0  0
    7.1650   -3.2980   19.3050 C   0  0  0  0  0  0  0  0  0  0  0  0
    0.6230   -1.2450   26.1030 C   0  0  0  0  0  0  0  0  0  0  0  0
    5.8930   -2.8160   25.2740 O   0  0  0  0  0  0  0  0  0  0  0  0
    6.8190   -4.2720   21.5650 N   0  0  0  0  0  0  0  0  0  0  0  0
    7.8320   -3.3730   22.1940 C   0  0  0  0  0  0  0  0  0  0  0  0
    7.6910   -3.4300   23.5780 C   0  0  0  0  0  0  0  0  0  0  0  0
    6.6110   -4.1860   24.0310 C   0  0  0  0  0  0  0  0  0  0  0  0
    6.5210   -5.4740   23.5190 C   0  0  0  0  0  0  0  0  0  0  0  0
    6.5760   -5.4700   22.1430 C   0  0  0  0  0  0  0  0  0  0  0  0
    1.7860   -2.1830   26.0090 C   0  0  0  0  0  0  0  0  0  0  0  0
    1.6570   -3.4110   25.3470 C   0  0  0  0  0  0  0  0  0  0  0  0
    2.7210   -4.3000   25.2490 C   0  0  0  0  0  0  0  0  0  0  0  0
    3.9260   -3.9290   25.8350 C   0  0  0  0  0  0  0  0  0  0  0  0
    4.0500   -2.6230   26.5370 C   0  0  0  0  0  0  0  0  0  0  0  0
    2.9960   -1.8090   26.5980 C   0  0  0  0  0  0  0  0  0  0  0  0
  1  4  1  0
  2  4  1  0
  4  6  1  0
  1  7  1  0
  1  8  1  0
  3  8  1  0
  5  9  2  0
  9 10  1  0
  8 12  1  6
  9 13  1  0
 13 14  1  0
 14 15  1  0
  8 16  1  0
 15 16  1  0
 16 17  1  0
 13 18  1  0
 17 18  1  0
 11 19  1  0
 19 20  2  0
 20 21  1  0
  3 22  1  0
 21 22  2  0
 22 23  1  0
 19 24  1  0
 23 24  2  0
M  END
