x1458-x3115-x3117-x2754-x3110
     RDKit          3D

 61 69  0  0  0  0  0  0  0  0999 V2000
    8.1290    1.8630   23.2440 N   0  0  0  0  0  0  0  0  0  0  0  0
   13.2750    5.7890   22.5470 C   0  0  0  0  0  0  0  0  0  0  0  0
   12.5690    3.6630   23.2760 O   0  0  0  0  0  0  0  0  0  0  0  0
   13.0420    4.3710   22.1410 C   0  0  0  0  0  0  0  0  0  0  0  0
    7.2150   -1.0300   21.9140 N   0  0  0  0  0  0  0  0  0  0  0  0
   11.2470    3.7950   23.4180 C   0  0  0  0  0  0  0  0  0  0  0  0
    8.6970    1.6650   20.9840 O   0  0  0  0  0  0  0  0  0  0  0  0
   10.4230    3.1130   22.4350 C   0  0  0  0  0  0  0  0  0  0  0  0
    7.9680    1.3350   21.9130 C   0  0  0  0  0  0  0  0  0  0  0  0
    6.8360    0.3800   21.7390 C   0  0  1  0  0  0  0  0  0  0  0  0
   12.3370   -1.9540   24.2560 C   0  0  0  0  0  0  0  0  0  0  0  0
   12.6470   -0.6820   24.9910 C   0  0  0  0  0  0  0  0  0  0  0  0
   13.4200   -2.2480   23.2160 C   0  0  0  0  0  0  0  0  0  0  0  0
   12.1760   -3.1030   25.2350 C   0  0  0  0  0  0  0  0  0  0  0  0
    8.0140    6.0860   21.9850 C   0  0  0  0  0  0  0  0  0  0  0  0
    5.3390   -3.3950   25.5990 C   0  0  0  0  0  0  0  0  0  0  0  0
    6.1820   -5.9540   19.8700 O   0  0  0  0  0  0  0  0  0  0  0  0
    6.1200   -5.8330   27.7470 C   0  0  0  0  0  0  0  0  0  0  0  0
    6.6340   -4.2270   25.3710 C   0  0  0  0  0  0  0  0  0  0  0  0
    6.3610   -4.8030   20.2340 C   0  0  0  0  0  0  0  0  0  0  0  0
    7.0620   -3.6690   19.4830 C   0  0  0  0  0  0  0  0  0  0  0  0
    6.6330   -2.0610   21.3760 C   0  0  0  0  0  0  0  0  0  0  0  0
    4.1260   -2.6870   25.5080 C   0  0  0  0  0  0  0  0  0  0  0  0
    3.2650   -2.8700   24.6310 O   0  0  0  0  0  0  0  0  0  0  0  0
    3.9590   -1.7630   26.5290 N   0  0  0  0  0  0  0  0  0  0  0  0
    4.8930   -3.5930   20.6770 N   0  0  0  0  0  0  0  0  0  0  0  0
    5.6040   -2.7220   19.9310 C   0  0  0  0  0  0  0  0  0  0  0  0
    5.1510   -1.8580   18.9940 C   0  0  0  0  0  0  0  0  0  0  0  0
    4.7240   -1.7710   27.6520 C   0  0  0  0  0  0  0  0  0  0  0  0
    6.3890    0.4590   17.9850 N   0  0  0  0  0  0  0  0  0  0  0  0
    5.3400    1.2770   17.7970 C   0  0  0  0  0  0  0  0  0  0  0  0
    4.7440    1.8260   18.9410 C   0  0  0  0  0  0  0  0  0  0  0  0
    5.2160    1.5450   20.2230 C   0  0  0  0  0  0  0  0  0  0  0  0
    6.2990    0.7010   20.3550 C   0  0  0  0  0  0  0  0  0  0  0  0
    6.8680    0.1650   19.2020 C   0  0  0  0  0  0  0  0  0  0  0  0
    9.6310   -1.2510   21.7940 C   0  0  0  0  0  0  0  0  0  0  0  0
   10.8910   -1.4730   22.3110 C   0  0  0  0  0  0  0  0  0  0  0  0
   11.0290   -1.7140   23.6620 C   0  0  0  0  0  0  0  0  0  0  0  0
    9.8720   -1.7220   24.4520 C   0  0  0  0  0  0  0  0  0  0  0  0
    8.6060   -1.5000   23.9220 C   0  0  0  0  0  0  0  0  0  0  0  0
    8.4760   -1.2600   22.5490 C   0  0  0  0  0  0  0  0  0  0  0  0
    9.6750    4.9310   24.9080 O   0  0  0  0  0  0  0  0  0  0  0  0
   10.2100    4.1350   23.8500 C   0  0  0  0  0  0  0  0  0  0  0  0
    8.9100    3.5790   23.0340 S   0  0  0  0  0  0  0  0  0  0  0  0
    7.3570    4.4610   23.6440 C   0  0  0  0  0  0  0  0  0  0  0  0
    8.3520    5.1980   23.1330 C   0  0  2  0  0  0  0  0  0  0  0  0
    9.1530    5.9430   24.1680 C   0  0  0  0  0  0  0  0  0  0  0  0
    5.7410   -4.3120   21.4970 C   0  0  2  0  0  0  0  0  0  0  0  0
    6.3800   -3.1790   22.2560 C   0  0  1  0  0  0  0  0  0  0  0  0
    7.4890   -3.6760   23.1260 C   0  0  0  0  0  0  0  0  0  0  0  0
    6.8820   -4.7780   23.9730 C   0  0  2  0  0  0  0  0  0  0  0  0
    5.4420   -5.0880   23.7410 C   0  0  2  0  0  0  0  0  0  0  0  0
    5.1670   -5.3260   22.2690 C   0  0  0  0  0  0  0  0  0  0  0  0
    5.2070   -2.7940   23.1660 C   0  0  0  0  0  0  0  0  0  0  0  0
    5.5100   -3.6660   24.1560 C   0  0  1  0  0  0  0  0  0  0  0  0
    7.4240   -5.2590   27.3900 C   0  0  0  0  0  0  0  0  0  0  0  0
    8.4830   -5.5020   28.2080 C   0  0  0  0  0  0  0  0  0  0  0  0
    9.7740   -5.0130   27.9550 C   0  0  0  0  0  0  0  0  0  0  0  0
   10.0340   -4.1770   26.7310 C   0  0  0  0  0  0  0  0  0  0  0  0
    8.8960   -3.9250   25.8850 C   0  0  0  0  0  0  0  0  0  0  0  0
    7.5540   -4.5200   26.2690 C   0  0  0  0  0  0  0  0  0  0  0  0
  2  4  1  0
  3  4  1  0
  3  6  1  0
  6  8  1  0
  1  9  1  0
  7  9  2  0
  5 10  1  0
 10  9  1  6
 11 12  1  0
 11 13  1  0
 11 14  1  0
 16 19  2  0
 17 20  2  0
 20 21  1  0
  5 22  1  0
 16 23  1  0
 23 24  2  0
 23 25  1  0
 26 27  2  3
 27 28  1  0
 25 29  1  0
 30 31  2  0
 31 32  1  0
 32 33  2  0
 10 34  1  0
 33 34  1  0
 30 35  1  0
 34 35  2  0
 36 37  2  0
 11 38  1  0
 37 38  1  0
 38 39  2  0
 39 40  1  0
  5 41  1  0
 36 41  1  0
 40 41  2  0
  6 43  2  0
 42 43  1  0
  1 44  1  0
  8 44  1  0
 43 44  1  0
 44 45  1  0
 46 15  1  6
 44 46  1  0
 45 46  1  0
 42 47  1  0
 46 47  1  0
 20 48  1  0
 48 26  1  6
 49 22  1  6
 48 49  1  0
 49 50  1  0
 51 19  1  1
 50 51  1  0
 51 52  1  0
 48 53  1  0
 52 53  1  6
 49 54  1  0
 55 16  1  1
 52 55  1  0
 54 55  1  0
 18 56  1  0
 56 57  2  0
 57 58  1  0
 58 59  2  0
 59 60  1  0
 19 61  1  0
 56 61  1  0
 60 61  2  0
M  END
