x1458-x2649
     RDKit          3D

 37 40  0  0  0  0  0  0  0  0999 V2000
    7.3040   -3.4270   26.7410 N   0  0  0  0  0  0  0  0  0  0  0  0
    8.8860   -5.3830   26.7670 C   0  0  0  0  0  0  0  0  0  0  0  0
    5.1560   -3.1370   25.6960 O   0  0  0  0  0  0  0  0  0  0  0  0
    7.7470   -4.5540   27.4380 C   0  0  0  0  0  0  0  0  0  0  0  0
    5.2790   -4.7410   19.9430 O   0  0  0  0  0  0  0  0  0  0  0  0
    6.6560   -5.5820   27.6960 C   0  0  0  0  0  0  0  0  0  0  0  0
    7.5960   -2.0720   27.1970 C   0  0  0  0  0  0  0  0  0  0  0  0
    6.3150   -3.5560   25.5980 C   0  0  0  0  0  0  0  0  0  0  0  0
    6.3470   -4.2600   20.2880 C   0  0  0  0  0  0  0  0  0  0  0  0
    7.1310   -3.3390   19.3770 C   0  0  0  0  0  0  0  0  0  0  0  0
    6.7200   -0.6020   21.2170 N   0  0  0  0  0  0  0  0  0  0  0  0
    7.7710   -1.8650   23.7490 C   0  0  2  0  0  0  0  0  0  0  0  0
    8.5260    0.8810   21.8220 O   0  0  0  0  0  0  0  0  0  0  0  0
   13.4350   -1.9420   21.1020 Cl  0  0  0  0  0  0  0  0  0  0  0  0
    8.6610   -1.4110   22.5570 C   0  0  1  0  0  0  0  0  0  0  0  0
    8.0070   -0.3730   21.9110 C   0  0  0  0  0  0  0  0  0  0  0  0
    4.7210    1.2700   21.5710 C   0  0  0  0  0  0  0  0  0  0  0  0
    7.6270   -1.0460   26.0570 C   0  0  0  0  0  0  0  0  0  0  0  0
    8.4770   -1.4840   25.0710 C   0  0  0  0  0  0  0  0  0  0  0  0
    6.8900   -4.5870   21.4980 N   0  0  0  0  0  0  0  0  0  0  0  0
    7.5780   -3.5940   22.1280 C   0  0  0  0  0  0  0  0  0  0  0  0
    7.6090   -3.4110   23.5090 C   0  0  2  0  0  0  0  0  0  0  0  0
    6.7600   -4.2120   24.3300 C   0  0  2  0  0  0  0  0  0  0  0  0
    5.9160   -4.9730   23.4990 C   0  0  0  0  0  0  0  0  0  0  0  0
    6.5020   -5.6110   22.3060 C   0  0  0  0  0  0  0  0  0  0  0  0
    6.2360    0.5860   17.6830 N   0  0  0  0  0  0  0  0  0  0  0  0
    5.2240    1.5360   17.7990 C   0  0  0  0  0  0  0  0  0  0  0  0
    4.7770    1.7000   19.1150 C   0  0  0  0  0  0  0  0  0  0  0  0
    5.2830    0.9920   20.2120 C   0  0  0  0  0  0  0  0  0  0  0  0
    6.2700    0.0800   20.0030 C   0  0  0  0  0  0  0  0  0  0  0  0
    6.7210   -0.0960   18.7340 C   0  0  0  0  0  0  0  0  0  0  0  0
   10.3470    0.1390   23.6810 C   0  0  0  0  0  0  0  0  0  0  0  0
   11.6390    0.6510   23.8900 C   0  0  0  0  0  0  0  0  0  0  0  0
   12.7730    0.0070   23.0650 C   0  0  0  0  0  0  0  0  0  0  0  0
   12.3780   -1.1400   22.0940 C   0  0  0  0  0  0  0  0  0  0  0  0
   10.9930   -1.6280   21.9380 C   0  0  0  0  0  0  0  0  0  0  0  0
   10.0350   -0.8860   22.8030 C   0  0  0  0  0  0  0  0  0  0  0  0
  1  4  1  0
  2  4  1  0
  4  6  1  0
  1  7  1  0
  1  8  1  0
  3  8  2  0
  5  9  2  0
  9 10  1  0
 12 15  1  0
 11 16  1  0
 13 16  2  0
 15 16  1  1
  7 18  1  0
 12 19  1  1
 18 19  1  0
  9 20  1  0
 20 21  1  0
 12 22  1  0
 22 21  1  6
  8 23  1  0
 22 23  1  0
 23 24  1  6
 20 25  1  0
 24 25  1  0
 26 27  2  0
 27 28  1  0
 17 29  1  0
 28 29  2  0
 11 30  1  0
 29 30  1  0
 26 31  1  0
 30 31  2  0
 32 33  2  0
 33 34  1  0
 14 35  1  0
 34 35  2  0
 35 36  1  0
 15 37  1  0
 32 37  1  0
 36 37  2  0
M  END
