x1458-x3298
     RDKit          3D

 45 48  0  0  0  0  0  0  0  0999 V2000
    7.0080    2.0430   22.2260 N   0  0  0  0  0  0  0  0  0  0  0  0
    7.2410   -0.2180   21.1600 C   0  0  2  0  0  0  0  0  0  0  0  0
    6.3930   -0.7010   22.1940 O   0  0  0  0  0  0  0  0  0  0  0  0
    7.8200    1.1540   21.5360 C   0  0  0  0  0  0  0  0  0  0  0  0
    8.7140    1.1870   23.8550 N   0  0  0  0  0  0  0  0  0  0  0  0
    8.9370    1.5280   21.1980 O   0  0  0  0  0  0  0  0  0  0  0  0
   10.5630    1.6870   24.9460 O   0  0  0  0  0  0  0  0  0  0  0  0
    9.4460   -0.4040   25.8520 N   0  0  0  0  0  0  0  0  0  0  0  0
   13.7540   -1.7110   20.8810 F   0  0  0  0  0  0  0  0  0  0  0  0
    9.9490    0.4700   24.6570 S   0  0  1  0  0  0  0  0  0  0  0  0
    7.0690   -3.4840   26.4340 N   0  0  0  0  0  0  0  0  0  0  0  0
    8.6480   -4.9180   27.8570 C   0  0  0  0  0  0  0  0  0  0  0  0
    5.2010   -3.1600   25.5180 O   0  0  0  0  0  0  0  0  0  0  0  0
    7.4370   -4.8450   26.9690 C   0  0  0  0  0  0  0  0  0  0  0  0
    5.3030   -4.6360   19.9140 O   0  0  0  0  0  0  0  0  0  0  0  0
    6.2200   -5.4800   27.6890 C   0  0  0  0  0  0  0  0  0  0  0  0
    7.8600   -2.2580   26.7800 C   0  0  0  0  0  0  0  0  0  0  0  0
    6.3730   -3.5470   25.5060 C   0  0  0  0  0  0  0  0  0  0  0  0
    6.3340   -4.0610   20.2450 C   0  0  0  0  0  0  0  0  0  0  0  0
    7.1800   -3.2670   19.2700 C   0  0  0  0  0  0  0  0  0  0  0  0
    8.6700   -1.6310   25.5890 C   0  0  0  0  0  0  0  0  0  0  0  0
    6.2460    0.3450   17.6390 N   0  0  0  0  0  0  0  0  0  0  0  0
    6.9320   -0.0600   18.7150 C   0  0  0  0  0  0  0  0  0  0  0  0
    6.4450    0.1820   19.9620 C   0  0  0  0  0  0  0  0  0  0  0  0
    5.2590    0.8110   20.2280 C   0  0  0  0  0  0  0  0  0  0  0  0
    4.5770    1.2110   19.1070 C   0  0  0  0  0  0  0  0  0  0  0  0
    5.1090    0.9640   17.8520 C   0  0  0  0  0  0  0  0  0  0  0  0
    7.7120    4.3790   22.3420 C   0  0  0  0  0  0  0  0  0  0  0  0
    8.6530    5.2450   22.8930 C   0  0  0  0  0  0  0  0  0  0  0  0
    9.7200    4.7610   23.8080 C   0  0  0  0  0  0  0  0  0  0  0  0
    9.6860    3.4370   24.0620 C   0  0  0  0  0  0  0  0  0  0  0  0
    8.7560    2.5730   23.5520 C   0  0  0  0  0  0  0  0  0  0  0  0
    7.8110    3.0410   22.7000 C   0  0  0  0  0  0  0  0  0  0  0  0
   12.2900    0.3280   23.4190 C   0  0  0  0  0  0  0  0  0  0  0  0
   13.1830   -0.1680   22.5400 C   0  0  0  0  0  0  0  0  0  0  0  0
   12.8700   -1.2700   21.7470 C   0  0  0  0  0  0  0  0  0  0  0  0
   11.6380   -1.9590   21.7860 C   0  0  0  0  0  0  0  0  0  0  0  0
   10.5540   -1.4780   22.7490 C   0  0  0  0  0  0  0  0  0  0  0  0
   11.0350   -0.2600   23.5400 C   0  0  0  0  0  0  0  0  0  0  0  0
    6.7770   -4.1680   21.5430 N   0  0  0  0  0  0  0  0  0  0  0  0
    7.8660   -3.3620   22.0750 C   0  0  0  0  0  0  0  0  0  0  0  0
    7.5040   -3.0800   23.5330 C   0  0  0  0  0  0  0  0  0  0  0  0
    6.9650   -4.1510   24.2270 C   0  0  0  0  0  0  0  0  0  0  0  0
    6.0750   -5.0160   23.5730 C   0  0  0  0  0  0  0  0  0  0  0  0
    6.4880   -5.3850   22.2920 C   0  0  0  0  0  0  0  0  0  0  0  0
  2  3  1  1
  1  4  1  0
  2  4  1  0
  4  6  2  0
 10  5  1  6
  7 10  2  0
  8 10  2  0
 11 14  1  0
 12 14  1  0
 14 16  1  0
 11 17  1  0
 11 18  1  0
 13 18  2  0
 15 19  2  0
 19 20  1  0
  8 21  1  0
 17 21  1  0
 22 23  2  0
  2 24  1  0
 23 24  1  0
 24 25  2  0
 25 26  1  0
 22 27  1  0
 26 27  2  0
 28 29  2  0
 29 30  1  0
 30 31  2  0
  5 32  1  0
 31 32  1  0
  1 33  1  0
 28 33  1  0
 32 33  2  0
 34 35  2  0
  9 36  1  0
 35 36  1  0
 36 37  2  0
 37 38  1  0
 10 39  1  0
 34 39  1  0
 38 39  2  0
 19 40  1  0
 40 41  1  0
 41 42  1  0
 18 43  1  0
 42 43  1  0
 43 44  1  0
 40 45  1  0
 44 45  1  0
M  END
