x1458-x2703
     RDKit          3D

 46 49  0  0  0  0  0  0  0  0999 V2000
    7.2460   -1.3100   21.6510 N   0  0  0  0  0  0  0  0  0  0  0  0
    7.4710    2.0630   22.7960 N   0  0  0  0  0  0  0  0  0  0  0  0
    8.7860    1.2630   21.0800 O   0  0  0  0  0  0  0  0  0  0  0  0
    6.7090    0.0620   21.5510 C   0  0  1  0  0  0  0  0  0  0  0  0
    7.7820    1.1770   21.7830 C   0  0  0  0  0  0  0  0  0  0  0  0
   10.0850    1.9880   24.0110 C   0  0  0  0  0  0  0  0  0  0  0  0
    9.2480    1.2460   25.0500 C   0  0  0  0  0  0  0  0  0  0  0  0
    6.1850    4.4180   21.8410 C   0  0  0  0  0  0  0  0  0  0  0  0
   12.2200   -1.5770   24.6500 C   0  0  0  0  0  0  0  0  0  0  0  0
   12.6860   -2.9670   25.1050 C   0  0  0  0  0  0  0  0  0  0  0  0
   13.2520   -1.1830   23.6080 C   0  0  0  0  0  0  0  0  0  0  0  0
    6.6430   -3.4760   26.6790 N   0  0  0  0  0  0  0  0  0  0  0  0
    8.8250   -4.4260   26.8240 C   0  0  0  0  0  0  0  0  0  0  0  0
    4.9610   -3.8590   25.2660 O   0  0  0  0  0  0  0  0  0  0  0  0
    7.5440   -4.4010   27.3940 C   0  0  0  0  0  0  0  0  0  0  0  0
    5.4070   -4.6810   19.9250 O   0  0  0  0  0  0  0  0  0  0  0  0
    7.0440   -5.6670   27.7010 C   0  0  0  0  0  0  0  0  0  0  0  0
    7.0570   -2.2600   26.2870 C   0  0  0  0  0  0  0  0  0  0  0  0
    6.1580   -4.0050   25.5440 C   0  0  0  0  0  0  0  0  0  0  0  0
    6.3120   -3.9350   20.2850 C   0  0  0  0  0  0  0  0  0  0  0  0
    7.1920   -3.2140   19.2790 C   0  0  0  0  0  0  0  0  0  0  0  0
    6.2140   -2.2830   22.0270 C   0  0  0  0  0  0  0  0  0  0  0  0
    6.3330    0.3710   17.8650 N   0  0  0  0  0  0  0  0  0  0  0  0
    5.0920    1.1400   17.8300 C   0  0  0  0  0  0  0  0  0  0  0  0
    4.3340    1.5500   19.0250 C   0  0  0  0  0  0  0  0  0  0  0  0
    4.9430    1.1410   20.1260 C   0  0  0  0  0  0  0  0  0  0  0  0
    6.1240    0.4230   20.2090 C   0  0  0  0  0  0  0  0  0  0  0  0
    6.8170    0.0300   19.0590 C   0  0  0  0  0  0  0  0  0  0  0  0
   11.0190   -1.3280   22.5950 N   0  0  0  0  0  0  0  0  0  0  0  0
   10.9090   -1.5410   23.8970 C   0  0  0  0  0  0  0  0  0  0  0  0
    9.6890   -1.6970   24.5160 C   0  0  0  0  0  0  0  0  0  0  0  0
    8.4800   -1.6290   23.7990 C   0  0  0  0  0  0  0  0  0  0  0  0
    8.4450   -1.3950   22.3980 C   0  0  0  0  0  0  0  0  0  0  0  0
    9.8810   -1.2550   21.8920 C   0  0  0  0  0  0  0  0  0  0  0  0
    9.4430    3.2760   23.5250 C   0  0  0  0  0  0  0  0  0  0  0  0
   10.2680    4.5430   23.7150 C   0  0  0  0  0  0  0  0  0  0  0  0
    9.4590    5.7450   23.1590 C   0  0  0  0  0  0  0  0  0  0  0  0
    8.1930    5.6640   22.5860 C   0  0  0  0  0  0  0  0  0  0  0  0
    7.5530    4.4370   22.4760 C   0  0  0  0  0  0  0  0  0  0  0  0
    8.1760    3.2750   22.9420 C   0  0  0  0  0  0  0  0  0  0  0  0
    6.4990   -3.7650   21.8030 C   0  0  2  0  0  0  0  0  0  0  0  0
    7.9300   -4.0880   22.2620 C   0  0  0  0  0  0  0  0  0  0  0  0
    8.0500   -3.8950   23.7650 C   0  0  0  0  0  0  0  0  0  0  0  0
    7.0150   -4.7800   24.5320 C   0  0  2  0  0  0  0  0  0  0  0  0
    6.1840   -5.6450   23.5840 C   0  0  0  0  0  0  0  0  0  0  0  0
    5.5820   -4.8200   22.4510 C   0  0  0  0  0  0  0  0  0  0  0  0
  1  4  1  0
  2  5  1  0
  3  5  2  0
  4  5  1  6
  6  7  1  0
  9 10  1  0
  9 11  1  0
 12 15  1  0
 13 15  1  0
 15 17  1  0
 12 18  1  0
 12 19  1  0
 14 19  2  0
 16 20  2  0
 20 21  1  0
  1 22  1  0
 23 24  2  0
 24 25  1  0
 25 26  2  0
  4 27  1  0
 26 27  1  0
 23 28  1  0
 27 28  2  0
  9 30  1  0
 29 30  2  0
 30 31  1  0
 31 32  2  0
  1 33  1  0
 32 33  1  0
 29 34  1  0
 33 34  2  0
  6 35  1  0
 35 36  2  0
 36 37  1  0
 37 38  2  0
  8 39  1  0
 38 39  1  0
  2 40  1  0
 35 40  1  0
 39 40  2  0
 41 20  1  0
 41 22  1  1
 41 42  1  0
 42 43  1  0
 44 19  1  6
 43 44  1  0
 44 45  1  0
 41 46  1  0
 45 46  1  0
M  END
