x1458-x1402
     RDKit          3D

 24 25  0  0  0  0  0  0  0  0999 V2000
    7.2040   -3.5710   26.5060 N   0  0  0  0  0  0  0  0  0  0  0  0
    8.8290   -5.4460   26.9410 C   0  0  0  0  0  0  0  0  0  0  0  0
    4.9470   -3.8940   25.1360 N   0  0  0  0  0  0  0  0  0  0  0  0
    7.5430   -4.6470   27.3320 C   0  0  2  0  0  0  0  0  0  0  0  0
    5.3740   -4.6190   19.9330 O   0  0  0  0  0  0  0  0  0  0  0  0
    6.4520   -5.7030   27.3880 C   0  0  0  0  0  0  0  0  0  0  0  0
    7.6910   -2.2150   26.7950 C   0  0  0  0  0  0  0  0  0  0  0  0
    6.3940   -3.7960   25.2300 C   0  0  0  0  0  0  0  0  0  0  0  0
    6.4160   -4.0520   20.2610 C   0  0  0  0  0  0  0  0  0  0  0  0
    7.2180   -3.2610   19.2560 C   0  0  0  0  0  0  0  0  0  0  0  0
    0.8850   -0.7680   26.7320 Cl  0  0  0  0  0  0  0  0  0  0  0  0
    4.0540   -7.1630   26.3940 O   0  0  0  0  0  0  0  0  0  0  0  0
    4.9540   -6.0880   26.0710 S   0  0  0  0  0  0  0  0  0  0  0  0
    6.9080   -4.1700   21.5400 N   0  0  0  0  0  0  0  0  0  0  0  0
    7.9410   -3.2650   22.1660 C   0  0  0  0  0  0  0  0  0  0  0  0
    8.1760   -3.3100   23.7020 C   0  0  0  0  0  0  0  0  0  0  0  0
    6.9900   -3.9690   23.9840 C   0  0  0  0  0  0  0  0  0  0  0  0
    6.9400   -5.2920   23.5410 C   0  0  0  0  0  0  0  0  0  0  0  0
    6.7030   -5.3350   22.1780 C   0  0  0  0  0  0  0  0  0  0  0  0
    2.4740   -3.3070   26.9650 S   0  0  0  0  0  0  0  0  0  0  0  0
    3.8670   -3.8520   26.0790 C   0  0  0  0  0  0  0  0  0  0  0  0
    3.9290   -2.6580   25.3150 C   0  0  0  0  0  0  0  0  0  0  0  0
    3.0910   -1.5850   25.3940 C   0  0  0  0  0  0  0  0  0  0  0  0
    2.1700   -1.8140   26.3010 C   0  0  0  0  0  0  0  0  0  0  0  0
  1  4  1  0
  4  2  1  6
  4  6  1  0
  1  7  1  0
  1  8  1  0
  3  8  2  3
  5  9  2  0
  9 10  1  0
  6 13  2  0
 12 13  2  0
  9 14  1  0
 14 15  1  0
 15 16  1  0
  8 17  1  0
 16 17  1  0
 17 18  1  0
 14 19  1  0
 18 19  1  0
  3 21  1  0
 20 21  1  0
 21 22  2  0
 22 23  1  0
 11 24  1  0
 20 24  1  0
 23 24  2  0
M  END
