x1458-x3124
     RDKit          3D

 39 41  0  0  0  0  0  0  0  0999 V2000
    6.8900   -3.7840   26.6490 N   0  0  0  0  0  0  0  0  0  0  0  0
    9.1080   -4.6720   27.5120 C   0  0  0  0  0  0  0  0  0  0  0  0
    4.9440   -3.5120   25.2520 O   0  0  0  0  0  0  0  0  0  0  0  0
    7.6260   -4.8920   27.0700 C   0  0  0  0  0  0  0  0  0  0  0  0
    5.1190   -4.4800   19.8100 O   0  0  0  0  0  0  0  0  0  0  0  0
    6.9720   -5.6500   28.2080 C   0  0  0  0  0  0  0  0  0  0  0  0
    6.4720   -2.7080   27.5390 C   0  0  0  0  0  0  0  0  0  0  0  0
    6.1030   -3.9200   25.3770 C   0  0  0  0  0  0  0  0  0  0  0  0
    6.2280   -4.1210   20.1540 C   0  0  0  0  0  0  0  0  0  0  0  0
    7.1420   -3.3060   19.2620 C   0  0  0  0  0  0  0  0  0  0  0  0
    7.3050   -1.3050   21.6900 N   0  0  0  0  0  0  0  0  0  0  0  0
    7.8570    1.4320   23.4180 N   0  0  0  0  0  0  0  0  0  0  0  0
    8.7850    1.6440   21.0780 O   0  0  0  0  0  0  0  0  0  0  0  0
    6.7620    0.0880   21.7200 C   0  0  1  0  0  0  0  0  0  0  0  0
    7.9130    1.1060   21.9760 C   0  0  0  0  0  0  0  0  0  0  0  0
    8.7380    2.4200   24.0270 C   0  0  0  0  0  0  0  0  0  0  0  0
   12.3190   -1.9850   24.6310 C   0  0  0  0  0  0  0  0  0  0  0  0
   12.9020   -0.7770   24.8670 C   0  0  0  0  0  0  0  0  0  0  0  0
   13.4110   -1.6670   23.6930 C   0  0  0  0  0  0  0  0  0  0  0  0
   12.7580   -3.2310   25.3500 C   0  0  0  0  0  0  0  0  0  0  0  0
    6.4970   -2.4200   22.1150 C   0  0  0  0  0  0  0  0  0  0  0  0
    6.7210   -4.4630   21.3560 N   0  0  0  0  0  0  0  0  0  0  0  0
    7.4120   -3.4900   22.1420 C   0  0  2  0  0  0  0  0  0  0  0  0
    7.7930   -3.8140   23.4240 C   0  0  0  0  0  0  0  0  0  0  0  0
    6.8470   -4.5810   24.2720 C   0  0  2  0  0  0  0  0  0  0  0  0
    5.9050   -5.0770   23.4260 C   0  0  0  0  0  0  0  0  0  0  0  0
    6.2440   -5.4420   22.1240 C   0  0  0  0  0  0  0  0  0  0  0  0
    6.3520    0.3710   17.9730 N   0  0  0  0  0  0  0  0  0  0  0  0
    5.1720    1.2290   17.8280 C   0  0  0  0  0  0  0  0  0  0  0  0
    4.5780    1.6380   19.0200 C   0  0  0  0  0  0  0  0  0  0  0  0
    5.0650    1.2770   20.2590 C   0  0  0  0  0  0  0  0  0  0  0  0
    6.1870    0.4780   20.3780 C   0  0  0  0  0  0  0  0  0  0  0  0
    6.8010    0.0370   19.1950 C   0  0  0  0  0  0  0  0  0  0  0  0
    9.6890   -1.2500   21.7950 C   0  0  0  0  0  0  0  0  0  0  0  0
   11.0200   -1.4150   22.4760 C   0  0  0  0  0  0  0  0  0  0  0  0
   11.0210   -1.8350   23.9290 C   0  0  0  0  0  0  0  0  0  0  0  0
    9.5850   -2.0280   24.4640 C   0  0  0  0  0  0  0  0  0  0  0  0
    8.4460   -1.8340   23.7060 C   0  0  0  0  0  0  0  0  0  0  0  0
    8.4970   -1.4530   22.3850 C   0  0  0  0  0  0  0  0  0  0  0  0
  1  4  1  0
  2  4  1  0
  4  6  1  0
  1  7  1  0
  1  8  1  0
  3  8  2  0
  5  9  2  0
  9 10  1  0
 11 14  1  0
 12 15  1  0
 13 15  2  0
 14 15  1  6
 12 16  1  0
 17 18  1  0
 17 19  1  0
 17 20  1  0
 11 21  1  0
  9 22  1  0
 23 21  1  1
 22 23  1  0
 23 24  1  0
 25  8  1  1
 24 25  1  0
 25 26  1  0
 22 27  1  0
 26 27  1  0
 28 29  2  0
 29 30  1  0
 30 31  2  0
 14 32  1  0
 31 32  1  0
 28 33  1  0
 32 33  2  0
 34 35  2  0
 17 36  1  0
 35 36  1  0
 36 37  2  0
 37 38  1  0
 11 39  1  0
 34 39  1  0
 38 39  2  0
M  END
