x1458-x2754-x2705
     RDKit          3D

 57 63  0  0  0  0  0  0  0  0999 V2000
    7.6070   -1.0340   21.9200 N   0  0  0  0  0  0  0  0  0  0  0  0
    7.5360    2.3010   22.8550 N   0  0  0  0  0  0  0  0  0  0  0  0
    8.9880    1.4780   21.0530 O   0  0  0  0  0  0  0  0  0  0  0  0
    6.9270    0.2530   21.7370 C   0  0  1  0  0  0  0  0  0  0  0  0
    7.9020    1.3590   21.8390 C   0  0  0  0  0  0  0  0  0  0  0  0
   10.2150    2.1890   23.9960 C   0  0  0  0  0  0  0  0  0  0  0  0
    9.3910    1.4800   24.8890 C   0  0  0  0  0  0  0  0  0  0  0  0
    6.1760    4.9800   21.8870 C   0  0  0  0  0  0  0  0  0  0  0  0
   12.4820   -1.4410   23.3200 C   0  0  0  0  0  0  0  0  0  0  0  0
   12.9910   -0.1840   23.5800 C   0  0  0  0  0  0  0  0  0  0  0  0
   13.0110   -2.4360   24.3890 C   0  0  0  0  0  0  0  0  0  0  0  0
   12.8970   -1.9440   21.9190 C   0  0  0  0  0  0  0  0  0  0  0  0
    5.2720   -3.2310   25.4820 C   0  0  0  0  0  0  0  0  0  0  0  0
    6.0680   -5.9290   19.8880 O   0  0  0  0  0  0  0  0  0  0  0  0
    6.1340   -5.9000   27.6670 C   0  0  0  0  0  0  0  0  0  0  0  0
    6.5360   -4.0690   25.2970 C   0  0  0  0  0  0  0  0  0  0  0  0
    6.3410   -4.7990   20.2560 C   0  0  0  0  0  0  0  0  0  0  0  0
    7.1110   -3.6960   19.4990 C   0  0  0  0  0  0  0  0  0  0  0  0
    7.3310   -2.3020   21.3840 C   0  0  0  0  0  0  0  0  0  0  0  0
    3.9820   -2.5240   25.2790 C   0  0  0  0  0  0  0  0  0  0  0  0
    2.9520   -1.9940   25.6140 O   0  0  0  0  0  0  0  0  0  0  0  0
    4.1080   -2.6590   26.7680 N   0  0  0  0  0  0  0  0  0  0  0  0
    4.9360   -3.6230   20.7220 N   0  0  0  0  0  0  0  0  0  0  0  0
    5.6180   -2.7480   19.9710 C   0  0  0  0  0  0  0  0  0  0  0  0
    5.1530   -1.8900   19.0200 C   0  0  0  0  0  0  0  0  0  0  0  0
    5.1010   -2.0680   27.4690 C   0  0  0  0  0  0  0  0  0  0  0  0
    6.3700    0.2320   17.9190 N   0  0  0  0  0  0  0  0  0  0  0  0
    5.2270    0.9340   17.8720 C   0  0  0  0  0  0  0  0  0  0  0  0
    4.5060    1.4620   18.9250 C   0  0  0  0  0  0  0  0  0  0  0  0
    5.0810    1.2290   20.3400 C   0  0  0  0  0  0  0  0  0  0  0  0
    6.2590    0.5100   20.3630 C   0  0  0  0  0  0  0  0  0  0  0  0
    6.8990    0.0150   19.2490 C   0  0  0  0  0  0  0  0  0  0  0  0
   10.0880   -1.2020   24.5440 N   0  0  0  0  0  0  0  0  0  0  0  0
    8.7680   -1.0850   24.1920 N   0  0  0  0  0  0  0  0  0  0  0  0
    8.7080   -1.1100   22.8480 C   0  0  0  0  0  0  0  0  0  0  0  0
   10.0680   -1.2570   22.2640 C   0  0  0  0  0  0  0  0  0  0  0  0
   11.0030   -1.3150   23.3960 C   0  0  0  0  0  0  0  0  0  0  0  0
    9.5690    3.4850   23.5560 C   0  0  0  0  0  0  0  0  0  0  0  0
   10.3260    4.7980   23.7050 C   0  0  0  0  0  0  0  0  0  0  0  0
    9.7360    6.1400   23.2740 C   0  0  0  0  0  0  0  0  0  0  0  0
    8.3360    6.1640   22.6670 C   0  0  0  0  0  0  0  0  0  0  0  0
    7.5410    4.8560   22.5010 C   0  0  0  0  0  0  0  0  0  0  0  0
    8.1640    3.5460   22.9520 C   0  0  0  0  0  0  0  0  0  0  0  0
    5.8180   -4.3290   21.5540 C   0  0  2  0  0  0  0  0  0  0  0  0
    6.5330   -3.2190   22.3090 C   0  0  1  0  0  0  0  0  0  0  0  0
    7.5110   -3.8220   23.2390 C   0  0  0  0  0  0  0  0  0  0  0  0
    6.8480   -4.7560   24.0210 C   0  0  2  0  0  0  0  0  0  0  0  0
    5.5370   -5.0130   23.7590 C   0  0  2  0  0  0  0  0  0  0  0  0
    5.3060   -5.3450   22.3090 C   0  0  0  0  0  0  0  0  0  0  0  0
    5.5770   -2.5550   23.0370 C   0  0  0  0  0  0  0  0  0  0  0  0
    4.9820   -3.5810   24.0190 C   0  0  2  0  0  0  0  0  0  0  0  0
    7.3920   -5.1940   27.2950 C   0  0  0  0  0  0  0  0  0  0  0  0
    8.4900   -5.4120   28.0760 C   0  0  0  0  0  0  0  0  0  0  0  0
    9.6890   -4.8080   27.7890 C   0  0  0  0  0  0  0  0  0  0  0  0
    9.8110   -3.9590   26.7030 C   0  0  0  0  0  0  0  0  0  0  0  0
    8.7350   -3.7260   25.9230 C   0  0  0  0  0  0  0  0  0  0  0  0
    7.5420   -4.3490   26.2150 C   0  0  0  0  0  0  0  0  0  0  0  0
  1  4  1  0
  2  5  1  0
  3  5  2  0
  4  5  1  6
  6  7  1  0
  9 10  1  0
  9 11  1  0
  9 12  1  0
 13 16  2  0
 14 17  2  0
 17 18  1  0
  1 19  1  0
 13 20  1  0
 20 21  2  0
 20 22  1  0
 23 24  2  3
 24 25  1  0
 22 26  1  0
 27 28  2  0
 28 29  1  0
 29 30  2  0
  4 31  1  0
 30 31  1  0
 27 32  1  0
 31 32  2  0
 33 34  1  0
  1 35  1  0
 34 35  2  0
 35 36  1  0
  9 37  1  0
 33 37  1  0
 36 37  2  0
  6 38  1  0
 38 39  2  0
 39 40  1  0
 40 41  2  0
  8 42  1  0
 41 42  1  0
  2 43  1  0
 38 43  1  0
 42 43  2  0
 17 44  1  0
 44 23  1  6
 45 19  1  6
 44 45  1  0
 45 46  1  0
 47 16  1  1
 46 47  1  0
 47 48  1  0
 44 49  1  0
 48 49  1  6
 45 50  1  0
 51 13  1  1
 48 51  1  0
 50 51  1  0
 15 52  1  0
 52 53  2  0
 53 54  1  0
 54 55  2  0
 55 56  1  0
 16 57  1  0
 52 57  1  0
 56 57  2  0
M  END
