x1458-x2569
     RDKit          3D

 35 37  0  0  0  0  0  0  0  0999 V2000
    7.0730   -3.6560   26.5980 N   0  0  0  0  0  0  0  0  0  0  0  0
    9.1470   -4.5730   27.6930 C   0  0  0  0  0  0  0  0  0  0  0  0
    5.2700   -3.1410   25.0950 O   0  0  0  0  0  0  0  0  0  0  0  0
    7.7490   -4.7890   27.0450 C   0  0  0  0  0  0  0  0  0  0  0  0
    5.3360   -4.5320   19.9050 O   0  0  0  0  0  0  0  0  0  0  0  0
    6.9630   -5.6200   28.0450 C   0  0  0  0  0  0  0  0  0  0  0  0
    6.7910   -2.5100   27.4560 C   0  0  0  0  0  0  0  0  0  0  0  0
    6.3290   -3.7480   25.2940 C   0  0  0  0  0  0  0  0  0  0  0  0
    6.3540   -3.9880   20.3420 C   0  0  0  0  0  0  0  0  0  0  0  0
    7.2120   -3.1800   19.3990 C   0  0  0  0  0  0  0  0  0  0  0  0
    8.0060    0.0230   21.5350 C   0  0  0  0  0  0  0  0  0  0  0  0
    8.6030    1.0900   21.4120 O   0  0  0  0  0  0  0  0  0  0  0  0
    8.6920   -1.2440   22.0330 C   0  0  2  0  0  0  0  0  0  0  0  0
   14.0710   -1.4470   20.3660 N   0  0  0  0  0  0  0  0  0  0  0  0
    6.7360   -0.1730   21.2280 N   0  0  0  0  0  0  0  0  0  0  0  0
   13.2790   -1.2950   21.5550 C   0  0  0  0  0  0  0  0  0  0  0  0
    7.5500   -2.1250   22.6460 C   0  0  0  0  0  0  0  0  0  0  0  0
    6.6950   -4.1880   21.6690 N   0  0  0  0  0  0  0  0  0  0  0  0
    7.8050   -3.4790   22.3810 C   0  0  2  0  0  0  0  0  0  0  0  0
    8.0600   -4.1620   23.5660 C   0  0  0  0  0  0  0  0  0  0  0  0
    6.9210   -4.6330   24.2620 C   0  0  2  0  0  0  0  0  0  0  0  0
    5.9280   -5.2460   23.4980 C   0  0  0  0  0  0  0  0  0  0  0  0
    6.3890   -5.4930   22.2350 C   0  0  0  0  0  0  0  0  0  0  0  0
   11.4270   -0.1410   24.6960 N   0  0  0  0  0  0  0  0  0  0  0  0
   12.6100   -0.4410   23.8490 C   0  0  0  0  0  0  0  0  0  0  0  0
   12.2550   -0.9780   22.5140 C   0  0  0  0  0  0  0  0  0  0  0  0
   11.0210   -1.1620   22.1480 C   0  0  0  0  0  0  0  0  0  0  0  0
    9.9200   -0.9110   22.8540 C   0  0  0  0  0  0  0  0  0  0  0  0
   10.1130   -0.4000   24.1300 C   0  0  0  0  0  0  0  0  0  0  0  0
    6.4050    0.6650   17.7530 N   0  0  0  0  0  0  0  0  0  0  0  0
    6.8170    0.1850   18.9230 C   0  0  0  0  0  0  0  0  0  0  0  0
    6.1410    0.3850   20.1040 C   0  0  0  0  0  0  0  0  0  0  0  0
    4.9410    1.1020   20.1950 C   0  0  0  0  0  0  0  0  0  0  0  0
    4.3320    1.6940   19.0560 C   0  0  0  0  0  0  0  0  0  0  0  0
    5.1740    1.4210   17.8040 C   0  0  0  0  0  0  0  0  0  0  0  0
  1  4  1  0
  2  4  1  0
  4  6  1  0
  1  7  1  0
  1  8  1  0
  3  8  2  0
  5  9  2  0
  9 10  1  0
 11 12  2  0
 11 13  1  0
 11 15  1  0
 14 16  3  0
 13 17  1  1
  9 18  1  0
 19 17  1  1
 18 19  1  0
 19 20  1  0
 21  8  1  6
 20 21  1  0
 21 22  1  0
 18 23  1  0
 22 23  1  0
 24 25  2  0
 16 26  1  0
 25 26  1  0
 26 27  2  0
 13 28  1  0
 27 28  1  0
 24 29  1  0
 28 29  2  0
 30 31  2  0
 15 32  1  0
 31 32  1  0
 32 33  2  0
 33 34  1  0
 30 35  1  0
 34 35  2  0
M  END
