x1458-x2581
     RDKit          3D

 39 42  0  0  0  0  0  0  0  0999 V2000
    7.3160   -3.5240   26.3670 N   0  0  0  0  0  0  0  0  0  0  0  0
    8.9040   -5.4300   26.8160 C   0  0  0  0  0  0  0  0  0  0  0  0
    4.9300   -3.4530   26.0620 O   0  0  0  0  0  0  0  0  0  0  0  0
    7.6780   -4.5580   27.2390 C   0  0  0  0  0  0  0  0  0  0  0  0
    5.5940   -4.7730   20.0450 O   0  0  0  0  0  0  0  0  0  0  0  0
    6.5810   -5.5810   27.4920 C   0  0  0  0  0  0  0  0  0  0  0  0
    7.9200   -2.1980   26.5210 C   0  0  0  0  0  0  0  0  0  0  0  0
    6.0340   -3.6030   25.5400 C   0  0  0  0  0  0  0  0  0  0  0  0
    6.6280   -4.1890   20.4360 C   0  0  0  0  0  0  0  0  0  0  0  0
    7.3540   -3.3290   19.4550 C   0  0  0  0  0  0  0  0  0  0  0  0
    9.9540   -2.6360   22.7390 C   0  0  0  0  0  0  0  0  0  0  0  0
   10.0090   -1.5840   23.4120 O   0  0  0  0  0  0  0  0  0  0  0  0
   10.6250    3.1510   22.1800 N   0  0  0  0  0  0  0  0  0  0  0  0
   10.8670    3.8000   24.5040 O   0  0  0  0  0  0  0  0  0  0  0  0
   11.0630    3.9470   23.3180 C   0  0  0  0  0  0  0  0  0  0  0  0
   11.7660    5.0520   22.8530 C   0  0  0  0  0  0  0  0  0  0  0  0
    8.7940   -3.5680   23.1820 C   0  0  0  0  0  0  0  0  0  0  0  0
    7.1940   -4.3780   21.7120 N   0  0  0  0  0  0  0  0  0  0  0  0
    7.6110   -3.2930   22.4530 C   0  0  1  0  0  0  0  0  0  0  0  0
    6.6680   -2.8040   23.3180 C   0  0  0  0  0  0  0  0  0  0  0  0
    6.0790   -3.8410   24.0690 C   0  0  1  0  0  0  0  0  0  0  0  0
    6.5750   -5.1300   23.7850 C   0  0  0  0  0  0  0  0  0  0  0  0
    6.8330   -5.4300   22.4540 C   0  0  0  0  0  0  0  0  0  0  0  0
    8.8010    1.8300   21.2360 N   0  0  0  0  0  0  0  0  0  0  0  0
    9.9570    1.8820   22.1360 C   0  0  0  0  0  0  0  0  0  0  0  0
   10.4100    0.6680   22.9220 C   0  0  0  0  0  0  0  0  0  0  0  0
    9.6560   -0.4550   22.7290 C   0  0  0  0  0  0  0  0  0  0  0  0
    8.5730   -0.4480   21.8690 C   0  0  0  0  0  0  0  0  0  0  0  0
    8.1690    0.6660   21.1520 C   0  0  0  0  0  0  0  0  0  0  0  0
    9.8440    6.7050   22.8370 C   0  0  0  0  0  0  0  0  0  0  0  0
    9.1860    7.7930   23.3360 C   0  0  0  0  0  0  0  0  0  0  0  0
    9.6780    8.5370   24.4220 C   0  0  0  0  0  0  0  0  0  0  0  0
   10.9050    8.2470   25.1180 C   0  0  0  0  0  0  0  0  0  0  0  0
   11.6600    7.0170   24.5710 C   0  0  0  0  0  0  0  0  0  0  0  0
   11.0450    6.2670   23.3830 C   0  0  0  0  0  0  0  0  0  0  0  0
    8.9530    9.6420   24.8700 C   0  0  0  0  0  0  0  0  0  0  0  0
    9.4620   10.4920   26.0510 C   0  0  0  0  0  0  0  0  0  0  0  0
   10.6640   10.1240   26.6580 C   0  0  0  0  0  0  0  0  0  0  0  0
   11.3720    9.0180   26.1980 C   0  0  0  0  0  0  0  0  0  0  0  0
  1  4  1  0
  2  4  1  0
  4  6  1  0
  1  7  1  0
  1  8  1  0
  3  8  2  0
  5  9  2  0
  9 10  1  0
 11 12  1  0
 13 15  1  0
 14 15  2  0
 15 16  1  0
 11 17  1  0
  9 18  1  0
 19 17  1  1
 18 19  1  0
 19 20  1  0
 21  8  1  1
 20 21  1  0
 21 22  1  0
 18 23  1  0
 22 23  1  0
 13 25  1  0
 24 25  2  0
 25 26  1  0
 12 27  1  0
 26 27  2  0
 27 28  1  0
 24 29  1  0
 28 29  2  0
 30 31  2  0
 31 32  1  0
 32 33  2  0
 33 34  1  0
 16 35  1  0
 30 35  1  0
 34 35  2  0
 32 36  1  0
 36 37  2  0
 37 38  1  0
 33 39  1  0
 38 39  2  0
M  END
