x1458-x2764
     RDKit          3D

 35 38  0  0  0  0  0  0  0  0999 V2000
    6.9830   -3.6320   26.6260 N   0  0  0  0  0  0  0  0  0  0  0  0
    9.1140   -4.6300   27.5090 C   0  0  0  0  0  0  0  0  0  0  0  0
    4.7910   -3.3920   25.6530 O   0  0  0  0  0  0  0  0  0  0  0  0
    7.6860   -4.8000   26.8990 C   0  0  0  0  0  0  0  0  0  0  0  0
    5.8990   -4.9880   20.0290 O   0  0  0  0  0  0  0  0  0  0  0  0
    6.9610   -5.7240   27.8640 C   0  0  0  0  0  0  0  0  0  0  0  0
    6.8820   -2.5570   27.6010 C   0  0  0  0  0  0  0  0  0  0  0  0
    6.0090   -3.5830   25.4710 C   0  0  0  0  0  0  0  0  0  0  0  0
    6.6120   -4.0030   20.2710 C   0  0  0  0  0  0  0  0  0  0  0  0
    7.3400   -3.2790   19.1680 C   0  0  0  0  0  0  0  0  0  0  0  0
    8.4780   -1.3820   21.1240 N   0  0  0  0  0  0  0  0  0  0  0  0
    7.0420   -1.3150   20.8460 C   0  0  0  0  0  0  0  0  0  0  0  0
    6.1990   -2.2940   21.1800 N   0  0  0  0  0  0  0  0  0  0  0  0
    8.7570   -2.0680   22.3630 C   0  0  1  0  0  0  0  0  0  0  0  0
    6.3370    1.4430   22.1250 O   0  0  0  0  0  0  0  0  0  0  0  0
    7.8300    4.6620   22.6030 N   0  0  0  0  0  0  0  0  0  0  0  0
    7.6290    1.8020   22.3790 C   0  0  0  0  0  0  0  0  0  0  0  0
    7.7280    3.1890   22.4650 C   0  0  0  0  0  0  0  0  0  0  0  0
    6.7030   -3.4350   21.6930 C   0  0  2  0  0  0  0  0  0  0  0  0
    8.0110   -3.4600   22.3340 C   0  0  2  0  0  0  0  0  0  0  0  0
    7.8170   -3.7060   23.6840 C   0  0  0  0  0  0  0  0  0  0  0  0
    6.4810   -3.7530   24.0580 C   0  0  1  0  0  0  0  0  0  0  0  0
    6.0320   -4.8900   23.4440 C   0  0  0  0  0  0  0  0  0  0  0  0
    5.7630   -4.3710   22.1890 C   0  0  0  0  0  0  0  0  0  0  0  0
   12.5820   -1.7650   22.7290 N   0  0  0  0  0  0  0  0  0  0  0  0
   11.2750   -1.9490   22.0790 C   0  0  0  0  0  0  0  0  0  0  0  0
   10.2010   -1.9170   22.8670 C   0  0  0  0  0  0  0  0  0  0  0  0
   10.5910   -1.7110   24.1900 C   0  0  0  0  0  0  0  0  0  0  0  0
   12.2970   -1.5640   24.3600 S   0  0  0  0  0  0  0  0  0  0  0  0
    6.2000   -0.4140   18.7970 C   0  0  0  0  0  0  0  0  0  0  0  0
    5.6250    0.5350   17.9970 C   0  0  0  0  0  0  0  0  0  0  0  0
    5.2820    1.7460   18.5310 C   0  0  0  0  0  0  0  0  0  0  0  0
    5.5030    2.0730   19.8790 C   0  0  0  0  0  0  0  0  0  0  0  0
    6.0990    1.1680   20.8080 C   0  0  0  0  0  0  0  0  0  0  0  0
    6.4410   -0.1700   20.1370 C   0  0  0  0  0  0  0  0  0  0  0  0
  1  4  1  0
  2  4  1  0
  4  6  1  0
  1  7  1  0
  1  8  1  0
  3  8  2  0
  5  9  2  0
  9 10  1  0
 11 12  1  0
 12 13  2  0
 11 14  1  0
 15 17  1  0
 16 18  3  0
 17 18  1  0
 19  9  1  6
 13 19  1  0
 14 20  1  0
 19 20  1  0
 20 21  1  1
 22  8  1  1
 21 22  1  0
 22 23  1  0
 19 24  1  0
 23 24  1  0
 25 26  2  0
 14 27  1  6
 26 27  1  0
 27 28  2  0
 25 29  1  0
 28 29  1  0
 30 31  2  0
 31 32  1  0
 32 33  2  0
 15 34  1  0
 33 34  1  0
 12 35  1  0
 30 35  1  0
 34 35  2  0
M  END
