x1478-x2540
     RDKit          3D

 36 38  0  0  0  0  0  0  0  0999 V2000
    7.4140   -0.7250   21.8740 N   0  0  0  0  0  0  0  0  0  0  0  0
    8.1210    2.2890   23.0720 N   0  0  0  0  0  0  0  0  0  0  0  0
    8.8920    1.9210   20.9470 O   0  0  0  0  0  0  0  0  0  0  0  0
    6.9630    0.6600   21.7060 C   0  0  1  0  0  0  0  0  0  0  0  0
    8.1130    1.6810   21.8460 C   0  0  0  0  0  0  0  0  0  0  0  0
    9.0050    3.1140   23.4620 C   0  0  0  0  0  0  0  0  0  0  0  0
    8.8950    3.1950   24.9560 C   0  0  0  0  0  0  0  0  0  0  0  0
    8.6810    4.5200   22.8570 C   0  0  0  0  0  0  0  0  0  0  0  0
   10.4220    2.6860   23.0370 C   0  0  0  0  0  0  0  0  0  0  0  0
   12.1990   -1.3340   23.6250 C   0  0  0  0  0  0  0  0  0  0  0  0
   12.9500   -1.2600   22.2880 C   0  0  0  0  0  0  0  0  0  0  0  0
   12.5260   -0.0880   24.4320 C   0  0  0  0  0  0  0  0  0  0  0  0
   12.6660   -2.5610   24.4280 C   0  0  0  0  0  0  0  0  0  0  0  0
    6.7750   -2.9060   21.5050 N   0  0  0  0  0  0  0  0  0  0  0  0
    7.8080   -4.5970   20.3660 C   0  0  0  0  0  0  0  0  0  0  0  0
    5.7000   -3.7710   19.6010 O   0  0  0  0  0  0  0  0  0  0  0  0
    6.1790   -5.8530   22.3090 Cl  0  0  0  0  0  0  0  0  0  0  0  0
    6.6190   -3.7100   20.4340 C   0  0  0  0  0  0  0  0  0  0  0  0
    6.9160   -1.7310   20.9250 C   0  0  0  0  0  0  0  0  0  0  0  0
    6.3100    0.3760   17.8590 N   0  0  0  0  0  0  0  0  0  0  0  0
    5.2380    1.1950   17.8740 C   0  0  0  0  0  0  0  0  0  0  0  0
    4.6500    1.8570   18.9690 C   0  0  0  0  0  0  0  0  0  0  0  0
    5.1840    1.7090   20.2570 C   0  0  0  0  0  0  0  0  0  0  0  0
    6.2980    0.8860   20.3510 C   0  0  0  0  0  0  0  0  0  0  0  0
    6.8620    0.2200   19.1790 C   0  0  0  0  0  0  0  0  0  0  0  0
    9.9230   -1.7580   24.4370 O   0  0  0  0  0  0  0  0  0  0  0  0
    8.5740   -1.6500   24.1020 N   0  0  0  0  0  0  0  0  0  0  0  0
    8.5320   -1.0760   22.7660 C   0  0  0  0  0  0  0  0  0  0  0  0
    9.8390   -0.9050   22.4360 C   0  0  0  0  0  0  0  0  0  0  0  0
   10.7230   -1.3020   23.4280 C   0  0  0  0  0  0  0  0  0  0  0  0
    4.7640   -4.6800   23.9890 N   0  0  0  0  0  0  0  0  0  0  0  0
    5.5940   -4.3780   22.9790 C   0  0  0  0  0  0  0  0  0  0  0  0
    5.9010   -3.0660   22.5790 C   0  0  0  0  0  0  0  0  0  0  0  0
    5.3530   -1.9450   23.2270 C   0  0  0  0  0  0  0  0  0  0  0  0
    4.4550   -2.0570   24.3220 C   0  0  0  0  0  0  0  0  0  0  0  0
    4.1950   -3.5300   24.6610 C   0  0  0  0  0  0  0  0  0  0  0  0
  1  4  1  0
  2  5  1  0
  3  5  2  0
  4  5  1  6
  6  2  1  0
  6  7  1  0
  6  8  1  0
  6  9  1  0
 10 11  1  0
 10 12  1  0
 10 13  1  0
 14 18  1  0
 15 18  1  0
 16 18  2  0
  1 19  1  0
 14 19  1  0
 20 21  2  0
 21 22  1  0
 22 23  2  0
  4 24  1  0
 23 24  1  0
 20 25  1  0
 24 25  2  0
 26 27  1  0
  1 28  1  0
 27 28  2  0
 28 29  1  0
 10 30  1  0
 26 30  1  0
 29 30  2  0
 17 32  1  0
 31 32  2  0
 14 33  1  0
 32 33  1  0
 33 34  2  0
 34 35  1  0
 31 36  1  0
 35 36  2  0
M  END
