x1478-x2643
     RDKit          3D

 28 30  0  0  0  0  0  0  0  0999 V2000
    6.5370   -2.8980   21.6390 N   0  0  0  0  0  0  0  0  0  0  0  0
    7.8640   -3.7150   19.8100 C   0  0  0  0  0  0  0  0  0  0  0  0
    5.5230   -3.7130   19.6330 O   0  0  0  0  0  0  0  0  0  0  0  0
    6.2710   -6.1020   22.2630 Cl  0  0  0  0  0  0  0  0  0  0  0  0
    6.5160   -3.4300   20.3470 C   0  0  0  0  0  0  0  0  0  0  0  0
    6.3860   -0.7080   20.9350 N   0  0  0  0  0  0  0  0  0  0  0  0
    8.2340    0.6460   21.0310 O   0  0  0  0  0  0  0  0  0  0  0  0
   13.4550    0.2740   23.1800 Cl  0  0  0  0  0  0  0  0  0  0  0  0
    8.5970   -1.5380   21.6010 C   0  0  2  0  0  0  0  0  0  0  0  0
    7.6830   -0.4450   21.1600 C   0  0  0  0  0  0  0  0  0  0  0  0
    7.7970   -2.5600   22.3760 C   0  0  0  0  0  0  0  0  0  0  0  0
    4.6440   -4.9270   24.1360 N   0  0  0  0  0  0  0  0  0  0  0  0
    5.5520   -4.7240   23.0070 C   0  0  0  0  0  0  0  0  0  0  0  0
    5.6840   -3.2310   22.7060 C   0  0  0  0  0  0  0  0  0  0  0  0
    4.9950   -2.0780   23.4500 C   0  0  0  0  0  0  0  0  0  0  0  0
    4.0810   -2.5150   24.6130 C   0  0  0  0  0  0  0  0  0  0  0  0
    3.9720   -3.8810   24.8650 C   0  0  0  0  0  0  0  0  0  0  0  0
   11.9070   -0.0310   22.8370 C   0  0  0  0  0  0  0  0  0  0  0  0
   10.9150    0.8770   22.9900 C   0  0  0  0  0  0  0  0  0  0  0  0
    9.7740    0.3750   22.6090 C   0  0  0  0  0  0  0  0  0  0  0  0
    9.7760   -0.9050   22.1270 C   0  0  0  0  0  0  0  0  0  0  0  0
   11.4180   -1.5470   22.2200 S   0  0  0  0  0  0  0  0  0  0  0  0
    6.2830    0.8520   17.5450 N   0  0  0  0  0  0  0  0  0  0  0  0
    6.7770    0.0130   18.6430 C   0  0  0  0  0  0  0  0  0  0  0  0
    6.0330    0.0420   19.7780 C   0  0  0  0  0  0  0  0  0  0  0  0
    4.8880    0.8000   19.8980 C   0  0  0  0  0  0  0  0  0  0  0  0
    4.3990    1.6430   18.7820 C   0  0  0  0  0  0  0  0  0  0  0  0
    5.1400    1.6180   17.6610 C   0  0  0  0  0  0  0  0  0  0  0  0
  1  5  1  0
  2  5  1  0
  3  5  2  0
  6 10  1  0
  7 10  2  0
  9 10  1  0
  1 11  1  0
  9 11  1  1
  4 13  1  0
 12 13  2  0
  1 14  1  0
 13 14  1  0
 14 15  2  0
 15 16  1  0
 12 17  1  0
 16 17  2  0
  8 18  1  0
 18 19  2  0
 19 20  1  0
  9 21  1  0
 20 21  2  0
 18 22  1  0
 21 22  1  0
 23 24  2  0
  6 25  1  0
 24 25  1  0
 25 26  2  0
 26 27  1  0
 23 28  1  0
 27 28  2  0
M  END
