x1478-x2569
     RDKit          3D

 31 33  0  0  0  0  0  0  0  0999 V2000
    8.2960    0.7600   21.6900 C   0  0  0  0  0  0  0  0  0  0  0  0
    9.1290    1.7940   21.1940 O   0  0  0  0  0  0  0  0  0  0  0  0
    8.8040    0.0540   22.9720 C   0  0  0  0  0  0  0  0  0  0  0  0
   13.7450   -1.5260   20.6400 N   0  0  0  0  0  0  0  0  0  0  0  0
    7.0200    0.2500   21.2320 N   0  0  0  0  0  0  0  0  0  0  0  0
   12.9070   -2.2380   21.4080 C   0  0  0  0  0  0  0  0  0  0  0  0
    6.6040   -3.0650   21.5090 N   0  0  0  0  0  0  0  0  0  0  0  0
    7.6240   -3.7730   19.5630 C   0  0  0  0  0  0  0  0  0  0  0  0
    5.3440   -3.6430   19.5250 O   0  0  0  0  0  0  0  0  0  0  0  0
    6.2780   -5.9760   22.3530 Cl  0  0  0  0  0  0  0  0  0  0  0  0
    6.3570   -3.4560   20.2150 C   0  0  0  0  0  0  0  0  0  0  0  0
    6.3490   -0.7400   21.9740 C   0  0  0  0  0  0  0  0  0  0  0  0
    7.3150   -1.8750   21.6930 C   0  0  0  0  0  0  0  0  0  0  0  0
   12.3340    0.5340   24.1900 N   0  0  0  0  0  0  0  0  0  0  0  0
   12.9700   -0.3630   23.3850 C   0  0  0  0  0  0  0  0  0  0  0  0
   12.3320   -1.2600   22.3220 C   0  0  0  0  0  0  0  0  0  0  0  0
   10.9690   -1.0170   22.3000 C   0  0  0  0  0  0  0  0  0  0  0  0
   10.2670   -0.1180   23.0910 C   0  0  0  0  0  0  0  0  0  0  0  0
   10.9130    0.6530   24.0220 C   0  0  0  0  0  0  0  0  0  0  0  0
    6.3880    0.6350   17.6620 N   0  0  0  0  0  0  0  0  0  0  0  0
    6.9070    0.2730   18.8160 C   0  0  0  0  0  0  0  0  0  0  0  0
    6.3670    0.6810   19.9990 C   0  0  0  0  0  0  0  0  0  0  0  0
    5.2320    1.4800   20.1160 C   0  0  0  0  0  0  0  0  0  0  0  0
    4.6000    1.9120   18.9540 C   0  0  0  0  0  0  0  0  0  0  0  0
    5.1940    1.4850   17.7670 C   0  0  0  0  0  0  0  0  0  0  0  0
    4.7220   -4.9530   24.1230 N   0  0  0  0  0  0  0  0  0  0  0  0
    5.5710   -4.5610   23.0130 C   0  0  0  0  0  0  0  0  0  0  0  0
    5.7410   -3.3210   22.6180 C   0  0  0  0  0  0  0  0  0  0  0  0
    5.1000   -2.3300   23.2770 C   0  0  0  0  0  0  0  0  0  0  0  0
    4.2840   -2.6580   24.3410 C   0  0  0  0  0  0  0  0  0  0  0  0
    4.0490   -3.9580   24.8170 C   0  0  0  0  0  0  0  0  0  0  0  0
  1  2  2  0
  1  3  1  0
  1  5  1  0
  4  6  3  0
  7 11  1  0
  8 11  1  0
  9 11  2  0
  5 12  1  0
  7 13  1  0
 12 13  1  0
 14 15  2  0
  6 16  1  0
 15 16  1  0
 16 17  2  0
  3 18  1  0
 17 18  1  0
 14 19  1  0
 18 19  2  0
 20 21  2  0
  5 22  1  0
 21 22  1  0
 22 23  2  0
 23 24  1  0
 20 25  1  0
 24 25  2  0
 10 27  1  0
 26 27  2  0
  7 28  1  0
 27 28  1  0
 28 29  2  0
 29 30  1  0
 26 31  1  0
 30 31  2  0
M  END
