x1478-x0387
     RDKit          3D

 26 28  0  0  0  0  0  0  0  0999 V2000
    6.7020   -2.5770   21.3870 N   0  0  0  0  0  0  0  0  0  0  0  0
    7.9010   -4.3060   20.2990 C   0  0  0  0  0  0  0  0  0  0  0  0
    5.8420   -3.4180   19.3900 O   0  0  0  0  0  0  0  0  0  0  0  0
    6.1570   -5.8650   22.2170 Cl  0  0  0  0  0  0  0  0  0  0  0  0
    6.7110   -3.4000   20.2840 C   0  0  0  0  0  0  0  0  0  0  0  0
    8.4850   -4.0480   27.3970 O   0  0  0  0  0  0  0  0  0  0  0  0
    9.3550   -1.7910   23.7660 C   0  0  1  0  0  0  0  0  0  0  0  0
    7.7480   -1.6360   21.7980 C   0  0  0  0  0  0  0  0  0  0  0  0
    8.7260   -2.5510   22.5640 C   0  0  0  0  0  0  0  0  0  0  0  0
    4.7980   -4.5540   24.0640 N   0  0  0  0  0  0  0  0  0  0  0  0
    5.6370   -4.3830   22.9090 C   0  0  0  0  0  0  0  0  0  0  0  0
    5.8830   -2.8900   22.5460 C   0  0  0  0  0  0  0  0  0  0  0  0
    5.3080   -1.7000   23.3350 C   0  0  0  0  0  0  0  0  0  0  0  0
    4.4250   -2.0460   24.5600 C   0  0  0  0  0  0  0  0  0  0  0  0
    4.2500   -3.4020   24.8090 C   0  0  0  0  0  0  0  0  0  0  0  0
    8.6180   -4.6890   26.1310 C   0  0  1  0  0  0  0  0  0  0  0  0
    8.4040   -3.7430   25.0900 C   0  0  0  0  0  0  0  0  0  0  0  0
    9.3300   -2.6810   24.9310 C   0  0  1  0  0  0  0  0  0  0  0  0
   10.5550   -3.4410   24.7160 N   0  0  0  0  0  0  0  0  0  0  0  0
   10.8210   -4.1360   25.8270 C   0  0  0  0  0  0  0  0  0  0  0  0
   10.0430   -5.2280   26.0880 C   0  0  0  0  0  0  0  0  0  0  0  0
   11.4370   -0.2180   23.9410 C   0  0  0  0  0  0  0  0  0  0  0  0
   10.7630   -1.3020   23.4160 C   0  0  0  0  0  0  0  0  0  0  0  0
   11.5830   -1.9870   22.4110 C   0  0  0  0  0  0  0  0  0  0  0  0
   13.0820   -1.2420   22.2120 S   0  0  0  0  0  0  0  0  0  0  0  0
   12.7210   -0.0350   23.3930 C   0  0  0  0  0  0  0  0  0  0  0  0
  1  5  1  0
  2  5  1  0
  3  5  2  0
  1  8  1  0
  7  9  1  6
  8  9  1  0
  4 11  1  0
 10 11  2  0
  1 12  1  0
 11 12  1  0
 12 13  2  0
 13 14  1  0
 10 15  1  0
 14 15  2  0
 16  6  1  1
 16 17  1  0
  7 18  1  0
 18 17  1  6
 18 19  1  0
 19 20  1  0
 16 21  1  0
 20 21  1  0
  7 23  1  0
 22 23  1  0
 23 24  2  0
 24 25  1  0
 22 26  2  0
 25 26  1  0
M  END
