x1478-x2646
     RDKit          3D

 30 32  0  0  0  0  0  0  0  0999 V2000
    4.6080    1.4630   21.6610 C   0  0  0  0  0  0  0  0  0  0  0  0
    9.0170    1.1580   22.1690 O   0  0  0  0  0  0  0  0  0  0  0  0
   13.2240   -2.1900   21.1600 Cl  0  0  0  0  0  0  0  0  0  0  0  0
    7.4460   -0.1510   21.2440 N   0  0  0  0  0  0  0  0  0  0  0  0
    8.3910    0.1030   22.1820 C   0  0  0  0  0  0  0  0  0  0  0  0
    8.6930   -0.9560   23.2180 C   0  0  0  0  0  0  0  0  0  0  0  0
    6.4470   -2.4520   21.1550 N   0  0  0  0  0  0  0  0  0  0  0  0
    7.7120   -4.2130   20.2490 C   0  0  0  0  0  0  0  0  0  0  0  0
    5.5250   -3.5650   19.3960 O   0  0  0  0  0  0  0  0  0  0  0  0
    5.9890   -5.6600   22.1070 Cl  0  0  0  0  0  0  0  0  0  0  0  0
    6.4430   -3.4040   20.1960 C   0  0  0  0  0  0  0  0  0  0  0  0
    7.6190   -1.5980   21.0990 C   0  0  0  0  0  0  0  0  0  0  0  0
    6.1920    0.4200   17.6840 N   0  0  0  0  0  0  0  0  0  0  0  0
    6.9820   -0.0220   18.7770 C   0  0  0  0  0  0  0  0  0  0  0  0
    6.5980    0.2610   20.2240 C   0  0  0  0  0  0  0  0  0  0  0  0
    5.2650    1.0400   20.3500 C   0  0  0  0  0  0  0  0  0  0  0  0
    4.6360    1.3830   19.1520 C   0  0  0  0  0  0  0  0  0  0  0  0
    5.0990    1.0840   17.8850 C   0  0  0  0  0  0  0  0  0  0  0  0
   10.7540    0.1730   24.0220 C   0  0  0  0  0  0  0  0  0  0  0  0
   12.0930    0.3680   23.9640 C   0  0  0  0  0  0  0  0  0  0  0  0
   12.8390   -0.3500   23.0970 C   0  0  0  0  0  0  0  0  0  0  0  0
   12.2910   -1.2960   22.2470 C   0  0  0  0  0  0  0  0  0  0  0  0
   10.9220   -1.5330   22.2650 C   0  0  0  0  0  0  0  0  0  0  0  0
   10.1730   -0.7660   23.1770 C   0  0  0  0  0  0  0  0  0  0  0  0
    5.0610   -4.3240   24.1520 N   0  0  0  0  0  0  0  0  0  0  0  0
    5.6760   -4.1410   22.8280 C   0  0  0  0  0  0  0  0  0  0  0  0
    5.8810   -2.8320   22.4140 C   0  0  0  0  0  0  0  0  0  0  0  0
    5.5230   -1.7660   23.2320 C   0  0  0  0  0  0  0  0  0  0  0  0
    4.9460   -1.9730   24.4790 C   0  0  0  0  0  0  0  0  0  0  0  0
    4.7400   -3.2610   24.8780 C   0  0  0  0  0  0  0  0  0  0  0  0
  2  5  2  0
  4  5  1  0
  5  6  1  0
  7 11  1  0
  8 11  1  0
  9 11  2  0
  4 12  1  0
  7 12  1  0
 13 14  2  0
  4 15  1  0
 14 15  1  0
  1 16  1  0
 15 16  2  0
 16 17  1  0
 13 18  1  0
 17 18  2  0
 19 20  2  0
 20 21  1  0
  3 22  1  0
 21 22  2  0
 22 23  1  0
  6 24  1  0
 19 24  1  0
 23 24  2  0
 10 26  1  0
 25 26  2  0
  7 27  1  0
 26 27  1  0
 27 28  2  0
 28 29  1  0
 25 30  1  0
 29 30  2  0
M  END
