x1478-x0991
     RDKit          3D

 17 17  0  0  0  0  0  0  0  0999 V2000
    6.7760   -2.6220   21.4580 N   0  0  0  0  0  0  0  0  0  0  0  0
    7.9990   -3.5500   19.6430 C   0  0  0  0  0  0  0  0  0  0  0  0
    5.6430   -3.6200   19.5950 O   0  0  0  0  0  0  0  0  0  0  0  0
    5.8160   -5.6950   21.7360 Cl  0  0  0  0  0  0  0  0  0  0  0  0
    6.6700   -3.2610   20.2180 C   0  0  0  0  0  0  0  0  0  0  0  0
    8.8400   -6.2390   24.0040 N   0  0  0  0  0  0  0  0  0  0  0  0
    7.6670   -3.3860   22.3760 C   0  0  0  0  0  0  0  0  0  0  0  0
    8.3210   -3.7720   23.6500 C   0  0  0  0  0  0  0  0  0  0  0  0
    6.5910   -5.3640   24.4400 N   0  0  0  0  0  0  0  0  0  0  0  0
    7.8740   -5.1810   24.0200 C   0  0  0  0  0  0  0  0  0  0  0  0
    8.0300   -1.9900   21.9260 C   0  0  0  0  0  0  0  0  0  0  0  0
    4.5460   -4.7250   23.5100 N   0  0  0  0  0  0  0  0  0  0  0  0
    5.3090   -4.3730   22.7060 C   0  0  0  0  0  0  0  0  0  0  0  0
    5.8620   -2.8790   22.4750 C   0  0  0  0  0  0  0  0  0  0  0  0
    5.3210   -1.7450   23.4520 C   0  0  0  0  0  0  0  0  0  0  0  0
    4.4250   -2.2320   24.3830 C   0  0  0  0  0  0  0  0  0  0  0  0
    4.2450   -3.5320   24.2170 C   0  0  0  0  0  0  0  0  0  0  0  0
  1  5  1  0
  2  5  1  0
  3  5  2  0
  7  8  1  0
  6 10  2  3
  8 10  1  0
  9 10  1  0
  1 11  1  0
  7 11  1  0
  4 13  1  0
 12 13  2  0
  1 14  1  0
 13 14  1  0
 14 15  2  0
 15 16  1  0
 12 17  1  0
 16 17  2  0
M  END
