x1478-x3113
     RDKit          3D

 36 38  0  0  0  0  0  0  0  0999 V2000
    7.0890   -1.7240   21.4660 C   0  0  1  0  0  0  0  0  0  0  0  0
    8.2330    1.1230   23.0560 N   0  0  0  0  0  0  0  0  0  0  0  0
    8.5270    1.2440   20.8170 O   0  0  0  0  0  0  0  0  0  0  0  0
   11.5630    3.9630   23.4520 O   0  0  0  0  0  0  0  0  0  0  0  0
    6.6870   -0.1850   21.4810 C   0  0  1  0  0  0  0  0  0  0  0  0
    7.9040    0.7710   21.7710 C   0  0  0  0  0  0  0  0  0  0  0  0
    9.1860    2.2660   22.9640 C   0  0  0  0  0  0  0  0  0  0  0  0
   10.3810    1.8220   23.8660 C   0  0  0  0  0  0  0  0  0  0  0  0
   11.5610    2.5540   23.1970 C   0  0  0  0  0  0  0  0  0  0  0  0
   12.7100    4.5500   22.9440 C   0  0  0  0  0  0  0  0  0  0  0  0
   12.3080   -1.8190   24.2770 C   0  0  0  0  0  0  0  0  0  0  0  0
   13.4370   -2.4280   23.4380 C   0  0  0  0  0  0  0  0  0  0  0  0
   12.9150   -2.9990   24.9310 C   0  0  0  0  0  0  0  0  0  0  0  0
   12.6660   -0.5340   24.9410 C   0  0  0  0  0  0  0  0  0  0  0  0
    8.0760   -3.4930   19.6540 C   0  0  0  0  0  0  0  0  0  0  0  0
    5.9010   -3.0180   19.3600 O   0  0  0  0  0  0  0  0  0  0  0  0
    6.9240   -2.7000   20.1180 C   0  0  0  0  0  0  0  0  0  0  0  0
    5.9630   -6.6110   22.8910 Cl  0  0  0  0  0  0  0  0  0  0  0  0
    6.4000    0.5600   17.6790 N   0  0  0  0  0  0  0  0  0  0  0  0
    5.2040    1.4310   17.7530 C   0  0  0  0  0  0  0  0  0  0  0  0
    4.6120    1.6740   18.9780 C   0  0  0  0  0  0  0  0  0  0  0  0
    5.0660    1.1610   20.1750 C   0  0  0  0  0  0  0  0  0  0  0  0
    6.1880    0.3420   20.1790 C   0  0  0  0  0  0  0  0  0  0  0  0
    6.8900    0.0050   18.9300 C   0  0  0  0  0  0  0  0  0  0  0  0
    9.6100   -1.2220   21.7010 C   0  0  0  0  0  0  0  0  0  0  0  0
   10.8210   -1.2480   22.3540 C   0  0  0  0  0  0  0  0  0  0  0  0
   10.9540   -1.8790   23.5730 C   0  0  0  0  0  0  0  0  0  0  0  0
    9.8620   -2.5130   24.1170 C   0  0  0  0  0  0  0  0  0  0  0  0
    8.6290   -2.4920   23.4640 C   0  0  0  0  0  0  0  0  0  0  0  0
    8.4720   -1.8260   22.2270 C   0  0  0  0  0  0  0  0  0  0  0  0
    4.5990   -4.5380   23.9990 N   0  0  0  0  0  0  0  0  0  0  0  0
    5.5910   -4.9670   23.1270 C   0  0  0  0  0  0  0  0  0  0  0  0
    6.3730   -3.9550   22.3510 C   0  0  0  0  0  0  0  0  0  0  0  0
    6.1320   -2.4630   22.4370 C   0  0  0  0  0  0  0  0  0  0  0  0
    5.0500   -1.9250   23.3910 C   0  0  0  0  0  0  0  0  0  0  0  0
    4.3460   -3.1040   24.1270 C   0  0  0  0  0  0  0  0  0  0  0  0
  1  5  1  0
  2  6  1  0
  3  6  2  0
  5  6  1  6
  2  7  1  0
  7  8  1  0
  4  9  1  0
  8  9  1  0
  4 10  1  0
 11 12  1  0
 11 13  1  0
 11 14  1  0
  1 17  1  6
 15 17  1  0
 16 17  2  0
 19 20  2  0
 20 21  1  0
 21 22  2  0
  5 23  1  0
 22 23  1  0
 19 24  1  0
 23 24  2  0
 25 26  2  0
 11 27  1  0
 26 27  1  0
 27 28  2  0
 28 29  1  0
  1 30  1  0
 25 30  1  0
 29 30  2  0
 18 32  1  0
 31 32  2  0
 32 33  1  0
  1 34  1  0
 33 34  2  0
 34 35  1  0
 31 36  1  0
 35 36  2  0
M  END
