x1478-x0967
     RDKit          3D

 32 33  0  0  0  0  0  0  0  0999 V2000
    7.6550    4.9700   22.4100 C   0  0  0  0  0  0  0  0  0  0  0  0
    8.0060    2.5320   22.5340 N   0  0  0  0  0  0  0  0  0  0  0  0
    6.2110    3.4480   23.6710 O   0  0  0  0  0  0  0  0  0  0  0  0
    7.1970    3.5750   22.9490 C   0  0  0  0  0  0  0  0  0  0  0  0
    9.2000   -0.9290   23.0400 N   0  0  0  0  0  0  0  0  0  0  0  0
    5.6870    0.8690   17.0020 O   0  0  0  0  0  0  0  0  0  0  0  0
    7.8730    1.2950   23.0960 C   0  0  1  0  0  0  0  0  0  0  0  0
   10.3600    1.1870   22.2990 O   0  0  0  0  0  0  0  0  0  0  0  0
    6.6900    0.5260   22.5410 C   0  0  0  0  0  0  0  0  0  0  0  0
    9.1970    0.5160   22.7910 C   0  0  0  0  0  0  0  0  0  0  0  0
    9.2300   -1.8000   21.8750 C   0  0  1  0  0  0  0  0  0  0  0  0
   10.7600   -2.0430   21.6230 C   0  0  0  0  0  0  0  0  0  0  0  0
   11.6470   -1.9820   22.8910 C   0  0  0  0  0  0  0  0  0  0  0  0
   12.9100   -1.9920   24.3190 Br  0  0  0  0  0  0  0  0  0  0  0  0
    7.0440   -2.7830   21.5710 N   0  0  0  0  0  0  0  0  0  0  0  0
    7.9030   -3.7190   19.5520 C   0  0  0  0  0  0  0  0  0  0  0  0
    5.6920   -3.4280   19.5410 O   0  0  0  0  0  0  0  0  0  0  0  0
    6.5410   -5.8310   22.3860 Cl  0  0  0  0  0  0  0  0  0  0  0  0
    6.7370   -3.2410   20.2540 C   0  0  0  0  0  0  0  0  0  0  0  0
    8.3450   -2.9080   21.9750 C   0  0  0  0  0  0  0  0  0  0  0  0
    6.3750    0.6470   21.0510 C   0  0  0  0  0  0  0  0  0  0  0  0
    7.0430   -0.2260   20.2300 C   0  0  0  0  0  0  0  0  0  0  0  0
    6.8170   -0.1600   18.8830 C   0  0  0  0  0  0  0  0  0  0  0  0
    5.9220    0.7780   18.3690 C   0  0  0  0  0  0  0  0  0  0  0  0
    5.2300    1.6660   19.1870 C   0  0  0  0  0  0  0  0  0  0  0  0
    5.4770    1.5820   20.5550 C   0  0  0  0  0  0  0  0  0  0  0  0
    4.8410   -4.6020   23.9810 N   0  0  0  0  0  0  0  0  0  0  0  0
    5.8570   -4.3540   22.9320 C   0  0  0  0  0  0  0  0  0  0  0  0
    6.0550   -3.0280   22.6040 C   0  0  0  0  0  0  0  0  0  0  0  0
    5.3730   -1.9720   23.1930 C   0  0  0  0  0  0  0  0  0  0  0  0
    4.4420   -2.2720   24.1660 C   0  0  0  0  0  0  0  0  0  0  0  0
    4.2060   -3.5630   24.5270 C   0  0  0  0  0  0  0  0  0  0  0  0
  1  4  1  0
  2  4  1  0
  3  4  2  0
  2  7  1  0
  7  9  1  6
  5 10  1  0
  7 10  1  0
  8 10  2  0
  5 11  1  0
 11 12  1  1
 12 13  3  0
 13 14  1  0
 15 19  1  0
 16 19  1  0
 17 19  2  0
 11 20  1  0
 15 20  1  0
  9 21  1  0
 21 22  2  0
 22 23  1  0
  6 24  1  0
 23 24  2  0
 24 25  1  0
 21 26  1  0
 25 26  2  0
 18 28  1  0
 27 28  2  0
 15 29  1  0
 28 29  1  0
 29 30  2  0
 30 31  1  0
 27 32  1  0
 31 32  2  0
M  END
