x1478-x2097
     RDKit          3D

 11 11  0  0  0  0  0  0  0  0999 V2000
    6.5060   -2.5540   21.3150 N   0  0  0  0  0  0  0  0  0  0  0  0
    7.7540   -3.6950   19.6080 C   0  0  0  0  0  0  0  0  0  0  0  0
    5.4640   -3.3790   19.3560 O   0  0  0  0  0  0  0  0  0  0  0  0
    6.2210   -5.9140   22.3390 Cl  0  0  0  0  0  0  0  0  0  0  0  0
    6.4640   -3.1660   20.0670 C   0  0  0  0  0  0  0  0  0  0  0  0
    5.0080   -4.5880   24.0790 N   0  0  0  0  0  0  0  0  0  0  0  0
    5.6590   -4.4370   23.0080 C   0  0  0  0  0  0  0  0  0  0  0  0
    5.8280   -3.0190   22.5130 C   0  0  0  0  0  0  0  0  0  0  0  0
    5.2860   -1.7700   23.2100 C   0  0  0  0  0  0  0  0  0  0  0  0
    4.5120   -2.0370   24.5030 C   0  0  0  0  0  0  0  0  0  0  0  0
    4.3980   -3.5410   24.9070 C   0  0  0  0  0  0  0  0  0  0  0  0
  1  5  1  0
  2  5  1  0
  3  5  2  0
  4  7  1  0
  6  7  2  0
  1  8  1  0
  7  8  1  0
  8  9  2  0
  9 10  1  0
  6 11  1  0
 10 11  2  0
M  END
