x1478-x2572
     RDKit          3D

 31 33  0  0  0  0  0  0  0  0999 V2000
    4.9050    1.3450   21.7500 C   0  0  0  0  0  0  0  0  0  0  0  0
    8.8900    1.4340   21.3290 O   0  0  0  0  0  0  0  0  0  0  0  0
    7.3780   -0.3520   21.3520 N   0  0  0  0  0  0  0  0  0  0  0  0
   13.5200   -3.1720   20.7180 N   0  0  0  0  0  0  0  0  0  0  0  0
    8.3830    0.4270   21.8630 C   0  0  0  0  0  0  0  0  0  0  0  0
    8.8360   -0.1110   23.2050 C   0  0  0  0  0  0  0  0  0  0  0  0
   12.9700   -2.1750   21.4500 C   0  0  0  0  0  0  0  0  0  0  0  0
    6.5290   -2.5370   21.2630 N   0  0  0  0  0  0  0  0  0  0  0  0
    7.6340   -3.6450   19.5160 C   0  0  0  0  0  0  0  0  0  0  0  0
    5.3330   -3.5730   19.4540 O   0  0  0  0  0  0  0  0  0  0  0  0
    6.2250   -5.8120   22.2210 Cl  0  0  0  0  0  0  0  0  0  0  0  0
    6.3370   -3.2210   20.0860 C   0  0  0  0  0  0  0  0  0  0  0  0
    7.7400   -1.7770   21.3980 C   0  0  0  0  0  0  0  0  0  0  0  0
    6.3470    0.4310   17.6990 N   0  0  0  0  0  0  0  0  0  0  0  0
    7.0000   -0.0660   18.8050 C   0  0  0  0  0  0  0  0  0  0  0  0
    6.5820    0.2030   20.2540 C   0  0  0  0  0  0  0  0  0  0  0  0
    5.4460    1.0000   20.3660 C   0  0  0  0  0  0  0  0  0  0  0  0
    4.7910    1.4950   19.2450 C   0  0  0  0  0  0  0  0  0  0  0  0
    5.1770    1.2630   17.9430 C   0  0  0  0  0  0  0  0  0  0  0  0
   10.9020    0.9000   23.7410 C   0  0  0  0  0  0  0  0  0  0  0  0
   12.2520    0.8830   23.6140 C   0  0  0  0  0  0  0  0  0  0  0  0
   12.9570   -0.0770   22.8970 C   0  0  0  0  0  0  0  0  0  0  0  0
   12.2800   -1.1130   22.2440 C   0  0  0  0  0  0  0  0  0  0  0  0
   10.8850   -1.1140   22.3580 C   0  0  0  0  0  0  0  0  0  0  0  0
   10.1590   -0.0780   23.1280 C   0  0  0  0  0  0  0  0  0  0  0  0
    4.9490   -4.4820   24.1060 N   0  0  0  0  0  0  0  0  0  0  0  0
    5.7030   -4.3080   22.8680 C   0  0  0  0  0  0  0  0  0  0  0  0
    5.8610   -2.9590   22.4320 C   0  0  0  0  0  0  0  0  0  0  0  0
    5.3540   -1.8620   23.1210 C   0  0  0  0  0  0  0  0  0  0  0  0
    4.6530   -2.0540   24.2810 C   0  0  0  0  0  0  0  0  0  0  0  0
    4.4050   -3.2890   24.8320 C   0  0  0  0  0  0  0  0  0  0  0  0
  2  5  2  0
  3  5  1  0
  5  6  1  0
  4  7  3  0
  8 12  1  0
  9 12  1  0
 10 12  2  0
  3 13  1  0
  8 13  1  0
 14 15  2  0
  3 16  1  0
 15 16  1  0
  1 17  1  0
 16 17  2  0
 17 18  1  0
 14 19  1  0
 18 19  2  0
 20 21  2  0
 21 22  1  0
  7 23  1  0
 22 23  2  0
 23 24  1  0
  6 25  1  0
 20 25  1  0
 24 25  2  0
 11 27  1  0
 26 27  2  0
  8 28  1  0
 27 28  1  0
 28 29  2  0
 29 30  1  0
 26 31  1  0
 30 31  2  0
M  END
