x1478-x3115
     RDKit          3D

 35 37  0  0  0  0  0  0  0  0999 V2000
    7.0400   -2.0680   21.6090 C   0  0  1  0  0  0  0  0  0  0  0  0
    7.4030    1.3680   22.9710 N   0  0  0  0  0  0  0  0  0  0  0  0
    8.7600    0.5830   21.3310 O   0  0  0  0  0  0  0  0  0  0  0  0
    8.4890    4.7460   23.0430 O   0  0  0  0  0  0  0  0  0  0  0  0
    6.5910   -0.5160   21.4860 C   0  0  1  0  0  0  0  0  0  0  0  0
    7.6920    0.5090   21.9320 C   0  0  0  0  0  0  0  0  0  0  0  0
    8.5270    2.3260   23.1480 C   0  0  0  0  0  0  0  0  0  0  0  0
    8.0050    3.6980   22.5860 C   0  0  0  0  0  0  0  0  0  0  0  0
    8.1330    5.9160   22.2790 C   0  0  0  0  0  0  0  0  0  0  0  0
   12.3800   -1.8800   24.0860 C   0  0  0  0  0  0  0  0  0  0  0  0
   13.4050   -1.8830   22.9620 C   0  0  0  0  0  0  0  0  0  0  0  0
   12.7620   -3.0180   25.0190 C   0  0  0  0  0  0  0  0  0  0  0  0
   12.4740   -0.5800   24.8850 C   0  0  0  0  0  0  0  0  0  0  0  0
    8.0350   -4.0820   20.2660 C   0  0  0  0  0  0  0  0  0  0  0  0
    6.0520   -3.1670   19.4010 O   0  0  0  0  0  0  0  0  0  0  0  0
    6.9440   -3.0650   20.3340 C   0  0  0  0  0  0  0  0  0  0  0  0
    6.5950   -5.3750   22.3640 Cl  0  0  0  0  0  0  0  0  0  0  0  0
    6.3670    0.4880   17.7580 N   0  0  0  0  0  0  0  0  0  0  0  0
    5.2050    1.3360   17.7570 C   0  0  0  0  0  0  0  0  0  0  0  0
    4.5580    1.5120   18.9450 C   0  0  0  0  0  0  0  0  0  0  0  0
    4.9790    0.9250   20.1260 C   0  0  0  0  0  0  0  0  0  0  0  0
    6.1040    0.1020   20.1940 C   0  0  0  0  0  0  0  0  0  0  0  0
    6.7680   -0.0950   18.9820 C   0  0  0  0  0  0  0  0  0  0  0  0
    9.5310   -1.4350   21.6480 C   0  0  0  0  0  0  0  0  0  0  0  0
   10.7390   -1.3870   22.2030 C   0  0  0  0  0  0  0  0  0  0  0  0
   11.0300   -1.9370   23.4270 C   0  0  0  0  0  0  0  0  0  0  0  0
    9.9660   -2.5690   24.0540 C   0  0  0  0  0  0  0  0  0  0  0  0
    8.6860   -2.6460   23.5190 C   0  0  0  0  0  0  0  0  0  0  0  0
    8.4580   -2.0580   22.2780 C   0  0  0  0  0  0  0  0  0  0  0  0
    4.9300   -4.4610   23.8300 N   0  0  0  0  0  0  0  0  0  0  0  0
    5.8060   -3.9730   22.9580 C   0  0  0  0  0  0  0  0  0  0  0  0
    6.0680   -2.5990   22.5770 C   0  0  0  0  0  0  0  0  0  0  0  0
    5.1830   -1.5830   23.3350 C   0  0  0  0  0  0  0  0  0  0  0  0
    4.1450   -2.1090   24.3740 C   0  0  0  0  0  0  0  0  0  0  0  0
    4.0680   -3.6050   24.5730 C   0  0  0  0  0  0  0  0  0  0  0  0
  1  5  1  0
  2  6  1  0
  3  6  2  0
  5  6  1  6
  2  7  1  0
  4  8  1  0
  7  8  1  0
  4  9  1  0
 10 11  1  0
 10 12  1  0
 10 13  1  0
  1 16  1  6
 14 16  1  0
 15 16  2  0
 18 19  2  0
 19 20  1  0
 20 21  2  0
  5 22  1  0
 21 22  1  0
 18 23  1  0
 22 23  2  0
 24 25  2  0
 10 26  1  0
 25 26  1  0
 26 27  2  0
 27 28  1  0
  1 29  1  0
 24 29  1  0
 28 29  2  0
 17 31  1  0
 30 31  2  0
  1 32  1  0
 31 32  1  0
 32 33  2  0
 33 34  1  0
 30 35  1  0
 34 35  2  0
M  END
