x1478-x2581
     RDKit          3D

 35 38  0  0  0  0  0  0  0  0999 V2000
    9.5750   -2.4210   23.9430 C   0  0  0  0  0  0  0  0  0  0  0  0
   10.4770   -1.4460   23.4290 O   0  0  0  0  0  0  0  0  0  0  0  0
   10.6610    3.3340   22.4560 N   0  0  0  0  0  0  0  0  0  0  0  0
   11.4870    4.4380   24.4410 O   0  0  0  0  0  0  0  0  0  0  0  0
   11.3100    4.3750   23.0640 C   0  0  0  0  0  0  0  0  0  0  0  0
   11.8640    5.5960   22.4090 C   0  0  0  0  0  0  0  0  0  0  0  0
    6.7520   -2.6940   21.4880 N   0  0  0  0  0  0  0  0  0  0  0  0
    7.8130   -4.3400   20.2600 C   0  0  0  0  0  0  0  0  0  0  0  0
    5.7450   -3.4560   19.4700 O   0  0  0  0  0  0  0  0  0  0  0  0
    6.3000   -5.7940   22.3560 Cl  0  0  0  0  0  0  0  0  0  0  0  0
    6.6440   -3.4510   20.3420 C   0  0  0  0  0  0  0  0  0  0  0  0
    8.5360   -3.0850   23.0260 C   0  0  0  0  0  0  0  0  0  0  0  0
    8.0860   -2.1780   21.8650 C   0  0  0  0  0  0  0  0  0  0  0  0
    8.9830    1.9860   21.3530 N   0  0  0  0  0  0  0  0  0  0  0  0
   10.1230    2.0520   22.3110 C   0  0  0  0  0  0  0  0  0  0  0  0
   10.6880    0.8290   23.0830 C   0  0  0  0  0  0  0  0  0  0  0  0
   10.0020   -0.3510   22.7730 C   0  0  0  0  0  0  0  0  0  0  0  0
    8.9400   -0.3710   21.8730 C   0  0  0  0  0  0  0  0  0  0  0  0
    8.4810    0.7570   21.2220 C   0  0  0  0  0  0  0  0  0  0  0  0
    9.8490    6.8990   22.6390 C   0  0  0  0  0  0  0  0  0  0  0  0
    9.1440    7.8560   23.3270 C   0  0  0  0  0  0  0  0  0  0  0  0
    9.6810    8.4950   24.4590 C   0  0  0  0  0  0  0  0  0  0  0  0
   10.9700    8.1710   24.9490 C   0  0  0  0  0  0  0  0  0  0  0  0
   11.6850    7.1890   24.2500 C   0  0  0  0  0  0  0  0  0  0  0  0
   11.1280    6.5240   23.0470 C   0  0  0  0  0  0  0  0  0  0  0  0
    8.8990    9.4780   25.0850 C   0  0  0  0  0  0  0  0  0  0  0  0
    9.3910   10.1500   26.2070 C   0  0  0  0  0  0  0  0  0  0  0  0
   10.6730    9.8060   26.6760 C   0  0  0  0  0  0  0  0  0  0  0  0
   11.4580    8.8410   26.0770 C   0  0  0  0  0  0  0  0  0  0  0  0
    4.8520   -4.5930   24.0080 N   0  0  0  0  0  0  0  0  0  0  0  0
    5.6620   -4.3310   22.9920 C   0  0  0  0  0  0  0  0  0  0  0  0
    5.8740   -2.9810   22.6030 C   0  0  0  0  0  0  0  0  0  0  0  0
    5.3150   -1.8220   23.1890 C   0  0  0  0  0  0  0  0  0  0  0  0
    4.3640   -2.0590   24.3820 C   0  0  0  0  0  0  0  0  0  0  0  0
    4.1770   -3.5470   24.7410 C   0  0  0  0  0  0  0  0  0  0  0  0
  1  2  1  0
  3  5  1  0
  4  5  2  0
  5  6  1  0
  7 11  1  0
  8 11  1  0
  9 11  2  0
  1 12  1  0
  7 13  1  0
 12 13  1  0
  3 15  1  0
 14 15  2  0
 15 16  1  0
  2 17  1  0
 16 17  2  0
 17 18  1  0
 14 19  1  0
 18 19  2  0
 20 21  2  0
 21 22  1  0
 22 23  2  0
 23 24  1  0
  6 25  1  0
 20 25  1  0
 24 25  2  0
 22 26  1  0
 26 27  2  0
 27 28  1  0
 23 29  1  0
 28 29  2  0
 10 31  1  0
 30 31  2  0
  7 32  1  0
 31 32  1  0
 32 33  2  0
 33 34  1  0
 30 35  1  0
 34 35  2  0
M  END
