x1478-x3080
     RDKit          3D

 38 41  0  0  0  0  0  0  0  0999 V2000
    9.9480   -0.4240   23.3210 N   0  0  0  0  0  0  0  0  0  0  0  0
   10.7500    0.6900   23.4870 C   0  0  0  0  0  0  0  0  0  0  0  0
    8.6770    0.9300   21.2130 O   0  0  0  0  0  0  0  0  0  0  0  0
    9.7130   -1.0520   22.1190 C   0  0  0  0  0  0  0  0  0  0  0  0
    7.8470   -0.9590   20.7700 N   0  0  0  0  0  0  0  0  0  0  0  0
    7.5560   -0.9670   23.8970 O   0  0  0  0  0  0  0  0  0  0  0  0
    8.6510   -0.3060   21.3040 C   0  0  0  0  0  0  0  0  0  0  0  0
    8.9850    0.2710   25.5680 O   0  0  0  0  0  0  0  0  0  0  0  0
    5.8200    0.5540   21.9490 C   0  0  0  0  0  0  0  0  0  0  0  0
    8.8220   -0.7280   24.5360 S   0  0  0  0  0  0  0  0  0  0  0  0
    5.8200   -2.4720   21.1850 N   0  0  0  0  0  0  0  0  0  0  0  0
    7.3430   -3.1210   19.4520 C   0  0  0  0  0  0  0  0  0  0  0  0
    5.0420   -3.5430   19.3040 O   0  0  0  0  0  0  0  0  0  0  0  0
    5.9220   -5.8330   21.8230 Cl  0  0  0  0  0  0  0  0  0  0  0  0
    5.9590   -3.0470   19.9400 C   0  0  0  0  0  0  0  0  0  0  0  0
    8.0740   -2.4380   20.6330 C   0  0  0  0  0  0  0  0  0  0  0  0
    6.3150    0.3700   17.7230 N   0  0  0  0  0  0  0  0  0  0  0  0
    5.2410    1.1860   18.2660 C   0  0  0  0  0  0  0  0  0  0  0  0
    5.1510    1.1850   19.6610 C   0  0  0  0  0  0  0  0  0  0  0  0
    6.0260    0.4610   20.4710 C   0  0  0  0  0  0  0  0  0  0  0  0
    7.0330   -0.2970   19.8820 C   0  0  0  0  0  0  0  0  0  0  0  0
    7.1580   -0.3330   18.5270 C   0  0  0  0  0  0  0  0  0  0  0  0
   11.5950   -1.3950   24.7880 N   0  0  0  0  0  0  0  0  0  0  0  0
   10.8000   -2.3790   25.2500 C   0  0  0  0  0  0  0  0  0  0  0  0
   11.2830   -3.5850   25.8180 C   0  0  0  0  0  0  0  0  0  0  0  0
   12.7000   -3.7480   25.9260 C   0  0  0  0  0  0  0  0  0  0  0  0
   13.5640   -2.7660   25.4690 C   0  0  0  0  0  0  0  0  0  0  0  0
   13.0080   -1.6660   24.9280 C   0  0  0  0  0  0  0  0  0  0  0  0
    8.5430   -3.2140   25.6420 C   0  0  0  0  0  0  0  0  0  0  0  0
    9.0150   -4.3970   26.1830 C   0  0  0  0  0  0  0  0  0  0  0  0
   10.3740   -4.5760   26.2710 C   0  0  0  0  0  0  0  0  0  0  0  0
    9.4330   -2.2360   25.1940 C   0  0  0  0  0  0  0  0  0  0  0  0
    4.9550   -4.6840   24.1280 N   0  0  0  0  0  0  0  0  0  0  0  0
    5.4510   -4.4610   22.7430 C   0  0  0  0  0  0  0  0  0  0  0  0
    5.4310   -3.0440   22.4290 C   0  0  0  0  0  0  0  0  0  0  0  0
    5.0100   -2.1140   23.3460 C   0  0  0  0  0  0  0  0  0  0  0  0
    4.5820   -2.4080   24.5860 C   0  0  0  0  0  0  0  0  0  0  0  0
    4.5580   -3.7100   24.9650 C   0  0  0  0  0  0  0  0  0  0  0  0
  1  2  1  0
  1  4  1  0
  3  7  2  0
  4  7  1  0
  5  7  1  0
 10  1  1  0
  6 10  2  0
  8 10  2  0
 11 15  1  0
 12 15  1  0
 13 15  2  0
  5 16  1  0
 12 16  1  0
 17 18  2  0
 18 19  1  0
  9 20  1  0
 19 20  2  0
  5 21  1  0
 20 21  1  0
 17 22  1  0
 21 22  2  0
 23 24  2  0
 24 25  1  0
 25 26  2  0
 26 27  1  0
 23 28  1  0
 27 28  2  0
 29 30  1  0
 25 31  1  0
 30 31  2  0
 10 32  1  0
 24 32  1  0
 29 32  2  0
 14 34  1  0
 33 34  2  0
 11 35  1  0
 34 35  1  0
 35 36  2  0
 36 37  1  0
 33 38  1  0
 37 38  2  0
M  END
