x1478-x0107
     RDKit          3D

 23 24  0  0  0  0  0  0  0  0999 V2000
    6.6790   -2.6210   21.3180 N   0  0  0  0  0  0  0  0  0  0  0  0
    7.7370   -3.6670   19.4840 C   0  0  0  0  0  0  0  0  0  0  0  0
    5.4250   -3.5120   19.4760 O   0  0  0  0  0  0  0  0  0  0  0  0
    6.3080   -5.8270   22.2920 Cl  0  0  0  0  0  0  0  0  0  0  0  0
    6.4810   -3.2330   20.0810 C   0  0  0  0  0  0  0  0  0  0  0  0
   10.0330   -0.4290   22.5220 C   0  0  0  0  0  0  0  0  0  0  0  0
    9.0200    0.3560   21.6910 C   0  0  0  0  0  0  0  0  0  0  0  0
    9.2440    1.5180   21.3490 O   0  0  0  0  0  0  0  0  0  0  0  0
    7.8660   -0.4900   21.3950 N   0  0  0  0  0  0  0  0  0  0  0  0
    5.6240    1.0660   22.0700 C   0  0  0  0  0  0  0  0  0  0  0  0
    7.9190   -1.9230   21.6260 C   0  0  0  0  0  0  0  0  0  0  0  0
    4.8410   -4.6440   24.0950 N   0  0  0  0  0  0  0  0  0  0  0  0
    5.6630   -4.3770   22.9470 C   0  0  0  0  0  0  0  0  0  0  0  0
    5.8940   -2.9210   22.4270 C   0  0  0  0  0  0  0  0  0  0  0  0
    5.1630   -1.8650   23.2850 C   0  0  0  0  0  0  0  0  0  0  0  0
    4.4210   -2.3420   24.3550 C   0  0  0  0  0  0  0  0  0  0  0  0
    4.2730   -3.6620   24.7310 C   0  0  0  0  0  0  0  0  0  0  0  0
    6.9850   -0.0240   20.2820 C   0  0  0  0  0  0  0  0  0  0  0  0
    5.9020    0.7350   20.6370 C   0  0  0  0  0  0  0  0  0  0  0  0
    5.0620    1.1970   19.6240 C   0  0  0  0  0  0  0  0  0  0  0  0
    5.1910    0.9740   18.2410 C   0  0  0  0  0  0  0  0  0  0  0  0
    6.2170    0.2370   17.7760 N   0  0  0  0  0  0  0  0  0  0  0  0
    7.1390   -0.2860   18.7850 C   0  0  0  0  0  0  0  0  0  0  0  0
  1  5  1  0
  2  5  1  0
  3  5  2  0
  6  7  1  0
  7  8  2  0
  7  9  1  0
  1 11  1  0
  9 11  1  0
  4 13  1  0
 12 13  2  0
  1 14  1  0
 13 14  1  0
 14 15  2  0
 15 16  1  0
 12 17  1  0
 16 17  2  0
  9 18  1  0
 10 19  1  0
 18 19  2  0
 19 20  1  0
 20 21  2  0
 21 22  1  0
 18 23  1  0
 22 23  2  0
M  END
