x1478-x2649
     RDKit          3D

 31 33  0  0  0  0  0  0  0  0999 V2000
    7.1910   -0.4040   21.1680 N   0  0  0  0  0  0  0  0  0  0  0  0
    7.8650   -0.2200   24.1480 C   0  0  0  0  0  0  0  0  0  0  0  0
    8.7270    1.3170   21.3740 O   0  0  0  0  0  0  0  0  0  0  0  0
   13.2430   -2.3450   21.1100 Cl  0  0  0  0  0  0  0  0  0  0  0  0
    8.6950   -0.6100   22.8950 C   0  0  1  0  0  0  0  0  0  0  0  0
    8.2010    0.2380   21.7290 C   0  0  0  0  0  0  0  0  0  0  0  0
    4.8930    1.2410   21.7360 C   0  0  0  0  0  0  0  0  0  0  0  0
    6.2910   -2.6430   21.1490 N   0  0  0  0  0  0  0  0  0  0  0  0
    7.5000   -3.6900   19.4320 C   0  0  0  0  0  0  0  0  0  0  0  0
    5.1560   -3.7170   19.4590 O   0  0  0  0  0  0  0  0  0  0  0  0
    6.1400   -5.8960   22.2700 Cl  0  0  0  0  0  0  0  0  0  0  0  0
    6.1840   -3.3420   20.0050 C   0  0  0  0  0  0  0  0  0  0  0  0
    7.4620   -1.8200   21.1480 C   0  0  0  0  0  0  0  0  0  0  0  0
    6.4100    0.5640   17.6780 N   0  0  0  0  0  0  0  0  0  0  0  0
    5.2380    1.4070   17.9540 C   0  0  0  0  0  0  0  0  0  0  0  0
    4.6360    1.6950   19.3340 C   0  0  0  0  0  0  0  0  0  0  0  0
    5.3780    1.0310   20.3350 C   0  0  0  0  0  0  0  0  0  0  0  0
    6.5010    0.2240   20.0720 C   0  0  0  0  0  0  0  0  0  0  0  0
    6.9470    0.0320   18.7790 C   0  0  0  0  0  0  0  0  0  0  0  0
   10.8010    0.2460   23.9100 C   0  0  0  0  0  0  0  0  0  0  0  0
   12.1640    0.2730   23.9610 C   0  0  0  0  0  0  0  0  0  0  0  0
   12.8930   -0.5240   23.0990 C   0  0  0  0  0  0  0  0  0  0  0  0
   12.3480   -1.3800   22.1560 C   0  0  0  0  0  0  0  0  0  0  0  0
   10.9770   -1.4050   22.1030 C   0  0  0  0  0  0  0  0  0  0  0  0
   10.1750   -0.5710   22.9950 C   0  0  0  0  0  0  0  0  0  0  0  0
    5.0400   -4.4650   24.1340 N   0  0  0  0  0  0  0  0  0  0  0  0
    5.6490   -4.3670   22.8890 C   0  0  0  0  0  0  0  0  0  0  0  0
    5.7410   -3.0330   22.3810 C   0  0  0  0  0  0  0  0  0  0  0  0
    5.2520   -1.9620   23.1280 C   0  0  0  0  0  0  0  0  0  0  0  0
    4.6690   -2.1170   24.3440 C   0  0  0  0  0  0  0  0  0  0  0  0
    4.5810   -3.3990   24.8080 C   0  0  0  0  0  0  0  0  0  0  0  0
  5  2  1  1
  1  6  1  0
  3  6  2  0
  5  6  1  0
  8 12  1  0
  9 12  1  0
 10 12  2  0
  1 13  1  0
  8 13  1  0
 14 15  2  0
 15 16  1  0
  7 17  1  0
 16 17  2  0
  1 18  1  0
 17 18  1  0
 14 19  1  0
 18 19  2  0
 20 21  2  0
 21 22  1  0
  4 23  1  0
 22 23  2  0
 23 24  1  0
  5 25  1  0
 20 25  1  0
 24 25  2  0
 11 27  1  0
 26 27  2  0
  8 28  1  0
 27 28  1  0
 28 29  2  0
 29 30  1  0
 26 31  1  0
 30 31  2  0
M  END
