x1478-x3298
     RDKit          3D

 40 44  0  0  0  0  0  0  0  0999 V2000
    7.6300    1.8090   22.5280 N   0  0  0  0  0  0  0  0  0  0  0  0
    7.6660   -0.2400   21.1520 C   0  0  2  0  0  0  0  0  0  0  0  0
    6.7910   -0.7470   22.1600 C   0  0  0  0  0  0  0  0  0  0  0  0
    8.1980    1.1580   21.4800 C   0  0  0  0  0  0  0  0  0  0  0  0
    9.2260    1.3350   24.6660 N   0  0  0  0  0  0  0  0  0  0  0  0
    9.1620    1.5970   20.8590 O   0  0  0  0  0  0  0  0  0  0  0  0
   11.2650    1.4500   26.0590 O   0  0  0  0  0  0  0  0  0  0  0  0
    9.9390   -0.6390   25.9700 O   0  0  0  0  0  0  0  0  0  0  0  0
   13.6240   -1.2860   20.7490 F   0  0  0  0  0  0  0  0  0  0  0  0
   10.4750    0.5160   25.3160 S   0  0  0  0  0  0  0  0  0  0  0  0
    7.4240   -3.1550   21.3530 N   0  0  0  0  0  0  0  0  0  0  0  0
    8.4700   -2.5980   19.3130 C   0  0  0  0  0  0  0  0  0  0  0  0
    6.2830   -3.5740   19.4250 O   0  0  0  0  0  0  0  0  0  0  0  0
    6.3710   -5.9070   21.7480 Cl  0  0  0  0  0  0  0  0  0  0  0  0
    7.2690   -3.1700   20.0180 C   0  0  0  0  0  0  0  0  0  0  0  0
    7.1070   -1.9510   21.7570 C   0  0  0  0  0  0  0  0  0  0  0  0
    6.7330    0.4550   17.5380 N   0  0  0  0  0  0  0  0  0  0  0  0
    7.3660    0.0280   18.6380 C   0  0  0  0  0  0  0  0  0  0  0  0
    6.8450    0.1170   19.9210 C   0  0  0  0  0  0  0  0  0  0  0  0
    5.5690    0.6550   20.0430 C   0  0  0  0  0  0  0  0  0  0  0  0
    4.8890    1.0980   18.9230 C   0  0  0  0  0  0  0  0  0  0  0  0
    5.5120    0.9830   17.6950 C   0  0  0  0  0  0  0  0  0  0  0  0
    8.0340    4.2360   22.7010 C   0  0  0  0  0  0  0  0  0  0  0  0
    8.7980    5.2620   23.2360 C   0  0  0  0  0  0  0  0  0  0  0  0
    9.7000    5.0070   24.2520 C   0  0  0  0  0  0  0  0  0  0  0  0
    9.8310    3.7250   24.7680 C   0  0  0  0  0  0  0  0  0  0  0  0
    9.0480    2.6870   24.2620 C   0  0  0  0  0  0  0  0  0  0  0  0
    8.1760    2.9370   23.1920 C   0  0  0  0  0  0  0  0  0  0  0  0
   12.6030    0.6330   23.6200 C   0  0  0  0  0  0  0  0  0  0  0  0
   13.3470    0.2070   22.5340 C   0  0  0  0  0  0  0  0  0  0  0  0
   12.8850   -0.8570   21.8020 C   0  0  0  0  0  0  0  0  0  0  0  0
   11.7120   -1.5070   22.0830 C   0  0  0  0  0  0  0  0  0  0  0  0
   10.9670   -1.0810   23.1690 C   0  0  0  0  0  0  0  0  0  0  0  0
   11.4240   -0.0230   23.9380 C   0  0  0  0  0  0  0  0  0  0  0  0
    4.9410   -4.6800   23.5360 N   0  0  0  0  0  0  0  0  0  0  0  0
    5.8670   -4.5000   22.6190 C   0  0  0  0  0  0  0  0  0  0  0  0
    6.4280   -3.2600   22.3460 C   0  0  0  0  0  0  0  0  0  0  0  0
    5.9980   -2.1590   23.0830 C   0  0  0  0  0  0  0  0  0  0  0  0
    5.0290   -2.3460   24.0450 C   0  0  0  0  0  0  0  0  0  0  0  0
    4.5330   -3.6170   24.2350 C   0  0  0  0  0  0  0  0  0  0  0  0
  2  3  1  0
  1  4  1  0
  2  4  1  1
  4  6  2  0
 10  5  1  0
  7 10  2  0
  8 10  2  0
 11 15  1  0
 12 15  1  0
 13 15  2  0
  3 16  2  0
 11 16  1  0
 17 18  2  0
  2 19  1  0
 18 19  1  0
 19 20  2  0
 20 21  1  0
 17 22  1  0
 21 22  2  0
 23 24  2  0
 24 25  1  0
 25 26  2  0
  5 27  1  0
 26 27  1  0
  1 28  1  0
 23 28  1  0
 27 28  2  0
 29 30  2  0
  9 31  1  0
 30 31  1  0
 31 32  2  0
 32 33  1  0
 10 34  1  0
 29 34  1  0
 33 34  2  0
 14 36  1  0
 35 36  1  0
 11 37  1  0
 36 37  2  0
  3 38  1  0
 37 38  1  0
 38 39  2  0
 35 40  2  0
 39 40  1  0
M  END
