x1478-x0354
     RDKit          3D

 32 35  0  0  0  0  0  0  0  0999 V2000
   13.2590   -1.0980   22.5540 C   0  0  0  0  0  0  0  0  0  0  0  0
    8.0000   -2.3600   25.5960 N   0  0  0  0  0  0  0  0  0  0  0  0
    7.5010   -0.5260   27.6130 O   0  0  0  0  0  0  0  0  0  0  0  0
    8.8320   -1.4760   25.8030 C   0  0  0  0  0  0  0  0  0  0  0  0
    8.4230   -0.2290   26.5750 C   0  0  0  0  0  0  0  0  0  0  0  0
    5.6370    3.7260   30.8690 C   0  0  0  0  0  0  0  0  0  0  0  0
    7.4240   -3.1550   21.3530 N   0  0  0  0  0  0  0  0  0  0  0  0
    8.4700   -2.5980   19.3130 C   0  0  0  0  0  0  0  0  0  0  0  0
    6.2830   -3.5740   19.4250 O   0  0  0  0  0  0  0  0  0  0  0  0
    6.3710   -5.9070   21.7480 Cl  0  0  0  0  0  0  0  0  0  0  0  0
    7.2690   -3.1700   20.0180 C   0  0  0  0  0  0  0  0  0  0  0  0
    7.8560   -2.5590   24.5350 C   0  0  0  0  0  0  0  0  0  0  0  0
    7.7120   -2.7570   23.4740 C   0  0  0  0  0  0  0  0  0  0  0  0
    7.5680   -2.9560   22.4140 C   0  0  0  0  0  0  0  0  0  0  0  0
   12.4660   -1.3630   23.7540 N   0  0  0  0  0  0  0  0  0  0  0  0
   11.4820   -2.4220   23.5230 C   0  0  0  0  0  0  0  0  0  0  0  0
   10.7120   -2.7480   24.7850 C   0  0  0  0  0  0  0  0  0  0  0  0
   10.1100   -1.5480   25.3710 N   0  0  0  0  0  0  0  0  0  0  0  0
   11.0560   -0.4360   25.5000 C   0  0  0  0  0  0  0  0  0  0  0  0
   11.7610   -0.1630   24.1930 C   0  0  0  0  0  0  0  0  0  0  0  0
    7.8230    1.6860   28.5340 C   0  0  0  0  0  0  0  0  0  0  0  0
    7.3500    2.7100   29.3380 C   0  0  0  0  0  0  0  0  0  0  0  0
    6.1400    2.6110   29.9980 C   0  0  0  0  0  0  0  0  0  0  0  0
    5.4090    1.4490   29.8400 C   0  0  0  0  0  0  0  0  0  0  0  0
    5.8610    0.4050   29.0470 C   0  0  0  0  0  0  0  0  0  0  0  0
    7.0750    0.5230   28.3870 C   0  0  0  0  0  0  0  0  0  0  0  0
    4.9410   -4.6800   23.5360 N   0  0  0  0  0  0  0  0  0  0  0  0
    5.8670   -4.5000   22.6190 C   0  0  0  0  0  0  0  0  0  0  0  0
    6.4280   -3.2600   22.3460 C   0  0  0  0  0  0  0  0  0  0  0  0
    5.9980   -2.1590   23.0830 C   0  0  0  0  0  0  0  0  0  0  0  0
    5.0290   -2.3460   24.0450 C   0  0  0  0  0  0  0  0  0  0  0  0
    4.5330   -3.6170   24.2350 C   0  0  0  0  0  0  0  0  0  0  0  0
  2  4  2  3
  3  5  1  0
  4  5  1  0
  7 11  1  0
  8 11  1  0
  9 11  2  0
  2 12  1  0
 12 13  1  0
  7 14  1  0
 13 14  2  0
  1 15  1  0
 15 16  1  0
 16 17  1  0
  4 18  1  0
 17 18  1  0
 18 19  1  0
 15 20  1  0
 19 20  1  0
 21 22  2  0
  6 23  1  0
 22 23  1  0
 23 24  2  0
 24 25  1  0
  3 26  1  0
 21 26  1  0
 25 26  2  0
 10 28  1  0
 27 28  1  0
  7 29  1  0
 28 29  2  0
 13 30  1  0
 29 30  1  0
 30 31  2  0
 27 32  2  0
 31 32  1  0
M  END
