x1478-x3124
     RDKit          3D

 32 34  0  0  0  0  0  0  0  0999 V2000
    6.8520   -2.0420   21.5740 C   0  0  1  0  0  0  0  0  0  0  0  0
    7.4110    1.1270   23.0810 N   0  0  0  0  0  0  0  0  0  0  0  0
    8.6940    0.5460   21.3050 O   0  0  0  0  0  0  0  0  0  0  0  0
    6.5030   -0.4860   21.4050 C   0  0  1  0  0  0  0  0  0  0  0  0
    7.6430    0.4250   21.9350 C   0  0  0  0  0  0  0  0  0  0  0  0
    8.1700    2.3770   22.9630 C   0  0  0  0  0  0  0  0  0  0  0  0
   12.1680   -1.9950   24.3200 C   0  0  0  0  0  0  0  0  0  0  0  0
   12.4020   -0.6840   25.0470 C   0  0  0  0  0  0  0  0  0  0  0  0
   13.3640   -2.2570   23.3940 C   0  0  0  0  0  0  0  0  0  0  0  0
   12.0020   -3.1630   25.2890 C   0  0  0  0  0  0  0  0  0  0  0  0
    8.0130   -3.3620   19.6250 C   0  0  0  0  0  0  0  0  0  0  0  0
    5.7210   -3.4080   19.5930 O   0  0  0  0  0  0  0  0  0  0  0  0
    6.7430   -2.9370   20.2350 C   0  0  0  0  0  0  0  0  0  0  0  0
    6.4270   -5.4620   22.0660 Cl  0  0  0  0  0  0  0  0  0  0  0  0
    6.3620    0.5770   17.6640 N   0  0  0  0  0  0  0  0  0  0  0  0
    5.1810    1.3920   17.7820 C   0  0  0  0  0  0  0  0  0  0  0  0
    4.4870    1.5670   18.9570 C   0  0  0  0  0  0  0  0  0  0  0  0
    4.9210    0.9470   20.1150 C   0  0  0  0  0  0  0  0  0  0  0  0
    6.0670    0.1380   20.1050 C   0  0  0  0  0  0  0  0  0  0  0  0
    6.7480   -0.0310   18.9060 C   0  0  0  0  0  0  0  0  0  0  0  0
    9.3290   -1.5500   21.5680 C   0  0  0  0  0  0  0  0  0  0  0  0
   10.5860   -1.5260   22.1640 C   0  0  0  0  0  0  0  0  0  0  0  0
   10.9100   -1.9450   23.5390 C   0  0  0  0  0  0  0  0  0  0  0  0
    9.7860   -2.3590   24.1520 C   0  0  0  0  0  0  0  0  0  0  0  0
    8.5050   -2.4050   23.5850 C   0  0  0  0  0  0  0  0  0  0  0  0
    8.2350   -2.0050   22.2590 C   0  0  0  0  0  0  0  0  0  0  0  0
    4.9530   -4.6130   23.7860 N   0  0  0  0  0  0  0  0  0  0  0  0
    5.7550   -4.0920   22.8590 C   0  0  0  0  0  0  0  0  0  0  0  0
    5.9380   -2.6980   22.6550 C   0  0  0  0  0  0  0  0  0  0  0  0
    5.2530   -1.7880   23.4730 C   0  0  0  0  0  0  0  0  0  0  0  0
    4.3620   -2.1510   24.5140 C   0  0  0  0  0  0  0  0  0  0  0  0
    4.2400   -3.6750   24.6310 C   0  0  0  0  0  0  0  0  0  0  0  0
  1  4  1  0
  2  5  1  0
  3  5  2  0
  4  5  1  6
  2  6  1  0
  7  8  1  0
  7  9  1  0
  7 10  1  0
  1 13  1  6
 11 13  1  0
 12 13  2  0
 15 16  2  0
 16 17  1  0
 17 18  2  0
  4 19  1  0
 18 19  1  0
 15 20  1  0
 19 20  2  0
 21 22  2  0
  7 23  1  0
 22 23  1  0
 23 24  2  0
 24 25  1  0
  1 26  1  0
 21 26  1  0
 25 26  2  0
 14 28  1  0
 27 28  2  0
  1 29  1  0
 28 29  1  0
 29 30  2  0
 30 31  1  0
 27 32  1  0
 31 32  2  0
M  END
