x1478-x2562
     RDKit          3D

 34 37  0  0  0  0  0  0  0  0999 V2000
    8.4940    0.2390   21.5070 C   0  0  0  0  0  0  0  0  0  0  0  0
    8.5840    1.6100   21.0930 O   0  0  0  0  0  0  0  0  0  0  0  0
    7.1140   -0.3800   21.4360 C   0  0  2  0  0  0  0  0  0  0  0  0
   12.1420    2.9070   23.3590 O   0  0  0  0  0  0  0  0  0  0  0  0
    9.4640   -0.7210   21.9790 N   0  0  0  0  0  0  0  0  0  0  0  0
   12.5570    6.6960   22.5740 O   0  0  0  0  0  0  0  0  0  0  0  0
    6.3180   -2.6990   21.2310 N   0  0  0  0  0  0  0  0  0  0  0  0
    7.5070   -3.6580   19.4330 C   0  0  0  0  0  0  0  0  0  0  0  0
    5.1770   -3.6750   19.4550 O   0  0  0  0  0  0  0  0  0  0  0  0
    6.2360   -5.8980   22.2970 Cl  0  0  0  0  0  0  0  0  0  0  0  0
    6.2010   -3.3280   20.0340 C   0  0  0  0  0  0  0  0  0  0  0  0
    7.4530   -1.8690   21.4430 C   0  0  0  0  0  0  0  0  0  0  0  0
    4.4130    1.5430   19.1540 N   0  0  0  0  0  0  0  0  0  0  0  0
    5.1590    1.2330   17.9210 C   0  0  0  0  0  0  0  0  0  0  0  0
    6.3050    0.5150   17.8600 N   0  0  0  0  0  0  0  0  0  0  0  0
    6.8160    0.0810   18.7800 C   0  0  0  0  0  0  0  0  0  0  0  0
    6.3980    0.1750   20.2590 C   0  0  0  0  0  0  0  0  0  0  0  0
    5.0610    0.9880   20.3860 C   0  0  0  0  0  0  0  0  0  0  0  0
   12.5110    4.5960   21.6000 N   0  0  0  0  0  0  0  0  0  0  0  0
   13.2880    5.5940   22.3070 C   0  0  2  0  0  0  0  0  0  0  0  0
   13.4860    4.8460   23.3540 C   0  0  0  0  0  0  0  0  0  0  0  0
   13.1050    3.6890   22.6820 C   0  0  1  0  0  0  0  0  0  0  0  0
   11.8440   -1.1920   22.2680 C   0  0  0  0  0  0  0  0  0  0  0  0
   13.0430   -0.6310   22.5990 C   0  0  0  0  0  0  0  0  0  0  0  0
   13.0690    0.7270   22.9400 C   0  0  0  0  0  0  0  0  0  0  0  0
   11.9920    1.6090   23.0030 C   0  0  0  0  0  0  0  0  0  0  0  0
   10.8100    1.0320   22.6720 C   0  0  0  0  0  0  0  0  0  0  0  0
   10.7200   -0.3770   22.2910 C   0  0  0  0  0  0  0  0  0  0  0  0
    4.8960   -4.6360   24.2100 N   0  0  0  0  0  0  0  0  0  0  0  0
    5.6110   -4.4270   22.9340 C   0  0  0  0  0  0  0  0  0  0  0  0
    5.6970   -3.1070   22.4120 C   0  0  0  0  0  0  0  0  0  0  0  0
    5.1140   -2.0680   23.1250 C   0  0  0  0  0  0  0  0  0  0  0  0
    4.4630   -2.2700   24.2980 C   0  0  0  0  0  0  0  0  0  0  0  0
    4.3840   -3.5470   24.7840 C   0  0  0  0  0  0  0  0  0  0  0  0
  1  2  2  0
  1  3  1  0
  1  5  1  0
  7 11  1  0
  8 11  1  0
  9 11  2  0
  3 12  1  6
  7 12  1  0
 13 14  2  0
 14 15  1  0
 15 16  2  0
  3 17  1  0
 16 17  1  0
 13 18  1  0
 17 18  2  0
 20  6  1  1
 19 20  1  0
 20 21  1  0
 22  4  1  1
 19 22  1  0
 21 22  1  0
 23 24  2  0
 24 25  1  0
  4 26  1  0
 25 26  2  0
 26 27  1  0
  5 28  1  0
 23 28  1  0
 27 28  2  0
 10 30  1  0
 29 30  2  0
  7 31  1  0
 30 31  1  0
 31 32  2  0
 32 33  1  0
 29 34  1  0
 33 34  2  0
M  END
