x1478-x1384
     RDKit          3D

 16 18  0  0  0  0  0  0  0  0999 V2000
    6.8400   -4.0360   21.5830 N   0  0  0  0  0  0  0  0  0  0  0  0
    7.4060   -3.1390   19.2980 C   0  0  0  0  0  0  0  0  0  0  0  0
    5.3730   -4.3090   19.8300 O   0  0  0  0  0  0  0  0  0  0  0  0
    6.4410   -3.8640   20.2430 C   0  0  0  0  0  0  0  0  0  0  0  0
    5.7830   -3.4680   26.7020 O   0  0  0  0  0  0  0  0  0  0  0  0
    6.0050   -6.2240   22.3600 C   0  0  0  0  0  0  0  0  0  0  0  0
    3.7290   -3.4530   23.9280 C   0  0  1  0  0  0  0  0  0  0  0  0
    2.6680   -4.4320   24.4650 C   0  0  0  0  0  0  0  0  0  0  0  0
    4.0820   -4.3660   25.1120 C   0  0  1  0  0  0  0  0  0  0  0  0
    4.4950   -5.7620   24.5930 C   0  0  0  0  0  0  0  0  0  0  0  0
    5.1200   -5.4130   23.2040 C   0  0  0  0  0  0  0  0  0  0  0  0
    4.5740   -3.9830   22.9810 C   0  0  0  0  0  0  0  0  0  0  0  0
    4.4560   -3.5570   26.4490 C   0  0  2  0  0  0  0  0  0  0  0  0
    4.1540   -2.4280   25.8440 C   0  0  0  0  0  0  0  0  0  0  0  0
    3.7920   -2.0680   24.6410 C   0  0  0  0  0  0  0  0  0  0  0  0
    7.1670   -5.4420   22.0000 C   0  0  0  0  0  0  0  0  0  0  0  0
  1  4  1  0
  2  4  1  0
  3  4  2  0
  7  8  1  6
  7  9  1  0
  9  8  1  1
  9 10  1  0
  6 11  1  0
 10 11  1  0
  7 12  1  0
 11 12  2  0
 13  5  1  6
  9 13  1  0
 13 14  1  0
  7 15  1  0
 14 15  2  0
  1 16  1  0
  6 16  1  0
M  END
