x1478-x3117
     RDKit          3D

 37 40  0  0  0  0  0  0  0  0999 V2000
    7.0170   -1.6960   21.5550 C   0  0  1  0  0  0  0  0  0  0  0  0
    7.6990    1.8230   22.6260 N   0  0  0  0  0  0  0  0  0  0  0  0
    9.0510    0.4640   21.3850 O   0  0  0  0  0  0  0  0  0  0  0  0
    6.7070   -0.1510   21.3980 C   0  0  1  0  0  0  0  0  0  0  0  0
    7.9300    0.7340   21.8040 C   0  0  0  0  0  0  0  0  0  0  0  0
   12.2090   -1.8310   24.2510 C   0  0  0  0  0  0  0  0  0  0  0  0
   12.3490   -0.5790   25.1250 C   0  0  0  0  0  0  0  0  0  0  0  0
   13.3500   -2.1230   23.2640 C   0  0  0  0  0  0  0  0  0  0  0  0
   12.1140   -3.0670   25.1480 C   0  0  0  0  0  0  0  0  0  0  0  0
    7.9680   -3.8480   20.2170 C   0  0  0  0  0  0  0  0  0  0  0  0
    6.0640   -2.9450   19.2870 O   0  0  0  0  0  0  0  0  0  0  0  0
    6.9290   -2.7720   20.2630 C   0  0  0  0  0  0  0  0  0  0  0  0
    5.8250   -6.5890   22.9820 Cl  0  0  0  0  0  0  0  0  0  0  0  0
    6.3540    0.6240   17.6430 N   0  0  0  0  0  0  0  0  0  0  0  0
    5.1700    1.5030   17.7480 C   0  0  0  0  0  0  0  0  0  0  0  0
    4.5760    1.7740   18.9590 C   0  0  0  0  0  0  0  0  0  0  0  0
    5.0990    1.2180   20.1140 C   0  0  0  0  0  0  0  0  0  0  0  0
    6.2090    0.3890   20.0920 C   0  0  0  0  0  0  0  0  0  0  0  0
    6.8510    0.0650   18.9100 C   0  0  0  0  0  0  0  0  0  0  0  0
    9.8020    5.0440   23.8740 O   0  0  0  0  0  0  0  0  0  0  0  0
   10.4700    3.8280   23.5520 C   0  0  0  0  0  0  0  0  0  0  0  0
    9.6330    2.7470   23.8080 C   0  0  0  0  0  0  0  0  0  0  0  0
    8.6570    2.8780   22.8070 C   0  0  0  0  0  0  0  0  0  0  0  0
    8.0130    4.2400   22.7190 C   0  0  0  0  0  0  0  0  0  0  0  0
    8.4460    4.9450   23.7920 C   0  0  0  0  0  0  0  0  0  0  0  0
    9.4670   -2.2660   21.6530 C   0  0  0  0  0  0  0  0  0  0  0  0
   10.6970   -2.2780   22.3210 C   0  0  0  0  0  0  0  0  0  0  0  0
   10.8360   -1.7600   23.5900 C   0  0  0  0  0  0  0  0  0  0  0  0
    9.7220   -1.2090   24.2110 C   0  0  0  0  0  0  0  0  0  0  0  0
    8.4700   -1.1740   23.5610 C   0  0  0  0  0  0  0  0  0  0  0  0
    8.3280   -1.7170   22.2410 C   0  0  0  0  0  0  0  0  0  0  0  0
    4.3800   -4.5210   24.0400 N   0  0  0  0  0  0  0  0  0  0  0  0
    5.4640   -4.9380   23.1690 C   0  0  0  0  0  0  0  0  0  0  0  0
    6.2930   -3.9570   22.4060 C   0  0  0  0  0  0  0  0  0  0  0  0
    6.0560   -2.4950   22.4580 C   0  0  0  0  0  0  0  0  0  0  0  0
    4.8740   -2.1960   23.4290 C   0  0  0  0  0  0  0  0  0  0  0  0
    4.1450   -3.1640   24.1270 C   0  0  0  0  0  0  0  0  0  0  0  0
  1  4  1  0
  2  5  1  0
  3  5  2  0
  4  5  1  6
  6  7  1  0
  6  8  1  0
  6  9  1  0
  1 12  1  6
 10 12  1  0
 11 12  2  0
 14 15  2  0
 15 16  1  0
 16 17  2  0
  4 18  1  0
 17 18  1  0
 14 19  1  0
 18 19  2  0
 20 21  1  0
 21 22  1  0
  2 23  1  0
 22 23  1  0
 23 24  1  0
 20 25  1  0
 24 25  1  0
 26 27  2  0
  6 28  1  0
 27 28  1  0
 28 29  2  0
 29 30  1  0
  1 31  1  0
 26 31  1  0
 30 31  2  0
 13 33  1  0
 32 33  2  0
 33 34  1  0
  1 35  1  0
 34 35  2  0
 35 36  1  0
 32 37  1  0
 36 37  2  0
M  END
