x1478-x2694
     RDKit          3D

 41 44  0  0  0  0  0  0  0  0999 V2000
    7.6250   -0.7220   21.5700 N   0  0  0  0  0  0  0  0  0  0  0  0
    7.7810    2.6790   22.7150 N   0  0  0  0  0  0  0  0  0  0  0  0
    9.2020    1.7180   21.1900 O   0  0  0  0  0  0  0  0  0  0  0  0
   11.1820    6.8570   24.0570 O   0  0  0  0  0  0  0  0  0  0  0  0
    7.1020    0.6320   21.5900 C   0  0  1  0  0  0  0  0  0  0  0  0
    8.1570    1.7210   21.8050 C   0  0  0  0  0  0  0  0  0  0  0  0
   10.4150    2.1130   23.9890 C   0  0  0  0  0  0  0  0  0  0  0  0
   11.8680    6.6200   25.0520 C   0  0  0  0  0  0  0  0  0  0  0  0
   12.3120   -1.5260   23.3370 C   0  0  0  0  0  0  0  0  0  0  0  0
   12.8930   -0.1570   23.6420 C   0  0  0  0  0  0  0  0  0  0  0  0
   12.8560   -1.9770   21.9650 C   0  0  0  0  0  0  0  0  0  0  0  0
   12.7820   -2.5140   24.4220 C   0  0  0  0  0  0  0  0  0  0  0  0
    6.6480   -2.8060   21.4800 N   0  0  0  0  0  0  0  0  0  0  0  0
    7.7180   -3.8120   19.6500 C   0  0  0  0  0  0  0  0  0  0  0  0
    5.4420   -3.6830   19.5770 O   0  0  0  0  0  0  0  0  0  0  0  0
    6.3420   -6.1310   22.3870 Cl  0  0  0  0  0  0  0  0  0  0  0  0
    6.4530   -3.4030   20.2520 C   0  0  0  0  0  0  0  0  0  0  0  0
    6.5220   -1.5560   21.2930 C   0  0  0  0  0  0  0  0  0  0  0  0
    6.3010    0.4570   17.8500 N   0  0  0  0  0  0  0  0  0  0  0  0
    5.1590    1.3610   17.7870 C   0  0  0  0  0  0  0  0  0  0  0  0
    4.7070    1.9550   18.9410 C   0  0  0  0  0  0  0  0  0  0  0  0
    5.3420    1.7010   20.1400 C   0  0  0  0  0  0  0  0  0  0  0  0
    6.4360    0.8610   20.2680 C   0  0  0  0  0  0  0  0  0  0  0  0
    6.9210    0.2290   19.1450 C   0  0  0  0  0  0  0  0  0  0  0  0
    8.6260   -1.4290   23.9360 N   0  0  0  0  0  0  0  0  0  0  0  0
    9.9270   -1.6460   24.4050 O   0  0  0  0  0  0  0  0  0  0  0  0
   10.7860   -1.4290   23.3040 C   0  0  0  0  0  0  0  0  0  0  0  0
   10.0100   -1.0760   22.1200 C   0  0  0  0  0  0  0  0  0  0  0  0
    8.7320   -1.0700   22.5060 C   0  0  0  0  0  0  0  0  0  0  0  0
    9.8780    3.4900   23.6460 C   0  0  0  0  0  0  0  0  0  0  0  0
   10.6680    4.6040   23.9430 C   0  0  0  0  0  0  0  0  0  0  0  0
   10.2790    5.9050   23.6830 C   0  0  0  0  0  0  0  0  0  0  0  0
    9.0470    6.1290   23.0850 C   0  0  0  0  0  0  0  0  0  0  0  0
    8.2070    5.0500   22.7570 C   0  0  0  0  0  0  0  0  0  0  0  0
    8.6370    3.7260   23.0490 C   0  0  0  0  0  0  0  0  0  0  0  0
    4.8580   -4.8680   24.2420 N   0  0  0  0  0  0  0  0  0  0  0  0
    5.6980   -4.6940   23.0680 C   0  0  0  0  0  0  0  0  0  0  0  0
    5.9110   -3.2220   22.5700 C   0  0  0  0  0  0  0  0  0  0  0  0
    5.2620   -2.0490   23.3130 C   0  0  0  0  0  0  0  0  0  0  0  0
    4.4300   -2.5010   24.5150 C   0  0  0  0  0  0  0  0  0  0  0  0
    4.3210   -3.8280   24.8390 C   0  0  0  0  0  0  0  0  0  0  0  0
  1  5  1  0
  2  6  1  0
  3  6  2  0
  5  6  1  6
  4  8  1  0
  9 10  1  0
  9 11  1  0
  9 12  1  0
 13 17  1  0
 14 17  1  0
 15 17  2  0
  1 18  1  0
 13 18  1  0
 19 20  2  0
 20 21  1  0
 21 22  2  0
  5 23  1  0
 22 23  1  0
 19 24  1  0
 23 24  2  0
 25 26  1  0
  9 27  1  0
 26 27  1  0
 27 28  2  0
  1 29  1  0
 25 29  2  0
 28 29  1  0
  7 30  1  0
 30 31  2  0
  4 32  1  0
 31 32  1  0
 32 33  2  0
 33 34  1  0
  2 35  1  0
 30 35  1  0
 34 35  2  0
 16 37  1  0
 36 37  2  0
 13 38  1  0
 37 38  1  0
 38 39  2  0
 39 40  1  0
 36 41  1  0
 40 41  2  0
M  END
