x1478-x0072
     RDKit          3D

 25 26  0  0  0  0  0  0  0  0999 V2000
    6.7720   -5.2370   26.4780 C   0  0  0  0  0  0  0  0  0  0  0  0
    8.4140   -4.5430   26.2940 S   0  0  0  0  0  0  0  0  0  0  0  0
    9.1980   -5.6410   25.7950 O   0  0  0  0  0  0  0  0  0  0  0  0
    8.7540   -3.8600   27.5100 O   0  0  0  0  0  0  0  0  0  0  0  0
    8.1860   -3.3680   25.0840 N   0  0  0  0  0  0  0  0  0  0  0  0
    8.9470   -3.3500   23.9240 C   0  0  0  0  0  0  0  0  0  0  0  0
    8.8960   -2.0190   23.1770 C   0  0  2  0  0  0  0  0  0  0  0  0
    6.9380   -2.7050   21.4570 N   0  0  0  0  0  0  0  0  0  0  0  0
    7.8820   -3.7150   19.5130 C   0  0  0  0  0  0  0  0  0  0  0  0
    5.6230   -3.4410   19.5270 O   0  0  0  0  0  0  0  0  0  0  0  0
    6.2080   -5.7540   22.2280 Cl  0  0  0  0  0  0  0  0  0  0  0  0
    6.6930   -3.2310   20.1740 C   0  0  0  0  0  0  0  0  0  0  0  0
    8.3370   -2.2360   21.7360 C   0  0  0  0  0  0  0  0  0  0  0  0
   10.2980   -1.4420   23.1300 C   0  0  0  0  0  0  0  0  0  0  0  0
   11.4250   -1.9720   22.2220 C   0  0  0  0  0  0  0  0  0  0  0  0
   12.8150   -1.2760   22.2780 C   0  0  0  0  0  0  0  0  0  0  0  0
   12.9100   -0.2020   23.1690 C   0  0  0  0  0  0  0  0  0  0  0  0
   11.8990    0.2750   23.9870 C   0  0  0  0  0  0  0  0  0  0  0  0
   10.6130   -0.2550   24.0420 C   0  0  0  0  0  0  0  0  0  0  0  0
    4.7920   -4.5210   23.9480 N   0  0  0  0  0  0  0  0  0  0  0  0
    5.6520   -4.2950   22.9430 C   0  0  0  0  0  0  0  0  0  0  0  0
    6.0100   -2.9940   22.5750 C   0  0  0  0  0  0  0  0  0  0  0  0
    5.4830   -1.9170   23.2510 C   0  0  0  0  0  0  0  0  0  0  0  0
    4.5920   -2.0760   24.3000 C   0  0  0  0  0  0  0  0  0  0  0  0
    4.2970   -3.4250   24.5820 C   0  0  0  0  0  0  0  0  0  0  0  0
  1  2  1  0
  2  3  2  0
  2  4  2  0
  2  5  1  0
  5  6  1  0
  7  6  1  6
  8 12  1  0
  9 12  1  0
 10 12  2  0
  7 13  1  0
  8 13  1  0
  7 14  1  0
 14 15  2  0
 15 16  1  0
 16 17  2  0
 17 18  1  0
 14 19  1  0
 18 19  2  0
 11 21  1  0
 20 21  2  0
  8 22  1  0
 21 22  1  0
 22 23  2  0
 23 24  1  0
 20 25  1  0
 24 25  2  0
M  END
