x1493-x3298
     RDKit          3D

 42 45  0  0  0  0  0  0  0  0999 V2000
    7.2390    2.0550   22.1800 N   0  0  0  0  0  0  0  0  0  0  0  0
    7.2600   -0.1130   21.3140 C   0  0  2  0  0  0  0  0  0  0  0  0
    6.6300   -0.6630   22.2160 O   0  0  0  0  0  0  0  0  0  0  0  0
    7.9220    1.2030   21.5150 C   0  0  0  0  0  0  0  0  0  0  0  0
    8.6860    1.0470   24.3070 N   0  0  0  0  0  0  0  0  0  0  0  0
    9.0240    1.4290   21.0530 O   0  0  0  0  0  0  0  0  0  0  0  0
   10.1130    0.1770   26.4980 O   0  0  0  0  0  0  0  0  0  0  0  0
    8.9640   -1.3040   24.8770 O   0  0  0  0  0  0  0  0  0  0  0  0
   13.7590   -1.4160   20.8960 F   0  0  0  0  0  0  0  0  0  0  0  0
    9.7020   -0.0860   25.0100 S   0  0  0  0  0  0  0  0  0  0  0  0
    5.1100   -6.1450   26.3130 C   0  0  0  0  0  0  0  0  0  0  0  0
    7.2990   -5.1430   25.8030 O   0  0  0  0  0  0  0  0  0  0  0  0
    6.1590   -5.3420   25.3920 C   0  0  0  0  0  0  0  0  0  0  0  0
    5.5960   -4.5240   19.9480 O   0  0  0  0  0  0  0  0  0  0  0  0
    6.6540   -4.5770   20.6010 C   0  0  0  0  0  0  0  0  0  0  0  0
    7.8140   -3.6550   20.2950 C   0  0  0  0  0  0  0  0  0  0  0  0
    6.9870   -2.0480   22.3020 C   0  0  0  0  0  0  0  0  0  0  0  0
    6.6450   -2.7660   23.6170 C   0  0  0  0  0  0  0  0  0  0  0  0
    6.2170    0.2630   17.6970 N   0  0  0  0  0  0  0  0  0  0  0  0
    6.9370   -0.0980   18.7450 C   0  0  0  0  0  0  0  0  0  0  0  0
    6.4090    0.2610   20.1360 C   0  0  0  0  0  0  0  0  0  0  0  0
    5.2430    0.9070   20.3350 C   0  0  0  0  0  0  0  0  0  0  0  0
    4.5570    1.2400   19.1880 C   0  0  0  0  0  0  0  0  0  0  0  0
    5.0750    0.9110   17.9460 C   0  0  0  0  0  0  0  0  0  0  0  0
    8.0990    4.3410   22.3930 C   0  0  0  0  0  0  0  0  0  0  0  0
    8.9360    5.2910   22.9890 C   0  0  0  0  0  0  0  0  0  0  0  0
    9.8660    4.8970   24.1500 C   0  0  0  0  0  0  0  0  0  0  0  0
    9.7960    3.4530   24.5930 C   0  0  0  0  0  0  0  0  0  0  0  0
    8.8830    2.4730   23.9580 C   0  0  0  0  0  0  0  0  0  0  0  0
    8.0370    2.9830   22.8070 C   0  0  0  0  0  0  0  0  0  0  0  0
   12.1710    0.4090   23.7640 C   0  0  0  0  0  0  0  0  0  0  0  0
   13.1240    0.0790   22.7900 C   0  0  0  0  0  0  0  0  0  0  0  0
   12.8780   -1.0870   21.8280 C   0  0  0  0  0  0  0  0  0  0  0  0
   11.6920   -1.7950   21.9370 C   0  0  0  0  0  0  0  0  0  0  0  0
   10.7760   -1.4480   22.8980 C   0  0  0  0  0  0  0  0  0  0  0  0
   10.9920   -0.3410   23.8420 C   0  0  0  0  0  0  0  0  0  0  0  0
    5.7030   -4.9230   24.1510 N   0  0  0  0  0  0  0  0  0  0  0  0
    6.4840   -4.2220   23.2940 C   0  0  2  0  0  0  0  0  0  0  0  0
    7.5740   -4.8850   22.7690 C   0  0  0  0  0  0  0  0  0  0  0  0
    6.8570   -5.4920   21.6270 N   0  0  0  0  0  0  0  0  0  0  0  0
    5.7990   -6.4010   22.0860 C   0  0  0  0  0  0  0  0  0  0  0  0
    4.9410   -5.8290   23.2550 C   0  0  0  0  0  0  0  0  0  0  0  0
  2  3  1  1
  1  4  1  0
  2  4  1  0
  4  6  2  0
 10  5  1  0
  7 10  2  0
  8 10  2  0
 11 13  1  0
 12 13  2  0
 14 15  2  0
 15 16  1  0
  3 17  1  0
 17 18  1  0
 19 20  2  0
  2 21  1  0
 20 21  1  0
 21 22  2  0
 22 23  1  0
 19 24  1  0
 23 24  2  0
 25 26  2  0
 26 27  1  0
 27 28  2  0
  5 29  1  0
 28 29  1  0
  1 30  1  0
 25 30  1  0
 29 30  2  0
 31 32  2  0
  9 33  1  0
 32 33  1  0
 33 34  2  0
 34 35  1  0
 10 36  1  0
 31 36  1  0
 35 36  2  0
 13 37  1  0
 38 18  1  1
 37 38  1  0
 38 39  1  0
 15 40  1  0
 39 40  1  0
 40 41  1  0
 37 42  1  0
 41 42  1  0
M  END
