x1493-x2540
     RDKit          3D

 38 40  0  0  0  0  0  0  0  0999 V2000
    7.4700   -0.9750   21.9760 N   0  0  0  0  0  0  0  0  0  0  0  0
    7.9480    2.1960   23.1380 N   0  0  0  0  0  0  0  0  0  0  0  0
    9.0530    1.9520   20.9320 O   0  0  0  0  0  0  0  0  0  0  0  0
    7.1210    0.4250   21.6070 C   0  0  1  0  0  0  0  0  0  0  0  0
    8.0910    1.5420   21.8730 C   0  0  0  0  0  0  0  0  0  0  0  0
    8.8340    3.1740   23.5390 C   0  0  0  0  0  0  0  0  0  0  0  0
    8.7620    3.3550   25.0020 C   0  0  0  0  0  0  0  0  0  0  0  0
    8.6110    4.2140   22.9610 C   0  0  0  0  0  0  0  0  0  0  0  0
   10.3000    2.7550   23.1020 C   0  0  0  0  0  0  0  0  0  0  0  0
   12.2280   -1.3180   23.5050 C   0  0  0  0  0  0  0  0  0  0  0  0
   12.9060   -1.4090   22.1260 C   0  0  0  0  0  0  0  0  0  0  0  0
   12.6650   -0.0400   24.2130 C   0  0  0  0  0  0  0  0  0  0  0  0
   12.7530   -2.4870   24.3710 C   0  0  0  0  0  0  0  0  0  0  0  0
    5.0020   -6.0490   26.2200 C   0  0  0  0  0  0  0  0  0  0  0  0
    7.3630   -5.3250   25.7750 O   0  0  0  0  0  0  0  0  0  0  0  0
    6.0880   -5.4450   25.2990 C   0  0  0  0  0  0  0  0  0  0  0  0
    5.3110   -4.9740   19.9790 O   0  0  0  0  0  0  0  0  0  0  0  0
    6.3690   -4.6330   20.4550 C   0  0  0  0  0  0  0  0  0  0  0  0
    7.1310   -3.4950   19.8280 C   0  0  0  0  0  0  0  0  0  0  0  0
    6.3750   -1.6920   22.6360 C   0  0  0  0  0  0  0  0  0  0  0  0
    6.5180   -2.5720   23.7150 C   0  0  0  0  0  0  0  0  0  0  0  0
    6.2870    0.0720   17.9360 N   0  0  0  0  0  0  0  0  0  0  0  0
    5.1500    0.9680   17.8990 C   0  0  0  0  0  0  0  0  0  0  0  0
    4.6740    1.6400   19.0150 C   0  0  0  0  0  0  0  0  0  0  0  0
    5.3330    1.4400   20.2220 C   0  0  0  0  0  0  0  0  0  0  0  0
    6.4340    0.5830   20.2740 C   0  0  0  0  0  0  0  0  0  0  0  0
    6.8670   -0.0710   19.1320 C   0  0  0  0  0  0  0  0  0  0  0  0
    9.9950   -1.4820   24.5010 O   0  0  0  0  0  0  0  0  0  0  0  0
    8.6650   -1.3860   24.0840 N   0  0  0  0  0  0  0  0  0  0  0  0
    8.6390   -1.1380   22.7270 C   0  0  0  0  0  0  0  0  0  0  0  0
    9.9590   -1.0880   22.3020 C   0  0  0  0  0  0  0  0  0  0  0  0
   10.7240   -1.2930   23.3960 C   0  0  0  0  0  0  0  0  0  0  0  0
    5.6880   -5.0730   24.0030 N   0  0  0  0  0  0  0  0  0  0  0  0
    6.2130   -3.9620   23.1550 C   0  0  2  0  0  0  0  0  0  0  0  0
    7.2920   -4.4750   22.5500 C   0  0  0  0  0  0  0  0  0  0  0  0
    6.9350   -5.2530   21.5800 N   0  0  0  0  0  0  0  0  0  0  0  0
    6.1210   -6.2000   22.1510 C   0  0  0  0  0  0  0  0  0  0  0  0
    5.3150   -5.9430   23.2950 C   0  0  0  0  0  0  0  0  0  0  0  0
  1  4  1  0
  2  5  1  0
  3  5  2  0
  4  5  1  6
  6  2  1  0
  6  7  1  0
  6  8  1  0
  6  9  1  0
 10 11  1  0
 10 12  1  0
 10 13  1  0
 14 16  1  0
 15 16  2  0
 17 18  2  0
 18 19  1  0
  1 20  1  0
 20 21  1  0
 22 23  2  0
 23 24  1  0
 24 25  2  0
  4 26  1  0
 25 26  1  0
 22 27  1  0
 26 27  2  0
 28 29  1  0
  1 30  1  0
 29 30  2  0
 30 31  1  0
 10 32  1  0
 28 32  1  0
 31 32  2  0
 16 33  1  0
 34 21  1  1
 33 34  1  0
 34 35  1  0
 18 36  1  0
 35 36  1  0
 36 37  1  0
 33 38  1  0
 37 38  1  0
M  END
