x1493-x3077
     RDKit          3D

 23 25  0  0  0  0  0  0  0  0999 V2000
    6.9630   -3.1420   19.0940 C   0  0  0  0  0  0  0  0  0  0  0  0
    5.2960   -4.6540   19.8940 O   0  0  0  0  0  0  0  0  0  0  0  0
   13.2960   -1.8900   21.1480 Cl  0  0  0  0  0  0  0  0  0  0  0  0
    6.1460   -3.8280   20.1790 C   0  0  0  0  0  0  0  0  0  0  0  0
    9.3790   -2.1600   24.3750 C   0  0  0  0  0  0  0  0  0  0  0  0
    6.3880   -3.5620   21.4970 N   0  0  0  0  0  0  0  0  0  0  0  0
    7.1320   -4.4070   22.4140 C   0  0  0  0  0  0  0  0  0  0  0  0
    7.4360   -3.5860   23.4610 C   0  0  2  0  0  0  0  0  0  0  0  0
    6.4030   -2.4610   23.4230 C   0  0  0  0  0  0  0  0  0  0  0  0
    6.6100   -2.2090   21.9710 C   0  0  1  0  0  0  0  0  0  0  0  0
    8.5660   -2.6610   23.0920 N   0  0  0  0  0  0  0  0  0  0  0  0
    8.0770   -1.7580   21.9710 C   0  0  0  0  0  0  0  0  0  0  0  0
   10.8510   -0.0760   24.3960 C   0  0  0  0  0  0  0  0  0  0  0  0
   12.0520    0.7250   23.8470 C   0  0  0  0  0  0  0  0  0  0  0  0
   12.7930    0.1520   22.8590 C   0  0  0  0  0  0  0  0  0  0  0  0
   12.4390   -1.1160   22.3820 C   0  0  0  0  0  0  0  0  0  0  0  0
   11.3490   -1.7770   22.9180 C   0  0  0  0  0  0  0  0  0  0  0  0
   10.5250   -1.3210   23.9140 C   0  0  0  0  0  0  0  0  0  0  0  0
    4.8090   -6.5360   26.5830 C   0  0  0  0  0  0  0  0  0  0  0  0
    7.1990   -5.6690   27.1280 O   0  0  0  0  0  0  0  0  0  0  0  0
    6.1130   -5.7950   26.2250 C   0  0  0  0  0  0  0  0  0  0  0  0
    7.4570   -4.3410   24.7560 C   0  0  0  0  0  0  0  0  0  0  0  0
    6.2010   -5.2110   24.8620 C   0  0  0  0  0  0  0  0  0  0  0  0
  1  4  1  0
  2  4  2  0
  4  6  1  0
  6  7  1  0
  7  8  1  0
  8  9  1  0
  6 10  1  0
  9 10  1  0
  5 11  1  0
  8 11  1  0
 10 12  1  1
 11 12  1  0
 13 14  2  0
 14 15  1  0
  3 16  1  0
 15 16  2  0
 16 17  1  0
  5 18  1  0
 13 18  1  0
 17 18  2  0
 19 21  1  0
 20 21  2  0
  8 22  1  1
 21 23  1  0
 22 23  1  0
M  END
