x1493
     RDKit          3D

 13 13  0  0  0  0  0  0  0  0999 V2000
    6.2110   -5.1730   24.2630 N   0  0  0  0  0  0  0  0  0  0  0  0
    4.9030   -6.1830   26.0610 C   0  0  0  0  0  0  0  0  0  0  0  0
    7.1930   -5.6080   26.2300 O   0  0  0  0  0  0  0  0  0  0  0  0
    6.1880   -5.6320   25.5290 C   0  0  0  0  0  0  0  0  0  0  0  0
    6.8820   -4.9580   21.5290 N   0  0  0  0  0  0  0  0  0  0  0  0
    5.9670   -4.2740   19.5720 O   0  0  0  0  0  0  0  0  0  0  0  0
    5.2440   -5.5550   23.2280 C   0  0  0  0  0  0  0  0  0  0  0  0
    5.9440   -5.9890   21.9580 C   0  0  0  0  0  0  0  0  0  0  0  0
    7.8720   -4.6460   22.5580 C   0  0  0  0  0  0  0  0  0  0  0  0
    7.1780   -4.1750   23.8130 C   0  0  0  0  0  0  0  0  0  0  0  0
    6.9100   -4.3060   20.3510 C   0  0  0  0  0  0  0  0  0  0  0  0
    8.2080   -3.6140   20.0480 C   0  0  0  0  0  0  0  0  0  0  0  0
    8.5240   -3.3090   18.3040 R   0  0  0  0  0  0  0  0  0  0  0  0
  1  4  1  0
  2  4  1  0
  3  4  2  0
  1  7  1  0
  5  8  1  0
  7  8  1  0
  5  9  1  0
  1 10  1  0
  9 10  1  0
  5 11  1  0
  6 11  2  0
 11 12  1  0
 12 13  1  0
M  END
