x1493-x3110-x0771-x3113
     RDKit          3D

 55 58  0  0  0  0  0  0  0  0999 V2000
    8.1340    1.3800   23.3540 N   0  0  0  0  0  0  0  0  0  0  0  0
   13.4090    5.2470   22.8650 C   0  0  0  0  0  0  0  0  0  0  0  0
   12.0560    3.3780   22.3270 O   0  0  0  0  0  0  0  0  0  0  0  0
   12.4540    4.4790   21.9770 C   0  0  0  0  0  0  0  0  0  0  0  0
    7.1190   -1.2260   21.9950 N   0  0  0  0  0  0  0  0  0  0  0  0
   11.0840    4.3720   24.1180 O   0  0  0  0  0  0  0  0  0  0  0  0
   11.2290    3.4010   23.3920 C   0  0  0  0  0  0  0  0  0  0  0  0
    8.7910    1.6600   21.1830 O   0  0  0  0  0  0  0  0  0  0  0  0
   10.4740    2.0820   23.6090 C   0  0  0  0  0  0  0  0  0  0  0  0
    9.0280    2.3320   23.9390 C   0  0  0  0  0  0  0  0  0  0  0  0
    8.0230    1.1480   22.0130 C   0  0  0  0  0  0  0  0  0  0  0  0
    6.8400    0.2250   21.6750 C   0  0  1  0  0  0  0  0  0  0  0  0
   12.4580   -1.8670   24.1410 C   0  0  0  0  0  0  0  0  0  0  0  0
   12.6770   -0.5270   24.9710 C   0  0  0  0  0  0  0  0  0  0  0  0
   13.4090   -1.9580   22.9600 C   0  0  0  0  0  0  0  0  0  0  0  0
   12.8010   -2.9850   25.0220 C   0  0  0  0  0  0  0  0  0  0  0  0
    0.4980   -1.2300   26.3700 C   0  0  0  0  0  0  0  0  0  0  0  0
    3.9590   -6.9790   25.1290 O   0  0  0  0  0  0  0  0  0  0  0  0
    5.3300   -5.6150   26.7050 O   0  0  0  0  0  0  0  0  0  0  0  0
    4.8930   -4.0860   19.4990 O   0  0  0  0  0  0  0  0  0  0  0  0
    1.2840   -5.9050   24.8050 C   0  0  0  0  0  0  0  0  0  0  0  0
    5.8990   -3.8500   20.0930 C   0  0  0  0  0  0  0  0  0  0  0  0
    7.0970   -3.0650   19.4380 C   0  0  0  0  0  0  0  0  0  0  0  0
    4.5650   -5.7160   25.4770 S   0  0  0  0  0  0  0  0  0  0  0  0
    5.9830   -1.7620   22.7480 C   0  0  0  0  0  0  0  0  0  0  0  0
    6.8010   -5.3430   25.0150 C   0  0  0  0  0  0  0  0  0  0  0  0
    6.8220   -6.7200   26.7940 O   0  0  0  0  0  0  0  0  0  0  0  0
    6.2670   -5.8650   26.1460 C   0  0  0  0  0  0  0  0  0  0  0  0
    7.6680   -5.6550   21.3890 O   0  0  0  0  0  0  0  0  0  0  0  0
    7.3500   -4.5640   21.7820 C   0  0  0  0  0  0  0  0  0  0  0  0
    8.2120   -3.6030   22.2850 C   0  0  0  0  0  0  0  0  0  0  0  0
    6.3200    0.3200   17.8180 N   0  0  0  0  0  0  0  0  0  0  0  0
    5.2400    1.1250   17.8150 C   0  0  0  0  0  0  0  0  0  0  0  0
    4.6470    1.6320   18.9530 C   0  0  0  0  0  0  0  0  0  0  0  0
    5.1880    1.3130   20.1950 C   0  0  0  0  0  0  0  0  0  0  0  0
    6.3120    0.4910   20.2920 C   0  0  0  0  0  0  0  0  0  0  0  0
    6.8550    0.0040   19.1060 C   0  0  0  0  0  0  0  0  0  0  0  0
    9.4650   -1.4870   21.6740 C   0  0  0  0  0  0  0  0  0  0  0  0
   10.7600   -1.6500   22.1180 C   0  0  0  0  0  0  0  0  0  0  0  0
   11.0490   -1.7200   23.6300 C   0  0  0  0  0  0  0  0  0  0  0  0
    9.9500   -1.6150   24.4440 C   0  0  0  0  0  0  0  0  0  0  0  0
    8.6440   -1.4580   23.9340 C   0  0  0  0  0  0  0  0  0  0  0  0
    8.3980   -1.3900   22.5130 C   0  0  0  0  0  0  0  0  0  0  0  0
    1.4790   -2.3340   26.1340 C   0  0  0  0  0  0  0  0  0  0  0  0
    0.9900   -3.5660   25.5990 C   0  0  0  0  0  0  0  0  0  0  0  0
    1.8560   -4.6400   25.3640 C   0  0  0  0  0  0  0  0  0  0  0  0
    3.3450   -4.4780   25.6920 C   0  0  0  0  0  0  0  0  0  0  0  0
    3.7490   -3.1330   26.2450 C   0  0  0  0  0  0  0  0  0  0  0  0
    2.8380   -2.1080   26.4530 C   0  0  0  0  0  0  0  0  0  0  0  0
    5.9580   -4.3170   21.6280 C   0  0  0  0  0  0  0  0  0  0  0  0
    5.2040   -5.5060   21.9070 C   0  0  0  0  0  0  0  0  0  0  0  0
    5.7310   -6.0940   23.0570 C   0  0  0  0  0  0  0  0  0  0  0  0
    5.5890   -5.1830   24.1500 C   0  0  1  0  0  0  0  0  0  0  0  0
    5.4800   -3.8940   23.7770 C   0  0  0  0  0  0  0  0  0  0  0  0
    5.4940   -3.2310   22.6370 C   0  0  1  0  0  0  0  0  0  0  0  0
  2  4  1  0
  3  4  1  0
  3  7  1  0
  6  7  2  0
  7  9  1  0
  1 10  1  0
  9 10  1  0
  1 11  1  0
  8 11  2  0
  5 12  1  0
 12 11  1  6
 13 14  1  0
 13 15  1  0
 13 16  1  0
 20 22  2  0
 22 23  1  0
 18 24  2  0
 19 24  2  0
  5 25  1  0
 26 28  1  0
 27 28  2  0
 29 30  2  0
 30 31  1  0
 32 33  2  0
 33 34  1  0
 34 35  2  0
 12 36  1  0
 35 36  1  0
 32 37  1  0
 36 37  2  0
 38 39  2  0
 13 40  1  0
 39 40  1  0
 40 41  2  0
 41 42  1  0
  5 43  1  0
 38 43  1  0
 42 43  2  0
 17 44  1  0
 44 45  2  0
 21 46  1  0
 45 46  1  0
 24 47  1  0
 46 47  2  0
 47 48  1  0
 44 49  1  0
 48 49  2  0
 50 22  1  0
 30 50  1  0
 50 51  1  0
 51 52  1  0
 24 53  1  0
 53 26  1  1
 52 53  1  0
 53 54  1  0
 55 25  1  1
 50 55  1  0
 54 55  1  0
M  END
