x1493-x2608
     RDKit          3D

 30 32  0  0  0  0  0  0  0  0999 V2000
    4.6320   -6.5360   25.8430 C   0  0  0  0  0  0  0  0  0  0  0  0
    6.1340   -4.8390   26.6680 O   0  0  0  0  0  0  0  0  0  0  0  0
    5.6480   -5.4680   25.4880 C   0  0  0  0  0  0  0  0  0  0  0  0
    5.3400   -4.5670   19.9020 O   0  0  0  0  0  0  0  0  0  0  0  0
    6.4380   -4.2820   20.3540 C   0  0  0  0  0  0  0  0  0  0  0  0
    7.3040   -3.3290   19.5480 C   0  0  0  0  0  0  0  0  0  0  0  0
    8.6540   -1.0400   22.4300 N   0  0  0  0  0  0  0  0  0  0  0  0
   13.0300    1.8440   22.8660 C   0  0  0  0  0  0  0  0  0  0  0  0
    8.4220    0.8440   21.1550 O   0  0  0  0  0  0  0  0  0  0  0  0
    6.6600   -0.7290   21.1090 N   0  0  0  0  0  0  0  0  0  0  0  0
    7.9610   -0.2280   21.5440 C   0  0  0  0  0  0  0  0  0  0  0  0
    6.2420   -2.7520   22.4870 C   0  0  0  0  0  0  0  0  0  0  0  0
    6.4730   -2.0740   21.1150 C   0  0  0  0  0  0  0  0  0  0  0  0
    6.0070   -5.1780   24.1730 N   0  0  0  0  0  0  0  0  0  0  0  0
    7.1970   -4.5710   23.8100 C   0  0  0  0  0  0  0  0  0  0  0  0
    7.1960   -3.9780   22.4900 C   0  0  1  0  0  0  0  0  0  0  0  0
    6.8650   -4.8240   21.5560 N   0  0  0  0  0  0  0  0  0  0  0  0
    6.2610   -5.9940   21.8570 C   0  0  0  0  0  0  0  0  0  0  0  0
    5.3660   -5.9470   23.0960 C   0  0  0  0  0  0  0  0  0  0  0  0
   12.0230    0.7520   22.8650 C   0  0  0  0  0  0  0  0  0  0  0  0
   12.2900   -0.5780   23.0980 C   0  0  0  0  0  0  0  0  0  0  0  0
   11.1680   -1.3770   22.9930 C   0  0  0  0  0  0  0  0  0  0  0  0
   10.0140   -0.6540   22.6740 C   0  0  0  0  0  0  0  0  0  0  0  0
   10.3060    1.0870   22.5320 S   0  0  0  0  0  0  0  0  0  0  0  0
    6.1550    0.6130   17.7900 N   0  0  0  0  0  0  0  0  0  0  0  0
    6.6690   -0.0590   18.8110 C   0  0  0  0  0  0  0  0  0  0  0  0
    6.0940   -0.0480   20.1000 C   0  0  0  0  0  0  0  0  0  0  0  0
    4.9250    0.6980   20.3090 C   0  0  0  0  0  0  0  0  0  0  0  0
    4.3920    1.3990   19.2380 C   0  0  0  0  0  0  0  0  0  0  0  0
    5.0440    1.3220   18.0270 C   0  0  0  0  0  0  0  0  0  0  0  0
  1  3  1  0
  2  3  2  0
  4  5  2  0
  5  6  1  0
  7 11  1  0
  9 11  2  0
 10 11  1  0
 10 13  1  0
 12 13  1  0
  3 14  1  0
 14 15  1  0
 16 12  1  1
 15 16  1  0
  5 17  1  0
 16 17  1  0
 17 18  1  0
 14 19  1  0
 18 19  1  0
  8 20  1  0
 20 21  2  0
 21 22  1  0
  7 23  1  0
 22 23  2  0
 20 24  1  0
 23 24  1  0
 25 26  2  0
 10 27  1  0
 26 27  1  0
 27 28  2  0
 28 29  1  0
 25 30  1  0
 29 30  2  0
M  END
