x1493-x2964
     RDKit          3D

 32 34  0  0  0  0  0  0  0  0999 V2000
    4.6560   -6.2450   25.9010 C   0  0  0  0  0  0  0  0  0  0  0  0
    6.9710   -5.5350   26.4830 O   0  0  0  0  0  0  0  0  0  0  0  0
    5.9760   -5.6030   25.5680 C   0  0  0  0  0  0  0  0  0  0  0  0
    5.3540   -4.8190   19.9750 O   0  0  0  0  0  0  0  0  0  0  0  0
    6.3930   -4.3430   20.3950 C   0  0  0  0  0  0  0  0  0  0  0  0
    7.1720   -3.3710   19.5220 C   0  0  0  0  0  0  0  0  0  0  0  0
    3.2280    2.1010   19.2660 N   0  0  0  0  0  0  0  0  0  0  0  0
    8.6420    1.4490   21.1400 O   0  0  0  0  0  0  0  0  0  0  0  0
   13.1920   -2.4480   21.3180 Cl  0  0  0  0  0  0  0  0  0  0  0  0
    7.0050   -0.1980   21.3160 N   0  0  0  0  0  0  0  0  0  0  0  0
    8.8510   -0.2400   22.7650 N   0  0  0  0  0  0  0  0  0  0  0  0
    8.1680    0.4250   21.6740 C   0  0  0  0  0  0  0  0  0  0  0  0
    6.6810   -2.4500   22.4580 C   0  0  0  0  0  0  0  0  0  0  0  0
    7.2600   -1.6650   21.2860 C   0  0  0  0  0  0  0  0  0  0  0  0
    6.1610   -5.0870   24.2940 N   0  0  0  0  0  0  0  0  0  0  0  0
    7.4100   -4.3470   24.0260 C   0  0  0  0  0  0  0  0  0  0  0  0
    7.4650   -3.7640   22.6080 C   0  0  1  0  0  0  0  0  0  0  0  0
    6.8670   -4.7090   21.6500 N   0  0  0  0  0  0  0  0  0  0  0  0
    6.2820   -5.9470   22.1900 C   0  0  0  0  0  0  0  0  0  0  0  0
    5.4970   -5.6790   23.2670 C   0  0  0  0  0  0  0  0  0  0  0  0
    4.4590    1.4350   19.1750 C   0  0  0  0  0  0  0  0  0  0  0  0
    5.1580    0.9240   20.2590 C   0  0  0  0  0  0  0  0  0  0  0  0
    6.3660    0.2700   20.1160 C   0  0  0  0  0  0  0  0  0  0  0  0
    6.8970    0.1050   18.8720 C   0  0  0  0  0  0  0  0  0  0  0  0
    6.3780    0.5370   17.7180 N   0  0  0  0  0  0  0  0  0  0  0  0
    5.2010    1.1870   17.8360 C   0  0  0  0  0  0  0  0  0  0  0  0
   10.7720    0.9510   23.4270 C   0  0  0  0  0  0  0  0  0  0  0  0
   12.2880    1.0730   23.4340 C   0  0  0  0  0  0  0  0  0  0  0  0
   13.1440   -0.0000   22.7680 C   0  0  0  0  0  0  0  0  0  0  0  0
   12.4220   -1.1740   22.1150 C   0  0  0  0  0  0  0  0  0  0  0  0
   11.0460   -1.1900   22.1620 C   0  0  0  0  0  0  0  0  0  0  0  0
   10.1610   -0.1440   22.8040 C   0  0  0  0  0  0  0  0  0  0  0  0
  1  3  1  0
  2  3  2  0
  4  5  2  0
  5  6  1  0
  8 12  2  0
 10 12  1  0
 11 12  1  0
 10 14  1  0
 13 14  1  0
  3 15  1  0
 15 16  1  0
 17 13  1  1
 16 17  1  0
  5 18  1  0
 17 18  1  0
 18 19  1  0
 15 20  1  0
 19 20  1  0
  7 21  1  0
 21 22  2  0
 10 23  1  0
 22 23  1  0
 23 24  2  0
 24 25  1  0
 21 26  1  0
 25 26  2  0
 27 28  2  0
 28 29  1  0
  9 30  1  0
 29 30  2  0
 30 31  1  0
 11 32  1  0
 27 32  1  0
 31 32  2  0
M  END
