x1493-x2193-x2705
     RDKit          3D

 48 52  0  0  0  0  0  0  0  0999 V2000
    7.6890   -1.0810   21.6880 N   0  0  0  0  0  0  0  0  0  0  0  0
    7.5790    2.2190   22.9010 N   0  0  0  0  0  0  0  0  0  0  0  0
    9.0480    1.4810   21.1070 O   0  0  0  0  0  0  0  0  0  0  0  0
    6.9120    0.1700   21.7450 C   0  0  1  0  0  0  0  0  0  0  0  0
    7.8940    1.3170   21.9280 C   0  0  0  0  0  0  0  0  0  0  0  0
   10.2300    2.1730   23.9270 C   0  0  0  0  0  0  0  0  0  0  0  0
    9.3120    1.2850   24.7380 C   0  0  0  0  0  0  0  0  0  0  0  0
    6.1750    4.6390   21.9940 C   0  0  0  0  0  0  0  0  0  0  0  0
   12.3900   -1.4020   23.2550 C   0  0  0  0  0  0  0  0  0  0  0  0
   12.7810   -0.0040   23.7700 C   0  0  0  0  0  0  0  0  0  0  0  0
   12.8860   -2.4590   24.2730 C   0  0  0  0  0  0  0  0  0  0  0  0
   13.0460   -1.6560   21.9030 C   0  0  0  0  0  0  0  0  0  0  0  0
    6.3860    0.3070   17.8710 N   0  0  0  0  0  0  0  0  0  0  0  0
    5.1310    1.1310   17.7670 C   0  0  0  0  0  0  0  0  0  0  0  0
    4.4420    1.6220   19.0500 C   0  0  0  0  0  0  0  0  0  0  0  0
    4.9890    1.3180   20.4240 C   0  0  0  0  0  0  0  0  0  0  0  0
    6.2620    0.4990   20.4560 C   0  0  0  0  0  0  0  0  0  0  0  0
    6.8680    0.0410   19.1410 C   0  0  0  0  0  0  0  0  0  0  0  0
    9.9590   -1.7670   24.0660 N   0  0  0  0  0  0  0  0  0  0  0  0
    8.6580   -1.7310   23.7830 N   0  0  0  0  0  0  0  0  0  0  0  0
    8.7630   -1.3070   22.4770 C   0  0  0  0  0  0  0  0  0  0  0  0
   10.0710   -1.0860   21.9220 C   0  0  0  0  0  0  0  0  0  0  0  0
   10.9110   -1.4070   23.0540 C   0  0  0  0  0  0  0  0  0  0  0  0
    9.5190    3.4730   23.4940 C   0  0  0  0  0  0  0  0  0  0  0  0
   10.2170    4.6530   23.6230 C   0  0  0  0  0  0  0  0  0  0  0  0
    9.5990    5.8380   23.2250 C   0  0  0  0  0  0  0  0  0  0  0  0
    8.2880    5.8110   22.7000 C   0  0  0  0  0  0  0  0  0  0  0  0
    7.5670    4.5950   22.5690 C   0  0  0  0  0  0  0  0  0  0  0  0
    8.2100    3.4830   22.9770 C   0  0  0  0  0  0  0  0  0  0  0  0
    4.7590   -5.5680   25.8620 C   0  0  0  0  0  0  0  0  0  0  0  0
    7.1090   -5.9320   26.1900 N   0  0  0  0  0  0  0  0  0  0  0  0
    6.0780   -5.6240   25.3800 C   0  0  0  0  0  0  0  0  0  0  0  0
    5.3620   -4.1960   19.7910 O   0  0  0  0  0  0  0  0  0  0  0  0
    6.4920   -4.1610   20.2740 C   0  0  0  0  0  0  0  0  0  0  0  0
    7.6230   -3.3250   19.6450 C   0  0  0  0  0  0  0  0  0  0  0  0
    8.4390   -6.0620   25.8600 N   0  0  0  0  0  0  0  0  0  0  0  0
    9.2390   -5.4740   26.7380 C   0  0  0  0  0  0  0  0  0  0  0  0
    9.0240   -4.0880   26.6950 C   0  0  0  0  0  0  0  0  0  0  0  0
    8.7690   -3.6190   25.3430 N   0  0  0  0  0  0  0  0  0  0  0  0
    9.4150   -4.5180   24.3860 C   0  0  0  0  0  0  0  0  0  0  0  0
    8.8820   -5.7880   24.6050 C   0  0  0  0  0  0  0  0  0  0  0  0
    6.2710   -5.3670   24.0240 N   0  0  0  0  0  0  0  0  0  0  0  0
    6.9680   -4.1390   23.5830 C   0  0  0  0  0  0  0  0  0  0  0  0
    7.6920   -4.3860   22.4160 C   0  0  0  0  0  0  0  0  0  0  0  0
    6.7890   -4.9250   21.4000 N   0  0  0  0  0  0  0  0  0  0  0  0
    6.0140   -6.1160   21.8040 C   0  0  0  0  0  0  0  0  0  0  0  0
    5.4980   -5.9390   23.0800 C   0  0  0  0  0  0  0  0  0  0  0  0
    8.8020   -2.1670   25.1470 C   0  0  0  0  0  0  0  0  0  0  0  0
  4  1  1  6
  2  5  1  0
  3  5  2  0
  4  5  1  0
  6  7  1  0
  9 10  1  0
  9 11  1  0
  9 12  1  0
 13 14  2  0
 14 15  1  0
 15 16  2  0
  4 17  1  0
 16 17  1  0
 13 18  1  0
 17 18  2  0
 19 20  1  0
  1 21  1  0
 20 21  1  0
 21 22  2  0
  9 23  1  0
 19 23  2  0
 22 23  1  0
  6 24  1  0
 24 25  2  0
 25 26  1  0
 26 27  2  0
  8 28  1  0
 27 28  1  0
  2 29  1  0
 24 29  1  0
 28 29  2  0
 30 32  1  0
 31 32  2  3
 33 34  2  0
 34 35  1  0
 31 36  1  0
 36 37  1  0
 37 38  1  0
 38 39  1  0
 39 40  1  0
 36 41  1  0
 40 41  1  0
 32 42  1  0
 42 43  1  0
 43 44  1  0
 34 45  1  0
 44 45  1  0
 45 46  1  0
 42 47  1  0
 46 47  1  0
 20 48  1  0
 39 48  1  0
M  END
