x1493-x0755-x0946-x3110-x1077
     RDKit          3D

 67 74  0  0  0  0  0  0  0  0999 V2000
    7.8520    1.7900   23.3790 N   0  0  0  0  0  0  0  0  0  0  0  0
   13.9970    5.1710   22.4980 C   0  0  0  0  0  0  0  0  0  0  0  0
   12.5220    5.1370   22.5720 C   0  0  0  0  0  0  0  0  0  0  0  0
    7.4810   -1.3080   21.7280 N   0  0  0  0  0  0  0  0  0  0  0  0
   10.0750    4.9460   23.6490 C   0  0  0  0  0  0  0  0  0  0  0  0
    8.8700    1.6900   21.2710 O   0  0  0  0  0  0  0  0  0  0  0  0
    8.8370    1.9360   24.3450 C   0  0  0  0  0  0  0  0  0  0  0  0
    8.0200    1.2720   22.0820 C   0  0  0  0  0  0  0  0  0  0  0  0
    7.0090    0.1430   21.7570 C   0  0  1  0  0  0  0  0  0  0  0  0
   12.5540   -1.9920   24.3710 C   0  0  0  0  0  0  0  0  0  0  0  0
   12.7310   -0.6630   25.0740 C   0  0  0  0  0  0  0  0  0  0  0  0
   13.5350   -2.0900   23.2270 C   0  0  0  0  0  0  0  0  0  0  0  0
   12.8620   -3.1380   25.3420 C   0  0  0  0  0  0  0  0  0  0  0  0
    8.6530    4.8900   23.6510 N   0  0  0  0  0  0  0  0  0  0  0  0
   10.3240    5.9530   22.7420 O   0  0  0  0  0  0  0  0  0  0  0  0
   10.5340    5.6230   24.7670 O   0  0  0  0  0  0  0  0  0  0  0  0
    6.3370    0.3900   17.8220 N   0  0  0  0  0  0  0  0  0  0  0  0
    5.2680    1.2100   17.7880 C   0  0  0  0  0  0  0  0  0  0  0  0
    4.5860    1.7990   18.9920 C   0  0  0  0  0  0  0  0  0  0  0  0
    5.1430    1.4550   20.3520 C   0  0  0  0  0  0  0  0  0  0  0  0
    6.3660    0.5320   20.4560 C   0  0  0  0  0  0  0  0  0  0  0  0
    6.9030    0.0320   19.1270 C   0  0  0  0  0  0  0  0  0  0  0  0
    9.8610   -1.2110   21.7520 C   0  0  0  0  0  0  0  0  0  0  0  0
   11.1750   -1.3640   22.3450 C   0  0  0  0  0  0  0  0  0  0  0  0
   11.2190   -1.8570   23.7170 C   0  0  0  0  0  0  0  0  0  0  0  0
   10.0030   -2.1360   24.2860 C   0  0  0  0  0  0  0  0  0  0  0  0
    8.6290   -2.0420   23.8100 C   0  0  0  0  0  0  0  0  0  0  0  0
    8.7380   -1.5320   22.4630 C   0  0  0  0  0  0  0  0  0  0  0  0
   12.4170    1.3000   23.0030 C   0  0  0  0  0  0  0  0  0  0  0  0
   12.8210    2.6110   22.7200 C   0  0  0  0  0  0  0  0  0  0  0  0
   12.0440    3.7660   22.9170 C   0  0  0  0  0  0  0  0  0  0  0  0
   10.7870    3.6100   23.4490 C   0  0  0  0  0  0  0  0  0  0  0  0
   10.2030    2.2290   23.7910 C   0  0  0  0  0  0  0  0  0  0  0  0
   11.1330    1.0480   23.5300 C   0  0  0  0  0  0  0  0  0  0  0  0
    3.6660   -6.8010   25.7840 O   0  0  0  0  0  0  0  0  0  0  0  0
    6.1350   -5.7080   26.2740 N   0  0  0  0  0  0  0  0  0  0  0  0
    6.3190   -5.5620   19.9170 O   0  0  0  0  0  0  0  0  0  0  0  0
    7.0400   -4.8540   20.6070 C   0  0  0  0  0  0  0  0  0  0  0  0
    8.2910   -4.0690   20.3230 C   0  0  0  0  0  0  0  0  0  0  0  0
    1.7350   -5.4800   25.8870 F   0  0  0  0  0  0  0  0  0  0  0  0
    5.4480   -2.4080   26.1340 F   0  0  0  0  0  0  0  0  0  0  0  0
    4.6360   -5.5480   25.8690 S   0  0  2  0  0  0  0  0  0  0  0  0
    5.8910   -3.5670   26.6270 C   0  0  0  0  0  0  0  0  0  0  0  0
    6.6720   -3.8380   25.5120 C   0  0  1  0  0  0  0  0  0  0  0  0
    4.4680   -3.3540   21.5580 O   0  0  0  0  0  0  0  0  0  0  0  0
    5.6140   -3.5500   21.2780 C   0  0  0  0  0  0  0  0  0  0  0  0
    6.2860   -2.7120   20.3630 C   0  0  0  0  0  0  0  0  0  0  0  0
    7.2320   -5.2070   25.6060 C   0  0  2  0  0  0  0  0  0  0  0  0
    7.5760   -5.6200   24.2250 C   0  0  2  0  0  0  0  0  0  0  0  0
    8.9230   -5.8220   23.9810 C   0  0  0  0  0  0  0  0  0  0  0  0
    9.5590   -4.5680   24.0020 C   0  0  0  0  0  0  0  0  0  0  0  0
    9.5660   -3.8320   25.2630 N   0  0  0  0  0  0  0  0  0  0  0  0
    9.4100   -4.5860   26.5130 C   0  0  0  0  0  0  0  0  0  0  0  0
    8.2920   -5.3950   26.6460 C   0  0  0  0  0  0  0  0  0  0  0  0
    2.2630   -4.2550   25.9870 C   0  0  0  0  0  0  0  0  0  0  0  0
    3.6440   -4.0590   26.0100 C   0  0  0  0  0  0  0  0  0  0  0  0
    4.1530   -2.7200   26.1120 C   0  0  0  0  0  0  0  0  0  0  0  0
    3.2820   -1.6230   26.1910 C   0  0  0  0  0  0  0  0  0  0  0  0
    1.9130   -1.7930   26.1710 C   0  0  0  0  0  0  0  0  0  0  0  0
    1.3560   -3.1970   26.0620 C   0  0  0  0  0  0  0  0  0  0  0  0
    6.3280   -4.7540   21.8220 C   0  0  0  0  0  0  0  0  0  0  0  0
    6.9510   -4.6170   23.2180 C   0  0  1  0  0  0  0  0  0  0  0  0
    5.8930   -4.0520   24.2220 C   0  0  1  0  0  0  0  0  0  0  0  0
    5.0740   -5.2610   24.3000 N   0  0  0  0  0  0  0  0  0  0  0  0
    4.3380   -5.5690   23.0940 C   0  0  0  0  0  0  0  0  0  0  0  0
    5.3350   -5.9370   22.0120 C   0  0  0  0  0  0  0  0  0  0  0  0
    8.8090   -2.5560   25.2060 C   0  0  0  0  0  0  0  0  0  0  0  0
  2  3  1  0
  1  7  1  0
  1  8  1  0
  6  8  2  0
  9  4  1  6
  8  9  1  0
 10 11  1  0
 10 12  1  0
 10 13  1  0
  5 14  1  0
  5 15  1  0
  5 16  1  0
 17 18  2  0
 18 19  1  0
 19 20  2  0
  9 21  1  0
 20 21  1  0
 17 22  1  0
 21 22  2  0
 23 24  2  0
 10 25  1  0
 24 25  1  0
 25 26  2  0
 26 27  1  0
  4 28  1  0
 23 28  1  0
 27 28  2  0
 29 30  2  0
  3 31  1  0
 30 31  1  0
  5 32  1  0
 31 32  2  0
  7 33  1  0
 32 33  1  0
 29 34  1  0
 33 34  2  0
 37 38  2  0
 38 39  1  0
 35 42  2  0
 36 42  2  0
 44 43  1  1
 45 46  2  0
 46 47  1  0
 48 36  1  0
 44 48  1  0
 48 49  1  0
 49 50  1  1
 50 51  1  0
 51 52  1  0
 52 53  1  0
 48 54  1  1
 53 54  1  0
 40 55  1  0
 42 56  1  1
 55 56  2  0
 41 57  1  0
 56 57  1  0
 57 58  2  0
 58 59  1  0
 55 60  1  0
 59 60  2  0
 61 38  1  0
 46 61  1  0
 49 62  1  0
 62 61  1  6
 44 63  1  0
 62 63  1  0
 42 64  1  0
 63 64  1  1
 64 65  1  0
 61 66  1  0
 65 66  1  0
 27 67  1  0
 52 67  1  0
M  END
