x1493-x1402
     RDKit          3D

 18 19  0  0  0  0  0  0  0  0999 V2000
    7.2420   -3.4900   20.0010 C   0  0  0  0  0  0  0  0  0  0  0  0
    5.2620   -4.7790   19.9500 O   0  0  0  0  0  0  0  0  0  0  0  0
    0.7000   -1.3620   26.1260 Cl  0  0  0  0  0  0  0  0  0  0  0  0
    6.3070   -4.5650   20.5450 C   0  0  0  0  0  0  0  0  0  0  0  0
    4.0350   -6.5530   25.9650 O   0  0  0  0  0  0  0  0  0  0  0  0
    6.1600   -5.3360   26.9950 O   0  0  0  0  0  0  0  0  0  0  0  0
    4.9780   -5.4600   25.9440 S   0  0  0  0  0  0  0  0  0  0  0  0
    6.6190   -5.3200   21.6650 N   0  0  0  0  0  0  0  0  0  0  0  0
    7.3470   -4.8500   22.8220 C   0  0  0  0  0  0  0  0  0  0  0  0
    6.3530   -4.2670   23.9370 C   0  0  0  0  0  0  0  0  0  0  0  0
    5.6320   -5.4650   24.3970 N   0  0  0  0  0  0  0  0  0  0  0  0
    4.8550   -5.8870   23.3370 C   0  0  0  0  0  0  0  0  0  0  0  0
    5.7370   -6.3160   22.1460 C   0  0  0  0  0  0  0  0  0  0  0  0
    2.3420   -3.8770   26.0110 S   0  0  0  0  0  0  0  0  0  0  0  0
    4.0760   -3.9400   25.9810 C   0  0  0  0  0  0  0  0  0  0  0  0
    4.7020   -2.5610   25.9980 C   0  0  0  0  0  0  0  0  0  0  0  0
    3.6270   -1.5210   26.0420 C   0  0  0  0  0  0  0  0  0  0  0  0
    2.2210   -2.1480   26.0590 C   0  0  0  0  0  0  0  0  0  0  0  0
  1  4  1  0
  2  4  2  0
  5  7  2  0
  6  7  2  0
  4  8  1  0
  8  9  1  0
  9 10  1  0
  7 11  1  0
 10 11  1  0
 11 12  1  0
  8 13  1  0
 12 13  1  0
  7 15  1  0
 14 15  1  0
 15 16  2  0
 16 17  1  0
  3 18  1  0
 14 18  1  0
 17 18  2  0
M  END
