x1493-x3124-x0771-x3113
     RDKit          3D

 53 56  0  0  0  0  0  0  0  0999 V2000
    7.2770   -1.2360   22.0150 N   0  0  0  0  0  0  0  0  0  0  0  0
    8.2280    1.6760   23.3770 N   0  0  0  0  0  0  0  0  0  0  0  0
    8.8060    1.6090   21.0840 O   0  0  0  0  0  0  0  0  0  0  0  0
   11.8260    3.8450   22.3190 O   0  0  0  0  0  0  0  0  0  0  0  0
    6.9440    0.2030   21.8140 C   0  0  1  0  0  0  0  0  0  0  0  0
    8.0810    1.1980   21.9990 C   0  0  0  0  0  0  0  0  0  0  0  0
    9.2930    2.5430   23.6090 C   0  0  0  0  0  0  0  0  0  0  0  0
   10.7210    1.9890   23.3020 C   0  0  0  0  0  0  0  0  0  0  0  0
   11.7120    3.1120   23.2880 C   0  0  0  0  0  0  0  0  0  0  0  0
   12.8490    4.5320   22.4250 C   0  0  0  0  0  0  0  0  0  0  0  0
   12.5560   -1.9120   24.2110 C   0  0  0  0  0  0  0  0  0  0  0  0
   13.5050   -2.0530   23.0370 C   0  0  0  0  0  0  0  0  0  0  0  0
   12.8660   -3.0890   25.1260 C   0  0  0  0  0  0  0  0  0  0  0  0
   12.7640   -0.6070   24.9600 C   0  0  0  0  0  0  0  0  0  0  0  0
    0.2170   -1.1950   26.1870 C   0  0  0  0  0  0  0  0  0  0  0  0
    4.1350   -6.5140   25.8410 O   0  0  0  0  0  0  0  0  0  0  0  0
    5.6430   -4.7600   26.8400 O   0  0  0  0  0  0  0  0  0  0  0  0
    5.4330   -3.8730   19.5900 O   0  0  0  0  0  0  0  0  0  0  0  0
    1.6620   -5.8200   25.0070 C   0  0  0  0  0  0  0  0  0  0  0  0
    6.3680   -3.9030   20.3890 C   0  0  0  0  0  0  0  0  0  0  0  0
    7.8340   -3.4760   20.1870 C   0  0  0  0  0  0  0  0  0  0  0  0
    4.6640   -5.1630   25.8500 S   0  0  0  0  0  0  0  0  0  0  0  0
    6.0970   -2.0560   22.3370 C   0  0  0  0  0  0  0  0  0  0  0  0
    6.3930   -5.8160   24.5300 C   0  0  0  0  0  0  0  0  0  0  0  0
    7.3840   -5.6580   26.7150 O   0  0  0  0  0  0  0  0  0  0  0  0
    7.4360   -5.4280   25.5180 C   0  0  0  0  0  0  0  0  0  0  0  0
    7.4120   -6.2540   21.2680 O   0  0  0  0  0  0  0  0  0  0  0  0
    7.4000   -5.2290   21.9060 C   0  0  0  0  0  0  0  0  0  0  0  0
    8.3840   -4.7120   22.7200 C   0  0  0  0  0  0  0  0  0  0  0  0
    6.3610    0.2150   17.8850 N   0  0  0  0  0  0  0  0  0  0  0  0
    5.2590    1.0210   17.8830 C   0  0  0  0  0  0  0  0  0  0  0  0
    4.6650    1.5580   19.0240 C   0  0  0  0  0  0  0  0  0  0  0  0
    5.1720    1.3080   20.2840 C   0  0  0  0  0  0  0  0  0  0  0  0
    6.3000    0.4990   20.3620 C   0  0  0  0  0  0  0  0  0  0  0  0
    6.9070   -0.0720   19.0770 C   0  0  0  0  0  0  0  0  0  0  0  0
    9.5610   -1.9880   21.8260 C   0  0  0  0  0  0  0  0  0  0  0  0
   10.8490   -2.1840   22.2810 C   0  0  0  0  0  0  0  0  0  0  0  0
   11.1550   -1.7650   23.6840 C   0  0  0  0  0  0  0  0  0  0  0  0
   10.1110   -1.2390   24.3850 C   0  0  0  0  0  0  0  0  0  0  0  0
    8.8320   -1.0540   23.9150 C   0  0  0  0  0  0  0  0  0  0  0  0
    8.5350   -1.4220   22.5950 C   0  0  0  0  0  0  0  0  0  0  0  0
    1.3050   -2.2130   26.0840 C   0  0  0  0  0  0  0  0  0  0  0  0
    1.0240   -3.5010   25.6150 C   0  0  0  0  0  0  0  0  0  0  0  0
    2.0270   -4.4520   25.5220 C   0  0  0  0  0  0  0  0  0  0  0  0
    3.3090   -4.0750   25.9140 C   0  0  0  0  0  0  0  0  0  0  0  0
    3.6210   -2.8160   26.3770 C   0  0  0  0  0  0  0  0  0  0  0  0
    2.6160   -1.8830   26.4620 C   0  0  0  0  0  0  0  0  0  0  0  0
    6.2200   -4.4170   21.8320 C   0  0  0  0  0  0  0  0  0  0  0  0
    5.2680   -5.4200   22.0400 C   0  0  0  0  0  0  0  0  0  0  0  0
    4.5770   -5.2150   23.1560 C   0  0  0  0  0  0  0  0  0  0  0  0
    5.3380   -4.8150   24.2640 C   0  0  1  0  0  0  0  0  0  0  0  0
    6.0650   -3.6390   24.0780 C   0  0  0  0  0  0  0  0  0  0  0  0
    6.4960   -3.4260   22.7640 C   0  0  2  0  0  0  0  0  0  0  0  0
  1  5  1  0
  2  6  1  0
  3  6  2  0
  5  6  1  6
  2  7  1  0
  7  8  1  0
  4  9  1  0
  8  9  1  0
  4 10  1  0
 11 12  1  0
 11 13  1  0
 11 14  1  0
 18 20  2  0
 20 21  1  0
 16 22  2  0
 17 22  2  0
  1 23  1  0
 24 26  1  0
 25 26  2  0
 27 28  2  0
 28 29  1  0
 30 31  2  0
 31 32  1  0
 32 33  2  0
  5 34  1  0
 33 34  1  0
 30 35  1  0
 34 35  2  0
 36 37  2  0
 11 38  1  0
 37 38  1  0
 38 39  2  0
 39 40  1  0
  1 41  1  0
 36 41  1  0
 40 41  2  0
 15 42  1  0
 42 43  2  0
 19 44  1  0
 43 44  1  0
 22 45  1  0
 44 45  2  0
 45 46  1  0
 42 47  1  0
 46 47  2  0
 48 20  1  0
 28 48  1  0
 48 49  1  0
 49 50  1  0
 22 51  1  0
 51 24  1  1
 50 51  1  0
 51 52  1  0
 53 23  1  6
 48 53  1  0
 52 53  1  0
M  END
