x1493-x2600
     RDKit          3D

 32 34  0  0  0  0  0  0  0  0999 V2000
    5.0160   -5.8970   26.1190 C   0  0  0  0  0  0  0  0  0  0  0  0
    7.4280   -5.3120   26.0940 O   0  0  0  0  0  0  0  0  0  0  0  0
    6.2280   -5.2670   25.4780 C   0  0  0  0  0  0  0  0  0  0  0  0
    5.2900   -4.6080   19.9180 O   0  0  0  0  0  0  0  0  0  0  0  0
    6.3560   -4.3670   20.4650 C   0  0  0  0  0  0  0  0  0  0  0  0
    7.3050   -3.3720   19.8230 C   0  0  0  0  0  0  0  0  0  0  0  0
   14.0970   -1.3260   20.2710 N   0  0  0  0  0  0  0  0  0  0  0  0
    8.2330   -0.2800   21.7960 C   0  0  0  0  0  0  0  0  0  0  0  0
    8.9820    0.6990   21.7890 O   0  0  0  0  0  0  0  0  0  0  0  0
    8.7590   -1.5660   22.4840 C   0  0  2  0  0  0  0  0  0  0  0  0
    6.8720   -0.5260   21.2430 N   0  0  0  0  0  0  0  0  0  0  0  0
   13.3420   -1.2950   21.4500 C   0  0  0  0  0  0  0  0  0  0  0  0
    6.4990   -2.7080   23.0900 C   0  0  0  0  0  0  0  0  0  0  0  0
    7.9470   -2.3710   23.5450 C   0  0  0  0  0  0  0  0  0  0  0  0
    6.0750   -4.6450   24.2250 N   0  0  0  0  0  0  0  0  0  0  0  0
    7.0480   -3.8830   23.6160 C   0  0  1  0  0  0  0  0  0  0  0  0
    7.5760   -4.5410   22.5590 C   0  0  0  0  0  0  0  0  0  0  0  0
    6.6790   -5.0140   21.6570 N   0  0  0  0  0  0  0  0  0  0  0  0
    5.7790   -5.8650   22.2050 C   0  0  0  0  0  0  0  0  0  0  0  0
    5.2630   -5.3600   23.3950 C   0  0  0  0  0  0  0  0  0  0  0  0
    6.3250    0.6370   17.7190 N   0  0  0  0  0  0  0  0  0  0  0  0
    6.9310   -0.0740   18.8830 C   0  0  0  0  0  0  0  0  0  0  0  0
    6.3940    0.0570   20.1470 C   0  0  0  0  0  0  0  0  0  0  0  0
    5.1650    0.9210   20.3720 C   0  0  0  0  0  0  0  0  0  0  0  0
    4.5600    1.6280   19.1960 C   0  0  0  0  0  0  0  0  0  0  0  0
    5.2010    1.4580   17.8160 C   0  0  0  0  0  0  0  0  0  0  0  0
   10.3120   -0.8350   24.3520 C   0  0  0  0  0  0  0  0  0  0  0  0
   11.7100   -0.5450   24.8420 C   0  0  0  0  0  0  0  0  0  0  0  0
   12.7520   -0.6690   23.9650 C   0  0  0  0  0  0  0  0  0  0  0  0
   12.4610   -1.0980   22.5550 C   0  0  0  0  0  0  0  0  0  0  0  0
   11.1450   -1.3570   22.1900 C   0  0  0  0  0  0  0  0  0  0  0  0
   10.0900   -1.2370   23.0430 C   0  0  0  0  0  0  0  0  0  0  0  0
  1  3  1  0
  2  3  2  0
  4  5  2  0
  5  6  1  0
  8  9  2  0
  8 10  1  0
  8 11  1  0
  7 12  3  0
 10 14  1  1
 13 14  1  0
  3 15  1  0
 16 13  1  6
 15 16  1  0
 16 17  1  0
  5 18  1  0
 17 18  1  0
 18 19  1  0
 15 20  1  0
 19 20  1  0
 21 22  2  0
 11 23  1  0
 22 23  1  0
 23 24  2  0
 24 25  1  0
 21 26  1  0
 25 26  2  0
 27 28  2  0
 28 29  1  0
 12 30  1  0
 29 30  2  0
 30 31  1  0
 10 32  1  0
 27 32  1  0
 31 32  2  0
M  END
