x1493-x2193-x0978-x2705
     RDKit          3D

 58 62  0  0  0  0  0  0  0  0999 V2000
    7.5480   -1.0710   21.8250 N   0  0  0  0  0  0  0  0  0  0  0  0
    7.5660    2.3290   22.8820 N   0  0  0  0  0  0  0  0  0  0  0  0
    8.9510    1.5610   21.1240 O   0  0  0  0  0  0  0  0  0  0  0  0
    6.9860    0.2720   21.6900 C   0  0  1  0  0  0  0  0  0  0  0  0
    7.9530    1.4080   21.8290 C   0  0  0  0  0  0  0  0  0  0  0  0
   10.1810    2.2140   23.9680 C   0  0  0  0  0  0  0  0  0  0  0  0
    9.3470    1.2890   24.9250 C   0  0  0  0  0  0  0  0  0  0  0  0
    6.2830    4.7690   21.9680 C   0  0  0  0  0  0  0  0  0  0  0  0
   12.3310   -1.3960   23.3960 C   0  0  0  0  0  0  0  0  0  0  0  0
   12.8110   -0.0660   23.8980 C   0  0  0  0  0  0  0  0  0  0  0  0
   12.8060   -2.4850   24.3820 C   0  0  0  0  0  0  0  0  0  0  0  0
   12.9440   -1.6550   22.0180 C   0  0  0  0  0  0  0  0  0  0  0  0
    2.3160   -5.5600   23.0960 N   0  0  0  0  0  0  0  0  0  0  0  0
    2.0980   -8.1570   24.3840 C   0  0  0  0  0  0  0  0  0  0  0  0
    4.4100   -7.9350   24.8800 O   0  0  0  0  0  0  0  0  0  0  0  0
    3.2890   -7.1910   24.5070 C   0  0  1  0  0  0  0  0  0  0  0  0
    1.0380   -7.3980   21.9580 O   0  0  0  0  0  0  0  0  0  0  0  0
    3.5630   -6.3130   23.2610 C   0  0  2  0  0  0  0  0  0  0  0  0
    4.2960   -4.0650   23.6120 O   0  0  0  0  0  0  0  0  0  0  0  0
    1.0860   -6.1650   22.6550 C   0  0  0  0  0  0  0  0  0  0  0  0
   -0.2010   -5.3900   22.9720 C   0  0  0  0  0  0  0  0  0  0  0  0
    6.4450   -2.0030   22.0170 C   0  0  0  0  0  0  0  0  0  0  0  0
    6.8300   -3.3310   22.5940 C   0  0  0  0  0  0  0  0  0  0  0  0
    4.8880   -5.5560   26.1770 C   0  0  0  0  0  0  0  0  0  0  0  0
    7.2130   -5.8050   26.2820 N   0  0  0  0  0  0  0  0  0  0  0  0
    6.0890   -5.6750   25.4580 C   0  0  0  0  0  0  0  0  0  0  0  0
    5.4280   -4.2460   19.7790 O   0  0  0  0  0  0  0  0  0  0  0  0
    6.5080   -4.0450   20.3170 C   0  0  0  0  0  0  0  0  0  0  0  0
    7.6300   -3.2840   19.6180 C   0  0  0  0  0  0  0  0  0  0  0  0
    6.3490    0.3920   17.7590 N   0  0  0  0  0  0  0  0  0  0  0  0
    5.1810    1.2670   17.6930 C   0  0  0  0  0  0  0  0  0  0  0  0
    4.6820    1.7220   18.8770 C   0  0  0  0  0  0  0  0  0  0  0  0
    5.1230    1.4900   20.1480 C   0  0  0  0  0  0  0  0  0  0  0  0
    6.3480    0.6030   20.3390 C   0  0  0  0  0  0  0  0  0  0  0  0
    6.8580    0.1070   18.9830 C   0  0  0  0  0  0  0  0  0  0  0  0
   10.0060   -1.3980   24.3200 N   0  0  0  0  0  0  0  0  0  0  0  0
    8.6780   -1.3100   23.9420 N   0  0  0  0  0  0  0  0  0  0  0  0
    8.6510   -1.1990   22.5930 C   0  0  0  0  0  0  0  0  0  0  0  0
   10.0820   -1.2300   22.1590 C   0  0  0  0  0  0  0  0  0  0  0  0
   10.8320   -1.3450   23.2560 C   0  0  0  0  0  0  0  0  0  0  0  0
    9.5610    3.5560   23.5250 C   0  0  0  0  0  0  0  0  0  0  0  0
   10.2520    4.7620   23.6380 C   0  0  0  0  0  0  0  0  0  0  0  0
    9.6560    5.9670   23.2140 C   0  0  0  0  0  0  0  0  0  0  0  0
    8.3660    5.9310   22.6770 C   0  0  0  0  0  0  0  0  0  0  0  0
    7.6670    4.7250   22.5620 C   0  0  0  0  0  0  0  0  0  0  0  0
    8.2740    3.5330   22.9960 C   0  0  0  0  0  0  0  0  0  0  0  0
    8.5170   -5.9660   25.8980 N   0  0  0  0  0  0  0  0  0  0  0  0
    9.4250   -5.1370   26.6760 C   0  0  0  0  0  0  0  0  0  0  0  0
    9.2010   -3.8100   26.3810 C   0  0  0  0  0  0  0  0  0  0  0  0
    8.9440   -3.5260   24.9690 N   0  0  0  0  0  0  0  0  0  0  0  0
    9.5750   -4.5990   24.2030 C   0  0  0  0  0  0  0  0  0  0  0  0
    8.9540   -5.8210   24.4770 C   0  0  0  0  0  0  0  0  0  0  0  0
    6.0750   -5.6740   24.0440 N   0  0  0  0  0  0  0  0  0  0  0  0
    7.2590   -6.1660   23.2840 C   0  0  0  0  0  0  0  0  0  0  0  0
    7.5540   -5.4710   22.1190 C   0  0  0  0  0  0  0  0  0  0  0  0
    6.6050   -4.5810   21.7720 C   0  0  1  0  0  0  0  0  0  0  0  0
    5.3020   -5.0270   21.9570 C   0  0  0  0  0  0  0  0  0  0  0  0
    4.8450   -5.3340   23.2340 C   0  0  1  0  0  0  0  0  0  0  0  0
  1  4  1  0
  2  5  1  0
  3  5  2  0
  4  5  1  6
  6  7  1  0
  9 10  1  0
  9 11  1  0
  9 12  1  0
 16 14  1  6
 15 16  1  0
 18 13  1  1
 16 18  1  0
 13 20  1  0
 17 20  2  0
 20 21  1  0
  1 22  1  0
 22 23  1  0
 24 26  1  0
 25 26  2  3
 27 28  2  0
 28 29  1  0
 30 31  2  0
 31 32  1  0
 32 33  2  0
  4 34  1  0
 33 34  1  0
 30 35  1  0
 34 35  2  0
 36 37  1  0
  1 38  1  0
 37 38  2  0
 38 39  1  0
  9 40  1  0
 36 40  1  0
 39 40  2  0
  6 41  1  0
 41 42  2  0
 42 43  1  0
 43 44  2  0
  8 45  1  0
 44 45  1  0
  2 46  1  0
 41 46  1  0
 45 46  2  0
 25 47  1  0
 47 48  1  0
 48 49  1  0
 49 50  1  0
 50 51  1  0
 47 52  1  0
 51 52  1  0
 26 53  1  0
 53 54  1  0
 54 55  1  0
 56 23  1  1
 56 28  1  0
 55 56  1  0
 56 57  1  0
 18 58  1  0
 58 19  1  1
 53 58  1  0
 57 58  1  0
M  END
