x1493-x2540-x0731-x3113
     RDKit          3D

 55 60  0  0  0  0  0  0  0  0999 V2000
    7.4430   -1.2770   21.8300 N   0  0  0  0  0  0  0  0  0  0  0  0
    8.2600    1.5770   23.1500 N   0  0  0  0  0  0  0  0  0  0  0  0
    8.8590    1.5800   20.9630 O   0  0  0  0  0  0  0  0  0  0  0  0
   11.7980    4.1800   23.3680 O   0  0  0  0  0  0  0  0  0  0  0  0
    7.0150    0.1590   21.6390 C   0  0  1  0  0  0  0  0  0  0  0  0
    8.1460    1.1540   21.8510 C   0  0  0  0  0  0  0  0  0  0  0  0
    9.2010    2.6230   23.5910 C   0  0  0  0  0  0  0  0  0  0  0  0
   10.6360    2.0570   23.4650 C   0  0  0  0  0  0  0  0  0  0  0  0
   11.7110    3.0160   23.0040 C   0  0  0  0  0  0  0  0  0  0  0  0
   13.0110    4.7780   22.9080 C   0  0  0  0  0  0  0  0  0  0  0  0
   12.5800   -2.3700   24.7240 C   0  0  1  0  0  0  0  0  0  0  0  0
   13.4160   -2.5320   23.4870 C   0  0  0  0  0  0  0  0  0  0  0  0
   11.5560   -3.3060   25.2050 C   0  0  0  0  0  0  0  0  0  0  0  0
   12.5470   -0.8950   24.8960 C   0  0  0  0  0  0  0  0  0  0  0  0
   12.4610   -1.4280   23.4750 C   0  0  2  0  0  0  0  0  0  0  0  0
    8.8280    2.9700   25.0200 C   0  0  0  0  0  0  0  0  0  0  0  0
    8.9670    3.8920   22.7400 C   0  0  0  0  0  0  0  0  0  0  0  0
    0.7530   -0.6710   26.1870 C   0  0  0  0  0  0  0  0  0  0  0  0
    5.9490   -4.5890   26.9010 O   0  0  0  0  0  0  0  0  0  0  0  0
    4.3640   -6.2890   25.9310 O   0  0  0  0  0  0  0  0  0  0  0  0
    6.0770   -5.2020   19.9950 O   0  0  0  0  0  0  0  0  0  0  0  0
    6.9050   -4.5560   20.6520 C   0  0  0  0  0  0  0  0  0  0  0  0
    8.0330   -3.6770   20.1510 C   0  0  0  0  0  0  0  0  0  0  0  0
    5.0580   -5.0220   25.8480 S   0  0  0  0  0  0  0  0  0  0  0  0
    6.4940   -2.1850   22.4830 C   0  0  0  0  0  0  0  0  0  0  0  0
    6.8660   -6.0050   26.6140 C   0  0  0  0  0  0  0  0  0  0  0  0
    8.2770   -5.8830   24.9110 O   0  0  0  0  0  0  0  0  0  0  0  0
    7.1550   -5.6850   25.2780 C   0  0  0  0  0  0  0  0  0  0  0  0
    4.1660   -4.0580   21.8910 O   0  0  0  0  0  0  0  0  0  0  0  0
    5.4350   -3.8440   21.4170 C   0  0  0  0  0  0  0  0  0  0  0  0
    5.6900   -3.0490   20.2810 C   0  0  0  0  0  0  0  0  0  0  0  0
    6.3620    0.1850   17.9270 N   0  0  0  0  0  0  0  0  0  0  0  0
    5.2520    0.9540   17.9010 C   0  0  0  0  0  0  0  0  0  0  0  0
    4.6480    1.4860   19.0290 C   0  0  0  0  0  0  0  0  0  0  0  0
    5.1910    1.2410   20.2770 C   0  0  0  0  0  0  0  0  0  0  0  0
    6.3490    0.4510   20.3270 C   0  0  0  0  0  0  0  0  0  0  0  0
    6.8930   -0.0560   19.1430 C   0  0  0  0  0  0  0  0  0  0  0  0
    9.8550   -1.2450   21.9570 C   0  0  0  0  0  0  0  0  0  0  0  0
   11.3000   -1.3110   22.5940 C   0  0  0  0  0  0  0  0  0  0  0  0
   10.9010   -1.5630   23.9210 C   0  0  0  0  0  0  0  0  0  0  0  0
    9.6800   -1.7200   24.5760 C   0  0  0  0  0  0  0  0  0  0  0  0
    8.4770   -1.6340   23.9150 C   0  0  0  0  0  0  0  0  0  0  0  0
    8.6120   -1.3860   22.5570 C   0  0  0  0  0  0  0  0  0  0  0  0
    1.7760   -1.7480   26.0540 C   0  0  0  0  0  0  0  0  0  0  0  0
    1.4110   -2.9710   25.4660 C   0  0  0  0  0  0  0  0  0  0  0  0
    2.4350   -4.1300   25.3270 C   0  0  0  0  0  0  0  0  0  0  0  0
    3.8060   -3.8140   25.8740 C   0  0  0  0  0  0  0  0  0  0  0  0
    4.0950   -2.5810   26.4280 C   0  0  0  0  0  0  0  0  0  0  0  0
    3.0640   -1.4730   26.5410 C   0  0  0  0  0  0  0  0  0  0  0  0
    6.5850   -4.5110   22.0950 C   0  0  0  0  0  0  0  0  0  0  0  0
    7.0540   -3.5630   22.9470 C   0  0  2  0  0  0  0  0  0  0  0  0
    6.6430   -3.8320   24.2790 C   0  0  0  0  0  0  0  0  0  0  0  0
    6.0880   -5.0750   24.3750 C   0  0  2  0  0  0  0  0  0  0  0  0
    5.4700   -6.0300   23.5780 C   0  0  0  0  0  0  0  0  0  0  0  0
    6.4200   -5.9400   22.6870 C   0  0  0  0  0  0  0  0  0  0  0  0
  1  5  1  0
  2  6  1  0
  3  6  2  0
  5  6  1  6
  7  2  1  0
  7  8  1  0
  4  9  1  0
  8  9  1  0
  4 10  1  0
 11 12  1  0
 11 13  1  6
 11 14  1  0
 11 15  1  0
 12 15  1  0
 14 15  1  0
  7 16  1  0
  7 17  1  0
 21 22  2  0
 22 23  1  0
 19 24  2  0
 20 24  2  0
  1 25  1  0
 26 28  1  0
 27 28  2  0
 29 30  2  0
 30 31  1  0
 32 33  2  0
 33 34  1  0
 34 35  2  0
  5 36  1  0
 35 36  1  0
 32 37  1  0
 36 37  2  0
 15 39  1  6
 38 39  2  0
 39 40  1  0
 40 41  2  0
 41 42  1  0
  1 43  1  0
 38 43  1  0
 42 43  2  0
 18 44  1  0
 44 45  2  0
 45 46  1  0
 24 47  1  0
 46 47  2  0
 47 48  1  0
 44 49  1  0
 48 49  2  0
 50 22  1  0
 30 50  1  0
 51 25  1  6
 50 51  1  0
 51 52  1  0
 24 53  1  0
 53 28  1  1
 52 53  1  0
 53 54  1  0
 50 55  1  0
 54 55  1  0
M  END
