x1493-x2705-x0978
     RDKit          3D

 52 55  0  0  0  0  0  0  0  0999 V2000
    7.4210   -1.1060   21.7420 N   0  0  0  0  0  0  0  0  0  0  0  0
    7.5970    2.2590   22.7380 N   0  0  0  0  0  0  0  0  0  0  0  0
    8.9400    1.5140   21.0720 O   0  0  0  0  0  0  0  0  0  0  0  0
    6.8830    0.2490   21.5550 C   0  0  1  0  0  0  0  0  0  0  0  0
    7.9230    1.3760   21.7430 C   0  0  0  0  0  0  0  0  0  0  0  0
   10.2250    2.1890   23.9370 C   0  0  0  0  0  0  0  0  0  0  0  0
    9.3060    1.3560   24.8640 C   0  0  0  0  0  0  0  0  0  0  0  0
    6.2810    4.6620   21.9040 C   0  0  0  0  0  0  0  0  0  0  0  0
   12.2870   -1.4260   23.2760 C   0  0  0  0  0  0  0  0  0  0  0  0
   12.8230   -0.0730   23.7510 C   0  0  0  0  0  0  0  0  0  0  0  0
   12.7780   -2.5090   24.3140 C   0  0  0  0  0  0  0  0  0  0  0  0
   12.8900   -1.7660   21.9020 C   0  0  0  0  0  0  0  0  0  0  0  0
    2.2530   -5.5020   23.3940 N   0  0  0  0  0  0  0  0  0  0  0  0
    2.2010   -7.4920   25.0890 C   0  0  0  0  0  0  0  0  0  0  0  0
    4.4310   -7.8850   24.7300 O   0  0  0  0  0  0  0  0  0  0  0  0
    3.2300   -7.4620   24.1430 C   0  0  2  0  0  0  0  0  0  0  0  0
    1.0680   -7.3670   21.9840 O   0  0  0  0  0  0  0  0  0  0  0  0
    3.4650   -6.3530   23.3500 C   0  0  2  0  0  0  0  0  0  0  0  0
    4.3770   -4.1090   23.7780 O   0  0  0  0  0  0  0  0  0  0  0  0
    1.1010   -6.1430   22.7380 C   0  0  0  0  0  0  0  0  0  0  0  0
   -0.1380   -5.4890   22.8440 C   0  0  0  0  0  0  0  0  0  0  0  0
    6.4460   -2.1760   21.6170 C   0  0  0  0  0  0  0  0  0  0  0  0
    6.5610   -3.1720   22.5720 C   0  0  0  0  0  0  0  0  0  0  0  0
    4.5600   -6.1050   26.5710 C   0  0  0  0  0  0  0  0  0  0  0  0
    6.9590   -5.5760   26.5680 O   0  0  0  0  0  0  0  0  0  0  0  0
    5.8400   -5.7650   25.8140 C   0  0  0  0  0  0  0  0  0  0  0  0
    5.8340   -4.3740   19.8480 O   0  0  0  0  0  0  0  0  0  0  0  0
    6.7840   -4.2450   20.6270 C   0  0  0  0  0  0  0  0  0  0  0  0
    8.1300   -3.6470   20.2480 C   0  0  0  0  0  0  0  0  0  0  0  0
    6.3190    0.3240   17.8340 N   0  0  0  0  0  0  0  0  0  0  0  0
    5.2130    1.0800   17.8180 C   0  0  0  0  0  0  0  0  0  0  0  0
    4.5870    1.5840   18.9420 C   0  0  0  0  0  0  0  0  0  0  0  0
    5.1180    1.3160   20.1960 C   0  0  0  0  0  0  0  0  0  0  0  0
    6.2740    0.5370   20.2260 C   0  0  0  0  0  0  0  0  0  0  0  0
    6.8340    0.0610   19.0450 C   0  0  0  0  0  0  0  0  0  0  0  0
    9.7990   -1.3310   24.3590 N   0  0  0  0  0  0  0  0  0  0  0  0
    8.4740   -1.2550   23.9990 N   0  0  0  0  0  0  0  0  0  0  0  0
    8.4840   -1.2150   22.6230 C   0  0  0  0  0  0  0  0  0  0  0  0
    9.8600   -1.2790   22.0500 C   0  0  0  0  0  0  0  0  0  0  0  0
   10.7830   -1.3560   23.2310 C   0  0  0  0  0  0  0  0  0  0  0  0
    9.5590    3.4970   23.5180 C   0  0  0  0  0  0  0  0  0  0  0  0
   10.2950    4.8200   23.7290 C   0  0  0  0  0  0  0  0  0  0  0  0
    9.5410    6.0600   23.2660 C   0  0  0  0  0  0  0  0  0  0  0  0
    8.2670    5.9430   22.6940 C   0  0  0  0  0  0  0  0  0  0  0  0
    7.6550    4.6930   22.5350 C   0  0  0  0  0  0  0  0  0  0  0  0
    8.3030    3.5400   22.9430 C   0  0  0  0  0  0  0  0  0  0  0  0
    5.9390   -5.6590   24.4750 N   0  0  0  0  0  0  0  0  0  0  0  0
    7.3520   -5.2410   24.1330 C   0  0  0  0  0  0  0  0  0  0  0  0
    7.5790   -5.2390   22.7630 C   0  0  0  0  0  0  0  0  0  0  0  0
    6.5680   -4.6510   22.0790 C   0  0  1  0  0  0  0  0  0  0  0  0
    5.3380   -5.2640   22.1940 C   0  0  0  0  0  0  0  0  0  0  0  0
    4.8160   -5.4240   23.4720 C   0  0  1  0  0  0  0  0  0  0  0  0
  1  4  1  0
  2  5  1  0
  3  5  2  0
  4  5  1  6
  6  7  1  0
  9 10  1  0
  9 11  1  0
  9 12  1  0
 16 14  1  1
 15 16  1  0
 18 13  1  1
 16 18  1  0
 13 20  1  0
 17 20  2  0
 20 21  1  0
  1 22  1  0
 22 23  1  0
 24 26  1  0
 25 26  2  0
 27 28  2  0
 28 29  1  0
 30 31  2  0
 31 32  1  0
 32 33  2  0
  4 34  1  0
 33 34  1  0
 30 35  1  0
 34 35  2  0
 36 37  1  0
  1 38  1  0
 37 38  2  0
 38 39  1  0
  9 40  1  0
 36 40  1  0
 39 40  2  0
  6 41  1  0
 41 42  2  0
 42 43  1  0
 43 44  2  0
  8 45  1  0
 44 45  1  0
  2 46  1  0
 41 46  1  0
 45 46  2  0
 26 47  1  0
 47 48  1  0
 48 49  1  0
 50 23  1  1
 50 28  1  0
 49 50  1  0
 50 51  1  0
 18 52  1  0
 52 19  1  1
 47 52  1  0
 51 52  1  0
M  END
