x1493-x0771
     RDKit          3D

 21 22  0  0  0  0  0  0  0  0999 V2000
   -0.7580   -1.4300   25.7300 C   0  0  0  0  0  0  0  0  0  0  0  0
    4.2790   -4.6650   23.1660 O   0  0  0  0  0  0  0  0  0  0  0  0
    5.9030   -4.4700   25.8140 C   0  0  0  0  0  0  0  0  0  0  0  0
    5.2410   -3.7300   19.4550 O   0  0  0  0  0  0  0  0  0  0  0  0
    1.4130   -5.7440   23.7410 C   0  0  0  0  0  0  0  0  0  0  0  0
    6.3750   -3.9090   19.9080 C   0  0  0  0  0  0  0  0  0  0  0  0
    7.5510   -3.0540   19.4080 C   0  0  0  0  0  0  0  0  0  0  0  0
    4.6170   -4.3710   24.5390 S   0  0  0  0  0  0  0  0  0  0  0  0
    6.7340   -4.5330   26.6390 O   0  0  0  0  0  0  0  0  0  0  0  0
    0.5400   -2.1740   25.4280 C   0  0  0  0  0  0  0  0  0  0  0  0
    0.4760   -3.5560   24.7670 C   0  0  0  0  0  0  0  0  0  0  0  0
    1.7330   -4.3770   24.4140 C   0  0  0  0  0  0  0  0  0  0  0  0
    3.0540   -3.6820   24.7990 C   0  0  0  0  0  0  0  0  0  0  0  0
    3.0660   -2.2620   25.4790 C   0  0  0  0  0  0  0  0  0  0  0  0
    1.9030   -1.5880   25.7570 C   0  0  0  0  0  0  0  0  0  0  0  0
    6.5530   -4.8870   20.8920 N   0  0  0  0  0  0  0  0  0  0  0  0
    5.5470   -5.8510   21.0890 C   0  0  0  0  0  0  0  0  0  0  0  0
    5.0600   -6.0510   22.3970 C   0  0  0  0  0  0  0  0  0  0  0  0
    5.6470   -5.1450   23.4170 N   0  0  0  0  0  0  0  0  0  0  0  0
    6.9380   -4.4860   23.1590 C   0  0  0  0  0  0  0  0  0  0  0  0
    7.4930   -4.8310   21.9660 C   0  0  0  0  0  0  0  0  0  0  0  0
  4  6  2  0
  6  7  1  0
  2  8  2  0
  3  8  2  0
  3  9  2  0
  1 10  1  0
 10 11  2  0
  5 12  1  0
 11 12  1  0
  8 13  1  0
 12 13  2  0
 13 14  1  0
 10 15  1  0
 14 15  2  0
  6 16  1  0
 16 17  1  0
 17 18  1  0
  8 19  1  0
 18 19  1  0
 19 20  1  0
 16 21  1  0
 20 21  1  0
M  END
