x1493-x0731
     RDKit          3D

 19 20  0  0  0  0  0  0  0  0999 V2000
    0.8430   -0.9600   25.9500 C   0  0  0  0  0  0  0  0  0  0  0  0
    6.4900   -4.9110   26.7460 O   0  0  0  0  0  0  0  0  0  0  0  0
    4.7810   -6.5960   25.9830 O   0  0  0  0  0  0  0  0  0  0  0  0
    5.2640   -5.0790   19.9850 O   0  0  0  0  0  0  0  0  0  0  0  0
    6.2510   -4.5700   20.4670 C   0  0  0  0  0  0  0  0  0  0  0  0
    6.9340   -3.4510   19.7010 C   0  0  0  0  0  0  0  0  0  0  0  0
    5.4220   -5.3090   25.8640 S   0  0  0  0  0  0  0  0  0  0  0  0
    1.9490   -2.0090   25.9200 C   0  0  0  0  0  0  0  0  0  0  0  0
    1.7050   -3.2350   25.3880 C   0  0  0  0  0  0  0  0  0  0  0  0
    2.7740   -4.3290   25.3370 C   0  0  0  0  0  0  0  0  0  0  0  0
    4.1610   -4.0770   25.8880 C   0  0  0  0  0  0  0  0  0  0  0  0
    4.4070   -2.6820   26.4760 C   0  0  0  0  0  0  0  0  0  0  0  0
    3.2190   -1.6960   26.4480 C   0  0  0  0  0  0  0  0  0  0  0  0
    6.7370   -5.0560   21.6690 N   0  0  0  0  0  0  0  0  0  0  0  0
    7.3310   -4.1590   22.7030 C   0  0  0  0  0  0  0  0  0  0  0  0
    6.6090   -4.1170   23.8550 C   0  0  0  0  0  0  0  0  0  0  0  0
    6.0150   -5.2370   24.3010 N   0  0  0  0  0  0  0  0  0  0  0  0
    5.4800   -6.0320   23.3640 C   0  0  0  0  0  0  0  0  0  0  0  0
    6.1940   -6.2410   22.1990 C   0  0  0  0  0  0  0  0  0  0  0  0
  4  5  2  0
  5  6  1  0
  2  7  2  0
  3  7  2  0
  1  8  1  0
  8  9  2  0
  9 10  1  0
  7 11  1  0
 10 11  2  0
 11 12  1  0
  8 13  1  0
 12 13  2  0
  5 14  1  0
 14 15  1  0
 15 16  1  0
  7 17  1  0
 16 17  1  0
 17 18  1  0
 14 19  1  0
 18 19  1  0
M  END
