x1493-x2563
     RDKit          3D

 34 37  0  0  0  0  0  0  0  0999 V2000
    4.8380   -6.1590   26.0430 C   0  0  0  0  0  0  0  0  0  0  0  0
    7.2570   -5.5400   26.2130 O   0  0  0  0  0  0  0  0  0  0  0  0
    6.0980   -5.5270   25.5150 C   0  0  0  0  0  0  0  0  0  0  0  0
    5.3530   -5.1170   19.9920 O   0  0  0  0  0  0  0  0  0  0  0  0
    6.3450   -4.5790   20.4220 C   0  0  0  0  0  0  0  0  0  0  0  0
    7.0480   -3.5060   19.6040 C   0  0  0  0  0  0  0  0  0  0  0  0
    8.5670    0.0800   21.1570 C   0  0  0  0  0  0  0  0  0  0  0  0
    8.3410    1.2790   20.9280 O   0  0  0  0  0  0  0  0  0  0  0  0
    7.3960   -0.8710   21.0070 C   0  0  1  0  0  0  0  0  0  0  0  0
    9.7690   -0.6120   21.5300 N   0  0  0  0  0  0  0  0  0  0  0  0
    6.0710   -2.6670   22.1070 C   0  0  0  0  0  0  0  0  0  0  0  0
    6.7580   -1.3160   22.1950 C   0  0  0  0  0  0  0  0  0  0  0  0
    6.0290   -4.9160   24.2800 N   0  0  0  0  0  0  0  0  0  0  0  0
    7.0660   -3.9490   23.9270 C   0  0  0  0  0  0  0  0  0  0  0  0
    7.1490   -3.6910   22.4030 C   0  0  1  0  0  0  0  0  0  0  0  0
    6.8730   -4.8830   21.6430 N   0  0  0  0  0  0  0  0  0  0  0  0
    6.4730   -5.9750   22.3430 C   0  0  0  0  0  0  0  0  0  0  0  0
    5.4800   -5.6200   23.2600 C   0  0  0  0  0  0  0  0  0  0  0  0
    6.3320    0.5370   17.7350 N   0  0  0  0  0  0  0  0  0  0  0  0
    5.1950    1.2100   18.0130 C   0  0  0  0  0  0  0  0  0  0  0  0
    4.6330    1.2750   19.2890 C   0  0  0  0  0  0  0  0  0  0  0  0
    5.2360    0.6320   20.3850 C   0  0  0  0  0  0  0  0  0  0  0  0
    6.5130   -0.1090   20.0590 C   0  0  0  0  0  0  0  0  0  0  0  0
    6.8800   -0.0150   18.5970 C   0  0  0  0  0  0  0  0  0  0  0  0
    3.3390    2.0440   19.5800 C   0  0  0  0  0  0  0  0  0  0  0  0
    2.8030    2.0590   21.0010 C   0  0  0  0  0  0  0  0  0  0  0  0
    3.5380    1.3300   22.1010 C   0  0  0  0  0  0  0  0  0  0  0  0
    4.7140    0.6600   21.7230 C   0  0  0  0  0  0  0  0  0  0  0  0
   11.8490   -0.6280   22.6610 C   0  0  0  0  0  0  0  0  0  0  0  0
   12.6050   -0.5280   23.8050 C   0  0  0  0  0  0  0  0  0  0  0  0
   11.9960   -0.3050   25.0020 C   0  0  0  0  0  0  0  0  0  0  0  0
   10.5470   -0.1410   25.1890 C   0  0  0  0  0  0  0  0  0  0  0  0
    9.7480   -0.2500   23.9240 C   0  0  0  0  0  0  0  0  0  0  0  0
   10.4500   -0.4940   22.7210 C   0  0  0  0  0  0  0  0  0  0  0  0
  1  3  1  0
  2  3  2  0
  4  5  2  0
  5  6  1  0
  7  8  2  0
  7  9  1  0
  7 10  1  0
  9 12  1  1
 11 12  1  0
  3 13  1  0
 13 14  1  0
 15 11  1  6
 14 15  1  0
  5 16  1  0
 15 16  1  0
 16 17  1  0
 13 18  1  0
 17 18  1  0
 19 20  2  0
 20 21  1  0
 21 22  2  0
  9 23  1  0
 22 23  1  0
 19 24  1  0
 23 24  2  0
 21 25  1  0
 25 26  2  0
 26 27  1  0
 22 28  1  0
 27 28  2  0
 29 30  2  0
 30 31  1  0
 31 32  2  0
 32 33  1  0
 10 34  1  0
 29 34  1  0
 33 34  2  0
M  END
