x1493-x0946-x3110-x1077
     RDKit          3D

 53 58  0  0  0  0  0  0  0  0999 V2000
    8.2990    1.6640   23.1890 N   0  0  0  0  0  0  0  0  0  0  0  0
   13.2530    5.1670   21.4930 C   0  0  0  0  0  0  0  0  0  0  0  0
   13.2030    4.7830   22.9090 C   0  0  0  0  0  0  0  0  0  0  0  0
    7.5270   -1.3750   21.8100 N   0  0  0  0  0  0  0  0  0  0  0  0
   10.3960    5.0450   23.7990 C   0  0  0  0  0  0  0  0  0  0  0  0
    8.5530    1.6370   20.8120 O   0  0  0  0  0  0  0  0  0  0  0  0
    8.9310    2.2910   24.2460 C   0  0  0  0  0  0  0  0  0  0  0  0
    7.9610    1.1140   21.9000 C   0  0  0  0  0  0  0  0  0  0  0  0
    6.9550   -0.0190   21.6450 C   0  0  1  0  0  0  0  0  0  0  0  0
   12.4970   -1.9740   24.3270 C   0  0  0  0  0  0  0  0  0  0  0  0
   12.7460   -0.6730   25.0900 C   0  0  0  0  0  0  0  0  0  0  0  0
   13.4970   -2.0670   23.1820 C   0  0  0  0  0  0  0  0  0  0  0  0
   12.7460   -3.1410   25.2870 C   0  0  0  0  0  0  0  0  0  0  0  0
    9.2620    5.2660   22.9540 N   0  0  0  0  0  0  0  0  0  0  0  0
    9.9320    5.4210   25.0540 O   0  0  0  0  0  0  0  0  0  0  0  0
   11.3050    6.1030   23.5080 O   0  0  0  0  0  0  0  0  0  0  0  0
    6.3160    0.2680   17.8300 N   0  0  0  0  0  0  0  0  0  0  0  0
    5.1750    1.0590   17.8400 C   0  0  0  0  0  0  0  0  0  0  0  0
    4.4080    1.6090   19.0510 C   0  0  0  0  0  0  0  0  0  0  0  0
    5.0680    1.1880   20.2820 C   0  0  0  0  0  0  0  0  0  0  0  0
    6.3210    0.3340   20.3400 C   0  0  0  0  0  0  0  0  0  0  0  0
    6.8340   -0.0590   19.0130 C   0  0  0  0  0  0  0  0  0  0  0  0
    9.8140   -1.2600   21.8030 C   0  0  0  0  0  0  0  0  0  0  0  0
   11.0210   -1.3760   22.3160 C   0  0  0  0  0  0  0  0  0  0  0  0
   11.1370   -1.8680   23.6910 C   0  0  0  0  0  0  0  0  0  0  0  0
    9.9370   -2.1790   24.3010 C   0  0  0  0  0  0  0  0  0  0  0  0
    8.5660   -2.1020   23.8290 C   0  0  0  0  0  0  0  0  0  0  0  0
    8.6750   -1.5830   22.4810 C   0  0  0  0  0  0  0  0  0  0  0  0
   12.2540    1.0860   23.1000 C   0  0  0  0  0  0  0  0  0  0  0  0
   12.9560    2.3460   22.8920 C   0  0  0  0  0  0  0  0  0  0  0  0
   12.3370    3.5700   23.1360 C   0  0  0  0  0  0  0  0  0  0  0  0
   11.0220    3.6520   23.5760 C   0  0  0  0  0  0  0  0  0  0  0  0
   10.3540    2.4310   23.7800 C   0  0  0  0  0  0  0  0  0  0  0  0
   10.9410    1.1680   23.5550 C   0  0  0  0  0  0  0  0  0  0  0  0
    5.0940   -5.5180   26.3720 C   0  0  0  0  0  0  0  0  0  0  0  0
    6.1700   -5.5430   25.5320 C   0  0  0  0  0  0  0  0  0  0  0  0
    5.2560   -4.1140   19.7060 O   0  0  0  0  0  0  0  0  0  0  0  0
    6.4050   -4.0160   20.1140 C   0  0  0  0  0  0  0  0  0  0  0  0
    7.5230   -3.2410   19.4020 C   0  0  0  0  0  0  0  0  0  0  0  0
    7.5070   -5.6450   25.6170 C   0  0  0  0  0  0  0  0  0  0  0  0
    7.7660   -5.6770   24.1940 C   0  0  2  0  0  0  0  0  0  0  0  0
    8.7160   -4.8950   23.6410 C   0  0  0  0  0  0  0  0  0  0  0  0
    9.8150   -4.6970   24.4110 C   0  0  0  0  0  0  0  0  0  0  0  0
    9.4920   -3.8410   25.5550 N   0  0  0  0  0  0  0  0  0  0  0  0
    9.0130   -4.4880   26.7940 C   0  0  0  0  0  0  0  0  0  0  0  0
    8.4500   -5.7450   26.5630 C   0  0  0  0  0  0  0  0  0  0  0  0
    6.4230   -5.4040   24.0530 C   0  0  0  0  0  0  0  0  0  0  0  0
    6.0460   -4.2570   23.4000 C   0  0  0  0  0  0  0  0  0  0  0  0
    6.8020   -3.6640   22.3690 C   0  0  0  0  0  0  0  0  0  0  0  0
    6.7590   -4.6310   21.2860 N   0  0  0  0  0  0  0  0  0  0  0  0
    6.2230   -5.9440   21.7550 C   0  0  0  0  0  0  0  0  0  0  0  0
    5.5400   -5.7660   22.8850 C   0  0  0  0  0  0  0  0  0  0  0  0
    8.6660   -2.6350   25.2470 C   0  0  0  0  0  0  0  0  0  0  0  0
  2  3  1  0
  1  7  1  0
  1  8  1  0
  6  8  2  0
  9  4  1  6
  8  9  1  0
 10 11  1  0
 10 12  1  0
 10 13  1  0
  5 14  1  0
  5 15  1  0
  5 16  1  0
 17 18  2  0
 18 19  1  0
 19 20  2  0
  9 21  1  0
 20 21  1  0
 17 22  1  0
 21 22  2  0
 23 24  2  0
 10 25  1  0
 24 25  1  0
 25 26  2  0
 26 27  1  0
  4 28  1  0
 23 28  1  0
 27 28  2  0
 29 30  2  0
  3 31  1  0
 30 31  1  0
  5 32  1  0
 31 32  2  0
  7 33  1  0
 32 33  1  0
 29 34  1  0
 33 34  2  0
 35 36  1  0
 37 38  2  0
 38 39  1  0
 36 40  2  0
 40 41  1  0
 41 42  1  1
 42 43  1  0
 43 44  1  0
 44 45  1  0
 40 46  1  0
 45 46  1  0
 47 36  1  0
 41 47  1  0
 47 48  1  0
 48 49  1  0
 38 50  1  0
 49 50  1  0
 50 51  1  0
 47 52  1  0
 51 52  1  0
 27 53  1  0
 44 53  1  0
M  END
