x1493-x0689-x0946-x3110-x1077
     RDKit          3D

 64 71  0  0  0  0  0  0  0  0999 V2000
    7.8570    1.8110   23.3790 N   0  0  0  0  0  0  0  0  0  0  0  0
   14.0360    5.1340   22.4830 C   0  0  0  0  0  0  0  0  0  0  0  0
   12.5590    5.1250   22.5770 C   0  0  0  0  0  0  0  0  0  0  0  0
    7.5470   -1.3010   21.7250 N   0  0  0  0  0  0  0  0  0  0  0  0
   10.1010    4.9520   23.6450 C   0  0  0  0  0  0  0  0  0  0  0  0
    8.8760    1.7220   21.2690 O   0  0  0  0  0  0  0  0  0  0  0  0
    8.8380    1.9440   24.3500 C   0  0  0  0  0  0  0  0  0  0  0  0
    8.0360    1.2920   22.0840 C   0  0  0  0  0  0  0  0  0  0  0  0
    7.0470    0.1430   21.7650 C   0  0  1  0  0  0  0  0  0  0  0  0
   12.5740   -2.0000   24.4120 C   0  0  0  0  0  0  0  0  0  0  0  0
   12.7400   -0.6660   25.1040 C   0  0  0  0  0  0  0  0  0  0  0  0
   13.5510   -2.0860   23.2630 C   0  0  0  0  0  0  0  0  0  0  0  0
   12.9020   -3.1320   25.3930 C   0  0  0  0  0  0  0  0  0  0  0  0
    8.6780    4.9180   23.6560 N   0  0  0  0  0  0  0  0  0  0  0  0
   10.3580    5.9470   22.7260 O   0  0  0  0  0  0  0  0  0  0  0  0
   10.5740    5.6380   24.7500 O   0  0  0  0  0  0  0  0  0  0  0  0
    6.3310    0.3830   17.8330 N   0  0  0  0  0  0  0  0  0  0  0  0
    5.2600    1.1990   17.8070 C   0  0  0  0  0  0  0  0  0  0  0  0
    4.5870    1.7890   19.0180 C   0  0  0  0  0  0  0  0  0  0  0  0
    5.1600    1.4500   20.3750 C   0  0  0  0  0  0  0  0  0  0  0  0
    6.3870    0.5300   20.4700 C   0  0  0  0  0  0  0  0  0  0  0  0
    6.9100    0.0300   19.1350 C   0  0  0  0  0  0  0  0  0  0  0  0
    9.9050   -1.2590   21.7820 C   0  0  0  0  0  0  0  0  0  0  0  0
   11.2110   -1.4170   22.3780 C   0  0  0  0  0  0  0  0  0  0  0  0
   11.2360   -1.8640   23.7620 C   0  0  0  0  0  0  0  0  0  0  0  0
   10.0130   -2.0980   24.3450 C   0  0  0  0  0  0  0  0  0  0  0  0
    8.6340   -1.9920   23.8710 C   0  0  0  0  0  0  0  0  0  0  0  0
    8.7800   -1.5330   22.5010 C   0  0  0  0  0  0  0  0  0  0  0  0
   12.4240    1.2920   23.0290 C   0  0  0  0  0  0  0  0  0  0  0  0
   12.8350    2.6000   22.7410 C   0  0  0  0  0  0  0  0  0  0  0  0
   12.0630    3.7570   22.9290 C   0  0  0  0  0  0  0  0  0  0  0  0
   10.8020    3.6100   23.4550 C   0  0  0  0  0  0  0  0  0  0  0  0
   10.2090    2.2310   23.8020 C   0  0  0  0  0  0  0  0  0  0  0  0
   11.1380    1.0460   23.5500 C   0  0  0  0  0  0  0  0  0  0  0  0
    8.3350   -4.1510   20.4530 C   0  0  0  0  0  0  0  0  0  0  0  0
    6.2890   -4.2050   19.5960 O   0  0  0  0  0  0  0  0  0  0  0  0
    7.0400   -4.3700   20.5570 C   0  0  0  0  0  0  0  0  0  0  0  0
    3.7060   -6.0650   26.0640 O   0  0  0  0  0  0  0  0  0  0  0  0
    5.7030   -4.6390   26.6660 N   0  0  0  0  0  0  0  0  0  0  0  0
    4.4170   -4.8280   25.7740 S   0  0  1  0  0  0  0  0  0  0  0  0
    5.0700   -6.4450   24.4810 C   0  0  0  0  0  0  0  0  0  0  0  0
    6.2140   -6.2410   23.9600 C   0  0  0  0  0  0  0  0  0  0  0  0
    4.5770   -3.3440   21.1630 O   0  0  0  0  0  0  0  0  0  0  0  0
    5.7490   -3.4750   21.3810 C   0  0  0  0  0  0  0  0  0  0  0  0
    6.6970   -2.4850   21.1100 C   0  0  0  0  0  0  0  0  0  0  0  0
    7.2170   -5.6160   24.8710 C   0  0  0  0  0  0  0  0  0  0  0  0
    8.0580   -5.4780   23.8270 C   0  0  2  0  0  0  0  0  0  0  0  0
    9.4120   -5.2790   23.8280 C   0  0  0  0  0  0  0  0  0  0  0  0
    9.8580   -4.7210   25.0220 C   0  0  0  0  0  0  0  0  0  0  0  0
    8.9320   -3.8750   25.7300 N   0  0  0  0  0  0  0  0  0  0  0  0
    8.1020   -4.4030   26.8070 C   0  0  0  0  0  0  0  0  0  0  0  0
    7.0730   -5.2170   26.3420 C   0  0  1  0  0  0  0  0  0  0  0  0
    6.4040   -4.7300   21.8580 C   0  0  0  0  0  0  0  0  0  0  0  0
    5.2920   -5.5790   21.9560 C   0  0  0  0  0  0  0  0  0  0  0  0
    4.3680   -5.1180   22.9680 C   0  0  0  0  0  0  0  0  0  0  0  0
    4.9670   -4.9010   24.2190 C   0  0  1  0  0  0  0  0  0  0  0  0
    6.1480   -4.0870   24.0990 C   0  0  0  0  0  0  0  0  0  0  0  0
    7.1550   -4.4450   22.9820 C   0  0  1  0  0  0  0  0  0  0  0  0
    3.7170   -1.7850   26.1590 S   0  0  0  0  0  0  0  0  0  0  0  0
    3.3140   -3.4170   25.8490 C   0  0  0  0  0  0  0  0  0  0  0  0
    1.8540   -3.6160   25.6190 C   0  0  0  0  0  0  0  0  0  0  0  0
    0.9970   -2.3130   25.7120 C   0  0  0  0  0  0  0  0  0  0  0  0
    2.0800   -1.1820   26.0360 C   0  0  0  0  0  0  0  0  0  0  0  0
    8.7610   -2.4620   25.3040 C   0  0  0  0  0  0  0  0  0  0  0  0
  2  3  1  0
  1  7  1  0
  1  8  1  0
  6  8  2  0
  9  4  1  6
  8  9  1  0
 10 11  1  0
 10 12  1  0
 10 13  1  0
  5 14  1  0
  5 15  1  0
  5 16  1  0
 17 18  2  0
 18 19  1  0
 19 20  2  0
  9 21  1  0
 20 21  1  0
 17 22  1  0
 21 22  2  0
 23 24  2  0
 10 25  1  0
 24 25  1  0
 25 26  2  0
 26 27  1  0
  4 28  1  0
 23 28  1  0
 27 28  2  0
 29 30  2  0
  3 31  1  0
 30 31  1  0
  5 32  1  0
 31 32  2  0
  7 33  1  0
 32 33  1  0
 29 34  1  0
 33 34  2  0
 35 37  1  0
 36 37  2  0
 38 40  2  0
 39 40  2  0
 41 42  1  0
 43 44  2  0
 44 45  1  0
 42 46  2  0
 46 47  1  0
 47 48  1  1
 48 49  1  0
 49 50  1  0
 50 51  1  0
 39 52  1  0
 46 52  1  0
 52 51  1  6
 53 37  1  0
 44 53  1  0
 53 54  1  0
 54 55  1  0
 40 56  1  0
 41 56  1  0
 56 55  1  6
 56 57  1  0
 47 58  1  0
 58 53  1  6
 57 58  1  0
 40 60  1  6
 59 60  1  0
 60 61  2  0
 61 62  1  0
 59 63  1  0
 62 63  2  0
 27 64  1  0
 50 64  1  0
M  END
