x1493-x0755-x2705-x1077
     RDKit          3D

 63 70  0  0  0  0  0  0  0  0999 V2000
    7.6100   -1.1640   21.6050 N   0  0  0  0  0  0  0  0  0  0  0  0
    7.5240    2.2150   22.7940 N   0  0  0  0  0  0  0  0  0  0  0  0
    9.0600    1.5250   21.0840 O   0  0  0  0  0  0  0  0  0  0  0  0
    6.9200    0.1760   21.5970 C   0  0  1  0  0  0  0  0  0  0  0  0
    7.8680    1.3120   21.8230 C   0  0  0  0  0  0  0  0  0  0  0  0
   10.1810    2.2170   23.9460 C   0  0  0  0  0  0  0  0  0  0  0  0
    9.2930    1.3210   24.8140 C   0  0  0  0  0  0  0  0  0  0  0  0
    6.1770    4.8180   21.9020 C   0  0  0  0  0  0  0  0  0  0  0  0
   12.3450   -1.3320   23.3310 C   0  0  0  0  0  0  0  0  0  0  0  0
   12.7690    0.0340   23.8790 C   0  0  0  0  0  0  0  0  0  0  0  0
   12.8590   -2.4180   24.3000 C   0  0  0  0  0  0  0  0  0  0  0  0
   13.0030   -1.5190   21.9680 C   0  0  0  0  0  0  0  0  0  0  0  0
    6.2980    0.3030   17.8280 N   0  0  0  0  0  0  0  0  0  0  0  0
    5.2000    1.0730   17.8110 C   0  0  0  0  0  0  0  0  0  0  0  0
    4.5930    1.5720   18.9340 C   0  0  0  0  0  0  0  0  0  0  0  0
    5.1700    1.2580   20.1510 C   0  0  0  0  0  0  0  0  0  0  0  0
    6.2950    0.4850   20.2660 C   0  0  0  0  0  0  0  0  0  0  0  0
    6.9020   -0.0320   19.1130 C   0  0  0  0  0  0  0  0  0  0  0  0
    9.8760   -1.5930   24.1600 N   0  0  0  0  0  0  0  0  0  0  0  0
    8.5630   -1.5680   23.7710 N   0  0  0  0  0  0  0  0  0  0  0  0
    8.7210   -1.2830   22.3730 C   0  0  0  0  0  0  0  0  0  0  0  0
   10.0240   -1.1640   21.9870 C   0  0  0  0  0  0  0  0  0  0  0  0
   10.8560   -1.3610   23.1530 C   0  0  0  0  0  0  0  0  0  0  0  0
    9.5750    3.4940   23.5520 C   0  0  0  0  0  0  0  0  0  0  0  0
   10.2180    4.7330   23.7000 C   0  0  0  0  0  0  0  0  0  0  0  0
    9.5390    5.8650   23.2770 C   0  0  0  0  0  0  0  0  0  0  0  0
    8.2690    5.8660   22.7170 C   0  0  0  0  0  0  0  0  0  0  0  0
    7.5390    4.6850   22.5260 C   0  0  0  0  0  0  0  0  0  0  0  0
    8.1250    3.4730   22.9220 C   0  0  0  0  0  0  0  0  0  0  0  0
    3.9870   -5.8160   26.0790 O   0  0  0  0  0  0  0  0  0  0  0  0
    6.1890   -4.2180   25.8960 N   0  0  0  0  0  0  0  0  0  0  0  0
    6.1730   -5.3840   19.9230 O   0  0  0  0  0  0  0  0  0  0  0  0
    6.9230   -4.8500   20.7030 C   0  0  0  0  0  0  0  0  0  0  0  0
    8.3010   -4.2210   20.5200 C   0  0  0  0  0  0  0  0  0  0  0  0
    1.6860   -4.9070   25.7660 F   0  0  0  0  0  0  0  0  0  0  0  0
    5.2300   -1.7210   26.2240 F   0  0  0  0  0  0  0  0  0  0  0  0
    4.6250   -4.5610   25.7390 S   0  0  2  0  0  0  0  0  0  0  0  0
    5.1990   -6.5570   25.9980 C   0  0  0  0  0  0  0  0  0  0  0  0
    6.1680   -5.9030   25.0310 C   0  0  2  0  0  0  0  0  0  0  0  0
    4.2880   -3.3630   21.6600 O   0  0  0  0  0  0  0  0  0  0  0  0
    5.5920   -3.5560   21.3820 C   0  0  0  0  0  0  0  0  0  0  0  0
    6.3150   -2.7420   20.5050 C   0  0  0  0  0  0  0  0  0  0  0  0
    7.2050   -5.0980   25.5540 C   0  0  1  0  0  0  0  0  0  0  0  0
    7.7490   -5.3920   24.0600 C   0  0  2  0  0  0  0  0  0  0  0  0
    9.1980   -5.5010   23.7070 C   0  0  0  0  0  0  0  0  0  0  0  0
   10.0550   -5.0080   24.8290 C   0  0  0  0  0  0  0  0  0  0  0  0
    9.3410   -4.1230   25.6810 N   0  0  0  0  0  0  0  0  0  0  0  0
    8.9430   -4.6460   26.9840 C   0  0  0  0  0  0  0  0  0  0  0  0
    7.8610   -5.4760   26.7210 C   0  0  0  0  0  0  0  0  0  0  0  0
    2.1420   -3.6580   25.9640 C   0  0  0  0  0  0  0  0  0  0  0  0
    3.5140   -3.3620   25.9850 C   0  0  0  0  0  0  0  0  0  0  0  0
    3.9380   -2.0550   26.1930 C   0  0  0  0  0  0  0  0  0  0  0  0
    3.0010   -1.0280   26.3770 C   0  0  0  0  0  0  0  0  0  0  0  0
    1.6450   -1.3430   26.3490 C   0  0  0  0  0  0  0  0  0  0  0  0
    1.2230   -2.6450   26.1450 C   0  0  0  0  0  0  0  0  0  0  0  0
    6.2720   -4.7330   21.9580 C   0  0  0  0  0  0  0  0  0  0  0  0
    6.8520   -4.5770   23.1680 C   0  0  1  0  0  0  0  0  0  0  0  0
    5.9070   -4.5680   24.3640 C   0  0  1  0  0  0  0  0  0  0  0  0
    4.6020   -4.6160   24.0400 N   0  0  0  0  0  0  0  0  0  0  0  0
    4.3130   -5.8230   23.2400 C   0  0  0  0  0  0  0  0  0  0  0  0
    5.4090   -6.0520   22.1610 C   0  0  0  0  0  0  0  0  0  0  0  0
    8.6060   -1.8440   25.1620 C   0  0  0  0  0  0  0  0  0  0  0  0
    9.8080   -2.7540   25.4560 C   0  0  0  0  0  0  0  0  0  0  0  0
  4  1  1  6
  2  5  1  0
  3  5  2  0
  4  5  1  0
  6  7  1  0
  9 10  1  0
  9 11  1  0
  9 12  1  0
 13 14  2  0
 14 15  1  0
 15 16  2  0
  4 17  1  0
 16 17  1  0
 13 18  1  0
 17 18  2  0
 19 20  1  0
  1 21  1  0
 20 21  1  0
 21 22  2  0
  9 23  1  0
 19 23  2  0
 22 23  1  0
  6 24  1  0
 24 25  2  0
 25 26  1  0
 26 27  2  0
  8 28  1  0
 27 28  1  0
  2 29  1  0
 24 29  1  0
 28 29  2  0
 32 33  2  0
 33 34  1  0
 30 37  2  0
 31 37  2  0
 39 38  1  1
 40 41  2  0
 41 42  1  0
 43 31  1  0
 39 43  1  0
 43 44  1  0
 44 45  1  1
 45 46  1  0
 46 47  1  0
 47 48  1  0
 43 49  1  1
 48 49  1  0
 35 50  1  0
 37 51  1  6
 50 51  2  0
 36 52  1  0
 51 52  1  0
 52 53  2  0
 53 54  1  0
 50 55  1  0
 54 55  2  0
 56 33  1  0
 41 56  1  0
 44 57  1  0
 57 56  1  6
 39 58  1  0
 57 58  1  0
 37 59  1  0
 58 59  1  6
 59 60  1  0
 56 61  1  0
 60 61  1  0
 20 62  1  0
 47 63  1  0
 62 63  1  0
M  END
