x1493-x1374
     RDKit          3D

 21 22  0  0  0  0  0  0  0  0999 V2000
   10.4000   -5.2280   25.1510 C   0  0  0  0  0  0  0  0  0  0  0  0
    6.0240   -4.1630   21.8910 N   0  0  0  0  0  0  0  0  0  0  0  0
    6.0870   -4.2760   20.5230 C   0  0  0  0  0  0  0  0  0  0  0  0
    5.3550   -5.0600   19.9740 O   0  0  0  0  0  0  0  0  0  0  0  0
    7.0690   -3.3680   19.7260 C   0  0  0  0  0  0  0  0  0  0  0  0
    2.6160   -6.4950   23.7550 O   0  0  0  0  0  0  0  0  0  0  0  0
    4.5400   -8.0800   24.2960 O   0  0  0  0  0  0  0  0  0  0  0  0
    4.8410   -5.6360   26.4910 C   0  0  0  0  0  0  0  0  0  0  0  0
    6.5880   -5.2840   26.1260 O   0  0  0  0  0  0  0  0  0  0  0  0
    6.0730   -6.0670   26.9120 C   0  0  0  0  0  0  0  0  0  0  0  0
    9.3170   -4.7380   24.3190 C   0  0  0  0  0  0  0  0  0  0  0  0
    8.9850   -3.2820   24.0440 C   0  0  0  0  0  0  0  0  0  0  0  0
    7.7970   -3.0480   23.1560 C   0  0  0  0  0  0  0  0  0  0  0  0
    7.0890   -4.2860   22.6490 C   0  0  0  0  0  0  0  0  0  0  0  0
    7.5110   -5.6990   22.9660 C   0  0  0  0  0  0  0  0  0  0  0  0
    8.5480   -5.8670   23.7410 C   0  0  0  0  0  0  0  0  0  0  0  0
    5.1650   -4.4200   23.9940 C   0  0  0  0  0  0  0  0  0  0  0  0
    4.9390   -4.6700   22.6540 C   0  0  2  0  0  0  0  0  0  0  0  0
    4.9340   -6.0850   22.5200 C   0  0  0  0  0  0  0  0  0  0  0  0
    4.0370   -6.6440   23.9700 S   0  0  0  0  0  0  0  0  0  0  0  0
    4.7140   -5.5190   24.9870 C   0  0  0  0  0  0  0  0  0  0  0  0
  2  3  1  0
  3  4  2  0
  3  5  1  0
  8 10  1  0
  9 10  2  0
  1 11  1  0
 11 12  2  0
 12 13  1  0
  2 14  1  0
 13 14  2  0
 14 15  1  0
 11 16  1  0
 15 16  2  0
 18  2  1  6
 17 18  1  0
 18 19  1  0
 20  6  1  0
  7 20  1  0
 19 20  1  0
  8 21  1  0
 17 21  2  0
 20 21  1  0
M  END
