x1493-x1308
     RDKit          3D

 19 20  0  0  0  0  0  0  0  0999 V2000
    7.4300   -3.4140   19.8380 C   0  0  0  0  0  0  0  0  0  0  0  0
    5.3970   -4.6450   19.9530 O   0  0  0  0  0  0  0  0  0  0  0  0
    0.5730   -1.3490   26.3260 Cl  0  0  0  0  0  0  0  0  0  0  0  0
    6.4770   -4.4250   20.4950 C   0  0  0  0  0  0  0  0  0  0  0  0
    6.4800   -5.0820   26.8160 O   0  0  0  0  0  0  0  0  0  0  0  0
    4.6510   -6.9060   26.1760 O   0  0  0  0  0  0  0  0  0  0  0  0
    5.3720   -5.4980   25.9940 S   0  0  0  0  0  0  0  0  0  0  0  0
    6.8000   -5.1390   21.6470 N   0  0  0  0  0  0  0  0  0  0  0  0
    7.5790   -4.6610   22.7660 C   0  0  0  0  0  0  0  0  0  0  0  0
    6.6340   -4.1810   23.9820 C   0  0  0  0  0  0  0  0  0  0  0  0
    5.9420   -5.4110   24.4150 N   0  0  0  0  0  0  0  0  0  0  0  0
    5.1290   -5.8160   23.3770 C   0  0  0  0  0  0  0  0  0  0  0  0
    5.9750   -6.1840   22.1410 C   0  0  0  0  0  0  0  0  0  0  0  0
    4.6340   -2.7590   26.4520 C   0  0  0  0  0  0  0  0  0  0  0  0
    3.3250   -1.9370   26.4820 C   0  0  0  0  0  0  0  0  0  0  0  0
    1.9070   -2.4240   26.2300 C   0  0  0  0  0  0  0  0  0  0  0  0
    1.7210   -3.8990   25.8960 C   0  0  0  0  0  0  0  0  0  0  0  0
    2.8030   -4.6940   25.8500 C   0  0  0  0  0  0  0  0  0  0  0  0
    4.1100   -4.2480   26.0910 C   0  0  0  0  0  0  0  0  0  0  0  0
  1  4  1  0
  2  4  2  0
  5  7  2  0
  6  7  2  0
  4  8  1  0
  8  9  1  0
  9 10  1  0
  7 11  1  0
 10 11  1  0
 11 12  1  0
  8 13  1  0
 12 13  1  0
 14 15  2  0
  3 16  1  0
 15 16  1  0
 16 17  2  0
 17 18  1  0
  7 19  1  0
 14 19  1  0
 18 19  2  0
M  END
