x1493-x0540
     RDKit          3D

 34 36  0  0  0  0  0  0  0  0999 V2000
    4.8250   -6.2650   26.2270 C   0  0  0  0  0  0  0  0  0  0  0  0
    7.1700   -5.4130   26.2260 O   0  0  0  0  0  0  0  0  0  0  0  0
    5.9810   -5.5410   25.5890 C   0  0  0  0  0  0  0  0  0  0  0  0
    5.3670   -4.7560   19.9640 O   0  0  0  0  0  0  0  0  0  0  0  0
    6.4320   -4.4840   20.5040 C   0  0  0  0  0  0  0  0  0  0  0  0
    7.2940   -3.3940   19.8920 C   0  0  0  0  0  0  0  0  0  0  0  0
    5.7210   -5.0360   24.3360 N   0  0  0  0  0  0  0  0  0  0  0  0
    6.7930   -4.3090   23.8820 C   0  0  1  0  0  0  0  0  0  0  0  0
    7.6230   -4.7420   22.6710 C   0  0  0  0  0  0  0  0  0  0  0  0
    6.8230   -5.1800   21.6520 N   0  0  0  0  0  0  0  0  0  0  0  0
    5.9780   -6.3090   22.1350 C   0  0  0  0  0  0  0  0  0  0  0  0
    5.1930   -5.7890   23.3420 C   0  0  0  0  0  0  0  0  0  0  0  0
    2.8030    1.3010   24.4280 O   0  0  0  0  0  0  0  0  0  0  0  0
    2.8290    2.1920   23.3250 C   0  0  0  0  0  0  0  0  0  0  0  0
    3.8750    2.1680   22.2880 N   0  0  0  0  0  0  0  0  0  0  0  0
    5.1250    1.8040   22.5920 C   0  0  0  0  0  0  0  0  0  0  0  0
    5.6210    0.6160   22.1380 C   0  0  1  0  0  0  0  0  0  0  0  0
    1.8950    3.1730   23.0970 N   0  0  0  0  0  0  0  0  0  0  0  0
    5.5220   -2.9720   22.2080 C   0  0  0  0  0  0  0  0  0  0  0  0
    5.5070   -1.7030   21.6570 C   0  0  0  0  0  0  0  0  0  0  0  0
    4.8870   -0.7050   22.4070 C   0  0  0  0  0  0  0  0  0  0  0  0
    6.7540   -0.2070   20.0940 C   0  0  0  0  0  0  0  0  0  0  0  0
    6.9070   -0.2370   18.5930 C   0  0  0  0  0  0  0  0  0  0  0  0
    6.1520    0.4740   17.7260 N   0  0  0  0  0  0  0  0  0  0  0  0
    5.1860    1.2720   18.1800 C   0  0  0  0  0  0  0  0  0  0  0  0
    4.8790    1.4260   19.6810 C   0  0  0  0  0  0  0  0  0  0  0  0
    5.7730    0.5960   20.6370 C   0  0  0  0  0  0  0  0  0  0  0  0
    0.6390    4.5510   24.5740 C   0  0  0  0  0  0  0  0  0  0  0  0
   -0.6250    4.9570   25.0490 C   0  0  0  0  0  0  0  0  0  0  0  0
   -1.8480    4.5460   24.2090 C   0  0  0  0  0  0  0  0  0  0  0  0
   -1.7500    3.2210   23.7360 C   0  0  0  0  0  0  0  0  0  0  0  0
   -0.4960    2.8790   23.2320 C   0  0  0  0  0  0  0  0  0  0  0  0
    0.7030    3.2890   23.9770 C   0  0  0  0  0  0  0  0  0  0  0  0
    6.2480   -2.9640   23.5440 C   0  0  0  0  0  0  0  0  0  0  0  0
  1  3  1  0
  2  3  2  0
  4  5  2  0
  5  6  1  0
  3  7  1  0
  7  8  1  0
  8  9  1  0
  5 10  1  0
  9 10  1  0
 10 11  1  0
  7 12  1  0
 11 12  1  0
 13 14  2  0
 14 15  1  0
 15 16  1  0
 17 16  1  6
 14 18  1  0
 19 20  1  0
 17 21  1  0
 20 21  1  0
 22 23  2  0
 23 24  1  0
 24 25  2  0
 25 26  1  0
 17 27  1  0
 22 27  1  0
 26 27  2  0
 28 29  1  0
 29 30  1  0
 30 31  1  0
 31 32  1  0
 18 33  1  0
 28 33  1  0
 32 33  1  0
  8 34  1  6
 19 34  1  0
M  END
