x1493-x1384
     RDKit          3D

 20 21  0  0  0  0  0  0  0  0999 V2000
    4.2720   -5.6990   25.6230 C   0  0  0  0  0  0  0  0  0  0  0  0
    6.5830   -6.0320   26.0260 O   0  0  0  0  0  0  0  0  0  0  0  0
    5.6480   -5.5430   25.0870 C   0  0  0  0  0  0  0  0  0  0  0  0
    5.4930   -4.1750   19.8680 O   0  0  0  0  0  0  0  0  0  0  0  0
    6.2930   -3.9280   20.8210 C   0  0  0  0  0  0  0  0  0  0  0  0
    7.7810   -4.0600   20.6450 C   0  0  0  0  0  0  0  0  0  0  0  0
    5.8850   -3.5270   22.1510 N   0  0  0  0  0  0  0  0  0  0  0  0
    5.7400   -4.9930   23.7960 N   0  0  0  0  0  0  0  0  0  0  0  0
    6.4390   -4.1300   23.4040 C   0  0  1  0  0  0  0  0  0  0  0  0
    7.7200   -4.7920   23.0840 C   0  0  0  0  0  0  0  0  0  0  0  0
    7.4640   -5.6690   22.0570 N   0  0  0  0  0  0  0  0  0  0  0  0
    6.2380   -6.5070   21.9500 C   0  0  0  0  0  0  0  0  0  0  0  0
    5.2100   -5.7960   22.8490 C   0  0  0  0  0  0  0  0  0  0  0  0
    5.2970   -2.4290   26.3320 O   0  0  0  0  0  0  0  0  0  0  0  0
    1.8680   -3.4270   26.4300 C   0  0  0  0  0  0  0  0  0  0  0  0
    3.2940   -3.6010   26.0670 N   0  0  0  0  0  0  0  0  0  0  0  0
    3.9190   -2.4460   25.9240 C   0  0  1  0  0  0  0  0  0  0  0  0
    3.1330   -1.4130   26.7220 C   0  0  0  0  0  0  0  0  0  0  0  0
    1.7420   -2.0040   27.0380 C   0  0  0  0  0  0  0  0  0  0  0  0
    3.4560   -4.5610   25.1660 C   0  0  0  0  0  0  0  0  0  0  0  0
  1  3  1  0
  2  3  2  0
  4  5  2  0
  5  6  1  0
  5  7  1  0
  3  8  1  0
  9  7  1  6
  8  9  1  0
  9 10  1  0
 10 11  1  0
 11 12  1  0
  8 13  1  0
 12 13  1  0
 15 16  1  0
 17 14  1  1
 16 17  1  0
 17 18  1  0
 15 19  1  0
 18 19  1  0
  1 20  1  0
 16 20  1  0
M  END
