x1493-x0426-x2694
     RDKit          3D

 55 59  0  0  0  0  0  0  0  0999 V2000
    7.4130   -0.9660   22.0230 N   0  0  0  0  0  0  0  0  0  0  0  0
    7.6740    2.6340   22.7220 N   0  0  0  0  0  0  0  0  0  0  0  0
    9.2030    1.6160   21.0940 O   0  0  0  0  0  0  0  0  0  0  0  0
   11.0340    6.9540   23.9810 O   0  0  0  0  0  0  0  0  0  0  0  0
    7.0060    0.4670   21.6720 C   0  0  1  0  0  0  0  0  0  0  0  0
    8.0100    1.5680   21.8100 C   0  0  0  0  0  0  0  0  0  0  0  0
   10.3530    2.0730   23.9790 C   0  0  0  0  0  0  0  0  0  0  0  0
   11.8790    6.8150   24.8680 C   0  0  0  0  0  0  0  0  0  0  0  0
   12.3240   -1.4200   23.2150 C   0  0  0  0  0  0  0  0  0  0  0  0
   12.8470    0.0100   23.5520 C   0  0  0  0  0  0  0  0  0  0  0  0
   12.9300   -1.8450   21.8730 C   0  0  0  0  0  0  0  0  0  0  0  0
   12.7530   -2.4040   24.3220 C   0  0  0  0  0  0  0  0  0  0  0  0
    2.2700    1.6740   23.8920 C   0  0  0  0  0  0  0  0  0  0  0  0
    2.1290    0.4610   23.8050 O   0  0  0  0  0  0  0  0  0  0  0  0
    3.3750    2.3340   23.4030 N   0  0  0  0  0  0  0  0  0  0  0  0
    4.3710    1.6150   22.6320 C   0  0  0  0  0  0  0  0  0  0  0  0
    4.4030    2.1030   21.1810 C   0  0  0  0  0  0  0  0  0  0  0  0
    2.7080    4.3500   25.2860 F   0  0  0  0  0  0  0  0  0  0  0  0
    4.5930   -6.3630   25.8110 C   0  0  0  0  0  0  0  0  0  0  0  0
    6.6350   -5.1760   26.5460 O   0  0  0  0  0  0  0  0  0  0  0  0
    5.8160   -5.5260   25.4450 C   0  0  0  0  0  0  0  0  0  0  0  0
    5.3350   -4.5780   19.9300 O   0  0  0  0  0  0  0  0  0  0  0  0
    6.4570   -4.4280   20.4030 C   0  0  0  0  0  0  0  0  0  0  0  0
    7.3940   -3.3920   19.7920 C   0  0  0  0  0  0  0  0  0  0  0  0
    6.3140   -1.5970   22.7680 C   0  0  0  0  0  0  0  0  0  0  0  0
    6.1980   -3.0800   22.5530 C   0  0  0  0  0  0  0  0  0  0  0  0
    6.3770    0.1010   17.9610 N   0  0  0  0  0  0  0  0  0  0  0  0
    5.2820    0.8270   17.8300 C   0  0  0  0  0  0  0  0  0  0  0  0
    4.6130    1.5040   18.9530 C   0  0  0  0  0  0  0  0  0  0  0  0
    5.1570    1.3800   20.1730 C   0  0  0  0  0  0  0  0  0  0  0  0
    6.3310    0.6110   20.3060 C   0  0  0  0  0  0  0  0  0  0  0  0
    6.9530   -0.0440   19.2090 C   0  0  0  0  0  0  0  0  0  0  0  0
    8.7100   -1.3080   24.0400 N   0  0  0  0  0  0  0  0  0  0  0  0
   10.0720   -1.4320   24.3410 O   0  0  0  0  0  0  0  0  0  0  0  0
   10.8330   -1.3300   23.1240 C   0  0  0  0  0  0  0  0  0  0  0  0
    9.8960   -1.1530   22.1310 C   0  0  0  0  0  0  0  0  0  0  0  0
    8.6560   -1.1390   22.7010 C   0  0  0  0  0  0  0  0  0  0  0  0
    9.8640    3.4660   23.6590 C   0  0  0  0  0  0  0  0  0  0  0  0
   10.7060    4.5400   23.9650 C   0  0  0  0  0  0  0  0  0  0  0  0
   10.2950    5.8410   23.7030 C   0  0  0  0  0  0  0  0  0  0  0  0
    9.0470    6.0690   23.1200 C   0  0  0  0  0  0  0  0  0  0  0  0
    8.2120    4.9950   22.8070 C   0  0  0  0  0  0  0  0  0  0  0  0
    8.6090    3.6730   23.0790 C   0  0  0  0  0  0  0  0  0  0  0  0
    1.4670    3.8240   25.2550 C   0  0  0  0  0  0  0  0  0  0  0  0
    1.2240    2.4910   24.5650 C   0  0  0  0  0  0  0  0  0  0  0  0
   -0.2340    2.0010   24.5990 C   0  0  0  0  0  0  0  0  0  0  0  0
   -1.2410    2.9080   25.3160 C   0  0  0  0  0  0  0  0  0  0  0  0
   -0.8620    4.1140   25.9090 C   0  0  0  0  0  0  0  0  0  0  0  0
    0.4540    4.5610   25.8790 C   0  0  0  0  0  0  0  0  0  0  0  0
    6.0990   -5.1460   24.1280 N   0  0  0  0  0  0  0  0  0  0  0  0
    6.9380   -4.0620   23.5060 C   0  0  1  0  0  0  0  0  0  0  0  0
    7.7900   -4.7210   22.6530 C   0  0  0  0  0  0  0  0  0  0  0  0
    6.9750   -5.2650   21.5570 N   0  0  0  0  0  0  0  0  0  0  0  0
    6.0030   -6.3940   22.0470 C   0  0  0  0  0  0  0  0  0  0  0  0
    5.2660   -5.8610   23.1100 C   0  0  0  0  0  0  0  0  0  0  0  0
  1  5  1  0
  2  6  1  0
  3  6  2  0
  5  6  1  6
  4  8  1  0
  9 10  1  0
  9 11  1  0
  9 12  1  0
 13 14  2  0
 13 15  1  0
 15 16  1  0
 16 17  1  0
 19 21  1  0
 20 21  2  0
 22 23  2  0
 23 24  1  0
  1 25  1  0
 25 26  1  0
 27 28  2  0
 28 29  1  0
 17 30  1  0
 29 30  2  0
  5 31  1  0
 30 31  1  0
 27 32  1  0
 31 32  2  0
 33 34  1  0
  9 35  1  0
 34 35  1  0
 35 36  2  0
  1 37  1  0
 33 37  2  0
 36 37  1  0
  7 38  1  0
 38 39  2  0
  4 40  1  0
 39 40  1  0
 40 41  2  0
 41 42  1  0
  2 43  1  0
 38 43  1  0
 42 43  2  0
 18 44  1  0
 13 45  1  0
 44 45  2  0
 45 46  1  0
 46 47  2  0
 47 48  1  0
 44 49  1  0
 48 49  2  0
 21 50  1  0
 51 26  1  6
 50 51  1  0
 51 52  1  0
 23 53  1  0
 52 53  1  0
 53 54  1  0
 50 55  1  0
 54 55  1  0
M  END
