x1493-x2705-x2776
     RDKit          3D

 46 49  0  0  0  0  0  0  0  0999 V2000
    7.6840   -0.9670   21.7320 N   0  0  0  0  0  0  0  0  0  0  0  0
    7.6240    2.2910   22.8270 N   0  0  0  0  0  0  0  0  0  0  0  0
    8.9510    1.6260   21.0910 O   0  0  0  0  0  0  0  0  0  0  0  0
    7.0290    0.2760   21.6380 C   0  0  1  0  0  0  0  0  0  0  0  0
    7.9510    1.4060   21.7910 C   0  0  0  0  0  0  0  0  0  0  0  0
   10.0850    2.3750   23.9660 C   0  0  0  0  0  0  0  0  0  0  0  0
    9.2030    1.6050   24.8870 C   0  0  0  0  0  0  0  0  0  0  0  0
    6.1610    4.6180   21.8650 C   0  0  0  0  0  0  0  0  0  0  0  0
   12.4050   -1.5280   23.2380 C   0  0  0  0  0  0  0  0  0  0  0  0
   12.9620   -0.2470   23.8000 C   0  0  0  0  0  0  0  0  0  0  0  0
   12.8090   -2.7510   24.0770 C   0  0  0  0  0  0  0  0  0  0  0  0
   12.9480   -1.7430   21.8090 C   0  0  0  0  0  0  0  0  0  0  0  0
   13.5560   -2.5350   25.3940 C   0  0  0  0  0  0  0  0  0  0  0  0
   10.8160    6.1190   23.9990 O   0  0  0  0  0  0  0  0  0  0  0  0
   11.9080    6.2870   24.8900 C   0  0  0  0  0  0  0  0  0  0  0  0
    6.9030   -2.1570   21.9940 C   0  0  0  0  0  0  0  0  0  0  0  0
    6.3070    0.2430   17.9270 N   0  0  0  0  0  0  0  0  0  0  0  0
    5.1380    0.9750   17.8890 C   0  0  0  0  0  0  0  0  0  0  0  0
    4.4250    1.5590   19.0630 C   0  0  0  0  0  0  0  0  0  0  0  0
    5.1100    1.2820   20.3100 C   0  0  0  0  0  0  0  0  0  0  0  0
    6.2790    0.5570   20.3240 C   0  0  0  0  0  0  0  0  0  0  0  0
    6.8110    0.0710   19.1170 C   0  0  0  0  0  0  0  0  0  0  0  0
   10.1970   -1.0770   24.3580 N   0  0  0  0  0  0  0  0  0  0  0  0
    8.8830   -0.9110   24.0090 N   0  0  0  0  0  0  0  0  0  0  0  0
    8.7460   -1.0300   22.6530 C   0  0  0  0  0  0  0  0  0  0  0  0
   10.0510   -1.2810   22.2190 C   0  0  0  0  0  0  0  0  0  0  0  0
   10.9340   -1.3100   23.2280 C   0  0  0  0  0  0  0  0  0  0  0  0
    9.4480    3.7010   23.5510 C   0  0  0  0  0  0  0  0  0  0  0  0
   10.2600    4.8620   23.8410 C   0  0  0  0  0  0  0  0  0  0  0  0
    9.3900    5.8390   23.3210 C   0  0  0  0  0  0  0  0  0  0  0  0
    8.1300    5.8090   22.7060 C   0  0  0  0  0  0  0  0  0  0  0  0
    7.5160    4.6550   22.5230 C   0  0  0  0  0  0  0  0  0  0  0  0
    8.1670    3.5870   22.9480 C   0  0  0  0  0  0  0  0  0  0  0  0
    4.7990   -6.3190   26.1890 C   0  0  0  0  0  0  0  0  0  0  0  0
    7.1030   -5.5270   26.3070 O   0  0  0  0  0  0  0  0  0  0  0  0
    5.8770   -5.6840   25.5970 C   0  0  0  0  0  0  0  0  0  0  0  0
    5.3370   -4.8830   19.9810 O   0  0  0  0  0  0  0  0  0  0  0  0
    6.3760   -4.5200   20.5170 C   0  0  0  0  0  0  0  0  0  0  0  0
    7.1800   -3.4570   19.7690 C   0  0  0  0  0  0  0  0  0  0  0  0
    5.7270   -5.2230   24.3020 N   0  0  0  0  0  0  0  0  0  0  0  0
    6.4070   -4.1840   23.8480 C   0  0  0  0  0  0  0  0  0  0  0  0
    7.3560   -4.3940   22.8810 C   0  0  1  0  0  0  0  0  0  0  0  0
    6.7540   -5.0990   21.7430 N   0  0  0  0  0  0  0  0  0  0  0  0
    6.0210   -6.3060   22.1680 C   0  0  0  0  0  0  0  0  0  0  0  0
    5.1670   -6.0910   23.2700 C   0  0  0  0  0  0  0  0  0  0  0  0
    7.9200   -3.1290   22.4420 C   0  0  0  0  0  0  0  0  0  0  0  0
  1  4  1  0
  2  5  1  0
  3  5  2  0
  4  5  1  6
  6  7  1  0
  9 10  1  0
  9 11  1  0
  9 12  1  0
 11 13  1  0
 14 15  1  0
  1 16  1  0
 17 18  2  0
 18 19  1  0
 19 20  2  0
  4 21  1  0
 20 21  1  0
 17 22  1  0
 21 22  2  0
 23 24  1  0
  1 25  1  0
 24 25  2  0
 25 26  1  0
  9 27  1  0
 23 27  1  0
 26 27  2  0
  6 28  1  0
 14 29  1  0
 28 29  2  0
 29 30  1  0
 30 31  2  0
  8 32  1  0
 31 32  1  0
  2 33  1  0
 28 33  1  0
 32 33  2  0
 34 36  1  0
 35 36  2  0
 37 38  2  0
 38 39  1  0
 36 40  1  0
 40 41  1  0
 41 42  1  0
 38 43  1  0
 42 43  1  0
 43 44  1  0
 40 45  1  0
 44 45  1  0
 16 46  1  0
 42 46  1  6
M  END
