x1493-x0769
     RDKit          3D

 20 21  0  0  0  0  0  0  0  0999 V2000
    5.7510   -4.9910   27.0330 C   0  0  0  0  0  0  0  0  0  0  0  0
    3.9710   -4.5550   24.6210 O   0  0  0  0  0  0  0  0  0  0  0  0
    5.2070   -4.4790   19.8690 O   0  0  0  0  0  0  0  0  0  0  0  0
    6.3060   -4.3380   20.3740 C   0  0  0  0  0  0  0  0  0  0  0  0
    7.2990   -3.3600   19.7390 C   0  0  0  0  0  0  0  0  0  0  0  0
    5.5180   -2.2200   26.1380 F   0  0  0  0  0  0  0  0  0  0  0  0
    5.0770   -4.9900   25.4070 S   0  0  2  0  0  0  0  0  0  0  0  0
    6.3030   -5.0740   28.0540 O   0  0  0  0  0  0  0  0  0  0  0  0
    4.2210   -2.5600   26.0800 C   0  0  0  0  0  0  0  0  0  0  0  0
    3.8590   -3.8300   25.7610 C   0  0  0  0  0  0  0  0  0  0  0  0
    2.3950   -4.2970   25.6720 C   0  0  0  0  0  0  0  0  0  0  0  0
    1.3220   -3.2460   25.9620 C   0  0  0  0  0  0  0  0  0  0  0  0
    1.7710   -1.8180   26.3160 C   0  0  0  0  0  0  0  0  0  0  0  0
    3.2830   -1.5570   26.3540 C   0  0  0  0  0  0  0  0  0  0  0  0
    6.6230   -5.0890   21.5020 N   0  0  0  0  0  0  0  0  0  0  0  0
    5.7860   -6.2400   21.8910 C   0  0  0  0  0  0  0  0  0  0  0  0
    5.0360   -5.9500   22.9780 C   0  0  0  0  0  0  0  0  0  0  0  0
    5.7760   -5.6540   24.0570 N   0  0  0  0  0  0  0  0  0  0  0  0
    7.0130   -5.1290   23.8350 C   0  0  0  0  0  0  0  0  0  0  0  0
    7.3270   -4.5710   22.5950 C   0  0  0  0  0  0  0  0  0  0  0  0
  3  4  2  0
  4  5  1  0
  1  7  2  0
  2  7  2  0
  1  8  2  0
  6  9  1  0
  7 10  1  6
  9 10  2  0
 10 11  1  0
 11 12  2  0
 12 13  1  0
  9 14  1  0
 13 14  2  0
  4 15  1  0
 15 16  1  0
 16 17  1  0
  7 18  1  0
 17 18  1  0
 18 19  1  0
 15 20  1  0
 19 20  1  0
M  END
