x1493-x0705
     RDKit          3D

 23 24  0  0  0  0  0  0  0  0999 V2000
    1.1100   -2.7300   27.8200 C   0  0  0  0  0  0  0  0  0  0  0  0
    7.5090   -0.9380   26.2550 O   0  0  0  0  0  0  0  0  0  0  0  0
    5.5020   -3.8180   19.7190 O   0  0  0  0  0  0  0  0  0  0  0  0
    6.5810   -1.7290   25.5180 C   0  0  0  0  0  0  0  0  0  0  0  0
    6.4910   -3.5720   20.4580 C   0  0  0  0  0  0  0  0  0  0  0  0
    7.7930   -3.7830   19.8740 C   0  0  0  0  0  0  0  0  0  0  0  0
    2.4710   -2.3840   27.1590 C   0  0  0  0  0  0  0  0  0  0  0  0
    2.6120   -1.2690   26.1620 C   0  0  0  0  0  0  0  0  0  0  0  0
    4.0500   -1.0390   25.5850 C   0  0  0  0  0  0  0  0  0  0  0  0
    5.2060   -1.9740   26.0870 C   0  0  0  0  0  0  0  0  0  0  0  0
    4.9280   -2.9800   27.0230 C   0  0  0  0  0  0  0  0  0  0  0  0
    3.6360   -3.2160   27.5660 C   0  0  0  0  0  0  0  0  0  0  0  0
    6.5470   -3.1790   21.7980 N   0  0  0  0  0  0  0  0  0  0  0  0
    6.9240   -4.1120   22.7750 C   0  0  1  0  0  0  0  0  0  0  0  0
    6.8430   -3.7410   24.2430 C   0  0  0  0  0  0  0  0  0  0  0  0
    6.8750   -2.2990   24.2990 N   0  0  0  0  0  0  0  0  0  0  0  0
    7.7150   -1.7030   23.3150 C   0  0  0  0  0  0  0  0  0  0  0  0
    7.3840   -2.0370   21.9960 C   0  0  0  0  0  0  0  0  0  0  0  0
    4.8470   -6.3520   25.8890 C   0  0  0  0  0  0  0  0  0  0  0  0
    7.0920   -5.5140   25.4720 O   0  0  0  0  0  0  0  0  0  0  0  0
    5.6790   -5.4370   25.2680 C   0  0  0  0  0  0  0  0  0  0  0  0
    5.9830   -4.9740   23.6600 C   0  0  0  0  0  0  0  0  0  0  0  0
    4.9660   -4.3830   24.4270 C   0  0  0  0  0  0  0  0  0  0  0  0
  2  4  2  0
  3  5  2  0
  5  6  1  0
  1  7  1  0
  7  8  2  0
  8  9  1  0
  4 10  1  0
  9 10  2  0
 10 11  1  0
  7 12  1  0
 11 12  2  0
  5 13  1  0
 13 14  1  0
 14 15  1  0
  4 16  1  0
 15 16  1  0
 16 17  1  0
 13 18  1  0
 17 18  1  0
 19 21  1  0
 20 21  2  0
 14 22  1  1
 21 23  1  0
 22 23  1  0
M  END
