x1493-x2705-x0426-x2694
     RDKit          3D

 57 61  0  0  0  0  0  0  0  0999 V2000
    7.5970   -1.1180   21.8030 N   0  0  0  0  0  0  0  0  0  0  0  0
    7.6520    2.3230   22.7510 N   0  0  0  0  0  0  0  0  0  0  0  0
    9.0390    1.5210   21.1460 O   0  0  0  0  0  0  0  0  0  0  0  0
    7.0130    0.2500   21.5740 C   0  0  1  0  0  0  0  0  0  0  0  0
    8.0140    1.4090   21.8030 C   0  0  0  0  0  0  0  0  0  0  0  0
   10.2500    2.1400   23.9430 C   0  0  0  0  0  0  0  0  0  0  0  0
    9.3180    1.3100   24.8730 C   0  0  0  0  0  0  0  0  0  0  0  0
    6.4580    4.9490   21.9790 C   0  0  0  0  0  0  0  0  0  0  0  0
   12.3310   -1.4330   23.3380 C   0  0  0  0  0  0  0  0  0  0  0  0
   12.8100   -0.0900   23.8810 C   0  0  0  0  0  0  0  0  0  0  0  0
   12.7520   -2.5500   24.3110 C   0  0  0  0  0  0  0  0  0  0  0  0
   12.9830   -1.6760   21.9740 C   0  0  0  0  0  0  0  0  0  0  0  0
   10.6440    6.8770   23.8120 O   0  0  0  0  0  0  0  0  0  0  0  0
   11.7280    6.6160   24.7160 C   0  0  0  0  0  0  0  0  0  0  0  0
    2.2560    1.7620   23.9520 C   0  0  0  0  0  0  0  0  0  0  0  0
    2.1020    0.5520   23.7920 O   0  0  0  0  0  0  0  0  0  0  0  0
    3.3890    2.4150   23.5420 N   0  0  0  0  0  0  0  0  0  0  0  0
    4.4250    1.8720   22.6810 C   0  0  0  0  0  0  0  0  0  0  0  0
    3.8480    1.5390   21.3480 C   0  0  0  0  0  0  0  0  0  0  0  0
    2.7980    4.2710   25.2400 F   0  0  0  0  0  0  0  0  0  0  0  0
    6.6150   -2.1830   21.9290 C   0  0  0  0  0  0  0  0  0  0  0  0
    6.3590    0.2860   17.8670 N   0  0  0  0  0  0  0  0  0  0  0  0
    5.1670    0.8140   17.7460 C   0  0  0  0  0  0  0  0  0  0  0  0
    4.2770    1.2490   18.8900 C   0  0  0  0  0  0  0  0  0  0  0  0
    4.8040    1.0790   20.2490 C   0  0  0  0  0  0  0  0  0  0  0  0
    6.1920    0.4910   20.3260 C   0  0  0  0  0  0  0  0  0  0  0  0
    6.8040    0.1510   19.1290 C   0  0  0  0  0  0  0  0  0  0  0  0
   10.0190   -1.2470   24.2410 N   0  0  0  0  0  0  0  0  0  0  0  0
    8.7180   -1.1600   23.9020 N   0  0  0  0  0  0  0  0  0  0  0  0
    8.7100   -1.1920   22.5670 C   0  0  0  0  0  0  0  0  0  0  0  0
   10.0110   -1.3050   22.1550 C   0  0  0  0  0  0  0  0  0  0  0  0
   10.8500   -1.3370   23.2060 C   0  0  0  0  0  0  0  0  0  0  0  0
    9.6070    3.4500   23.5590 C   0  0  0  0  0  0  0  0  0  0  0  0
   10.3260    4.5940   23.8110 C   0  0  0  0  0  0  0  0  0  0  0  0
    9.7970    5.8370   23.4830 C   0  0  0  0  0  0  0  0  0  0  0  0
    8.5170    5.9370   22.8770 C   0  0  0  0  0  0  0  0  0  0  0  0
    7.8050    4.7550   22.6290 C   0  0  0  0  0  0  0  0  0  0  0  0
    8.3390    3.5360   22.9720 C   0  0  0  0  0  0  0  0  0  0  0  0
    1.5410    3.7980   25.2340 C   0  0  0  0  0  0  0  0  0  0  0  0
    1.2070    2.5720   24.6180 C   0  0  0  0  0  0  0  0  0  0  0  0
   -0.1070    2.0660   24.6070 C   0  0  0  0  0  0  0  0  0  0  0  0
   -1.1640    2.7540   25.2100 C   0  0  0  0  0  0  0  0  0  0  0  0
   -0.9380    3.9710   25.8440 C   0  0  0  0  0  0  0  0  0  0  0  0
    0.5380    4.5550   25.8630 C   0  0  0  0  0  0  0  0  0  0  0  0
    4.9030   -6.0190   26.1270 C   0  0  0  0  0  0  0  0  0  0  0  0
    7.1050   -5.5130   26.4070 O   0  0  0  0  0  0  0  0  0  0  0  0
    6.1500   -5.6350   25.6460 C   0  0  0  0  0  0  0  0  0  0  0  0
    5.4880   -4.2530   19.8370 O   0  0  0  0  0  0  0  0  0  0  0  0
    6.6060   -4.2720   20.3660 C   0  0  0  0  0  0  0  0  0  0  0  0
    7.7030   -3.4120   19.7630 C   0  0  0  0  0  0  0  0  0  0  0  0
    6.2730   -5.4230   24.2850 N   0  0  0  0  0  0  0  0  0  0  0  0
    7.4930   -5.1070   23.7760 C   0  0  0  0  0  0  0  0  0  0  0  0
    7.6440   -4.4790   22.5620 C   0  0  1  0  0  0  0  0  0  0  0  0
    6.8760   -5.1020   21.4650 N   0  0  0  0  0  0  0  0  0  0  0  0
    5.9330   -6.1500   21.8950 C   0  0  0  0  0  0  0  0  0  0  0  0
    5.2790   -5.8160   23.2770 C   0  0  0  0  0  0  0  0  0  0  0  0
    7.0610   -3.1500   23.0120 C   0  0  0  0  0  0  0  0  0  0  0  0
  1  4  1  0
  2  5  1  0
  3  5  2  0
  4  5  1  6
  6  7  1  0
  9 10  1  0
  9 11  1  0
  9 12  1  0
 13 14  1  0
 15 16  2  0
 15 17  1  0
 17 18  1  0
 18 19  1  0
  1 21  1  0
 22 23  2  0
 23 24  1  0
 19 25  1  0
 24 25  2  0
  4 26  1  0
 25 26  1  0
 22 27  1  0
 26 27  2  0
 28 29  1  0
  1 30  1  0
 29 30  2  0
 30 31  1  0
  9 32  1  0
 28 32  1  0
 31 32  2  0
  6 33  1  0
 33 34  2  0
 13 35  1  0
 34 35  1  0
 35 36  2  0
  8 37  1  0
 36 37  1  0
  2 38  1  0
 33 38  1  0
 37 38  2  0
 20 39  1  0
 15 40  1  0
 39 40  2  0
 40 41  1  0
 41 42  2  0
 42 43  1  0
 39 44  1  0
 43 44  2  0
 45 47  1  0
 46 47  2  0
 48 49  2  0
 49 50  1  0
 47 51  1  0
 51 52  1  0
 52 53  1  0
 49 54  1  0
 53 54  1  0
 54 55  1  0
 51 56  1  0
 55 56  1  0
 21 57  1  0
 53 57  1  1
M  END
