x1493-x3110
     RDKit          3D

 41 43  0  0  0  0  0  0  0  0999 V2000
    8.2140    1.3520   23.4030 N   0  0  0  0  0  0  0  0  0  0  0  0
   13.4270    5.2750   22.8910 C   0  0  0  0  0  0  0  0  0  0  0  0
   12.0800    3.3240   22.2780 O   0  0  0  0  0  0  0  0  0  0  0  0
   12.6300    4.4970   21.8950 C   0  0  0  0  0  0  0  0  0  0  0  0
    7.2380   -1.4170   21.8290 N   0  0  0  0  0  0  0  0  0  0  0  0
   11.2660    4.5460   24.1760 O   0  0  0  0  0  0  0  0  0  0  0  0
   11.2320    3.4530   23.3880 C   0  0  0  0  0  0  0  0  0  0  0  0
    8.7780    1.5890   21.1740 O   0  0  0  0  0  0  0  0  0  0  0  0
   10.2500    2.2120   23.5890 C   0  0  0  0  0  0  0  0  0  0  0  0
    8.9250    2.5120   23.5240 C   0  0  0  0  0  0  0  0  0  0  0  0
    8.0560    1.0430   22.0220 C   0  0  0  0  0  0  0  0  0  0  0  0
    6.9500    0.0510   21.6780 C   0  0  1  0  0  0  0  0  0  0  0  0
   12.3510   -1.8770   24.3340 C   0  0  0  0  0  0  0  0  0  0  0  0
   12.8160   -0.5100   24.7370 C   0  0  0  0  0  0  0  0  0  0  0  0
   13.2610   -1.3560   23.4670 C   0  0  0  0  0  0  0  0  0  0  0  0
   12.8570   -2.9590   24.9880 C   0  0  0  0  0  0  0  0  0  0  0  0
    4.9890   -5.9790   26.1530 C   0  0  0  0  0  0  0  0  0  0  0  0
    7.1920   -5.6380   26.7130 O   0  0  0  0  0  0  0  0  0  0  0  0
    6.3200   -5.6750   25.8510 C   0  0  0  0  0  0  0  0  0  0  0  0
    5.2510   -4.4800   19.8490 O   0  0  0  0  0  0  0  0  0  0  0  0
    6.3350   -4.1510   20.2960 C   0  0  0  0  0  0  0  0  0  0  0  0
    7.2790   -3.3030   19.4640 C   0  0  0  0  0  0  0  0  0  0  0  0
    6.1780   -2.1710   22.4800 C   0  0  0  0  0  0  0  0  0  0  0  0
    6.3690    0.4100   17.8880 N   0  0  0  0  0  0  0  0  0  0  0  0
    5.2860    1.2260   17.7690 C   0  0  0  0  0  0  0  0  0  0  0  0
    4.5630    1.7740   19.0050 C   0  0  0  0  0  0  0  0  0  0  0  0
    5.1380    1.3590   20.3610 C   0  0  0  0  0  0  0  0  0  0  0  0
    6.3540    0.4530   20.3400 C   0  0  0  0  0  0  0  0  0  0  0  0
    6.8450    0.0630   19.0930 C   0  0  0  0  0  0  0  0  0  0  0  0
    9.5880   -2.1250   21.7790 C   0  0  0  0  0  0  0  0  0  0  0  0
   10.8370   -2.2280   22.4160 C   0  0  0  0  0  0  0  0  0  0  0  0
   11.0230   -1.7760   23.7050 C   0  0  0  0  0  0  0  0  0  0  0  0
    9.9370   -1.1760   24.4520 C   0  0  0  0  0  0  0  0  0  0  0  0
    8.6350   -1.0920   23.7290 C   0  0  0  0  0  0  0  0  0  0  0  0
    8.4920   -1.5540   22.4270 C   0  0  0  0  0  0  0  0  0  0  0  0
    6.6030   -5.4310   24.4030 N   0  0  0  0  0  0  0  0  0  0  0  0
    7.1290   -4.1520   23.9320 C   0  0  0  0  0  0  0  0  0  0  0  0
    6.3730   -3.6950   22.7120 C   0  0  2  0  0  0  0  0  0  0  0  0
    6.6830   -4.5630   21.5630 N   0  0  0  0  0  0  0  0  0  0  0  0
    6.2810   -5.9760   21.9480 C   0  0  0  0  0  0  0  0  0  0  0  0
    5.6570   -5.9980   23.3700 C   0  0  0  0  0  0  0  0  0  0  0  0
  2  4  1  0
  3  4  1  0
  3  7  1  0
  6  7  2  0
  7  9  1  0
  1 10  1  0
  9 10  1  0
  1 11  1  0
  8 11  2  0
  5 12  1  0
 12 11  1  6
 13 14  1  0
 13 15  1  0
 13 16  1  0
 17 19  1  0
 18 19  2  0
 20 21  2  0
 21 22  1  0
  5 23  1  0
 24 25  2  0
 25 26  1  0
 26 27  2  0
 12 28  1  0
 27 28  1  0
 24 29  1  0
 28 29  2  0
 30 31  2  0
 13 32  1  0
 31 32  1  0
 32 33  2  0
 33 34  1  0
  5 35  1  0
 30 35  1  0
 34 35  2  0
 19 36  1  0
 36 37  1  0
 38 23  1  6
 37 38  1  0
 21 39  1  0
 38 39  1  0
 39 40  1  0
 36 41  1  0
 40 41  1  0
M  END
