x1493-x2764
     RDKit          3D

 32 34  0  0  0  0  0  0  0  0999 V2000
    8.7120   -1.1130   21.2640 N   0  0  0  0  0  0  0  0  0  0  0  0
    7.5370   -1.1440   21.1420 C   0  0  0  0  0  0  0  0  0  0  0  0
    6.7290   -2.0370   21.9340 N   0  0  0  0  0  0  0  0  0  0  0  0
    9.1110   -1.8140   22.2840 C   0  0  0  0  0  0  0  0  0  0  0  0
    6.4520    1.5330   22.0100 O   0  0  0  0  0  0  0  0  0  0  0  0
    7.9620    4.7870   22.7520 N   0  0  0  0  0  0  0  0  0  0  0  0
    7.8070    1.9020   22.1680 C   0  0  0  0  0  0  0  0  0  0  0  0
    7.9100    3.4690   22.4690 C   0  0  0  0  0  0  0  0  0  0  0  0
    4.8610   -6.0720   26.2230 C   0  0  0  0  0  0  0  0  0  0  0  0
    7.2210   -5.4790   26.4570 O   0  0  0  0  0  0  0  0  0  0  0  0
    6.1970   -5.6410   25.5680 C   0  0  0  0  0  0  0  0  0  0  0  0
    5.3810   -4.3260   19.8500 O   0  0  0  0  0  0  0  0  0  0  0  0
    6.5140   -4.2110   20.3090 C   0  0  0  0  0  0  0  0  0  0  0  0
    7.5470   -3.3250   19.5920 C   0  0  0  0  0  0  0  0  0  0  0  0
    7.2200   -2.9320   22.9670 C   0  0  0  0  0  0  0  0  0  0  0  0
   12.8480   -1.6640   22.5090 N   0  0  0  0  0  0  0  0  0  0  0  0
   11.6120   -1.8040   21.9570 C   0  0  0  0  0  0  0  0  0  0  0  0
   10.5250   -1.6840   22.7530 C   0  0  0  0  0  0  0  0  0  0  0  0
   10.9130   -1.4280   24.0460 C   0  0  0  0  0  0  0  0  0  0  0  0
   12.6750   -1.3640   24.1440 S   0  0  0  0  0  0  0  0  0  0  0  0
    6.4810   -0.5680   18.8870 C   0  0  0  0  0  0  0  0  0  0  0  0
    5.7500    0.2320   18.0000 C   0  0  0  0  0  0  0  0  0  0  0  0
    5.2240    1.4590   18.3310 C   0  0  0  0  0  0  0  0  0  0  0  0
    5.4460    1.9770   19.7480 C   0  0  0  0  0  0  0  0  0  0  0  0
    6.2320    1.1220   20.7300 C   0  0  0  0  0  0  0  0  0  0  0  0
    6.7630   -0.2300   20.2170 C   0  0  0  0  0  0  0  0  0  0  0  0
    6.3110   -5.4900   24.2000 N   0  0  0  0  0  0  0  0  0  0  0  0
    7.5460   -5.3100   23.6790 C   0  0  0  0  0  0  0  0  0  0  0  0
    7.6570   -4.3240   22.5400 C   0  0  1  0  0  0  0  0  0  0  0  0
    6.8440   -4.9190   21.4570 N   0  0  0  0  0  0  0  0  0  0  0  0
    6.0550   -6.0980   21.8860 C   0  0  0  0  0  0  0  0  0  0  0  0
    5.3000   -5.8010   23.1930 C   0  0  0  0  0  0  0  0  0  0  0  0
  1  2  1  0
  2  3  2  3
  1  4  1  0
  5  7  1  0
  6  8  3  0
  7  8  1  0
  9 11  1  0
 10 11  2  0
 12 13  2  0
 13 14  1  0
  3 15  1  0
 16 17  2  0
  4 18  1  0
 17 18  1  0
 18 19  2  0
 16 20  1  0
 19 20  1  0
 21 22  2  0
 22 23  1  0
 23 24  2  0
  5 25  1  0
 24 25  1  0
  2 26  1  0
 21 26  1  0
 25 26  2  0
 11 27  1  0
 27 28  1  0
 29 15  1  1
 28 29  1  0
 13 30  1  0
 29 30  1  0
 30 31  1  0
 27 32  1  0
 31 32  1  0
M  END
