x1493-x0354
     RDKit          3D

 32 35  0  0  0  0  0  0  0  0999 V2000
    4.7460   -6.3040   26.1330 C   0  0  0  0  0  0  0  0  0  0  0  0
    6.9390   -5.4770   26.4240 N   0  0  0  0  0  0  0  0  0  0  0  0
    5.9680   -5.5980   25.6110 C   0  0  0  0  0  0  0  0  0  0  0  0
    5.6630   -4.3390   19.8920 O   0  0  0  0  0  0  0  0  0  0  0  0
    6.6910   -4.3450   20.5980 C   0  0  0  0  0  0  0  0  0  0  0  0
    7.9370   -3.5840   20.1770 C   0  0  0  0  0  0  0  0  0  0  0  0
   13.2380   -1.0660   22.4590 C   0  0  0  0  0  0  0  0  0  0  0  0
    7.7210   -2.6480   25.7210 N   0  0  0  0  0  0  0  0  0  0  0  0
    7.5130   -0.6370   27.5380 O   0  0  0  0  0  0  0  0  0  0  0  0
    8.7220   -1.5510   25.6490 C   0  0  0  0  0  0  0  0  0  0  0  0
    8.3980   -0.3400   26.5400 C   0  0  0  0  0  0  0  0  0  0  0  0
    5.7540    3.8330   30.8120 C   0  0  0  0  0  0  0  0  0  0  0  0
    8.1130   -4.8710   26.1100 C   0  0  0  0  0  0  0  0  0  0  0  0
    7.8920   -3.8080   24.9890 C   0  0  1  0  0  0  0  0  0  0  0  0
    6.0260   -5.1150   24.3120 N   0  0  0  0  0  0  0  0  0  0  0  0
    6.9930   -4.2000   23.9850 C   0  0  2  0  0  0  0  0  0  0  0  0
    7.6800   -4.7370   22.8800 C   0  0  0  0  0  0  0  0  0  0  0  0
    6.7590   -5.0730   21.7910 N   0  0  0  0  0  0  0  0  0  0  0  0
    5.9070   -6.0270   22.1540 C   0  0  0  0  0  0  0  0  0  0  0  0
    5.2590   -5.6410   23.3200 C   0  0  0  0  0  0  0  0  0  0  0  0
   12.0770   -1.2430   23.3010 N   0  0  0  0  0  0  0  0  0  0  0  0
   11.1070   -2.1340   22.7000 C   0  0  0  0  0  0  0  0  0  0  0  0
    9.9860   -2.4790   23.7030 C   0  0  0  0  0  0  0  0  0  0  0  0
    9.8700   -1.5480   24.8750 N   0  0  0  0  0  0  0  0  0  0  0  0
   10.7820   -0.3840   25.0320 C   0  0  0  0  0  0  0  0  0  0  0  0
   11.5450   -0.0640   23.7350 C   0  0  0  0  0  0  0  0  0  0  0  0
    7.7830    1.5290   28.3730 C   0  0  0  0  0  0  0  0  0  0  0  0
    7.3620    2.7470   29.2260 C   0  0  0  0  0  0  0  0  0  0  0  0
    6.1690    2.6130   29.9600 C   0  0  0  0  0  0  0  0  0  0  0  0
    5.3450    1.3310   29.9080 C   0  0  0  0  0  0  0  0  0  0  0  0
    5.8410    0.3000   29.0930 C   0  0  0  0  0  0  0  0  0  0  0  0
    7.0120    0.3600   28.3390 C   0  0  0  0  0  0  0  0  0  0  0  0
  1  3  1  0
  2  3  2  0
  4  5  2  0
  5  6  1  0
  8 10  2  3
  9 11  1  0
 10 11  1  0
  2 13  1  0
 14  8  1  1
 13 14  1  0
  3 15  1  0
 14 16  1  0
 15 16  1  0
 16 17  1  6
  5 18  1  0
 17 18  1  0
 18 19  1  0
 15 20  1  0
 19 20  1  0
  7 21  1  0
 21 22  1  0
 22 23  1  0
 10 24  1  0
 23 24  1  0
 24 25  1  0
 21 26  1  0
 25 26  1  0
 27 28  2  0
 12 29  1  0
 28 29  1  0
 29 30  2  0
 30 31  1  0
  9 32  1  0
 27 32  1  0
 31 32  2  0
M  END
