x1493-x2776-x2694
     RDKit          3D

 45 48  0  0  0  0  0  0  0  0999 V2000
    7.5350   -1.0760   21.5850 N   0  0  0  0  0  0  0  0  0  0  0  0
    7.7870    2.0810   22.8780 N   0  0  0  0  0  0  0  0  0  0  0  0
    8.9350    1.4460   21.0160 O   0  0  0  0  0  0  0  0  0  0  0  0
   10.8350    6.7880   23.9070 O   0  0  0  0  0  0  0  0  0  0  0  0
    6.9420    0.1880   21.5230 C   0  0  1  0  0  0  0  0  0  0  0  0
   13.9180   -2.4240   24.2040 O   0  0  0  0  0  0  0  0  0  0  0  0
    7.9880    1.2780   21.7690 C   0  0  0  0  0  0  0  0  0  0  0  0
   10.5110    1.8330   23.8470 C   0  0  0  0  0  0  0  0  0  0  0  0
   11.8460    6.6980   24.9120 C   0  0  0  0  0  0  0  0  0  0  0  0
   12.9320   -1.4890   23.8000 C   0  0  1  0  0  0  0  0  0  0  0  0
   13.1200   -0.1590   23.3820 C   0  0  0  0  0  0  0  0  0  0  0  0
   13.5280   -3.0040   25.4400 C   0  0  0  0  0  0  0  0  0  0  0  0
   12.1610   -2.0640   22.6310 C   0  0  0  0  0  0  0  0  0  0  0  0
    6.8360   -2.2070   21.8510 C   0  0  0  0  0  0  0  0  0  0  0  0
    6.2870    0.4470   17.7630 N   0  0  0  0  0  0  0  0  0  0  0  0
    5.1970    1.2470   17.7310 C   0  0  0  0  0  0  0  0  0  0  0  0
    4.6840    1.6690   18.9420 C   0  0  0  0  0  0  0  0  0  0  0  0
    5.2210    1.3330   20.1550 C   0  0  0  0  0  0  0  0  0  0  0  0
    6.3320    0.5300   20.1980 C   0  0  0  0  0  0  0  0  0  0  0  0
    6.8400    0.0950   18.9950 C   0  0  0  0  0  0  0  0  0  0  0  0
    9.8880    3.1730   23.6060 C   0  0  0  0  0  0  0  0  0  0  0  0
   10.6490    4.3280   23.8560 C   0  0  0  0  0  0  0  0  0  0  0  0
   10.0960    5.5740   23.6490 C   0  0  0  0  0  0  0  0  0  0  0  0
    8.6570    5.7670   23.1340 C   0  0  0  0  0  0  0  0  0  0  0  0
    7.9030    4.4660   22.8820 C   0  0  0  0  0  0  0  0  0  0  0  0
    8.5480    3.2380   23.1320 C   0  0  0  0  0  0  0  0  0  0  0  0
    9.7960   -1.5590   22.1160 C   0  0  0  0  0  0  0  0  0  0  0  0
   10.8450   -1.6070   23.0310 C   0  0  0  0  0  0  0  0  0  0  0  0
   10.9050   -1.2590   24.4200 C   0  0  0  0  0  0  0  0  0  0  0  0
    9.4410   -0.8070   24.6290 C   0  0  0  0  0  0  0  0  0  0  0  0
    8.4010   -0.7540   23.7440 C   0  0  0  0  0  0  0  0  0  0  0  0
    8.5610   -1.1260   22.4710 C   0  0  0  0  0  0  0  0  0  0  0  0
    4.8850   -6.1800   26.0790 C   0  0  0  0  0  0  0  0  0  0  0  0
    7.0610   -5.5740   26.3060 O   0  0  0  0  0  0  0  0  0  0  0  0
    6.0320   -5.6130   25.6370 C   0  0  0  0  0  0  0  0  0  0  0  0
    5.3220   -4.6060   19.9150 O   0  0  0  0  0  0  0  0  0  0  0  0
    6.4030   -4.3340   20.4170 C   0  0  0  0  0  0  0  0  0  0  0  0
    7.3270   -3.3660   19.6470 C   0  0  0  0  0  0  0  0  0  0  0  0
    5.9140   -5.0620   24.2750 N   0  0  0  0  0  0  0  0  0  0  0  0
    7.1730   -4.3760   23.9330 C   0  0  0  0  0  0  0  0  0  0  0  0
    7.5870   -4.4470   22.6220 C   0  0  1  0  0  0  0  0  0  0  0  0
    6.7330   -4.9200   21.6580 N   0  0  0  0  0  0  0  0  0  0  0  0
    6.0170   -6.1300   22.0670 C   0  0  0  0  0  0  0  0  0  0  0  0
    5.1880   -5.7870   23.1910 C   0  0  0  0  0  0  0  0  0  0  0  0
    7.9280   -3.2020   22.3200 C   0  0  0  0  0  0  0  0  0  0  0  0
  1  5  1  0
  2  7  1  0
  3  7  2  0
  5  7  1  6
  4  9  1  0
  6 10  1  0
 10 11  1  6
  6 12  1  0
 10 13  1  0
  1 14  1  0
 15 16  2  0
 16 17  1  0
 17 18  2  0
  5 19  1  0
 18 19  1  0
 15 20  1  0
 19 20  2  0
  8 21  1  0
 21 22  2  0
  4 23  1  0
 22 23  1  0
 23 24  2  0
 24 25  1  0
  2 26  1  0
 21 26  1  0
 25 26  2  0
 13 28  1  0
 27 28  2  0
 28 29  1  0
 29 30  2  0
 30 31  1  0
  1 32  1  0
 27 32  1  0
 31 32  2  0
 33 35  1  0
 34 35  2  0
 36 37  2  0
 37 38  1  0
 35 39  1  0
 39 40  1  0
 40 41  1  0
 37 42  1  0
 41 42  1  0
 42 43  1  0
 39 44  1  0
 43 44  1  0
 14 45  1  0
 41 45  1  6
M  END
