x1493-x2572
     RDKit          3D

 33 35  0  0  0  0  0  0  0  0999 V2000
    4.8650    1.2330   21.6160 C   0  0  0  0  0  0  0  0  0  0  0  0
    8.8420    1.2040   21.3010 O   0  0  0  0  0  0  0  0  0  0  0  0
    7.1160   -0.3840   21.1290 N   0  0  0  0  0  0  0  0  0  0  0  0
   13.1630   -2.9250   20.9000 N   0  0  0  0  0  0  0  0  0  0  0  0
    8.1730    0.0630   21.6940 C   0  0  0  0  0  0  0  0  0  0  0  0
    8.6990   -0.7690   22.8970 C   0  0  1  0  0  0  0  0  0  0  0  0
   13.4780   -1.6660   21.2040 C   0  0  0  0  0  0  0  0  0  0  0  0
    4.9390   -6.0080   26.3150 C   0  0  0  0  0  0  0  0  0  0  0  0
    7.3500   -5.5100   26.4320 O   0  0  0  0  0  0  0  0  0  0  0  0
    6.2350   -5.4830   25.6500 C   0  0  0  0  0  0  0  0  0  0  0  0
    5.1270   -4.4980   19.8070 O   0  0  0  0  0  0  0  0  0  0  0  0
    6.1260   -4.1430   20.3760 C   0  0  0  0  0  0  0  0  0  0  0  0
    7.1160   -3.2070   19.6560 C   0  0  0  0  0  0  0  0  0  0  0  0
    8.2680   -2.2790   22.8630 C   0  0  0  0  0  0  0  0  0  0  0  0
    7.2220   -2.9310   23.8100 C   0  0  0  0  0  0  0  0  0  0  0  0
    6.3290    0.5530   17.6750 N   0  0  0  0  0  0  0  0  0  0  0  0
    6.9510   -0.0270   18.7190 C   0  0  0  0  0  0  0  0  0  0  0  0
    6.4950    0.1840   20.0160 C   0  0  0  0  0  0  0  0  0  0  0  0
    5.3760    0.9930   20.2660 C   0  0  0  0  0  0  0  0  0  0  0  0
    4.7180    1.5970   19.2090 C   0  0  0  0  0  0  0  0  0  0  0  0
    5.1730    1.3950   17.9500 C   0  0  0  0  0  0  0  0  0  0  0  0
   10.5850    0.4950   23.7400 C   0  0  0  0  0  0  0  0  0  0  0  0
   12.0150    0.9020   23.8370 C   0  0  0  0  0  0  0  0  0  0  0  0
   13.0700    0.2190   23.0140 C   0  0  0  0  0  0  0  0  0  0  0  0
   12.5530   -0.8900   22.1210 C   0  0  0  0  0  0  0  0  0  0  0  0
   11.0610   -1.2520   22.0810 C   0  0  0  0  0  0  0  0  0  0  0  0
   10.1540   -0.5250   22.8940 C   0  0  0  0  0  0  0  0  0  0  0  0
    6.1340   -5.0580   24.2550 N   0  0  0  0  0  0  0  0  0  0  0  0
    7.2140   -4.4670   23.7140 C   0  0  1  0  0  0  0  0  0  0  0  0
    7.4680   -4.7520   22.3950 C   0  0  0  0  0  0  0  0  0  0  0  0
    6.2340   -4.5920   21.6800 N   0  0  0  0  0  0  0  0  0  0  0  0
    5.3060   -5.4790   22.0380 C   0  0  0  0  0  0  0  0  0  0  0  0
    5.6530   -6.1110   23.3090 C   0  0  0  0  0  0  0  0  0  0  0  0
  2  5  2  0
  3  5  1  0
  5  6  1  0
  4  7  3  0
  8 10  1  0
  9 10  2  0
 11 12  2  0
 12 13  1  0
  6 14  1  6
 14 15  1  0
 16 17  2  0
  3 18  1  0
 17 18  1  0
  1 19  1  0
 18 19  2  0
 19 20  1  0
 16 21  1  0
 20 21  2  0
 22 23  2  0
 23 24  1  0
  7 25  1  0
 24 25  2  0
 25 26  1  0
  6 27  1  0
 22 27  1  0
 26 27  2  0
 10 28  1  0
 29 15  1  6
 28 29  1  0
 29 30  1  0
 12 31  1  0
 30 31  1  0
 31 32  1  0
 28 33  1  0
 32 33  1  0
M  END
