x1493-x2562
     RDKit          3D

 36 39  0  0  0  0  0  0  0  0999 V2000
    8.3160   -0.1910   21.3670 C   0  0  0  0  0  0  0  0  0  0  0  0
    8.3780    1.0220   21.1430 O   0  0  0  0  0  0  0  0  0  0  0  0
    7.1430   -1.0000   20.9480 C   0  0  1  0  0  0  0  0  0  0  0  0
   12.0180    3.0130   23.3420 O   0  0  0  0  0  0  0  0  0  0  0  0
    9.2560   -0.9510   22.0040 N   0  0  0  0  0  0  0  0  0  0  0  0
   12.8420    6.5640   22.2950 O   0  0  0  0  0  0  0  0  0  0  0  0
    4.6660   -6.1820   25.9100 C   0  0  0  0  0  0  0  0  0  0  0  0
    6.9540   -5.3590   26.2860 O   0  0  0  0  0  0  0  0  0  0  0  0
    6.0330   -5.4550   25.4810 C   0  0  0  0  0  0  0  0  0  0  0  0
    5.3060   -4.6720   19.9280 O   0  0  0  0  0  0  0  0  0  0  0  0
    6.4000   -4.3440   20.3470 C   0  0  0  0  0  0  0  0  0  0  0  0
    7.2280   -3.3540   19.5490 C   0  0  0  0  0  0  0  0  0  0  0  0
    6.3580   -1.4110   22.2010 C   0  0  0  0  0  0  0  0  0  0  0  0
    5.9900   -2.8780   22.5040 C   0  0  0  0  0  0  0  0  0  0  0  0
    4.5800    1.4260   19.4980 N   0  0  0  0  0  0  0  0  0  0  0  0
    5.0790    1.3850   18.1340 C   0  0  0  0  0  0  0  0  0  0  0  0
    6.2060    0.5810   17.7120 N   0  0  0  0  0  0  0  0  0  0  0  0
    6.7610   -0.1220   18.6850 C   0  0  0  0  0  0  0  0  0  0  0  0
    6.3780   -0.1510   19.9920 C   0  0  0  0  0  0  0  0  0  0  0  0
    5.2670    0.6410   20.3790 C   0  0  0  0  0  0  0  0  0  0  0  0
   12.5790    4.5410   21.5370 N   0  0  0  0  0  0  0  0  0  0  0  0
   13.3860    5.4740   22.1920 C   0  0  2  0  0  0  0  0  0  0  0  0
   13.6270    4.7620   23.3240 C   0  0  0  0  0  0  0  0  0  0  0  0
   13.0490    3.7530   22.7050 C   0  0  1  0  0  0  0  0  0  0  0  0
   11.6900   -1.2620   22.2280 C   0  0  0  0  0  0  0  0  0  0  0  0
   13.0380   -0.6730   22.5240 C   0  0  0  0  0  0  0  0  0  0  0  0
   13.1930    0.7980   22.8990 C   0  0  0  0  0  0  0  0  0  0  0  0
   11.9040    1.6310   22.9750 C   0  0  0  0  0  0  0  0  0  0  0  0
   10.6080    0.9110   22.6510 C   0  0  0  0  0  0  0  0  0  0  0  0
   10.5380   -0.4530   22.2950 C   0  0  0  0  0  0  0  0  0  0  0  0
    6.1490   -4.9590   24.1740 N   0  0  0  0  0  0  0  0  0  0  0  0
    7.4950   -4.5440   23.7690 C   0  0  0  0  0  0  0  0  0  0  0  0
    7.1530   -3.8870   22.5590 C   0  0  1  0  0  0  0  0  0  0  0  0
    6.8860   -4.8690   21.5240 N   0  0  0  0  0  0  0  0  0  0  0  0
    6.1840   -6.0490   22.0480 C   0  0  0  0  0  0  0  0  0  0  0  0
    5.3200   -5.6110   23.1450 C   0  0  0  0  0  0  0  0  0  0  0  0
  1  2  2  0
  1  3  1  0
  1  5  1  0
  7  9  1  0
  8  9  2  0
 10 11  2  0
 11 12  1  0
  3 13  1  1
 13 14  1  0
 15 16  2  0
 16 17  1  0
 17 18  2  0
  3 19  1  0
 18 19  1  0
 15 20  1  0
 19 20  2  0
 22  6  1  1
 21 22  1  0
 22 23  1  0
 24  4  1  1
 21 24  1  0
 23 24  1  0
 25 26  2  0
 26 27  1  0
  4 28  1  0
 27 28  2  0
 28 29  1  0
  5 30  1  0
 25 30  1  0
 29 30  2  0
  9 31  1  0
 31 32  1  0
 33 14  1  1
 32 33  1  0
 11 34  1  0
 33 34  1  0
 34 35  1  0
 31 36  1  0
 35 36  1  0
M  END
