x1493-x0540-x0978-x3113
     RDKit          3D

 61 64  0  0  0  0  0  0  0  0999 V2000
    7.5240   -1.3990   21.7650 N   0  0  0  0  0  0  0  0  0  0  0  0
    8.3280    1.5440   23.1600 N   0  0  0  0  0  0  0  0  0  0  0  0
    8.8850    1.6240   20.9760 O   0  0  0  0  0  0  0  0  0  0  0  0
   11.7200    4.1420   23.2750 O   0  0  0  0  0  0  0  0  0  0  0  0
    7.1320    0.0270   21.5620 C   0  0  1  0  0  0  0  0  0  0  0  0
    8.2040    1.1200   21.8590 C   0  0  0  0  0  0  0  0  0  0  0  0
    9.3500    2.5030   23.5860 C   0  0  0  0  0  0  0  0  0  0  0  0
   10.7720    1.8840   23.5690 C   0  0  0  0  0  0  0  0  0  0  0  0
   11.9010    2.7560   23.0550 C   0  0  0  0  0  0  0  0  0  0  0  0
   12.9140    4.8270   22.8950 C   0  0  0  0  0  0  0  0  0  0  0  0
   12.6030   -2.0760   24.4540 C   0  0  0  0  0  0  0  0  0  0  0  0
   13.4490   -2.0690   23.2650 C   0  0  0  0  0  0  0  0  0  0  0  0
   12.8090   -3.1780   25.4000 C   0  0  0  0  0  0  0  0  0  0  0  0
   12.8090   -0.6740   24.8470 C   0  0  0  0  0  0  0  0  0  0  0  0
    2.8200    1.5410   24.5230 O   0  0  0  0  0  0  0  0  0  0  0  0
    2.8050    2.4490   23.7010 C   0  0  0  0  0  0  0  0  0  0  0  0
    3.9400    2.8830   23.0800 N   0  0  0  0  0  0  0  0  0  0  0  0
    4.9230    2.0430   22.4440 C   0  0  0  0  0  0  0  0  0  0  0  0
    4.2430    1.1280   21.4900 C   0  0  0  0  0  0  0  0  0  0  0  0
    1.6770    3.1390   23.3090 N   0  0  0  0  0  0  0  0  0  0  0  0
    2.0320   -5.6640   23.2790 N   0  0  0  0  0  0  0  0  0  0  0  0
    2.1080   -7.5630   25.3000 C   0  0  0  0  0  0  0  0  0  0  0  0
    4.3660   -7.9750   24.8180 O   0  0  0  0  0  0  0  0  0  0  0  0
    3.1460   -7.6260   24.2030 C   0  0  2  0  0  0  0  0  0  0  0  0
    1.0440   -7.2240   22.0660 O   0  0  0  0  0  0  0  0  0  0  0  0
    3.3410   -6.3660   23.3040 C   0  0  2  0  0  0  0  0  0  0  0  0
    4.2870   -4.1070   23.8160 O   0  0  0  0  0  0  0  0  0  0  0  0
    0.9950   -6.1720   22.6960 C   0  0  0  0  0  0  0  0  0  0  0  0
   -0.2840   -5.3880   22.8360 C   0  0  0  0  0  0  0  0  0  0  0  0
    6.4160   -2.3150   22.0290 C   0  0  0  0  0  0  0  0  0  0  0  0
    6.7740   -3.5510   22.8300 C   0  0  0  0  0  0  0  0  0  0  0  0
    4.6630   -6.0300   26.4040 C   0  0  0  0  0  0  0  0  0  0  0  0
    6.9550   -5.3880   26.4560 O   0  0  0  0  0  0  0  0  0  0  0  0
    5.7910   -5.7180   25.7090 C   0  0  0  0  0  0  0  0  0  0  0  0
    5.7640   -4.3790   19.8720 O   0  0  0  0  0  0  0  0  0  0  0  0
    6.7080   -4.3450   20.6790 C   0  0  0  0  0  0  0  0  0  0  0  0
    8.0600   -3.7670   20.3720 C   0  0  0  0  0  0  0  0  0  0  0  0
    6.3640    0.3470   17.8210 N   0  0  0  0  0  0  0  0  0  0  0  0
    5.1290    0.8690   17.8770 C   0  0  0  0  0  0  0  0  0  0  0  0
    4.4360    1.1220   19.0620 C   0  0  0  0  0  0  0  0  0  0  0  0
    5.0570    0.8380   20.2680 C   0  0  0  0  0  0  0  0  0  0  0  0
    6.3090    0.3380   20.3150 C   0  0  0  0  0  0  0  0  0  0  0  0
    6.9400    0.0780   19.1130 C   0  0  0  0  0  0  0  0  0  0  0  0
    9.9400   -1.4020   21.8850 C   0  0  0  0  0  0  0  0  0  0  0  0
   11.1500   -1.5700   22.5200 C   0  0  0  0  0  0  0  0  0  0  0  0
   11.2120   -1.9520   23.8420 C   0  0  0  0  0  0  0  0  0  0  0  0
   10.0570   -2.1810   24.5450 C   0  0  0  0  0  0  0  0  0  0  0  0
    8.6300   -2.0000   23.8450 C   0  0  0  0  0  0  0  0  0  0  0  0
    8.7070   -1.6040   22.5070 C   0  0  0  0  0  0  0  0  0  0  0  0
    0.5440    4.8680   24.7570 C   0  0  0  0  0  0  0  0  0  0  0  0
   -0.8180    5.0270   25.0400 C   0  0  0  0  0  0  0  0  0  0  0  0
   -1.7940    4.6240   24.1140 C   0  0  0  0  0  0  0  0  0  0  0  0
   -1.6810    3.3200   23.6070 C   0  0  0  0  0  0  0  0  0  0  0  0
   -0.4010    2.7960   23.3940 C   0  0  0  0  0  0  0  0  0  0  0  0
    0.6790    3.3840   24.3220 C   0  0  0  0  0  0  0  0  0  0  0  0
    5.8160   -5.7390   24.3160 N   0  0  0  0  0  0  0  0  0  0  0  0
    7.1660   -5.3050   23.8530 C   0  0  0  0  0  0  0  0  0  0  0  0
    7.4650   -5.8840   22.6160 C   0  0  0  0  0  0  0  0  0  0  0  0
    6.4970   -4.8800   22.0920 C   0  0  1  0  0  0  0  0  0  0  0  0
    5.1470   -5.2230   22.1610 C   0  0  0  0  0  0  0  0  0  0  0  0
    4.6580   -5.4200   23.4100 C   0  0  1  0  0  0  0  0  0  0  0  0
  1  5  1  0
  2  6  1  0
  3  6  2  0
  5  6  1  6
  2  7  1  0
  7  8  1  0
  4  9  1  0
  8  9  1  0
  4 10  1  0
 11 12  1  0
 11 13  1  0
 11 14  1  0
 15 16  2  0
 16 17  1  0
 17 18  1  0
 18 19  1  0
 16 20  1  0
 24 22  1  1
 23 24  1  0
 26 21  1  1
 24 26  1  0
 21 28  1  0
 25 28  2  0
 28 29  1  0
  1 30  1  0
 30 31  1  0
 32 34  1  0
 33 34  2  0
 35 36  2  0
 36 37  1  0
 38 39  2  0
 39 40  1  0
 19 41  1  0
 40 41  2  0
  5 42  1  0
 41 42  1  0
 38 43  1  0
 42 43  2  0
 44 45  2  0
 11 46  1  0
 45 46  1  0
 46 47  2  0
 47 48  1  0
  1 49  1  0
 44 49  1  0
 48 49  2  0
 50 51  1  0
 51 52  1  0
 52 53  1  0
 53 54  1  0
 20 55  1  0
 50 55  1  0
 54 55  1  0
 34 56  1  0
 56 57  1  0
 57 58  1  0
 59 31  1  1
 59 36  1  0
 58 59  1  0
 59 60  1  0
 26 61  1  0
 61 27  1  1
 56 61  1  0
 60 61  1  0
M  END
