x2052-x2540
     RDKit          3D

 44 48  0  0  0  0  0  0  0  0999 V2000
    7.7160   -0.9070   21.3710 N   0  0  0  0  0  0  0  0  0  0  0  0
    7.9960    1.9950   23.0640 N   0  0  0  0  0  0  0  0  0  0  0  0
    9.0540    1.8580   20.9060 O   0  0  0  0  0  0  0  0  0  0  0  0
    7.1140    0.3250   21.5070 C   0  0  1  0  0  0  0  0  0  0  0  0
    8.1060    1.4190   21.8340 C   0  0  0  0  0  0  0  0  0  0  0  0
    8.8810    3.0710   23.5180 C   0  0  0  0  0  0  0  0  0  0  0  0
    8.7940    3.2540   25.0190 C   0  0  0  0  0  0  0  0  0  0  0  0
    8.5340    4.3490   22.7660 C   0  0  0  0  0  0  0  0  0  0  0  0
   10.3610    2.7430   23.2300 C   0  0  0  0  0  0  0  0  0  0  0  0
   12.1700   -1.4740   23.6460 C   0  0  0  0  0  0  0  0  0  0  0  0
   12.7990   -1.4220   22.3960 C   0  0  0  0  0  0  0  0  0  0  0  0
   12.4560   -0.4740   24.5860 C   0  0  0  0  0  0  0  0  0  0  0  0
   12.5280   -2.6210   24.3180 C   0  0  0  0  0  0  0  0  0  0  0  0
    5.7030   -1.8660   25.3970 C   0  0  0  0  0  0  0  0  0  0  0  0
    4.4860   -1.8780   25.5190 O   0  0  0  0  0  0  0  0  0  0  0  0
    6.5690   -1.3080   26.2720 N   0  0  0  0  0  0  0  0  0  0  0  0
    5.6330   -4.3950   19.9660 O   0  0  0  0  0  0  0  0  0  0  0  0
    5.2180    2.1720   30.5820 O   0  0  0  0  0  0  0  0  0  0  0  0
    6.6000   -3.6330   20.2530 C   0  0  0  0  0  0  0  0  0  0  0  0
    7.4030   -3.0670   19.1040 C   0  0  0  0  0  0  0  0  0  0  0  0
    5.9970    3.3590   30.7120 C   0  0  0  0  0  0  0  0  0  0  0  0
    6.2560    0.4350   17.7690 N   0  0  0  0  0  0  0  0  0  0  0  0
    5.1980    1.2230   17.7740 C   0  0  0  0  0  0  0  0  0  0  0  0
    4.6480    1.7770   18.9240 C   0  0  0  0  0  0  0  0  0  0  0  0
    5.1800    1.5490   20.1680 C   0  0  0  0  0  0  0  0  0  0  0  0
    6.2870    0.7540   20.3090 C   0  0  0  0  0  0  0  0  0  0  0  0
    6.8400    0.1710   19.0550 C   0  0  0  0  0  0  0  0  0  0  0  0
    9.7890   -0.6890   24.2380 O   0  0  0  0  0  0  0  0  0  0  0  0
    8.4200   -0.6620   23.6040 N   0  0  0  0  0  0  0  0  0  0  0  0
    8.4370   -1.4290   22.4810 C   0  0  2  0  0  0  0  0  0  0  0  0
    9.8320   -1.9560   22.2050 C   0  0  0  0  0  0  0  0  0  0  0  0
   10.6330   -1.3830   23.3650 C   0  0  0  0  0  0  0  0  0  0  0  0
    7.0680   -3.3060   21.6160 N   0  0  0  0  0  0  0  0  0  0  0  0
    7.1670   -2.0060   22.0960 C   0  0  2  0  0  0  0  0  0  0  0  0
    6.2280   -1.6320   23.0000 C   0  0  0  0  0  0  0  0  0  0  0  0
    6.4240   -2.4850   24.1900 C   0  0  2  0  0  0  0  0  0  0  0  0
    6.1910   -3.9460   23.8650 C   0  0  0  0  0  0  0  0  0  0  0  0
    6.9420   -4.2920   22.5550 C   0  0  0  0  0  0  0  0  0  0  0  0
    6.2790    1.9240   28.3360 N   0  0  0  0  0  0  0  0  0  0  0  0
    6.6730    1.1320   27.1870 C   0  0  0  0  0  0  0  0  0  0  0  0
    6.2920   -0.3370   27.2630 C   0  0  0  0  0  0  0  0  0  0  0  0
    5.6150   -0.7770   28.4010 C   0  0  0  0  0  0  0  0  0  0  0  0
    5.2580    0.0340   29.4890 C   0  0  0  0  0  0  0  0  0  0  0  0
    5.5760    1.3970   29.4970 C   0  0  0  0  0  0  0  0  0  0  0  0
  1  4  1  0
  2  5  1  0
  3  5  2  0
  4  5  1  6
  6  2  1  0
  6  7  1  0
  6  8  1  0
  6  9  1  0
 10 11  1  0
 10 12  1  0
 10 13  1  0
 14 15  2  0
 14 16  1  0
 17 19  2  0
 19 20  1  0
 18 21  1  0
 22 23  2  0
 23 24  1  0
 24 25  2  0
  4 26  1  0
 25 26  1  0
 22 27  1  0
 26 27  2  0
 28 29  1  0
  1 30  1  0
 29 30  1  0
 30 31  1  6
 10 32  1  0
 28 32  1  0
 31 32  2  0
 19 33  1  0
 34  1  1  0
 30 34  1  0
 33 34  1  0
 34 35  1  1
 36 14  1  1
 35 36  1  0
 36 37  1  0
 33 38  1  0
 37 38  1  0
 39 40  2  0
 16 41  1  0
 40 41  1  0
 41 42  2  0
 42 43  1  0
 18 44  1  0
 39 44  1  0
 43 44  2  0
M  END
