x2052-x2572
     RDKit          3D

 39 43  0  0  0  0  0  0  0  0999 V2000
    6.3840   -1.5370   25.1280 C   0  0  0  0  0  0  0  0  0  0  0  0
    5.1510   -1.5410   25.0630 O   0  0  0  0  0  0  0  0  0  0  0  0
    7.1420   -0.8740   26.1700 N   0  0  0  0  0  0  0  0  0  0  0  0
    5.3460   -4.3310   19.8540 O   0  0  0  0  0  0  0  0  0  0  0  0
    5.3340    2.2350   30.4610 O   0  0  0  0  0  0  0  0  0  0  0  0
    6.1940   -3.4640   20.1200 C   0  0  0  0  0  0  0  0  0  0  0  0
    7.1650   -3.0210   19.0290 C   0  0  0  0  0  0  0  0  0  0  0  0
    5.9790    3.2640   30.6410 C   0  0  0  0  0  0  0  0  0  0  0  0
    4.9010    1.0560   21.8260 C   0  0  0  0  0  0  0  0  0  0  0  0
    9.0000    1.0700   21.3980 O   0  0  0  0  0  0  0  0  0  0  0  0
    7.4350   -0.7240   20.8230 N   0  0  0  0  0  0  0  0  0  0  0  0
   13.9990   -1.4620   20.4070 N   0  0  0  0  0  0  0  0  0  0  0  0
    8.4460   -0.0270   21.5840 C   0  0  0  0  0  0  0  0  0  0  0  0
    8.6310   -0.9620   22.6250 C   0  0  2  0  0  0  0  0  0  0  0  0
   13.2630   -1.3800   21.4720 C   0  0  0  0  0  0  0  0  0  0  0  0
    6.3010   -2.9330   21.4340 N   0  0  0  0  0  0  0  0  0  0  0  0
    7.2930   -1.8580   21.6370 C   0  0  2  0  0  0  0  0  0  0  0  0
    7.3220   -1.4040   22.9370 C   0  0  1  0  0  0  0  0  0  0  0  0
    7.1540   -2.2980   24.0140 C   0  0  2  0  0  0  0  0  0  0  0  0
    6.3640   -3.4720   23.8620 C   0  0  0  0  0  0  0  0  0  0  0  0
    6.6030   -3.9260   22.4640 C   0  0  0  0  0  0  0  0  0  0  0  0
    6.6190    2.0320   28.4560 N   0  0  0  0  0  0  0  0  0  0  0  0
    6.9910    1.1780   27.4590 C   0  0  0  0  0  0  0  0  0  0  0  0
    6.6010   -0.1580   27.3240 C   0  0  0  0  0  0  0  0  0  0  0  0
    5.7530   -0.6550   28.2940 C   0  0  0  0  0  0  0  0  0  0  0  0
    5.3500    0.1690   29.3220 C   0  0  0  0  0  0  0  0  0  0  0  0
    5.7810    1.4970   29.4020 C   0  0  0  0  0  0  0  0  0  0  0  0
    6.1730    0.6120   17.5600 N   0  0  0  0  0  0  0  0  0  0  0  0
    6.8350   -0.0150   18.5280 C   0  0  0  0  0  0  0  0  0  0  0  0
    6.5640    0.0130   19.9700 C   0  0  0  0  0  0  0  0  0  0  0  0
    5.3900    0.8470   20.4270 C   0  0  0  0  0  0  0  0  0  0  0  0
    4.6620    1.5470   19.2780 C   0  0  0  0  0  0  0  0  0  0  0  0
    5.1300    1.3660   17.9270 C   0  0  0  0  0  0  0  0  0  0  0  0
   10.2800   -0.5080   24.5610 C   0  0  0  0  0  0  0  0  0  0  0  0
   11.7760   -0.4720   24.9000 C   0  0  0  0  0  0  0  0  0  0  0  0
   12.8450   -0.7650   23.8800 C   0  0  0  0  0  0  0  0  0  0  0  0
   12.2960   -1.0910   22.5430 C   0  0  0  0  0  0  0  0  0  0  0  0
   10.9750   -1.1260   22.2650 C   0  0  0  0  0  0  0  0  0  0  0  0
    9.8990   -0.8370   23.2530 C   0  0  0  0  0  0  0  0  0  0  0  0
  1  2  2  0
  1  3  1  0
  4  6  2  0
  6  7  1  0
  5  8  1  0
 10 13  2  0
 11 13  1  0
 13 14  1  0
 12 15  3  0
  6 16  1  0
 17 11  1  6
 16 17  1  0
 18 14  1  1
 17 18  1  0
 19  1  1  1
 18 19  1  0
 19 20  1  0
 16 21  1  0
 20 21  1  0
 22 23  2  0
  3 24  1  0
 23 24  1  0
 24 25  2  0
 25 26  1  0
  5 27  1  0
 22 27  1  0
 26 27  2  0
 28 29  2  0
 11 30  1  0
 29 30  1  0
  9 31  1  0
 30 31  2  0
 31 32  1  0
 28 33  1  0
 32 33  2  0
 34 35  2  0
 35 36  1  0
 15 37  1  0
 36 37  2  0
 37 38  1  0
 14 39  1  1
 34 39  1  0
 38 39  2  0
M  END
