x2052-x0734
     RDKit          3D

 30 32  0  0  0  0  0  0  0  0999 V2000
    5.8140   -1.3830   25.0880 C   0  0  0  0  0  0  0  0  0  0  0  0
    4.6510   -1.0970   25.3400 O   0  0  0  0  0  0  0  0  0  0  0  0
    6.8470   -1.0940   25.9800 N   0  0  0  0  0  0  0  0  0  0  0  0
    5.5130   -4.5580   19.9610 O   0  0  0  0  0  0  0  0  0  0  0  0
    5.3620    2.1190   30.5500 O   0  0  0  0  0  0  0  0  0  0  0  0
    6.4340   -3.7750   20.2780 C   0  0  0  0  0  0  0  0  0  0  0  0
    7.1970   -3.1270   19.1260 C   0  0  0  0  0  0  0  0  0  0  0  0
    6.0310    3.3730   30.6960 C   0  0  0  0  0  0  0  0  0  0  0  0
    6.8040   -3.5230   21.6180 N   0  0  0  0  0  0  0  0  0  0  0  0
    7.6080   -2.2720   21.8760 C   0  0  0  0  0  0  0  0  0  0  0  0
    7.4570   -1.9840   23.2470 C   0  0  0  0  0  0  0  0  0  0  0  0
    6.1430   -2.0560   23.7760 C   0  0  1  0  0  0  0  0  0  0  0  0
    5.5420   -3.3210   23.5440 C   0  0  1  0  0  0  0  0  0  0  0  0
    6.2700   -4.2450   22.8080 C   0  0  0  0  0  0  0  0  0  0  0  0
    6.6430    2.0560   28.3670 N   0  0  0  0  0  0  0  0  0  0  0  0
    6.9730    1.2840   27.3110 C   0  0  0  0  0  0  0  0  0  0  0  0
    6.5240   -0.1590   27.1170 C   0  0  0  0  0  0  0  0  0  0  0  0
    5.7110   -0.6760   28.1280 C   0  0  0  0  0  0  0  0  0  0  0  0
    5.3510    0.0890   29.2290 C   0  0  0  0  0  0  0  0  0  0  0  0
    5.7820    1.4030   29.3770 C   0  0  0  0  0  0  0  0  0  0  0  0
    5.1890   -4.6570   25.7880 C   0  0  1  0  0  0  0  0  0  0  0  0
    4.5140   -5.8850   25.6120 O   0  0  0  0  0  0  0  0  0  0  0  0
    4.6400   -4.2270   26.8960 O   0  0  0  0  0  0  0  0  0  0  0  0
    6.5580   -4.9030   26.0010 C   0  0  0  0  0  0  0  0  0  0  0  0
    7.6360   -4.5160   24.9980 C   0  0  0  0  0  0  0  0  0  0  0  0
    8.9560   -4.7900   25.2450 C   0  0  0  0  0  0  0  0  0  0  0  0
    9.2830   -5.4250   26.4140 C   0  0  0  0  0  0  0  0  0  0  0  0
    8.3650   -5.7990   27.3810 C   0  0  0  0  0  0  0  0  0  0  0  0
    6.9840   -5.5450   27.1960 C   0  0  0  0  0  0  0  0  0  0  0  0
    4.7300   -3.7390   24.6160 C   0  0  0  0  0  0  0  0  0  0  0  0
  1  2  2  0
  1  3  1  0
  4  6  2  0
  6  7  1  0
  5  8  1  0
  6  9  1  0
  9 10  1  0
 10 11  1  0
 12  1  1  1
 11 12  1  0
 12 13  1  0
  9 14  1  0
 13 14  1  0
 15 16  2  0
  3 17  1  0
 16 17  1  0
 17 18  2  0
 18 19  1  0
  5 20  1  0
 15 20  1  0
 19 20  2  0
 21 22  1  6
 21 23  1  0
 21 24  1  0
 24 25  2  0
 25 26  1  0
 26 27  2  0
 27 28  1  0
 24 29  1  0
 28 29  2  0
 13 30  1  1
 21 30  1  0
M  CHG  1  23  -1
M  END
