x2052-x2705
     RDKit          3D

 48 52  0  0  0  0  0  0  0  0999 V2000
    7.5130    1.8840   22.7230 N   0  0  0  0  0  0  0  0  0  0  0  0
    9.2680    1.3920   21.1510 O   0  0  0  0  0  0  0  0  0  0  0  0
    7.4350   -0.2760   21.0580 C   0  0  2  0  0  0  0  0  0  0  0  0
    8.0490    0.9920   21.7040 C   0  0  0  0  0  0  0  0  0  0  0  0
   10.1360    2.0710   23.9380 C   0  0  0  0  0  0  0  0  0  0  0  0
    9.2650    1.2390   24.8950 C   0  0  0  0  0  0  0  0  0  0  0  0
    6.0390    4.3960   21.8470 C   0  0  0  0  0  0  0  0  0  0  0  0
   12.3200   -1.7470   23.2360 C   0  0  0  0  0  0  0  0  0  0  0  0
   13.0400   -0.8380   24.0030 C   0  0  0  0  0  0  0  0  0  0  0  0
   13.0650   -2.4040   24.4290 C   0  0  0  0  0  0  0  0  0  0  0  0
   12.8940   -1.9930   21.8340 C   0  0  0  0  0  0  0  0  0  0  0  0
    5.3880   -1.6740   25.2570 C   0  0  0  0  0  0  0  0  0  0  0  0
    4.2690   -1.8640   25.6990 O   0  0  0  0  0  0  0  0  0  0  0  0
    6.4600   -0.9520   26.0100 N   0  0  0  0  0  0  0  0  0  0  0  0
    5.5490   -4.2300   19.8960 O   0  0  0  0  0  0  0  0  0  0  0  0
    5.4820    2.1170   30.5470 O   0  0  0  0  0  0  0  0  0  0  0  0
    6.5010   -3.4450   20.1720 C   0  0  0  0  0  0  0  0  0  0  0  0
    7.3690   -2.9850   19.0150 C   0  0  0  0  0  0  0  0  0  0  0  0
    6.2160    3.3350   30.6210 C   0  0  0  0  0  0  0  0  0  0  0  0
    6.2060    0.4930   17.5400 N   0  0  0  0  0  0  0  0  0  0  0  0
    5.0390    1.3120   17.8710 C   0  0  0  0  0  0  0  0  0  0  0  0
    4.6880    1.5340   19.2110 C   0  0  0  0  0  0  0  0  0  0  0  0
    5.4560    0.9980   20.2380 C   0  0  0  0  0  0  0  0  0  0  0  0
    6.5540    0.2530   19.8850 C   0  0  0  0  0  0  0  0  0  0  0  0
    6.9620   -0.0360   18.6420 C   0  0  0  0  0  0  0  0  0  0  0  0
    9.9920   -1.4240   24.5580 N   0  0  0  0  0  0  0  0  0  0  0  0
    8.6730   -1.4030   24.0840 N   0  0  0  0  0  0  0  0  0  0  0  0
    8.5830   -1.5760   22.7400 C   0  0  0  0  0  0  0  0  0  0  0  0
    9.9350   -1.7500   22.1600 C   0  0  0  0  0  0  0  0  0  0  0  0
   10.8070   -1.6410   23.3580 C   0  0  0  0  0  0  0  0  0  0  0  0
    9.3710    3.3060   23.4980 C   0  0  0  0  0  0  0  0  0  0  0  0
   10.0710    4.5590   23.7320 C   0  0  0  0  0  0  0  0  0  0  0  0
    9.4530    5.7430   23.3530 C   0  0  0  0  0  0  0  0  0  0  0  0
    8.0860    5.7290   22.7130 C   0  0  0  0  0  0  0  0  0  0  0  0
    7.3330    4.4380   22.4570 C   0  0  0  0  0  0  0  0  0  0  0  0
    8.0880    3.1910   22.9080 C   0  0  0  0  0  0  0  0  0  0  0  0
    6.8750   -3.0030   21.5370 N   0  0  0  0  0  0  0  0  0  0  0  0
    7.2340   -1.5520   22.0410 C   0  0  2  0  0  0  0  0  0  0  0  0
    6.2400   -1.1470   23.0870 C   0  0  0  0  0  0  0  0  0  0  0  0
    5.7150   -2.1830   23.8390 C   0  0  1  0  0  0  0  0  0  0  0  0
    6.4210   -3.3990   23.8520 C   0  0  0  0  0  0  0  0  0  0  0  0
    6.7080   -4.0030   22.6130 C   0  0  0  0  0  0  0  0  0  0  0  0
    6.3110    1.9550   28.3300 N   0  0  0  0  0  0  0  0  0  0  0  0
    6.5200    1.1380   27.2570 C   0  0  0  0  0  0  0  0  0  0  0  0
    6.1970   -0.2090   27.1930 C   0  0  0  0  0  0  0  0  0  0  0  0
    5.6130   -0.7570   28.3300 C   0  0  0  0  0  0  0  0  0  0  0  0
    5.3800    0.0420   29.4520 C   0  0  0  0  0  0  0  0  0  0  0  0
    5.7410    1.3770   29.4090 C   0  0  0  0  0  0  0  0  0  0  0  0
  1  4  1  0
  2  4  2  0
  3  4  1  1
  5  6  1  0
  8  9  1  0
  8 10  1  0
  8 11  1  0
 12 13  2  0
 12 14  1  0
 15 17  2  0
 17 18  1  0
 16 19  1  0
 20 21  2  0
 21 22  1  0
 22 23  2  0
  3 24  1  0
 23 24  1  0
 20 25  1  0
 24 25  2  0
 26 27  1  0
 27 28  1  0
 28 29  2  0
  8 30  1  0
 26 30  2  0
 29 30  1  0
  5 31  1  0
 31 32  2  0
 32 33  1  0
 33 34  2  0
  7 35  1  0
 34 35  1  0
  1 36  1  0
 31 36  1  0
 35 36  2  0
 17 37  1  0
  3 38  1  0
 38 28  1  1
 37 38  1  0
 38 39  1  0
 40 12  1  1
 39 40  1  0
 40 41  1  0
 37 42  1  0
 41 42  1  0
 43 44  2  0
 14 45  1  0
 44 45  1  0
 45 46  2  0
 46 47  1  0
 16 48  1  0
 43 48  1  0
 47 48  2  0
M  END
