x2052-x3298
     RDKit          3D

 47 51  0  0  0  0  0  0  0  0999 V2000
    7.0460    2.3880   22.6980 N   0  0  0  0  0  0  0  0  0  0  0  0
    6.7030    0.0420   21.8670 C   0  0  1  0  0  0  0  0  0  0  0  0
    7.5340    1.2840   21.9080 C   0  0  0  0  0  0  0  0  0  0  0  0
    9.0170    1.5080   23.7430 N   0  0  0  0  0  0  0  0  0  0  0  0
    8.5730    1.3490   21.2170 O   0  0  0  0  0  0  0  0  0  0  0  0
   11.0690    1.8760   24.6640 O   0  0  0  0  0  0  0  0  0  0  0  0
    9.8100   -0.0500   25.8880 O   0  0  0  0  0  0  0  0  0  0  0  0
   13.7000   -1.9740   20.7860 F   0  0  0  0  0  0  0  0  0  0  0  0
   10.2100    0.7600   24.5690 S   0  0  0  0  0  0  0  0  0  0  0  0
    5.6680   -1.3840   24.8600 C   0  0  0  0  0  0  0  0  0  0  0  0
    4.4640   -1.3480   25.1140 O   0  0  0  0  0  0  0  0  0  0  0  0
    6.6440   -0.8990   25.8640 N   0  0  0  0  0  0  0  0  0  0  0  0
    5.4490   -4.4330   19.9000 O   0  0  0  0  0  0  0  0  0  0  0  0
    5.4110    2.0060   30.4730 O   0  0  0  0  0  0  0  0  0  0  0  0
    6.3790   -3.6460   20.1360 C   0  0  0  0  0  0  0  0  0  0  0  0
    7.2540   -3.1130   19.0160 C   0  0  0  0  0  0  0  0  0  0  0  0
    6.1520    3.2140   30.6180 C   0  0  0  0  0  0  0  0  0  0  0  0
    6.5540   -0.0050   18.0080 N   0  0  0  0  0  0  0  0  0  0  0  0
    6.9500   -0.1660   19.2920 C   0  0  0  0  0  0  0  0  0  0  0  0
    6.2320    0.1650   20.4480 C   0  0  0  0  0  0  0  0  0  0  0  0
    4.9630    0.7100   20.2730 C   0  0  0  0  0  0  0  0  0  0  0  0
    4.4720    0.9120   19.0040 C   0  0  0  0  0  0  0  0  0  0  0  0
    5.2330    0.5750   17.9190 C   0  0  0  0  0  0  0  0  0  0  0  0
    7.8670    4.8410   22.6910 C   0  0  0  0  0  0  0  0  0  0  0  0
    8.9960    5.7120   23.0360 C   0  0  0  0  0  0  0  0  0  0  0  0
   10.1020    5.0880   23.5970 C   0  0  0  0  0  0  0  0  0  0  0  0
   10.1520    3.7220   23.8320 C   0  0  0  0  0  0  0  0  0  0  0  0
    9.0730    2.9000   23.5220 C   0  0  0  0  0  0  0  0  0  0  0  0
    7.9650    3.4670   22.9500 C   0  0  0  0  0  0  0  0  0  0  0  0
   12.3340    0.4200   23.2910 C   0  0  0  0  0  0  0  0  0  0  0  0
   13.3200   -0.1580   22.3670 C   0  0  0  0  0  0  0  0  0  0  0  0
   12.8980   -1.4010   21.6500 C   0  0  0  0  0  0  0  0  0  0  0  0
   11.5380   -1.9940   21.9040 C   0  0  0  0  0  0  0  0  0  0  0  0
   10.5990   -1.3210   22.8810 C   0  0  0  0  0  0  0  0  0  0  0  0
   11.0920   -0.1300   23.5050 C   0  0  0  0  0  0  0  0  0  0  0  0
    6.6990   -3.2460   21.4440 N   0  0  0  0  0  0  0  0  0  0  0  0
    7.7140   -2.1650   21.5900 C   0  0  0  0  0  0  0  0  0  0  0  0
    7.2890   -1.2680   22.7260 C   0  0  2  0  0  0  0  0  0  0  0  0
    6.1440   -1.9610   23.4980 C   0  0  1  0  0  0  0  0  0  0  0  0
    6.6220   -3.3860   23.7590 C   0  0  0  0  0  0  0  0  0  0  0  0
    6.6540   -4.1650   22.5980 C   0  0  0  0  0  0  0  0  0  0  0  0
    6.3230    1.9200   28.2880 N   0  0  0  0  0  0  0  0  0  0  0  0
    6.5940    1.1460   27.1960 C   0  0  0  0  0  0  0  0  0  0  0  0
    6.2990   -0.2210   27.0770 C   0  0  0  0  0  0  0  0  0  0  0  0
    5.6740   -0.8290   28.1780 C   0  0  0  0  0  0  0  0  0  0  0  0
    5.3840   -0.0620   29.3100 C   0  0  0  0  0  0  0  0  0  0  0  0
    5.7230    1.2970   29.3250 C   0  0  0  0  0  0  0  0  0  0  0  0
  1  3  1  0
  2  3  1  6
  3  5  2  0
  9  4  1  0
  6  9  2  0
  7  9  2  0
 10 11  2  0
 10 12  1  0
 13 15  2  0
 15 16  1  0
 14 17  1  0
 18 19  2  0
  2 20  1  0
 19 20  1  0
 20 21  2  0
 21 22  1  0
 18 23  1  0
 22 23  2  0
 24 25  2  0
 25 26  1  0
 26 27  2  0
  4 28  1  0
 27 28  1  0
  1 29  1  0
 24 29  1  0
 28 29  2  0
 30 31  2  0
  8 32  1  0
 31 32  1  0
 32 33  2  0
 33 34  1  0
  9 35  1  0
 30 35  1  0
 34 35  2  0
 15 36  1  0
 36 37  1  0
  2 38  1  0
 38 37  1  6
 39 10  1  1
 38 39  1  0
 39 40  1  0
 36 41  1  0
 40 41  1  0
 42 43  2  0
 12 44  1  0
 43 44  1  0
 44 45  2  0
 45 46  1  0
 14 47  1  0
 42 47  1  0
 46 47  2  0
M  END
