x2052-x2703
     RDKit          3D

 48 52  0  0  0  0  0  0  0  0999 V2000
    7.3400    1.9060   22.6710 N   0  0  0  0  0  0  0  0  0  0  0  0
    9.0760    1.4350   21.0320 O   0  0  0  0  0  0  0  0  0  0  0  0
    7.2720   -0.2820   21.1040 C   0  0  2  0  0  0  0  0  0  0  0  0
    7.8790    1.0280   21.6440 C   0  0  0  0  0  0  0  0  0  0  0  0
   10.0380    1.9330   23.9590 C   0  0  0  0  0  0  0  0  0  0  0  0
    9.1770    1.1810   24.9930 C   0  0  0  0  0  0  0  0  0  0  0  0
    6.0440    4.3270   21.7800 C   0  0  0  0  0  0  0  0  0  0  0  0
   12.6930   -2.3510   24.0040 C   0  0  0  0  0  0  0  0  0  0  0  0
   12.9960   -2.8240   25.2800 C   0  0  0  0  0  0  0  0  0  0  0  0
   13.1170   -1.2800   24.9890 C   0  0  0  0  0  0  0  0  0  0  0  0
    5.5620   -1.5930   25.2760 C   0  0  0  0  0  0  0  0  0  0  0  0
    4.3520   -1.7020   25.4030 O   0  0  0  0  0  0  0  0  0  0  0  0
    6.4310   -0.9090   26.1040 N   0  0  0  0  0  0  0  0  0  0  0  0
    5.4290   -4.3050   19.8650 O   0  0  0  0  0  0  0  0  0  0  0  0
    5.4070    2.1290   30.5840 O   0  0  0  0  0  0  0  0  0  0  0  0
    6.2900   -3.4470   20.1370 C   0  0  0  0  0  0  0  0  0  0  0  0
    7.2230   -2.9770   19.0330 C   0  0  0  0  0  0  0  0  0  0  0  0
    6.2240    3.2910   30.6730 C   0  0  0  0  0  0  0  0  0  0  0  0
    6.0760    0.5260   17.6440 N   0  0  0  0  0  0  0  0  0  0  0  0
    5.0620    1.0450   17.8690 C   0  0  0  0  0  0  0  0  0  0  0  0
    4.4960    1.2380   19.1430 C   0  0  0  0  0  0  0  0  0  0  0  0
    5.1490    0.8140   20.2880 C   0  0  0  0  0  0  0  0  0  0  0  0
    6.3550    0.2150   20.0290 C   0  0  0  0  0  0  0  0  0  0  0  0
    6.8390    0.0440   18.7700 C   0  0  0  0  0  0  0  0  0  0  0  0
   11.0490   -1.6540   22.2190 N   0  0  0  0  0  0  0  0  0  0  0  0
   11.2780   -2.2060   23.5200 C   0  0  0  0  0  0  0  0  0  0  0  0
   10.1750   -2.6370   24.4540 C   0  0  0  0  0  0  0  0  0  0  0  0
    8.7830   -2.4540   23.9330 C   0  0  0  0  0  0  0  0  0  0  0  0
    8.5130   -1.8700   22.5640 C   0  0  0  0  0  0  0  0  0  0  0  0
    9.7080   -1.4790   21.7430 C   0  0  0  0  0  0  0  0  0  0  0  0
    9.3200    3.1850   23.4800 C   0  0  0  0  0  0  0  0  0  0  0  0
   10.0270    4.3690   23.6810 C   0  0  0  0  0  0  0  0  0  0  0  0
    9.4490    5.7020   23.2560 C   0  0  0  0  0  0  0  0  0  0  0  0
    8.0860    5.6730   22.6100 C   0  0  0  0  0  0  0  0  0  0  0  0
    7.4000    4.3250   22.4350 C   0  0  0  0  0  0  0  0  0  0  0  0
    8.0330    3.1420   22.8720 C   0  0  0  0  0  0  0  0  0  0  0  0
    6.4050   -2.9610   21.4770 N   0  0  0  0  0  0  0  0  0  0  0  0
    7.1260   -1.6460   21.9910 C   0  0  2  0  0  0  0  0  0  0  0  0
    6.3860   -1.2830   23.0990 C   0  0  0  0  0  0  0  0  0  0  0  0
    6.3120   -2.2280   24.1190 C   0  0  2  0  0  0  0  0  0  0  0  0
    5.8080   -3.4820   23.7700 C   0  0  0  0  0  0  0  0  0  0  0  0
    6.1810   -3.9900   22.5150 C   0  0  0  0  0  0  0  0  0  0  0  0
    6.2530    1.9480   28.3890 N   0  0  0  0  0  0  0  0  0  0  0  0
    6.4680    1.1330   27.3290 C   0  0  0  0  0  0  0  0  0  0  0  0
    6.1300   -0.2080   27.2830 C   0  0  0  0  0  0  0  0  0  0  0  0
    5.5240   -0.7690   28.4020 C   0  0  0  0  0  0  0  0  0  0  0  0
    5.2880    0.0360   29.5060 C   0  0  0  0  0  0  0  0  0  0  0  0
    5.6650    1.3730   29.4580 C   0  0  0  0  0  0  0  0  0  0  0  0
  1  4  1  0
  2  4  2  0
  3  4  1  1
  5  6  1  0
  8  9  1  0
  8 10  1  0
 11 12  2  0
 11 13  1  0
 14 16  2  0
 16 17  1  0
 15 18  1  0
 19 20  2  0
 20 21  1  0
 21 22  2  0
  3 23  1  0
 22 23  1  0
 19 24  1  0
 23 24  2  0
  8 26  1  0
 25 26  2  0
 26 27  1  0
 27 28  2  0
 28 29  1  0
 25 30  1  0
 29 30  2  0
  5 31  1  0
 31 32  2  0
 32 33  1  0
 33 34  2  0
  7 35  1  0
 34 35  1  0
  1 36  1  0
 31 36  1  0
 35 36  2  0
 16 37  1  0
  3 38  1  0
 38 29  1  1
 37 38  1  0
 38 39  1  0
 40 11  1  1
 39 40  1  0
 40 41  1  0
 37 42  1  0
 41 42  1  0
 43 44  2  0
 13 45  1  0
 44 45  1  0
 45 46  2  0
 46 47  1  0
 15 48  1  0
 43 48  1  0
 47 48  2  0
M  END
