x2052-x3117
     RDKit          3D

 46 50  0  0  0  0  0  0  0  0999 V2000
    7.6600    1.5700   22.9970 N   0  0  0  0  0  0  0  0  0  0  0  0
    9.0760    1.7420   20.9750 O   0  0  0  0  0  0  0  0  0  0  0  0
    7.5210   -0.3320   21.1250 C   0  0  2  0  0  0  0  0  0  0  0  0
    8.1130    1.0110   21.7010 C   0  0  0  0  0  0  0  0  0  0  0  0
   12.4560   -1.7260   24.3660 C   0  0  0  0  0  0  0  0  0  0  0  0
   12.6390   -0.6080   25.1340 C   0  0  0  0  0  0  0  0  0  0  0  0
   13.3540   -1.6460   23.2760 C   0  0  0  0  0  0  0  0  0  0  0  0
   12.8710   -2.9860   25.1220 C   0  0  0  0  0  0  0  0  0  0  0  0
    5.4880   -1.7160   25.1790 C   0  0  0  0  0  0  0  0  0  0  0  0
    4.3240   -1.8180   25.5320 O   0  0  0  0  0  0  0  0  0  0  0  0
    6.5460   -1.1260   26.0270 N   0  0  0  0  0  0  0  0  0  0  0  0
    5.5030   -4.2420   19.8740 O   0  0  0  0  0  0  0  0  0  0  0  0
    5.3780    2.0760   30.5430 O   0  0  0  0  0  0  0  0  0  0  0  0
    6.4190   -3.4330   20.2060 C   0  0  0  0  0  0  0  0  0  0  0  0
    7.3310   -2.9950   19.0660 C   0  0  0  0  0  0  0  0  0  0  0  0
    6.1410    3.2900   30.6630 C   0  0  0  0  0  0  0  0  0  0  0  0
    6.2100    0.3400   17.7170 N   0  0  0  0  0  0  0  0  0  0  0  0
    5.0270    1.1190   18.0380 C   0  0  0  0  0  0  0  0  0  0  0  0
    4.6510    1.3960   19.3500 C   0  0  0  0  0  0  0  0  0  0  0  0
    5.4470    0.9180   20.3700 C   0  0  0  0  0  0  0  0  0  0  0  0
    6.5780    0.1890   20.0600 C   0  0  0  0  0  0  0  0  0  0  0  0
    6.9290   -0.0870   18.7560 C   0  0  0  0  0  0  0  0  0  0  0  0
    9.6240    5.0140   24.1210 O   0  0  0  0  0  0  0  0  0  0  0  0
   10.4840    3.9710   23.7070 C   0  0  0  0  0  0  0  0  0  0  0  0
    9.7680    2.6170   23.8720 C   0  0  0  0  0  0  0  0  0  0  0  0
    8.4200    2.7660   23.5290 C   0  0  0  0  0  0  0  0  0  0  0  0
    8.1010    3.8750   22.7220 C   0  0  0  0  0  0  0  0  0  0  0  0
    8.5480    5.1330   23.1850 C   0  0  0  0  0  0  0  0  0  0  0  0
    9.5930   -2.0950   21.9050 C   0  0  0  0  0  0  0  0  0  0  0  0
   10.8650   -2.1220   22.4630 C   0  0  0  0  0  0  0  0  0  0  0  0
   11.0940   -1.7230   23.7620 C   0  0  0  0  0  0  0  0  0  0  0  0
   10.0280   -1.2970   24.5030 C   0  0  0  0  0  0  0  0  0  0  0  0
    8.7570   -1.2640   23.9580 C   0  0  0  0  0  0  0  0  0  0  0  0
    8.5070   -1.6600   22.6380 C   0  0  0  0  0  0  0  0  0  0  0  0
    6.6330   -2.9920   21.5770 N   0  0  0  0  0  0  0  0  0  0  0  0
    7.2330   -1.6030   22.1150 C   0  0  2  0  0  0  0  0  0  0  0  0
    6.2980   -1.1630   23.0330 C   0  0  0  0  0  0  0  0  0  0  0  0
    5.8300   -2.1950   23.8620 C   0  0  1  0  0  0  0  0  0  0  0  0
    6.6280   -3.3610   23.8790 C   0  0  0  0  0  0  0  0  0  0  0  0
    6.5840   -4.0010   22.6340 C   0  0  0  0  0  0  0  0  0  0  0  0
    6.3220    2.0280   28.2300 N   0  0  0  0  0  0  0  0  0  0  0  0
    6.5980    1.1120   27.0800 C   0  0  0  0  0  0  0  0  0  0  0  0
    6.2930   -0.2440   27.1080 C   0  0  0  0  0  0  0  0  0  0  0  0
    5.6970   -0.7790   28.2620 C   0  0  0  0  0  0  0  0  0  0  0  0
    5.4070    0.0060   29.3740 C   0  0  0  0  0  0  0  0  0  0  0  0
    5.6940    1.3680   29.3990 C   0  0  0  0  0  0  0  0  0  0  0  0
  1  4  1  0
  2  4  2  0
  3  4  1  1
  5  6  1  0
  5  7  1  0
  5  8  1  0
  9 10  2  0
  9 11  1  0
 12 14  2  0
 14 15  1  0
 13 16  1  0
 17 18  2  0
 18 19  1  0
 19 20  2  0
  3 21  1  0
 20 21  1  0
 17 22  1  0
 21 22  2  0
 23 24  1  0
 24 25  1  0
  1 26  1  0
 25 26  1  0
 26 27  1  0
 23 28  1  0
 27 28  1  0
 29 30  2  0
  5 31  1  0
 30 31  1  0
 31 32  2  0
 32 33  1  0
 29 34  1  0
 33 34  2  0
 14 35  1  0
  3 36  1  0
 36 34  1  1
 35 36  1  0
 36 37  1  0
 38  9  1  1
 37 38  1  0
 38 39  1  0
 35 40  1  0
 39 40  1  0
 41 42  2  0
 11 43  1  0
 42 43  1  0
 43 44  2  0
 44 45  1  0
 13 46  1  0
 41 46  1  0
 45 46  2  0
M  END
