x2052-x0759
     RDKit          3D

 29 31  0  0  0  0  0  0  0  0999 V2000
    5.8300   -1.5800   25.2350 C   0  0  0  0  0  0  0  0  0  0  0  0
    4.6610   -1.2140   25.2650 O   0  0  0  0  0  0  0  0  0  0  0  0
    6.7910   -1.1870   26.1650 N   0  0  0  0  0  0  0  0  0  0  0  0
    5.5060   -4.4760   19.9180 O   0  0  0  0  0  0  0  0  0  0  0  0
    5.3000    2.2160   30.5620 O   0  0  0  0  0  0  0  0  0  0  0  0
    6.4730   -3.8040   20.3330 C   0  0  0  0  0  0  0  0  0  0  0  0
    7.3530   -3.1550   19.2560 C   0  0  0  0  0  0  0  0  0  0  0  0
    6.0440    3.4250   30.7110 C   0  0  0  0  0  0  0  0  0  0  0  0
    6.6860   -3.7300   21.7340 N   0  0  0  0  0  0  0  0  0  0  0  0
    7.7260   -2.8940   22.4100 C   0  0  2  0  0  0  0  0  0  0  0  0
    6.9460   -1.9560   23.0510 C   0  0  0  0  0  0  0  0  0  0  0  0
    6.3180   -2.5100   24.1690 C   0  0  2  0  0  0  0  0  0  0  0  0
    5.4200   -3.5280   23.7580 C   0  0  0  0  0  0  0  0  0  0  0  0
    5.7970   -4.3940   22.7190 C   0  0  0  0  0  0  0  0  0  0  0  0
    6.5630    2.0740   28.3740 N   0  0  0  0  0  0  0  0  0  0  0  0
    6.8980    1.2560   27.3560 C   0  0  0  0  0  0  0  0  0  0  0  0
    6.4640   -0.2020   27.2420 C   0  0  0  0  0  0  0  0  0  0  0  0
    5.6680   -0.6800   28.2790 C   0  0  0  0  0  0  0  0  0  0  0  0
    5.3040    0.1270   29.3400 C   0  0  0  0  0  0  0  0  0  0  0  0
    5.7180    1.4560   29.4200 C   0  0  0  0  0  0  0  0  0  0  0  0
   13.2860   -0.1350   24.2100 F   0  0  0  0  0  0  0  0  0  0  0  0
    9.7590   -0.7560   24.4610 C   0  0  0  0  0  0  0  0  0  0  0  0
   10.9840   -0.5010   24.9050 C   0  0  0  0  0  0  0  0  0  0  0  0
   12.0470   -0.3830   23.9020 C   0  0  0  0  0  0  0  0  0  0  0  0
   11.6840   -0.5480   22.5910 C   0  0  0  0  0  0  0  0  0  0  0  0
   10.4400   -0.8200   21.9570 C   0  0  0  0  0  0  0  0  0  0  0  0
    9.5650   -0.8940   23.0980 C   0  0  0  0  0  0  0  0  0  0  0  0
    8.9250   -2.4470   21.8520 C   0  0  0  0  0  0  0  0  0  0  0  0
    9.0400   -1.1010   21.5780 C   0  0  0  0  0  0  0  0  0  0  0  0
  1  2  2  0
  1  3  1  0
  4  6  2  0
  6  7  1  0
  5  8  1  0
  6  9  1  0
  9 10  1  0
 10 11  1  0
 12  1  1  6
 11 12  1  0
 12 13  1  0
  9 14  1  0
 13 14  1  0
 15 16  2  0
  3 17  1  0
 16 17  1  0
 17 18  2  0
 18 19  1  0
  5 20  1  0
 15 20  1  0
 19 20  2  0
 22 23  2  0
 21 24  1  0
 23 24  1  0
 24 25  2  0
 25 26  1  0
 22 27  1  0
 26 27  2  0
 10 28  1  6
 26 29  1  0
 28 29  1  0
M  END
