x2052-x1093
     RDKit          3D

 39 43  0  0  0  0  0  0  0  0999 V2000
    6.0950   -1.5220   25.0320 C   0  0  0  0  0  0  0  0  0  0  0  0
    4.9010   -1.2800   24.8780 O   0  0  0  0  0  0  0  0  0  0  0  0
    6.9570   -0.8870   26.0290 N   0  0  0  0  0  0  0  0  0  0  0  0
    5.4860   -4.2660   19.8460 O   0  0  0  0  0  0  0  0  0  0  0  0
    5.4000    2.1520   30.4840 O   0  0  0  0  0  0  0  0  0  0  0  0
    6.3970   -3.4450   20.0840 C   0  0  0  0  0  0  0  0  0  0  0  0
    7.3310   -3.0000   18.9750 C   0  0  0  0  0  0  0  0  0  0  0  0
    6.0100    3.2140   30.5830 C   0  0  0  0  0  0  0  0  0  0  0  0
   13.3580   -1.7400   23.9910 C   0  0  0  0  0  0  0  0  0  0  0  0
    8.7560    1.2840   21.0960 O   0  0  0  0  0  0  0  0  0  0  0  0
    8.7700    0.1400   21.5790 C   0  0  0  0  0  0  0  0  0  0  0  0
    7.6630   -0.7430   21.4780 C   0  0  2  0  0  0  0  0  0  0  0  0
    6.5950   -2.9450   21.3920 N   0  0  0  0  0  0  0  0  0  0  0  0
    7.7340   -2.1170   21.8730 C   0  0  2  0  0  0  0  0  0  0  0  0
    7.8520   -2.2340   23.2960 C   0  0  0  0  0  0  0  0  0  0  0  0
    6.7520   -2.5960   24.1400 C   0  0  2  0  0  0  0  0  0  0  0  0
    5.7550   -3.2540   23.4230 C   0  0  0  0  0  0  0  0  0  0  0  0
    6.2860   -3.8710   22.3150 C   0  0  0  0  0  0  0  0  0  0  0  0
    6.6530    1.9440   28.2750 N   0  0  0  0  0  0  0  0  0  0  0  0
    6.9280    1.2360   27.3790 C   0  0  0  0  0  0  0  0  0  0  0  0
    6.5640   -0.1040   27.1490 C   0  0  0  0  0  0  0  0  0  0  0  0
    5.7550   -0.6670   28.1280 C   0  0  0  0  0  0  0  0  0  0  0  0
    5.3580    0.0600   29.2390 C   0  0  0  0  0  0  0  0  0  0  0  0
    5.7950    1.3830   29.3460 C   0  0  0  0  0  0  0  0  0  0  0  0
   12.2860   -1.2880   23.2960 N   0  0  0  0  0  0  0  0  0  0  0  0
   12.1430    0.1690   23.4160 C   0  0  0  0  0  0  0  0  0  0  0  0
   10.6970    0.6130   23.1890 C   0  0  0  0  0  0  0  0  0  0  0  0
    9.9310   -0.2590   22.2580 N   0  0  0  0  0  0  0  0  0  0  0  0
   10.1410   -1.5730   22.3930 C   0  0  0  0  0  0  0  0  0  0  0  0
   11.0460   -1.9900   23.5060 C   0  0  0  0  0  0  0  0  0  0  0  0
    6.2350    0.1190   18.0330 N   0  0  0  0  0  0  0  0  0  0  0  0
    7.1670   -0.5260   18.8110 C   0  0  0  0  0  0  0  0  0  0  0  0
    6.9230   -0.2890   20.2280 C   0  0  0  0  0  0  0  0  0  0  0  0
    5.8320    0.5000   20.2680 C   0  0  0  0  0  0  0  0  0  0  0  0
    5.4130    0.7520   18.8660 C   0  0  0  0  0  0  0  0  0  0  0  0
    4.3850    1.4860   18.4290 N   0  0  0  0  0  0  0  0  0  0  0  0
    3.6700    2.0370   19.4210 C   0  0  0  0  0  0  0  0  0  0  0  0
    3.9960    1.8530   20.8870 C   0  0  0  0  0  0  0  0  0  0  0  0
    5.0740    1.0870   21.2850 C   0  0  0  0  0  0  0  0  0  0  0  0
  1  2  2  0
  1  3  1  0
  4  6  2  0
  6  7  1  0
  5  8  1  0
 10 11  2  0
 12 11  1  6
  6 13  1  0
 12 14  1  0
 13 14  1  0
 14 15  1  1
 16  1  1  6
 15 16  1  0
 16 17  1  0
 13 18  1  0
 17 18  1  0
 19 20  2  0
  3 21  1  0
 20 21  1  0
 21 22  2  0
 22 23  1  0
  5 24  1  0
 19 24  1  0
 23 24  2  0
  9 25  1  0
 25 26  1  0
 26 27  1  0
 11 28  1  0
 27 28  1  0
 28 29  1  0
 25 30  1  0
 29 30  1  0
 31 32  1  0
 12 33  1  0
 32 33  2  0
 33 34  1  0
 31 35  1  0
 34 35  2  0
 35 36  1  0
 36 37  2  0
 37 38  1  0
 34 39  1  0
 38 39  2  0
M  END
