x2052-x2643
     RDKit          3D

 36 40  0  0  0  0  0  0  0  0999 V2000
    5.7350   -1.6900   25.0900 C   0  0  0  0  0  0  0  0  0  0  0  0
    4.5420   -1.6710   25.3650 O   0  0  0  0  0  0  0  0  0  0  0  0
    6.7470   -1.1880   26.0010 N   0  0  0  0  0  0  0  0  0  0  0  0
    5.2170   -4.5800   19.8660 O   0  0  0  0  0  0  0  0  0  0  0  0
    5.3710    2.0740   30.5620 O   0  0  0  0  0  0  0  0  0  0  0  0
    5.9840   -3.6620   20.1100 C   0  0  0  0  0  0  0  0  0  0  0  0
    6.9480   -3.1030   19.0470 C   0  0  0  0  0  0  0  0  0  0  0  0
    6.0080    3.1200   30.6640 C   0  0  0  0  0  0  0  0  0  0  0  0
    7.2280   -1.2810   20.8750 N   0  0  0  0  0  0  0  0  0  0  0  0
    9.0570    0.1930   21.2030 O   0  0  0  0  0  0  0  0  0  0  0  0
   13.4280    0.5220   22.9420 Cl  0  0  0  0  0  0  0  0  0  0  0  0
    8.4640   -1.5340   22.8800 C   0  0  2  0  0  0  0  0  0  0  0  0
    8.3600   -0.7370   21.5510 C   0  0  0  0  0  0  0  0  0  0  0  0
    6.0040   -3.1490   21.3930 N   0  0  0  0  0  0  0  0  0  0  0  0
    6.9270   -2.0660   21.6520 C   0  0  2  0  0  0  0  0  0  0  0  0
    6.9470   -1.5080   22.9330 C   0  0  1  0  0  0  0  0  0  0  0  0
    6.0860   -2.2610   23.7320 C   0  0  1  0  0  0  0  0  0  0  0  0
    6.4620   -3.5810   23.6740 C   0  0  0  0  0  0  0  0  0  0  0  0
    6.0920   -4.0600   22.4080 C   0  0  0  0  0  0  0  0  0  0  0  0
    6.2550    1.9890   28.2160 N   0  0  0  0  0  0  0  0  0  0  0  0
    6.6120    1.1650   27.0330 C   0  0  0  0  0  0  0  0  0  0  0  0
    6.4390   -0.3030   27.0640 C   0  0  0  0  0  0  0  0  0  0  0  0
    5.9160   -0.8000   28.2750 C   0  0  0  0  0  0  0  0  0  0  0  0
    5.5660   -0.0550   29.4030 C   0  0  0  0  0  0  0  0  0  0  0  0
    5.7210    1.3210   29.4100 C   0  0  0  0  0  0  0  0  0  0  0  0
   11.8320    0.2970   23.3320 C   0  0  0  0  0  0  0  0  0  0  0  0
   10.9970    0.9960   24.1830 C   0  0  0  0  0  0  0  0  0  0  0  0
    9.6070    0.4740   24.2360 C   0  0  0  0  0  0  0  0  0  0  0  0
    9.5550   -0.6770   23.2980 C   0  0  0  0  0  0  0  0  0  0  0  0
   11.0530   -0.9970   22.5550 S   0  0  0  0  0  0  0  0  0  0  0  0
    6.3250    0.7440   17.7140 N   0  0  0  0  0  0  0  0  0  0  0  0
    6.8850   -0.0250   18.6440 C   0  0  0  0  0  0  0  0  0  0  0  0
    6.3880   -0.4240   20.0170 C   0  0  0  0  0  0  0  0  0  0  0  0
    5.0880    0.1210   20.3470 C   0  0  0  0  0  0  0  0  0  0  0  0
    4.4750    0.9310   19.3760 C   0  0  0  0  0  0  0  0  0  0  0  0
    5.1370    1.2300   18.0450 C   0  0  0  0  0  0  0  0  0  0  0  0
  1  2  2  0
  1  3  1  0
  4  6  2  0
  6  7  1  0
  5  8  1  0
  9 13  1  0
 10 13  2  0
 12 13  1  0
  6 14  1  0
 15  9  1  6
 14 15  1  0
 16 12  1  1
 15 16  1  0
 17  1  1  1
 16 17  1  0
 17 18  1  0
 14 19  1  0
 18 19  1  0
 20 21  2  0
  3 22  1  0
 21 22  1  0
 22 23  2  0
 23 24  1  0
  5 25  1  0
 20 25  1  0
 24 25  2  0
 11 26  1  0
 26 27  2  0
 27 28  1  0
 12 29  1  1
 28 29  2  0
 26 30  1  0
 29 30  1  0
 31 32  2  0
  9 33  1  0
 32 33  1  0
 33 34  2  0
 34 35  1  0
 31 36  1  0
 35 36  2  0
M  END
