x2052-x1380
     RDKit          3D

 27 29  0  0  0  0  0  0  0  0999 V2000
    5.9170   -1.6190   25.1990 C   0  0  2  0  0  0  0  0  0  0  0  0
    4.8120   -1.2660   24.7990 O   0  0  0  0  0  0  0  0  0  0  0  0
    6.6680   -0.6790   26.0490 N   0  0  0  0  0  0  0  0  0  0  0  0
    5.4600   -4.4220   19.8970 O   0  0  0  0  0  0  0  0  0  0  0  0
    5.6200    2.2160   30.4510 O   0  0  0  0  0  0  0  0  0  0  0  0
    6.4040   -3.6560   20.1450 C   0  0  0  0  0  0  0  0  0  0  0  0
    7.2760   -3.0940   19.0320 C   0  0  0  0  0  0  0  0  0  0  0  0
    6.1610    3.3150   30.4360 C   0  0  0  0  0  0  0  0  0  0  0  0
    6.7470   -3.3000   21.4490 N   0  0  0  0  0  0  0  0  0  0  0  0
    7.3150   -1.9570   21.6730 C   0  0  0  0  0  0  0  0  0  0  0  0
    7.0250   -1.3990   23.0850 C   0  0  0  0  0  0  0  0  0  0  0  0
    6.7450   -2.3440   24.0890 C   0  0  0  0  0  0  0  0  0  0  0  0
    6.1530   -3.5670   23.6910 C   0  0  0  0  0  0  0  0  0  0  0  0
    6.6790   -4.1550   22.5490 C   0  0  0  0  0  0  0  0  0  0  0  0
    6.7670    1.9420   28.2410 N   0  0  0  0  0  0  0  0  0  0  0  0
    6.8680    1.0330   27.2500 C   0  0  0  0  0  0  0  0  0  0  0  0
    6.2280   -0.1960   27.2340 C   0  0  0  0  0  0  0  0  0  0  0  0
    5.3750   -0.7820   28.1590 C   0  0  0  0  0  0  0  0  0  0  0  0
    5.2260    0.1840   29.2880 C   0  0  0  0  0  0  0  0  0  0  0  0
    5.8720    1.4490   29.3280 C   0  0  0  0  0  0  0  0  0  0  0  0
    7.6230   -4.0970   26.5080 C   0  0  0  0  0  0  0  0  0  0  0  0
    7.9150   -5.2530   27.2450 C   0  0  0  0  0  0  0  0  0  0  0  0
    7.4560   -5.3090   28.5380 C   0  0  0  0  0  0  0  0  0  0  0  0
    6.1760   -4.8590   28.7970 C   0  0  0  0  0  0  0  0  0  0  0  0
    6.1400   -3.3910   28.4540 C   0  0  0  0  0  0  0  0  0  0  0  0
    6.5770   -3.1850   27.0650 N   0  0  0  0  0  0  0  0  0  0  0  0
    5.5040   -2.8230   26.1410 C   0  0  0  0  0  0  0  0  0  0  0  0
  1  2  1  6
  1  3  1  0
  4  6  2  0
  6  7  1  0
  5  8  1  0
  6  9  1  0
  9 10  1  0
 10 11  1  0
  1 12  1  0
 11 12  1  0
 12 13  1  0
  9 14  1  0
 13 14  1  0
 15 16  2  0
  3 17  1  0
 16 17  1  0
 17 18  2  0
 18 19  1  0
  5 20  1  0
 15 20  1  0
 19 20  2  0
 21 22  1  0
 22 23  1  0
 23 24  1  0
 24 25  1  0
 21 26  1  0
 25 26  1  0
  1 27  1  0
 26 27  1  0
M  END
