x2052-x2569
     RDKit          3D

 38 42  0  0  0  0  0  0  0  0999 V2000
    5.4750   -1.2790   24.8240 C   0  0  0  0  0  0  0  0  0  0  0  0
    4.2670   -1.1490   24.9110 O   0  0  0  0  0  0  0  0  0  0  0  0
    6.4060   -0.7630   25.7540 N   0  0  0  0  0  0  0  0  0  0  0  0
    5.7380   -4.2060   19.9010 O   0  0  0  0  0  0  0  0  0  0  0  0
    5.6640    2.1010   30.5720 O   0  0  0  0  0  0  0  0  0  0  0  0
    6.7300   -3.4710   20.2510 C   0  0  0  0  0  0  0  0  0  0  0  0
    7.5570   -3.0120   19.0860 C   0  0  0  0  0  0  0  0  0  0  0  0
    6.1520    3.4420   30.5240 C   0  0  0  0  0  0  0  0  0  0  0  0
    8.2070   -0.0310   21.7600 C   0  0  0  0  0  0  0  0  0  0  0  0
    8.8410    0.9020   21.2710 O   0  0  0  0  0  0  0  0  0  0  0  0
    8.6940   -1.1080   22.4060 C   0  0  1  0  0  0  0  0  0  0  0  0
   14.0680   -1.4760   20.3680 N   0  0  0  0  0  0  0  0  0  0  0  0
    6.7970   -0.3290   21.8630 N   0  0  0  0  0  0  0  0  0  0  0  0
   13.2760   -1.3430   21.5170 C   0  0  0  0  0  0  0  0  0  0  0  0
    7.0570   -3.1970   21.6540 N   0  0  0  0  0  0  0  0  0  0  0  0
    7.8930   -2.2930   22.4500 C   0  0  2  0  0  0  0  0  0  0  0  0
    6.8920   -1.4200   22.8020 C   0  0  2  0  0  0  0  0  0  0  0  0
    6.0610   -2.0460   23.7070 C   0  0  2  0  0  0  0  0  0  0  0  0
    5.2240   -3.1020   23.0290 C   0  0  0  0  0  0  0  0  0  0  0  0
    6.2050   -3.9750   22.5350 C   0  0  0  0  0  0  0  0  0  0  0  0
    6.5560    1.9100   28.3570 N   0  0  0  0  0  0  0  0  0  0  0  0
    6.6750    1.1350   27.2370 C   0  0  0  0  0  0  0  0  0  0  0  0
    6.1200   -0.1540   27.0760 C   0  0  0  0  0  0  0  0  0  0  0  0
    5.3890   -0.7120   28.1260 C   0  0  0  0  0  0  0  0  0  0  0  0
    5.2290    0.0200   29.2890 C   0  0  0  0  0  0  0  0  0  0  0  0
    5.8500    1.4040   29.3960 C   0  0  0  0  0  0  0  0  0  0  0  0
   11.6650   -0.1690   24.5280 N   0  0  0  0  0  0  0  0  0  0  0  0
   12.6250   -0.5010   23.6650 C   0  0  0  0  0  0  0  0  0  0  0  0
   12.3380   -1.0270   22.4360 C   0  0  0  0  0  0  0  0  0  0  0  0
   11.0690   -1.2580   22.0060 C   0  0  0  0  0  0  0  0  0  0  0  0
   10.0400   -0.9340   22.8220 C   0  0  0  0  0  0  0  0  0  0  0  0
   10.3900   -0.3850   24.0990 C   0  0  0  0  0  0  0  0  0  0  0  0
    6.3910    0.2010   18.1600 N   0  0  0  0  0  0  0  0  0  0  0  0
    6.8230   -0.1260   19.4090 C   0  0  0  0  0  0  0  0  0  0  0  0
    6.1640    0.0310   20.6140 C   0  0  0  0  0  0  0  0  0  0  0  0
    4.8950    0.5860   20.5300 C   0  0  0  0  0  0  0  0  0  0  0  0
    4.3900    0.9440   19.2630 C   0  0  0  0  0  0  0  0  0  0  0  0
    5.1620    0.7400   18.1260 C   0  0  0  0  0  0  0  0  0  0  0  0
  1  2  2  0
  1  3  1  0
  4  6  2  0
  6  7  1  0
  5  8  1  0
  9 10  2  0
  9 11  1  0
  9 13  1  0
 12 14  3  0
  6 15  1  0
 11 16  1  0
 16 15  1  6
 17 13  1  6
 16 17  1  0
 18  1  1  6
 17 18  1  0
 18 19  1  0
 15 20  1  0
 19 20  1  0
 21 22  2  0
  3 23  1  0
 22 23  1  0
 23 24  2  0
 24 25  1  0
  5 26  1  0
 21 26  1  0
 25 26  2  0
 27 28  2  0
 14 29  1  0
 28 29  1  0
 29 30  2  0
 11 31  1  6
 30 31  1  0
 27 32  1  0
 31 32  2  0
 33 34  2  0
 13 35  1  0
 34 35  1  0
 35 36  2  0
 36 37  1  0
 33 38  1  0
 37 38  2  0
M  END
