x2052-x0991
     RDKit          3D

 25 26  0  0  0  0  0  0  0  0999 V2000
    5.5480   -1.4600   25.1440 C   0  0  0  0  0  0  0  0  0  0  0  0
    4.4120   -1.6280   25.5650 O   0  0  0  0  0  0  0  0  0  0  0  0
    6.6180   -0.8020   25.8870 N   0  0  0  0  0  0  0  0  0  0  0  0
    5.6500   -4.5010   19.9880 O   0  0  0  0  0  0  0  0  0  0  0  0
    5.5860    2.0650   30.6290 O   0  0  0  0  0  0  0  0  0  0  0  0
    6.4560   -3.5600   20.2050 C   0  0  0  0  0  0  0  0  0  0  0  0
    7.2920   -3.0750   19.0280 C   0  0  0  0  0  0  0  0  0  0  0  0
    6.0140    3.2170   30.6530 C   0  0  0  0  0  0  0  0  0  0  0  0
    9.6960   -5.6950   24.8770 N   0  0  0  0  0  0  0  0  0  0  0  0
    8.0000   -4.6760   22.6710 C   0  0  0  0  0  0  0  0  0  0  0  0
    7.7630   -5.6810   23.7990 C   0  0  0  0  0  0  0  0  0  0  0  0
    7.9700   -5.6200   26.3130 N   0  0  0  0  0  0  0  0  0  0  0  0
    8.5400   -5.6520   24.9670 C   0  0  0  0  0  0  0  0  0  0  0  0
    6.6540   -2.8820   21.4660 N   0  0  0  0  0  0  0  0  0  0  0  0
    6.8070   -1.5310   21.5390 C   0  0  0  0  0  0  0  0  0  0  0  0
    6.7630   -1.2460   22.9290 C   0  0  0  0  0  0  0  0  0  0  0  0
    5.8590   -1.9680   23.7350 C   0  0  1  0  0  0  0  0  0  0  0  0
    6.2100   -3.3100   23.7110 C   0  0  0  0  0  0  0  0  0  0  0  0
    7.1370   -3.4900   22.7190 C   0  0  1  0  0  0  0  0  0  0  0  0
    6.7090    2.0270   28.3520 N   0  0  0  0  0  0  0  0  0  0  0  0
    6.9140    1.2680   27.2400 C   0  0  0  0  0  0  0  0  0  0  0  0
    6.4000   -0.0320   27.0580 C   0  0  0  0  0  0  0  0  0  0  0  0
    5.6240   -0.6180   28.0710 C   0  0  0  0  0  0  0  0  0  0  0  0
    5.3750    0.1020   29.2380 C   0  0  0  0  0  0  0  0  0  0  0  0
    5.8820    1.3850   29.4090 C   0  0  0  0  0  0  0  0  0  0  0  0
  1  2  2  0
  1  3  1  0
  4  6  2  0
  6  7  1  0
  5  8  1  0
 10 11  1  0
  9 13  2  3
 11 13  1  0
 12 13  1  0
  6 14  1  0
 14 15  1  0
 15 16  1  0
 17  1  1  1
 16 17  1  0
 17 18  1  0
 19 10  1  6
 14 19  1  0
 18 19  1  0
 20 21  2  0
  3 22  1  0
 21 22  1  0
 22 23  2  0
 23 24  1  0
  5 25  1  0
 20 25  1  0
 24 25  2  0
M  END
