x2052-x0395
     RDKit          3D

 35 41  0  0  0  0  0  0  0  0999 V2000
    5.6760   -1.0110   24.7710 C   0  0  0  0  0  0  0  0  0  0  0  0
    4.3290   -0.5620   24.8260 O   0  0  0  0  0  0  0  0  0  0  0  0
    6.5350   -0.5250   25.8440 N   0  0  0  0  0  0  0  0  0  0  0  0
    5.3570   -4.5490   19.9050 O   0  0  0  0  0  0  0  0  0  0  0  0
    5.0990    2.1900   30.3760 O   0  0  0  0  0  0  0  0  0  0  0  0
    6.2780   -3.8030   20.2090 C   0  0  0  0  0  0  0  0  0  0  0  0
    7.2000   -3.1940   19.1530 C   0  0  0  0  0  0  0  0  0  0  0  0
    5.9180    3.2710   30.8140 C   0  0  0  0  0  0  0  0  0  0  0  0
    9.4540   -5.9270   25.5530 C   0  0  0  0  0  0  0  0  0  0  0  0
    9.2250   -0.9170   24.0450 C   0  0  1  0  0  0  0  0  0  0  0  0
   13.3120   -1.7050   21.7770 F   0  0  0  0  0  0  0  0  0  0  0  0
    7.7470   -2.1360   23.6120 S   0  0  0  0  0  0  0  0  0  0  0  0
    6.5500   -3.5080   21.5290 N   0  0  0  0  0  0  0  0  0  0  0  0
    7.5050   -2.5840   21.8670 C   0  0  1  0  0  0  0  0  0  0  0  0
    6.8110   -1.4580   22.3790 C   0  0  1  0  0  0  0  0  0  0  0  0
    6.1990   -1.9730   23.7490 C   0  0  2  0  0  0  0  0  0  0  0  0
    5.4320   -3.3100   23.6380 C   0  0  0  0  0  0  0  0  0  0  0  0
    5.9870   -4.3260   22.5990 C   0  0  0  0  0  0  0  0  0  0  0  0
    6.3820    1.9720   28.3320 N   0  0  0  0  0  0  0  0  0  0  0  0
    6.9920    1.5840   27.1080 C   0  0  0  0  0  0  0  0  0  0  0  0
    6.2660    0.3460   26.9980 C   0  0  0  0  0  0  0  0  0  0  0  0
    5.2920   -0.2440   27.8300 C   0  0  0  0  0  0  0  0  0  0  0  0
    4.8670    0.3440   28.9690 C   0  0  0  0  0  0  0  0  0  0  0  0
    5.4400    1.5110   29.2430 C   0  0  0  0  0  0  0  0  0  0  0  0
    9.5310   -4.4630   25.3400 C   0  0  0  0  0  0  0  0  0  0  0  0
    8.9250   -3.4480   26.1490 N   0  0  0  0  0  0  0  0  0  0  0  0
    9.2200   -2.2760   25.6630 N   0  0  0  0  0  0  0  0  0  0  0  0
    9.1360   -2.0910   24.3680 C   0  0  2  0  0  0  0  0  0  0  0  0
   10.3410   -3.4650   24.0730 S   0  0  0  0  0  0  0  0  0  0  0  0
   11.0740    0.4310   24.0870 C   0  0  0  0  0  0  0  0  0  0  0  0
   11.9170    1.1680   23.2920 C   0  0  0  0  0  0  0  0  0  0  0  0
   12.7990    0.2870   22.7290 C   0  0  0  0  0  0  0  0  0  0  0  0
   12.4190   -0.8800   22.3260 C   0  0  0  0  0  0  0  0  0  0  0  0
   11.0900   -1.3500   22.4180 C   0  0  0  0  0  0  0  0  0  0  0  0
   10.3150   -0.4700   23.2570 N   0  0  0  0  0  0  0  0  0  0  0  0
  1  2  2  0
  1  3  1  0
  4  6  2  0
  6  7  1  0
  5  8  1  0
 10 12  1  0
  6 13  1  0
 12 14  1  0
 14 13  1  1
 15 12  1  1
 14 15  1  0
 16  1  1  1
 12 16  1  0
 15 16  1  0
 16 17  1  0
 13 18  1  0
 17 18  1  0
 19 20  2  0
  3 21  1  0
 20 21  1  0
 21 22  2  0
 22 23  1  0
  5 24  1  0
 19 24  1  0
 23 24  2  0
  9 25  1  0
 25 26  2  0
 26 27  1  0
 10 28  1  0
 12 28  1  0
 28 27  1  1
 25 29  1  0
 28 29  1  0
 30 31  1  0
 31 32  1  0
 11 33  1  0
 32 33  2  0
 33 34  1  0
 10 35  1  6
 30 35  1  0
 34 35  1  0
M  END
