x2052-x2912
     RDKit          3D

 41 46  0  0  0  0  0  0  0  0999 V2000
    5.9670   -1.3370   25.0970 C   0  0  2  0  0  0  0  0  0  0  0  0
    4.8060   -0.9640   24.9670 O   0  0  0  0  0  0  0  0  0  0  0  0
    6.4190   -1.4950   26.4550 N   0  0  0  0  0  0  0  0  0  0  0  0
    5.3780   -4.5230   19.8940 O   0  0  0  0  0  0  0  0  0  0  0  0
    5.6010    2.3260   30.6700 O   0  0  0  0  0  0  0  0  0  0  0  0
    6.1110   -3.5660   20.1380 C   0  0  0  0  0  0  0  0  0  0  0  0
    7.0790   -3.0410   19.0720 C   0  0  0  0  0  0  0  0  0  0  0  0
    6.1530    3.4120   30.5530 C   0  0  0  0  0  0  0  0  0  0  0  0
    7.4210   -0.9370   21.0510 N   0  0  0  0  0  0  0  0  0  0  0  0
    8.0240   -1.0230   23.7950 C   0  0  1  0  0  0  0  0  0  0  0  0
    8.6140    0.8530   21.1590 O   0  0  0  0  0  0  0  0  0  0  0  0
    8.8440   -0.9660   22.5440 C   0  0  1  0  0  0  0  0  0  0  0  0
    8.2670   -0.2830   21.5040 C   0  0  0  0  0  0  0  0  0  0  0  0
   13.8420   -1.4190   20.5240 N   0  0  0  0  0  0  0  0  0  0  0  0
    5.1030    0.8170   21.9850 C   0  0  0  0  0  0  0  0  0  0  0  0
   13.3420   -2.0330   21.5670 C   0  0  0  0  0  0  0  0  0  0  0  0
    7.0490   -0.3300   24.5530 C   0  0  0  0  0  0  0  0  0  0  0  0
    6.0370   -2.9890   21.4160 N   0  0  0  0  0  0  0  0  0  0  0  0
    7.1060   -2.0620   21.8130 C   0  0  2  0  0  0  0  0  0  0  0  0
    6.8960   -1.5670   23.1170 C   0  0  1  0  0  0  0  0  0  0  0  0
    6.2990   -2.4150   24.1040 C   0  0  2  0  0  0  0  0  0  0  0  0
    5.3410   -3.2770   23.5880 C   0  0  0  0  0  0  0  0  0  0  0  0
    5.6830   -3.8050   22.3560 C   0  0  0  0  0  0  0  0  0  0  0  0
    6.6080    1.7860   28.4960 N   0  0  0  0  0  0  0  0  0  0  0  0
    6.7880    0.7650   27.4440 C   0  0  0  0  0  0  0  0  0  0  0  0
    6.2110   -0.5150   27.5560 C   0  0  0  0  0  0  0  0  0  0  0  0
    5.4470   -0.9120   28.6380 C   0  0  0  0  0  0  0  0  0  0  0  0
    5.2230    0.0790   29.7450 C   0  0  0  0  0  0  0  0  0  0  0  0
    5.8600    1.4370   29.5770 C   0  0  0  0  0  0  0  0  0  0  0  0
    6.2130    0.3180   17.7270 N   0  0  0  0  0  0  0  0  0  0  0  0
    5.1940    1.1010   18.0830 C   0  0  0  0  0  0  0  0  0  0  0  0
    4.7730    1.2960   19.5390 C   0  0  0  0  0  0  0  0  0  0  0  0
    5.5270    0.5950   20.5660 C   0  0  0  0  0  0  0  0  0  0  0  0
    6.5820   -0.2110   20.1430 C   0  0  0  0  0  0  0  0  0  0  0  0
    6.8920   -0.3200   18.6870 C   0  0  0  0  0  0  0  0  0  0  0  0
   10.6070    0.5230   23.4920 C   0  0  0  0  0  0  0  0  0  0  0  0
   12.0640    0.8810   23.6560 C   0  0  0  0  0  0  0  0  0  0  0  0
   13.0150    0.0930   23.0570 C   0  0  0  0  0  0  0  0  0  0  0  0
   12.4810   -1.0780   22.2860 C   0  0  0  0  0  0  0  0  0  0  0  0
   11.1680   -1.3860   22.1480 C   0  0  0  0  0  0  0  0  0  0  0  0
   10.2300   -0.5830   22.7470 C   0  0  0  0  0  0  0  0  0  0  0  0
  1  2  1  1
  1  3  1  0
  4  6  2  0
  6  7  1  0
  5  8  1  0
 10 12  1  0
  9 13  1  0
 11 13  2  0
 12 13  1  0
 14 16  3  0
  1 17  1  0
 10 17  1  6
  6 18  1  0
 19  9  1  6
 18 19  1  0
 10 20  1  0
 20 19  1  6
  1 21  1  0
 20 21  1  0
 21 22  1  6
 18 23  1  0
 22 23  1  0
 24 25  2  0
  3 26  1  0
 25 26  1  0
 26 27  2  0
 27 28  1  0
  5 29  1  0
 24 29  1  0
 28 29  2  0
 30 31  2  0
 31 32  1  0
 15 33  1  0
 32 33  2  0
  9 34  1  0
 33 34  1  0
 30 35  1  0
 34 35  2  0
 36 37  2  0
 37 38  1  0
 16 39  1  0
 38 39  2  0
 39 40  1  0
 12 41  1  1
 36 41  1  0
 40 41  2  0
M  END
