x2052-x2119
     RDKit          3D

 20 21  0  0  0  0  0  0  0  0999 V2000
    5.7270   -1.4630   25.1190 C   0  0  0  0  0  0  0  0  0  0  0  0
    4.5330   -1.5200   25.3810 O   0  0  0  0  0  0  0  0  0  0  0  0
    6.6700   -0.7600   26.0060 N   0  0  0  0  0  0  0  0  0  0  0  0
    5.4740   -4.4580   19.9370 O   0  0  0  0  0  0  0  0  0  0  0  0
    5.6880    2.0930   30.4000 O   0  0  0  0  0  0  0  0  0  0  0  0
    6.4130   -3.7050   20.2410 C   0  0  0  0  0  0  0  0  0  0  0  0
    7.3080   -3.1320   19.1540 C   0  0  0  0  0  0  0  0  0  0  0  0
    6.1560    3.2260   30.3560 C   0  0  0  0  0  0  0  0  0  0  0  0
    6.7400   -3.3820   21.5780 N   0  0  0  0  0  0  0  0  0  0  0  0
    7.5160   -2.1310   21.8190 C   0  0  0  0  0  0  0  0  0  0  0  0
    7.1860   -1.5020   23.1920 C   0  0  0  0  0  0  0  0  0  0  0  0
    6.1340   -2.1910   23.7870 C   0  0  0  0  0  0  0  0  0  0  0  0
    6.4010   -3.5600   23.8920 C   0  0  0  0  0  0  0  0  0  0  0  0
    6.5290   -4.2580   22.6780 C   0  0  0  0  0  0  0  0  0  0  0  0
    6.6900    1.8800   28.1210 N   0  0  0  0  0  0  0  0  0  0  0  0
    6.8320    0.9990   27.1070 C   0  0  0  0  0  0  0  0  0  0  0  0
    6.2900   -0.2830   27.2190 C   0  0  0  0  0  0  0  0  0  0  0  0
    5.5670   -0.9860   28.1880 C   0  0  0  0  0  0  0  0  0  0  0  0
    5.4190    0.0100   29.3020 C   0  0  0  0  0  0  0  0  0  0  0  0
    5.9370    1.3260   29.2670 C   0  0  0  0  0  0  0  0  0  0  0  0
  1  2  2  0
  1  3  1  0
  4  6  2  0
  6  7  1  0
  5  8  1  0
  6  9  1  0
  9 10  1  0
 10 11  1  0
  1 12  1  0
 11 12  1  0
 12 13  1  0
  9 14  1  0
 13 14  1  0
 15 16  2  0
  3 17  1  0
 16 17  1  0
 17 18  2  0
 18 19  1  0
  5 20  1  0
 15 20  1  0
 19 20  2  0
M  END
