x2052-x2964
     RDKit          3D

 38 41  0  0  0  0  0  0  0  0999 V2000
    5.7790   -1.7660   25.2260 C   0  0  0  0  0  0  0  0  0  0  0  0
    4.5830   -1.9190   25.4420 O   0  0  0  0  0  0  0  0  0  0  0  0
    6.7440   -1.0900   26.0860 N   0  0  0  0  0  0  0  0  0  0  0  0
    5.4520   -4.3550   19.8870 O   0  0  0  0  0  0  0  0  0  0  0  0
    5.4580    2.2780   30.5860 O   0  0  0  0  0  0  0  0  0  0  0  0
    6.3080   -3.4830   20.1380 C   0  0  0  0  0  0  0  0  0  0  0  0
    7.2240   -3.0090   19.0140 C   0  0  0  0  0  0  0  0  0  0  0  0
    6.0580    3.3450   30.6350 C   0  0  0  0  0  0  0  0  0  0  0  0
    3.3420    1.8410   19.7660 N   0  0  0  0  0  0  0  0  0  0  0  0
    8.7060    1.4010   21.0760 O   0  0  0  0  0  0  0  0  0  0  0  0
   13.2380   -2.4790   21.3850 Cl  0  0  0  0  0  0  0  0  0  0  0  0
    7.5260   -0.7010   20.9620 N   0  0  0  0  0  0  0  0  0  0  0  0
    9.0720   -0.2070   22.6040 N   0  0  0  0  0  0  0  0  0  0  0  0
    8.4590    0.2680   21.5190 C   0  0  0  0  0  0  0  0  0  0  0  0
    6.4530   -2.9560   21.4560 N   0  0  0  0  0  0  0  0  0  0  0  0
    7.2400   -1.7350   21.8490 C   0  0  2  0  0  0  0  0  0  0  0  0
    6.6390   -1.3080   23.0200 C   0  0  0  0  0  0  0  0  0  0  0  0
    6.3520   -2.2960   23.9410 C   0  0  2  0  0  0  0  0  0  0  0  0
    5.7430   -3.4010   23.3380 C   0  0  0  0  0  0  0  0  0  0  0  0
    6.6780   -4.0110   22.4870 C   0  0  0  0  0  0  0  0  0  0  0  0
    6.5840    1.9530   28.4590 N   0  0  0  0  0  0  0  0  0  0  0  0
    6.8510    1.0950   27.4160 C   0  0  0  0  0  0  0  0  0  0  0  0
    6.4460   -0.2440   27.1700 C   0  0  0  0  0  0  0  0  0  0  0  0
    5.5920   -0.6600   28.3150 C   0  0  0  0  0  0  0  0  0  0  0  0
    5.3220    0.2020   29.3690 C   0  0  0  0  0  0  0  0  0  0  0  0
    5.8060    1.4850   29.4450 C   0  0  0  0  0  0  0  0  0  0  0  0
    4.5370    1.2120   19.4210 C   0  0  0  0  0  0  0  0  0  0  0  0
    5.3760    0.5760   20.3450 C   0  0  0  0  0  0  0  0  0  0  0  0
    6.5860   -0.0580   20.0460 C   0  0  0  0  0  0  0  0  0  0  0  0
    6.9060   -0.0070   18.6010 C   0  0  0  0  0  0  0  0  0  0  0  0
    6.2010    0.5600   17.6290 N   0  0  0  0  0  0  0  0  0  0  0  0
    5.0660    1.1570   18.0030 C   0  0  0  0  0  0  0  0  0  0  0  0
   10.8270    0.8200   23.2570 C   0  0  0  0  0  0  0  0  0  0  0  0
   12.3350    0.9160   23.3470 C   0  0  0  0  0  0  0  0  0  0  0  0
   13.1090   -0.1440   22.7510 C   0  0  0  0  0  0  0  0  0  0  0  0
   12.4450   -1.1960   22.1320 C   0  0  0  0  0  0  0  0  0  0  0  0
   10.9840   -1.3020   22.0450 C   0  0  0  0  0  0  0  0  0  0  0  0
   10.1870   -0.2260   22.6410 C   0  0  0  0  0  0  0  0  0  0  0  0
  1  2  2  0
  1  3  1  0
  4  6  2  0
  6  7  1  0
  5  8  1  0
 10 14  2  0
 12 14  1  0
 13 14  1  0
  6 15  1  0
 16 12  1  6
 15 16  1  0
 16 17  1  0
 18  1  1  1
 17 18  1  0
 18 19  1  0
 15 20  1  0
 19 20  1  0
 21 22  2  0
  3 23  1  0
 22 23  1  0
 23 24  2  0
 24 25  1  0
  5 26  1  0
 21 26  1  0
 25 26  2  0
  9 27  1  0
 27 28  2  0
 12 29  1  0
 28 29  1  0
 29 30  2  0
 30 31  1  0
 27 32  1  0
 31 32  2  0
 33 34  2  0
 34 35  1  0
 11 36  1  0
 35 36  2  0
 36 37  1  0
 13 38  1  0
 33 38  1  0
 37 38  2  0
M  END
