x2052-x1351
     RDKit          3D

 21 22  0  0  0  0  0  0  0  0999 V2000
    5.9710   -1.5880   25.1050 C   0  0  0  0  0  0  0  0  0  0  0  0
    4.8140   -1.1860   25.0320 O   0  0  0  0  0  0  0  0  0  0  0  0
    6.8610   -1.4190   26.3220 C   0  0  0  0  0  0  0  0  0  0  0  0
    5.4360   -4.4250   19.8980 O   0  0  0  0  0  0  0  0  0  0  0  0
    5.3470    2.3780   30.4440 O   0  0  0  0  0  0  0  0  0  0  0  0
    6.3850   -3.6780   20.1680 C   0  0  0  0  0  0  0  0  0  0  0  0
    7.2780   -3.1360   19.0650 C   0  0  0  0  0  0  0  0  0  0  0  0
    6.2270    3.5000   30.6070 C   0  0  0  0  0  0  0  0  0  0  0  0
    7.8510   -2.1440   26.4190 O   0  0  0  0  0  0  0  0  0  0  0  0
    6.7220   -3.3250   21.4700 N   0  0  0  0  0  0  0  0  0  0  0  0
    7.5260   -2.1620   21.8190 C   0  0  0  0  0  0  0  0  0  0  0  0
    6.9280   -1.4620   22.8730 C   0  0  0  0  0  0  0  0  0  0  0  0
    6.5730   -2.3180   23.9340 C   0  0  0  0  0  0  0  0  0  0  0  0
    5.7800   -3.3920   23.5000 C   0  0  0  0  0  0  0  0  0  0  0  0
    6.4430   -4.2030   22.5810 C   0  0  0  0  0  0  0  0  0  0  0  0
    6.5540    1.8630   28.4160 N   0  0  0  0  0  0  0  0  0  0  0  0
    6.8880    0.9560   27.4710 C   0  0  0  0  0  0  0  0  0  0  0  0
    6.4790   -0.4010   27.3780 C   0  0  0  0  0  0  0  0  0  0  0  0
    5.5680   -0.7670   28.5110 C   0  0  0  0  0  0  0  0  0  0  0  0
    5.2560    0.2040   29.4610 C   0  0  0  0  0  0  0  0  0  0  0  0
    5.7470    1.4830   29.4010 C   0  0  0  0  0  0  0  0  0  0  0  0
  1  2  2  0
  1  3  1  0
  4  6  2  0
  6  7  1  0
  5  8  1  0
  3  9  2  0
  6 10  1  0
 10 11  1  0
 11 12  1  0
  1 13  1  0
 12 13  1  0
 13 14  1  0
 10 15  1  0
 14 15  1  0
 16 17  2  0
  3 18  1  0
 17 18  1  0
 18 19  2  0
 19 20  1  0
  5 21  1  0
 16 21  1  0
 20 21  2  0
M  END
