x2052-x0072
     RDKit          3D

 33 36  0  0  0  0  0  0  0  0999 V2000
    5.9330   -1.6220   25.2600 C   0  0  0  0  0  0  0  0  0  0  0  0
    4.7050   -1.6460   25.3100 O   0  0  0  0  0  0  0  0  0  0  0  0
    6.8150   -0.9390   26.1910 N   0  0  0  0  0  0  0  0  0  0  0  0
    5.6590   -4.3050   19.9290 O   0  0  0  0  0  0  0  0  0  0  0  0
    5.3030    2.2580   30.6160 O   0  0  0  0  0  0  0  0  0  0  0  0
    6.6550   -3.5920   20.2400 C   0  0  0  0  0  0  0  0  0  0  0  0
    7.4800   -3.0570   19.0980 C   0  0  0  0  0  0  0  0  0  0  0  0
    5.9300    3.3040   30.7490 C   0  0  0  0  0  0  0  0  0  0  0  0
    6.3450   -4.8630   26.1140 C   0  0  0  0  0  0  0  0  0  0  0  0
    7.9480   -4.0910   26.0440 S   0  0  0  0  0  0  0  0  0  0  0  0
    8.8920   -5.1580   25.7540 O   0  0  0  0  0  0  0  0  0  0  0  0
    8.1170   -3.3110   27.2440 O   0  0  0  0  0  0  0  0  0  0  0  0
    7.9230   -2.9950   24.6970 N   0  0  0  0  0  0  0  0  0  0  0  0
    8.9560   -3.4210   23.7620 C   0  0  0  0  0  0  0  0  0  0  0  0
    9.0490   -2.6150   22.6330 C   0  0  1  0  0  0  0  0  0  0  0  0
    7.0570   -3.3590   21.6070 N   0  0  0  0  0  0  0  0  0  0  0  0
    7.7700   -2.2420   22.1160 C   0  0  1  0  0  0  0  0  0  0  0  0
    7.0880   -1.4900   23.0670 C   0  0  0  0  0  0  0  0  0  0  0  0
    6.6450   -2.3490   24.1220 C   0  0  2  0  0  0  0  0  0  0  0  0
    5.8820   -3.4210   23.6250 C   0  0  0  0  0  0  0  0  0  0  0  0
    6.5350   -4.0920   22.5970 C   0  0  0  0  0  0  0  0  0  0  0  0
    6.5290    2.1140   28.4500 N   0  0  0  0  0  0  0  0  0  0  0  0
    6.9220    1.2850   27.2990 C   0  0  0  0  0  0  0  0  0  0  0  0
    6.4840   -0.0600   27.2450 C   0  0  0  0  0  0  0  0  0  0  0  0
    5.6890   -0.5670   28.2780 C   0  0  0  0  0  0  0  0  0  0  0  0
    5.3190    0.2020   29.3550 C   0  0  0  0  0  0  0  0  0  0  0  0
    5.7140    1.5160   29.4720 C   0  0  0  0  0  0  0  0  0  0  0  0
   10.2620   -1.6400   22.8280 C   0  0  0  0  0  0  0  0  0  0  0  0
   11.5030   -2.0440   22.0440 C   0  0  0  0  0  0  0  0  0  0  0  0
   12.7340   -1.2060   22.1830 C   0  0  0  0  0  0  0  0  0  0  0  0
   12.7790    0.0110   23.0570 C   0  0  0  0  0  0  0  0  0  0  0  0
   11.5050    0.3730   23.8120 C   0  0  0  0  0  0  0  0  0  0  0  0
   10.3110   -0.4770   23.6550 C   0  0  0  0  0  0  0  0  0  0  0  0
  1  2  2  0
  1  3  1  0
  4  6  2  0
  6  7  1  0
  5  8  1  0
 10  9  1  0
 10 11  2  0
 10 12  2  0
 10 13  1  0
 13 14  1  0
 14 15  1  0
  6 16  1  0
 15 17  1  0
 17 16  1  1
 17 18  1  0
 19  1  1  1
 13 19  1  0
 18 19  1  0
 19 20  1  0
 16 21  1  0
 20 21  1  0
 22 23  2  0
  3 24  1  0
 23 24  1  0
 24 25  2  0
 25 26  1  0
  5 27  1  0
 22 27  1  0
 26 27  2  0
 15 28  1  1
 28 29  2  0
 29 30  1  0
 30 31  2  0
 31 32  1  0
 28 33  1  0
 32 33  2  0
M  END
