x2052-x2649
     RDKit          3D

 39 43  0  0  0  0  0  0  0  0999 V2000
    5.6960   -1.8400   25.2660 C   0  0  0  0  0  0  0  0  0  0  0  0
    4.4840   -1.8660   25.4400 O   0  0  0  0  0  0  0  0  0  0  0  0
    6.6520   -1.1280   26.1150 N   0  0  0  0  0  0  0  0  0  0  0  0
    5.3500   -4.4270   19.8780 O   0  0  0  0  0  0  0  0  0  0  0  0
    5.4630    2.2400   30.5690 O   0  0  0  0  0  0  0  0  0  0  0  0
    6.1460   -3.5240   20.1730 C   0  0  0  0  0  0  0  0  0  0  0  0
    7.0980   -3.0040   19.0900 C   0  0  0  0  0  0  0  0  0  0  0  0
    6.0530    3.3130   30.6110 C   0  0  0  0  0  0  0  0  0  0  0  0
    7.3770   -0.9570   20.9850 N   0  0  0  0  0  0  0  0  0  0  0  0
    7.7940   -1.0880   23.6300 C   0  0  0  0  0  0  0  0  0  0  0  0
    8.6780    0.7500   21.1350 O   0  0  0  0  0  0  0  0  0  0  0  0
   13.2950   -2.4030   21.1110 Cl  0  0  0  0  0  0  0  0  0  0  0  0
    8.7660   -1.0830   22.5160 C   0  0  1  0  0  0  0  0  0  0  0  0
    8.2560   -0.3640   21.4590 C   0  0  0  0  0  0  0  0  0  0  0  0
    4.9160    0.9860   21.9150 C   0  0  0  0  0  0  0  0  0  0  0  0
    6.1530   -3.0450   21.5040 N   0  0  0  0  0  0  0  0  0  0  0  0
    6.9450   -2.0100   21.8890 C   0  0  2  0  0  0  0  0  0  0  0  0
    6.6060   -1.5810   23.1960 C   0  0  1  0  0  0  0  0  0  0  0  0
    6.2450   -2.6010   24.0390 C   0  0  2  0  0  0  0  0  0  0  0  0
    5.2320   -3.3960   23.5120 C   0  0  0  0  0  0  0  0  0  0  0  0
    6.0680   -3.8430   22.3610 C   0  0  0  0  0  0  0  0  0  0  0  0
    6.6110    1.9610   28.3600 N   0  0  0  0  0  0  0  0  0  0  0  0
    6.8650    1.0070   27.2460 C   0  0  0  0  0  0  0  0  0  0  0  0
    6.3290   -0.2870   27.2720 C   0  0  0  0  0  0  0  0  0  0  0  0
    5.5510   -0.6980   28.3390 C   0  0  0  0  0  0  0  0  0  0  0  0
    5.3040    0.1770   29.3850 C   0  0  0  0  0  0  0  0  0  0  0  0
    5.7830    1.4880   29.4730 C   0  0  0  0  0  0  0  0  0  0  0  0
    6.2050    0.5080   17.6650 N   0  0  0  0  0  0  0  0  0  0  0  0
    5.1980    1.3140   18.0030 C   0  0  0  0  0  0  0  0  0  0  0  0
    4.7180    1.5100   19.3910 C   0  0  0  0  0  0  0  0  0  0  0  0
    5.3970    0.7670   20.5220 C   0  0  0  0  0  0  0  0  0  0  0  0
    6.5520   -0.1500   20.0860 C   0  0  0  0  0  0  0  0  0  0  0  0
    6.8230   -0.1670   18.6630 C   0  0  0  0  0  0  0  0  0  0  0  0
   10.5580    0.3120   23.6390 C   0  0  0  0  0  0  0  0  0  0  0  0
   12.0360    0.5830   23.7810 C   0  0  0  0  0  0  0  0  0  0  0  0
   13.0060   -0.2650   22.9850 C   0  0  0  0  0  0  0  0  0  0  0  0
   12.4410   -1.3440   22.0920 C   0  0  0  0  0  0  0  0  0  0  0  0
   11.1250   -1.5220   22.0200 C   0  0  0  0  0  0  0  0  0  0  0  0
   10.1560   -0.7070   22.7770 C   0  0  0  0  0  0  0  0  0  0  0  0
  1  2  2  0
  1  3  1  0
  4  6  2  0
  6  7  1  0
  5  8  1  0
 10 13  1  0
  9 14  1  0
 11 14  2  0
 13 14  1  0
  6 16  1  0
 17  9  1  6
 16 17  1  0
 18 10  1  1
 17 18  1  0
 19  1  1  1
 18 19  1  0
 19 20  1  0
 16 21  1  0
 20 21  1  0
 22 23  2  0
  3 24  1  0
 23 24  1  0
 24 25  2  0
 25 26  1  0
  5 27  1  0
 22 27  1  0
 26 27  2  0
 28 29  2  0
 29 30  1  0
 15 31  1  0
 30 31  2  0
  9 32  1  0
 31 32  1  0
 28 33  1  0
 32 33  2  0
 34 35  2  0
 35 36  1  0
 12 37  1  0
 36 37  2  0
 37 38  1  0
 13 39  1  1
 34 39  1  0
 38 39  2  0
M  END
