x2052-x1385
     RDKit          3D

 29 31  0  0  0  0  0  0  0  0999 V2000
    5.5750   -1.3340   25.0120 C   0  0  0  0  0  0  0  0  0  0  0  0
    4.3830   -1.5910   25.1110 O   0  0  0  0  0  0  0  0  0  0  0  0
    6.2590   -0.3460   25.8470 N   0  0  0  0  0  0  0  0  0  0  0  0
    5.4370   -4.4250   19.8900 O   0  0  0  0  0  0  0  0  0  0  0  0
    5.7340    2.0420   30.5820 O   0  0  0  0  0  0  0  0  0  0  0  0
    6.3690   -3.6500   20.1320 C   0  0  0  0  0  0  0  0  0  0  0  0
    7.2690   -3.0980   19.0350 C   0  0  0  0  0  0  0  0  0  0  0  0
    6.1040    3.2100   30.5230 C   0  0  0  0  0  0  0  0  0  0  0  0
    6.6770   -3.2640   21.4340 N   0  0  0  0  0  0  0  0  0  0  0  0
    7.1860   -1.8890   21.6090 C   0  0  0  0  0  0  0  0  0  0  0  0
    6.7000   -1.2180   22.9120 C   0  0  0  0  0  0  0  0  0  0  0  0
    6.3810   -2.1250   23.9280 C   0  0  0  0  0  0  0  0  0  0  0  0
    5.7810   -3.3280   23.5360 C   0  0  0  0  0  0  0  0  0  0  0  0
    6.4610   -4.0640   22.5670 C   0  0  0  0  0  0  0  0  0  0  0  0
    6.4420    2.0450   28.1980 N   0  0  0  0  0  0  0  0  0  0  0  0
    6.4870    1.2760   27.0910 C   0  0  0  0  0  0  0  0  0  0  0  0
    5.9980   -0.0280   27.1320 C   0  0  0  0  0  0  0  0  0  0  0  0
    5.4230   -0.8040   28.1300 C   0  0  0  0  0  0  0  0  0  0  0  0
    5.3680    0.0360   29.3580 C   0  0  0  0  0  0  0  0  0  0  0  0
    5.8470    1.3680   29.3800 C   0  0  0  0  0  0  0  0  0  0  0  0
    9.9520   -3.1600   24.3050 C   0  0  0  0  0  0  0  0  0  0  0  0
    7.1180   -5.8850   28.5550 Br  0  0  0  0  0  0  0  0  0  0  0  0
    9.8870   -5.4900   25.4500 C   0  0  0  0  0  0  0  0  0  0  0  0
    9.4720   -4.1780   25.2970 C   0  0  0  0  0  0  0  0  0  0  0  0
    8.2310   -3.7920   26.4540 S   0  0  0  0  0  0  0  0  0  0  0  0
    8.2640   -5.3550   27.1220 C   0  0  0  0  0  0  0  0  0  0  0  0
    9.2770   -6.1940   26.4300 C   0  0  0  0  0  0  0  0  0  0  0  0
    7.6510   -2.5350   24.6130 C   0  0  0  0  0  0  0  0  0  0  0  0
    8.9300   -2.4430   23.7940 C   0  0  0  0  0  0  0  0  0  0  0  0
  1  2  2  0
  1  3  1  0
  4  6  2  0
  6  7  1  0
  5  8  1  0
  6  9  1  0
  9 10  1  0
 10 11  1  0
 12  1  1  0
 11 12  1  0
 12 13  1  0
  9 14  1  0
 13 14  1  0
 15 16  2  0
  3 17  1  0
 16 17  1  0
 17 18  2  0
 18 19  1  0
  5 20  1  0
 15 20  1  0
 19 20  2  0
 21 24  1  0
 23 24  2  0
 24 25  1  0
 22 26  1  0
 25 26  1  0
 23 27  1  0
 26 27  2  0
 12 28  1  0
 21 29  1  0
 28 29  1  0
M  END
