x2052-x3080
     RDKit          3D

 45 50  0  0  0  0  0  0  0  0999 V2000
    9.9550   -0.5540   23.2760 N   0  0  0  0  0  0  0  0  0  0  0  0
   10.9550    0.3870   23.1810 C   0  0  0  0  0  0  0  0  0  0  0  0
    8.8450    0.8800   21.2010 O   0  0  0  0  0  0  0  0  0  0  0  0
    9.6720   -1.0880   21.9800 C   0  0  0  0  0  0  0  0  0  0  0  0
    7.2870   -0.8560   21.1660 N   0  0  0  0  0  0  0  0  0  0  0  0
    7.1200   -0.6920   24.3160 C   0  0  2  0  0  0  0  0  0  0  0  0
    8.5180   -0.3530   21.4100 C   0  0  0  0  0  0  0  0  0  0  0  0
    9.3240    0.2750   25.6250 O   0  0  0  0  0  0  0  0  0  0  0  0
    5.1650    0.8540   21.7970 C   0  0  0  0  0  0  0  0  0  0  0  0
    8.8560   -0.4930   24.5190 S   0  0  0  0  0  0  0  0  0  0  0  0
    6.3070    0.3110   23.9170 O   0  0  0  0  0  0  0  0  0  0  0  0
    6.5860   -0.9430   25.6950 N   0  0  0  0  0  0  0  0  0  0  0  0
    5.4930    2.2870   30.3120 O   0  0  0  0  0  0  0  0  0  0  0  0
    6.2020    3.2750   30.4380 C   0  0  0  0  0  0  0  0  0  0  0  0
    5.4020   -4.3160   19.8350 O   0  0  0  0  0  0  0  0  0  0  0  0
    6.3410   -3.5460   20.0720 C   0  0  0  0  0  0  0  0  0  0  0  0
    7.2450   -3.0430   18.9640 C   0  0  0  0  0  0  0  0  0  0  0  0
    6.3020    0.5230   17.6780 N   0  0  0  0  0  0  0  0  0  0  0  0
    5.2050    1.4040   18.0420 C   0  0  0  0  0  0  0  0  0  0  0  0
    4.9100    1.4430   19.3850 C   0  0  0  0  0  0  0  0  0  0  0  0
    5.5980    0.7030   20.3630 C   0  0  0  0  0  0  0  0  0  0  0  0
    6.6710   -0.1820   20.1530 C   0  0  0  0  0  0  0  0  0  0  0  0
    6.9860   -0.2250   18.7120 C   0  0  0  0  0  0  0  0  0  0  0  0
   11.5210   -1.3610   24.7790 N   0  0  0  0  0  0  0  0  0  0  0  0
   10.6660   -2.3230   25.2630 C   0  0  0  0  0  0  0  0  0  0  0  0
   11.1670   -3.5450   25.8150 C   0  0  0  0  0  0  0  0  0  0  0  0
   12.5430   -3.6770   25.8450 C   0  0  0  0  0  0  0  0  0  0  0  0
   13.3800   -2.7120   25.3650 C   0  0  0  0  0  0  0  0  0  0  0  0
   12.8800   -1.5440   24.8210 C   0  0  0  0  0  0  0  0  0  0  0  0
    8.3700   -3.1230   25.7350 C   0  0  0  0  0  0  0  0  0  0  0  0
    8.8900   -4.3870   26.2930 C   0  0  0  0  0  0  0  0  0  0  0  0
   10.3690   -4.5420   26.3080 C   0  0  0  0  0  0  0  0  0  0  0  0
    9.2510   -1.9990   25.1790 C   0  0  0  0  0  0  0  0  0  0  0  0
    6.5830    1.8040   28.2110 N   0  0  0  0  0  0  0  0  0  0  0  0
    6.8680    1.0630   27.0950 C   0  0  0  0  0  0  0  0  0  0  0  0
    6.2940   -0.1760   26.7990 C   0  0  0  0  0  0  0  0  0  0  0  0
    5.2830   -0.6920   27.8060 C   0  0  0  0  0  0  0  0  0  0  0  0
    4.9920    0.1490   29.0320 C   0  0  0  0  0  0  0  0  0  0  0  0
    5.7210    1.4750   29.1950 C   0  0  0  0  0  0  0  0  0  0  0  0
    6.5740   -3.1990   21.4370 N   0  0  0  0  0  0  0  0  0  0  0  0
    6.4350   -1.8110   21.9020 C   0  0  1  0  0  0  0  0  0  0  0  0
    6.5970   -1.8810   23.4470 C   0  0  1  0  0  0  0  0  0  0  0  0
    7.4010   -2.9190   23.8400 C   0  0  0  0  0  0  0  0  0  0  0  0
    6.8370   -4.1580   23.5910 C   0  0  0  0  0  0  0  0  0  0  0  0
    6.4080   -4.3720   22.2940 C   0  0  0  0  0  0  0  0  0  0  0  0
  1  2  1  0
  1  4  1  0
  3  7  2  0
  4  7  1  0
  5  7  1  0
  1 10  1  0
  6 10  1  0
  8 10  2  0
  6 11  1  6
  6 12  1  0
 13 14  1  0
 15 16  2  0
 16 17  1  0
 18 19  2  0
 19 20  1  0
  9 21  1  0
 20 21  2  0
  5 22  1  0
 21 22  1  0
 18 23  1  0
 22 23  2  0
 24 25  2  0
 25 26  1  0
 26 27  2  0
 27 28  1  0
 24 29  1  0
 28 29  2  0
 30 31  1  0
 26 32  1  0
 31 32  2  0
 10 33  1  0
 25 33  1  0
 30 33  2  0
 34 35  2  0
 12 36  1  0
 35 36  1  0
 36 37  2  0
 37 38  1  0
 13 39  1  0
 34 39  1  0
 38 39  2  0
 16 40  1  0
 41  5  1  6
 40 41  1  0
  6 42  1  0
 41 42  1  0
 42 43  1  6
 43 44  1  0
 40 45  1  0
 44 45  1  0
M  END
