x2052-x2779
     RDKit          3D

 27 29  0  0  0  0  0  0  0  0999 V2000
    5.7360   -1.4040   25.1090 C   0  0  0  0  0  0  0  0  0  0  0  0
    4.5120   -1.3610   25.0550 O   0  0  0  0  0  0  0  0  0  0  0  0
    6.5370   -0.6680   26.0950 N   0  0  0  0  0  0  0  0  0  0  0  0
    5.6200   -4.4930   19.9790 O   0  0  0  0  0  0  0  0  0  0  0  0
    5.4160    2.1340   30.4990 O   0  0  0  0  0  0  0  0  0  0  0  0
    6.5870   -3.7610   20.3030 C   0  0  0  0  0  0  0  0  0  0  0  0
    7.4020   -3.1070   19.1960 C   0  0  0  0  0  0  0  0  0  0  0  0
    6.1190    3.1390   30.5720 C   0  0  0  0  0  0  0  0  0  0  0  0
    6.9860   -3.5720   21.6700 N   0  0  0  0  0  0  0  0  0  0  0  0
    7.7530   -2.3600   22.1090 C   0  0  1  0  0  0  0  0  0  0  0  0
    6.8510   -1.5030   22.9870 C   0  0  0  0  0  0  0  0  0  0  0  0
    6.4680   -2.3050   24.0710 C   0  0  2  0  0  0  0  0  0  0  0  0
    5.8500   -3.5310   23.7320 C   0  0  0  0  0  0  0  0  0  0  0  0
    6.4510   -4.3320   22.7330 C   0  0  0  0  0  0  0  0  0  0  0  0
    6.3040    1.9600   28.1840 N   0  0  0  0  0  0  0  0  0  0  0  0
    6.5120    1.0870   27.1660 C   0  0  0  0  0  0  0  0  0  0  0  0
    6.1440   -0.2450   27.3120 C   0  0  0  0  0  0  0  0  0  0  0  0
    5.5610   -0.9640   28.3460 C   0  0  0  0  0  0  0  0  0  0  0  0
    5.3290   -0.0150   29.4720 C   0  0  0  0  0  0  0  0  0  0  0  0
    5.6810    1.3520   29.3870 C   0  0  0  0  0  0  0  0  0  0  0  0
   10.2360   -2.8020   22.7410 C   0  0  0  0  0  0  0  0  0  0  0  0
   12.2980   -1.2730   22.4320 C   0  0  0  0  0  0  0  0  0  0  0  0
   11.0900   -1.6080   23.0730 C   0  0  0  0  0  0  0  0  0  0  0  0
   10.6610   -0.4630   24.3330 S   0  0  0  0  0  0  0  0  0  0  0  0
   12.0840    0.4300   23.9630 C   0  0  0  0  0  0  0  0  0  0  0  0
   12.9160   -0.1420   22.8760 C   0  0  0  0  0  0  0  0  0  0  0  0
    8.8730   -2.7530   23.0740 C   0  0  0  0  0  0  0  0  0  0  0  0
  1  2  2  0
  1  3  1  0
  4  6  2  0
  6  7  1  0
  5  8  1  0
  6  9  1  0
  9 10  1  0
 10 11  1  0
 12  1  1  1
 11 12  1  0
 12 13  1  0
  9 14  1  0
 13 14  1  0
 15 16  2  0
  3 17  1  0
 16 17  1  0
 17 18  2  0
 18 19  1  0
  5 20  1  0
 15 20  1  0
 19 20  2  0
 21 23  1  0
 22 23  2  0
 23 24  1  0
 24 25  1  0
 22 26  1  0
 25 26  2  0
 10 27  1  1
 21 27  1  0
M  END
