x2052-x2608
     RDKit          3D

 36 39  0  0  0  0  0  0  0  0999 V2000
    5.8330   -1.7200   25.2370 C   0  0  0  0  0  0  0  0  0  0  0  0
    4.6090   -1.6630   25.1870 O   0  0  0  0  0  0  0  0  0  0  0  0
    6.6900   -0.9760   26.1380 N   0  0  0  0  0  0  0  0  0  0  0  0
    5.7260   -4.3360   19.9660 O   0  0  0  0  0  0  0  0  0  0  0  0
    5.2410    2.2340   30.5910 O   0  0  0  0  0  0  0  0  0  0  0  0
    6.7300   -3.6230   20.2980 C   0  0  0  0  0  0  0  0  0  0  0  0
    7.5210   -3.0520   19.1550 C   0  0  0  0  0  0  0  0  0  0  0  0
    5.8940    3.2620   30.7600 C   0  0  0  0  0  0  0  0  0  0  0  0
    8.5110   -1.6020   21.7600 N   0  0  0  0  0  0  0  0  0  0  0  0
   12.8220    1.4770   23.0580 C   0  0  0  0  0  0  0  0  0  0  0  0
    8.2250    0.6190   20.9730 O   0  0  0  0  0  0  0  0  0  0  0  0
    6.5300   -0.8490   20.7470 N   0  0  0  0  0  0  0  0  0  0  0  0
    7.7860   -0.5160   21.1410 C   0  0  0  0  0  0  0  0  0  0  0  0
    7.1720   -3.4530   21.6830 N   0  0  0  0  0  0  0  0  0  0  0  0
    7.8780   -2.4110   22.3420 C   0  0  2  0  0  0  0  0  0  0  0  0
    7.1540   -1.7830   23.3510 C   0  0  0  0  0  0  0  0  0  0  0  0
    6.5790   -2.6250   24.2990 C   0  0  2  0  0  0  0  0  0  0  0  0
    5.7260   -3.5380   23.6590 C   0  0  0  0  0  0  0  0  0  0  0  0
    6.4250   -4.2340   22.6560 C   0  0  0  0  0  0  0  0  0  0  0  0
    6.2960    2.1710   28.2980 N   0  0  0  0  0  0  0  0  0  0  0  0
    6.6080    1.3410   27.2730 C   0  0  0  0  0  0  0  0  0  0  0  0
    6.3450   -0.1240   27.1970 C   0  0  0  0  0  0  0  0  0  0  0  0
    5.6990   -0.6140   28.3400 C   0  0  0  0  0  0  0  0  0  0  0  0
    5.3490    0.1730   29.4230 C   0  0  0  0  0  0  0  0  0  0  0  0
    5.6320    1.5280   29.4280 C   0  0  0  0  0  0  0  0  0  0  0  0
   11.7710    0.3370   22.8100 C   0  0  0  0  0  0  0  0  0  0  0  0
   12.2050   -0.9700   23.0230 C   0  0  0  0  0  0  0  0  0  0  0  0
   11.0520   -1.8870   22.6790 C   0  0  0  0  0  0  0  0  0  0  0  0
    9.8270   -1.1240   22.2260 C   0  0  0  0  0  0  0  0  0  0  0  0
   10.1430    0.5580   22.2900 S   0  0  0  0  0  0  0  0  0  0  0  0
    6.1130    0.9760   17.5960 N   0  0  0  0  0  0  0  0  0  0  0  0
    6.6300    0.1640   18.5170 C   0  0  0  0  0  0  0  0  0  0  0  0
    5.9710   -0.0610   19.8610 C   0  0  0  0  0  0  0  0  0  0  0  0
    4.7410    0.6190   20.1430 C   0  0  0  0  0  0  0  0  0  0  0  0
    4.2330    1.4420   19.1810 C   0  0  0  0  0  0  0  0  0  0  0  0
    4.9620    1.6090   17.8820 C   0  0  0  0  0  0  0  0  0  0  0  0
  1  2  2  0
  1  3  1  0
  4  6  2  0
  6  7  1  0
  5  8  1  0
  9 13  1  0
 11 13  2  0
 12 13  1  0
  6 14  1  0
 15  9  1  6
 14 15  1  0
 15 16  1  0
 17  1  1  1
 16 17  1  0
 17 18  1  0
 14 19  1  0
 18 19  1  0
 20 21  2  0
  3 22  1  0
 21 22  1  0
 22 23  2  0
 23 24  1  0
  5 25  1  0
 20 25  1  0
 24 25  2  0
 10 26  1  0
 26 27  2  0
 27 28  1  0
  9 29  1  0
 28 29  2  0
 26 30  1  0
 29 30  1  0
 31 32  2  0
 12 33  1  0
 32 33  1  0
 33 34  2  0
 34 35  1  0
 31 36  1  0
 35 36  2  0
M  END
