x2052-x0540
     RDKit          3D

 40 43  0  0  0  0  0  0  0  0999 V2000
    6.0840   -1.6210   24.9880 C   0  0  0  0  0  0  0  0  0  0  0  0
    4.7440   -1.3860   24.6930 N   0  0  0  0  0  0  0  0  0  0  0  0
    6.6410   -0.9900   26.0870 N   0  0  0  0  0  0  0  0  0  0  0  0
    5.5040   -4.5390   19.9380 O   0  0  0  0  0  0  0  0  0  0  0  0
    5.5030    2.1820   30.5810 O   0  0  0  0  0  0  0  0  0  0  0  0
    6.4420   -3.7720   20.2380 C   0  0  0  0  0  0  0  0  0  0  0  0
    7.2360   -3.1380   19.1010 C   0  0  0  0  0  0  0  0  0  0  0  0
    6.0010    3.3010   30.6980 C   0  0  0  0  0  0  0  0  0  0  0  0
    2.7930    1.4290   24.4080 N   0  0  0  0  0  0  0  0  0  0  0  0
    2.9240    2.3240   23.3910 C   0  0  0  0  0  0  0  0  0  0  0  0
    4.1310    2.4670   22.7050 N   0  0  0  0  0  0  0  0  0  0  0  0
    5.1730    1.4550   22.5400 C   0  0  0  0  0  0  0  0  0  0  0  0
    4.5300    0.4990   21.7220 C   0  0  0  0  0  0  0  0  0  0  0  0
    1.7820    3.1640   23.0080 N   0  0  0  0  0  0  0  0  0  0  0  0
    3.8230   -0.5110   25.3980 C   0  0  0  0  0  0  0  0  0  0  0  0
    3.8670    0.7020   24.7230 C   0  0  0  0  0  0  0  0  0  0  0  0
    6.8360   -3.4980   21.5840 N   0  0  0  0  0  0  0  0  0  0  0  0
    7.8050   -2.4540   21.8760 C   0  0  0  0  0  0  0  0  0  0  0  0
    7.2390   -1.6600   23.0450 C   0  0  0  0  0  0  0  0  0  0  0  0
    6.9040   -2.5130   24.1220 C   0  0  0  0  0  0  0  0  0  0  0  0
    6.1930   -3.6860   23.8170 C   0  0  0  0  0  0  0  0  0  0  0  0
    6.6140   -4.3960   22.6970 C   0  0  0  0  0  0  0  0  0  0  0  0
    6.5960    2.0350   28.4820 N   0  0  0  0  0  0  0  0  0  0  0  0
    6.8780    1.2700   27.3840 C   0  0  0  0  0  0  0  0  0  0  0  0
    6.4220   -0.0480   27.2030 C   0  0  0  0  0  0  0  0  0  0  0  0
    5.5600   -0.6500   28.3090 C   0  0  0  0  0  0  0  0  0  0  0  0
    5.3220    0.1860   29.3800 C   0  0  0  0  0  0  0  0  0  0  0  0
    5.8250    1.4770   29.4550 C   0  0  0  0  0  0  0  0  0  0  0  0
    6.3360   -0.3480   20.0330 C   0  0  0  0  0  0  0  0  0  0  0  0
    6.8160   -0.2670   18.7250 C   0  0  0  0  0  0  0  0  0  0  0  0
    6.2700    0.5050   17.7760 N   0  0  0  0  0  0  0  0  0  0  0  0
    5.1890    1.2490   18.0950 C   0  0  0  0  0  0  0  0  0  0  0  0
    4.5860    1.2820   19.3500 C   0  0  0  0  0  0  0  0  0  0  0  0
    5.1220    0.5080   20.3430 C   0  0  0  0  0  0  0  0  0  0  0  0
    0.5530    4.5240   24.5100 C   0  0  0  0  0  0  0  0  0  0  0  0
   -0.6740    4.9570   25.0380 C   0  0  0  0  0  0  0  0  0  0  0  0
   -1.7980    4.5540   24.3140 C   0  0  0  0  0  0  0  0  0  0  0  0
   -1.7670    3.3080   23.6950 C   0  0  0  0  0  0  0  0  0  0  0  0
   -0.5240    2.8030   23.2960 C   0  0  0  0  0  0  0  0  0  0  0  0
    0.6440    3.2370   23.9520 C   0  0  0  0  0  0  0  0  0  0  0  0
  1  2  2  3
  1  3  1  0
  4  6  2  0
  6  7  1  0
  5  8  1  0
  9 10  2  3
 10 11  1  0
 11 12  1  0
 12 13  1  0
 10 14  1  0
  2 15  1  0
  9 16  1  0
 15 16  1  0
  6 17  1  0
 17 18  1  0
 18 19  1  0
  1 20  1  0
 19 20  1  0
 20 21  1  0
 17 22  1  0
 21 22  1  0
 23 24  2  0
  3 25  1  0
 24 25  1  0
 25 26  2  0
 26 27  1  0
  5 28  1  0
 23 28  1  0
 27 28  2  0
 29 30  2  0
 30 31  1  0
 31 32  2  0
 32 33  1  0
 13 34  1  0
 29 34  1  0
 33 34  2  0
 35 36  1  0
 36 37  1  0
 37 38  1  0
 38 39  1  0
 14 40  1  0
 35 40  1  0
 39 40  1  0
M  END
