x2052-x1458
     RDKit          3D

 26 28  0  0  0  0  0  0  0  0999 V2000
    6.5190   -3.8110   26.3060 N   0  0  0  0  0  0  0  0  0  0  0  0
    8.7550   -4.0710   27.4470 C   0  0  0  0  0  0  0  0  0  0  0  0
    5.2560   -2.9670   24.7000 C   0  0  0  0  0  0  0  0  0  0  0  0
    7.4940   -4.7100   26.9820 C   0  0  0  0  0  0  0  0  0  0  0  0
    5.1590   -4.2970   19.7610 O   0  0  0  0  0  0  0  0  0  0  0  0
    6.8240   -5.5190   27.8970 C   0  0  0  0  0  0  0  0  0  0  0  0
    6.5220   -2.5210   26.7500 C   0  0  1  0  0  0  0  0  0  0  0  0
    6.2510   -3.9970   24.9570 C   0  0  0  0  0  0  0  0  0  0  0  0
    6.2920   -4.0040   20.1330 C   0  0  0  0  0  0  0  0  0  0  0  0
    7.2020   -3.2090   19.1960 C   0  0  0  0  0  0  0  0  0  0  0  0
    5.2650   -2.0800   25.8870 C   0  0  0  0  0  0  0  0  0  0  0  0
    6.7410   -4.4470   21.3600 N   0  0  0  0  0  0  0  0  0  0  0  0
    7.5320   -3.6900   22.2390 C   0  0  0  0  0  0  0  0  0  0  0  0
    7.9810   -4.4270   23.4990 C   0  0  0  0  0  0  0  0  0  0  0  0
    6.8550   -5.0430   24.0960 C   0  0  0  0  0  0  0  0  0  0  0  0
    5.8970   -5.6420   23.2980 C   0  0  0  0  0  0  0  0  0  0  0  0
    6.2030   -5.6610   21.9650 C   0  0  0  0  0  0  0  0  0  0  0  0
    4.6780    2.1960   30.6000 O   0  0  0  0  0  0  0  0  0  0  0  0
    5.4750    3.2980   31.0350 C   0  0  0  0  0  0  0  0  0  0  0  0
    5.7800    2.4020   28.4620 N   0  0  0  0  0  0  0  0  0  0  0  0
    6.3610    1.6390   27.4300 C   0  0  0  0  0  0  0  0  0  0  0  0
    6.3840    0.1380   27.5870 C   0  0  0  0  0  0  0  0  0  0  0  0
    5.9260   -0.7590   28.5850 C   0  0  0  0  0  0  0  0  0  0  0  0
    5.3470    0.1660   29.5120 C   0  0  0  0  0  0  0  0  0  0  0  0
    5.2660    1.5840   29.5250 C   0  0  0  0  0  0  0  0  0  0  0  0
    6.6370   -1.3250   27.4120 C   0  0  0  0  0  0  0  0  0  0  0  0
  1  4  1  0
  2  4  1  0
  4  6  1  0
  1  7  1  0
  1  8  1  0
  3  8  2  0
  5  9  2  0
  9 10  1  0
  3 11  2  0
  7 11  1  0
  9 12  1  0
 12 13  1  0
 13 14  1  0
  8 15  1  0
 14 15  1  0
 15 16  1  0
 12 17  1  0
 16 17  1  0
 18 19  1  0
 20 21  2  0
 21 22  1  0
 22 23  2  0
 23 24  1  0
 18 25  1  0
 20 25  1  0
 24 25  2  0
  7 26  1  1
 23 26  1  0
M  END
