x2097-x1412
     RDKit          3D

 16 17  0  0  0  0  0  0  0  0999 V2000
    5.8200   -5.3040   20.0080 N   0  0  0  0  0  0  0  0  0  0  0  0
    6.4780   -4.2030   20.0490 C   0  0  0  0  0  0  0  0  0  0  0  0
    6.3340   -3.4930   21.3460 C   0  0  0  0  0  0  0  0  0  0  0  0
    7.4020   -2.8630   21.8540 N   0  0  0  0  0  0  0  0  0  0  0  0
    7.1450   -2.2910   23.0830 C   0  0  0  0  0  0  0  0  0  0  0  0
    6.0150   -2.1840   23.9780 C   0  0  0  0  0  0  0  0  0  0  0  0
    5.0890   -2.9050   23.1540 C   0  0  0  0  0  0  0  0  0  0  0  0
    5.1700   -3.5330   21.9420 N   0  0  0  0  0  0  0  0  0  0  0  0
    9.4390   -1.5870   24.5690 O   0  0  0  0  0  0  0  0  0  0  0  0
    8.4370   -2.1380   24.9920 C   0  0  0  0  0  0  0  0  0  0  0  0
    9.5070   -4.4070   25.4480 C   0  0  0  0  0  0  0  0  0  0  0  0
    8.5310   -3.4670   25.8090 C   0  0  0  0  0  0  0  0  0  0  0  0
    7.5610   -3.9380   27.1570 S   0  0  0  0  0  0  0  0  0  0  0  0
    8.4480   -5.4620   27.3060 C   0  0  0  0  0  0  0  0  0  0  0  0
    9.4590   -5.6400   26.3670 C   0  0  0  0  0  0  0  0  0  0  0  0
    7.0990   -1.4520   24.7280 C   0  0  0  0  0  0  0  0  0  0  0  0
  1  2  2  3
  2  3  1  0
  3  4  2  0
  4  5  1  0
  5  6  2  0
  6  7  1  0
  3  8  1  0
  7  8  2  0
  9 10  2  0
 10 12  1  0
 11 12  2  0
 12 13  1  0
 13 14  1  0
 11 15  1  0
 14 15  2  0
  6 16  1  0
 10 16  1  0
M  END
