x2097-x0736
     RDKit          3D

 15 16  0  0  0  0  0  0  0  0999 V2000
    5.8990   -5.5640   19.9970 N   0  0  0  0  0  0  0  0  0  0  0  0
    6.4750   -4.4260   20.0570 C   0  0  0  0  0  0  0  0  0  0  0  0
    5.9600   -2.2370   25.2090 O   0  0  0  0  0  0  0  0  0  0  0  0
    7.0380   -1.8710   24.7590 C   0  0  0  0  0  0  0  0  0  0  0  0
    6.1970   -3.6680   21.3560 C   0  0  0  0  0  0  0  0  0  0  0  0
    7.2310   -3.1650   22.2300 N   0  0  0  0  0  0  0  0  0  0  0  0
    7.3570   -2.5190   23.4650 C   0  0  0  0  0  0  0  0  0  0  0  0
    5.7750   -2.3970   23.7460 C   0  0  0  0  0  0  0  0  0  0  0  0
    4.6050   -2.8700   22.8930 C   0  0  0  0  0  0  0  0  0  0  0  0
    4.8480   -3.5380   21.6510 N   0  0  0  0  0  0  0  0  0  0  0  0
    8.7870   -0.2020   24.7430 O   0  0  0  0  0  0  0  0  0  0  0  0
    7.9300   -0.9200   25.4470 C   0  0  0  0  0  0  0  0  0  0  0  0
    7.9130   -0.7240   26.9500 C   0  0  0  0  0  0  0  0  0  0  0  0
    9.0300    0.3330   27.0440 C   0  0  0  0  0  0  0  0  0  0  0  0
    9.4130    0.5140   25.6870 C   0  0  0  0  0  0  0  0  0  0  0  0
  1  2  2  3
  3  4  2  0
  2  5  1  0
  5  6  2  0
  4  7  1  0
  6  7  1  0
  7  8  2  0
  8  9  1  0
  5 10  1  0
  9 10  2  0
  4 12  1  0
 11 12  1  0
 12 13  2  0
 13 14  1  0
 11 15  1  0
 14 15  2  0
M  END
