x2097-x0981
     RDKit          3D

 21 21  0  0  0  0  0  0  0  0999 V2000
    1.1770   -8.7140   21.3530 C   0  0  0  0  0  0  0  0  0  0  0  0
    2.5330   -7.2610   22.8940 N   0  0  0  0  0  0  0  0  0  0  0  0
    0.3150   -6.5020   22.1550 O   0  0  0  0  0  0  0  0  0  0  0  0
    1.2950   -7.4370   22.1500 C   0  0  0  0  0  0  0  0  0  0  0  0
    2.4850   -8.3630   26.3670 N   0  0  0  0  0  0  0  0  0  0  0  0
    3.9960   -8.2300   24.6570 O   0  0  0  0  0  0  0  0  0  0  0  0
    2.7590   -6.0740   23.7140 C   0  0  1  0  0  0  0  0  0  0  0  0
    4.9360   -6.0310   22.3720 N   0  0  0  0  0  0  0  0  0  0  0  0
    4.2710   -3.9640   23.6240 N   0  0  0  0  0  0  0  0  0  0  0  0
    2.8240   -6.4100   25.0680 C   0  0  0  0  0  0  0  0  0  0  0  0
    3.1450   -7.7220   25.3400 C   0  0  0  0  0  0  0  0  0  0  0  0
    4.0620   -5.3740   23.2050 C   0  0  0  0  0  0  0  0  0  0  0  0
    6.2740   -5.8660   22.5330 C   0  0  0  0  0  0  0  0  0  0  0  0
    5.9390   -4.9350   19.9660 N   0  0  0  0  0  0  0  0  0  0  0  0
    6.7030   -3.9050   19.9730 C   0  0  0  0  0  0  0  0  0  0  0  0
    6.6200   -3.2100   21.2690 C   0  0  0  0  0  0  0  0  0  0  0  0
    7.4780   -2.2190   21.6640 N   0  0  0  0  0  0  0  0  0  0  0  0
    7.1700   -1.7170   23.0130 C   0  0  0  0  0  0  0  0  0  0  0  0
    6.0880   -2.2900   23.6970 C   0  0  0  0  0  0  0  0  0  0  0  0
    5.3220   -3.3070   23.1190 C   0  0  0  0  0  0  0  0  0  0  0  0
    5.6020   -3.7340   21.9290 N   0  0  0  0  0  0  0  0  0  0  0  0
  1  4  1  0
  2  4  1  0
  3  4  2  0
  2  7  1  0
  7 10  1  1
  5 11  1  0
  6 11  2  0
 10 11  1  0
  7 12  1  0
  8 12  1  0
  9 12  2  3
  8 13  1  0
 14 15  2  3
 15 16  1  0
 16 17  2  0
 17 18  1  0
 18 19  2  0
  9 20  1  0
 19 20  1  0
 16 21  1  0
 20 21  2  0
M  END
