x2097-x0354
     RDKit          3D

 27 29  0  0  0  0  0  0  0  0999 V2000
   13.1150   -1.3930   22.2940 C   0  0  0  0  0  0  0  0  0  0  0  0
    7.3770   -1.0400   25.5070 N   0  0  0  0  0  0  0  0  0  0  0  0
    7.9920   -0.3780   27.8110 O   0  0  0  0  0  0  0  0  0  0  0  0
    8.7670   -0.8190   25.6840 C   0  0  0  0  0  0  0  0  0  0  0  0
    8.8690   -0.1150   26.9750 C   0  0  0  0  0  0  0  0  0  0  0  0
    5.2220    3.6650   30.8680 C   0  0  0  0  0  0  0  0  0  0  0  0
    5.9310   -5.5930   19.9740 N   0  0  0  0  0  0  0  0  0  0  0  0
    6.4540   -4.4270   20.0300 C   0  0  0  0  0  0  0  0  0  0  0  0
    6.6200   -1.6040   24.5060 C   0  0  0  0  0  0  0  0  0  0  0  0
   12.0790   -1.4320   23.3050 N   0  0  0  0  0  0  0  0  0  0  0  0
   10.9510   -2.1760   23.2070 C   0  0  0  0  0  0  0  0  0  0  0  0
   10.2420   -2.3940   24.3980 C   0  0  0  0  0  0  0  0  0  0  0  0
    9.8450   -1.1510   24.8280 N   0  0  0  0  0  0  0  0  0  0  0  0
   10.9890   -0.3080   25.0110 C   0  0  0  0  0  0  0  0  0  0  0  0
   12.1610   -0.8640   24.5140 C   0  0  0  0  0  0  0  0  0  0  0  0
    7.6310    2.1310   28.3200 C   0  0  0  0  0  0  0  0  0  0  0  0
    6.9080    3.0250   29.1140 C   0  0  0  0  0  0  0  0  0  0  0  0
    5.9550    2.6480   30.0490 C   0  0  0  0  0  0  0  0  0  0  0  0
    5.7280    1.2780   30.1710 C   0  0  0  0  0  0  0  0  0  0  0  0
    6.3950    0.2960   29.4340 C   0  0  0  0  0  0  0  0  0  0  0  0
    7.3760    0.6310   28.4810 C   0  0  0  0  0  0  0  0  0  0  0  0
    6.1830   -3.7020   21.2080 C   0  0  0  0  0  0  0  0  0  0  0  0
    7.2600   -3.0120   22.0190 N   0  0  0  0  0  0  0  0  0  0  0  0
    7.2340   -2.2210   23.3160 C   0  0  0  0  0  0  0  0  0  0  0  0
    5.7180   -2.3750   23.4610 C   0  0  0  0  0  0  0  0  0  0  0  0
    4.7860   -2.9880   22.7130 C   0  0  0  0  0  0  0  0  0  0  0  0
    4.9550   -3.6420   21.6250 N   0  0  0  0  0  0  0  0  0  0  0  0
  2  4  2  3
  3  5  1  0
  4  5  1  0
  7  8  2  3
  2  9  1  0
  1 10  1  0
 10 11  1  0
 11 12  1  0
  4 13  1  0
 12 13  1  0
 13 14  1  0
 10 15  1  0
 14 15  1  0
 16 17  2  0
  6 18  1  0
 17 18  1  0
 18 19  2  0
 19 20  1  0
  3 21  1  0
 16 21  1  0
 20 21  2  0
  8 22  1  0
 22 23  2  0
  9 24  1  0
 23 24  1  0
 24 25  2  0
 25 26  1  0
 22 27  1  0
 26 27  2  0
M  END
