x2097-x1425
     RDKit          3D

 17 18  0  0  0  0  0  0  0  0999 V2000
    6.0800   -5.4980   19.9930 N   0  0  0  0  0  0  0  0  0  0  0  0
    6.6620   -4.3510   19.9880 C   0  0  0  0  0  0  0  0  0  0  0  0
    6.4900   -3.4890   21.1510 C   0  0  0  0  0  0  0  0  0  0  0  0
    7.6000   -2.9170   21.6590 N   0  0  0  0  0  0  0  0  0  0  0  0
    7.3250   -2.1360   22.7360 C   0  0  0  0  0  0  0  0  0  0  0  0
    6.1480   -1.7850   23.4300 C   0  0  0  0  0  0  0  0  0  0  0  0
    5.2040   -2.5310   22.6690 C   0  0  0  0  0  0  0  0  0  0  0  0
    5.2880   -3.3420   21.6060 N   0  0  0  0  0  0  0  0  0  0  0  0
    1.4740   -2.8840   28.9540 C   0  0  0  0  0  0  0  0  0  0  0  0
    2.7730   -3.4470   28.7890 O   0  0  0  0  0  0  0  0  0  0  0  0
    3.4320   -2.9860   27.7070 C   0  0  0  0  0  0  0  0  0  0  0  0
    4.6740   -2.3430   27.7160 C   0  0  0  0  0  0  0  0  0  0  0  0
    5.2270   -1.8620   26.3970 C   0  0  0  0  0  0  0  0  0  0  0  0
    4.4630   -2.0890   25.2720 C   0  0  0  0  0  0  0  0  0  0  0  0
    3.2460   -2.7610   25.3310 C   0  0  0  0  0  0  0  0  0  0  0  0
    2.7240   -3.2100   26.5330 C   0  0  0  0  0  0  0  0  0  0  0  0
    4.7800   -1.6500   23.8810 C   0  0  0  0  0  0  0  0  0  0  0  0
  1  2  2  3
  2  3  1  0
  3  4  2  0
  4  5  1  0
  5  6  2  0
  6  7  1  0
  3  8  1  0
  7  8  2  0
  9 10  1  0
 10 11  1  0
 11 12  2  0
 12 13  1  0
 13 14  2  0
 14 15  1  0
 11 16  1  0
 15 16  2  0
  6 17  1  0
 14 17  1  0
M  END
