x2097-x1458
     RDKit          3D

 15 15  0  0  0  0  0  0  0  0999 V2000
    7.0510   -3.5430   26.2880 N   0  0  0  0  0  0  0  0  0  0  0  0
    9.0940   -4.7470   27.1640 C   0  0  0  0  0  0  0  0  0  0  0  0
    4.7880   -4.2750   25.6940 O   0  0  0  0  0  0  0  0  0  0  0  0
    7.6050   -4.2950   27.3350 C   0  0  0  0  0  0  0  0  0  0  0  0
    6.8580   -5.5940   27.5960 C   0  0  0  0  0  0  0  0  0  0  0  0
    7.2240   -2.1030   26.1070 C   0  0  0  0  0  0  0  0  0  0  0  0
    5.9750   -4.1210   25.4200 C   0  0  0  0  0  0  0  0  0  0  0  0
    6.1650   -4.5940   19.9920 N   0  0  0  0  0  0  0  0  0  0  0  0
    6.9240   -3.6620   19.5530 C   0  0  0  0  0  0  0  0  0  0  0  0
    6.0950   -4.4110   21.3610 N   0  0  0  0  0  0  0  0  0  0  0  0
    7.1220   -3.5430   21.9150 C   0  0  0  0  0  0  0  0  0  0  0  0
    6.7200   -3.0900   23.3190 C   0  0  0  0  0  0  0  0  0  0  0  0
    6.6510   -4.4340   24.1070 C   0  0  0  0  0  0  0  0  0  0  0  0
    5.7500   -5.2410   23.3750 C   0  0  0  0  0  0  0  0  0  0  0  0
    6.0480   -5.5200   22.0400 C   0  0  0  0  0  0  0  0  0  0  0  0
  1  4  1  0
  2  4  1  0
  4  5  1  0
  1  6  1  0
  1  7  1  0
  3  7  2  0
  8  9  2  3
  8 10  1  0
 10 11  1  0
 11 12  1  0
  7 13  1  0
 12 13  1  0
 13 14  1  0
 10 15  1  0
 14 15  1  0
M  END
