x2097-x2600
     RDKit          3D

 26 28  0  0  0  0  0  0  0  0999 V2000
   13.4690   -3.1820   20.6810 N   0  0  0  0  0  0  0  0  0  0  0  0
    8.1790    0.5720   21.8740 C   0  0  0  0  0  0  0  0  0  0  0  0
    9.1020    1.5790   21.4310 O   0  0  0  0  0  0  0  0  0  0  0  0
    8.5570   -0.2790   23.0740 C   0  0  2  0  0  0  0  0  0  0  0  0
    6.8820    0.1720   21.3590 N   0  0  0  0  0  0  0  0  0  0  0  0
   12.8350   -2.2690   21.4330 C   0  0  0  0  0  0  0  0  0  0  0  0
    5.9050   -5.0700   20.0230 N   0  0  0  0  0  0  0  0  0  0  0  0
    6.7850   -4.1370   20.1970 C   0  0  0  0  0  0  0  0  0  0  0  0
    6.0580    0.5600   17.5010 N   0  0  0  0  0  0  0  0  0  0  0  0
    6.6750   -0.0060   18.5120 C   0  0  0  0  0  0  0  0  0  0  0  0
    6.6670    0.2130   19.9780 C   0  0  0  0  0  0  0  0  0  0  0  0
    5.6490    1.3690   20.2150 C   0  0  0  0  0  0  0  0  0  0  0  0
    4.8740    2.0880   19.0890 C   0  0  0  0  0  0  0  0  0  0  0  0
    5.1250    1.6380   17.6540 C   0  0  0  0  0  0  0  0  0  0  0  0
   10.8300    0.5320   23.9200 C   0  0  0  0  0  0  0  0  0  0  0  0
   12.1930    0.4280   23.8720 C   0  0  0  0  0  0  0  0  0  0  0  0
   12.8600   -0.4670   23.0790 C   0  0  0  0  0  0  0  0  0  0  0  0
   12.1350   -1.3210   22.2740 C   0  0  0  0  0  0  0  0  0  0  0  0
   10.7290   -1.2500   22.2890 C   0  0  0  0  0  0  0  0  0  0  0  0
   10.0870   -0.3200   23.1160 C   0  0  0  0  0  0  0  0  0  0  0  0
    6.7280   -3.2880   21.4440 C   0  0  0  0  0  0  0  0  0  0  0  0
    7.6410   -2.3240   21.6090 N   0  0  0  0  0  0  0  0  0  0  0  0
    7.5840   -1.4650   22.8310 C   0  0  0  0  0  0  0  0  0  0  0  0
    6.4590   -1.8150   23.7830 C   0  0  0  0  0  0  0  0  0  0  0  0
    5.6210   -2.8290   23.4630 C   0  0  0  0  0  0  0  0  0  0  0  0
    5.6530   -3.5940   22.3790 N   0  0  0  0  0  0  0  0  0  0  0  0
  2  3  2  0
  4  2  1  6
  2  5  1  0
  1  6  3  0
  7  8  2  3
  9 10  2  0
  5 11  1  0
 10 11  1  0
 11 12  2  0
 12 13  1  0
  9 14  1  0
 13 14  2  0
 15 16  2  0
 16 17  1  0
  6 18  1  0
 17 18  2  0
 18 19  1  0
  4 20  1  0
 15 20  1  0
 19 20  2  0
  8 21  1  0
 21 22  2  0
  4 23  1  0
 22 23  1  0
 23 24  2  0
 24 25  1  0
 21 26  1  0
 25 26  2  0
M  END
