x2097-x1358
     RDKit          3D

 18 19  0  0  0  0  0  0  0  0999 V2000
    7.1030   -2.7290   25.9700 N   0  0  0  0  0  0  0  0  0  0  0  0
    5.4550   -0.3530   25.3440 O   0  0  0  0  0  0  0  0  0  0  0  0
    4.9280   -3.4730   25.6860 O   0  0  0  0  0  0  0  0  0  0  0  0
    6.0350   -3.3730   25.1650 C   0  0  0  0  0  0  0  0  0  0  0  0
    5.9930   -4.1520   19.8510 N   0  0  0  0  0  0  0  0  0  0  0  0
    6.8610   -3.4500   19.2060 C   0  0  0  0  0  0  0  0  0  0  0  0
    6.0120   -0.3540   26.4430 C   0  0  0  0  0  0  0  0  0  0  0  0
    6.8490   -1.5340   26.7920 C   0  0  0  0  0  0  0  0  0  0  0  0
    7.6070   -1.6730   28.1400 C   0  0  0  0  0  0  0  0  0  0  0  0
    7.4860   -0.5140   29.1840 C   0  0  0  0  0  0  0  0  0  0  0  0
    6.5990    0.7370   28.8110 C   0  0  0  0  0  0  0  0  0  0  0  0
    5.9140    0.7140   27.4300 C   0  0  0  0  0  0  0  0  0  0  0  0
    6.5260   -4.3340   21.1370 N   0  0  0  0  0  0  0  0  0  0  0  0
    7.2820   -3.1810   21.7520 C   0  0  0  0  0  0  0  0  0  0  0  0
    6.6750   -2.7850   22.9230 C   0  0  0  0  0  0  0  0  0  0  0  0
    6.4470   -3.8310   23.7920 C   0  0  0  0  0  0  0  0  0  0  0  0
    5.5590   -4.7500   23.2120 C   0  0  0  0  0  0  0  0  0  0  0  0
    5.9320   -5.2230   21.9550 C   0  0  0  0  0  0  0  0  0  0  0  0
  1  4  1  0
  3  4  2  0
  5  6  2  3
  2  7  1  0
  1  8  1  0
  7  8  2  0
  8  9  1  0
  9 10  2  0
 10 11  1  0
  7 12  1  0
 11 12  2  0
  5 13  1  0
 13 14  1  0
 14 15  1  0
  4 16  1  0
 15 16  1  0
 16 17  1  0
 13 18  1  0
 17 18  1  0
M  END
