x2097-x1249
     RDKit          3D

 28 30  0  0  0  0  0  0  0  0999 V2000
    8.3410    0.7660   24.9710 N   0  0  0  0  0  0  0  0  0  0  0  0
    7.6010    1.7490   24.1890 C   0  0  0  0  0  0  0  0  0  0  0  0
    8.1050    3.0040   23.7410 O   0  0  0  0  0  0  0  0  0  0  0  0
    9.6960    0.9690   25.2530 C   0  0  0  0  0  0  0  0  0  0  0  0
   13.5360   -2.8860   20.6950 N   0  0  0  0  0  0  0  0  0  0  0  0
   12.9640   -2.0020   21.5340 C   0  0  0  0  0  0  0  0  0  0  0  0
    3.6350    1.4580   23.5720 O   0  0  0  0  0  0  0  0  0  0  0  0
    4.5180    1.4750   22.4350 C   0  0  0  0  0  0  0  0  0  0  0  0
    5.8890    1.5590   22.6210 C   0  0  0  0  0  0  0  0  0  0  0  0
    6.2360    1.2010   23.9110 C   0  0  0  0  0  0  0  0  0  0  0  0
    5.3440    1.5020   24.9320 C   0  0  0  0  0  0  0  0  0  0  0  0
    4.0740    0.9850   24.6250 C   0  0  0  0  0  0  0  0  0  0  0  0
   11.8710    0.9010   23.7240 C   0  0  0  0  0  0  0  0  0  0  0  0
   12.6290    0.1460   22.8350 C   0  0  0  0  0  0  0  0  0  0  0  0
   12.2200   -1.1410   22.4780 C   0  0  0  0  0  0  0  0  0  0  0  0
   11.0680   -1.7060   22.9920 C   0  0  0  0  0  0  0  0  0  0  0  0
   10.2800   -1.0140   23.8770 C   0  0  0  0  0  0  0  0  0  0  0  0
   10.5890    0.2740   24.2970 C   0  0  0  0  0  0  0  0  0  0  0  0
    5.9090   -5.5670   20.0140 N   0  0  0  0  0  0  0  0  0  0  0  0
    6.4830   -4.4250   20.0420 C   0  0  0  0  0  0  0  0  0  0  0  0
    6.1330   -3.5880   21.2010 C   0  0  0  0  0  0  0  0  0  0  0  0
    7.0690   -2.5370   21.5840 N   0  0  0  0  0  0  0  0  0  0  0  0
    6.6530   -1.8400   22.6480 C   0  0  0  0  0  0  0  0  0  0  0  0
    5.4720   -2.0830   23.3230 C   0  0  0  0  0  0  0  0  0  0  0  0
    4.5460   -3.1730   22.8910 C   0  0  0  0  0  0  0  0  0  0  0  0
    4.8410   -3.9270   21.8510 N   0  0  0  0  0  0  0  0  0  0  0  0
    6.5320   -0.2440   24.0850 C   0  0  0  0  0  0  0  0  0  0  0  0
    7.3630   -0.8130   23.1570 C   0  0  0  0  0  0  0  0  0  0  0  0
  1  2  1  0
  2  3  2  0
  1  4  1  0
  5  6  3  0
  7  8  1  0
  8  9  1  0
 10  2  1  0
  9 10  1  0
 10 11  1  0
  7 12  1  0
 11 12  1  0
 13 14  2  0
  6 15  1  0
 14 15  1  0
 15 16  2  0
 16 17  1  0
  4 18  1  0
 13 18  1  0
 17 18  2  0
 19 20  2  3
 20 21  1  0
 21 22  2  0
 22 23  1  0
 23 24  2  0
 24 25  1  0
 21 26  1  0
 25 26  2  0
 10 27  1  0
 23 28  1  0
 27 28  1  0
M  END
