x2097-x0305
     RDKit          3D

 21 22  0  0  0  0  0  0  0  0999 V2000
    8.4690   -0.4170   27.6260 C   0  0  0  0  0  0  0  0  0  0  0  0
    8.9570   -0.6620   26.1670 C   0  0  2  0  0  0  0  0  0  0  0  0
    9.4310    0.4280   25.5090 N   0  0  0  0  0  0  0  0  0  0  0  0
   13.1610   -1.3340   21.5180 C   0  0  0  0  0  0  0  0  0  0  0  0
   13.9740   -1.6390   20.4420 N   0  0  0  0  0  0  0  0  0  0  0  0
    5.8470   -5.4750   19.9870 N   0  0  0  0  0  0  0  0  0  0  0  0
    6.4230   -4.3290   20.0880 C   0  0  0  0  0  0  0  0  0  0  0  0
    7.8830   -1.3620   25.3100 C   0  0  0  0  0  0  0  0  0  0  0  0
    7.9930   -1.1670   23.7910 C   0  0  0  0  0  0  0  0  0  0  0  0
   10.4290    0.0790   24.5210 C   0  0  0  0  0  0  0  0  0  0  0  0
   11.6670    0.8410   24.3510 N   0  0  0  0  0  0  0  0  0  0  0  0
   12.5060    0.3730   23.4070 C   0  0  0  0  0  0  0  0  0  0  0  0
   12.3010   -0.8410   22.5080 C   0  0  0  0  0  0  0  0  0  0  0  0
   11.1050   -1.5130   22.7000 C   0  0  0  0  0  0  0  0  0  0  0  0
   10.1710   -1.1400   23.6320 C   0  0  0  0  0  0  0  0  0  0  0  0
    6.1980   -3.4520   21.3570 C   0  0  0  0  0  0  0  0  0  0  0  0
    7.3020   -2.6780   21.9580 N   0  0  0  0  0  0  0  0  0  0  0  0
    6.9650   -1.9760   23.0700 C   0  0  0  0  0  0  0  0  0  0  0  0
    5.6800   -2.0090   23.5470 C   0  0  0  0  0  0  0  0  0  0  0  0
    4.6880   -2.7530   22.9320 C   0  0  0  0  0  0  0  0  0  0  0  0
    4.9260   -3.4940   21.8260 N   0  0  0  0  0  0  0  0  0  0  0  0
  2  1  1  1
  2  3  1  0
  4  5  3  0
  6  7  2  3
  2  8  1  0
  8  9  1  0
  3 10  1  0
 10 11  2  0
 11 12  1  0
  4 13  1  0
 12 13  2  0
 13 14  1  0
 10 15  1  0
 14 15  2  0
  7 16  1  0
 16 17  2  0
  9 18  1  0
 17 18  1  0
 18 19  2  0
 19 20  1  0
 16 21  1  0
 20 21  2  0
M  END
