x2119-x2608
     RDKit          3D

 23 25  0  0  0  0  0  0  0  0999 V2000
    8.7950   -1.1620   22.5290 N   0  0  0  0  0  0  0  0  0  0  0  0
   12.9340    2.2510   22.7680 C   0  0  0  0  0  0  0  0  0  0  0  0
    8.5340    0.6780   21.2180 O   0  0  0  0  0  0  0  0  0  0  0  0
    7.1460   -1.0420   20.8290 N   0  0  0  0  0  0  0  0  0  0  0  0
    8.1760   -0.4610   21.5150 C   0  0  0  0  0  0  0  0  0  0  0  0
    5.7980   -5.2320   20.0530 N   0  0  0  0  0  0  0  0  0  0  0  0
    6.4710   -4.1460   20.0640 C   0  0  0  0  0  0  0  0  0  0  0  0
   12.0560    0.9950   22.8650 C   0  0  0  0  0  0  0  0  0  0  0  0
   12.5180   -0.4460   23.2150 C   0  0  0  0  0  0  0  0  0  0  0  0
   11.3160   -1.3700   23.1290 C   0  0  0  0  0  0  0  0  0  0  0  0
   10.0950   -0.5800   22.7430 C   0  0  0  0  0  0  0  0  0  0  0  0
   10.3880    1.0970   22.5500 S   0  0  0  0  0  0  0  0  0  0  0  0
    6.0870    0.8260   17.6770 N   0  0  0  0  0  0  0  0  0  0  0  0
    6.7880    0.0480   18.5180 C   0  0  0  0  0  0  0  0  0  0  0  0
    6.3620   -0.2120   19.9260 C   0  0  0  0  0  0  0  0  0  0  0  0
    5.0730    0.4330   20.4130 C   0  0  0  0  0  0  0  0  0  0  0  0
    4.3680    1.2380   19.5160 C   0  0  0  0  0  0  0  0  0  0  0  0
    4.8640    1.4130   18.2400 C   0  0  0  0  0  0  0  0  0  0  0  0
    6.1830   -3.3060   21.2020 C   0  0  0  0  0  0  0  0  0  0  0  0
    5.3980   -3.8580   22.3290 N   0  0  0  0  0  0  0  0  0  0  0  0
    5.2890   -2.7440   23.3040 C   0  0  0  0  0  0  0  0  0  0  0  0
    5.9430   -1.6520   22.7950 C   0  0  0  0  0  0  0  0  0  0  0  0
    6.4700   -1.9840   21.5390 N   0  0  0  0  0  0  0  0  0  0  0  0
  1  5  1  0
  3  5  2  0
  4  5  1  0
  6  7  2  3
  2  8  1  0
  8  9  2  0
  9 10  1  0
  1 11  1  0
 10 11  2  0
  8 12  1  0
 11 12  1  0
 13 14  2  0
  4 15  1  0
 14 15  1  0
 15 16  2  0
 16 17  1  0
 13 18  1  0
 17 18  2  0
  7 19  1  0
 19 20  2  0
 20 21  1  0
 21 22  2  0
  4 23  1  0
 19 23  1  0
 22 23  1  0
M  END
