x2119-x1358
     RDKit          3D

 18 19  0  0  0  0  0  0  0  0999 V2000
    6.9770   -2.6480   25.8770 N   0  0  0  0  0  0  0  0  0  0  0  0
    5.4560   -0.2720   25.4160 O   0  0  0  0  0  0  0  0  0  0  0  0
    4.7250   -3.6770   25.7690 O   0  0  0  0  0  0  0  0  0  0  0  0
    5.9430   -3.3940   25.2410 C   0  0  0  0  0  0  0  0  0  0  0  0
    6.0600   -4.0860   19.7990 N   0  0  0  0  0  0  0  0  0  0  0  0
    6.9200   -3.4170   19.1200 C   0  0  0  0  0  0  0  0  0  0  0  0
    6.0230   -0.2470   26.5300 C   0  0  0  0  0  0  0  0  0  0  0  0
    6.8670   -1.5100   26.8410 C   0  0  0  0  0  0  0  0  0  0  0  0
    7.6600   -1.6860   28.1690 C   0  0  0  0  0  0  0  0  0  0  0  0
    7.5290   -0.4940   29.1510 C   0  0  0  0  0  0  0  0  0  0  0  0
    6.6830    0.7100   28.7780 C   0  0  0  0  0  0  0  0  0  0  0  0
    5.9340    0.8160   27.4550 C   0  0  0  0  0  0  0  0  0  0  0  0
    6.5100   -4.2600   21.1120 N   0  0  0  0  0  0  0  0  0  0  0  0
    7.2280   -3.2670   21.7100 C   0  0  0  0  0  0  0  0  0  0  0  0
    6.5160   -2.7960   22.9510 C   0  0  0  0  0  0  0  0  0  0  0  0
    6.3440   -3.8530   23.8460 C   0  0  0  0  0  0  0  0  0  0  0  0
    5.5140   -4.8260   23.2970 C   0  0  0  0  0  0  0  0  0  0  0  0
    5.9870   -5.3500   21.9320 C   0  0  0  0  0  0  0  0  0  0  0  0
  1  4  1  0
  3  4  2  0
  5  6  2  3
  2  7  1  0
  1  8  1  0
  7  8  2  0
  8  9  1  0
  9 10  2  0
 10 11  1  0
  7 12  1  0
 11 12  2  0
  5 13  1  0
 13 14  1  0
 14 15  1  0
  4 16  1  0
 15 16  1  0
 16 17  1  0
 13 18  1  0
 17 18  1  0
M  END
