x2119-x0434
     RDKit          3D

 23 25  0  0  0  0  0  0  0  0999 V2000
    8.7610    0.9930   21.2690 O   0  0  0  0  0  0  0  0  0  0  0  0
    8.2250   -0.1790   21.6070 C   0  0  0  0  0  0  0  0  0  0  0  0
    8.9630   -1.0900   22.3350 N   0  0  0  0  0  0  0  0  0  0  0  0
    6.9730   -0.5760   21.2770 N   0  0  0  0  0  0  0  0  0  0  0  0
    5.8370   -5.4790   19.9910 N   0  0  0  0  0  0  0  0  0  0  0  0
    6.6150   -4.5010   20.2890 C   0  0  0  0  0  0  0  0  0  0  0  0
   10.3950    0.4420   23.4070 C   0  0  0  0  0  0  0  0  0  0  0  0
   11.7950    0.9620   23.7300 C   0  0  0  0  0  0  0  0  0  0  0  0
   13.0130    0.2140   23.1870 C   0  0  0  0  0  0  0  0  0  0  0  0
   12.8850   -1.0390   22.3460 C   0  0  0  0  0  0  0  0  0  0  0  0
   11.5050   -1.5160   22.0470 C   0  0  0  0  0  0  0  0  0  0  0  0
   10.3190   -0.7280   22.6010 C   0  0  0  0  0  0  0  0  0  0  0  0
    5.0980    0.8810   20.3590 C   0  0  0  0  0  0  0  0  0  0  0  0
    4.5440    1.5330   19.1110 C   0  0  0  0  0  0  0  0  0  0  0  0
    5.2160    1.3460   17.9060 C   0  0  0  0  0  0  0  0  0  0  0  0
    6.3710    0.5930   17.7270 N   0  0  0  0  0  0  0  0  0  0  0  0
    6.9690   -0.0780   18.8860 C   0  0  0  0  0  0  0  0  0  0  0  0
    6.3440    0.0530   20.2750 C   0  0  0  0  0  0  0  0  0  0  0  0
    6.2230   -3.4970   21.2190 C   0  0  0  0  0  0  0  0  0  0  0  0
    5.4610   -3.6280   22.2200 N   0  0  0  0  0  0  0  0  0  0  0  0
    5.4560   -2.3710   22.7160 C   0  0  0  0  0  0  0  0  0  0  0  0
    6.1900   -1.3130   22.0940 C   0  0  0  0  0  0  0  0  0  0  0  0
    6.6210   -2.2550   21.1440 N   0  0  0  0  0  0  0  0  0  0  0  0
  1  2  2  0
  2  3  1  0
  2  4  1  0
  5  6  2  3
  7  8  2  0
  8  9  1  0
  9 10  2  0
 10 11  1  0
  3 12  1  0
  7 12  1  0
 11 12  2  0
 13 14  2  0
 14 15  1  0
 15 16  2  0
 16 17  1  0
  4 18  1  0
 13 18  1  0
 17 18  2  0
  6 19  1  0
 19 20  2  0
 20 21  1  0
  4 22  1  0
 21 22  2  0
 19 23  1  0
 22 23  1  0
M  END
