x2119-x2600
     RDKit          3D

 25 27  0  0  0  0  0  0  0  0999 V2000
   14.0070   -1.4820   20.4030 N   0  0  0  0  0  0  0  0  0  0  0  0
    8.2720   -0.1570   21.8350 C   0  0  0  0  0  0  0  0  0  0  0  0
    8.9200    0.8000   21.3860 O   0  0  0  0  0  0  0  0  0  0  0  0
    8.6270   -0.9270   23.0740 C   0  0  0  0  0  0  0  0  0  0  0  0
    7.1140   -0.5590   21.2010 N   0  0  0  0  0  0  0  0  0  0  0  0
   13.1750   -1.3580   21.5160 C   0  0  0  0  0  0  0  0  0  0  0  0
    5.8440   -5.2660   20.0430 N   0  0  0  0  0  0  0  0  0  0  0  0
    6.6840   -4.3150   20.2720 C   0  0  0  0  0  0  0  0  0  0  0  0
    6.3120    0.6950   17.6580 N   0  0  0  0  0  0  0  0  0  0  0  0
    6.9170    0.0460   18.6730 C   0  0  0  0  0  0  0  0  0  0  0  0
    6.4620    0.1410   20.1190 C   0  0  0  0  0  0  0  0  0  0  0  0
    5.2730    0.9910   20.4460 C   0  0  0  0  0  0  0  0  0  0  0  0
    4.6210    1.7010   19.2740 C   0  0  0  0  0  0  0  0  0  0  0  0
    5.2380    1.4790   17.8940 C   0  0  0  0  0  0  0  0  0  0  0  0
   10.6050   -0.4980   24.6150 C   0  0  0  0  0  0  0  0  0  0  0  0
   11.9920   -0.4390   24.8650 C   0  0  0  0  0  0  0  0  0  0  0  0
   12.8400   -0.7190   23.8630 C   0  0  0  0  0  0  0  0  0  0  0  0
   12.3000   -1.0860   22.5350 C   0  0  0  0  0  0  0  0  0  0  0  0
   10.9460   -1.1490   22.2990 C   0  0  0  0  0  0  0  0  0  0  0  0
   10.1120   -0.8540   23.3410 C   0  0  0  0  0  0  0  0  0  0  0  0
    6.3400   -3.2700   21.2170 C   0  0  0  0  0  0  0  0  0  0  0  0
    5.4490   -3.6390   22.3320 N   0  0  0  0  0  0  0  0  0  0  0  0
    5.3790   -2.4950   22.9020 C   0  0  0  0  0  0  0  0  0  0  0  0
    6.0830   -1.4960   22.3060 C   0  0  0  0  0  0  0  0  0  0  0  0
    6.7770   -1.9070   21.1410 N   0  0  0  0  0  0  0  0  0  0  0  0
  2  3  2  0
  2  4  1  0
  2  5  1  0
  1  6  3  0
  7  8  2  3
  9 10  2  0
  5 11  1  0
 10 11  1  0
 11 12  2  0
 12 13  1  0
  9 14  1  0
 13 14  2  0
 15 16  2  0
 16 17  1  0
  6 18  1  0
 17 18  2  0
 18 19  1  0
  4 20  1  0
 15 20  1  0
 19 20  2  0
  8 21  1  0
 21 22  2  0
 22 23  1  0
 23 24  2  0
  5 25  1  0
 21 25  1  0
 24 25  1  0
M  END
