x2119-x0830
     RDKit          3D

 20 22  0  0  0  0  0  0  0  0999 V2000
    5.9020   -5.5190   20.0270 N   0  0  0  0  0  0  0  0  0  0  0  0
    6.4510   -4.3730   20.0920 C   0  0  0  0  0  0  0  0  0  0  0  0
    6.1330   -3.5050   21.1920 C   0  0  0  0  0  0  0  0  0  0  0  0
    4.8850   -3.3760   21.6480 N   0  0  0  0  0  0  0  0  0  0  0  0
    5.0710   -2.4350   22.6870 C   0  0  0  0  0  0  0  0  0  0  0  0
    6.5230   -1.9420   22.9280 C   0  0  0  0  0  0  0  0  0  0  0  0
    7.0000   -2.7490   21.8710 N   0  0  0  0  0  0  0  0  0  0  0  0
   10.0020   -2.7050   23.7300 C   0  0  0  0  0  0  0  0  0  0  0  0
   12.2550   -2.0140   22.6770 C   0  0  0  0  0  0  0  0  0  0  0  0
   13.2590   -0.9740   22.3360 C   0  0  0  0  0  0  0  0  0  0  0  0
   13.0050    0.4510   22.7290 C   0  0  0  0  0  0  0  0  0  0  0  0
   11.7390    0.7900   23.4410 C   0  0  0  0  0  0  0  0  0  0  0  0
   10.7200   -0.2830   23.8070 C   0  0  0  0  0  0  0  0  0  0  0  0
   11.0060   -1.6100   23.4160 C   0  0  0  0  0  0  0  0  0  0  0  0
   11.3810    2.0890   23.8160 C   0  0  0  0  0  0  0  0  0  0  0  0
   10.0760    2.3340   24.5300 C   0  0  0  0  0  0  0  0  0  0  0  0
    9.2140    1.2950   24.8540 C   0  0  0  0  0  0  0  0  0  0  0  0
    9.5300    0.0040   24.4980 C   0  0  0  0  0  0  0  0  0  0  0  0
    7.9850   -1.5900   23.0050 C   0  0  0  0  0  0  0  0  0  0  0  0
    8.6020   -2.2390   24.0780 C   0  0  0  0  0  0  0  0  0  0  0  0
  1  2  2  3
  2  3  1  0
  3  4  2  0
  4  5  1  0
  5  6  2  0
  3  7  1  0
  6  7  1  0
  9 10  2  0
 10 11  1  0
 11 12  2  0
 12 13  1  0
  8 14  1  0
  9 14  1  0
 13 14  2  0
 12 15  1  0
 15 16  2  0
 16 17  1  0
 13 18  1  0
 17 18  2  0
  6 19  1  0
  8 20  1  0
 19 20  1  0
M  END
