x2119-x1093
     RDKit          3D

 26 29  0  0  0  0  0  0  0  0999 V2000
   13.3160   -1.9800   23.9980 C   0  0  0  0  0  0  0  0  0  0  0  0
    8.8600    1.2640   21.0650 O   0  0  0  0  0  0  0  0  0  0  0  0
    8.8380    0.1400   21.6020 C   0  0  0  0  0  0  0  0  0  0  0  0
    7.6150   -0.5680   21.3120 C   0  0  1  0  0  0  0  0  0  0  0  0
    5.7250   -4.6160   19.9570 N   0  0  0  0  0  0  0  0  0  0  0  0
    6.6610   -3.7440   20.0720 C   0  0  0  0  0  0  0  0  0  0  0  0
   12.1980   -1.3030   23.6130 N   0  0  0  0  0  0  0  0  0  0  0  0
   12.0500    0.0480   23.3450 C   0  0  0  0  0  0  0  0  0  0  0  0
   10.6080    0.5940   23.2300 C   0  0  0  0  0  0  0  0  0  0  0  0
    9.7940   -0.3070   22.4060 N   0  0  0  0  0  0  0  0  0  0  0  0
    9.8950   -1.7440   22.7240 C   0  0  0  0  0  0  0  0  0  0  0  0
   11.3590   -2.1550   22.7600 C   0  0  0  0  0  0  0  0  0  0  0  0
    6.2310    0.1870   17.8570 N   0  0  0  0  0  0  0  0  0  0  0  0
    7.1610   -0.4300   18.6100 C   0  0  0  0  0  0  0  0  0  0  0  0
    6.9150   -0.1520   20.0610 C   0  0  0  0  0  0  0  0  0  0  0  0
    5.8040    0.6500   20.1680 C   0  0  0  0  0  0  0  0  0  0  0  0
    5.4090    0.8470   18.8530 C   0  0  0  0  0  0  0  0  0  0  0  0
    4.3380    1.5990   18.5880 N   0  0  0  0  0  0  0  0  0  0  0  0
    3.6500    2.1540   19.6370 C   0  0  0  0  0  0  0  0  0  0  0  0
    4.0160    1.9750   20.9600 C   0  0  0  0  0  0  0  0  0  0  0  0
    5.0800    1.2420   21.3400 C   0  0  0  0  0  0  0  0  0  0  0  0
    6.7100   -3.1380   21.3940 C   0  0  0  0  0  0  0  0  0  0  0  0
    6.2600   -3.9320   22.4560 N   0  0  0  0  0  0  0  0  0  0  0  0
    6.3990   -3.1430   23.4950 C   0  0  0  0  0  0  0  0  0  0  0  0
    6.8860   -1.9190   23.2590 C   0  0  0  0  0  0  0  0  0  0  0  0
    7.1040   -1.8460   21.9170 N   0  0  0  0  0  0  0  0  0  0  0  0
  2  3  2  0
  4  3  1  6
  5  6  2  3
  1  7  1  0
  7  8  1  0
  8  9  1  0
  3 10  1  0
  9 10  1  0
 10 11  1  0
  7 12  1  0
 11 12  1  0
 13 14  1  0
  4 15  1  0
 14 15  2  0
 15 16  1  0
 13 17  1  0
 16 17  2  0
 17 18  1  0
 18 19  2  0
 19 20  1  0
 16 21  1  0
 20 21  2  0
  6 22  1  0
 22 23  2  0
 23 24  1  0
 24 25  2  0
  4 26  1  0
 22 26  1  0
 25 26  1  0
M  END
