x2119-x1386
     RDKit          3D

 15 16  0  0  0  0  0  0  0  0999 V2000
    5.8890   -5.5050   19.9920 N   0  0  0  0  0  0  0  0  0  0  0  0
    6.4710   -4.3620   20.0960 C   0  0  0  0  0  0  0  0  0  0  0  0
    6.1530   -3.4960   21.2070 C   0  0  0  0  0  0  0  0  0  0  0  0
    4.9440   -3.4490   21.7540 N   0  0  0  0  0  0  0  0  0  0  0  0
    5.1600   -2.4790   22.7620 C   0  0  0  0  0  0  0  0  0  0  0  0
    6.5870   -1.8490   22.9090 C   0  0  0  0  0  0  0  0  0  0  0  0
    7.0070   -2.6580   21.8140 N   0  0  0  0  0  0  0  0  0  0  0  0
    9.8960   -2.5160   23.9560 C   0  0  0  0  0  0  0  0  0  0  0  0
   12.0810   -1.6730   22.6920 C   0  0  0  0  0  0  0  0  0  0  0  0
   10.9450   -1.5010   23.6550 C   0  0  0  0  0  0  0  0  0  0  0  0
   10.9480   -0.1510   24.3240 C   0  0  0  0  0  0  0  0  0  0  0  0
   12.2610    0.7940   23.7680 S   0  0  0  0  0  0  0  0  0  0  0  0
   12.8750   -0.4880   22.6630 C   0  0  0  0  0  0  0  0  0  0  0  0
    8.0840   -1.5420   22.6660 C   0  0  0  0  0  0  0  0  0  0  0  0
    8.8960   -2.6810   22.8110 C   0  0  0  0  0  0  0  0  0  0  0  0
  1  2  2  3
  2  3  1  0
  3  4  2  0
  4  5  1  0
  5  6  2  0
  3  7  1  0
  6  7  1  0
  8 10  1  0
  9 10  1  0
 10 11  2  0
 11 12  1  0
  9 13  2  0
 12 13  1  0
  6 14  1  0
  8 15  1  0
 14 15  1  0
M  END
