x2119-x2703
     RDKit          3D

 35 38  0  0  0  0  0  0  0  0999 V2000
    7.4550    1.7640   22.5320 N   0  0  0  0  0  0  0  0  0  0  0  0
    9.0400    1.4160   21.0280 O   0  0  0  0  0  0  0  0  0  0  0  0
    7.3790   -0.3270   21.1080 C   0  0  2  0  0  0  0  0  0  0  0  0
    8.0270    0.9910   21.5450 C   0  0  0  0  0  0  0  0  0  0  0  0
   10.0670    1.8190   23.8350 C   0  0  0  0  0  0  0  0  0  0  0  0
    9.1560    1.0680   24.8450 C   0  0  0  0  0  0  0  0  0  0  0  0
    6.0540    4.2840   21.7230 C   0  0  0  0  0  0  0  0  0  0  0  0
   12.3870   -2.2460   24.2420 C   0  0  0  0  0  0  0  0  0  0  0  0
   12.1680   -3.2730   25.3000 C   0  0  0  0  0  0  0  0  0  0  0  0
   12.7910   -0.9190   24.8880 C   0  0  0  0  0  0  0  0  0  0  0  0
    5.7940   -4.8230   19.9970 N   0  0  0  0  0  0  0  0  0  0  0  0
    6.5980   -3.8120   20.0520 C   0  0  0  0  0  0  0  0  0  0  0  0
    6.1940    0.5130   17.6530 N   0  0  0  0  0  0  0  0  0  0  0  0
    5.0320    1.1210   17.8910 C   0  0  0  0  0  0  0  0  0  0  0  0
    4.4340    1.3250   19.1500 C   0  0  0  0  0  0  0  0  0  0  0  0
    5.0690    0.8910   20.2900 C   0  0  0  0  0  0  0  0  0  0  0  0
    6.4040    0.2150   20.0410 C   0  0  0  0  0  0  0  0  0  0  0  0
    6.8410    0.0790   18.7460 C   0  0  0  0  0  0  0  0  0  0  0  0
   10.8730   -1.6980   22.3150 N   0  0  0  0  0  0  0  0  0  0  0  0
   11.0150   -2.0880   23.5790 C   0  0  0  0  0  0  0  0  0  0  0  0
    9.9000   -2.3670   24.3610 C   0  0  0  0  0  0  0  0  0  0  0  0
    8.5840   -2.2620   23.9010 C   0  0  0  0  0  0  0  0  0  0  0  0
    8.4040   -1.8520   22.6000 C   0  0  0  0  0  0  0  0  0  0  0  0
    9.5090   -1.5730   21.8110 C   0  0  0  0  0  0  0  0  0  0  0  0
    9.3250    3.1010   23.4060 C   0  0  0  0  0  0  0  0  0  0  0  0
    9.9240    4.3530   23.6360 C   0  0  0  0  0  0  0  0  0  0  0  0
    9.2780    5.5170   23.2580 C   0  0  0  0  0  0  0  0  0  0  0  0
    8.0300    5.4810   22.6430 C   0  0  0  0  0  0  0  0  0  0  0  0
    7.4040    4.2510   22.3960 C   0  0  0  0  0  0  0  0  0  0  0  0
    8.0440    3.0510   22.7740 C   0  0  0  0  0  0  0  0  0  0  0  0
    6.2760   -2.9120   21.2380 C   0  0  0  0  0  0  0  0  0  0  0  0
    5.1160   -3.2810   21.8570 N   0  0  0  0  0  0  0  0  0  0  0  0
    5.0260   -2.4380   22.8680 C   0  0  0  0  0  0  0  0  0  0  0  0
    6.0780   -1.5610   22.9040 C   0  0  0  0  0  0  0  0  0  0  0  0
    7.0590   -1.6380   21.9120 C   0  0  2  0  0  0  0  0  0  0  0  0
  1  4  1  0
  2  4  2  0
  3  4  1  1
  5  6  1  0
  8  9  1  0
  8 10  1  0
 11 12  2  3
 13 14  2  0
 14 15  1  0
 15 16  2  0
  3 17  1  0
 16 17  1  0
 13 18  1  0
 17 18  2  0
  8 20  1  0
 19 20  2  0
 20 21  1  0
 21 22  2  0
 22 23  1  0
 19 24  1  0
 23 24  2  0
  5 25  1  0
 25 26  2  0
 26 27  1  0
 27 28  2  0
  7 29  1  0
 28 29  1  0
  1 30  1  0
 25 30  1  0
 29 30  2  0
 12 31  1  0
 31 32  2  0
 32 33  1  0
 33 34  2  0
  3 35  1  0
 35 23  1  1
 31 35  1  0
 34 35  1  0
M  END
