x2119-x2912
     RDKit          3D

 27 29  0  0  0  0  0  0  0  0999 V2000
    6.9650   -0.4920   21.4460 N   0  0  0  0  0  0  0  0  0  0  0  0
    7.6670   -0.8060   24.0780 C   0  0  0  0  0  0  0  0  0  0  0  0
    8.8680    0.9390   21.4520 O   0  0  0  0  0  0  0  0  0  0  0  0
    8.6510   -0.9330   22.9550 C   0  0  1  0  0  0  0  0  0  0  0  0
    8.2620   -0.0530   21.9150 C   0  0  0  0  0  0  0  0  0  0  0  0
   14.0270   -1.4660   20.3680 N   0  0  0  0  0  0  0  0  0  0  0  0
    4.7130    1.4380   21.7050 C   0  0  0  0  0  0  0  0  0  0  0  0
   13.2800   -1.3560   21.4520 C   0  0  0  0  0  0  0  0  0  0  0  0
    5.8260   -5.5360   20.0520 N   0  0  0  0  0  0  0  0  0  0  0  0
    6.3400   -4.3720   19.9760 C   0  0  0  0  0  0  0  0  0  0  0  0
    6.3770    0.4410   17.7920 N   0  0  0  0  0  0  0  0  0  0  0  0
    5.3540    1.3100   17.9050 C   0  0  0  0  0  0  0  0  0  0  0  0
    4.7210    1.7070   19.2070 C   0  0  0  0  0  0  0  0  0  0  0  0
    5.2590    1.1040   20.4740 C   0  0  0  0  0  0  0  0  0  0  0  0
    6.4070    0.1360   20.2380 C   0  0  0  0  0  0  0  0  0  0  0  0
    6.8830   -0.1290   18.9340 C   0  0  0  0  0  0  0  0  0  0  0  0
   10.5280   -0.4520   24.6010 C   0  0  0  0  0  0  0  0  0  0  0  0
   12.0190   -0.4030   24.7900 C   0  0  0  0  0  0  0  0  0  0  0  0
   12.8780   -0.6950   23.7830 C   0  0  0  0  0  0  0  0  0  0  0  0
   12.3980   -1.0450   22.5780 C   0  0  0  0  0  0  0  0  0  0  0  0
   11.0400   -1.1200   22.3400 C   0  0  0  0  0  0  0  0  0  0  0  0
   10.1010   -0.8270   23.3320 C   0  0  0  0  0  0  0  0  0  0  0  0
    5.9990   -3.4090   20.9700 C   0  0  0  0  0  0  0  0  0  0  0  0
    5.1580   -3.5660   21.9190 N   0  0  0  0  0  0  0  0  0  0  0  0
    5.2070   -2.4050   22.5450 C   0  0  0  0  0  0  0  0  0  0  0  0
    6.0420   -1.3080   22.1350 C   0  0  0  0  0  0  0  0  0  0  0  0
    6.4990   -2.1510   21.0830 N   0  0  0  0  0  0  0  0  0  0  0  0
  4  2  1  1
  1  5  1  0
  3  5  2  0
  4  5  1  0
  6  8  3  0
  9 10  2  3
 11 12  2  0
 12 13  1  0
  7 14  1  0
 13 14  2  0
  1 15  1  0
 14 15  1  0
 11 16  1  0
 15 16  2  0
 17 18  2  0
 18 19  1  0
  8 20  1  0
 19 20  2  0
 20 21  1  0
  4 22  1  0
 17 22  1  0
 21 22  2  0
 10 23  1  0
 23 24  2  0
 24 25  1  0
  1 26  1  0
 25 26  2  0
 23 27  1  0
 26 27  1  0
M  END
