x2119-x0736
     RDKit          3D

 15 16  0  0  0  0  0  0  0  0999 V2000
    5.9370   -5.4950   19.9950 N   0  0  0  0  0  0  0  0  0  0  0  0
    6.4710   -4.3380   20.0190 C   0  0  0  0  0  0  0  0  0  0  0  0
    6.1740   -3.5420   21.1610 C   0  0  0  0  0  0  0  0  0  0  0  0
    5.0230   -3.7420   21.8360 N   0  0  0  0  0  0  0  0  0  0  0  0
    4.7360   -2.9320   23.0320 C   0  0  0  0  0  0  0  0  0  0  0  0
    6.1410   -2.2020   22.7530 C   0  0  0  0  0  0  0  0  0  0  0  0
    6.8650   -2.6140   21.6910 N   0  0  0  0  0  0  0  0  0  0  0  0
    5.7990   -2.0430   25.0110 N   0  0  0  0  0  0  0  0  0  0  0  0
    6.4900   -0.9090   24.9740 C   0  0  0  0  0  0  0  0  0  0  0  0
    8.9480   -0.4320   24.9130 O   0  0  0  0  0  0  0  0  0  0  0  0
    7.7940   -0.5710   25.6610 C   0  0  0  0  0  0  0  0  0  0  0  0
    8.0710   -0.3270   27.1120 C   0  0  0  0  0  0  0  0  0  0  0  0
    9.5020   -0.0140   27.1930 C   0  0  0  0  0  0  0  0  0  0  0  0
    9.9780   -0.1110   25.7540 C   0  0  0  0  0  0  0  0  0  0  0  0
    4.5930   -2.0260   24.2270 C   0  0  0  0  0  0  0  0  0  0  0  0
  1  2  2  3
  2  3  1  0
  3  4  1  0
  4  5  1  0
  5  6  2  0
  3  7  2  0
  6  7  1  0
  8  9  2  3
  9 11  1  0
 10 11  1  0
 11 12  2  0
 12 13  1  0
 10 14  1  0
 13 14  2  0
  5 15  1  0
  8 15  1  0
M  END
