x2119-x2193
     RDKit          3D

 25 27  0  0  0  0  0  0  0  0999 V2000
   11.3970    2.6730   22.7180 C   0  0  0  0  0  0  0  0  0  0  0  0
    9.0860    2.7730   21.3710 O   0  0  0  0  0  0  0  0  0  0  0  0
    9.1310    3.4320   23.7920 O   0  0  0  0  0  0  0  0  0  0  0  0
    9.6210    2.5990   22.7110 S   0  0  0  0  0  0  0  0  0  0  0  0
    7.5120   -3.8090   22.6590 C   0  0  0  0  0  0  0  0  0  0  0  0
    9.1750    0.9310   23.1060 C   0  0  0  0  0  0  0  0  0  0  0  0
    7.9940    0.6480   24.0570 C   0  0  0  0  0  0  0  0  0  0  0  0
    7.5230   -0.7760   24.4320 C   0  0  0  0  0  0  0  0  0  0  0  0
    8.3030   -1.9550   23.7960 C   0  0  0  0  0  0  0  0  0  0  0  0
    9.4750   -1.6410   22.8660 C   0  0  0  0  0  0  0  0  0  0  0  0
    9.8570   -0.1880   22.5650 C   0  0  0  0  0  0  0  0  0  0  0  0
    8.2700   -5.4890   26.1320 N   0  0  0  0  0  0  0  0  0  0  0  0
    7.5730   -4.2140   26.3850 C   0  0  0  0  0  0  0  0  0  0  0  0
    6.9890   -3.6220   25.0970 C   0  0  0  0  0  0  0  0  0  0  0  0
    7.9260   -3.4060   24.0630 C   0  0  0  0  0  0  0  0  0  0  0  0
    9.1350   -3.9710   24.4220 C   0  0  0  0  0  0  0  0  0  0  0  0
    9.1340   -5.4110   24.9380 C   0  0  0  0  0  0  0  0  0  0  0  0
    5.9690   -4.9270   20.0400 N   0  0  0  0  0  0  0  0  0  0  0  0
    6.9120   -4.0570   20.1520 C   0  0  0  0  0  0  0  0  0  0  0  0
    6.7090   -3.0500   21.1930 C   0  0  0  0  0  0  0  0  0  0  0  0
    5.8260   -3.4330   22.4790 N   0  0  0  0  0  0  0  0  0  0  0  0
    5.8440   -2.3260   23.1630 C   0  0  0  0  0  0  0  0  0  0  0  0
    6.5780   -1.6270   22.3390 C   0  0  0  0  0  0  0  0  0  0  0  0
    7.2780   -1.7080   21.0800 N   0  0  0  0  0  0  0  0  0  0  0  0
    6.3540   -2.9470   21.9770 C   0  0  0  0  0  0  0  0  0  0  0  0
  4  1  1  0
  2  4  2  0
  3  4  2  0
  4  6  1  0
  6  7  2  0
  7  8  1  0
  8  9  2  0
  9 10  1  0
  6 11  1  0
 10 11  2  0
 12 13  1  0
 13 14  1  0
 15  5  1  0
  9 15  1  0
 14 15  1  0
 15 16  1  0
 12 17  1  0
 16 17  1  0
 18 19  2  3
 19 20  1  0
 20 21  2  0
 21 22  1  0
 22 23  2  0
 20 24  1  0
 23 24  1  0
  5 25  1  0
 23 25  1  0
M  END
