x2119-x1418
     RDKit          3D

 15 16  0  0  0  0  0  0  0  0999 V2000
    5.9120   -5.5490   19.9920 N   0  0  0  0  0  0  0  0  0  0  0  0
    6.5150   -4.4220   20.1410 C   0  0  0  0  0  0  0  0  0  0  0  0
    6.1520   -3.5260   21.2130 C   0  0  0  0  0  0  0  0  0  0  0  0
    4.9150   -3.4190   21.6730 N   0  0  0  0  0  0  0  0  0  0  0  0
    5.1000   -2.4380   22.6780 C   0  0  0  0  0  0  0  0  0  0  0  0
    6.5380   -1.8700   22.9130 C   0  0  0  0  0  0  0  0  0  0  0  0
    6.9990   -2.7150   21.8670 N   0  0  0  0  0  0  0  0  0  0  0  0
   10.1650   -2.7370   23.3110 C   0  0  0  0  0  0  0  0  0  0  0  0
   12.5770   -1.5690   22.8890 C   0  0  0  0  0  0  0  0  0  0  0  0
   11.0810   -1.5720   23.1570 C   0  0  0  0  0  0  0  0  0  0  0  0
   10.4410    0.0100   23.2770 S   0  0  0  0  0  0  0  0  0  0  0  0
   11.9520    0.7250   23.0110 C   0  0  0  0  0  0  0  0  0  0  0  0
   13.0770   -0.2420   22.8060 C   0  0  0  0  0  0  0  0  0  0  0  0
    8.0590   -1.6360   22.7660 C   0  0  0  0  0  0  0  0  0  0  0  0
    8.7650   -2.3200   23.7700 C   0  0  0  0  0  0  0  0  0  0  0  0
  1  2  2  3
  2  3  1  0
  3  4  2  0
  4  5  1  0
  5  6  2  0
  3  7  1  0
  6  7  1  0
  8 10  1  0
  9 10  2  0
 10 11  1  0
 11 12  1  0
  9 13  1  0
 12 13  2  0
  6 14  1  0
  8 15  1  0
 14 15  1  0
M  END
