x2119-x0705
     RDKit          3D

 17 18  0  0  0  0  0  0  0  0999 V2000
    1.1630   -2.5970   27.9740 C   0  0  0  0  0  0  0  0  0  0  0  0
    7.4750   -1.6540   25.9060 O   0  0  0  0  0  0  0  0  0  0  0  0
    6.5460   -2.0060   25.2080 C   0  0  0  0  0  0  0  0  0  0  0  0
    5.7480   -4.7920   20.0250 N   0  0  0  0  0  0  0  0  0  0  0  0
    6.8080   -4.1190   20.3030 C   0  0  0  0  0  0  0  0  0  0  0  0
    2.5630   -2.4690   27.2880 C   0  0  0  0  0  0  0  0  0  0  0  0
    2.7070   -1.4410   26.1470 C   0  0  0  0  0  0  0  0  0  0  0  0
    4.0260   -1.2460   25.4160 C   0  0  0  0  0  0  0  0  0  0  0  0
    5.1940   -2.0860   25.8360 C   0  0  0  0  0  0  0  0  0  0  0  0
    5.0470   -3.1070   26.9750 C   0  0  0  0  0  0  0  0  0  0  0  0
    3.6710   -3.2460   27.6660 C   0  0  0  0  0  0  0  0  0  0  0  0
    7.0790   -3.7070   21.6160 N   0  0  0  0  0  0  0  0  0  0  0  0
    6.1770   -4.0190   22.6050 C   0  0  0  0  0  0  0  0  0  0  0  0
    5.6500   -2.8480   23.1660 C   0  0  0  0  0  0  0  0  0  0  0  0
    6.6720   -2.3030   23.9220 N   0  0  0  0  0  0  0  0  0  0  0  0
    7.8980   -2.2590   23.3850 C   0  0  0  0  0  0  0  0  0  0  0  0
    8.1270   -2.8980   22.0040 C   0  0  0  0  0  0  0  0  0  0  0  0
  2  3  2  0
  4  5  2  3
  1  6  1  0
  6  7  2  0
  7  8  1  0
  3  9  1  0
  8  9  2  0
  9 10  1  0
  6 11  1  0
 10 11  2  0
  5 12  1  0
 12 13  1  0
 13 14  1  0
  3 15  1  0
 14 15  1  0
 15 16  1  0
 12 17  1  0
 16 17  1  0
M  END
