x2119-x2572
     RDKit          3D

 26 28  0  0  0  0  0  0  0  0999 V2000
    4.6690    1.4060   21.7920 C   0  0  0  0  0  0  0  0  0  0  0  0
    8.7590    0.9750   21.4490 O   0  0  0  0  0  0  0  0  0  0  0  0
    6.9820   -0.4930   21.3710 N   0  0  0  0  0  0  0  0  0  0  0  0
   13.5840   -3.2520   20.6200 N   0  0  0  0  0  0  0  0  0  0  0  0
    8.1340    0.0060   21.8910 C   0  0  0  0  0  0  0  0  0  0  0  0
    8.7170   -0.5630   23.0310 C   0  0  0  0  0  0  0  0  0  0  0  0
   13.0550   -2.2170   21.3790 C   0  0  0  0  0  0  0  0  0  0  0  0
    5.8610   -5.5510   19.9970 N   0  0  0  0  0  0  0  0  0  0  0  0
    6.4340   -4.4040   20.0740 C   0  0  0  0  0  0  0  0  0  0  0  0
    6.4420    0.4720   17.7420 N   0  0  0  0  0  0  0  0  0  0  0  0
    6.9680   -0.1280   18.8440 C   0  0  0  0  0  0  0  0  0  0  0  0
    6.3930    0.1660   20.2090 C   0  0  0  0  0  0  0  0  0  0  0  0
    5.2350    1.1060   20.4460 C   0  0  0  0  0  0  0  0  0  0  0  0
    4.6880    1.7310   19.1910 C   0  0  0  0  0  0  0  0  0  0  0  0
    5.3220    1.3880   17.8630 C   0  0  0  0  0  0  0  0  0  0  0  0
   10.8500    0.8070   23.7610 C   0  0  0  0  0  0  0  0  0  0  0  0
   12.1980    0.8720   23.6470 C   0  0  0  0  0  0  0  0  0  0  0  0
   12.9630   -0.1270   22.8560 C   0  0  0  0  0  0  0  0  0  0  0  0
   12.3610   -1.1720   22.1950 C   0  0  0  0  0  0  0  0  0  0  0  0
   10.9950   -1.2650   22.2850 C   0  0  0  0  0  0  0  0  0  0  0  0
   10.1930   -0.3680   23.0070 C   0  0  0  0  0  0  0  0  0  0  0  0
    6.0550   -3.4170   21.0310 C   0  0  0  0  0  0  0  0  0  0  0  0
    5.2040   -3.5370   21.9950 N   0  0  0  0  0  0  0  0  0  0  0  0
    5.1970   -2.3620   22.6060 C   0  0  0  0  0  0  0  0  0  0  0  0
    6.0300   -1.3300   22.1120 C   0  0  0  0  0  0  0  0  0  0  0  0
    6.5340   -2.1390   21.1020 N   0  0  0  0  0  0  0  0  0  0  0  0
  2  5  2  0
  3  5  1  0
  5  6  1  0
  4  7  3  0
  8  9  2  3
 10 11  2  0
  3 12  1  0
 11 12  1  0
  1 13  1  0
 12 13  2  0
 13 14  1  0
 10 15  1  0
 14 15  2  0
 16 17  2  0
 17 18  1  0
  7 19  1  0
 18 19  2  0
 19 20  1  0
  6 21  1  0
 16 21  1  0
 20 21  2  0
  9 22  1  0
 22 23  1  0
 23 24  1  0
  3 25  1  0
 24 25  2  0
 22 26  2  0
 25 26  1  0
M  END
