x2119-x2646
     RDKit          3D

 25 27  0  0  0  0  0  0  0  0999 V2000
    4.6890    1.3870   21.8040 C   0  0  0  0  0  0  0  0  0  0  0  0
    8.7840    0.8080   21.4400 O   0  0  0  0  0  0  0  0  0  0  0  0
   13.1980   -2.2740   21.2020 Cl  0  0  0  0  0  0  0  0  0  0  0  0
    6.8660   -0.4800   21.4180 N   0  0  0  0  0  0  0  0  0  0  0  0
    8.0990   -0.1250   21.8660 C   0  0  0  0  0  0  0  0  0  0  0  0
    8.6870   -0.8310   22.9370 C   0  0  0  0  0  0  0  0  0  0  0  0
    5.8560   -5.5640   20.0350 N   0  0  0  0  0  0  0  0  0  0  0  0
    6.3530   -4.3920   19.9960 C   0  0  0  0  0  0  0  0  0  0  0  0
    6.4310    0.5140   17.7260 N   0  0  0  0  0  0  0  0  0  0  0  0
    6.9450   -0.1250   18.8450 C   0  0  0  0  0  0  0  0  0  0  0  0
    6.4080    0.1180   20.2560 C   0  0  0  0  0  0  0  0  0  0  0  0
    5.2810    1.0740   20.4720 C   0  0  0  0  0  0  0  0  0  0  0  0
    4.7640    1.7260   19.2070 C   0  0  0  0  0  0  0  0  0  0  0  0
    5.4030    1.3850   17.8690 C   0  0  0  0  0  0  0  0  0  0  0  0
   10.6630    0.3530   23.7990 C   0  0  0  0  0  0  0  0  0  0  0  0
   12.0460    0.5540   23.8310 C   0  0  0  0  0  0  0  0  0  0  0  0
   12.9000   -0.1970   23.0770 C   0  0  0  0  0  0  0  0  0  0  0  0
   12.2810   -1.2650   22.1980 C   0  0  0  0  0  0  0  0  0  0  0  0
   10.9160   -1.4330   22.1920 C   0  0  0  0  0  0  0  0  0  0  0  0
   10.1240   -0.6420   22.9700 C   0  0  0  0  0  0  0  0  0  0  0  0
    5.9780   -3.4610   21.0050 C   0  0  0  0  0  0  0  0  0  0  0  0
    5.1440   -3.6340   22.0170 N   0  0  0  0  0  0  0  0  0  0  0  0
    5.1810   -2.4330   22.6210 C   0  0  0  0  0  0  0  0  0  0  0  0
    5.9710   -1.3190   22.1670 C   0  0  0  0  0  0  0  0  0  0  0  0
    6.4500   -2.0870   21.1290 N   0  0  0  0  0  0  0  0  0  0  0  0
  2  5  2  0
  4  5  1  0
  5  6  1  0
  7  8  2  3
  9 10  2  0
  4 11  1  0
 10 11  1  0
  1 12  1  0
 11 12  2  0
 12 13  1  0
  9 14  1  0
 13 14  2  0
 15 16  2  0
 16 17  1  0
  3 18  1  0
 17 18  2  0
 18 19  1  0
  6 20  1  0
 15 20  1  0
 19 20  2  0
  8 21  1  0
 21 22  1  0
 22 23  1  0
  4 24  1  0
 23 24  2  0
 21 25  2  0
 24 25  1  0
M  END
