x2119-x3298
     RDKit          3D

 35 38  0  0  0  0  0  0  0  0999 V2000
    6.9370    2.3300   22.5880 N   0  0  0  0  0  0  0  0  0  0  0  0
    6.9320    0.0590   21.8480 C   0  0  2  0  0  0  0  0  0  0  0  0
    6.1050   -0.4460   22.6720 O   0  0  0  0  0  0  0  0  0  0  0  0
    7.6050    1.3740   21.8690 C   0  0  0  0  0  0  0  0  0  0  0  0
    8.9790    1.3880   23.7210 N   0  0  0  0  0  0  0  0  0  0  0  0
    8.6560    1.6660   21.2600 O   0  0  0  0  0  0  0  0  0  0  0  0
   11.0280    1.9250   24.6780 O   0  0  0  0  0  0  0  0  0  0  0  0
    9.7770   -0.0500   25.7070 O   0  0  0  0  0  0  0  0  0  0  0  0
   13.6470   -1.9300   20.8720 F   0  0  0  0  0  0  0  0  0  0  0  0
   10.2340    0.7640   24.5900 S   0  0  0  0  0  0  0  0  0  0  0  0
    5.8220   -5.3270   20.0530 N   0  0  0  0  0  0  0  0  0  0  0  0
    6.8180   -4.5660   20.3290 C   0  0  0  0  0  0  0  0  0  0  0  0
    6.3210    0.2520   17.8670 N   0  0  0  0  0  0  0  0  0  0  0  0
    6.8460   -0.0120   19.0690 C   0  0  0  0  0  0  0  0  0  0  0  0
    6.2600    0.3360   20.4520 C   0  0  0  0  0  0  0  0  0  0  0  0
    4.9120    1.0530   20.3850 C   0  0  0  0  0  0  0  0  0  0  0  0
    4.3350    1.3410   19.0430 C   0  0  0  0  0  0  0  0  0  0  0  0
    5.1440    0.8930   17.8520 C   0  0  0  0  0  0  0  0  0  0  0  0
    7.8020    4.6890   22.6380 C   0  0  0  0  0  0  0  0  0  0  0  0
    8.9970    5.5520   23.0420 C   0  0  0  0  0  0  0  0  0  0  0  0
   10.1150    4.9450   23.6310 C   0  0  0  0  0  0  0  0  0  0  0  0
   10.1620    3.5800   23.8640 C   0  0  0  0  0  0  0  0  0  0  0  0
    8.9620    2.7320   23.4780 C   0  0  0  0  0  0  0  0  0  0  0  0
    7.8930    3.3330   22.8930 C   0  0  0  0  0  0  0  0  0  0  0  0
   12.4190    0.4270   23.2510 C   0  0  0  0  0  0  0  0  0  0  0  0
   13.2570   -0.1680   22.3810 C   0  0  0  0  0  0  0  0  0  0  0  0
   12.8500   -1.3500   21.7420 C   0  0  0  0  0  0  0  0  0  0  0  0
   11.6080   -1.9360   21.9860 C   0  0  0  0  0  0  0  0  0  0  0  0
   10.7740   -1.3070   22.8800 C   0  0  0  0  0  0  0  0  0  0  0  0
   11.1950   -0.1330   23.4880 C   0  0  0  0  0  0  0  0  0  0  0  0
    6.5940   -3.3590   21.0790 C   0  0  0  0  0  0  0  0  0  0  0  0
    5.4880   -2.7870   21.5190 N   0  0  0  0  0  0  0  0  0  0  0  0
    5.6060   -1.5580   22.1520 C   0  0  0  0  0  0  0  0  0  0  0  0
    7.0300   -1.5910   22.0240 C   0  0  0  0  0  0  0  0  0  0  0  0
    7.6360   -2.6170   21.4130 N   0  0  0  0  0  0  0  0  0  0  0  0
  2  3  1  1
  1  4  1  0
  2  4  1  0
  4  6  2  0
 10  5  1  0
  7 10  2  0
  8 10  2  0
 11 12  2  3
 13 14  2  0
  2 15  1  0
 14 15  1  0
 15 16  2  0
 16 17  1  0
 13 18  1  0
 17 18  2  0
 19 20  2  0
 20 21  1  0
 21 22  2  0
  5 23  1  0
 22 23  1  0
  1 24  1  0
 19 24  1  0
 23 24  2  0
 25 26  2  0
  9 27  1  0
 26 27  1  0
 27 28  2  0
 28 29  1  0
 10 30  1  0
 25 30  1  0
 29 30  2  0
 12 31  1  0
 31 32  2  0
  3 33  1  0
 32 33  1  0
 33 34  2  0
 31 35  1  0
 34 35  1  0
M  END
