x2119-x0072
     RDKit          3D

 21 22  0  0  0  0  0  0  0  0999 V2000
    6.7940   -5.3160   26.6150 C   0  0  0  0  0  0  0  0  0  0  0  0
    8.4000   -4.6870   26.1970 S   0  0  0  0  0  0  0  0  0  0  0  0
    9.2740   -5.8260   26.1230 O   0  0  0  0  0  0  0  0  0  0  0  0
    8.7120   -3.7140   27.2060 O   0  0  0  0  0  0  0  0  0  0  0  0
    7.9940   -3.7620   24.7950 N   0  0  0  0  0  0  0  0  0  0  0  0
    9.0240   -3.2440   24.0450 C   0  0  0  0  0  0  0  0  0  0  0  0
    9.0760   -1.8490   23.8530 C   0  0  2  0  0  0  0  0  0  0  0  0
    5.8700   -5.4890   20.0160 N   0  0  0  0  0  0  0  0  0  0  0  0
    6.4110   -4.3340   19.9910 C   0  0  0  0  0  0  0  0  0  0  0  0
    8.1130   -1.3040   22.7720 C   0  0  0  0  0  0  0  0  0  0  0  0
   10.4850   -1.2580   23.5300 C   0  0  0  0  0  0  0  0  0  0  0  0
   11.4260   -1.9480   22.5630 C   0  0  0  0  0  0  0  0  0  0  0  0
   12.7870   -1.3970   22.2300 C   0  0  0  0  0  0  0  0  0  0  0  0
   13.1720   -0.1100   22.9070 C   0  0  0  0  0  0  0  0  0  0  0  0
   12.2260    0.5820   23.8800 C   0  0  0  0  0  0  0  0  0  0  0  0
   10.9600    0.0420   24.1790 C   0  0  0  0  0  0  0  0  0  0  0  0
    6.1890   -3.4700   21.0880 C   0  0  0  0  0  0  0  0  0  0  0  0
    4.9830   -3.3120   21.8060 N   0  0  0  0  0  0  0  0  0  0  0  0
    5.3940   -2.3380   22.7580 C   0  0  0  0  0  0  0  0  0  0  0  0
    6.6860   -1.7600   22.8650 C   0  0  0  0  0  0  0  0  0  0  0  0
    7.1300   -2.6240   21.6540 N   0  0  0  0  0  0  0  0  0  0  0  0
  1  2  1  0
  2  3  2  0
  2  4  2  0
  2  5  1  0
  5  6  1  0
  7  6  1  6
  8  9  2  3
  7 10  1  0
  7 11  1  0
 11 12  2  0
 12 13  1  0
 13 14  2  0
 14 15  1  0
 11 16  1  0
 15 16  2  0
  9 17  1  0
 17 18  2  0
 18 19  1  0
 10 20  1  0
 19 20  2  0
 17 21  1  0
 20 21  1  0
M  END
