x2119-x2563
     RDKit          3D

 27 30  0  0  0  0  0  0  0  0999 V2000
    8.2820   -0.2790   21.2120 C   0  0  0  0  0  0  0  0  0  0  0  0
    8.4880    0.9450   21.2270 O   0  0  0  0  0  0  0  0  0  0  0  0
    7.3160   -1.0530   20.4390 C   0  0  2  0  0  0  0  0  0  0  0  0
    9.0320   -1.1020   22.0050 N   0  0  0  0  0  0  0  0  0  0  0  0
    5.7870   -5.2830   20.0160 N   0  0  0  0  0  0  0  0  0  0  0  0
    6.4540   -4.1800   20.0060 C   0  0  0  0  0  0  0  0  0  0  0  0
    6.2800    0.6960   17.5610 N   0  0  0  0  0  0  0  0  0  0  0  0
    5.1320    1.5320   17.8940 C   0  0  0  0  0  0  0  0  0  0  0  0
    4.5470    1.5670   19.3150 C   0  0  0  0  0  0  0  0  0  0  0  0
    5.2710    0.6720   20.3000 C   0  0  0  0  0  0  0  0  0  0  0  0
    6.4150   -0.1020   19.7640 C   0  0  0  0  0  0  0  0  0  0  0  0
    6.8220    0.0090   18.3450 C   0  0  0  0  0  0  0  0  0  0  0  0
    3.4660    2.3270   19.7170 C   0  0  0  0  0  0  0  0  0  0  0  0
    3.0350    2.2390   21.1720 C   0  0  0  0  0  0  0  0  0  0  0  0
    3.7330    1.4010   22.0600 C   0  0  0  0  0  0  0  0  0  0  0  0
    4.8090    0.6470   21.6290 C   0  0  0  0  0  0  0  0  0  0  0  0
   11.3950   -0.7400   22.4620 C   0  0  0  0  0  0  0  0  0  0  0  0
   12.3470   -0.0660   23.1890 C   0  0  0  0  0  0  0  0  0  0  0  0
   11.9260    0.8160   24.1300 C   0  0  0  0  0  0  0  0  0  0  0  0
   10.5720    1.0330   24.3680 C   0  0  0  0  0  0  0  0  0  0  0  0
    9.6170    0.3750   23.6600 C   0  0  0  0  0  0  0  0  0  0  0  0
   10.0570   -0.5010   22.7070 C   0  0  0  0  0  0  0  0  0  0  0  0
    6.2270   -3.2960   21.1340 C   0  0  0  0  0  0  0  0  0  0  0  0
    5.5620   -3.7410   22.1950 N   0  0  0  0  0  0  0  0  0  0  0  0
    5.5000   -2.7370   23.0820 C   0  0  0  0  0  0  0  0  0  0  0  0
    6.1380   -1.6260   22.5680 C   0  0  0  0  0  0  0  0  0  0  0  0
    6.5900   -1.9740   21.3380 N   0  0  0  0  0  0  0  0  0  0  0  0
  1  2  2  0
  3  1  1  1
  1  4  1  0
  5  6  2  3
  7  8  2  0
  8  9  1  0
  9 10  2  0
  3 11  1  0
 10 11  1  0
  7 12  1  0
 11 12  2  0
  9 13  1  0
 13 14  2  0
 14 15  1  0
 10 16  1  0
 15 16  2  0
 17 18  2  0
 18 19  1  0
 19 20  2  0
 20 21  1  0
  4 22  1  0
 17 22  1  0
 21 22  2  0
  6 23  1  0
 23 24  2  0
 24 25  1  0
 25 26  2  0
  3 27  1  0
 23 27  1  0
 26 27  1  0
M  END
