x2119-x0770
     RDKit          3D

 17 18  0  0  0  0  0  0  0  0999 V2000
    5.9010   -5.4890   20.0340 N   0  0  0  0  0  0  0  0  0  0  0  0
    6.4560   -4.3430   20.1090 C   0  0  0  0  0  0  0  0  0  0  0  0
    6.1460   -3.4870   21.2290 C   0  0  0  0  0  0  0  0  0  0  0  0
    4.9240   -3.3460   21.7250 N   0  0  0  0  0  0  0  0  0  0  0  0
    5.0390   -2.4180   22.8000 C   0  0  0  0  0  0  0  0  0  0  0  0
    6.5250   -1.9390   23.0010 C   0  0  0  0  0  0  0  0  0  0  0  0
    6.9730   -2.7340   21.9260 N   0  0  0  0  0  0  0  0  0  0  0  0
   13.3740   -1.7750   21.1300 Cl  0  0  0  0  0  0  0  0  0  0  0  0
    9.5960   -2.5960   24.5330 C   0  0  0  0  0  0  0  0  0  0  0  0
   10.7710   -0.2170   24.6690 C   0  0  0  0  0  0  0  0  0  0  0  0
   11.8330    0.6990   24.0960 C   0  0  0  0  0  0  0  0  0  0  0  0
   12.6920    0.2170   22.9640 C   0  0  0  0  0  0  0  0  0  0  0  0
   12.4720   -1.1660   22.4130 C   0  0  0  0  0  0  0  0  0  0  0  0
   11.4100   -2.0400   23.0100 C   0  0  0  0  0  0  0  0  0  0  0  0
   10.6220   -1.5960   24.0580 C   0  0  0  0  0  0  0  0  0  0  0  0
    7.9030   -1.6870   22.9580 C   0  0  0  0  0  0  0  0  0  0  0  0
    8.6740   -2.9390   23.3700 C   0  0  0  0  0  0  0  0  0  0  0  0
  1  2  2  3
  2  3  1  0
  3  4  1  0
  4  5  1  0
  5  6  2  0
  3  7  2  0
  6  7  1  0
 10 11  2  0
 11 12  1  0
  8 13  1  0
 12 13  2  0
 13 14  1  0
  9 15  1  0
 10 15  1  0
 14 15  2  0
  6 16  1  0
  9 17  1  0
 16 17  1  0
M  END
