x2119-x1458
     RDKit          3D

 15 15  0  0  0  0  0  0  0  0999 V2000
    7.0020   -3.5920   26.3650 N   0  0  0  0  0  0  0  0  0  0  0  0
    8.9990   -4.7180   27.1340 C   0  0  0  0  0  0  0  0  0  0  0  0
    4.9530   -3.9400   25.4340 O   0  0  0  0  0  0  0  0  0  0  0  0
    7.5370   -4.4120   27.3550 C   0  0  0  0  0  0  0  0  0  0  0  0
    6.9480   -5.6630   27.6540 C   0  0  0  0  0  0  0  0  0  0  0  0
    6.6690   -2.1920   26.7650 C   0  0  0  0  0  0  0  0  0  0  0  0
    6.1850   -3.9990   25.3150 C   0  0  0  0  0  0  0  0  0  0  0  0
    6.0290   -4.2780   19.9340 N   0  0  0  0  0  0  0  0  0  0  0  0
    6.7720   -3.4910   19.2270 C   0  0  0  0  0  0  0  0  0  0  0  0
    6.5430   -4.5060   21.2480 N   0  0  0  0  0  0  0  0  0  0  0  0
    7.4720   -3.4970   21.8800 C   0  0  0  0  0  0  0  0  0  0  0  0
    7.2560   -3.2440   23.3520 C   0  0  0  0  0  0  0  0  0  0  0  0
    6.6920   -4.4460   24.0780 C   0  0  0  0  0  0  0  0  0  0  0  0
    5.8500   -5.3940   23.2070 C   0  0  0  0  0  0  0  0  0  0  0  0
    6.3430   -5.6770   21.9050 C   0  0  0  0  0  0  0  0  0  0  0  0
  1  4  1  0
  2  4  1  0
  4  5  1  0
  1  6  1  0
  1  7  1  0
  3  7  2  0
  8  9  2  3
  8 10  1  0
 10 11  1  0
 11 12  1  0
  7 13  1  0
 12 13  1  0
 13 14  1  0
 10 15  1  0
 14 15  1  0
M  END
