x2119-x2540
     RDKit          3D

 31 33  0  0  0  0  0  0  0  0999 V2000
    7.3830   -0.9080   21.9830 N   0  0  0  0  0  0  0  0  0  0  0  0
    8.0710    1.9600   23.1640 N   0  0  0  0  0  0  0  0  0  0  0  0
    8.8790    1.8820   21.0470 O   0  0  0  0  0  0  0  0  0  0  0  0
    7.0190    0.4420   21.6780 C   0  0  1  0  0  0  0  0  0  0  0  0
    8.0860    1.4660   21.8880 C   0  0  0  0  0  0  0  0  0  0  0  0
    9.0200    3.0360   23.3640 C   0  0  0  0  0  0  0  0  0  0  0  0
    8.8940    3.2150   24.8750 C   0  0  0  0  0  0  0  0  0  0  0  0
    8.5730    4.3080   22.6130 C   0  0  0  0  0  0  0  0  0  0  0  0
   10.4920    2.6740   22.9530 C   0  0  0  0  0  0  0  0  0  0  0  0
   12.1670   -1.3260   23.6090 C   0  0  0  0  0  0  0  0  0  0  0  0
   12.8810   -1.2830   22.2670 C   0  0  0  0  0  0  0  0  0  0  0  0
   12.4510   -0.0530   24.3610 C   0  0  0  0  0  0  0  0  0  0  0  0
   12.7930   -2.4760   24.4310 C   0  0  0  0  0  0  0  0  0  0  0  0
    5.8790   -5.5190   19.9940 N   0  0  0  0  0  0  0  0  0  0  0  0
    6.4340   -4.3600   20.0350 C   0  0  0  0  0  0  0  0  0  0  0  0
    6.3510    0.2830   17.9330 N   0  0  0  0  0  0  0  0  0  0  0  0
    5.2320    1.1970   17.7910 C   0  0  0  0  0  0  0  0  0  0  0  0
    4.7180    1.8580   19.0410 C   0  0  0  0  0  0  0  0  0  0  0  0
    5.3120    1.5900   20.2670 C   0  0  0  0  0  0  0  0  0  0  0  0
    6.3770    0.7120   20.3320 C   0  0  0  0  0  0  0  0  0  0  0  0
    6.8600    0.0870   19.1810 C   0  0  0  0  0  0  0  0  0  0  0  0
    9.8480   -1.9970   24.3530 O   0  0  0  0  0  0  0  0  0  0  0  0
    8.5120   -1.8940   23.9250 N   0  0  0  0  0  0  0  0  0  0  0  0
    8.5910   -1.2280   22.7530 C   0  0  0  0  0  0  0  0  0  0  0  0
    9.8840   -0.9190   22.4290 C   0  0  0  0  0  0  0  0  0  0  0  0
   10.6780   -1.4000   23.4410 C   0  0  0  0  0  0  0  0  0  0  0  0
    6.1090   -3.4210   21.0520 C   0  0  0  0  0  0  0  0  0  0  0  0
    5.0740   -3.4920   21.8480 N   0  0  0  0  0  0  0  0  0  0  0  0
    5.1250   -2.4170   22.6620 C   0  0  0  0  0  0  0  0  0  0  0  0
    6.2740   -1.5650   22.3830 C   0  0  0  0  0  0  0  0  0  0  0  0
    6.7610   -2.3600   21.3570 N   0  0  0  0  0  0  0  0  0  0  0  0
  1  4  1  0
  2  5  1  0
  3  5  2  0
  4  5  1  6
  6  2  1  0
  6  7  1  0
  6  8  1  0
  6  9  1  0
 10 11  1  0
 10 12  1  0
 10 13  1  0
 14 15  2  3
 16 17  2  0
 17 18  1  0
 18 19  2  0
  4 20  1  0
 19 20  1  0
 16 21  1  0
 20 21  2  0
 22 23  1  0
  1 24  1  0
 23 24  2  0
 24 25  1  0
 10 26  1  0
 22 26  1  0
 25 26  2  0
 15 27  1  0
 27 28  1  0
 28 29  1  0
  1 30  1  0
 29 30  2  0
 27 31  2  0
 30 31  1  0
M  END
