x2119-x1385
     RDKit          3D

 16 17  0  0  0  0  0  0  0  0999 V2000
    5.9700   -5.4450   20.0380 N   0  0  0  0  0  0  0  0  0  0  0  0
    6.6150   -4.3470   20.1040 C   0  0  0  0  0  0  0  0  0  0  0  0
    6.2880   -3.4760   21.1990 C   0  0  0  0  0  0  0  0  0  0  0  0
    5.0560   -3.3390   21.6560 N   0  0  0  0  0  0  0  0  0  0  0  0
    5.1590   -2.3940   22.7240 C   0  0  0  0  0  0  0  0  0  0  0  0
    6.6470   -1.8980   22.9600 C   0  0  0  0  0  0  0  0  0  0  0  0
    7.0960   -2.7120   21.8990 N   0  0  0  0  0  0  0  0  0  0  0  0
    9.7480   -3.0260   24.1830 C   0  0  0  0  0  0  0  0  0  0  0  0
    7.0160   -5.7820   28.4460 Br  0  0  0  0  0  0  0  0  0  0  0  0
    9.9240   -5.3820   25.4690 C   0  0  0  0  0  0  0  0  0  0  0  0
    9.3160   -4.0320   25.2080 C   0  0  0  0  0  0  0  0  0  0  0  0
    7.9900   -3.7250   26.2680 S   0  0  0  0  0  0  0  0  0  0  0  0
    8.1580   -5.2260   27.0300 C   0  0  0  0  0  0  0  0  0  0  0  0
    9.2770   -6.0730   26.4990 C   0  0  0  0  0  0  0  0  0  0  0  0
    8.1700   -1.7260   22.8160 C   0  0  0  0  0  0  0  0  0  0  0  0
    8.7860   -1.8470   24.0690 C   0  0  0  0  0  0  0  0  0  0  0  0
  1  2  2  3
  2  3  1  0
  3  4  1  0
  4  5  1  0
  5  6  2  0
  3  7  2  0
  6  7  1  0
  8 11  1  0
 10 11  2  0
 11 12  1  0
  9 13  1  0
 12 13  1  0
 10 14  1  0
 13 14  2  0
  6 15  1  0
  8 16  1  0
 15 16  1  0
M  END
