x2193-x0692
     RDKit          3D

 26 28  0  0  0  0  0  0  0  0999 V2000
   10.6960    2.1080   23.6500 C   0  0  0  0  0  0  0  0  0  0  0  0
    5.4390   -4.1020   19.7270 O   0  0  0  0  0  0  0  0  0  0  0  0
    9.5040   -2.9020   23.6280 C   0  0  2  0  0  0  0  0  0  0  0  0
    6.3140   -3.2250   19.8550 C   0  0  0  0  0  0  0  0  0  0  0  0
    7.3240   -3.0120   18.7460 C   0  0  0  0  0  0  0  0  0  0  0  0
    9.3800    2.3250   21.2480 O   0  0  0  0  0  0  0  0  0  0  0  0
    8.0560    2.9510   23.4710 O   0  0  0  0  0  0  0  0  0  0  0  0
    9.1570    2.0450   22.7860 S   0  0  0  0  0  0  0  0  0  0  0  0
   11.1740    0.6730   23.5590 C   0  0  0  0  0  0  0  0  0  0  0  0
   10.1550   -0.4660   23.6510 C   0  0  0  0  0  0  0  0  0  0  0  0
   10.5710   -1.7950   23.5510 C   0  0  0  0  0  0  0  0  0  0  0  0
   11.9300   -2.1210   23.3660 C   0  0  0  0  0  0  0  0  0  0  0  0
   12.9120   -1.1380   23.2740 C   0  0  0  0  0  0  0  0  0  0  0  0
   12.5090    0.3320   23.3770 C   0  0  0  0  0  0  0  0  0  0  0  0
    6.4390   -2.4320   21.0120 N   0  0  0  0  0  0  0  0  0  0  0  0
    7.3690   -1.3090   21.2630 C   0  0  0  0  0  0  0  0  0  0  0  0
    8.5630   -1.7920   21.8190 C   0  0  0  0  0  0  0  0  0  0  0  0
    8.2930   -2.5430   23.0840 N   0  0  0  0  0  0  0  0  0  0  0  0
    7.2180   -3.5380   22.8670 C   0  0  0  0  0  0  0  0  0  0  0  0
    6.1130   -3.0090   22.2440 C   0  0  0  0  0  0  0  0  0  0  0  0
    8.4060   -5.8420   26.6380 N   0  0  0  0  0  0  0  0  0  0  0  0
    7.5150   -4.8920   25.9880 C   0  0  0  0  0  0  0  0  0  0  0  0
    8.0640   -3.6340   25.6200 C   0  0  0  0  0  0  0  0  0  0  0  0
    9.3600   -3.6580   24.8940 N   0  0  0  0  0  0  0  0  0  0  0  0
    9.7230   -4.9410   24.7970 C   0  0  0  0  0  0  0  0  0  0  0  0
    9.5800   -5.8610   26.0150 C   0  0  0  0  0  0  0  0  0  0  0  0
  2  4  2  0
  4  5  1  0
  1  8  1  0
  6  8  2  0
  7  8  2  0
  1  9  1  0
  9 10  2  0
  3 11  1  1
 10 11  1  0
 11 12  2  0
 12 13  1  0
  9 14  1  0
 13 14  2  0
  4 15  1  0
 15 16  1  0
 16 17  1  0
  3 18  1  0
 17 18  1  0
 18 19  1  0
 15 20  1  0
 19 20  1  0
 21 22  1  0
 22 23  1  0
  3 24  1  0
 23 24  1  0
 24 25  1  0
 21 26  1  0
 25 26  1  0
M  END
