x2193-x0755
     RDKit          3D

 37 40  0  0  0  0  0  0  0  0999 V2000
    4.7130   -6.0330   25.9050 O   0  0  0  0  0  0  0  0  0  0  0  0
    6.4640   -4.3910   26.2310 C   0  0  0  0  0  0  0  0  0  0  0  0
    5.1660   -4.5880   19.8910 O   0  0  0  0  0  0  0  0  0  0  0  0
    6.2710   -4.5080   20.3940 C   0  0  0  0  0  0  0  0  0  0  0  0
    7.2580   -3.4630   19.8650 C   0  0  0  0  0  0  0  0  0  0  0  0
    1.9780   -5.5160   25.6380 F   0  0  0  0  0  0  0  0  0  0  0  0
    5.0940   -1.8990   26.0300 F   0  0  0  0  0  0  0  0  0  0  0  0
    4.9690   -4.7020   25.3960 S   0  0  2  0  0  0  0  0  0  0  0  0
   10.9490    2.4500   22.9880 C   0  0  0  0  0  0  0  0  0  0  0  0
    9.2580    1.6180   21.1140 O   0  0  0  0  0  0  0  0  0  0  0  0
    8.3640    2.4040   23.2760 O   0  0  0  0  0  0  0  0  0  0  0  0
    9.3990    1.6980   22.5470 S   0  0  0  0  0  0  0  0  0  0  0  0
    7.0500   -4.4690   24.8900 C   0  0  0  0  0  0  0  0  0  0  0  0
    2.2600   -4.2300   25.8810 C   0  0  0  0  0  0  0  0  0  0  0  0
    3.5590   -3.7320   25.8250 C   0  0  0  0  0  0  0  0  0  0  0  0
    3.8410   -2.3760   26.0830 C   0  0  0  0  0  0  0  0  0  0  0  0
    2.8030   -1.5110   26.3910 C   0  0  0  0  0  0  0  0  0  0  0  0
    1.4860   -1.9900   26.4460 C   0  0  0  0  0  0  0  0  0  0  0  0
    1.2230   -3.3490   26.1920 C   0  0  0  0  0  0  0  0  0  0  0  0
    6.6340   -5.3770   21.4200 N   0  0  0  0  0  0  0  0  0  0  0  0
    7.2850   -4.7620   22.5390 C   0  0  0  0  0  0  0  0  0  0  0  0
    6.2720   -3.9970   23.1300 C   0  0  0  0  0  0  0  0  0  0  0  0
    5.2490   -4.8790   23.7680 N   0  0  0  0  0  0  0  0  0  0  0  0
    4.7280   -5.9570   22.9360 C   0  0  0  0  0  0  0  0  0  0  0  0
    5.7450   -6.4270   21.8680 C   0  0  0  0  0  0  0  0  0  0  0  0
    9.5190    0.1150   23.1870 C   0  0  0  0  0  0  0  0  0  0  0  0
    8.8810   -0.1130   24.5520 C   0  0  0  0  0  0  0  0  0  0  0  0
    8.9280   -1.3450   25.1510 C   0  0  0  0  0  0  0  0  0  0  0  0
    9.5750   -2.4190   24.5230 C   0  0  0  0  0  0  0  0  0  0  0  0
   10.1770   -2.2640   23.2390 C   0  0  0  0  0  0  0  0  0  0  0  0
   10.1350   -1.0080   22.6040 C   0  0  0  0  0  0  0  0  0  0  0  0
    8.4560   -5.9980   26.6400 N   0  0  0  0  0  0  0  0  0  0  0  0
    7.9090   -4.7780   26.2350 C   0  0  2  0  0  0  0  0  0  0  0  0
    8.6530   -3.7380   26.5440 C   0  0  0  0  0  0  0  0  0  0  0  0
    9.5070   -3.6270   25.3960 N   0  0  0  0  0  0  0  0  0  0  0  0
   10.1870   -4.8920   25.1730 C   0  0  0  0  0  0  0  0  0  0  0  0
    9.5230   -6.0760   25.6130 C   0  0  0  0  0  0  0  0  0  0  0  0
  3  4  2  0
  4  5  1  0
  1  8  2  0
  2  8  2  0
 12  9  1  0
 10 12  2  0
 11 12  2  0
  2 13  1  0
  6 14  1  0
  8 15  1  6
 14 15  2  0
  7 16  1  0
 15 16  1  0
 16 17  2  0
 17 18  1  0
 14 19  1  0
 18 19  2  0
  4 20  1  0
 20 21  1  0
 21 22  1  0
  8 23  1  0
 22 23  1  0
 23 24  1  0
 20 25  1  0
 24 25  1  0
 12 26  1  0
 26 27  2  0
 27 28  1  0
 28 29  2  0
 29 30  1  0
 26 31  1  0
 30 31  2  0
 33  2  1  1
 32 33  1  0
 33 34  1  0
 29 35  1  0
 34 35  1  0
 35 36  1  0
 32 37  1  0
 36 37  1  0
M  END
