x2193-x1358
     RDKit          3D

 36 39  0  0  0  0  0  0  0  0999 V2000
    6.0710   -2.8390   25.7280 N   0  0  0  0  0  0  0  0  0  0  0  0
    5.1070   -0.2260   25.2780 O   0  0  0  0  0  0  0  0  0  0  0  0
    3.8120   -2.7710   25.2410 O   0  0  0  0  0  0  0  0  0  0  0  0
    5.1820   -4.0860   19.6420 O   0  0  0  0  0  0  0  0  0  0  0  0
    4.9790   -2.8860   24.9190 C   0  0  0  0  0  0  0  0  0  0  0  0
    6.3000   -3.7820   20.0290 C   0  0  0  0  0  0  0  0  0  0  0  0
    7.3210   -3.1480   19.0840 C   0  0  0  0  0  0  0  0  0  0  0  0
   10.9920    2.3840   23.1990 C   0  0  0  0  0  0  0  0  0  0  0  0
    9.3520    1.6680   21.2950 O   0  0  0  0  0  0  0  0  0  0  0  0
    8.4430    2.4950   23.4630 O   0  0  0  0  0  0  0  0  0  0  0  0
    9.4590    1.7640   22.7390 S   0  0  0  0  0  0  0  0  0  0  0  0
    7.2410   -3.5950   25.2570 C   0  0  0  0  0  0  0  0  0  0  0  0
    5.8280   -0.4450   26.4150 C   0  0  0  0  0  0  0  0  0  0  0  0
    6.3160   -1.7470   26.6430 C   0  0  0  0  0  0  0  0  0  0  0  0
    7.0730   -1.9790   27.8290 C   0  0  0  0  0  0  0  0  0  0  0  0
    7.3090   -0.9250   28.7340 C   0  0  0  0  0  0  0  0  0  0  0  0
    6.8080    0.3640   28.4890 C   0  0  0  0  0  0  0  0  0  0  0  0
    6.0700    0.5880   27.3230 C   0  0  0  0  0  0  0  0  0  0  0  0
    6.6720   -4.0410   21.3250 N   0  0  0  0  0  0  0  0  0  0  0  0
    7.4620   -3.1220   22.1170 C   0  0  0  0  0  0  0  0  0  0  0  0
    6.6030   -2.4100   22.9450 C   0  0  0  0  0  0  0  0  0  0  0  0
    5.3620   -3.1540   23.4950 C   0  0  0  0  0  0  0  0  0  0  0  0
    5.2560   -4.6700   23.1070 C   0  0  0  0  0  0  0  0  0  0  0  0
    6.2630   -5.2320   22.0210 C   0  0  0  0  0  0  0  0  0  0  0  0
    9.4730    0.0910   23.3610 C   0  0  0  0  0  0  0  0  0  0  0  0
    9.2180   -0.0680   24.7170 C   0  0  0  0  0  0  0  0  0  0  0  0
    9.1780   -1.3120   25.3740 C   0  0  0  0  0  0  0  0  0  0  0  0
    9.4140   -2.4670   24.5990 C   0  0  0  0  0  0  0  0  0  0  0  0
    9.6800   -2.2960   23.2240 C   0  0  0  0  0  0  0  0  0  0  0  0
    9.7150   -1.0500   22.5860 C   0  0  0  0  0  0  0  0  0  0  0  0
    7.8940   -5.9770   25.3970 N   0  0  0  0  0  0  0  0  0  0  0  0
    7.6470   -4.7240   26.0950 C   0  0  1  0  0  0  0  0  0  0  0  0
    8.7680   -4.2460   26.4580 C   0  0  0  0  0  0  0  0  0  0  0  0
    9.4010   -3.7840   25.1600 N   0  0  0  0  0  0  0  0  0  0  0  0
    9.6940   -4.8540   24.2820 C   0  0  0  0  0  0  0  0  0  0  0  0
    9.2930   -6.0270   24.8890 C   0  0  0  0  0  0  0  0  0  0  0  0
  1  5  1  0
  3  5  2  0
  4  6  2  0
  6  7  1  0
 11  8  1  0
  9 11  2  0
 10 11  2  0
  1 12  1  0
  2 13  1  0
  1 14  1  0
 13 14  2  0
 14 15  1  0
 15 16  2  0
 16 17  1  0
 13 18  1  0
 17 18  2  0
  6 19  1  0
 19 20  1  0
 20 21  1  0
  5 22  1  0
 21 22  1  0
 22 23  1  0
 19 24  1  0
 23 24  1  0
 11 25  1  0
 25 26  2  0
 26 27  1  0
 27 28  2  0
 28 29  1  0
 25 30  1  0
 29 30  2  0
 32 12  1  6
 31 32  1  0
 32 33  1  0
 28 34  1  0
 33 34  1  0
 34 35  1  0
 31 36  1  0
 35 36  1  0
M  END
