x2193-x0691
     RDKit          3D

 36 39  0  0  0  0  0  0  0  0999 V2000
    3.3380   -7.1150   25.1890 O   0  0  0  0  0  0  0  0  0  0  0  0
    5.1200   -5.8390   26.2250 N   0  0  0  0  0  0  0  0  0  0  0  0
    5.0920   -4.3530   19.7710 O   0  0  0  0  0  0  0  0  0  0  0  0
    6.1470   -4.2550   20.3630 C   0  0  0  0  0  0  0  0  0  0  0  0
    7.2560   -3.3940   19.7460 C   0  0  0  0  0  0  0  0  0  0  0  0
    3.2970   -0.6970   26.0630 F   0  0  0  0  0  0  0  0  0  0  0  0
    4.0060   -5.8380   25.2520 S   0  0  2  0  0  0  0  0  0  0  0  0
   11.1540    2.6290   22.8340 C   0  0  0  0  0  0  0  0  0  0  0  0
    9.2420    2.0640   21.0990 O   0  0  0  0  0  0  0  0  0  0  0  0
    8.5950    2.6120   23.4240 O   0  0  0  0  0  0  0  0  0  0  0  0
    9.5250    1.9960   22.5060 S   0  0  0  0  0  0  0  0  0  0  0  0
    5.7850   -4.7470   25.9050 C   0  0  0  0  0  0  0  0  0  0  0  0
    2.7140   -1.8950   25.9150 C   0  0  0  0  0  0  0  0  0  0  0  0
    3.5110   -3.1760   25.6850 C   0  0  0  0  0  0  0  0  0  0  0  0
    2.9270   -4.4420   25.5250 C   0  0  0  0  0  0  0  0  0  0  0  0
    1.5330   -4.5730   25.5760 C   0  0  0  0  0  0  0  0  0  0  0  0
    0.7170   -3.4570   25.7840 C   0  0  0  0  0  0  0  0  0  0  0  0
    1.3270   -2.0460   25.9640 C   0  0  0  0  0  0  0  0  0  0  0  0
    6.2860   -4.8870   21.5610 N   0  0  0  0  0  0  0  0  0  0  0  0
    5.6190   -6.2150   21.7030 C   0  0  0  0  0  0  0  0  0  0  0  0
    4.5140   -6.1860   22.5810 C   0  0  0  0  0  0  0  0  0  0  0  0
    4.8600   -5.5320   23.8130 N   0  0  0  0  0  0  0  0  0  0  0  0
    5.1720   -4.1420   23.4400 C   0  0  0  0  0  0  0  0  0  0  0  0
    6.3680   -4.0590   22.7410 C   0  0  0  0  0  0  0  0  0  0  0  0
    9.5220    0.3250   22.8550 C   0  0  0  0  0  0  0  0  0  0  0  0
    8.4400   -0.0220   23.6030 C   0  0  0  0  0  0  0  0  0  0  0  0
    8.1670   -1.2210   24.0090 C   0  0  0  0  0  0  0  0  0  0  0  0
    9.0480   -2.4160   23.6760 C   0  0  0  0  0  0  0  0  0  0  0  0
   10.2970   -2.0160   22.8210 C   0  0  0  0  0  0  0  0  0  0  0  0
   10.4420   -0.6590   22.4720 C   0  0  0  0  0  0  0  0  0  0  0  0
    6.8550   -5.6740   23.7350 N   0  0  0  0  0  0  0  0  0  0  0  0
    6.7210   -4.8540   24.7640 C   0  0  1  0  0  0  0  0  0  0  0  0
    7.3180   -3.6060   24.5860 C   0  0  0  0  0  0  0  0  0  0  0  0
    8.6910   -3.6360   24.1140 N   0  0  0  0  0  0  0  0  0  0  0  0
    9.0970   -4.8050   23.3620 C   0  0  0  0  0  0  0  0  0  0  0  0
    8.2050   -5.8890   23.5630 C   0  0  0  0  0  0  0  0  0  0  0  0
  3  4  2  0
  4  5  1  0
  1  7  2  0
  2  7  2  0
 11  8  1  0
  9 11  2  0
 10 11  2  0
  2 12  1  0
  6 13  1  0
 13 14  2  0
  7 15  1  1
 14 15  1  0
 15 16  2  0
 16 17  1  0
 13 18  1  0
 17 18  2  0
  4 19  1  0
 19 20  1  0
 20 21  1  0
  7 22  1  0
 21 22  1  0
 22 23  1  0
 19 24  1  0
 23 24  1  0
 11 25  1  0
 25 26  2  0
 26 27  1  0
 27 28  2  0
 28 29  1  0
 25 30  1  0
 29 30  2  0
 32 12  1  6
 31 32  1  0
 32 33  1  0
 28 34  1  0
 33 34  1  0
 34 35  1  0
 31 36  1  0
 35 36  1  0
M  END
