x2193-x0540
     RDKit          3D

 36 39  0  0  0  0  0  0  0  0999 V2000
    2.9280    1.5390   24.3190 O   0  0  0  0  0  0  0  0  0  0  0  0
    3.0120    2.4450   23.2330 C   0  0  0  0  0  0  0  0  0  0  0  0
    4.1460    2.4110   22.2950 N   0  0  0  0  0  0  0  0  0  0  0  0
    5.1300    1.4790   22.5560 C   0  0  1  0  0  0  0  0  0  0  0  0
    4.6590    0.5020   21.8240 C   0  0  0  0  0  0  0  0  0  0  0  0
    1.9500    3.3390   23.1470 N   0  0  0  0  0  0  0  0  0  0  0  0
   11.0190    2.4260   23.2030 C   0  0  0  0  0  0  0  0  0  0  0  0
    9.4160    1.6900   21.2420 O   0  0  0  0  0  0  0  0  0  0  0  0
    8.3060    2.5440   23.1960 N   0  0  0  0  0  0  0  0  0  0  0  0
    9.5280    1.7630   22.6690 S   0  0  2  0  0  0  0  0  0  0  0  0
    5.9770    2.3480   23.0210 C   0  0  0  0  0  0  0  0  0  0  0  0
    7.2460    1.7410   23.5640 C   0  0  0  0  0  0  0  0  0  0  0  0
    6.3090   -0.4250   20.0410 C   0  0  0  0  0  0  0  0  0  0  0  0
    6.7250   -0.3780   18.7040 C   0  0  0  0  0  0  0  0  0  0  0  0
    6.1690    0.4130   17.7610 N   0  0  0  0  0  0  0  0  0  0  0  0
    5.1500    1.1990   18.1390 C   0  0  0  0  0  0  0  0  0  0  0  0
    4.6510    1.2330   19.4460 C   0  0  0  0  0  0  0  0  0  0  0  0
    5.2330    0.4120   20.4290 C   0  0  0  0  0  0  0  0  0  0  0  0
    0.6580    4.6410   24.5770 C   0  0  0  0  0  0  0  0  0  0  0  0
   -0.5760    4.9190   25.1780 C   0  0  0  0  0  0  0  0  0  0  0  0
   -1.8640    4.5840   24.4180 C   0  0  0  0  0  0  0  0  0  0  0  0
   -1.8550    3.2990   23.5590 C   0  0  0  0  0  0  0  0  0  0  0  0
   -0.4300    2.6660   23.3670 C   0  0  0  0  0  0  0  0  0  0  0  0
    0.7900    3.3360   24.0730 C   0  0  0  0  0  0  0  0  0  0  0  0
    9.3860    0.1470   23.4030 C   0  0  0  0  0  0  0  0  0  0  0  0
    9.1980    0.1180   24.7840 C   0  0  0  0  0  0  0  0  0  0  0  0
    9.0430   -1.1300   25.3690 C   0  0  0  0  0  0  0  0  0  0  0  0
    9.0670   -2.3130   24.6630 C   0  0  0  0  0  0  0  0  0  0  0  0
    9.2790   -2.2810   23.2660 C   0  0  0  0  0  0  0  0  0  0  0  0
    9.4390   -1.0350   22.6390 C   0  0  0  0  0  0  0  0  0  0  0  0
    8.0850   -5.8480   26.2850 N   0  0  0  0  0  0  0  0  0  0  0  0
    7.7460   -4.7770   27.0390 C   0  0  0  0  0  0  0  0  0  0  0  0
    7.9210   -3.5350   26.4020 C   0  0  0  0  0  0  0  0  0  0  0  0
    8.8710   -3.4840   25.4280 N   0  0  0  0  0  0  0  0  0  0  0  0
    9.3870   -4.6320   25.0560 C   0  0  0  0  0  0  0  0  0  0  0  0
    9.3030   -5.6740   25.9090 C   0  0  0  0  0  0  0  0  0  0  0  0
  1  2  2  0
  2  3  1  0
  3  4  1  0
  4  5  1  6
  2  6  1  0
 10  7  1  6
  8 10  2  0
  9 10  2  0
  4 11  1  0
  9 12  1  0
 11 12  1  0
 13 14  2  0
 14 15  1  0
 15 16  2  0
 16 17  1  0
  5 18  1  0
 13 18  1  0
 17 18  2  0
 19 20  1  0
 20 21  1  0
 21 22  1  0
 22 23  1  0
  6 24  1  0
 19 24  1  0
 23 24  1  0
 10 25  1  0
 25 26  2  0
 26 27  1  0
 27 28  2  0
 28 29  1  0
 25 30  1  0
 29 30  2  0
 31 32  1  0
 32 33  1  0
 28 34  1  0
 33 34  1  0
 34 35  1  0
 31 36  1  0
 35 36  1  0
M  END
