x2193-x0161
     RDKit          3D

 30 32  0  0  0  0  0  0  0  0999 V2000
   11.1750   -2.0990   21.8370 C   0  0  0  0  0  0  0  0  0  0  0  0
   10.7600   -0.9660   22.0560 O   0  0  0  0  0  0  0  0  0  0  0  0
   11.5790   -0.2220   22.5760 C   0  0  0  0  0  0  0  0  0  0  0  0
   12.7870   -0.4000   22.5520 O   0  0  0  0  0  0  0  0  0  0  0  0
    7.8970    5.1090   22.3530 S   0  0  0  0  0  0  0  0  0  0  0  0
    6.4930    5.0840   22.0060 O   0  0  0  0  0  0  0  0  0  0  0  0
    8.3800    6.0430   23.3450 O   0  0  0  0  0  0  0  0  0  0  0  0
    8.3170    3.5980   22.8590 N   0  0  0  0  0  0  0  0  0  0  0  0
   11.8580    1.5110   23.8410 O   0  0  0  0  0  0  0  0  0  0  0  0
    9.6610    1.5640   22.2530 N   0  0  0  0  0  0  0  0  0  0  0  0
   10.4150    1.4240   23.6150 S   0  0  2  0  0  0  0  0  0  0  0  0
    9.1330    2.8940   21.8690 C   0  0  0  0  0  0  0  0  0  0  0  0
   10.9880    0.8010   23.1740 C   0  0  0  0  0  0  0  0  0  0  0  0
   11.5840    2.2340   23.1130 C   0  0  0  0  0  0  0  0  0  0  0  0
   10.8170    3.3100   23.8540 C   0  0  0  0  0  0  0  0  0  0  0  0
    9.7040    2.7670   24.4520 C   0  0  0  0  0  0  0  0  0  0  0  0
    9.0320    1.5950   24.6070 C   0  0  0  0  0  0  0  0  0  0  0  0
    9.7370    0.5510   23.9120 C   0  0  0  0  0  0  0  0  0  0  0  0
    9.8530   -0.1240   24.3630 C   0  0  0  0  0  0  0  0  0  0  0  0
   10.7890   -1.1170   24.7770 C   0  0  0  0  0  0  0  0  0  0  0  0
   10.3650   -2.3270   25.3590 C   0  0  0  0  0  0  0  0  0  0  0  0
    9.0390   -2.6820   25.5970 C   0  0  0  0  0  0  0  0  0  0  0  0
    7.9570   -1.6950   25.1840 C   0  0  0  0  0  0  0  0  0  0  0  0
    8.4130   -0.3690   24.5420 C   0  0  0  0  0  0  0  0  0  0  0  0
    8.0250   -6.3090   26.6570 N   0  0  0  0  0  0  0  0  0  0  0  0
    7.7470   -5.5080   27.8960 C   0  0  0  0  0  0  0  0  0  0  0  0
    8.0370   -4.0400   27.5350 C   0  0  0  0  0  0  0  0  0  0  0  0
    8.8190   -4.0150   26.2650 N   0  0  0  0  0  0  0  0  0  0  0  0
    9.9420   -4.9610   26.2900 C   0  0  0  0  0  0  0  0  0  0  0  0
    9.3090   -6.1690   26.1710 C   0  0  0  0  0  0  0  0  0  0  0  0
  1  2  1  0
  2  3  1  0
  3  4  2  0
  5  6  2  0
  5  7  2  0
  5  8  1  0
  9 11  2  0
 10 11  2  0
  8 12  1  0
 10 12  1  0
  3 13  1  0
 13 14  2  0
 14 15  1  0
 11 16  1  1
 15 16  2  0
 16 17  1  0
 13 18  1  0
 17 18  2  0
 11 19  1  0
 19 20  2  0
 20 21  1  0
 21 22  2  0
 22 23  1  0
 19 24  1  0
 23 24  2  0
 25 26  1  0
 26 27  1  0
 22 28  1  0
 27 28  1  0
 28 29  1  0
 25 30  1  0
 29 30  1  0
M  END
