x2193-x1382
     RDKit          3D

 24 25  0  0  0  0  0  0  0  0999 V2000
   13.3570   -2.4840   22.4040 Cl  0  0  0  0  0  0  0  0  0  0  0  0
    7.5380   -0.7780   23.3610 C   0  0  0  0  0  0  0  0  0  0  0  0
    8.3030   -1.6420   22.4050 C   0  0  1  0  0  0  0  0  0  0  0  0
    7.6600   -1.6260   21.0870 N   0  0  0  0  0  0  0  0  0  0  0  0
    7.3910   -2.6870   20.1420 C   0  0  0  0  0  0  0  0  0  0  0  0
    6.5200   -2.8210   19.1690 O   0  0  0  0  0  0  0  0  0  0  0  0
    8.2920   -3.8250   20.3460 C   0  0  0  0  0  0  0  0  0  0  0  0
   10.1410    2.9830   23.6260 C   0  0  0  0  0  0  0  0  0  0  0  0
    9.0460    2.3240   21.3630 O   0  0  0  0  0  0  0  0  0  0  0  0
    8.0120    1.7450   23.6060 O   0  0  0  0  0  0  0  0  0  0  0  0
    9.1470    1.8600   22.7330 S   0  0  0  0  0  0  0  0  0  0  0  0
    9.6930   -1.0210   22.5030 C   0  0  0  0  0  0  0  0  0  0  0  0
   10.7650   -1.9220   22.4290 C   0  0  0  0  0  0  0  0  0  0  0  0
   12.0890   -1.4490   22.5180 C   0  0  0  0  0  0  0  0  0  0  0  0
   12.3970   -0.1430   22.6970 C   0  0  0  0  0  0  0  0  0  0  0  0
   11.4100    0.7740   22.7690 C   0  0  0  0  0  0  0  0  0  0  0  0
   10.0740    0.3600   22.6580 C   0  0  0  0  0  0  0  0  0  0  0  0
    7.8840   -5.7690   25.7270 N   0  0  0  0  0  0  0  0  0  0  0  0
    7.8390   -4.5100   26.4610 C   0  0  0  0  0  0  0  0  0  0  0  0
    7.7240   -3.3950   25.5750 C   0  0  0  0  0  0  0  0  0  0  0  0
    8.7110   -3.3350   24.4630 N   0  0  0  0  0  0  0  0  0  0  0  0
    9.6330   -4.4240   24.6850 C   0  0  0  0  0  0  0  0  0  0  0  0
    8.9680   -5.8190   24.7680 C   0  0  0  0  0  0  0  0  0  0  0  0
    8.1940   -3.0470   23.0250 C   0  0  0  0  0  0  0  0  0  0  0  0
  3  2  1  1
  3  4  1  0
  4  5  1  0
  5  6  2  0
  5  7  1  0
 11  8  1  0
  9 11  2  0
 10 11  2  0
  3 12  1  0
 12 13  2  0
  1 14  1  0
 13 14  1  0
 14 15  2  0
 15 16  1  0
 11 17  1  0
 12 17  1  0
 16 17  2  0
 18 19  1  0
 19 20  1  0
 20 21  1  0
 21 22  1  0
 18 23  1  0
 22 23  1  0
  3 24  1  0
 21 24  1  0
M  END
