x2193-x1402
     RDKit          3D

 35 38  0  0  0  0  0  0  0  0999 V2000
    7.3060   -3.5000   19.8850 C   0  0  0  0  0  0  0  0  0  0  0  0
    5.1570   -4.5460   19.8730 O   0  0  0  0  0  0  0  0  0  0  0  0
    0.1700   -1.8840   26.4820 Cl  0  0  0  0  0  0  0  0  0  0  0  0
    6.2810   -4.5440   20.3340 C   0  0  0  0  0  0  0  0  0  0  0  0
    5.9350   -4.2320   26.4670 O   0  0  0  0  0  0  0  0  0  0  0  0
    6.8570   -4.9730   25.5870 C   0  0  0  0  0  0  0  0  0  0  0  0
    5.2980   -4.3850   25.2020 S   0  0  1  0  0  0  0  0  0  0  0  0
   11.0260    2.4590   22.9950 C   0  0  0  0  0  0  0  0  0  0  0  0
    9.2730    1.6930   21.0930 O   0  0  0  0  0  0  0  0  0  0  0  0
    8.3960    2.6980   23.1650 O   0  0  0  0  0  0  0  0  0  0  0  0
    9.4070    1.8930   22.5110 S   0  0  0  0  0  0  0  0  0  0  0  0
    7.5550   -5.6920   24.5320 C   0  0  0  0  0  0  0  0  0  0  0  0
    6.6480   -5.5210   21.2590 N   0  0  0  0  0  0  0  0  0  0  0  0
    7.4420   -5.0940   22.3140 C   0  0  0  0  0  0  0  0  0  0  0  0
    6.7340   -4.2480   23.1250 C   0  0  0  0  0  0  0  0  0  0  0  0
    5.6550   -5.0070   23.7270 N   0  0  0  0  0  0  0  0  0  0  0  0
    4.8170   -5.6060   22.9290 C   0  0  0  0  0  0  0  0  0  0  0  0
    5.6130   -6.2420   21.9410 C   0  0  0  0  0  0  0  0  0  0  0  0
    2.2660   -3.8530   25.4740 S   0  0  0  0  0  0  0  0  0  0  0  0
    3.9160   -3.4450   25.7570 C   0  0  0  0  0  0  0  0  0  0  0  0
    4.0720   -2.2470   26.4480 C   0  0  0  0  0  0  0  0  0  0  0  0
    2.8640   -1.6850   26.7170 C   0  0  0  0  0  0  0  0  0  0  0  0
    1.7890   -2.4150   26.2600 C   0  0  0  0  0  0  0  0  0  0  0  0
    9.3100    0.2910   23.2360 C   0  0  0  0  0  0  0  0  0  0  0  0
    8.5320    0.1460   24.5420 C   0  0  0  0  0  0  0  0  0  0  0  0
    8.4220   -1.2220   25.1730 C   0  0  0  0  0  0  0  0  0  0  0  0
    9.0890   -2.3990   24.5160 C   0  0  0  0  0  0  0  0  0  0  0  0
    9.8140   -2.2800   23.3080 C   0  0  0  0  0  0  0  0  0  0  0  0
    9.9620   -1.0100   22.6280 C   0  0  0  0  0  0  0  0  0  0  0  0
    8.7610   -6.0050   26.5860 N   0  0  0  0  0  0  0  0  0  0  0  0
    7.8100   -4.9150   26.7400 C   0  0  1  0  0  0  0  0  0  0  0  0
    8.5480   -3.7860   26.4490 C   0  0  0  0  0  0  0  0  0  0  0  0
    8.9770   -3.7290   25.1560 N   0  0  0  0  0  0  0  0  0  0  0  0
    9.8240   -4.6700   24.8120 C   0  0  0  0  0  0  0  0  0  0  0  0
    9.7220   -5.9070   25.4240 C   0  0  0  0  0  0  0  0  0  0  0  0
  1  4  1  0
  2  4  2  0
  5  7  2  0
  6  7  2  0
 11  8  1  0
  9 11  2  0
 10 11  2  0
  6 12  1  0
  4 13  1  0
 13 14  1  0
 14 15  1  0
  7 16  1  0
 15 16  1  0
 16 17  1  0
 13 18  1  0
 17 18  1  0
  7 20  1  1
 19 20  1  0
 20 21  2  0
 21 22  1  0
  3 23  1  0
 19 23  1  0
 22 23  2  0
 11 24  1  0
 24 25  2  0
 25 26  1  0
 26 27  2  0
 27 28  1  0
 24 29  1  0
 28 29  2  0
 31  6  1  6
 30 31  1  0
 31 32  1  0
 27 33  1  0
 32 33  1  0
 33 34  1  0
 30 35  1  0
 34 35  1  0
M  END
