x2193-x3117
     RDKit          3D

 39 43  0  0  0  0  0  0  0  0999 V2000
    7.0300   -1.4320   21.7800 N   0  0  0  0  0  0  0  0  0  0  0  0
    6.7400   -4.6300   20.3480 C   0  0  0  0  0  0  0  0  0  0  0  0
    4.8020   -2.9600   21.2250 O   0  0  0  0  0  0  0  0  0  0  0  0
    6.8720   -3.9330   21.6780 C   0  0  0  0  0  0  0  0  0  0  0  0
    7.0180    1.9260   23.1080 N   0  0  0  0  0  0  0  0  0  0  0  0
    8.6460    0.4490   23.1150 O   0  0  0  0  0  0  0  0  0  0  0  0
    6.1060   -2.6620   21.5370 C   0  0  0  0  0  0  0  0  0  0  0  0
    6.8730    0.0290   21.6580 C   0  0  1  0  0  0  0  0  0  0  0  0
    7.8500    1.0520   22.4380 C   0  0  1  0  0  0  0  0  0  0  0  0
   12.1650   -1.9020   24.1580 C   0  0  0  0  0  0  0  0  0  0  0  0
   12.3790   -0.7660   24.9510 C   0  0  0  0  0  0  0  0  0  0  0  0
   13.3490   -2.1210   23.2210 C   0  0  0  0  0  0  0  0  0  0  0  0
   12.0820   -3.0040   25.0550 C   0  0  0  0  0  0  0  0  0  0  0  0
    8.9620    1.8340   21.9120 C   0  0  0  0  0  0  0  0  0  0  0  0
    6.3260    0.3210   17.7950 N   0  0  0  0  0  0  0  0  0  0  0  0
    5.2980    1.1910   17.8740 C   0  0  0  0  0  0  0  0  0  0  0  0
    4.7270    1.7180   19.0330 C   0  0  0  0  0  0  0  0  0  0  0  0
    5.1930    1.3800   20.2960 C   0  0  0  0  0  0  0  0  0  0  0  0
    6.3630    0.4020   20.3800 C   0  0  0  0  0  0  0  0  0  0  0  0
    6.9330   -0.1410   19.0560 C   0  0  0  0  0  0  0  0  0  0  0  0
    9.9770    3.8790   22.5350 O   0  0  0  0  0  0  0  0  0  0  0  0
    9.7390    2.4950   22.8770 C   0  0  1  0  0  0  0  0  0  0  0  0
    8.8800    2.5260   24.1150 C   0  0  0  0  0  0  0  0  0  0  0  0
    7.6540    2.9860   23.7300 C   0  0  1  0  0  0  0  0  0  0  0  0
    7.6700    4.1760   22.9620 C   0  0  0  0  0  0  0  0  0  0  0  0
    8.9490    4.7740   23.0080 C   0  0  0  0  0  0  0  0  0  0  0  0
    9.4330   -1.3970   21.6840 C   0  0  0  0  0  0  0  0  0  0  0  0
   10.7290   -1.4810   22.1360 C   0  0  0  0  0  0  0  0  0  0  0  0
   10.8200   -1.7850   23.4460 C   0  0  0  0  0  0  0  0  0  0  0  0
    9.6570   -1.9880   24.1390 C   0  0  0  0  0  0  0  0  0  0  0  0
    8.2730   -1.9580   23.8480 C   0  0  0  0  0  0  0  0  0  0  0  0
    8.3120   -1.6140   22.4790 C   0  0  0  0  0  0  0  0  0  0  0  0
    8.7620   -6.2670   26.5580 N   0  0  0  0  0  0  0  0  0  0  0  0
    7.9900   -5.3120   27.3080 C   0  0  0  0  0  0  0  0  0  0  0  0
    8.2960   -3.9810   26.8690 C   0  0  0  0  0  0  0  0  0  0  0  0
    8.3480   -3.7400   25.5710 N   0  0  0  0  0  0  0  0  0  0  0  0
    9.1650   -4.5700   24.9290 C   0  0  0  0  0  0  0  0  0  0  0  0
    8.9620   -5.9220   25.1350 C   0  0  0  0  0  0  0  0  0  0  0  0
    8.5190   -2.3120   25.2720 C   0  0  0  0  0  0  0  0  0  0  0  0
  2  4  1  0
  1  7  1  0
  3  7  2  0
  4  7  1  0
  8  1  1  6
  5  9  1  0
  9  6  1  1
  8  9  1  0
 10 11  1  0
 10 12  1  0
 10 13  1  0
  9 14  1  0
 15 16  2  0
 16 17  1  0
 17 18  2  0
  8 19  1  0
 18 19  1  0
 15 20  1  0
 19 20  2  0
 22 14  1  6
 21 22  1  0
 22 23  1  0
  5 24  1  0
 23 24  1  0
 24 25  1  6
 21 26  1  0
 25 26  1  0
 27 28  2  0
 10 29  1  0
 28 29  1  0
 29 30  2  0
 30 31  1  0
  1 32  1  0
 27 32  1  0
 31 32  2  0
 33 34  1  0
 34 35  1  0
 35 36  1  0
 36 37  1  0
 33 38  1  0
 37 38  1  0
 31 39  1  0
 36 39  1  0
M  END
