x2193-x1384
     RDKit          3D

 33 37  0  0  0  0  0  0  0  0999 V2000
    7.1380   -3.1980   21.4500 N   0  0  0  0  0  0  0  0  0  0  0  0
    7.6810   -3.1100   19.1140 C   0  0  0  0  0  0  0  0  0  0  0  0
    5.7170   -4.2350   19.8770 O   0  0  0  0  0  0  0  0  0  0  0  0
    6.7410   -3.5690   20.1750 C   0  0  0  0  0  0  0  0  0  0  0  0
   11.2920    2.3630   23.2630 C   0  0  0  0  0  0  0  0  0  0  0  0
    9.3460    2.0220   21.2520 O   0  0  0  0  0  0  0  0  0  0  0  0
    8.5840    2.6890   23.6690 O   0  0  0  0  0  0  0  0  0  0  0  0
    9.6470    1.8860   22.8050 S   0  0  0  0  0  0  0  0  0  0  0  0
    6.7720   -3.7840   22.6060 C   0  0  1  0  0  0  0  0  0  0  0  0
    7.8260   -4.5430   23.4060 C   0  0  0  0  0  0  0  0  0  0  0  0
    9.4670    0.1760   23.2120 C   0  0  0  0  0  0  0  0  0  0  0  0
    9.0610   -0.1920   24.4860 C   0  0  0  0  0  0  0  0  0  0  0  0
    8.8450   -1.4980   24.8970 C   0  0  0  0  0  0  0  0  0  0  0  0
    9.0220   -2.5820   24.0450 C   0  0  0  0  0  0  0  0  0  0  0  0
    9.5030   -2.3390   22.5970 C   0  0  0  0  0  0  0  0  0  0  0  0
    9.7080   -0.8410   22.2530 C   0  0  0  0  0  0  0  0  0  0  0  0
    9.2310   -6.1530   25.8450 N   0  0  0  0  0  0  0  0  0  0  0  0
    8.2110   -5.2380   26.3930 C   0  0  0  0  0  0  0  0  0  0  0  0
    8.1310   -3.9880   25.7500 C   0  0  0  0  0  0  0  0  0  0  0  0
    8.7500   -3.8780   24.4970 C   0  0  0  0  0  0  0  0  0  0  0  0
    9.8140   -4.6760   24.2420 C   0  0  0  0  0  0  0  0  0  0  0  0
    9.3990   -5.9750   24.4220 C   0  0  0  0  0  0  0  0  0  0  0  0
    5.7010   -2.4970   25.9460 O   0  0  0  0  0  0  0  0  0  0  0  0
    3.4190   -4.0140   24.2730 C   0  0  2  0  0  0  0  0  0  0  0  0
    4.7980   -3.7390   23.5160 C   0  0  2  0  0  0  0  0  0  0  0  0
    4.7900   -4.3340   24.8090 C   0  0  2  0  0  0  0  0  0  0  0  0
    4.7760   -5.7370   24.7860 C   0  0  0  0  0  0  0  0  0  0  0  0
    3.7550   -6.4670   24.0690 C   0  0  0  0  0  0  0  0  0  0  0  0
    3.0260   -5.2840   23.8650 C   0  0  0  0  0  0  0  0  0  0  0  0
    4.8010   -3.5800   25.9790 C   0  0  2  0  0  0  0  0  0  0  0  0
    3.5880   -2.9840   26.1610 C   0  0  0  0  0  0  0  0  0  0  0  0
    2.5930   -3.1640   25.1630 C   0  0  0  0  0  0  0  0  0  0  0  0
    5.8370   -2.8540   23.3810 C   0  0  0  0  0  0  0  0  0  0  0  0
  1  4  1  0
  2  4  1  0
  3  4  2  0
  8  5  1  0
  6  8  2  0
  7  8  2  0
  1  9  1  0
  9 10  1  1
  8 11  1  0
 11 12  2  0
 12 13  1  0
 13 14  2  0
 14 15  1  0
 11 16  1  0
 15 16  2  0
 17 18  1  0
 18 19  1  0
 20 10  1  0
 14 20  1  0
 19 20  1  0
 20 21  1  0
 17 22  1  0
 21 22  1  0
 24 25  1  0
 24 26  1  0
 25 26  1  0
 26 27  1  6
 27 28  1  0
 24 29  1  6
 28 29  2  0
 30 23  1  6
 26 30  1  0
 30 31  1  0
 24 32  1  0
 31 32  2  0
  9 33  1  0
 25 33  1  1
M  END
