x2193-x2119
     RDKit          3D

 25 27  0  0  0  0  0  0  0  0999 V2000
   11.2930    2.4400   22.8610 C   0  0  0  0  0  0  0  0  0  0  0  0
    8.9880    2.5250   21.4900 O   0  0  0  0  0  0  0  0  0  0  0  0
    8.9910    3.0900   23.9680 O   0  0  0  0  0  0  0  0  0  0  0  0
    9.5130    2.3370   22.8340 S   0  0  0  0  0  0  0  0  0  0  0  0
    7.8030   -3.8250   22.8270 C   0  0  0  0  0  0  0  0  0  0  0  0
    9.1440    0.6590   23.2960 C   0  0  0  0  0  0  0  0  0  0  0  0
    8.1970    0.3780   24.4520 C   0  0  0  0  0  0  0  0  0  0  0  0
    7.9270   -1.0380   24.7680 C   0  0  0  0  0  0  0  0  0  0  0  0
    8.5630   -2.1390   23.9720 C   0  0  0  0  0  0  0  0  0  0  0  0
    9.4360   -1.7870   22.9190 C   0  0  0  0  0  0  0  0  0  0  0  0
    9.7150   -0.4240   22.5920 C   0  0  0  0  0  0  0  0  0  0  0  0
    8.8700   -5.4380   26.2940 N   0  0  0  0  0  0  0  0  0  0  0  0
    7.6020   -4.8840   26.0710 C   0  0  0  0  0  0  0  0  0  0  0  0
    7.4360   -3.7010   25.3220 C   0  0  0  0  0  0  0  0  0  0  0  0
    8.3170   -3.4840   24.2310 C   0  0  0  0  0  0  0  0  0  0  0  0
    9.5990   -4.0230   24.5010 C   0  0  0  0  0  0  0  0  0  0  0  0
    9.6480   -5.2580   25.1510 C   0  0  0  0  0  0  0  0  0  0  0  0
    5.9200   -4.6890   19.9790 N   0  0  0  0  0  0  0  0  0  0  0  0
    7.0280   -4.0990   20.3340 C   0  0  0  0  0  0  0  0  0  0  0  0
    6.8460   -3.1410   21.4250 C   0  0  0  0  0  0  0  0  0  0  0  0
    6.1170   -3.6010   22.8120 N   0  0  0  0  0  0  0  0  0  0  0  0
    6.1220   -2.3360   23.5620 C   0  0  0  0  0  0  0  0  0  0  0  0
    6.7800   -1.5450   22.5450 C   0  0  0  0  0  0  0  0  0  0  0  0
    7.3210   -1.7580   21.2010 N   0  0  0  0  0  0  0  0  0  0  0  0
    6.6900   -2.8620   22.1340 C   0  0  0  0  0  0  0  0  0  0  0  0
  4  1  1  0
  2  4  2  0
  3  4  2  0
  4  6  1  0
  6  7  2  0
  7  8  1  0
  8  9  2  0
  9 10  1  0
  6 11  1  0
 10 11  2  0
 12 13  1  0
 13 14  1  0
 15  5  1  0
  9 15  1  0
 14 15  1  0
 15 16  1  0
 12 17  1  0
 16 17  1  0
 18 19  2  3
 19 20  1  0
 20 21  2  0
 21 22  1  0
 22 23  2  0
 20 24  1  0
 23 24  1  0
  5 25  1  0
 23 25  1  0
M  END
