x2193-x2705
     RDKit          3D

 40 43  0  0  0  0  0  0  0  0999 V2000
    6.9470   -1.5760   21.7350 N   0  0  0  0  0  0  0  0  0  0  0  0
    8.1820   -3.7790   20.5270 C   0  0  0  0  0  0  0  0  0  0  0  0
    4.7730   -2.9890   21.3270 O   0  0  0  0  0  0  0  0  0  0  0  0
    6.7620   -4.0390   20.8970 C   0  0  0  0  0  0  0  0  0  0  0  0
    7.5310    1.7090   22.9870 N   0  0  0  0  0  0  0  0  0  0  0  0
    8.1580    1.0880   21.2530 O   0  0  0  0  0  0  0  0  0  0  0  0
    6.0820   -2.7830   21.3550 C   0  0  0  0  0  0  0  0  0  0  0  0
    6.5300   -0.2600   21.4070 C   0  0  1  0  0  0  0  0  0  0  0  0
    7.3020    0.9170   22.1280 C   0  0  0  0  0  0  0  0  0  0  0  0
   10.1980    1.9380   24.0090 C   0  0  0  0  0  0  0  0  0  0  0  0
    9.3720    1.1360   24.8070 C   0  0  0  0  0  0  0  0  0  0  0  0
    6.1230    4.1650   21.8670 C   0  0  0  0  0  0  0  0  0  0  0  0
   11.8920   -1.3460   23.0180 C   0  0  0  0  0  0  0  0  0  0  0  0
   12.5690   -0.3950   24.0320 C   0  0  0  0  0  0  0  0  0  0  0  0
   12.5420   -2.0270   24.2730 C   0  0  0  0  0  0  0  0  0  0  0  0
   12.5680   -1.7250   21.9230 C   0  0  0  0  0  0  0  0  0  0  0  0
    6.3290    0.4430   17.6280 N   0  0  0  0  0  0  0  0  0  0  0  0
    5.1940    1.3310   17.9430 C   0  0  0  0  0  0  0  0  0  0  0  0
    4.7710    1.4830   19.2610 C   0  0  0  0  0  0  0  0  0  0  0  0
    5.4380    0.7880   20.2820 C   0  0  0  0  0  0  0  0  0  0  0  0
    6.5030   -0.0280   19.8910 C   0  0  0  0  0  0  0  0  0  0  0  0
    6.9900   -0.2630   18.7180 C   0  0  0  0  0  0  0  0  0  0  0  0
    9.6030   -1.8680   24.0450 N   0  0  0  0  0  0  0  0  0  0  0  0
    8.1850   -1.9720   23.8110 N   0  0  0  0  0  0  0  0  0  0  0  0
    8.2010   -1.6300   22.4490 C   0  0  0  0  0  0  0  0  0  0  0  0
    9.6170   -1.3260   21.8890 C   0  0  0  0  0  0  0  0  0  0  0  0
   10.3510   -1.5200   22.9890 C   0  0  0  0  0  0  0  0  0  0  0  0
    9.4530    3.1320   23.4640 C   0  0  0  0  0  0  0  0  0  0  0  0
   10.1020    4.3590   23.4890 C   0  0  0  0  0  0  0  0  0  0  0  0
    9.4740    5.5180   22.9970 C   0  0  0  0  0  0  0  0  0  0  0  0
    8.1680    5.4360   22.4650 C   0  0  0  0  0  0  0  0  0  0  0  0
    7.5120    4.1790   22.4450 C   0  0  0  0  0  0  0  0  0  0  0  0
    8.1330    3.0250   22.9410 C   0  0  0  0  0  0  0  0  0  0  0  0
    9.3600   -6.1890   25.9310 N   0  0  0  0  0  0  0  0  0  0  0  0
    8.4150   -5.5220   26.7870 C   0  0  0  0  0  0  0  0  0  0  0  0
    8.7020   -4.1770   26.7730 C   0  0  0  0  0  0  0  0  0  0  0  0
    9.1560   -3.5500   25.4870 N   0  0  0  0  0  0  0  0  0  0  0  0
    9.2850   -4.4840   24.3180 C   0  0  0  0  0  0  0  0  0  0  0  0
    8.9760   -5.8150   24.5840 C   0  0  0  0  0  0  0  0  0  0  0  0
    8.4150   -2.2950   25.2080 C   0  0  0  0  0  0  0  0  0  0  0  0
  2  4  1  0
  1  7  1  0
  3  7  2  0
  4  7  1  0
  1  8  1  0
  5  9  1  0
  6  9  2  0
  8  9  1  1
 10 11  1  0
 13 14  1  0
 13 15  1  0
 13 16  1  0
 17 18  2  0
 18 19  1  0
 19 20  2  0
  8 21  1  0
 20 21  1  0
 17 22  1  0
 21 22  2  0
 23 24  1  0
  1 25  1  0
 24 25  1  0
 25 26  2  0
 13 27  1  0
 23 27  2  0
 26 27  1  0
 10 28  1  0
 28 29  2  0
 29 30  1  0
 30 31  2  0
 12 32  1  0
 31 32  1  0
  5 33  1  0
 28 33  1  0
 32 33  2  0
 34 35  1  0
 35 36  1  0
 36 37  1  0
 37 38  1  0
 34 39  1  0
 38 39  1  0
 24 40  1  0
 37 40  1  0
M  END
