x2193-x1351
     RDKit          3D

 34 37  0  0  0  0  0  0  0  0999 V2000
    7.1810   -3.2060   19.1890 C   0  0  0  0  0  0  0  0  0  0  0  0
    5.1490   -4.3270   19.7530 O   0  0  0  0  0  0  0  0  0  0  0  0
    6.2200   -3.8900   20.1440 C   0  0  0  0  0  0  0  0  0  0  0  0
    5.7100   -2.7480   25.1320 N   0  0  0  0  0  0  0  0  0  0  0  0
    7.7080   -2.8000   26.8110 N   0  0  0  0  0  0  0  0  0  0  0  0
    6.5300   -2.2370   26.2440 C   0  0  0  0  0  0  0  0  0  0  0  0
   11.1390    2.3540   23.0470 C   0  0  0  0  0  0  0  0  0  0  0  0
    9.2570    1.6840   21.1490 O   0  0  0  0  0  0  0  0  0  0  0  0
    8.4960    2.7890   23.3540 O   0  0  0  0  0  0  0  0  0  0  0  0
    9.5550    1.7990   22.7020 S   0  0  0  0  0  0  0  0  0  0  0  0
    6.5320   -4.0840   21.4530 N   0  0  0  0  0  0  0  0  0  0  0  0
    7.4930   -3.2320   21.9760 C   0  0  0  0  0  0  0  0  0  0  0  0
    6.9880   -2.6130   23.2720 C   0  0  0  0  0  0  0  0  0  0  0  0
    6.3390   -3.5380   24.0470 C   0  0  0  0  0  0  0  0  0  0  0  0
    5.4650   -4.4120   23.3970 C   0  0  0  0  0  0  0  0  0  0  0  0
    6.0010   -5.1230   22.3150 C   0  0  0  0  0  0  0  0  0  0  0  0
    6.8970   -0.6310   28.1450 C   0  0  0  0  0  0  0  0  0  0  0  0
    6.5640    0.7010   28.8200 C   0  0  0  0  0  0  0  0  0  0  0  0
    5.6190    1.5380   28.2260 C   0  0  0  0  0  0  0  0  0  0  0  0
    4.9960    1.1610   27.0430 C   0  0  0  0  0  0  0  0  0  0  0  0
    5.2840   -0.0440   26.4130 C   0  0  0  0  0  0  0  0  0  0  0  0
    6.2190   -0.9280   26.9530 C   0  0  0  0  0  0  0  0  0  0  0  0
    9.4720    0.2920   23.4110 C   0  0  0  0  0  0  0  0  0  0  0  0
    9.2450    0.1740   24.7180 C   0  0  0  0  0  0  0  0  0  0  0  0
    9.1140   -1.1330   25.5070 C   0  0  0  0  0  0  0  0  0  0  0  0
    9.2760   -2.3930   24.6040 C   0  0  0  0  0  0  0  0  0  0  0  0
    9.5320   -2.1470   23.2300 C   0  0  0  0  0  0  0  0  0  0  0  0
    9.6290   -0.8740   22.6420 C   0  0  0  0  0  0  0  0  0  0  0  0
    8.1680   -6.0920   25.6940 N   0  0  0  0  0  0  0  0  0  0  0  0
    7.4900   -4.9980   25.9760 C   0  0  0  0  0  0  0  0  0  0  0  0
    8.3460   -4.0060   26.3430 C   0  0  1  0  0  0  0  0  0  0  0  0
    9.1690   -3.6790   25.1400 N   0  0  0  0  0  0  0  0  0  0  0  0
    9.6160   -4.6980   24.4020 C   0  0  0  0  0  0  0  0  0  0  0  0
    8.9280   -5.9040   24.4510 C   0  0  0  0  0  0  0  0  0  0  0  0
  1  3  1  0
  2  3  2  0
  4  6  1  0
  5  6  2  3
 10  7  1  0
  8 10  2  0
  9 10  2  0
  3 11  1  0
 11 12  1  0
 12 13  1  0
  4 14  1  0
 13 14  1  0
 14 15  1  0
 11 16  1  0
 15 16  1  0
 17 18  2  0
 18 19  1  0
 19 20  2  0
 20 21  1  0
  6 22  1  0
 17 22  1  0
 21 22  2  0
 10 23  1  0
 23 24  2  0
 24 25  1  0
 25 26  2  0
 26 27  1  0
 23 28  1  0
 27 28  2  0
 29 30  1  0
 31  5  1  6
 30 31  1  0
 26 32  1  0
 31 32  1  0
 32 33  1  0
 29 34  1  0
 33 34  1  0
M  END
