x2193-x0771
     RDKit          3D

 37 40  0  0  0  0  0  0  0  0999 V2000
    0.4230   -1.6700   26.7450 C   0  0  0  0  0  0  0  0  0  0  0  0
    3.7840   -5.2370   24.6480 O   0  0  0  0  0  0  0  0  0  0  0  0
    6.3120   -4.6100   26.3050 C   0  0  0  0  0  0  0  0  0  0  0  0
    5.2970   -3.9530   19.6350 O   0  0  0  0  0  0  0  0  0  0  0  0
    2.0960   -6.0560   24.9920 C   0  0  0  0  0  0  0  0  0  0  0  0
    6.3830   -4.0170   20.1930 C   0  0  0  0  0  0  0  0  0  0  0  0
    7.5630   -3.2080   19.6290 C   0  0  0  0  0  0  0  0  0  0  0  0
    5.1210   -5.1970   25.1190 S   0  0  1  0  0  0  0  0  0  0  0  0
   10.7430    2.4930   22.7820 C   0  0  0  0  0  0  0  0  0  0  0  0
    9.0870    1.6990   20.8780 O   0  0  0  0  0  0  0  0  0  0  0  0
    8.1540    2.3900   23.0480 O   0  0  0  0  0  0  0  0  0  0  0  0
    9.2060    1.7350   22.2950 S   0  0  0  0  0  0  0  0  0  0  0  0
    6.9950   -5.4630   25.4350 C   0  0  0  0  0  0  0  0  0  0  0  0
    1.5770   -2.5480   26.3750 C   0  0  0  0  0  0  0  0  0  0  0  0
    1.3610   -3.8410   25.8870 C   0  0  0  0  0  0  0  0  0  0  0  0
    2.4380   -4.6700   25.5230 C   0  0  0  0  0  0  0  0  0  0  0  0
    3.7630   -4.1810   25.6510 C   0  0  0  0  0  0  0  0  0  0  0  0
    3.9550   -2.8890   26.1560 C   0  0  0  0  0  0  0  0  0  0  0  0
    2.8820   -2.0840   26.5130 C   0  0  0  0  0  0  0  0  0  0  0  0
    6.5160   -4.8380   21.3110 N   0  0  0  0  0  0  0  0  0  0  0  0
    5.7760   -6.0800   21.4600 C   0  0  0  0  0  0  0  0  0  0  0  0
    4.8230   -6.0220   22.6690 C   0  0  0  0  0  0  0  0  0  0  0  0
    5.6840   -6.1270   23.8770 N   0  0  0  0  0  0  0  0  0  0  0  0
    7.0540   -5.7370   23.5120 C   0  0  0  0  0  0  0  0  0  0  0  0
    7.2140   -4.5270   22.5390 C   0  0  0  0  0  0  0  0  0  0  0  0
    9.2670    0.0510   22.8630 C   0  0  0  0  0  0  0  0  0  0  0  0
    8.3430   -0.2620   23.8070 C   0  0  0  0  0  0  0  0  0  0  0  0
    8.2360   -1.4820   24.4210 C   0  0  0  0  0  0  0  0  0  0  0  0
    9.0730   -2.5030   24.1020 C   0  0  0  0  0  0  0  0  0  0  0  0
   10.0260   -2.2330   23.0930 C   0  0  0  0  0  0  0  0  0  0  0  0
   10.1540   -0.9700   22.4560 C   0  0  0  0  0  0  0  0  0  0  0  0
    8.3500   -5.8770   26.1680 N   0  0  0  0  0  0  0  0  0  0  0  0
    7.7930   -4.6420   26.7240 C   0  0  1  0  0  0  0  0  0  0  0  0
    8.1840   -3.4930   26.0800 C   0  0  0  0  0  0  0  0  0  0  0  0
    8.9130   -3.6500   24.7850 N   0  0  0  0  0  0  0  0  0  0  0  0
    9.5950   -4.7390   24.4720 C   0  0  0  0  0  0  0  0  0  0  0  0
    9.5910   -5.7710   25.3510 C   0  0  0  0  0  0  0  0  0  0  0  0
  4  6  2  0
  6  7  1  0
  2  8  2  0
  3  8  2  0
 12  9  1  0
 10 12  2  0
 11 12  2  0
  3 13  1  0
  1 14  1  0
 14 15  2  0
  5 16  1  0
 15 16  1  0
  8 17  1  6
 16 17  2  0
 17 18  1  0
 14 19  1  0
 18 19  2  0
  6 20  1  0
 20 21  1  0
 21 22  1  0
  8 23  1  0
 22 23  1  0
 23 24  1  0
 20 25  1  0
 24 25  1  0
 12 26  1  0
 26 27  2  0
 27 28  1  0
 28 29  2  0
 29 30  1  0
 26 31  1  0
 30 31  2  0
 33  3  1  6
 32 33  1  0
 33 34  1  0
 29 35  1  0
 34 35  1  0
 35 36  1  0
 32 37  1  0
 36 37  1  0
M  END
