x2193-x1348
     RDKit          3D

 30 33  0  0  0  0  0  0  0  0999 V2000
    6.9540   -3.7740   21.2260 N   0  0  0  0  0  0  0  0  0  0  0  0
    8.0340   -5.1840   27.9750 C   0  0  0  0  0  0  0  0  0  0  0  0
    5.3780   -3.9160   19.5930 O   0  0  0  0  0  0  0  0  0  0  0  0
    6.5180   -3.6180   19.9550 C   0  0  0  0  0  0  0  0  0  0  0  0
    7.5430   -3.0940   18.9700 C   0  0  0  0  0  0  0  0  0  0  0  0
   11.1060    2.3460   23.0930 C   0  0  0  0  0  0  0  0  0  0  0  0
    9.2470    1.8680   21.1200 O   0  0  0  0  0  0  0  0  0  0  0  0
    8.4590    2.7690   23.4130 O   0  0  0  0  0  0  0  0  0  0  0  0
    9.5200    1.8450   22.6780 S   0  0  0  0  0  0  0  0  0  0  0  0
    6.7760   -5.5910   25.9460 C   0  0  0  0  0  0  0  0  0  0  0  0
    6.2690   -5.3390   24.5310 C   0  0  0  0  0  0  0  0  0  0  0  0
    5.0520   -5.7440   23.9700 C   0  0  0  0  0  0  0  0  0  0  0  0
    4.1540   -6.4660   24.7760 C   0  0  0  0  0  0  0  0  0  0  0  0
    4.5170   -6.7380   26.0980 C   0  0  0  0  0  0  0  0  0  0  0  0
    5.8580   -6.3060   26.7450 C   0  0  0  0  0  0  0  0  0  0  0  0
    7.1040   -4.5940   23.6090 N   0  0  0  0  0  0  0  0  0  0  0  0
    6.3820   -4.4980   22.3560 C   0  0  0  0  0  0  0  0  0  0  0  0
    4.8840   -5.2560   22.3290 S   0  0  0  0  0  0  0  0  0  0  0  0
    9.4240    0.2670   23.2020 C   0  0  0  0  0  0  0  0  0  0  0  0
    8.9370    0.0110   24.4610 C   0  0  0  0  0  0  0  0  0  0  0  0
    8.8070   -1.2570   24.9370 C   0  0  0  0  0  0  0  0  0  0  0  0
    9.1820   -2.3170   24.1300 C   0  0  0  0  0  0  0  0  0  0  0  0
    9.6970   -2.1010   22.8390 C   0  0  0  0  0  0  0  0  0  0  0  0
    9.8210   -0.8450   22.3710 C   0  0  0  0  0  0  0  0  0  0  0  0
    8.9480   -6.0830   25.9480 N   0  0  0  0  0  0  0  0  0  0  0  0
    8.1280   -5.1300   26.4010 C   0  0  2  0  0  0  0  0  0  0  0  0
    8.6710   -3.6900   26.1740 C   0  0  0  0  0  0  0  0  0  0  0  0
    8.9900   -3.6520   24.7270 N   0  0  0  0  0  0  0  0  0  0  0  0
    9.6160   -4.6990   24.1830 C   0  0  0  0  0  0  0  0  0  0  0  0
    9.2020   -5.9260   24.6480 C   0  0  0  0  0  0  0  0  0  0  0  0
  1  4  1  0
  3  4  2  0
  4  5  1  0
  9  6  1  0
  7  9  2  0
  8  9  2  0
 10 11  2  0
 11 12  1  0
 12 13  2  0
 13 14  1  0
 10 15  1  0
 14 15  2  0
 11 16  1  0
  1 17  1  0
 16 17  2  0
 12 18  1  0
 17 18  1  0
  9 19  1  0
 19 20  2  0
 20 21  1  0
 21 22  2  0
 22 23  1  0
 19 24  1  0
 23 24  2  0
 26  2  1  1
 10 26  1  0
 25 26  1  0
 26 27  1  0
 22 28  1  0
 27 28  1  0
 28 29  1  0
 25 30  1  0
 29 30  1  0
M  END
