x2193-x1386
     RDKit          3D

 25 27  0  0  0  0  0  0  0  0999 V2000
    7.4330   -2.9580   18.7200 C   0  0  0  0  0  0  0  0  0  0  0  0
    5.4710   -3.9330   19.6460 O   0  0  0  0  0  0  0  0  0  0  0  0
    6.3680   -3.0790   19.7670 C   0  0  0  0  0  0  0  0  0  0  0  0
    9.6160   -2.7140   23.3840 C   0  0  1  0  0  0  0  0  0  0  0  0
   11.2600    1.8460   23.3630 C   0  0  0  0  0  0  0  0  0  0  0  0
    9.3590    1.9640   21.2910 O   0  0  0  0  0  0  0  0  0  0  0  0
    8.5870    2.4450   23.7480 O   0  0  0  0  0  0  0  0  0  0  0  0
    9.6250    1.6630   22.8310 S   0  0  0  0  0  0  0  0  0  0  0  0
    6.4200   -2.2080   20.8860 N   0  0  0  0  0  0  0  0  0  0  0  0
    7.5310   -1.1980   20.9110 C   0  0  0  0  0  0  0  0  0  0  0  0
    8.8390   -1.5500   21.6550 C   0  0  0  0  0  0  0  0  0  0  0  0
    8.5460   -2.2760   22.8830 N   0  0  0  0  0  0  0  0  0  0  0  0
    7.4390   -3.3230   22.8150 C   0  0  0  0  0  0  0  0  0  0  0  0
    6.3060   -2.7790   22.2030 C   0  0  0  0  0  0  0  0  0  0  0  0
   11.8970   -1.4530   22.6310 C   0  0  0  0  0  0  0  0  0  0  0  0
   10.6420   -1.5440   23.4970 C   0  0  0  0  0  0  0  0  0  0  0  0
   10.7060   -0.2670   24.3190 C   0  0  0  0  0  0  0  0  0  0  0  0
   11.8160    0.5490   23.9960 C   0  0  1  0  0  0  0  0  0  0  0  0
   12.5590   -0.1210   23.0040 C   0  0  0  0  0  0  0  0  0  0  0  0
    8.3870   -5.5330   25.9850 N   0  0  0  0  0  0  0  0  0  0  0  0
    9.0080   -4.5130   26.6070 C   0  0  0  0  0  0  0  0  0  0  0  0
    9.2630   -3.3200   25.8720 C   0  0  0  0  0  0  0  0  0  0  0  0
    9.1630   -3.6210   24.4450 N   0  0  0  0  0  0  0  0  0  0  0  0
    9.5940   -4.8270   24.1970 C   0  0  0  0  0  0  0  0  0  0  0  0
    9.0800   -5.8900   24.7500 C   0  0  0  0  0  0  0  0  0  0  0  0
  1  3  1  0
  2  3  2  0
  5  8  1  0
  6  8  2  0
  7  8  2  0
  3  9  1  0
  9 10  1  0
 10 11  1  0
  4 12  1  0
 11 12  1  0
 12 13  1  0
  9 14  1  0
 13 14  1  0
  4 16  1  1
 15 16  1  0
 16 17  2  0
 18  5  1  6
 17 18  1  0
 15 19  2  0
 18 19  1  0
 20 21  1  0
 21 22  1  0
  4 23  1  0
 22 23  1  0
 23 24  1  0
 20 25  1  0
 24 25  1  0
M  END
