x2193-x0770
     RDKit          3D

 28 30  0  0  0  0  0  0  0  0999 V2000
    7.3020   -3.0150   18.9030 C   0  0  0  0  0  0  0  0  0  0  0  0
    5.4060   -4.1860   19.7730 O   0  0  0  0  0  0  0  0  0  0  0  0
   13.4030   -1.5770   21.2690 Cl  0  0  0  0  0  0  0  0  0  0  0  0
    6.3060   -3.3580   19.9800 C   0  0  0  0  0  0  0  0  0  0  0  0
    9.3830   -2.9870   23.7820 C   0  0  1  0  0  0  0  0  0  0  0  0
    6.4370   -2.7250   21.2380 N   0  0  0  0  0  0  0  0  0  0  0  0
    7.0850   -1.5490   21.5320 C   0  0  0  0  0  0  0  0  0  0  0  0
    8.4070   -1.7050   22.2990 C   0  0  0  0  0  0  0  0  0  0  0  0
    8.2390   -2.6550   23.2940 N   0  0  0  0  0  0  0  0  0  0  0  0
    7.4480   -3.7490   22.9960 C   0  0  0  0  0  0  0  0  0  0  0  0
    6.1760   -3.4290   22.5160 C   0  0  0  0  0  0  0  0  0  0  0  0
   10.2800   -0.6420   24.1100 C   0  0  0  0  0  0  0  0  0  0  0  0
   11.1620    0.3550   23.8050 C   0  0  0  0  0  0  0  0  0  0  0  0
   12.3910    0.4700   22.8460 C   0  0  0  0  0  0  0  0  0  0  0  0
   12.2540   -1.0290   22.3810 C   0  0  0  0  0  0  0  0  0  0  0  0
   11.3630   -2.0350   22.6790 C   0  0  0  0  0  0  0  0  0  0  0  0
   10.3640   -1.8640   23.5250 C   0  0  0  0  0  0  0  0  0  0  0  0
    8.4060   -5.9650   26.0960 N   0  0  0  0  0  0  0  0  0  0  0  0
    8.1000   -4.7910   26.6620 C   0  0  0  0  0  0  0  0  0  0  0  0
    8.0710   -3.6660   25.8110 C   0  0  0  0  0  0  0  0  0  0  0  0
    9.3960   -3.4720   25.1560 N   0  0  0  0  0  0  0  0  0  0  0  0
   10.0130   -4.6560   25.1330 C   0  0  0  0  0  0  0  0  0  0  0  0
    9.2650   -5.7320   24.9380 C   0  0  0  0  0  0  0  0  0  0  0  0
   11.0530    2.6810   22.8800 C   0  0  0  0  0  0  0  0  0  0  0  0
    9.1160    1.8790   21.0970 O   0  0  0  0  0  0  0  0  0  0  0  0
    8.4290    2.5150   23.5490 O   0  0  0  0  0  0  0  0  0  0  0  0
    9.5580    1.8830   22.6220 S   0  0  0  0  0  0  0  0  0  0  0  0
   12.1970    1.7880   23.4990 C   0  0  0  0  0  0  0  0  0  0  0  0
  1  4  1  0
  2  4  2  0
  4  6  1  0
  6  7  1  0
  7  8  1  0
  5  9  1  0
  8  9  1  0
  9 10  1  0
  6 11  1  0
 10 11  1  0
 12 13  2  0
 13 14  1  0
  3 15  1  0
 14 15  2  0
 15 16  1  0
  5 17  1  1
 12 17  1  0
 16 17  2  0
 18 19  1  0
 19 20  1  0
  5 21  1  0
 20 21  1  0
 21 22  1  0
 18 23  1  0
 22 23  1  0
 24 27  1  0
 25 27  2  0
 26 27  2  0
 14 28  1  0
 24 28  1  0
M  END
