x2193-x2779
     RDKit          3D

 27 29  0  0  0  0  0  0  0  0999 V2000
    7.4310   -2.9920   18.7340 C   0  0  0  0  0  0  0  0  0  0  0  0
    5.5230   -4.0270   19.7140 O   0  0  0  0  0  0  0  0  0  0  0  0
    6.4350   -3.1810   19.8270 C   0  0  0  0  0  0  0  0  0  0  0  0
    9.5880   -2.8040   23.4280 C   0  0  1  0  0  0  0  0  0  0  0  0
    6.6090   -2.3810   20.9810 N   0  0  0  0  0  0  0  0  0  0  0  0
    7.4540   -1.2970   21.1140 C   0  0  0  0  0  0  0  0  0  0  0  0
    8.8110   -1.6010   21.7700 C   0  0  0  0  0  0  0  0  0  0  0  0
    8.5390   -2.3290   22.8920 N   0  0  0  0  0  0  0  0  0  0  0  0
    7.5700   -3.3160   22.8100 C   0  0  0  0  0  0  0  0  0  0  0  0
    6.3260   -2.8990   22.3380 C   0  0  0  0  0  0  0  0  0  0  0  0
   11.9630   -1.8830   22.6830 C   0  0  0  0  0  0  0  0  0  0  0  0
   10.8620   -1.8350   23.5270 C   0  0  0  0  0  0  0  0  0  0  0  0
   11.0470   -0.6940   24.5430 C   0  0  1  0  0  0  0  0  0  0  0  0
   12.4480   -0.2690   24.0710 C   0  0  0  0  0  0  0  0  0  0  0  0
   12.9470   -0.9530   22.9750 C   0  0  0  0  0  0  0  0  0  0  0  0
    8.6160   -5.6430   26.1970 N   0  0  0  0  0  0  0  0  0  0  0  0
    8.3960   -4.2030   26.4260 C   0  0  0  0  0  0  0  0  0  0  0  0
    9.2500   -3.3640   25.6720 C   0  0  0  0  0  0  0  0  0  0  0  0
    9.1380   -3.6520   24.5540 N   0  0  0  0  0  0  0  0  0  0  0  0
    9.6180   -4.8310   24.2650 C   0  0  0  0  0  0  0  0  0  0  0  0
    9.6770   -5.7990   25.2270 C   0  0  0  0  0  0  0  0  0  0  0  0
   10.3900    2.7230   23.1550 C   0  0  0  0  0  0  0  0  0  0  0  0
    8.9700    1.9100   20.9700 O   0  0  0  0  0  0  0  0  0  0  0  0
    7.6730    2.9640   23.0350 O   0  0  0  0  0  0  0  0  0  0  0  0
    8.8890    2.0830   22.5370 S   0  0  0  0  0  0  0  0  0  0  0  0
   10.3250    0.4730   24.3340 C   0  0  0  0  0  0  0  0  0  0  0  0
   11.2000    1.5560   23.6220 C   0  0  0  0  0  0  0  0  0  0  0  0
  1  3  1  0
  2  3  2  0
  3  5  1  0
  5  6  1  0
  6  7  1  0
  4  8  1  0
  7  8  1  0
  8  9  1  0
  5 10  1  0
  9 10  1  0
  4 12  1  1
 11 12  2  0
 12 13  1  0
 13 14  1  0
 11 15  1  0
 14 15  2  0
 16 17  1  0
 17 18  1  0
  4 19  1  0
 18 19  1  0
 19 20  1  0
 16 21  1  0
 20 21  1  0
 22 25  1  0
 23 25  2  0
 24 25  2  0
 13 26  1  6
 22 27  1  0
 26 27  1  0
M  END
