x2193-x0734
     RDKit          3D

 29 31  0  0  0  0  0  0  0  0999 V2000
    5.1530   -4.7170   25.9360 N   0  0  0  0  0  0  0  0  0  0  0  0
    4.5030   -5.6250   25.4030 O   0  0  0  0  0  0  0  0  0  0  0  0
    4.6420   -3.7970   26.5930 O   0  0  0  0  0  0  0  0  0  0  0  0
    4.9040   -3.9670   19.4390 O   0  0  0  0  0  0  0  0  0  0  0  0
    6.0210   -3.7410   19.8370 C   0  0  0  0  0  0  0  0  0  0  0  0
    7.0850   -3.1060   18.9490 C   0  0  0  0  0  0  0  0  0  0  0  0
    6.5540   -5.0250   26.2310 C   0  0  0  0  0  0  0  0  0  0  0  0
    7.5140   -4.9450   25.0360 C   0  0  0  0  0  0  0  0  0  0  0  0
    8.9340   -5.2560   25.3420 C   0  0  0  0  0  0  0  0  0  0  0  0
    9.3090   -5.6110   26.7340 C   0  0  0  0  0  0  0  0  0  0  0  0
    8.3640   -5.6550   27.7510 C   0  0  0  0  0  0  0  0  0  0  0  0
    7.0130   -5.3690   27.5060 C   0  0  0  0  0  0  0  0  0  0  0  0
    6.3430   -4.0650   21.1100 N   0  0  0  0  0  0  0  0  0  0  0  0
    6.2620   -5.3030   21.6360 C   0  0  0  0  0  0  0  0  0  0  0  0
    6.2110   -5.4040   23.0250 C   0  0  0  0  0  0  0  0  0  0  0  0
    7.0270   -4.5860   23.7050 N   0  0  0  0  0  0  0  0  0  0  0  0
    7.3260   -3.4020   23.1600 C   0  0  2  0  0  0  0  0  0  0  0  0
    6.6670   -3.0060   22.0270 C   0  0  0  0  0  0  0  0  0  0  0  0
   11.1310    2.5540   22.9490 C   0  0  0  0  0  0  0  0  0  0  0  0
    9.3130    1.6770   21.1910 O   0  0  0  0  0  0  0  0  0  0  0  0
    8.5330    2.7930   23.2580 O   0  0  0  0  0  0  0  0  0  0  0  0
    9.4980    1.9490   22.5930 S   0  0  0  0  0  0  0  0  0  0  0  0
    9.4210    0.3720   23.4280 C   0  0  0  0  0  0  0  0  0  0  0  0
    9.6030    0.4300   24.9600 C   0  0  0  0  0  0  0  0  0  0  0  0
    9.5230   -0.8510   25.7310 C   0  0  0  0  0  0  0  0  0  0  0  0
    9.2630   -2.0160   24.8630 C   0  0  0  0  0  0  0  0  0  0  0  0
    9.1170   -1.9410   23.4920 C   0  0  0  0  0  0  0  0  0  0  0  0
    9.1560   -0.8920   22.4840 C   0  0  0  0  0  0  0  0  0  0  0  0
    8.8180   -3.2810   22.9600 C   0  0  0  0  0  0  0  0  0  0  0  0
  1  2  2  0
  1  3  1  0
  4  5  2  0
  5  6  1  0
  1  7  1  0
  7  8  2  0
  8  9  1  0
  9 10  2  0
 10 11  1  0
  7 12  1  0
 11 12  2  0
  5 13  1  0
 13 14  1  0
 14 15  1  0
  8 16  1  0
 15 16  1  0
 16 17  1  0
 13 18  1  0
 17 18  1  0
 22 19  1  0
 20 22  2  0
 21 22  2  0
 22 23  1  0
 23 24  2  0
 24 25  1  0
 25 26  2  0
 26 27  1  0
 23 28  1  0
 27 28  2  0
 17 29  1  6
 27 29  1  0
M  CHG  2   1   1   3  -1
M  END
