x2193-x3115
     RDKit          3D

 37 39  0  0  0  0  0  0  0  0999 V2000
    6.9860   -1.6830   21.7080 N   0  0  0  0  0  0  0  0  0  0  0  0
    6.8740   -4.7690   20.2820 C   0  0  0  0  0  0  0  0  0  0  0  0
    4.8340   -3.0290   21.2350 O   0  0  0  0  0  0  0  0  0  0  0  0
    6.8840   -4.1440   21.6390 C   0  0  0  0  0  0  0  0  0  0  0  0
    8.2380    1.6000   22.6370 N   0  0  0  0  0  0  0  0  0  0  0  0
    8.3550    0.5390   21.0930 O   0  0  0  0  0  0  0  0  0  0  0  0
    6.1160   -2.8660   21.5110 C   0  0  0  0  0  0  0  0  0  0  0  0
    7.6530    5.1290   22.6740 O   0  0  0  0  0  0  0  0  0  0  0  0
    6.5700   -0.3390   21.6520 C   0  0  1  0  0  0  0  0  0  0  0  0
    7.6650    0.7210   22.0800 C   0  0  0  0  0  0  0  0  0  0  0  0
    7.9800    2.8750   22.1390 C   0  0  0  0  0  0  0  0  0  0  0  0
    8.2350    3.8910   23.0580 C   0  0  0  0  0  0  0  0  0  0  0  0
    8.5660    6.2000   22.4660 C   0  0  0  0  0  0  0  0  0  0  0  0
   12.1450   -1.6210   24.2170 C   0  0  0  0  0  0  0  0  0  0  0  0
   13.3520   -2.2160   23.4800 C   0  0  0  0  0  0  0  0  0  0  0  0
   12.6930   -2.9270   24.8590 C   0  0  0  0  0  0  0  0  0  0  0  0
   12.3080   -0.5670   25.0140 C   0  0  0  0  0  0  0  0  0  0  0  0
    9.6440    1.4800   23.1220 C   0  0  0  0  0  0  0  0  0  0  0  0
    6.3330    0.3580   17.8260 N   0  0  0  0  0  0  0  0  0  0  0  0
    5.2230    1.1180   17.8700 C   0  0  0  0  0  0  0  0  0  0  0  0
    4.5290    1.4130   19.0450 C   0  0  0  0  0  0  0  0  0  0  0  0
    4.9770    0.9190   20.2790 C   0  0  0  0  0  0  0  0  0  0  0  0
    6.0730    0.1640   20.3170 C   0  0  0  0  0  0  0  0  0  0  0  0
    6.7830   -0.1310   18.9930 C   0  0  0  0  0  0  0  0  0  0  0  0
    9.4090   -1.4300   21.6650 C   0  0  0  0  0  0  0  0  0  0  0  0
   10.6570   -1.4060   22.2150 C   0  0  0  0  0  0  0  0  0  0  0  0
   10.7600   -1.6850   23.5310 C   0  0  0  0  0  0  0  0  0  0  0  0
    9.6120   -2.0000   24.2160 C   0  0  0  0  0  0  0  0  0  0  0  0
    8.2110   -2.0910   23.8100 C   0  0  0  0  0  0  0  0  0  0  0  0
    8.2870   -1.7420   22.4240 C   0  0  0  0  0  0  0  0  0  0  0  0
    8.9180   -6.2590   26.2190 N   0  0  0  0  0  0  0  0  0  0  0  0
    8.2670   -5.2830   27.0490 C   0  0  0  0  0  0  0  0  0  0  0  0
    8.7870   -4.0400   26.8420 C   0  0  0  0  0  0  0  0  0  0  0  0
    9.1360   -3.6520   25.5800 N   0  0  0  0  0  0  0  0  0  0  0  0
    9.2840   -4.5810   24.5790 C   0  0  0  0  0  0  0  0  0  0  0  0
    8.7780   -5.8600   24.8030 C   0  0  0  0  0  0  0  0  0  0  0  0
    8.4060   -2.4180   25.2360 C   0  0  0  0  0  0  0  0  0  0  0  0
  2  4  1  0
  1  7  1  0
  3  7  2  0
  4  7  1  0
  1  9  1  0
  5 10  1  0
  6 10  2  0
  9 10  1  6
  5 11  1  0
  8 12  1  0
 11 12  1  0
  8 13  1  0
 14 15  1  0
 14 16  1  0
 14 17  1  0
  5 18  1  0
 19 20  2  0
 20 21  1  0
 21 22  2  0
  9 23  1  0
 22 23  1  0
 19 24  1  0
 23 24  2  0
 25 26  2  0
 14 27  1  0
 26 27  1  0
 27 28  2  0
 28 29  1  0
  1 30  1  0
 25 30  1  0
 29 30  2  0
 31 32  1  0
 32 33  1  0
 33 34  1  0
 34 35  1  0
 31 36  1  0
 35 36  1  0
 29 37  1  0
 34 37  1  0
M  END
