x2193-x3113
     RDKit          3D

 37 39  0  0  0  0  0  0  0  0999 V2000
    7.0160   -1.7700   21.7260 N   0  0  0  0  0  0  0  0  0  0  0  0
    8.1260   -4.3180   20.9440 C   0  0  0  0  0  0  0  0  0  0  0  0
    4.7970   -2.9760   21.2150 O   0  0  0  0  0  0  0  0  0  0  0  0
    6.6710   -4.2890   21.2710 C   0  0  0  0  0  0  0  0  0  0  0  0
    8.2040    1.2890   23.0880 N   0  0  0  0  0  0  0  0  0  0  0  0
    8.3520    0.7200   21.2620 O   0  0  0  0  0  0  0  0  0  0  0  0
    6.0900   -2.9140   21.4060 C   0  0  0  0  0  0  0  0  0  0  0  0
   11.6510    3.6820   22.4000 O   0  0  0  0  0  0  0  0  0  0  0  0
    6.6360   -0.4160   21.6700 C   0  0  1  0  0  0  0  0  0  0  0  0
    7.6820    0.5860   22.2880 C   0  0  0  0  0  0  0  0  0  0  0  0
    9.1680    2.2590   22.8000 C   0  0  0  0  0  0  0  0  0  0  0  0
   10.4560    1.8100   23.1260 C   0  0  0  0  0  0  0  0  0  0  0  0
   11.4730    2.7320   23.4390 C   0  0  0  0  0  0  0  0  0  0  0  0
   12.8520    4.4340   22.5780 C   0  0  0  0  0  0  0  0  0  0  0  0
   12.2880   -1.8570   24.0760 C   0  0  0  0  0  0  0  0  0  0  0  0
   13.3820   -1.8730   23.0150 C   0  0  0  0  0  0  0  0  0  0  0  0
   12.6150   -3.0160   25.0280 C   0  0  0  0  0  0  0  0  0  0  0  0
   12.4570   -0.5530   24.8640 C   0  0  0  0  0  0  0  0  0  0  0  0
    6.4620    0.3620   17.8400 N   0  0  0  0  0  0  0  0  0  0  0  0
    5.3750    1.1540   17.8840 C   0  0  0  0  0  0  0  0  0  0  0  0
    4.6840    1.4490   19.0590 C   0  0  0  0  0  0  0  0  0  0  0  0
    5.1130    0.9170   20.2880 C   0  0  0  0  0  0  0  0  0  0  0  0
    6.1880    0.1240   20.3250 C   0  0  0  0  0  0  0  0  0  0  0  0
    6.8970   -0.1670   19.0000 C   0  0  0  0  0  0  0  0  0  0  0  0
    9.4360   -1.5980   21.6340 C   0  0  0  0  0  0  0  0  0  0  0  0
   10.7140   -1.6080   22.1190 C   0  0  0  0  0  0  0  0  0  0  0  0
   10.8770   -1.8580   23.4360 C   0  0  0  0  0  0  0  0  0  0  0  0
    9.7530   -2.0950   24.1800 C   0  0  0  0  0  0  0  0  0  0  0  0
    8.3280   -2.1370   23.8430 C   0  0  0  0  0  0  0  0  0  0  0  0
    8.3360   -1.8450   22.4350 C   0  0  0  0  0  0  0  0  0  0  0  0
    9.3920   -6.2630   26.0290 N   0  0  0  0  0  0  0  0  0  0  0  0
    8.4390   -5.5520   26.8480 C   0  0  0  0  0  0  0  0  0  0  0  0
    8.6840   -4.2120   26.7320 C   0  0  0  0  0  0  0  0  0  0  0  0
    9.1830   -3.7370   25.5510 N   0  0  0  0  0  0  0  0  0  0  0  0
    9.3960   -4.5570   24.4560 C   0  0  0  0  0  0  0  0  0  0  0  0
    9.1580   -5.9060   24.6300 C   0  0  0  0  0  0  0  0  0  0  0  0
    8.6340   -2.4080   25.2540 C   0  0  0  0  0  0  0  0  0  0  0  0
  2  4  1  0
  1  7  1  0
  3  7  2  0
  4  7  1  0
  1  9  1  0
  5 10  1  0
  6 10  2  0
  9 10  1  6
  5 11  1  0
 11 12  1  0
  8 13  1  0
 12 13  1  0
  8 14  1  0
 15 16  1  0
 15 17  1  0
 15 18  1  0
 19 20  2  0
 20 21  1  0
 21 22  2  0
  9 23  1  0
 22 23  1  0
 19 24  1  0
 23 24  2  0
 25 26  2  0
 15 27  1  0
 26 27  1  0
 27 28  2  0
 28 29  1  0
  1 30  1  0
 25 30  1  0
 29 30  2  0
 31 32  1  0
 32 33  1  0
 33 34  1  0
 34 35  1  0
 31 36  1  0
 35 36  1  0
 29 37  1  0
 34 37  1  0
M  END
