x2540-x3110-x0691-x1402
     RDKit          3D

 58 68  0  0  0  0  0  0  0  0999 V2000
    7.9520    1.2660   23.2780 N   0  0  0  0  0  0  0  0  0  0  0  0
   13.5040    5.2390   22.5230 C   0  0  0  0  0  0  0  0  0  0  0  0
   12.0820    3.2900   22.4690 O   0  0  0  0  0  0  0  0  0  0  0  0
   12.3440    4.3760   21.9670 C   0  0  0  0  0  0  0  0  0  0  0  0
    6.8620   -1.7050   22.1470 C   0  0  2  0  0  0  0  0  0  0  0  0
   11.3390    4.3020   24.1630 O   0  0  0  0  0  0  0  0  0  0  0  0
   11.2700    3.3680   23.3670 C   0  0  0  0  0  0  0  0  0  0  0  0
    8.4790    1.4240   20.9090 O   0  0  0  0  0  0  0  0  0  0  0  0
   10.1480    2.3400   23.4850 C   0  0  0  0  0  0  0  0  0  0  0  0
    4.9550   -3.1140   21.0080 O   0  0  0  0  0  0  0  0  0  0  0  0
    8.6460    2.4460   23.5720 C   0  0  0  0  0  0  0  0  0  0  0  0
    7.7250    0.8630   21.9910 C   0  0  0  0  0  0  0  0  0  0  0  0
    6.5860   -0.1920   21.6910 C   0  0  1  0  0  0  0  0  0  0  0  0
    6.1670   -2.9680   21.4930 C   0  0  0  0  0  0  0  0  0  0  0  0
    7.0330   -4.1700   21.5980 C   0  0  2  0  0  0  0  0  0  0  0  0
    7.0860   -4.8510   20.2410 C   0  0  0  0  0  0  0  0  0  0  0  0
   12.2810   -2.1670   24.3430 C   0  0  1  0  0  0  0  0  0  0  0  0
   12.1160   -0.6780   24.5870 C   0  0  0  0  0  0  0  0  0  0  0  0
   13.4710   -2.2120   23.5880 C   0  0  0  0  0  0  0  0  0  0  0  0
   11.3490   -3.2630   24.5070 C   0  0  0  0  0  0  0  0  0  0  0  0
    8.2790    2.8190   25.0130 C   0  0  0  0  0  0  0  0  0  0  0  0
    8.1110    3.6000   22.7340 C   0  0  0  0  0  0  0  0  0  0  0  0
   12.0920   -1.3200   23.2560 C   0  0  1  0  0  0  0  0  0  0  0  0
    2.7380   -6.3610   24.0740 O   0  0  0  0  0  0  0  0  0  0  0  0
    4.7780   -6.5780   25.6520 O   0  0  0  0  0  0  0  0  0  0  0  0
    4.0180   -5.6060   24.6300 S   0  0  0  0  0  0  0  0  0  0  0  0
    6.0380   -1.9520   23.4590 C   0  0  0  0  0  0  0  0  0  0  0  0
    6.5200   -2.9310   24.4050 C   0  0  0  0  0  0  0  0  0  0  0  0
   -0.2830   -3.1690   25.1530 Cl  0  0  0  0  0  0  0  0  0  0  0  0
    4.3250   -4.9450   26.5860 O   0  0  0  0  0  0  0  0  0  0  0  0
    6.4300   -6.1390   26.5390 O   0  0  0  0  0  0  0  0  0  0  0  0
    5.7160   -4.9460   26.1790 S   0  0  0  0  0  0  0  0  0  0  0  0
    6.3490    0.2900   17.8370 N   0  0  0  0  0  0  0  0  0  0  0  0
    5.2700    1.0900   17.8340 C   0  0  0  0  0  0  0  0  0  0  0  0
    4.5770    1.4940   18.9390 C   0  0  0  0  0  0  0  0  0  0  0  0
    5.0170    1.0550   20.1820 C   0  0  0  0  0  0  0  0  0  0  0  0
    6.1480    0.2170   20.2690 C   0  0  0  0  0  0  0  0  0  0  0  0
    6.7880   -0.1500   19.0780 C   0  0  0  0  0  0  0  0  0  0  0  0
    9.5490   -1.6930   21.8760 C   0  0  0  0  0  0  0  0  0  0  0  0
   10.9730   -1.5540   22.2700 C   0  0  0  0  0  0  0  0  0  0  0  0
   10.1880   -1.4250   23.3320 C   0  0  0  0  0  0  0  0  0  0  0  0
    9.6200   -1.2620   24.5290 C   0  0  0  0  0  0  0  0  0  0  0  0
    8.3700   -1.3810   24.1020 C   0  0  0  0  0  0  0  0  0  0  0  0
    8.3220   -1.6060   22.6980 C   0  0  0  0  0  0  0  0  0  0  0  0
    3.1860   -2.5240   26.6790 C   0  0  2  0  0  0  0  0  0  0  0  0
    4.0670   -3.1420   25.7960 C   0  0  0  0  0  0  0  0  0  0  0  0
    3.4700   -4.2560   25.5470 C   0  0  0  0  0  0  0  0  0  0  0  0
    2.4220   -3.8930   26.2790 C   0  0  1  0  0  0  0  0  0  0  0  0
    1.3110   -2.9890   25.8360 C   0  0  0  0  0  0  0  0  0  0  0  0
    2.0710   -1.8120   26.2370 C   0  0  0  0  0  0  0  0  0  0  0  0
    6.3830   -5.0200   22.7230 C   0  0  2  0  0  0  0  0  0  0  0  0
    6.4800   -6.3380   22.6550 C   0  0  2  0  0  0  0  0  0  0  0  0
    5.0510   -6.1340   22.7160 C   0  0  0  0  0  0  0  0  0  0  0  0
    5.0540   -4.9040   23.5040 C   0  0  1  0  0  0  0  0  0  0  0  0
    6.0590   -4.4300   24.4020 C   0  0  1  0  0  0  0  0  0  0  0  0
    7.0580   -5.2660   23.7780 C   0  0  2  0  0  0  0  0  0  0  0  0
    3.0410    0.2840   25.8710 F   0  0  0  0  0  0  0  0  0  0  0  0
    1.8680   -0.3070   26.2470 C   0  0  0  0  0  0  0  0  0  0  0  0
  2  4  1  0
  3  4  1  0
  3  7  1  0
  6  7  2  0
  7  9  1  0
 11  1  1  0
  9 11  1  0
  1 12  1  0
  8 12  2  0
  5 13  1  0
 13 12  1  6
  5 14  1  0
 10 14  2  0
 14 15  1  0
 15 16  1  6
 17 18  1  0
 17 19  1  0
 17 20  1  6
 11 21  1  0
 11 22  1  0
 17 23  1  0
 18 23  1  0
 19 23  1  0
 24 26  2  0
 25 26  2  0
  5 27  1  0
 27 28  1  0
 30 32  2  0
 31 32  2  0
 33 34  2  0
 34 35  1  0
 35 36  2  0
 13 37  1  0
 36 37  1  0
 33 38  1  0
 37 38  2  0
 23 40  1  6
 39 40  2  0
 40 41  1  0
 41 42  2  0
 42 43  1  0
  5 44  1  1
 39 44  1  0
 43 44  2  0
 45 46  1  0
 26 47  1  0
 46 47  2  0
 45 48  1  0
 46 48  1  0
 48 47  1  1
 29 49  1  0
 48 49  1  0
 45 50  1  6
 49 50  2  0
 51 15  1  6
 51 52  1  0
 52 53  1  1
 54 26  1  1
 51 54  1  0
 54 53  1  0
 55 28  1  0
 55 32  1  1
 54 55  1  0
 51 56  1  0
 56 52  1  1
 55 56  1  0
 50 58  1  0
 57 58  1  0
M  END
