x2540-x2908
     RDKit          3D

 29 30  0  0  0  0  0  0  0  0999 V2000
    6.1610   -1.0920   22.3390 N   0  0  0  0  0  0  0  0  0  0  0  0
    6.7540   -3.7000   19.8370 C   0  0  0  0  0  0  0  0  0  0  0  0
    4.6710   -3.0150   21.5660 O   0  0  0  0  0  0  0  0  0  0  0  0
    7.0140   -3.2120   21.2460 C   0  0  0  0  0  0  0  0  0  0  0  0
    7.6990    1.7550   23.1650 N   0  0  0  0  0  0  0  0  0  0  0  0
    8.2100    1.7940   21.0200 O   0  0  0  0  0  0  0  0  0  0  0  0
    5.8290   -2.4160   21.7370 C   0  0  0  0  0  0  0  0  0  0  0  0
    7.2000   -0.2850   21.7460 C   0  0  2  0  0  0  0  0  0  0  0  0
    7.7090    1.1520   21.9590 C   0  0  0  0  0  0  0  0  0  0  0  0
    8.6350    2.7970   23.4340 C   0  0  0  0  0  0  0  0  0  0  0  0
    8.7760    2.9470   24.7940 C   0  0  0  0  0  0  0  0  0  0  0  0
    8.2800    4.1390   22.7770 C   0  0  0  0  0  0  0  0  0  0  0  0
    9.9510    2.4350   22.9740 C   0  0  0  0  0  0  0  0  0  0  0  0
   12.0550   -1.3530   23.4450 C   0  0  0  0  0  0  0  0  0  0  0  0
   12.7740   -1.2640   22.2450 C   0  0  0  0  0  0  0  0  0  0  0  0
   12.3770   -0.1030   24.2570 C   0  0  0  0  0  0  0  0  0  0  0  0
   12.3930   -2.3980   24.2270 C   0  0  0  0  0  0  0  0  0  0  0  0
    5.0550    1.4460   21.4750 C   0  0  0  0  0  0  0  0  0  0  0  0
    6.6170    0.0810   17.8620 N   0  0  0  0  0  0  0  0  0  0  0  0
    5.4750    1.0210   17.7980 C   0  0  0  0  0  0  0  0  0  0  0  0
    4.9310    1.4960   19.1540 C   0  0  0  0  0  0  0  0  0  0  0  0
    5.6530    0.9360   20.3780 C   0  0  0  0  0  0  0  0  0  0  0  0
    6.7410    0.0460   20.2990 C   0  0  0  0  0  0  0  0  0  0  0  0
    7.1800   -0.3540   19.0520 C   0  0  0  0  0  0  0  0  0  0  0  0
    9.7800   -2.3700   23.7390 O   0  0  0  0  0  0  0  0  0  0  0  0
    8.4620   -2.1310   23.2990 N   0  0  0  0  0  0  0  0  0  0  0  0
    8.4980   -0.9380   22.3870 C   0  0  0  0  0  0  0  0  0  0  0  0
    9.8270   -0.5520   22.3240 C   0  0  0  0  0  0  0  0  0  0  0  0
   10.5400   -1.4120   23.1460 C   0  0  0  0  0  0  0  0  0  0  0  0
  2  4  1  0
  1  7  1  0
  3  7  2  0
  4  7  1  0
  8  1  1  1
  5  9  1  0
  6  9  2  0
  8  9  1  0
 10  5  1  0
 10 11  1  0
 10 12  1  0
 10 13  1  0
 14 15  1  0
 14 16  1  0
 14 17  1  0
 19 20  2  0
 20 21  1  0
 18 22  1  0
 21 22  2  0
  8 23  1  0
 22 23  1  0
 19 24  1  0
 23 24  2  0
 25 26  1  0
  8 27  1  0
 26 27  2  0
 27 28  1  0
 14 29  1  0
 25 29  1  0
 28 29  2  0
M  END
