x2540-x0734-x3110-x0426-x1077
     RDKit          3D

 60 67  0  0  0  0  0  0  0  0999 V2000
    7.9000    1.2100   23.1750 N   0  0  0  0  0  0  0  0  0  0  0  0
   13.3790    5.1730   22.9060 C   0  0  0  0  0  0  0  0  0  0  0  0
   12.0210    3.2220   22.4230 O   0  0  0  0  0  0  0  0  0  0  0  0
   12.4400    4.5000   21.9270 C   0  0  0  0  0  0  0  0  0  0  0  0
    7.1230   -1.6170   21.6020 N   0  0  0  0  0  0  0  0  0  0  0  0
   10.9960    4.2130   24.2180 O   0  0  0  0  0  0  0  0  0  0  0  0
   11.1250    3.2870   23.4380 C   0  0  0  0  0  0  0  0  0  0  0  0
    8.5290    1.3330   20.9310 O   0  0  0  0  0  0  0  0  0  0  0  0
   10.2690    2.0210   23.4820 C   0  0  0  0  0  0  0  0  0  0  0  0
    4.9280   -3.0980   21.1950 O   0  0  0  0  0  0  0  0  0  0  0  0
    8.8240    2.1630   23.5490 C   0  0  0  0  0  0  0  0  0  0  0  0
    7.7690    0.8180   21.7690 C   0  0  0  0  0  0  0  0  0  0  0  0
    6.6280   -0.1950   21.4530 C   0  0  1  0  0  0  0  0  0  0  0  0
    6.2640   -2.8750   21.5770 C   0  0  0  0  0  0  0  0  0  0  0  0
    7.1870   -4.9430   20.8030 C   0  0  0  0  0  0  0  0  0  0  0  0
   13.1630   -1.3720   23.9200 C   0  0  1  0  0  0  0  0  0  0  0  0
   12.5320   -0.0740   24.2730 C   0  0  0  0  0  0  0  0  0  0  0  0
   13.0970   -1.6140   22.4430 C   0  0  0  0  0  0  0  0  0  0  0  0
   12.9730   -2.5480   24.8210 C   0  0  0  0  0  0  0  0  0  0  0  0
    8.5510    2.4430   25.0440 C   0  0  0  0  0  0  0  0  0  0  0  0
    8.5120    3.4750   22.7910 C   0  0  0  0  0  0  0  0  0  0  0  0
   11.9170   -0.8040   23.1320 C   0  0  1  0  0  0  0  0  0  0  0  0
    2.3350    1.7340   23.7520 C   0  0  0  0  0  0  0  0  0  0  0  0
    2.3020    0.5030   23.7730 O   0  0  0  0  0  0  0  0  0  0  0  0
    3.3190    2.4500   23.1050 N   0  0  0  0  0  0  0  0  0  0  0  0
    4.2520    1.8820   22.3300 C   0  0  0  0  0  0  0  0  0  0  0  0
    3.7950    1.3250   21.1490 C   0  0  0  0  0  0  0  0  0  0  0  0
    2.8660    4.1170   25.0830 F   0  0  0  0  0  0  0  0  0  0  0  0
    5.4450   -4.6990   25.6720 N   0  0  0  0  0  0  0  0  0  0  0  0
    4.8490   -5.6950   25.2370 O   0  0  0  0  0  0  0  0  0  0  0  0
    4.9270   -3.8900   26.4560 O   0  0  0  0  0  0  0  0  0  0  0  0
    6.3320    0.5730   17.8290 N   0  0  0  0  0  0  0  0  0  0  0  0
    5.1800    1.2220   17.7800 C   0  0  0  0  0  0  0  0  0  0  0  0
    4.4080    1.4360   18.8450 C   0  0  0  0  0  0  0  0  0  0  0  0
    4.8260    0.9780   20.0760 C   0  0  0  0  0  0  0  0  0  0  0  0
    6.0280    0.3160   20.1830 C   0  0  0  0  0  0  0  0  0  0  0  0
    6.7790    0.1130   19.0040 C   0  0  0  0  0  0  0  0  0  0  0  0
    9.5170   -1.2260   22.2510 C   0  0  0  0  0  0  0  0  0  0  0  0
   10.5160   -1.2390   23.2430 C   0  0  0  0  0  0  0  0  0  0  0  0
   10.1460   -1.7130   24.5940 C   0  0  0  0  0  0  0  0  0  0  0  0
    8.8350   -2.0950   24.7900 C   0  0  0  0  0  0  0  0  0  0  0  0
    7.8950   -2.0560   23.8100 C   0  0  0  0  0  0  0  0  0  0  0  0
    8.1560   -1.6390   22.5250 C   0  0  0  0  0  0  0  0  0  0  0  0
    1.6000    3.6780   25.1060 C   0  0  0  0  0  0  0  0  0  0  0  0
    1.2320    2.4900   24.4650 C   0  0  0  0  0  0  0  0  0  0  0  0
   -0.0680    2.0610   24.5030 C   0  0  0  0  0  0  0  0  0  0  0  0
   -1.0980    2.8290   25.2090 C   0  0  0  0  0  0  0  0  0  0  0  0
   -0.7690    3.9900   25.8420 C   0  0  0  0  0  0  0  0  0  0  0  0
    0.6670    4.4470   25.7900 C   0  0  0  0  0  0  0  0  0  0  0  0
    6.8650   -4.8250   23.5630 C   0  0  2  0  0  0  0  0  0  0  0  0
    8.0470   -5.4140   23.2480 C   0  0  1  0  0  0  0  0  0  0  0  0
    8.9110   -5.8870   24.1530 C   0  0  0  0  0  0  0  0  0  0  0  0
    9.7470   -4.9690   24.6970 C   0  0  0  0  0  0  0  0  0  0  0  0
    9.0900   -4.0840   25.6080 N   0  0  0  0  0  0  0  0  0  0  0  0
    7.7030   -4.4590   25.8990 C   0  0  0  0  0  0  0  0  0  0  0  0
    6.7000   -4.2300   24.9030 C   0  0  2  0  0  0  0  0  0  0  0  0
    5.9520   -5.8410   23.1510 C   0  0  0  0  0  0  0  0  0  0  0  0
    7.1080   -6.4210   22.3810 C   0  0  0  0  0  0  0  0  0  0  0  0
    8.4880   -4.0260   22.6910 C   0  0  0  0  0  0  0  0  0  0  0  0
    7.1440   -4.0730   22.0170 C   0  0  2  0  0  0  0  0  0  0  0  0
  2  4  1  0
  3  4  1  0
  3  7  1  0
  6  7  2  0
  7  9  1  0
 11  1  1  0
  9 11  1  0
  1 12  1  0
  8 12  2  0
  5 13  1  0
 13 12  1  6
  5 14  1  0
 10 14  2  0
 16 17  1  0
 16 18  1  0
 16 19  1  6
 11 20  1  0
 11 21  1  0
 16 22  1  0
 17 22  1  0
 18 22  1  0
 23 24  2  0
 23 25  1  0
 25 26  1  0
 26 27  1  0
 29 30  2  0
 29 31  1  0
 32 33  2  0
 33 34  1  0
 27 35  1  0
 34 35  2  0
 13 36  1  0
 35 36  1  0
 32 37  1  0
 36 37  2  0
 22 39  1  1
 38 39  2  0
 39 40  1  0
 40 41  2  0
 41 42  1  0
  5 43  1  0
 38 43  1  0
 42 43  2  0
 28 44  1  0
 23 45  1  0
 44 45  2  0
 45 46  1  0
 46 47  2  0
 47 48  1  0
 44 49  1  0
 48 49  2  0
 50 51  1  0
 51 52  1  1
 52 53  1  0
 53 54  1  0
 54 55  1  0
 56 29  1  1
 50 56  1  0
 55 56  1  0
 50 57  1  6
 51 58  1  0
 57 58  1  0
 51 59  1  0
 60 14  1  0
 60 15  1  6
 50 60  1  0
 59 60  1  0
M  CHG  2  29   1  31  -1
M  END
