x2540-x2608
     RDKit          3D

 30 31  0  0  0  0  0  0  0  0999 V2000
    6.8290   -1.5210   21.1100 N   0  0  0  0  0  0  0  0  0  0  0  0
    6.8230   -4.7830   20.4190 C   0  0  0  0  0  0  0  0  0  0  0  0
    4.7880   -2.9670   21.2160 O   0  0  0  0  0  0  0  0  0  0  0  0
    6.8980   -3.9200   21.6870 C   0  0  0  0  0  0  0  0  0  0  0  0
    7.6960    1.9110   22.9030 N   0  0  0  0  0  0  0  0  0  0  0  0
    8.3130    1.3510   20.6950 O   0  0  0  0  0  0  0  0  0  0  0  0
    6.0610   -2.7360   21.3360 C   0  0  0  0  0  0  0  0  0  0  0  0
    6.7590   -0.2570   21.8890 C   0  0  1  0  0  0  0  0  0  0  0  0
    7.6770    1.0420   21.7010 C   0  0  0  0  0  0  0  0  0  0  0  0
    8.6960    2.9540   23.1960 C   0  0  0  0  0  0  0  0  0  0  0  0
    8.7510    2.8870   24.7250 C   0  0  0  0  0  0  0  0  0  0  0  0
    8.2680    4.3680   22.7600 C   0  0  0  0  0  0  0  0  0  0  0  0
   10.0890    2.6560   22.6420 C   0  0  0  0  0  0  0  0  0  0  0  0
   11.6960   -1.3810   24.0070 C   0  0  0  0  0  0  0  0  0  0  0  0
   12.6440   -1.0400   23.0280 C   0  0  0  0  0  0  0  0  0  0  0  0
   12.4870   -0.1280   24.2010 C   0  0  0  0  0  0  0  0  0  0  0  0
   12.6480   -2.3940   23.4460 C   0  0  0  0  0  0  0  0  0  0  0  0
    6.5750    0.2600   18.0340 N   0  0  0  0  0  0  0  0  0  0  0  0
    5.5900    1.2090   18.0170 C   0  0  0  0  0  0  0  0  0  0  0  0
    4.9820    1.7140   19.1350 C   0  0  0  0  0  0  0  0  0  0  0  0
    5.3190    1.2940   20.4140 C   0  0  0  0  0  0  0  0  0  0  0  0
    6.3330    0.3040   20.5270 C   0  0  0  0  0  0  0  0  0  0  0  0
    6.9970   -0.2410   19.2780 C   0  0  0  0  0  0  0  0  0  0  0  0
    9.3740   -2.0810   24.1260 O   0  0  0  0  0  0  0  0  0  0  0  0
    8.0160   -1.8250   23.5920 N   0  0  0  0  0  0  0  0  0  0  0  0
    8.0640   -0.8130   22.6390 C   0  0  0  0  0  0  0  0  0  0  0  0
    9.4480   -0.5140   22.6270 C   0  0  0  0  0  0  0  0  0  0  0  0
   10.2570   -1.2570   23.5300 C   0  0  0  0  0  0  0  0  0  0  0  0
   12.5430    1.9420   23.0320 C   0  0  0  0  0  0  0  0  0  0  0  0
   12.9320    0.6200   22.9440 C   0  0  0  0  0  0  0  0  0  0  0  0
  2  4  1  0
  1  7  1  0
  3  7  2  0
  4  7  1  0
  8  1  1  6
  5  9  1  0
  6  9  2  0
  8  9  1  0
 10  5  1  0
 10 11  1  0
 10 12  1  0
 10 13  1  0
 14 15  1  0
 14 16  1  0
 14 17  1  0
 18 19  2  0
 19 20  1  0
 20 21  2  0
  8 22  1  0
 21 22  1  0
 18 23  1  0
 22 23  2  0
 24 25  1  0
  8 26  1  0
 25 26  2  0
 26 27  1  0
 14 28  1  0
 24 28  1  0
 27 28  2  0
 16 30  1  0
 29 30  1  0
M  END
