x2540-x3113
     RDKit          3D

 33 36  0  0  0  0  0  0  0  0999 V2000
    7.1370   -1.8080   21.6020 N   0  0  0  0  0  0  0  0  0  0  0  0
    8.2480   -4.5250   21.0130 C   0  0  0  0  0  0  0  0  0  0  0  0
    4.9400   -3.1070   21.1010 O   0  0  0  0  0  0  0  0  0  0  0  0
    6.8950   -4.3310   21.7530 C   0  0  0  0  0  0  0  0  0  0  0  0
    7.8480    1.3910   23.0870 N   0  0  0  0  0  0  0  0  0  0  0  0
    8.9810    0.4810   21.2840 O   0  0  0  0  0  0  0  0  0  0  0  0
    6.2300   -3.0000   21.4530 C   0  0  0  0  0  0  0  0  0  0  0  0
   11.5530    3.6350   22.4570 O   0  0  0  0  0  0  0  0  0  0  0  0
    6.6600   -0.3870   21.4850 C   0  0  1  0  0  0  0  0  0  0  0  0
    7.9340    0.4890   21.9100 C   0  0  0  0  0  0  0  0  0  0  0  0
    8.8920    2.4160   23.3840 C   0  0  0  0  0  0  0  0  0  0  0  0
   10.2400    1.7100   23.0790 C   0  0  0  0  0  0  0  0  0  0  0  0
   11.3120    2.7630   23.4770 C   0  0  0  0  0  0  0  0  0  0  0  0
   12.7350    4.3100   22.6240 C   0  0  0  0  0  0  0  0  0  0  0  0
   12.7510   -1.6590   24.9750 C   0  0  2  0  0  0  0  0  0  0  0  0
   12.6870   -2.7280   24.2070 C   0  0  0  0  0  0  0  0  0  0  0  0
   13.6580   -2.8340   25.0070 C   0  0  0  0  0  0  0  0  0  0  0  0
   13.1200   -1.0950   23.6110 C   0  0  0  0  0  0  0  0  0  0  0  0
    8.7220    2.7740   24.7450 C   0  0  0  0  0  0  0  0  0  0  0  0
    8.6880    3.6920   22.5820 C   0  0  0  0  0  0  0  0  0  0  0  0
   11.8720   -1.4190   23.9130 C   0  0  2  0  0  0  0  0  0  0  0  0
    6.4310    0.3380   17.8800 N   0  0  0  0  0  0  0  0  0  0  0  0
    5.3440    1.1300   17.8340 C   0  0  0  0  0  0  0  0  0  0  0  0
    4.5880    1.4670   19.0490 C   0  0  0  0  0  0  0  0  0  0  0  0
    5.0530    0.9450   20.1840 C   0  0  0  0  0  0  0  0  0  0  0  0
    6.1900    0.1330   20.1820 C   0  0  0  0  0  0  0  0  0  0  0  0
    6.8710   -0.1660   18.9940 C   0  0  0  0  0  0  0  0  0  0  0  0
    9.6200   -1.8070   22.0540 C   0  0  0  0  0  0  0  0  0  0  0  0
   10.8510   -1.6620   22.7710 C   0  0  0  0  0  0  0  0  0  0  0  0
   10.3940   -1.3900   24.0780 C   0  0  0  0  0  0  0  0  0  0  0  0
    9.1730   -1.2440   24.7550 C   0  0  0  0  0  0  0  0  0  0  0  0
    7.9230   -1.4060   23.9310 C   0  0  0  0  0  0  0  0  0  0  0  0
    8.2650   -1.6960   22.4900 C   0  0  0  0  0  0  0  0  0  0  0  0
  2  4  1  0
  1  7  1  0
  3  7  2  0
  4  7  1  0
  1  9  1  0
  5 10  1  0
  6 10  2  0
  9 10  1  6
 11  5  1  0
 11 12  1  0
  8 13  1  0
 12 13  1  0
  8 14  1  0
 15 16  1  0
 15 17  1  1
 15 18  1  0
 11 19  1  0
 11 20  1  0
 15 21  1  0
 16 21  1  0
 18 21  1  0
 22 23  2  0
 23 24  1  0
 24 25  2  0
  9 26  1  0
 25 26  1  0
 22 27  1  0
 26 27  2  0
 21 29  1  1
 28 29  2  0
 29 30  1  0
 30 31  2  0
 31 32  1  0
  1 33  1  0
 28 33  1  0
 32 33  2  0
M  END
