x2540-x0426-x3113-x0734
     RDKit          3D

 59 66  0  0  0  0  0  0  0  0999 V2000
    7.0630   -1.9440   22.0220 C   0  0  2  0  0  0  0  0  0  0  0  0
    8.3290   -4.5480   20.8850 C   0  0  0  0  0  0  0  0  0  0  0  0
    5.0650   -3.2430   20.7750 O   0  0  0  0  0  0  0  0  0  0  0  0
    7.8870    1.4400   23.1070 N   0  0  0  0  0  0  0  0  0  0  0  0
    8.5210    1.1420   20.9620 O   0  0  0  0  0  0  0  0  0  0  0  0
    6.2660   -3.1270   21.3010 C   0  0  0  0  0  0  0  0  0  0  0  0
   11.6970    3.8240   22.3760 O   0  0  0  0  0  0  0  0  0  0  0  0
    6.7850   -0.3650   21.7110 C   0  0  1  0  0  0  0  0  0  0  0  0
    7.8010    0.7770   21.9040 C   0  0  0  0  0  0  0  0  0  0  0  0
    8.9540    2.3820   23.3160 C   0  0  0  0  0  0  0  0  0  0  0  0
   10.3730    1.8870   23.1200 C   0  0  0  0  0  0  0  0  0  0  0  0
   11.4810    2.9110   23.4410 C   0  0  0  0  0  0  0  0  0  0  0  0
   12.9320    4.5140   22.5520 C   0  0  0  0  0  0  0  0  0  0  0  0
   13.3700   -1.4020   23.8680 C   0  0  1  0  0  0  0  0  0  0  0  0
   13.2810   -1.8880   22.4650 C   0  0  0  0  0  0  0  0  0  0  0  0
   13.1300   -2.4730   24.9390 C   0  0  0  0  0  0  0  0  0  0  0  0
   12.6910   -0.0790   24.0020 C   0  0  0  0  0  0  0  0  0  0  0  0
    8.8770    2.7900   24.7750 C   0  0  0  0  0  0  0  0  0  0  0  0
    8.6490    3.6710   22.5200 C   0  0  0  0  0  0  0  0  0  0  0  0
   12.1650   -1.0170   22.9230 C   0  0  2  0  0  0  0  0  0  0  0  0
    2.3320    1.7840   23.7680 C   0  0  0  0  0  0  0  0  0  0  0  0
    2.2650    0.5510   23.7240 O   0  0  0  0  0  0  0  0  0  0  0  0
    3.3510    2.5010   23.1610 N   0  0  0  0  0  0  0  0  0  0  0  0
    4.4310    1.8530   22.3750 C   0  0  0  0  0  0  0  0  0  0  0  0
    3.8950    0.9830   21.4300 C   0  0  0  0  0  0  0  0  0  0  0  0
    2.8080    4.2730   25.1880 F   0  0  0  0  0  0  0  0  0  0  0  0
    5.1270   -4.8930   26.4220 N   0  0  0  0  0  0  0  0  0  0  0  0
    4.4390   -5.7080   25.7890 O   0  0  0  0  0  0  0  0  0  0  0  0
    4.6560   -3.7110   26.9470 O   0  0  0  0  0  0  0  0  0  0  0  0
    6.4110    0.3540   17.9030 N   0  0  0  0  0  0  0  0  0  0  0  0
    5.1970    0.9490   17.9070 C   0  0  0  0  0  0  0  0  0  0  0  0
    4.4250    1.1300   19.0540 C   0  0  0  0  0  0  0  0  0  0  0  0
    4.8810    0.7080   20.3030 C   0  0  0  0  0  0  0  0  0  0  0  0
    6.1510    0.0940   20.4030 C   0  0  0  0  0  0  0  0  0  0  0  0
    6.9020   -0.0700   19.0740 C   0  0  0  0  0  0  0  0  0  0  0  0
    9.7290   -1.4270   22.2500 C   0  0  0  0  0  0  0  0  0  0  0  0
   10.8240   -1.5010   23.1550 C   0  0  0  0  0  0  0  0  0  0  0  0
   10.6500   -2.0940   24.5060 C   0  0  0  0  0  0  0  0  0  0  0  0
    9.4610   -2.5470   24.8850 C   0  0  0  0  0  0  0  0  0  0  0  0
    8.4060   -2.4560   24.0260 C   0  0  0  0  0  0  0  0  0  0  0  0
    8.4710   -1.9240   22.7290 C   0  0  0  0  0  0  0  0  0  0  0  0
    1.5680    3.7720   25.1820 C   0  0  0  0  0  0  0  0  0  0  0  0
    1.2860    2.5580   24.5030 C   0  0  0  0  0  0  0  0  0  0  0  0
   -0.0320    2.0580   24.5180 C   0  0  0  0  0  0  0  0  0  0  0  0
   -1.0450    2.7520   25.1930 C   0  0  0  0  0  0  0  0  0  0  0  0
   -0.7620    3.9230   25.8450 C   0  0  0  0  0  0  0  0  0  0  0  0
    0.5170    4.4480   25.8560 C   0  0  0  0  0  0  0  0  0  0  0  0
    6.5650   -4.9990   26.2500 C   0  0  0  0  0  0  0  0  0  0  0  0
    7.1600   -4.6480   25.0200 C   0  0  0  0  0  0  0  0  0  0  0  0
    8.5110   -4.8040   24.9930 C   0  0  0  0  0  0  0  0  0  0  0  0
    9.2660   -5.2730   26.0940 C   0  0  0  0  0  0  0  0  0  0  0  0
    8.6500   -5.6090   27.2980 C   0  0  0  0  0  0  0  0  0  0  0  0
    7.2690   -5.4650   27.3650 C   0  0  0  0  0  0  0  0  0  0  0  0
    7.1760   -4.3340   21.5120 C   0  0  1  0  0  0  0  0  0  0  0  0
    6.3110   -5.5720   21.8420 C   0  0  0  0  0  0  0  0  0  0  0  0
    5.6480   -5.2770   23.1870 C   0  0  0  0  0  0  0  0  0  0  0  0
    6.3680   -4.1870   23.9100 N   0  0  0  0  0  0  0  0  0  0  0  0
    6.3640   -2.8010   23.2270 C   0  0  1  0  0  0  0  0  0  0  0  0
    7.5670   -3.6930   22.8000 C   0  0  0  0  0  0  0  0  0  0  0  0
  1  6  1  0
  3  6  2  0
  1  8  1  0
  4  9  1  0
  5  9  2  0
  8  9  1  6
 10  4  1  0
 10 11  1  0
  7 12  1  0
 11 12  1  0
  7 13  1  0
 14 15  1  0
 14 16  1  6
 14 17  1  0
 10 18  1  0
 10 19  1  0
 14 20  1  0
 15 20  1  0
 17 20  1  0
 21 22  2  0
 21 23  1  0
 23 24  1  0
 24 25  1  0
 27 28  2  0
 27 29  1  0
 30 31  2  0
 31 32  1  0
 25 33  1  0
 32 33  2  0
  8 34  1  0
 33 34  1  0
 30 35  1  0
 34 35  2  0
 20 37  1  1
 36 37  2  0
 37 38  1  0
 38 39  2  0
 39 40  1  0
  1 41  1  1
 36 41  1  0
 40 41  2  0
 26 42  1  0
 21 43  1  0
 42 43  2  0
 43 44  1  0
 44 45  2  0
 45 46  1  0
 42 47  1  0
 46 47  2  0
 27 48  1  0
 48 49  2  0
 49 50  1  0
 50 51  2  0
 51 52  1  0
 48 53  1  0
 52 53  2  0
 54  2  1  6
  6 54  1  0
 54 55  1  0
 55 56  1  0
 49 57  1  0
 56 57  1  0
  1 58  1  0
 58 57  1  6
 54 59  1  0
 58 59  1  0
M  CHG  2  27   1  29  -1
M  END
