x2540-x3117-x3110-x0978
     RDKit          3D

 49 55  0  0  0  0  0  0  0  0999 V2000
    8.4800    0.9310   22.9290 N   0  0  0  0  0  0  0  0  0  0  0  0
   13.2370    5.2750   22.8950 C   0  0  0  0  0  0  0  0  0  0  0  0
   12.3690    3.1550   23.1220 O   0  0  0  0  0  0  0  0  0  0  0  0
   13.1000    3.8160   22.3910 C   0  0  0  0  0  0  0  0  0  0  0  0
    7.0690   -1.7140   21.5030 N   0  0  0  0  0  0  0  0  0  0  0  0
   11.2520    3.8110   23.4510 C   0  0  0  0  0  0  0  0  0  0  0  0
    8.1860    1.5500   20.5750 O   0  0  0  0  0  0  0  0  0  0  0  0
   10.5210    2.4380   23.5090 C   0  0  0  0  0  0  0  0  0  0  0  0
    4.7830   -2.9090   21.0940 O   0  0  0  0  0  0  0  0  0  0  0  0
    7.8100    0.7320   21.6690 C   0  0  0  0  0  0  0  0  0  0  0  0
    6.6970   -0.2920   21.4020 C   0  0  1  0  0  0  0  0  0  0  0  0
    6.2060   -2.9040   21.2490 C   0  0  0  0  0  0  0  0  0  0  0  0
    6.3950   -4.2920   21.1140 C   0  0  1  0  0  0  0  0  0  0  0  0
    7.8570   -4.6740   20.9750 C   0  0  0  0  0  0  0  0  0  0  0  0
   13.0170   -1.3880   24.1530 C   0  0  1  0  0  0  0  0  0  0  0  0
   12.1510   -0.2670   24.5840 C   0  0  0  0  0  0  0  0  0  0  0  0
   13.1840   -1.4880   22.6410 C   0  0  0  0  0  0  0  0  0  0  0  0
   13.1970   -2.5950   24.9860 C   0  0  0  0  0  0  0  0  0  0  0  0
    8.3800    1.9780   25.6760 C   0  0  0  0  0  0  0  0  0  0  0  0
   11.9430   -1.0280   23.2300 C   0  0  1  0  0  0  0  0  0  0  0  0
    2.2780   -5.5590   23.1400 N   0  0  0  0  0  0  0  0  0  0  0  0
    2.2330   -8.0420   24.4710 C   0  0  0  0  0  0  0  0  0  0  0  0
    4.4180   -7.9620   24.5470 O   0  0  0  0  0  0  0  0  0  0  0  0
    3.4920   -7.2090   24.3410 C   0  0  1  0  0  0  0  0  0  0  0  0
    5.5630   -4.9230   22.1000 N   0  0  0  0  0  0  0  0  0  0  0  0
    1.1050   -7.2650   22.0720 O   0  0  0  0  0  0  0  0  0  0  0  0
    3.5530   -6.3230   23.1310 C   0  0  2  0  0  0  0  0  0  0  0  0
    4.7790   -4.7720   24.2880 O   0  0  0  0  0  0  0  0  0  0  0  0
    1.0630   -6.1220   22.6440 C   0  0  0  0  0  0  0  0  0  0  0  0
   -0.3120   -5.4380   22.7400 C   0  0  0  0  0  0  0  0  0  0  0  0
    4.7110   -5.3050   23.1320 C   0  0  0  0  0  0  0  0  0  0  0  0
    6.3250    0.4810   17.7750 N   0  0  0  0  0  0  0  0  0  0  0  0
    5.2350    1.2450   17.7600 C   0  0  0  0  0  0  0  0  0  0  0  0
    4.5890    1.5000   18.9570 C   0  0  0  0  0  0  0  0  0  0  0  0
    5.0230    1.0110   20.1630 C   0  0  0  0  0  0  0  0  0  0  0  0
    6.1640    0.2280   20.1500 C   0  0  0  0  0  0  0  0  0  0  0  0
    6.7920   -0.0270   18.9400 C   0  0  0  0  0  0  0  0  0  0  0  0
    9.5450   -1.2780   22.2440 C   0  0  0  0  0  0  0  0  0  0  0  0
   10.6130   -1.5980   23.1110 C   0  0  0  0  0  0  0  0  0  0  0  0
   10.4340   -2.5990   24.0440 C   0  0  0  0  0  0  0  0  0  0  0  0
    9.2100   -3.2260   24.0800 C   0  0  0  0  0  0  0  0  0  0  0  0
    8.1670   -2.8910   23.2320 C   0  0  0  0  0  0  0  0  0  0  0  0
    8.2930   -1.9030   22.2760 C   0  0  0  0  0  0  0  0  0  0  0  0
    9.4760    5.2850   24.0360 O   0  0  0  0  0  0  0  0  0  0  0  0
   10.0640    4.0370   23.7310 C   0  0  0  0  0  0  0  0  0  0  0  0
    8.8580    2.6980   23.7310 S   0  0  0  0  0  0  0  0  0  0  0  0
    7.2150    3.2160   23.0520 C   0  0  0  0  0  0  0  0  0  0  0  0
    7.8250    4.2810   23.6760 C   0  0  2  0  0  0  0  0  0  0  0  0
    8.5370    5.2740   23.0110 C   0  0  0  0  0  0  0  0  0  0  0  0
  2  4  1  0
  3  4  1  0
  3  6  1  0
  6  8  1  0
  1 10  1  0
  7 10  2  0
  5 11  1  0
 11 10  1  6
  5 12  1  0
  9 12  2  0
 12 13  1  0
 13 14  1  1
 15 16  1  0
 15 17  1  0
 15 18  1  6
 15 20  1  0
 16 20  1  0
 17 20  1  0
 24 22  1  6
 23 24  1  0
 13 25  1  0
 27 21  1  1
 24 27  1  0
 21 29  1  0
 26 29  2  0
 29 30  1  0
 25 31  1  0
 27 31  1  0
 28 31  2  0
 32 33  2  0
 33 34  1  0
 34 35  2  0
 11 36  1  0
 35 36  1  0
 32 37  1  0
 36 37  2  0
 20 39  1  1
 38 39  2  0
 39 40  1  0
 40 41  2  0
 41 42  1  0
  5 43  1  0
 38 43  1  0
 42 43  2  0
  6 45  2  0
 44 45  1  0
  1 46  1  0
  8 46  1  0
 19 46  1  0
 45 46  1  0
 46 47  1  0
 46 48  1  0
 48 47  1  6
 44 49  1  0
 48 49  1  0
M  END
