x2540-x0731-x3113
     RDKit          3D

 50 56  0  0  0  0  0  0  0  0999 V2000
    6.8090   -1.5060   22.0780 C   0  0  1  0  0  0  0  0  0  0  0  0
    6.8360   -4.0940   20.0100 C   0  0  0  0  0  0  0  0  0  0  0  0
    4.8430   -3.1040   21.3570 O   0  0  0  0  0  0  0  0  0  0  0  0
    6.5220   -2.6650   19.9200 C   0  0  0  0  0  0  0  0  0  0  0  0
    7.8040    1.6350   23.1830 N   0  0  0  0  0  0  0  0  0  0  0  0
    8.5660    1.3520   20.8970 O   0  0  0  0  0  0  0  0  0  0  0  0
    5.9650   -2.4560   21.1520 C   0  0  0  0  0  0  0  0  0  0  0  0
   11.6950    3.8020   22.3810 O   0  0  0  0  0  0  0  0  0  0  0  0
    6.4400    0.0480   21.8050 C   0  0  1  0  0  0  0  0  0  0  0  0
    7.6640    1.0410   21.9560 C   0  0  0  0  0  0  0  0  0  0  0  0
    8.8600    2.6180   23.4820 C   0  0  0  0  0  0  0  0  0  0  0  0
   10.2550    2.0290   23.1620 C   0  0  0  0  0  0  0  0  0  0  0  0
   11.4240    2.9030   23.4500 C   0  0  0  0  0  0  0  0  0  0  0  0
   12.9290    4.4920   22.5870 C   0  0  0  0  0  0  0  0  0  0  0  0
   13.0100   -1.8680   24.1000 C   0  0  1  0  0  0  0  0  0  0  0  0
   13.3370   -2.1150   22.6700 C   0  0  0  0  0  0  0  0  0  0  0  0
   12.2490   -2.9330   24.8570 C   0  0  0  0  0  0  0  0  0  0  0  0
   12.4960   -0.4620   24.2490 C   0  0  0  0  0  0  0  0  0  0  0  0
    8.6950    2.9590   24.8960 C   0  0  0  0  0  0  0  0  0  0  0  0
    8.6160    3.9040   22.6560 C   0  0  0  0  0  0  0  0  0  0  0  0
   12.2190   -1.1950   22.9200 C   0  0  2  0  0  0  0  0  0  0  0  0
    1.1170   -0.9880   26.1700 C   0  0  0  0  0  0  0  0  0  0  0  0
    6.1670   -5.1560   26.5410 O   0  0  0  0  0  0  0  0  0  0  0  0
    4.4010   -6.7100   25.6630 O   0  0  0  0  0  0  0  0  0  0  0  0
    5.1160   -5.4580   25.5980 S   0  0  0  0  0  0  0  0  0  0  0  0
    6.2530   -2.5020   23.0590 C   0  0  0  0  0  0  0  0  0  0  0  0
    6.4140    0.4290   18.0000 N   0  0  0  0  0  0  0  0  0  0  0  0
    5.2960    1.1420   17.8690 C   0  0  0  0  0  0  0  0  0  0  0  0
    4.5170    1.5040   18.9730 C   0  0  0  0  0  0  0  0  0  0  0  0
    4.8890    1.1350   20.2740 C   0  0  0  0  0  0  0  0  0  0  0  0
    6.0190    0.4240   20.4080 C   0  0  0  0  0  0  0  0  0  0  0  0
    6.7430    0.0930   19.2500 C   0  0  0  0  0  0  0  0  0  0  0  0
    9.4860   -1.4590   21.8650 C   0  0  0  0  0  0  0  0  0  0  0  0
   10.8820   -1.3380   22.2720 C   0  0  0  0  0  0  0  0  0  0  0  0
   10.7250   -1.2320   23.6730 C   0  0  0  0  0  0  0  0  0  0  0  0
    9.6390   -1.2260   24.4980 C   0  0  0  0  0  0  0  0  0  0  0  0
    8.4050   -1.3320   23.9430 C   0  0  0  0  0  0  0  0  0  0  0  0
    8.2980   -1.4460   22.5880 C   0  0  0  0  0  0  0  0  0  0  0  0
    2.1120   -2.0960   26.0140 C   0  0  0  0  0  0  0  0  0  0  0  0
    1.7460   -3.3060   25.4170 C   0  0  0  0  0  0  0  0  0  0  0  0
    2.6480   -4.3560   25.2710 C   0  0  0  0  0  0  0  0  0  0  0  0
    3.9490   -4.1780   25.7400 C   0  0  0  0  0  0  0  0  0  0  0  0
    4.3260   -2.9720   26.3310 C   0  0  0  0  0  0  0  0  0  0  0  0
    3.4160   -1.9460   26.4650 C   0  0  0  0  0  0  0  0  0  0  0  0
    6.7170   -4.6100   21.4630 N   0  0  0  0  0  0  0  0  0  0  0  0
    7.0730   -3.8240   22.7060 C   0  0  2  0  0  0  0  0  0  0  0  0
    7.0180   -4.5920   23.8710 C   0  0  0  0  0  0  0  0  0  0  0  0
    5.7140   -5.2260   24.0150 N   0  0  0  0  0  0  0  0  0  0  0  0
    5.4070   -6.1240   22.9580 C   0  0  0  0  0  0  0  0  0  0  0  0
    6.1940   -5.9040   21.7740 C   0  0  0  0  0  0  0  0  0  0  0  0
  2  4  1  0
  1  7  1  0
  3  7  2  0
  4  7  1  0
  1  9  1  0
  5 10  1  0
  6 10  2  0
  9 10  1  6
 11  5  1  0
 11 12  1  0
  8 13  1  0
 12 13  1  0
  8 14  1  0
 15 16  1  0
 15 17  1  6
 15 18  1  0
 11 19  1  0
 11 20  1  0
 15 21  1  0
 16 21  1  0
 18 21  1  0
 23 25  2  0
 24 25  2  0
  1 26  1  0
 27 28  2  0
 28 29  1  0
 29 30  2  0
  9 31  1  0
 30 31  1  0
 27 32  1  0
 31 32  2  0
 21 34  1  6
 33 34  2  0
 34 35  1  0
 35 36  2  0
 36 37  1  0
  1 38  1  6
 33 38  1  0
 37 38  2  0
 22 39  1  0
 39 40  2  0
 40 41  1  0
 25 42  1  0
 41 42  2  0
 42 43  1  0
 39 44  1  0
 43 44  2  0
  2 45  1  0
 46 26  1  1
 45 46  1  0
 46 47  1  0
 25 48  1  0
 47 48  1  0
 48 49  1  0
 45 50  1  0
 49 50  1  0
M  END
