x2540-x0874
     RDKit          3D

 30 32  0  0  0  0  0  0  0  0999 V2000
    7.0430   -2.1850   21.8900 N   0  0  0  0  0  0  0  0  0  0  0  0
    6.9410   -5.5670   21.0530 C   0  0  0  0  0  0  0  0  0  0  0  0
    4.9320   -3.2840   21.3760 O   0  0  0  0  0  0  0  0  0  0  0  0
    6.6640   -4.6610   22.2500 C   0  0  0  0  0  0  0  0  0  0  0  0
    7.5280    1.1830   22.9550 N   0  0  0  0  0  0  0  0  0  0  0  0
    8.8190    0.1220   21.4610 O   0  0  0  0  0  0  0  0  0  0  0  0
    6.1280   -3.3100   21.7990 C   0  0  0  0  0  0  0  0  0  0  0  0
    6.6510   -0.8250   21.7890 C   0  0  1  0  0  0  0  0  0  0  0  0
    7.7520    0.1810   22.0540 C   0  0  0  0  0  0  0  0  0  0  0  0
    8.2750    2.3900   22.9070 C   0  0  0  0  0  0  0  0  0  0  0  0
    8.4770    2.9390   24.1900 C   0  0  0  0  0  0  0  0  0  0  0  0
    7.6470    3.4150   21.9440 C   0  0  0  0  0  0  0  0  0  0  0  0
    9.5980    2.1130   22.4140 C   0  0  0  0  0  0  0  0  0  0  0  0
   11.2430   -2.3480   22.8200 C   0  0  0  0  0  0  0  0  0  0  0  0
   11.1110   -0.9220   22.8880 C   0  0  0  0  0  0  0  0  0  0  0  0
   10.9160   -3.0140   24.1920 C   0  0  0  0  0  0  0  0  0  0  0  0
    6.1830    0.0280   17.8860 N   0  0  0  0  0  0  0  0  0  0  0  0
    4.8200    0.5930   17.8170 C   0  0  0  0  0  0  0  0  0  0  0  0
    3.9890    0.6960   19.1110 C   0  0  0  0  0  0  0  0  0  0  0  0
    4.5520    0.2250   20.4730 C   0  0  0  0  0  0  0  0  0  0  0  0
    5.9950   -0.3590   20.4960 C   0  0  0  0  0  0  0  0  0  0  0  0
    6.7540   -0.4280   19.1540 C   0  0  0  0  0  0  0  0  0  0  0  0
   10.6910   -2.1020   23.6660 N   0  0  0  0  0  0  0  0  0  0  0  0
    9.1460   -2.0280   23.5340 N   0  0  0  0  0  0  0  0  0  0  0  0
    8.4330   -2.2630   22.2460 C   0  0  0  0  0  0  0  0  0  0  0  0
    9.4010   -2.5520   21.4050 C   0  0  0  0  0  0  0  0  0  0  0  0
   10.6230   -2.4840   22.0680 C   0  0  0  0  0  0  0  0  0  0  0  0
   11.7430   -2.7460   21.2810 C   0  0  0  0  0  0  0  0  0  0  0  0
   12.9430   -2.5640   22.3700 S   0  0  0  0  0  0  0  0  0  0  0  0
   12.1690   -2.1720   23.7920 C   0  0  0  0  0  0  0  0  0  0  0  0
  2  4  1  0
  1  7  1  0
  3  7  2  0
  4  7  1  0
  1  8  1  0
  5  9  1  0
  6  9  2  0
  8  9  1  6
 10  5  1  0
 10 11  1  0
 10 12  1  0
 10 13  1  0
 14 15  1  0
 14 16  1  0
 17 18  2  0
 18 19  1  0
 19 20  2  0
  8 21  1  0
 20 21  1  0
 17 22  1  0
 21 22  2  0
 23 24  1  0
  1 25  1  0
 24 25  1  0
 25 26  2  0
 23 27  1  0
 26 27  1  0
 27 28  2  0
 14 29  1  0
 28 29  1  0
 23 30  1  0
 29 30  2  0
M  END
