x2540-x0786
     RDKit          3D

 44 47  0  0  0  0  0  0  0  0999 V2000
    6.8590   -1.2300   22.1000 C   0  0  2  0  0  0  0  0  0  0  0  0
    6.7890   -3.6580   19.7670 C   0  0  0  0  0  0  0  0  0  0  0  0
    5.0660   -3.3080   21.0720 O   0  0  0  0  0  0  0  0  0  0  0  0
    7.0220   -3.0010   21.1370 C   0  0  0  0  0  0  0  0  0  0  0  0
    8.1150    1.8520   23.1930 N   0  0  0  0  0  0  0  0  0  0  0  0
    8.6320    1.5540   20.7530 O   0  0  0  0  0  0  0  0  0  0  0  0
    5.7550   -2.3010   21.5760 C   0  0  0  0  0  0  0  0  0  0  0  0
    6.7430    0.2300   21.6910 C   0  0  1  0  0  0  0  0  0  0  0  0
    7.8790    1.2360   21.9110 C   0  0  0  0  0  0  0  0  0  0  0  0
    9.0170    2.9760   23.4010 C   0  0  0  0  0  0  0  0  0  0  0  0
    8.9330    3.2580   24.8880 C   0  0  0  0  0  0  0  0  0  0  0  0
    8.5020    4.2070   22.6330 C   0  0  0  0  0  0  0  0  0  0  0  0
   10.4680    2.6740   22.9740 C   0  0  0  0  0  0  0  0  0  0  0  0
   12.0140   -1.3480   23.5000 C   0  0  0  0  0  0  0  0  0  0  0  0
   12.3160   -0.1340   24.0780 C   0  0  0  0  0  0  0  0  0  0  0  0
   12.7800   -0.2910   22.7810 C   0  0  0  0  0  0  0  0  0  0  0  0
   12.8320   -2.5140   24.0370 C   0  0  0  0  0  0  0  0  0  0  0  0
    6.3870    0.3360   17.9780 N   0  0  0  0  0  0  0  0  0  0  0  0
    5.2730    1.2270   17.7220 C   0  0  0  0  0  0  0  0  0  0  0  0
    4.6150    1.7880   18.7810 C   0  0  0  0  0  0  0  0  0  0  0  0
    5.0720    1.4700   20.0380 C   0  0  0  0  0  0  0  0  0  0  0  0
    6.2070    0.5770   20.3640 C   0  0  0  0  0  0  0  0  0  0  0  0
    6.8020    0.0520   19.2920 C   0  0  0  0  0  0  0  0  0  0  0  0
    9.9680   -2.6310   23.7990 O   0  0  0  0  0  0  0  0  0  0  0  0
    8.6050   -2.7000   23.4750 N   0  0  0  0  0  0  0  0  0  0  0  0
    8.2920   -1.5990   22.6440 C   0  0  0  0  0  0  0  0  0  0  0  0
    9.5200   -0.9160   22.4880 C   0  0  0  0  0  0  0  0  0  0  0  0
   10.5340   -1.5390   23.2020 C   0  0  0  0  0  0  0  0  0  0  0  0
    3.8230   -8.0870   24.7100 O   0  0  0  0  0  0  0  0  0  0  0  0
    3.3420   -7.0530   24.2720 C   0  0  0  0  0  0  0  0  0  0  0  0
    6.0830   -4.4120   23.4980 C   0  0  0  0  0  0  0  0  0  0  0  0
    5.3640   -5.6240   23.3410 C   0  0  0  0  0  0  0  0  0  0  0  0
    4.1710   -5.8480   24.3130 C   0  0  0  0  0  0  0  0  0  0  0  0
    3.8490   -4.7520   25.3640 C   0  0  0  0  0  0  0  0  0  0  0  0
    4.6680   -3.4880   25.4580 C   0  0  0  0  0  0  0  0  0  0  0  0
    5.7990   -3.4240   24.4420 C   0  0  0  0  0  0  0  0  0  0  0  0
    1.4280   -5.6350   23.3020 C   0  0  0  0  0  0  0  0  0  0  0  0
    0.5850   -5.1150   24.2870 C   0  0  0  0  0  0  0  0  0  0  0  0
   -0.9080   -6.1520   24.3240 S   0  0  0  0  0  0  0  0  0  0  0  0
   -0.0340   -7.6820   24.8130 C   0  0  0  0  0  0  0  0  0  0  0  0
    1.0110   -8.0160   23.9350 C   0  0  0  0  0  0  0  0  0  0  0  0
    1.9830   -6.9150   23.7300 N   0  0  0  0  0  0  0  0  0  0  0  0
    6.2380   -1.1140   23.5020 C   0  0  0  0  0  0  0  0  0  0  0  0
    6.6330   -2.1740   24.5260 C   0  0  0  0  0  0  0  0  0  0  0  0
  2  4  1  0
  1  7  1  0
  3  7  2  0
  4  7  1  0
  1  8  1  0
  5  9  1  0
  6  9  2  0
  8  9  1  6
 10  5  1  0
 10 11  1  0
 10 12  1  0
 10 13  1  0
 14 15  1  0
 14 16  1  0
 14 17  1  0
 18 19  2  0
 19 20  1  0
 20 21  2  0
  8 22  1  0
 21 22  1  0
 18 23  1  0
 22 23  2  0
 24 25  1  0
  1 26  1  0
 25 26  2  0
 26 27  1  0
 14 28  1  0
 24 28  1  0
 27 28  2  0
 29 30  2  0
 31 32  2  0
 30 33  1  0
 32 33  1  0
 33 34  2  0
 34 35  1  0
 31 36  1  0
 35 36  2  0
 37 38  1  0
 38 39  1  0
 39 40  1  0
 40 41  1  0
 30 42  1  0
 37 42  1  0
 41 42  1  0
  1 43  1  1
 36 44  1  0
 43 44  1  0
M  END
