x2540-x0981
     RDKit          3D

 44 45  0  0  0  0  0  0  0  0999 V2000
    6.7770   -1.4010   22.1250 C   0  0  1  0  0  0  0  0  0  0  0  0
    6.7510   -3.3820   18.9980 C   0  0  0  0  0  0  0  0  0  0  0  0
    4.9360   -3.0990   21.1190 O   0  0  0  0  0  0  0  0  0  0  0  0
    6.8150   -2.1160   19.7800 C   0  0  0  0  0  0  0  0  0  0  0  0
    8.0200    1.8060   23.2990 N   0  0  0  0  0  0  0  0  0  0  0  0
    8.3920    1.4080   20.8140 O   0  0  0  0  0  0  0  0  0  0  0  0
    6.0550   -2.3040   21.0260 C   0  0  0  0  0  0  0  0  0  0  0  0
    6.5170    0.0970   21.8760 C   0  0  1  0  0  0  0  0  0  0  0  0
    7.6890    1.1310   22.0370 C   0  0  0  0  0  0  0  0  0  0  0  0
    8.9480    2.9500   23.4240 C   0  0  0  0  0  0  0  0  0  0  0  0
    9.0000    3.3770   24.9050 C   0  0  0  0  0  0  0  0  0  0  0  0
    8.3860    4.1350   22.6150 C   0  0  0  0  0  0  0  0  0  0  0  0
   10.3640    2.6500   22.8900 C   0  0  0  0  0  0  0  0  0  0  0  0
   12.0630   -1.5490   23.3690 C   0  0  0  0  0  0  0  0  0  0  0  0
   12.8630   -1.1450   22.3080 C   0  0  0  0  0  0  0  0  0  0  0  0
   12.6650   -0.1800   23.4980 C   0  0  0  0  0  0  0  0  0  0  0  0
   12.6630   -2.4550   24.4400 C   0  0  0  0  0  0  0  0  0  0  0  0
    1.2330   -8.6710   21.4250 C   0  0  0  0  0  0  0  0  0  0  0  0
    2.6920   -7.3990   22.8650 N   0  0  0  0  0  0  0  0  0  0  0  0
    0.4760   -6.4980   22.1990 O   0  0  0  0  0  0  0  0  0  0  0  0
    1.4070   -7.4920   22.1560 C   0  0  0  0  0  0  0  0  0  0  0  0
    2.2940   -8.3290   26.3300 N   0  0  0  0  0  0  0  0  0  0  0  0
    3.9900   -8.1200   24.5200 O   0  0  0  0  0  0  0  0  0  0  0  0
    2.9390   -6.1920   23.5850 C   0  0  1  0  0  0  0  0  0  0  0  0
    5.0300   -6.1480   22.3620 N   0  0  0  0  0  0  0  0  0  0  0  0
    4.9190   -4.9450   24.4580 O   0  0  0  0  0  0  0  0  0  0  0  0
    2.7390   -6.3040   25.0670 C   0  0  0  0  0  0  0  0  0  0  0  0
    3.0240   -7.6000   25.2880 C   0  0  0  0  0  0  0  0  0  0  0  0
    4.3240   -5.7650   23.4580 C   0  0  0  0  0  0  0  0  0  0  0  0
    6.2940   -5.6370   22.2810 C   0  0  0  0  0  0  0  0  0  0  0  0
    6.0360   -2.0690   23.2950 C   0  0  0  0  0  0  0  0  0  0  0  0
    6.3610   -3.4400   23.4080 C   0  0  0  0  0  0  0  0  0  0  0  0
    6.3740   -4.2460   22.2290 C   0  0  0  0  0  0  0  0  0  0  0  0
    6.4330    0.6170   17.8690 N   0  0  0  0  0  0  0  0  0  0  0  0
    5.3260    1.3290   17.7800 C   0  0  0  0  0  0  0  0  0  0  0  0
    4.3920    1.7770   18.9040 C   0  0  0  0  0  0  0  0  0  0  0  0
    4.8020    1.3430   20.3500 C   0  0  0  0  0  0  0  0  0  0  0  0
    6.0770    0.5170   20.5820 C   0  0  0  0  0  0  0  0  0  0  0  0
    6.8010    0.2190   19.2580 C   0  0  0  0  0  0  0  0  0  0  0  0
    9.8230   -1.7430   24.2620 O   0  0  0  0  0  0  0  0  0  0  0  0
    8.4720   -1.7230   23.9590 N   0  0  0  0  0  0  0  0  0  0  0  0
    8.3140   -1.4990   22.6390 C   0  0  0  0  0  0  0  0  0  0  0  0
    9.6140   -1.3940   22.1220 C   0  0  0  0  0  0  0  0  0  0  0  0
   10.5590   -1.5480   23.1580 C   0  0  0  0  0  0  0  0  0  0  0  0
  2  4  1  0
  1  7  1  0
  3  7  2  0
  4  7  1  0
  1  8  1  0
  5  9  1  0
  6  9  2  0
  8  9  1  6
 10  5  1  0
 10 11  1  0
 10 12  1  0
 10 13  1  0
 14 15  1  0
 14 16  1  0
 14 17  1  0
 18 21  1  0
 19 21  1  0
 20 21  2  0
 19 24  1  0
 24 27  1  1
 22 28  1  0
 23 28  2  0
 27 28  1  0
 24 29  1  0
 25 29  1  0
 26 29  2  0
 25 30  1  0
  1 31  1  1
 31 32  1  0
 30 33  1  0
 32 33  1  0
 34 35  2  0
 35 36  1  0
 36 37  2  0
  8 38  1  0
 37 38  1  0
 34 39  1  0
 38 39  2  0
 40 41  1  0
  1 42  1  0
 41 42  2  0
 42 43  1  0
 14 44  1  0
 40 44  1  0
 43 44  2  0
M  END
