x2540-x0691-x1493
     RDKit          3D

 49 53  0  0  0  0  0  0  0  0999 V2000
    6.7950   -1.2870   21.9760 C   0  0  1  0  0  0  0  0  0  0  0  0
    6.7620   -3.9880   19.7410 C   0  0  0  0  0  0  0  0  0  0  0  0
    4.7710   -2.8830   21.0410 O   0  0  0  0  0  0  0  0  0  0  0  0
    6.9810   -3.5850   21.1440 C   0  0  1  0  0  0  0  0  0  0  0  0
    7.7460    1.9320   23.1460 N   0  0  0  0  0  0  0  0  0  0  0  0
    8.5850    1.5250   20.9100 O   0  0  0  0  0  0  0  0  0  0  0  0
    6.0340   -2.5380   21.3340 C   0  0  0  0  0  0  0  0  0  0  0  0
    6.5420    0.1890   21.6670 C   0  0  1  0  0  0  0  0  0  0  0  0
    7.6830    1.2450   21.9090 C   0  0  0  0  0  0  0  0  0  0  0  0
    8.7960    2.9400   23.3070 C   0  0  0  0  0  0  0  0  0  0  0  0
    9.2480    3.0730   24.7340 C   0  0  0  0  0  0  0  0  0  0  0  0
    8.4100    4.0950   22.6110 C   0  0  0  0  0  0  0  0  0  0  0  0
   10.0970    2.4830   22.6880 C   0  0  0  0  0  0  0  0  0  0  0  0
   12.0830   -1.3330   23.4500 C   0  0  0  0  0  0  0  0  0  0  0  0
   12.7150   -1.3410   22.2140 C   0  0  0  0  0  0  0  0  0  0  0  0
   12.4860   -0.0370   24.1740 C   0  0  0  0  0  0  0  0  0  0  0  0
   12.6530   -2.4870   24.3050 C   0  0  0  0  0  0  0  0  0  0  0  0
    3.3600   -6.6720   25.9180 O   0  0  0  0  0  0  0  0  0  0  0  0
    5.0210   -5.0110   27.1440 O   0  0  0  0  0  0  0  0  0  0  0  0
    2.9090   -0.1290   26.0950 F   0  0  0  0  0  0  0  0  0  0  0  0
    4.1560   -5.2960   26.0220 S   0  0  0  0  0  0  0  0  0  0  0  0
    5.9780   -1.7200   23.1390 C   0  0  0  0  0  0  0  0  0  0  0  0
    5.3240   -3.1170   22.8570 C   0  0  0  0  0  0  0  0  0  0  0  0
    5.7630   -6.2500   24.9320 C   0  0  0  0  0  0  0  0  0  0  0  0
    6.9000   -5.0570   26.6900 O   0  0  0  0  0  0  0  0  0  0  0  0
    6.3230   -6.0750   26.3540 C   0  0  0  0  0  0  0  0  0  0  0  0
    6.3410    0.4100   17.8130 N   0  0  0  0  0  0  0  0  0  0  0  0
    5.2260    1.3590   17.7050 C   0  0  0  0  0  0  0  0  0  0  0  0
    4.5250    1.9100   18.9260 C   0  0  0  0  0  0  0  0  0  0  0  0
    4.9610    1.5100   20.1810 C   0  0  0  0  0  0  0  0  0  0  0  0
    6.1310    0.5300   20.2800 C   0  0  0  0  0  0  0  0  0  0  0  0
    6.7490    0.0330   19.1310 C   0  0  0  0  0  0  0  0  0  0  0  0
    9.8110   -1.8480   24.2730 O   0  0  0  0  0  0  0  0  0  0  0  0
    8.4360   -1.8650   23.9700 N   0  0  0  0  0  0  0  0  0  0  0  0
    8.2370   -1.4020   22.5810 C   0  0  0  0  0  0  0  0  0  0  0  0
    9.6020   -1.1390   22.1410 C   0  0  0  0  0  0  0  0  0  0  0  0
   10.5460   -1.4440   23.2960 C   0  0  0  0  0  0  0  0  0  0  0  0
    2.4940   -1.3970   26.0410 C   0  0  0  0  0  0  0  0  0  0  0  0
    3.4810   -2.5650   26.0520 C   0  0  0  0  0  0  0  0  0  0  0  0
    3.0320   -4.0170   25.9930 C   0  0  0  0  0  0  0  0  0  0  0  0
    1.5490   -4.2590   25.9120 C   0  0  0  0  0  0  0  0  0  0  0  0
    0.5930   -3.0880   25.9040 C   0  0  0  0  0  0  0  0  0  0  0  0
    1.1210   -1.6600   25.9760 C   0  0  0  0  0  0  0  0  0  0  0  0
    6.3520   -4.2440   22.3760 C   0  0  1  0  0  0  0  0  0  0  0  0
    5.4000   -5.4200   22.0990 C   0  0  0  0  0  0  0  0  0  0  0  0
    4.3480   -5.3970   23.2250 C   0  0  0  0  0  0  0  0  0  0  0  0
    5.0020   -5.0920   24.6290 C   0  0  1  0  0  0  0  0  0  0  0  0
    6.1940   -4.1120   24.6100 C   0  0  0  0  0  0  0  0  0  0  0  0
    7.1610   -4.2980   23.4520 C   0  0  0  0  0  0  0  0  0  0  0  0
  4  2  1  6
  1  7  1  0
  3  7  2  0
  4  7  1  0
  1  8  1  0
  5  9  1  0
  6  9  2  0
  8  9  1  6
 10  5  1  0
 10 11  1  0
 10 12  1  0
 10 13  1  0
 14 15  1  0
 14 16  1  0
 14 17  1  0
 18 21  2  0
 19 21  2  0
  1 22  1  0
 22 23  1  0
 24 26  1  0
 25 26  2  0
 27 28  2  0
 28 29  1  0
 29 30  2  0
  8 31  1  0
 30 31  1  0
 27 32  1  0
 31 32  2  0
 33 34  1  0
  1 35  1  1
 34 35  2  0
 35 36  1  0
 14 37  1  0
 33 37  1  0
 36 37  2  0
 20 38  1  0
 38 39  2  0
 21 40  1  0
 39 40  1  0
 40 41  2  0
 41 42  1  0
 38 43  1  0
 42 43  2  0
  4 44  1  0
 44 23  1  1
 44 45  1  0
 45 46  1  0
 21 47  1  0
 47 24  1  1
 46 47  1  0
 47 48  1  0
 44 49  1  0
 48 49  1  0
M  END
