x2540-x2754-x3113
     RDKit          3D

 48 54  0  0  0  0  0  0  0  0999 V2000
    6.9740   -1.7080   21.9780 C   0  0  2  0  0  0  0  0  0  0  0  0
    8.0970   -4.3430   21.0590 C   0  0  0  0  0  0  0  0  0  0  0  0
    5.2500   -3.6480   20.6440 O   0  0  0  0  0  0  0  0  0  0  0  0
    8.0330    1.5470   23.1770 N   0  0  0  0  0  0  0  0  0  0  0  0
    8.6410    1.2140   20.9800 O   0  0  0  0  0  0  0  0  0  0  0  0
    5.9360   -2.6870   21.1710 C   0  0  0  0  0  0  0  0  0  0  0  0
   11.5720    3.7250   22.5300 O   0  0  0  0  0  0  0  0  0  0  0  0
    6.7120   -0.1940   21.7140 C   0  0  1  0  0  0  0  0  0  0  0  0
    7.8550    0.8360   21.8500 C   0  0  0  0  0  0  0  0  0  0  0  0
    9.0830    2.4980   23.4110 C   0  0  0  0  0  0  0  0  0  0  0  0
   10.3640    2.0120   23.0950 C   0  0  0  0  0  0  0  0  0  0  0  0
   11.3890    2.9250   23.4380 C   0  0  0  0  0  0  0  0  0  0  0  0
   12.8340    4.4010   22.6520 C   0  0  0  0  0  0  0  0  0  0  0  0
   12.6120   -2.1120   24.4630 C   0  0  1  0  0  0  0  0  0  0  0  0
   13.4000   -2.5410   23.6020 C   0  0  0  0  0  0  0  0  0  0  0  0
   11.7700   -3.1730   25.1560 C   0  0  0  0  0  0  0  0  0  0  0  0
   12.3510   -0.8090   24.7070 C   0  0  0  0  0  0  0  0  0  0  0  0
    8.8110    2.7880   24.8670 C   0  0  0  0  0  0  0  0  0  0  0  0
    8.7230    3.6260   22.6330 C   0  0  0  0  0  0  0  0  0  0  0  0
   12.2660   -1.4780   23.3980 C   0  0  2  0  0  0  0  0  0  0  0  0
    4.8910   -3.0890   25.3410 C   0  0  0  0  0  0  0  0  0  0  0  0
    3.5150   -2.7560   25.0800 O   0  0  0  0  0  0  0  0  0  0  0  0
    5.4630   -3.1200   26.7040 N   0  0  0  0  0  0  0  0  0  0  0  0
    5.1710   -1.9980   27.4320 C   0  0  0  0  0  0  0  0  0  0  0  0
    6.3760    0.3180   17.8720 N   0  0  0  0  0  0  0  0  0  0  0  0
    5.2610    1.1150   17.8520 C   0  0  0  0  0  0  0  0  0  0  0  0
    4.6210    1.4690   19.0140 C   0  0  0  0  0  0  0  0  0  0  0  0
    5.1200    1.0180   20.2020 C   0  0  0  0  0  0  0  0  0  0  0  0
    6.2390    0.2140   20.3580 C   0  0  0  0  0  0  0  0  0  0  0  0
    6.8900   -0.1590   19.1760 C   0  0  0  0  0  0  0  0  0  0  0  0
    9.6690   -1.7120   21.9900 C   0  0  0  0  0  0  0  0  0  0  0  0
   11.0220   -1.6210   22.4580 C   0  0  0  0  0  0  0  0  0  0  0  0
   10.8550   -1.5050   23.8620 C   0  0  0  0  0  0  0  0  0  0  0  0
    9.7390   -1.4830   24.5810 C   0  0  0  0  0  0  0  0  0  0  0  0
    8.4920   -1.5680   23.9550 C   0  0  0  0  0  0  0  0  0  0  0  0
    8.4060   -1.6850   22.6010 C   0  0  0  0  0  0  0  0  0  0  0  0
    6.7790   -3.8430   21.7370 C   0  0  2  0  0  0  0  0  0  0  0  0
    7.1620   -3.0560   22.9920 C   0  0  0  0  0  0  0  0  0  0  0  0
    6.0660   -2.2060   23.2330 C   0  0  2  0  0  0  0  0  0  0  0  0
    5.7420   -3.4440   24.0960 C   0  0  2  0  0  0  0  0  0  0  0  0
    4.9220   -4.4590   23.2620 C   0  0  0  0  0  0  0  0  0  0  0  0
    5.8590   -4.9890   22.1780 C   0  0  0  0  0  0  0  0  0  0  0  0
    7.0270   -4.7640   27.6940 C   0  0  0  0  0  0  0  0  0  0  0  0
    8.4530   -5.3670   27.8570 C   0  0  0  0  0  0  0  0  0  0  0  0
    9.5250   -4.6490   27.0280 C   0  0  0  0  0  0  0  0  0  0  0  0
    9.1700   -3.5700   26.2310 C   0  0  0  0  0  0  0  0  0  0  0  0
    7.8480   -3.0940   26.1490 C   0  0  0  0  0  0  0  0  0  0  0  0
    6.7910   -3.6660   26.8560 C   0  0  0  0  0  0  0  0  0  0  0  0
  1  6  1  0
  3  6  2  0
  1  8  1  0
  4  9  1  0
  5  9  2  0
  8  9  1  6
 10  4  1  0
 10 11  1  0
  7 12  1  0
 11 12  1  0
  7 13  1  0
 14 15  1  0
 14 16  1  6
 14 17  1  0
 10 18  1  0
 10 19  1  0
 14 20  1  0
 15 20  1  0
 17 20  1  0
 21 22  2  0
 21 23  1  0
 23 24  1  0
 25 26  2  0
 26 27  1  0
 27 28  2  0
  8 29  1  0
 28 29  1  0
 25 30  1  0
 29 30  2  0
 20 32  1  6
 31 32  2  0
 32 33  1  0
 33 34  2  0
 34 35  1  0
  1 36  1  1
 31 36  1  0
 35 36  2  0
 37  2  1  6
  6 37  1  0
 37 38  1  0
  1 39  1  0
 39 38  1  1
 40 21  1  1
 39 40  1  0
 40 41  1  0
 37 42  1  0
 41 42  1  0
 43 44  2  0
 44 45  1  0
 45 46  2  0
 46 47  1  0
 23 48  1  0
 43 48  1  0
 47 48  2  0
M  END
