x2540-x0540
     RDKit          3D

 40 42  0  0  0  0  0  0  0  0999 V2000
    6.9310   -1.4480   21.8450 N   0  0  0  0  0  0  0  0  0  0  0  0
    7.1910   -3.3380   19.4510 C   0  0  0  0  0  0  0  0  0  0  0  0
    4.7660   -2.9980   21.3870 O   0  0  0  0  0  0  0  0  0  0  0  0
    6.9260   -3.7170   20.8770 C   0  0  0  0  0  0  0  0  0  0  0  0
    8.0150    1.5560   23.0390 N   0  0  0  0  0  0  0  0  0  0  0  0
    8.4780    1.4370   20.8580 O   0  0  0  0  0  0  0  0  0  0  0  0
    6.0720   -2.6390   21.4160 C   0  0  0  0  0  0  0  0  0  0  0  0
    6.6530   -0.0310   21.6590 C   0  0  1  0  0  0  0  0  0  0  0  0
    7.7890    1.0270   21.7970 C   0  0  0  0  0  0  0  0  0  0  0  0
    8.8670    2.6720   23.3010 C   0  0  0  0  0  0  0  0  0  0  0  0
    8.9500    2.8790   24.6720 C   0  0  0  0  0  0  0  0  0  0  0  0
    8.4200    3.9690   22.6050 C   0  0  0  0  0  0  0  0  0  0  0  0
   10.2170    2.3860   22.8880 C   0  0  0  0  0  0  0  0  0  0  0  0
   11.8680   -1.3530   23.5050 C   0  0  0  0  0  0  0  0  0  0  0  0
   12.6000   -1.1860   22.3150 C   0  0  0  0  0  0  0  0  0  0  0  0
   12.0960   -0.0990   24.3470 C   0  0  0  0  0  0  0  0  0  0  0  0
   12.2930   -2.3870   24.2590 C   0  0  0  0  0  0  0  0  0  0  0  0
    2.9770    1.4270   24.4720 O   0  0  0  0  0  0  0  0  0  0  0  0
    2.9530    2.3730   23.4850 C   0  0  0  0  0  0  0  0  0  0  0  0
    4.0320    2.6030   22.6670 N   0  0  0  0  0  0  0  0  0  0  0  0
    5.2030    1.7190   22.7950 C   0  0  0  0  0  0  0  0  0  0  0  0
    5.0890    0.6840   21.6090 C   0  0  0  0  0  0  0  0  0  0  0  0
    1.8020    3.2800   23.1510 N   0  0  0  0  0  0  0  0  0  0  0  0
    6.5060    0.3250   18.0050 N   0  0  0  0  0  0  0  0  0  0  0  0
    5.2660    0.9810   17.8370 C   0  0  0  0  0  0  0  0  0  0  0  0
    4.5320    1.2360   18.9700 C   0  0  0  0  0  0  0  0  0  0  0  0
    4.6890    1.0120   20.3810 C   0  0  0  0  0  0  0  0  0  0  0  0
    6.0110    0.3640   20.3000 C   0  0  0  0  0  0  0  0  0  0  0  0
    6.8430    0.0380   19.2320 C   0  0  0  0  0  0  0  0  0  0  0  0
    9.5390   -2.2090   24.3170 O   0  0  0  0  0  0  0  0  0  0  0  0
    8.2090   -2.2280   23.8520 N   0  0  0  0  0  0  0  0  0  0  0  0
    8.2200   -1.6250   22.6510 C   0  0  0  0  0  0  0  0  0  0  0  0
    9.5300   -1.2200   22.3290 C   0  0  0  0  0  0  0  0  0  0  0  0
   10.4050   -1.5630   23.3550 C   0  0  0  0  0  0  0  0  0  0  0  0
    0.5000    4.6080   24.5680 C   0  0  0  0  0  0  0  0  0  0  0  0
   -0.7510    5.0210   25.0380 C   0  0  0  0  0  0  0  0  0  0  0  0
   -1.8420    4.5930   24.3700 C   0  0  0  0  0  0  0  0  0  0  0  0
   -1.7620    3.3250   23.6450 C   0  0  0  0  0  0  0  0  0  0  0  0
   -0.4720    2.8300   23.3380 C   0  0  0  0  0  0  0  0  0  0  0  0
    0.6280    3.3250   24.0250 C   0  0  0  0  0  0  0  0  0  0  0  0
  2  4  1  0
  1  7  1  0
  3  7  2  0
  4  7  1  0
  1  8  1  0
  5  9  1  0
  6  9  2  0
  8  9  1  6
 10  5  1  0
 10 11  1  0
 10 12  1  0
 10 13  1  0
 14 15  1  0
 14 16  1  0
 14 17  1  0
 18 19  2  0
 19 20  1  0
 20 21  1  0
 21 22  1  0
 19 23  1  0
 24 25  2  0
 25 26  1  0
 22 27  1  0
 26 27  2  0
  8 28  1  0
 27 28  1  0
 24 29  1  0
 28 29  2  0
 30 31  1  0
  1 32  1  0
 31 32  2  0
 32 33  1  0
 14 34  1  0
 30 34  1  0
 33 34  2  0
 35 36  1  0
 36 37  1  0
 37 38  1  0
 38 39  1  0
 23 40  1  0
 35 40  1  0
 39 40  1  0
M  END
