x2540-x0771
     RDKit          3D

 47 51  0  0  0  0  0  0  0  0999 V2000
    6.9660   -1.3250   21.7910 C   0  0  2  0  0  0  0  0  0  0  0  0
    6.7390   -3.7580   20.0840 C   0  0  0  0  0  0  0  0  0  0  0  0
    4.9180   -3.0570   20.8190 O   0  0  0  0  0  0  0  0  0  0  0  0
    6.4520   -2.3320   20.1130 C   0  0  0  0  0  0  0  0  0  0  0  0
    7.8400    1.8440   23.1810 N   0  0  0  0  0  0  0  0  0  0  0  0
    8.6580    1.5810   20.9240 O   0  0  0  0  0  0  0  0  0  0  0  0
    5.7620   -2.2760   21.4020 C   0  0  0  0  0  0  0  0  0  0  0  0
    6.7060    0.1660   21.6070 C   0  0  1  0  0  0  0  0  0  0  0  0
    7.7770    1.2180   21.9130 C   0  0  0  0  0  0  0  0  0  0  0  0
    8.8210    2.8440   23.3750 C   0  0  0  0  0  0  0  0  0  0  0  0
    9.1920    2.9970   24.7000 C   0  0  0  0  0  0  0  0  0  0  0  0
    8.3610    4.0850   22.5750 C   0  0  0  0  0  0  0  0  0  0  0  0
   10.1460    2.4540   22.7580 C   0  0  0  0  0  0  0  0  0  0  0  0
   12.0820   -1.3470   23.4590 C   0  0  0  0  0  0  0  0  0  0  0  0
   12.8260   -1.2740   22.2740 C   0  0  0  0  0  0  0  0  0  0  0  0
   12.3710   -0.0950   24.2580 C   0  0  0  0  0  0  0  0  0  0  0  0
   12.6020   -2.5280   24.3150 C   0  0  0  0  0  0  0  0  0  0  0  0
    0.5520   -1.5290   26.3200 C   0  0  0  0  0  0  0  0  0  0  0  0
    4.4480   -6.8620   25.5080 O   0  0  0  0  0  0  0  0  0  0  0  0
    6.0500   -5.2920   26.6290 O   0  0  0  0  0  0  0  0  0  0  0  0
    2.1140   -6.1140   24.9750 C   0  0  0  0  0  0  0  0  0  0  0  0
    5.1110   -5.5800   25.5720 S   0  0  0  0  0  0  0  0  0  0  0  0
    6.3370   -1.8730   23.0390 C   0  0  0  0  0  0  0  0  0  0  0  0
    5.7690   -3.1480   22.6150 C   0  0  0  0  0  0  0  0  0  0  0  0
    6.3810    0.4990   17.8440 N   0  0  0  0  0  0  0  0  0  0  0  0
    5.2670    1.3520   17.7810 C   0  0  0  0  0  0  0  0  0  0  0  0
    4.6260    1.8070   18.9180 C   0  0  0  0  0  0  0  0  0  0  0  0
    5.0880    1.4230   20.1570 C   0  0  0  0  0  0  0  0  0  0  0  0
    6.1940    0.5810   20.2810 C   0  0  0  0  0  0  0  0  0  0  0  0
    6.8290    0.1240   19.1250 C   0  0  0  0  0  0  0  0  0  0  0  0
    9.7950   -2.1560   24.1570 O   0  0  0  0  0  0  0  0  0  0  0  0
    8.4430   -2.1880   23.7710 N   0  0  0  0  0  0  0  0  0  0  0  0
    8.3640   -1.5050   22.4790 C   0  0  0  0  0  0  0  0  0  0  0  0
    9.6550   -1.1420   22.2100 C   0  0  0  0  0  0  0  0  0  0  0  0
   10.5960   -1.4870   23.1810 C   0  0  0  0  0  0  0  0  0  0  0  0
    1.6950   -2.4760   26.1420 C   0  0  0  0  0  0  0  0  0  0  0  0
    1.4780   -3.8160   25.6610 C   0  0  0  0  0  0  0  0  0  0  0  0
    2.5030   -4.7560   25.4830 C   0  0  0  0  0  0  0  0  0  0  0  0
    3.8180   -4.3750   25.7900 C   0  0  0  0  0  0  0  0  0  0  0  0
    4.0240   -3.0530   26.2560 C   0  0  0  0  0  0  0  0  0  0  0  0
    3.0030   -2.1030   26.4370 C   0  0  0  0  0  0  0  0  0  0  0  0
    6.5480   -4.2120   21.6380 C   0  0  0  0  0  0  0  0  0  0  0  0
    5.7420   -5.5200   21.5690 C   0  0  0  0  0  0  0  0  0  0  0  0
    5.3160   -6.0960   22.9150 C   0  0  0  0  0  0  0  0  0  0  0  0
    5.7860   -5.2340   24.0110 N   0  0  0  0  0  0  0  0  0  0  0  0
    7.2260   -4.9180   23.9500 C   0  0  0  0  0  0  0  0  0  0  0  0
    7.7450   -4.6720   22.4880 C   0  0  0  0  0  0  0  0  0  0  0  0
  2  4  1  0
  1  7  1  0
  3  7  2  0
  4  7  1  0
  1  8  1  0
  5  9  1  0
  6  9  2  0
  8  9  1  6
 10  5  1  0
 10 11  1  0
 10 12  1  0
 10 13  1  0
 14 15  1  0
 14 16  1  0
 14 17  1  0
 19 22  2  0
 20 22  2  0
  1 23  1  0
 23 24  1  0
 25 26  2  0
 26 27  1  0
 27 28  2  0
  8 29  1  0
 28 29  1  0
 25 30  1  0
 29 30  2  0
 31 32  1  0
  1 33  1  6
 32 33  2  0
 33 34  1  0
 14 35  1  0
 31 35  1  0
 34 35  2  0
 18 36  1  0
 36 37  2  0
 21 38  1  0
 37 38  1  0
 22 39  1  0
 38 39  2  0
 39 40  1  0
 36 41  1  0
 40 41  2  0
  2 42  1  0
 42 24  1  0
 42 43  1  0
 43 44  1  0
 22 45  1  0
 44 45  1  0
 45 46  1  0
 42 47  1  0
 46 47  1  0
M  END
