x2540-x2754-x2646
     RDKit          3D

 46 51  0  0  0  0  0  0  0  0999 V2000
    6.8080   -1.5150   22.3780 S   0  0  0  0  0  0  0  0  0  0  0  0
    6.5530   -4.1160   20.0980 C   0  0  0  0  0  0  0  0  0  0  0  0
    4.6690   -3.1530   21.7190 O   0  0  0  0  0  0  0  0  0  0  0  0
    5.8440   -2.8120   19.9580 C   0  0  0  0  0  0  0  0  0  0  0  0
    7.7170    2.2370   22.9620 N   0  0  0  0  0  0  0  0  0  0  0  0
    8.5660    2.0090   21.0480 O   0  0  0  0  0  0  0  0  0  0  0  0
    5.7220   -2.5340   21.2970 C   0  0  0  0  0  0  0  0  0  0  0  0
    7.4690    0.0280   21.5370 C   0  0  2  0  0  0  0  0  0  0  0  0
    7.8250    1.3610   21.9400 C   0  0  0  0  0  0  0  0  0  0  0  0
    8.8070    3.0490   23.4360 C   0  0  0  0  0  0  0  0  0  0  0  0
    8.6980    3.0150   24.9410 C   0  0  0  0  0  0  0  0  0  0  0  0
    8.6660    4.4990   23.0270 C   0  0  0  0  0  0  0  0  0  0  0  0
   10.2040    2.6290   23.0830 C   0  0  0  0  0  0  0  0  0  0  0  0
   11.9640   -1.3470   23.4670 C   0  0  0  0  0  0  0  0  0  0  0  0
   12.9040   -1.3680   22.2850 C   0  0  0  0  0  0  0  0  0  0  0  0
   12.4230   -0.1620   24.3130 C   0  0  0  0  0  0  0  0  0  0  0  0
   12.2730   -2.5910   24.2790 C   0  0  0  0  0  0  0  0  0  0  0  0
    5.1240    1.7210   21.3890 C   0  0  0  0  0  0  0  0  0  0  0  0
    5.0190   -3.4550   25.1650 C   0  0  0  0  0  0  0  0  0  0  0  0
    3.7620   -3.4090   25.1730 O   0  0  0  0  0  0  0  0  0  0  0  0
    5.7060   -3.1240   26.3730 N   0  0  0  0  0  0  0  0  0  0  0  0
    5.1130   -2.2810   27.4010 C   0  0  0  0  0  0  0  0  0  0  0  0
    5.3880   -0.7050   23.3550 C   0  0  0  0  0  0  0  0  0  0  0  0
    6.5040    0.0530   17.8830 N   0  0  0  0  0  0  0  0  0  0  0  0
    5.4450    0.8380   17.8300 C   0  0  0  0  0  0  0  0  0  0  0  0
    5.0120    1.3700   18.9740 C   0  0  0  0  0  0  0  0  0  0  0  0
    5.6640    1.1080   20.1860 C   0  0  0  0  0  0  0  0  0  0  0  0
    6.7570    0.3140   20.2630 C   0  0  0  0  0  0  0  0  0  0  0  0
    7.1440   -0.2150   19.0260 C   0  0  0  0  0  0  0  0  0  0  0  0
    9.5620   -1.0730   24.1050 O   0  0  0  0  0  0  0  0  0  0  0  0
    8.7720   -0.0840   23.5190 N   0  0  0  0  0  0  0  0  0  0  0  0
    8.4510   -0.7280   22.1950 C   0  0  1  0  0  0  0  0  0  0  0  0
    9.8370   -1.0060   21.9380 C   0  0  0  0  0  0  0  0  0  0  0  0
   10.5190   -1.1530   23.1290 C   0  0  0  0  0  0  0  0  0  0  0  0
    6.6940   -4.1270   21.5000 N   0  0  0  0  0  0  0  0  0  0  0  0
    7.4060   -3.2770   22.3500 C   0  0  2  0  0  0  0  0  0  0  0  0
    7.1440   -3.8520   23.6780 C   0  0  0  0  0  0  0  0  0  0  0  0
    5.6580   -3.8360   23.8820 C   0  0  1  0  0  0  0  0  0  0  0  0
    5.1940   -5.1170   23.2540 C   0  0  0  0  0  0  0  0  0  0  0  0
    6.1290   -5.3570   22.0380 C   0  0  0  0  0  0  0  0  0  0  0  0
    7.1510   -4.7070   27.4630 C   0  0  0  0  0  0  0  0  0  0  0  0
    8.3970   -5.2580   27.7130 C   0  0  0  0  0  0  0  0  0  0  0  0
    9.5010   -4.7440   27.0810 C   0  0  0  0  0  0  0  0  0  0  0  0
    9.3520   -3.6970   26.2120 C   0  0  0  0  0  0  0  0  0  0  0  0
    8.1110   -3.1430   25.9590 C   0  0  0  0  0  0  0  0  0  0  0  0
    7.0120   -3.6540   26.5910 C   0  0  0  0  0  0  0  0  0  0  0  0
  2  4  1  0
  1  7  1  0
  3  7  2  0
  4  7  1  0
  1  8  1  0
  5  9  1  0
  6  9  2  0
  8  9  1  1
 10  5  1  0
 10 11  1  0
 10 12  1  0
 10 13  1  0
 14 15  1  0
 14 16  1  0
 14 17  1  0
 19 20  2  0
 19 21  1  0
 21 22  1  0
  1 23  1  0
 24 25  2  0
 25 26  1  0
 18 27  1  0
 26 27  2  0
  8 28  1  0
 27 28  1  0
 24 29  1  0
 28 29  2  0
 30 31  1  0
  1 32  1  0
  8 32  1  0
 31 32  1  0
 32 33  1  6
 14 34  1  0
 30 34  1  0
 33 34  2  0
  2 35  1  0
  1 36  1  0
 35 36  1  0
 36 37  1  1
 38 19  1  1
 37 38  1  0
 38 39  1  0
 35 40  1  0
 39 40  1  0
 41 42  2  0
 42 43  1  0
 43 44  2  0
 44 45  1  0
 21 46  1  0
 41 46  1  0
 45 46  2  0
M  END
