x2540-x1311
     RDKit          3D

 44 47  0  0  0  0  0  0  0  0999 V2000
    6.9700   -1.5050   21.9850 C   0  0  2  0  0  0  0  0  0  0  0  0
    7.4290   -3.2620   19.3010 C   0  0  0  0  0  0  0  0  0  0  0  0
    4.7220   -3.0330   21.5170 O   0  0  0  0  0  0  0  0  0  0  0  0
    6.8920   -3.7440   20.6820 C   0  0  0  0  0  0  0  0  0  0  0  0
    7.8370    1.6920   23.1510 N   0  0  0  0  0  0  0  0  0  0  0  0
    8.5810    1.4810   20.8720 O   0  0  0  0  0  0  0  0  0  0  0  0
    6.0060   -2.7230   21.4710 C   0  0  0  0  0  0  0  0  0  0  0  0
    6.7070   -0.0400   21.5560 C   0  0  1  0  0  0  0  0  0  0  0  0
    7.7490    1.0600   21.8820 C   0  0  0  0  0  0  0  0  0  0  0  0
    8.8300    2.6970   23.3230 C   0  0  0  0  0  0  0  0  0  0  0  0
    9.3180    2.7920   24.6160 C   0  0  0  0  0  0  0  0  0  0  0  0
    8.3300    3.9730   22.6010 C   0  0  0  0  0  0  0  0  0  0  0  0
   10.1090    2.3340   22.6170 C   0  0  0  0  0  0  0  0  0  0  0  0
   11.9120   -1.3320   23.6430 C   0  0  0  0  0  0  0  0  0  0  0  0
   12.5980   -1.2210   22.4160 C   0  0  0  0  0  0  0  0  0  0  0  0
   12.2240   -0.0780   24.4220 C   0  0  0  0  0  0  0  0  0  0  0  0
   12.5240   -2.5020   24.4430 C   0  0  0  0  0  0  0  0  0  0  0  0
    6.4260   -4.0990   22.4990 N   0  0  0  0  0  0  0  0  0  0  0  0
    4.1490   -6.4320   25.7600 O   0  0  0  0  0  0  0  0  0  0  0  0
    2.5580   -6.3870   23.8830 O   0  0  0  0  0  0  0  0  0  0  0  0
    7.6640   -2.3260   21.0090 C   0  0  0  0  0  0  0  0  0  0  0  0
    7.0370   -3.8410   21.2000 C   0  0  0  0  0  0  0  0  0  0  0  0
    6.4020    0.4480   17.8110 N   0  0  0  0  0  0  0  0  0  0  0  0
    5.2430    1.3220   17.7290 C   0  0  0  0  0  0  0  0  0  0  0  0
    4.6490    1.6570   18.9240 C   0  0  0  0  0  0  0  0  0  0  0  0
    5.1320    1.1980   20.1430 C   0  0  0  0  0  0  0  0  0  0  0  0
    6.2530    0.3650   20.2140 C   0  0  0  0  0  0  0  0  0  0  0  0
    6.9240   -0.0480   19.0820 C   0  0  0  0  0  0  0  0  0  0  0  0
    9.5820   -1.7250   24.6350 O   0  0  0  0  0  0  0  0  0  0  0  0
    8.2000   -1.7900   24.2910 N   0  0  0  0  0  0  0  0  0  0  0  0
    8.2100   -1.5700   22.9680 C   0  0  0  0  0  0  0  0  0  0  0  0
    9.4810   -1.3660   22.4420 C   0  0  0  0  0  0  0  0  0  0  0  0
   10.3980   -1.4510   23.4600 C   0  0  0  0  0  0  0  0  0  0  0  0
    8.2370   -5.6320   23.2860 C   0  0  0  0  0  0  0  0  0  0  0  0
    9.1760   -5.9890   24.2540 C   0  0  0  0  0  0  0  0  0  0  0  0
    9.3170   -5.2920   25.3740 C   0  0  0  0  0  0  0  0  0  0  0  0
    8.4630   -4.1530   25.5670 C   0  0  0  0  0  0  0  0  0  0  0  0
    7.5230   -3.8100   24.5900 C   0  0  0  0  0  0  0  0  0  0  0  0
    7.3790   -4.5260   23.4210 C   0  0  0  0  0  0  0  0  0  0  0  0
    5.5580   -6.2880   22.5720 C   0  0  0  0  0  0  0  0  0  0  0  0
    5.2590   -4.9260   22.5400 C   0  0  1  0  0  0  0  0  0  0  0  0
    4.4880   -4.5630   23.8270 C   0  0  0  0  0  0  0  0  0  0  0  0
    3.9040   -6.1450   24.3680 S   0  0  0  0  0  0  0  0  0  0  0  0
    4.9400   -7.0520   23.4690 C   0  0  0  0  0  0  0  0  0  0  0  0
  2  4  1  0
  1  7  1  0
  3  7  2  0
  4  7  1  0
  1  8  1  0
  5  9  1  0
  6  9  2  0
  8  9  1  6
 10  5  1  0
 10 11  1  0
 10 12  1  0
 10 13  1  0
 14 15  1  0
 14 16  1  0
 14 17  1  0
  1 21  1  6
 18 22  1  0
 21 22  1  0
 23 24  2  0
 24 25  1  0
 25 26  2  0
  8 27  1  0
 26 27  1  0
 23 28  1  0
 27 28  2  0
 29 30  1  0
  1 31  1  0
 30 31  2  0
 31 32  1  0
 14 33  1  0
 29 33  1  0
 32 33  2  0
 34 35  2  0
 35 36  1  0
 36 37  2  0
 37 38  1  0
 18 39  1  0
 34 39  1  0
 38 39  2  0
 41 18  1  1
 40 41  1  0
 41 42  1  0
 43 19  1  0
 20 43  1  0
 42 43  1  0
 40 44  2  0
 43 44  1  0
M  END
