x2540-x3110-x0691
     RDKit          3D

 53 59  0  0  0  0  0  0  0  0999 V2000
    7.9450    1.2580   23.3240 N   0  0  0  0  0  0  0  0  0  0  0  0
   13.6010    5.1820   22.4880 C   0  0  0  0  0  0  0  0  0  0  0  0
   12.1190    3.2170   22.4120 O   0  0  0  0  0  0  0  0  0  0  0  0
   12.4150    4.4480   21.9410 C   0  0  0  0  0  0  0  0  0  0  0  0
    6.8570   -1.6470   21.7440 C   0  0  2  0  0  0  0  0  0  0  0  0
   10.7950    4.2610   24.2350 O   0  0  0  0  0  0  0  0  0  0  0  0
   11.1370    3.1940   23.3510 C   0  0  0  0  0  0  0  0  0  0  0  0
    8.4790    1.3910   20.8630 O   0  0  0  0  0  0  0  0  0  0  0  0
   10.3670    2.0790   23.5020 C   0  0  0  0  0  0  0  0  0  0  0  0
    4.7890   -2.8900   20.7120 O   0  0  0  0  0  0  0  0  0  0  0  0
    8.8440    2.3580   23.5490 C   0  0  0  0  0  0  0  0  0  0  0  0
    7.6970    0.8520   21.9410 C   0  0  0  0  0  0  0  0  0  0  0  0
    6.5150   -0.1150   21.5930 C   0  0  1  0  0  0  0  0  0  0  0  0
    6.0130   -2.8200   21.0380 C   0  0  0  0  0  0  0  0  0  0  0  0
    6.7100   -4.0960   20.8860 C   0  0  1  0  0  0  0  0  0  0  0  0
    8.1890   -4.0820   20.5980 C   0  0  0  0  0  0  0  0  0  0  0  0
   12.7230   -1.6420   24.0660 C   0  0  1  0  0  0  0  0  0  0  0  0
   12.4660   -0.5130   24.6030 C   0  0  0  0  0  0  0  0  0  0  0  0
   13.3060   -1.6840   22.6890 C   0  0  0  0  0  0  0  0  0  0  0  0
   12.2040   -3.0060   24.5940 C   0  0  0  0  0  0  0  0  0  0  0  0
    8.5510    2.8700   24.9240 C   0  0  0  0  0  0  0  0  0  0  0  0
    8.4610    3.5140   22.6320 C   0  0  0  0  0  0  0  0  0  0  0  0
   12.1350   -0.8510   23.1010 C   0  0  1  0  0  0  0  0  0  0  0  0
    3.9790   -6.9690   25.8580 O   0  0  0  0  0  0  0  0  0  0  0  0
    5.6660   -5.4210   26.9100 O   0  0  0  0  0  0  0  0  0  0  0  0
    3.2130   -0.5210   26.0130 F   0  0  0  0  0  0  0  0  0  0  0  0
    4.7090   -5.7160   25.8710 S   0  0  0  0  0  0  0  0  0  0  0  0
    6.2760   -2.1150   23.0500 C   0  0  0  0  0  0  0  0  0  0  0  0
    5.5280   -3.4920   22.9510 C   0  0  0  0  0  0  0  0  0  0  0  0
    6.3890    0.4970   17.7400 N   0  0  0  0  0  0  0  0  0  0  0  0
    5.2750    1.3560   17.7250 C   0  0  0  0  0  0  0  0  0  0  0  0
    4.5320    1.7320   18.9950 C   0  0  0  0  0  0  0  0  0  0  0  0
    4.9760    1.2170   20.2120 C   0  0  0  0  0  0  0  0  0  0  0  0
    6.0780    0.3780   20.2520 C   0  0  0  0  0  0  0  0  0  0  0  0
    6.7720    0.0190   19.0210 C   0  0  0  0  0  0  0  0  0  0  0  0
    9.3840   -0.9610   22.0420 C   0  0  0  0  0  0  0  0  0  0  0  0
   10.7680   -0.8350   22.5090 C   0  0  0  0  0  0  0  0  0  0  0  0
   10.8340   -1.9810   23.5560 C   0  0  0  0  0  0  0  0  0  0  0  0
    9.8070   -2.9700   24.0130 C   0  0  0  0  0  0  0  0  0  0  0  0
    8.5020   -2.8380   23.3880 C   0  0  0  0  0  0  0  0  0  0  0  0
    8.2920   -1.7850   22.3610 C   0  0  0  0  0  0  0  0  0  0  0  0
    2.8370   -1.7990   25.9180 C   0  0  0  0  0  0  0  0  0  0  0  0
    3.9110   -2.9090   25.9400 C   0  0  0  0  0  0  0  0  0  0  0  0
    3.5250   -4.4080   25.8380 C   0  0  0  0  0  0  0  0  0  0  0  0
    2.0350   -4.7070   25.7090 C   0  0  0  0  0  0  0  0  0  0  0  0
    1.0120   -3.5520   25.6920 C   0  0  0  0  0  0  0  0  0  0  0  0
    1.4770   -2.1000   25.8040 C   0  0  0  0  0  0  0  0  0  0  0  0
    6.3460   -4.6560   22.2260 C   0  0  0  0  0  0  0  0  0  0  0  0
    5.4570   -5.8810   22.1180 C   0  0  0  0  0  0  0  0  0  0  0  0
    4.9680   -6.4240   23.2900 C   0  0  0  0  0  0  0  0  0  0  0  0
    5.4510   -5.5460   24.3760 N   0  0  0  0  0  0  0  0  0  0  0  0
    6.8860   -5.2420   24.4140 C   0  0  0  0  0  0  0  0  0  0  0  0
    7.4500   -5.1230   23.1590 C   0  0  0  0  0  0  0  0  0  0  0  0
  2  4  1  0
  3  4  1  0
  3  7  1  0
  6  7  2  0
  7  9  1  0
 11  1  1  0
  9 11  1  0
  1 12  1  0
  8 12  2  0
  5 13  1  0
 13 12  1  6
  5 14  1  0
 10 14  2  0
 14 15  1  0
 15 16  1  1
 17 18  1  0
 17 19  1  0
 17 20  1  6
 11 21  1  0
 11 22  1  0
 17 23  1  0
 18 23  1  0
 19 23  1  0
 24 27  2  0
 25 27  2  0
  5 28  1  0
 28 29  1  0
 30 31  2  0
 31 32  1  0
 32 33  2  0
 13 34  1  0
 33 34  1  0
 30 35  1  0
 34 35  2  0
 23 37  1  6
 36 37  2  0
 37 38  1  0
 38 39  2  0
 39 40  1  0
  5 41  1  1
 36 41  1  0
 40 41  2  0
 26 42  1  0
 42 43  2  0
 27 44  1  0
 43 44  1  0
 44 45  2  0
 45 46  1  0
 42 47  1  0
 46 47  2  0
 15 48  1  0
 48 29  1  0
 48 49  1  0
 49 50  1  0
 27 51  1  0
 50 51  1  0
 51 52  1  0
 48 53  1  0
 52 53  1  0
M  END
