x2540-x0946-x3110-x3113-x0731
     RDKit          3D

 57 64  0  0  0  0  0  0  0  0999 V2000
    7.9490    1.1550   23.2950 N   0  0  0  0  0  0  0  0  0  0  0  0
   13.3580    5.4410   21.6960 C   0  0  0  0  0  0  0  0  0  0  0  0
   13.3250    4.8310   23.0510 C   0  0  0  0  0  0  0  0  0  0  0  0
    7.0160   -1.6350   21.8180 C   0  0  2  0  0  0  0  0  0  0  0  0
   10.4520    5.0220   23.7090 N   0  0  0  0  0  0  0  0  0  0  0  0
    8.4950    1.2950   21.0570 O   0  0  0  0  0  0  0  0  0  0  0  0
    4.8910   -3.0120   20.9110 O   0  0  0  0  0  0  0  0  0  0  0  0
    8.6180    2.4290   23.7230 C   0  0  0  0  0  0  0  0  0  0  0  0
    7.7910    0.7780   21.9530 C   0  0  0  0  0  0  0  0  0  0  0  0
    6.6230   -0.3100   21.6370 C   0  0  1  0  0  0  0  0  0  0  0  0
    6.1740   -2.8410   21.1080 C   0  0  0  0  0  0  0  0  0  0  0  0
    6.9860   -4.0220   20.7420 C   0  0  1  0  0  0  0  0  0  0  0  0
    8.3360   -3.5790   20.2300 C   0  0  0  0  0  0  0  0  0  0  0  0
   12.8280   -1.9430   24.2910 C   0  0  1  0  0  0  0  0  0  0  0  0
   12.2710   -0.5810   24.5910 C   0  0  0  0  0  0  0  0  0  0  0  0
   13.3180   -1.9740   22.8720 C   0  0  0  0  0  0  0  0  0  0  0  0
   12.0100   -3.1280   24.7490 C   0  0  0  0  0  0  0  0  0  0  0  0
    8.2740    2.6610   25.2050 C   0  0  0  0  0  0  0  0  0  0  0  0
    7.9780    3.6630   23.0160 C   0  0  0  0  0  0  0  0  0  0  0  0
   12.1540   -1.1060   23.1240 C   0  0  1  0  0  0  0  0  0  0  0  0
    9.7230    5.2430   24.8680 O   0  0  0  0  0  0  0  0  0  0  0  0
   11.0840    6.0250   23.3330 O   0  0  0  0  0  0  0  0  0  0  0  0
    1.1170   -0.9220   25.9550 C   0  0  0  0  0  0  0  0  0  0  0  0
    5.8140   -5.3450   27.1810 O   0  0  0  0  0  0  0  0  0  0  0  0
    4.1770   -6.6810   25.8870 O   0  0  0  0  0  0  0  0  0  0  0  0
    5.1050   -5.5660   25.9440 S   0  0  0  0  0  0  0  0  0  0  0  0
    6.4040   -2.4640   22.9900 C   0  0  0  0  0  0  0  0  0  0  0  0
    6.3690    0.3280   17.9050 N   0  0  0  0  0  0  0  0  0  0  0  0
    5.2470    1.0770   17.8790 C   0  0  0  0  0  0  0  0  0  0  0  0
    4.5100    1.4050   18.9880 C   0  0  0  0  0  0  0  0  0  0  0  0
    4.9360    0.9530   20.2170 C   0  0  0  0  0  0  0  0  0  0  0  0
    6.0900    0.1840   20.3030 C   0  0  0  0  0  0  0  0  0  0  0  0
    6.7720   -0.1060   19.1150 C   0  0  0  0  0  0  0  0  0  0  0  0
    9.5250   -1.3860   21.8440 C   0  0  0  0  0  0  0  0  0  0  0  0
   10.8670   -1.2380   22.3620 C   0  0  0  0  0  0  0  0  0  0  0  0
   10.6090   -1.3470   23.7560 C   0  0  0  0  0  0  0  0  0  0  0  0
    9.4480   -1.5310   24.4720 C   0  0  0  0  0  0  0  0  0  0  0  0
    8.2960   -1.6360   23.7990 C   0  0  0  0  0  0  0  0  0  0  0  0
    8.2660   -1.5650   22.4370 C   0  0  0  0  0  0  0  0  0  0  0  0
   12.1980    1.0780   22.8380 C   0  0  0  0  0  0  0  0  0  0  0  0
   12.8910    2.2540   22.8240 C   0  0  0  0  0  0  0  0  0  0  0  0
   12.4140    3.6470   23.0990 C   0  0  0  0  0  0  0  0  0  0  0  0
   10.9630    3.7390   23.4290 C   0  0  0  0  0  0  0  0  0  0  0  0
   10.1330    2.4280   23.4330 C   0  0  0  0  0  0  0  0  0  0  0  0
   10.8490    1.1030   23.1270 C   0  0  0  0  0  0  0  0  0  0  0  0
    2.1140   -2.0420   25.9360 C   0  0  0  0  0  0  0  0  0  0  0  0
    1.7820   -3.2930   25.4340 C   0  0  0  0  0  0  0  0  0  0  0  0
    2.7330   -4.3370   25.4460 C   0  0  0  0  0  0  0  0  0  0  0  0
    4.0280   -4.1450   25.9610 C   0  0  0  0  0  0  0  0  0  0  0  0
    4.3150   -2.8660   26.4390 C   0  0  0  0  0  0  0  0  0  0  0  0
    3.3890   -1.8400   26.4300 C   0  0  0  0  0  0  0  0  0  0  0  0
    6.9920   -4.7630   21.8880 N   0  0  0  0  0  0  0  0  0  0  0  0
    7.1830   -3.8480   23.0500 C   0  0  2  0  0  0  0  0  0  0  0  0
    7.0020   -4.5440   24.4010 C   0  0  0  0  0  0  0  0  0  0  0  0
    5.8780   -5.4700   24.4530 N   0  0  0  0  0  0  0  0  0  0  0  0
    5.0820   -5.6230   23.2120 C   0  0  0  0  0  0  0  0  0  0  0  0
    6.0280   -5.8640   22.0230 C   0  0  0  0  0  0  0  0  0  0  0  0
  2  3  1  0
  8  1  1  0
  1  9  1  0
  6  9  2  0
  4 10  1  0
 10  9  1  6
  4 11  1  0
  7 11  2  0
 11 12  1  0
 12 13  1  1
 14 15  1  0
 14 16  1  0
 14 17  1  6
  8 18  1  0
  8 19  1  0
 14 20  1  0
 15 20  1  0
 16 20  1  0
  5 21  1  0
  5 22  1  0
 24 26  2  0
 25 26  2  0
  4 27  1  0
 28 29  2  0
 29 30  1  0
 30 31  2  0
 10 32  1  0
 31 32  1  0
 28 33  1  0
 32 33  2  0
 20 35  1  6
 34 35  2  0
 35 36  1  0
 36 37  2  0
 37 38  1  0
  4 39  1  1
 34 39  1  0
 38 39  2  0
 40 41  2  0
  3 42  1  0
 41 42  1  0
  5 43  1  0
 42 43  2  0
  8 44  1  0
 43 44  1  0
 40 45  1  0
 44 45  2  0
 23 46  1  0
 46 47  2  0
 47 48  1  0
 26 49  1  0
 48 49  2  0
 49 50  1  0
 46 51  1  0
 50 51  2  0
 12 52  1  0
 53 27  1  6
 52 53  1  0
 53 54  1  0
 26 55  1  0
 54 55  1  0
 55 56  1  0
 52 57  1  0
 56 57  1  0
M  END
