x2540-x2754
     RDKit          3D

 45 49  0  0  0  0  0  0  0  0999 V2000
    7.3550   -1.7770   21.7660 S   0  0  0  0  0  0  0  0  0  0  0  0
    6.4190   -4.2210   19.9350 C   0  0  0  0  0  0  0  0  0  0  0  0
    4.7070   -2.9960   21.4810 O   0  0  0  0  0  0  0  0  0  0  0  0
    5.8040   -2.9190   19.6180 C   0  0  0  0  0  0  0  0  0  0  0  0
    7.9630    1.8050   23.0960 N   0  0  0  0  0  0  0  0  0  0  0  0
    8.6920    1.5330   20.9300 O   0  0  0  0  0  0  0  0  0  0  0  0
    5.8360   -2.5390   21.0080 C   0  0  0  0  0  0  0  0  0  0  0  0
    6.8780   -0.0260   21.6080 C   0  0  1  0  0  0  0  0  0  0  0  0
    7.9160    1.0900   21.7730 C   0  0  0  0  0  0  0  0  0  0  0  0
    8.8880    2.8550   23.3650 C   0  0  0  0  0  0  0  0  0  0  0  0
    9.1130    3.1530   24.6950 C   0  0  0  0  0  0  0  0  0  0  0  0
    8.4200    4.1230   22.6320 C   0  0  0  0  0  0  0  0  0  0  0  0
   10.1900    2.5070   22.8570 C   0  0  0  0  0  0  0  0  0  0  0  0
   12.2530   -1.1850   23.4770 C   0  0  0  0  0  0  0  0  0  0  0  0
   12.9400   -1.1620   22.2590 C   0  0  0  0  0  0  0  0  0  0  0  0
   12.5590    0.0850   24.2180 C   0  0  0  0  0  0  0  0  0  0  0  0
   12.5640   -2.2100   24.2950 C   0  0  0  0  0  0  0  0  0  0  0  0
    4.8640   -3.5930   25.1960 C   0  0  0  0  0  0  0  0  0  0  0  0
    3.6080   -3.4070   25.0200 O   0  0  0  0  0  0  0  0  0  0  0  0
    5.4130   -3.3180   26.5340 N   0  0  0  0  0  0  0  0  0  0  0  0
    4.8800   -2.2250   27.3540 C   0  0  0  0  0  0  0  0  0  0  0  0
    6.3310   -1.0280   23.0110 C   0  0  0  0  0  0  0  0  0  0  0  0
    6.3550    0.4750   17.8350 N   0  0  0  0  0  0  0  0  0  0  0  0
    5.2110    1.3680   17.7820 C   0  0  0  0  0  0  0  0  0  0  0  0
    4.6720    1.7360   19.0000 C   0  0  0  0  0  0  0  0  0  0  0  0
    5.1900    1.2930   20.2210 C   0  0  0  0  0  0  0  0  0  0  0  0
    6.2980    0.4370   20.2630 C   0  0  0  0  0  0  0  0  0  0  0  0
    6.9080   -0.0010   19.0990 C   0  0  0  0  0  0  0  0  0  0  0  0
    9.9150   -0.8020   24.4410 O   0  0  0  0  0  0  0  0  0  0  0  0
    8.7090   -0.9440   23.9730 N   0  0  0  0  0  0  0  0  0  0  0  0
    8.7270   -1.3850   22.7010 C   0  0  0  0  0  0  0  0  0  0  0  0
   10.0350   -1.5230   22.3200 C   0  0  0  0  0  0  0  0  0  0  0  0
   10.8180   -1.1790   23.3850 C   0  0  0  0  0  0  0  0  0  0  0  0
    6.4040   -4.1790   21.3720 N   0  0  0  0  0  0  0  0  0  0  0  0
    6.6800   -3.1920   22.2650 C   0  0  2  0  0  0  0  0  0  0  0  0
    5.9420   -2.9530   23.3960 C   0  0  0  0  0  0  0  0  0  0  0  0
    5.6690   -4.0620   24.0240 C   0  0  2  0  0  0  0  0  0  0  0  0
    5.1180   -5.1000   23.1440 C   0  0  0  0  0  0  0  0  0  0  0  0
    5.8220   -5.3110   21.8920 C   0  0  0  0  0  0  0  0  0  0  0  0
    7.0830   -4.7960   27.6010 C   0  0  0  0  0  0  0  0  0  0  0  0
    8.3890   -5.2560   27.8320 C   0  0  0  0  0  0  0  0  0  0  0  0
    9.5270   -4.7070   27.2300 C   0  0  0  0  0  0  0  0  0  0  0  0
    9.2770   -3.5500   26.2810 C   0  0  0  0  0  0  0  0  0  0  0  0
    7.8740   -3.0350   26.0210 C   0  0  0  0  0  0  0  0  0  0  0  0
    6.7370   -3.7310   26.7420 C   0  0  0  0  0  0  0  0  0  0  0  0
  2  4  1  0
  1  7  1  0
  3  7  2  0
  4  7  1  0
  1  8  1  0
  5  9  1  0
  6  9  2  0
  8  9  1  6
 10  5  1  0
 10 11  1  0
 10 12  1  0
 10 13  1  0
 14 15  1  0
 14 16  1  0
 14 17  1  0
 18 19  2  0
 18 20  1  0
 20 21  1  0
  1 22  1  0
 23 24  2  0
 24 25  1  0
 25 26  2  0
  8 27  1  0
 26 27  1  0
 23 28  1  0
 27 28  2  0
 29 30  1  0
  1 31  1  0
 30 31  2  0
 31 32  1  0
 14 33  1  0
 29 33  1  0
 32 33  2  0
  2 34  1  0
  1 35  1  0
 34 35  1  0
 35 36  1  6
 37 18  1  1
 36 37  1  0
 37 38  1  0
 34 39  1  0
 38 39  1  0
 40 41  2  0
 41 42  1  0
 42 43  2  0
 43 44  1  0
 20 45  1  0
 40 45  1  0
 44 45  2  0
M  END
