x2540-x3110-x2754
     RDKit          3D

 50 55  0  0  0  0  0  0  0  0999 V2000
    7.9630    1.1560   23.1060 N   0  0  0  0  0  0  0  0  0  0  0  0
   13.5630    5.1150   22.4970 C   0  0  0  0  0  0  0  0  0  0  0  0
   12.0730    3.1740   22.4880 O   0  0  0  0  0  0  0  0  0  0  0  0
   12.3060    4.4670   21.9180 C   0  0  0  0  0  0  0  0  0  0  0  0
    7.2030   -1.7160   21.3160 N   0  0  0  0  0  0  0  0  0  0  0  0
   10.9400    4.0730   24.2710 O   0  0  0  0  0  0  0  0  0  0  0  0
   11.0600    3.1480   23.4680 C   0  0  0  0  0  0  0  0  0  0  0  0
    8.4160    1.2830   20.8810 O   0  0  0  0  0  0  0  0  0  0  0  0
   10.2470    2.0090   23.4080 C   0  0  0  0  0  0  0  0  0  0  0  0
    4.9880   -3.1020   20.7840 O   0  0  0  0  0  0  0  0  0  0  0  0
    8.7320    2.2940   23.4740 C   0  0  0  0  0  0  0  0  0  0  0  0
    7.7380    0.7230   21.7620 C   0  0  0  0  0  0  0  0  0  0  0  0
    6.7430   -0.2810   21.3700 C   0  0  1  0  0  0  0  0  0  0  0  0
    6.2660   -2.9060   21.1810 C   0  0  0  0  0  0  0  0  0  0  0  0
    8.1520   -4.6110   21.1550 C   0  0  0  0  0  0  0  0  0  0  0  0
   13.2020   -1.5730   24.0780 C   0  0  1  0  0  0  0  0  0  0  0  0
   12.6640   -0.2810   24.1560 C   0  0  0  0  0  0  0  0  0  0  0  0
   13.2700   -1.4720   22.5380 C   0  0  0  0  0  0  0  0  0  0  0  0
   12.5770   -2.8090   24.7680 C   0  0  0  0  0  0  0  0  0  0  0  0
    8.5110    2.7460   24.8130 C   0  0  0  0  0  0  0  0  0  0  0  0
    8.3990    3.4860   22.5900 C   0  0  0  0  0  0  0  0  0  0  0  0
   12.0290   -0.8980   23.0890 C   0  0  1  0  0  0  0  0  0  0  0  0
    4.6060   -3.3850   25.1810 C   0  0  0  0  0  0  0  0  0  0  0  0
    3.4710   -3.0770   24.8220 O   0  0  0  0  0  0  0  0  0  0  0  0
    5.1480   -3.1990   26.5510 N   0  0  0  0  0  0  0  0  0  0  0  0
    4.8070   -1.9240   27.2370 C   0  0  0  0  0  0  0  0  0  0  0  0
    6.3710    0.5190   17.7600 N   0  0  0  0  0  0  0  0  0  0  0  0
    5.2650    1.2940   17.7920 C   0  0  0  0  0  0  0  0  0  0  0  0
    4.5330    1.6230   18.9200 C   0  0  0  0  0  0  0  0  0  0  0  0
    4.9860    1.1100   20.1390 C   0  0  0  0  0  0  0  0  0  0  0  0
    6.1460    0.3010   20.1450 C   0  0  0  0  0  0  0  0  0  0  0  0
    6.7790    0.0420   18.9460 C   0  0  0  0  0  0  0  0  0  0  0  0
    9.7000   -1.2370   22.0170 C   0  0  0  0  0  0  0  0  0  0  0  0
   10.6540   -1.3730   23.0430 C   0  0  0  0  0  0  0  0  0  0  0  0
   10.3260   -2.0030   24.1950 C   0  0  0  0  0  0  0  0  0  0  0  0
    9.1100   -2.5130   24.4300 C   0  0  0  0  0  0  0  0  0  0  0  0
    8.1240   -2.4040   23.4760 C   0  0  0  0  0  0  0  0  0  0  0  0
    8.3230   -1.7840   22.2350 C   0  0  0  0  0  0  0  0  0  0  0  0
    6.9870   -4.1270   21.7120 C   0  0  1  0  0  0  0  0  0  0  0  0
    7.4400   -3.5360   23.0460 C   0  0  0  0  0  0  0  0  0  0  0  0
    6.3370   -3.0020   23.6790 C   0  0  0  0  0  0  0  0  0  0  0  0
    5.6000   -4.0190   24.1860 C   0  0  2  0  0  0  0  0  0  0  0  0
    4.9760   -4.7150   23.1420 C   0  0  0  0  0  0  0  0  0  0  0  0
    5.8550   -5.1470   22.1210 C   0  0  0  0  0  0  0  0  0  0  0  0
    6.9790   -4.8770   27.6200 C   0  0  0  0  0  0  0  0  0  0  0  0
    8.3930   -5.4290   27.8640 C   0  0  0  0  0  0  0  0  0  0  0  0
    9.5990   -4.8150   27.2380 C   0  0  0  0  0  0  0  0  0  0  0  0
    9.3070   -3.6680   26.3900 C   0  0  0  0  0  0  0  0  0  0  0  0
    7.8540   -3.1990   26.2180 C   0  0  0  0  0  0  0  0  0  0  0  0
    6.4810   -3.6930   26.7740 C   0  0  0  0  0  0  0  0  0  0  0  0
  2  4  1  0
  3  4  1  0
  3  7  1  0
  6  7  2  0
  7  9  1  0
 11  1  1  0
  9 11  1  0
  1 12  1  0
  8 12  2  0
  5 13  1  0
 13 12  1  6
  5 14  1  0
 10 14  2  0
 16 17  1  0
 16 18  1  0
 16 19  1  6
 11 20  1  0
 11 21  1  0
 16 22  1  0
 17 22  1  0
 18 22  1  0
 23 24  2  0
 23 25  1  0
 25 26  1  0
 27 28  2  0
 28 29  1  0
 29 30  2  0
 13 31  1  0
 30 31  1  0
 27 32  1  0
 31 32  2  0
 22 34  1  6
 33 34  2  0
 34 35  1  0
 35 36  2  0
 36 37  1  0
  5 38  1  0
 33 38  1  0
 37 38  2  0
 39 14  1  0
 39 15  1  6
 39 40  1  0
 40 41  1  0
 42 23  1  1
 41 42  1  0
 42 43  1  0
 39 44  1  0
 43 44  1  0
 45 46  2  0
 46 47  1  0
 47 48  2  0
 48 49  1  0
 25 50  1  0
 45 50  1  0
 49 50  2  0
M  END
