x2540-x0731-x3110-x0691
     RDKit          3D

 57 67  0  0  0  0  0  0  0  0999 V2000
    7.9110    1.2550   23.1210 N   0  0  0  0  0  0  0  0  0  0  0  0
   13.3840    5.1860   22.9220 C   0  0  0  0  0  0  0  0  0  0  0  0
   12.0590    3.2320   22.4280 O   0  0  0  0  0  0  0  0  0  0  0  0
   12.4570    4.5120   21.9260 C   0  0  0  0  0  0  0  0  0  0  0  0
    6.9000   -1.6860   21.6850 C   0  0  2  0  0  0  0  0  0  0  0  0
   11.0450    4.2920   24.1620 O   0  0  0  0  0  0  0  0  0  0  0  0
   11.1490    3.3230   23.4290 C   0  0  0  0  0  0  0  0  0  0  0  0
    8.4460    1.4130   20.9230 O   0  0  0  0  0  0  0  0  0  0  0  0
   10.2990    2.0760   23.4880 C   0  0  0  0  0  0  0  0  0  0  0  0
    4.8870   -3.0010   20.5290 O   0  0  0  0  0  0  0  0  0  0  0  0
    8.7670    2.3920   23.5570 C   0  0  0  0  0  0  0  0  0  0  0  0
    7.7290    0.8990   21.7990 C   0  0  0  0  0  0  0  0  0  0  0  0
    6.5570   -0.1170   21.4680 C   0  0  1  0  0  0  0  0  0  0  0  0
    6.0920   -2.8960   21.0050 C   0  0  0  0  0  0  0  0  0  0  0  0
    6.8420   -4.1410   21.1970 C   0  0  1  0  0  0  0  0  0  0  0  0
    8.3080   -4.0470   20.8170 C   0  0  0  0  0  0  0  0  0  0  0  0
   13.0110   -1.6580   24.0280 C   0  0  1  0  0  0  0  0  0  0  0  0
   12.5200   -0.3970   24.3930 C   0  0  0  0  0  0  0  0  0  0  0  0
   13.3630   -1.4420   22.5920 C   0  0  0  0  0  0  0  0  0  0  0  0
   12.6840   -2.9250   24.6780 C   0  0  0  0  0  0  0  0  0  0  0  0
    8.3790    2.7280   25.0010 C   0  0  0  0  0  0  0  0  0  0  0  0
    8.5010    3.6820   22.7350 C   0  0  0  0  0  0  0  0  0  0  0  0
   12.1250   -0.8550   23.0560 C   0  0  1  0  0  0  0  0  0  0  0  0
    6.5230   -4.7890   26.7040 O   0  0  0  0  0  0  0  0  0  0  0  0
    4.9210   -6.7590   25.6430 N   0  0  0  0  0  0  0  0  0  0  0  0
    5.4910   -5.3260   25.5970 S   0  0  1  0  0  0  0  0  0  0  0  0
    6.1620   -2.4040   22.8480 C   0  0  0  0  0  0  0  0  0  0  0  0
    3.8900   -0.7910   26.0540 O   0  0  0  0  0  0  0  0  0  0  0  0
    6.3290    0.5080   17.7700 N   0  0  0  0  0  0  0  0  0  0  0  0
    5.2370    1.2880   17.7510 C   0  0  0  0  0  0  0  0  0  0  0  0
    4.4960    1.6470   18.8870 C   0  0  0  0  0  0  0  0  0  0  0  0
    4.9130    1.1810   20.1030 C   0  0  0  0  0  0  0  0  0  0  0  0
    6.0360    0.3880   20.1540 C   0  0  0  0  0  0  0  0  0  0  0  0
    6.7160    0.0650   18.9740 C   0  0  0  0  0  0  0  0  0  0  0  0
    9.4060   -0.9510   22.0120 C   0  0  0  0  0  0  0  0  0  0  0  0
   10.7750   -0.8480   22.4950 C   0  0  0  0  0  0  0  0  0  0  0  0
   10.8350   -1.9750   23.3740 C   0  0  0  0  0  0  0  0  0  0  0  0
    9.8360   -2.8810   23.6650 C   0  0  0  0  0  0  0  0  0  0  0  0
    8.6090   -2.8050   23.1370 C   0  0  0  0  0  0  0  0  0  0  0  0
    8.3460   -1.8140   22.2740 C   0  0  0  0  0  0  0  0  0  0  0  0
    2.1670   -2.4210   25.3450 C   0  0  0  0  0  0  0  0  0  0  0  0
    1.6270   -3.7870   25.2870 C   0  0  0  0  0  0  0  0  0  0  0  0
    2.8540   -4.6300   25.0980 C   0  0  0  0  0  0  0  0  0  0  0  0
    4.0660   -4.3910   25.6840 C   0  0  0  0  0  0  0  0  0  0  0  0
    3.4600   -3.3950   26.2580 C   0  0  2  0  0  0  0  0  0  0  0  0
    3.3570   -2.0130   25.9450 C   0  0  0  0  0  0  0  0  0  0  0  0
    5.4870   -4.9120   22.9910 C   0  0  1  0  0  0  0  0  0  0  0  0
    6.5240   -3.9680   22.6690 C   0  0  1  0  0  0  0  0  0  0  0  0
    7.3660   -4.4770   23.8350 C   0  0  0  0  0  0  0  0  0  0  0  0
    6.1700   -5.3920   24.0780 C   0  0  1  0  0  0  0  0  0  0  0  0
    5.7990   -6.5250   23.1750 C   0  0  1  0  0  0  0  0  0  0  0  0
    4.9770   -5.9690   22.1310 C   0  0  0  0  0  0  0  0  0  0  0  0
    3.7560   -6.9680   26.4800 N   0  0  0  0  0  0  0  0  0  0  0  0
    5.0320   -4.9650   27.9250 O   0  0  0  0  0  0  0  0  0  0  0  0
    3.6200   -5.8170   27.7280 S   0  0  0  0  0  0  0  0  0  0  0  0
    1.4760   -0.6220   26.2450 C   0  0  0  0  0  0  0  0  0  0  0  0
    2.7800    0.1130   25.9440 C   0  0  0  0  0  0  0  0  0  0  0  0
  2  4  1  0
  3  4  1  0
  3  7  1  0
  6  7  2  0
  7  9  1  0
 11  1  1  0
  9 11  1  0
  1 12  1  0
  8 12  2  0
  5 13  1  0
 13 12  1  6
  5 14  1  0
 10 14  2  0
 14 15  1  0
 15 16  1  1
 17 18  1  0
 17 19  1  0
 17 20  1  6
 11 21  1  0
 11 22  1  0
 17 23  1  0
 18 23  1  0
 19 23  1  0
 24 26  2  0
 25 26  2  0
  5 27  1  0
 29 30  2  0
 30 31  1  0
 31 32  2  0
 13 33  1  0
 32 33  1  0
 29 34  1  0
 33 34  2  0
 23 36  1  6
 35 36  2  0
 36 37  1  0
 37 38  2  0
 38 39  1  0
  5 40  1  1
 35 40  1  0
 39 40  2  0
 41 42  1  0
 42 43  1  0
 26 44  1  6
 43 44  2  0
 41 45  1  0
 43 45  1  0
 45 44  1  6
 28 46  1  0
 41 46  2  0
 45 46  1  0
 15 48  1  0
 48 27  1  1
 47 48  1  0
 48 49  1  0
 26 50  1  0
 47 50  1  0
 50 49  1  1
 47 51  1  0
 50 51  1  0
 47 52  1  1
 51 52  1  1
 25 53  1  0
 53 55  2  0
 54 55  2  0
 28 57  1  0
 56 57  1  0
M  END
