x2540-x3110-x3113-x0978
     RDKit          3D

 46 49  0  0  0  0  0  0  0  0999 V2000
    7.9870    1.1270   23.1340 N   0  0  0  0  0  0  0  0  0  0  0  0
   13.3540    5.1530   22.7700 C   0  0  0  0  0  0  0  0  0  0  0  0
   12.1110    3.2390   22.5270 O   0  0  0  0  0  0  0  0  0  0  0  0
   12.2510    4.3670   22.0500 C   0  0  0  0  0  0  0  0  0  0  0  0
    7.0050   -1.8570   21.5770 N   0  0  0  0  0  0  0  0  0  0  0  0
   10.9200    4.0330   24.0920 O   0  0  0  0  0  0  0  0  0  0  0  0
   11.1310    3.0990   23.3380 C   0  0  0  0  0  0  0  0  0  0  0  0
    8.4780    1.1590   20.9300 O   0  0  0  0  0  0  0  0  0  0  0  0
   10.2970    1.9780   23.4240 C   0  0  0  0  0  0  0  0  0  0  0  0
    4.7310   -2.9410   21.2960 O   0  0  0  0  0  0  0  0  0  0  0  0
    8.8120    2.2590   23.4180 C   0  0  0  0  0  0  0  0  0  0  0  0
    7.7810    0.6580   21.8350 C   0  0  0  0  0  0  0  0  0  0  0  0
    6.7250   -0.3200   21.5250 C   0  0  1  0  0  0  0  0  0  0  0  0
    6.0030   -2.9810   21.3600 C   0  0  0  0  0  0  0  0  0  0  0  0
    6.4350   -4.4520   21.1210 C   0  0  1  0  0  0  0  0  0  0  0  0
    7.9690   -4.4670   21.0050 C   0  0  0  0  0  0  0  0  0  0  0  0
   12.7780   -1.8220   24.2160 C   0  0  1  0  0  0  0  0  0  0  0  0
   12.3010   -0.4260   24.5360 C   0  0  0  0  0  0  0  0  0  0  0  0
   13.2870   -1.5710   22.8100 C   0  0  0  0  0  0  0  0  0  0  0  0
   12.2270   -3.0490   24.7940 C   0  0  0  0  0  0  0  0  0  0  0  0
    8.4900    2.6350   24.8740 C   0  0  0  0  0  0  0  0  0  0  0  0
    8.4320    3.5030   22.5780 C   0  0  0  0  0  0  0  0  0  0  0  0
   12.0080   -0.9730   23.1770 C   0  0  1  0  0  0  0  0  0  0  0  0
    2.1650   -5.5580   22.9920 N   0  0  0  0  0  0  0  0  0  0  0  0
    2.4350   -7.8500   24.4920 C   0  0  0  0  0  0  0  0  0  0  0  0
    4.5920   -7.6860   24.5260 O   0  0  0  0  0  0  0  0  0  0  0  0
    3.4370   -6.9000   24.3430 C   0  0  1  0  0  0  0  0  0  0  0  0
    5.7890   -5.4390   22.1080 N   0  0  0  0  0  0  0  0  0  0  0  0
    0.9100   -7.3530   22.0180 O   0  0  0  0  0  0  0  0  0  0  0  0
    3.4760   -6.2240   23.1030 C   0  0  2  0  0  0  0  0  0  0  0  0
    4.6010   -4.1100   23.5530 O   0  0  0  0  0  0  0  0  0  0  0  0
    0.9110   -6.2410   22.5260 C   0  0  0  0  0  0  0  0  0  0  0  0
   -0.2600   -5.5010   22.7100 C   0  0  0  0  0  0  0  0  0  0  0  0
    4.6650   -5.1720   22.9460 C   0  0  0  0  0  0  0  0  0  0  0  0
    6.3390    0.5080   17.7950 N   0  0  0  0  0  0  0  0  0  0  0  0
    5.2400    1.2860   17.7610 C   0  0  0  0  0  0  0  0  0  0  0  0
    4.4660    1.6340   18.8790 C   0  0  0  0  0  0  0  0  0  0  0  0
    4.8750    1.1180   20.2710 C   0  0  0  0  0  0  0  0  0  0  0  0
    6.1370    0.2500   20.2640 C   0  0  0  0  0  0  0  0  0  0  0  0
    6.7800   -0.0090   19.0650 C   0  0  0  0  0  0  0  0  0  0  0  0
    9.3550   -1.2430   21.9750 C   0  0  0  0  0  0  0  0  0  0  0  0
   10.6800   -1.0670   22.5140 C   0  0  0  0  0  0  0  0  0  0  0  0
   10.6080   -1.9000   23.6540 C   0  0  0  0  0  0  0  0  0  0  0  0
    9.5640   -2.6650   24.1260 C   0  0  0  0  0  0  0  0  0  0  0  0
    8.3560   -2.7010   23.4940 C   0  0  0  0  0  0  0  0  0  0  0  0
    8.2170   -1.9760   22.3820 C   0  0  0  0  0  0  0  0  0  0  0  0
  2  4  1  0
  3  4  1  0
  3  7  1  0
  6  7  2  0
  7  9  1  0
 11  1  1  0
  9 11  1  0
  1 12  1  0
  8 12  2  0
  5 13  1  0
 13 12  1  6
  5 14  1  0
 10 14  2  0
 14 15  1  0
 15 16  1  1
 17 18  1  0
 17 19  1  0
 17 20  1  6
 11 21  1  0
 11 22  1  0
 17 23  1  0
 18 23  1  0
 19 23  1  0
 27 25  1  6
 26 27  1  0
 15 28  1  0
 30 24  1  1
 27 30  1  0
 24 32  1  0
 29 32  2  0
 32 33  1  0
 28 34  1  0
 30 34  1  0
 31 34  2  0
 35 36  2  0
 36 37  1  0
 37 38  2  0
 13 39  1  0
 38 39  1  0
 35 40  1  0
 39 40  2  0
 23 42  1  6
 41 42  2  0
 42 43  1  0
 43 44  2  0
 44 45  1  0
  5 46  1  0
 41 46  1  0
 45 46  2  0
M  END
