x2540-x0731-x0978-x3113
     RDKit          3D

 57 63  0  0  0  0  0  0  0  0999 V2000
    7.1630   -1.8350   21.6280 N   0  0  0  0  0  0  0  0  0  0  0  0
    8.0450   -4.8410   21.1260 C   0  0  0  0  0  0  0  0  0  0  0  0
    4.9920   -3.1360   20.9580 O   0  0  0  0  0  0  0  0  0  0  0  0
    6.9190   -4.4640   21.7900 C   0  0  1  0  0  0  0  0  0  0  0  0
    7.7870    1.3740   22.9680 N   0  0  0  0  0  0  0  0  0  0  0  0
    8.9230    0.5510   21.2400 O   0  0  0  0  0  0  0  0  0  0  0  0
    6.2770   -3.0550   21.4100 C   0  0  0  0  0  0  0  0  0  0  0  0
   11.6420    3.7770   22.4130 O   0  0  0  0  0  0  0  0  0  0  0  0
    6.7660   -0.4800   21.5310 C   0  0  1  0  0  0  0  0  0  0  0  0
    7.9000    0.5010   21.9070 C   0  0  0  0  0  0  0  0  0  0  0  0
    8.8410    2.3870   23.3370 C   0  0  0  0  0  0  0  0  0  0  0  0
   10.2530    1.8520   23.1370 C   0  0  0  0  0  0  0  0  0  0  0  0
   11.3980    2.8420   23.4590 C   0  0  0  0  0  0  0  0  0  0  0  0
   12.8820    4.4580   22.5970 C   0  0  0  0  0  0  0  0  0  0  0  0
   13.0810   -1.8300   24.2500 C   0  0  1  0  0  0  0  0  0  0  0  0
   13.3700   -1.8970   22.7910 C   0  0  0  0  0  0  0  0  0  0  0  0
   12.4890   -3.0560   24.8400 C   0  0  0  0  0  0  0  0  0  0  0  0
   12.3540   -0.5560   24.5770 C   0  0  0  0  0  0  0  0  0  0  0  0
    8.6720    2.6100   24.8510 C   0  0  0  0  0  0  0  0  0  0  0  0
    8.6330    3.7690   22.6750 C   0  0  0  0  0  0  0  0  0  0  0  0
   12.1640   -1.1390   23.1700 C   0  0  2  0  0  0  0  0  0  0  0  0
    2.4660   -5.6830   22.8900 N   0  0  0  0  0  0  0  0  0  0  0  0
    2.6170   -8.2280   24.7240 C   0  0  0  0  0  0  0  0  0  0  0  0
    4.4080   -6.9260   25.4170 N   0  0  0  0  0  0  0  0  0  0  0  0
    3.2800   -6.9920   24.6240 C   0  0  1  0  0  0  0  0  0  0  0  0
    1.1440   -7.3630   22.1400 O   0  0  0  0  0  0  0  0  0  0  0  0
    3.5050   -6.4490   23.3470 C   0  0  2  0  0  0  0  0  0  0  0  0
    4.2050   -4.4140   22.9200 O   0  0  0  0  0  0  0  0  0  0  0  0
    1.2350   -6.2440   22.6400 C   0  0  0  0  0  0  0  0  0  0  0  0
    0.0500   -5.5510   22.9210 C   0  0  0  0  0  0  0  0  0  0  0  0
    1.2330   -1.1280   26.0790 C   0  0  0  0  0  0  0  0  0  0  0  0
    6.1260   -5.3030   26.6570 O   0  0  0  0  0  0  0  0  0  0  0  0
    5.0500   -5.5600   25.7220 S   0  0  2  0  0  0  0  0  0  0  0  0
    6.4260    0.4400   17.7870 N   0  0  0  0  0  0  0  0  0  0  0  0
    5.2250    1.2220   17.7970 C   0  0  0  0  0  0  0  0  0  0  0  0
    4.3920    1.4960   19.0670 C   0  0  0  0  0  0  0  0  0  0  0  0
    4.9580    0.8710   20.3470 C   0  0  0  0  0  0  0  0  0  0  0  0
    6.1380    0.1240   20.3040 C   0  0  0  0  0  0  0  0  0  0  0  0
    6.8200   -0.0530   18.9650 C   0  0  0  0  0  0  0  0  0  0  0  0
    9.5720   -1.6190   21.9280 C   0  0  0  0  0  0  0  0  0  0  0  0
   10.8800   -1.3900   22.4510 C   0  0  0  0  0  0  0  0  0  0  0  0
   10.5630   -1.2790   23.8270 C   0  0  0  0  0  0  0  0  0  0  0  0
    9.3500   -1.3540   24.5030 C   0  0  0  0  0  0  0  0  0  0  0  0
    8.1960   -1.5650   23.8370 C   0  0  0  0  0  0  0  0  0  0  0  0
    8.3020   -1.6920   22.4980 C   0  0  0  0  0  0  0  0  0  0  0  0
    2.2040   -2.2690   25.9740 C   0  0  0  0  0  0  0  0  0  0  0  0
    1.6850   -3.3840   25.4160 C   0  0  0  0  0  0  0  0  0  0  0  0
    2.6160   -4.4080   25.3500 C   0  0  0  0  0  0  0  0  0  0  0  0
    3.9400   -4.2140   25.8410 C   0  0  0  0  0  0  0  0  0  0  0  0
    4.3730   -2.9600   26.4170 C   0  0  0  0  0  0  0  0  0  0  0  0
    3.4800   -1.9520   26.4880 C   0  0  0  0  0  0  0  0  0  0  0  0
    5.1840   -4.1550   21.9960 N   0  0  0  0  0  0  0  0  0  0  0  0
    5.9120   -3.3560   23.0370 C   0  0  0  0  0  0  0  0  0  0  0  0
    6.4170   -4.0820   24.1400 C   0  0  0  0  0  0  0  0  0  0  0  0
    5.7480   -5.3740   24.3680 N   0  0  0  0  0  0  0  0  0  0  0  0
    4.9230   -5.6560   23.1950 C   0  0  1  0  0  0  0  0  0  0  0  0
    5.7500   -5.4970   22.0530 C   0  0  2  0  0  0  0  0  0  0  0  0
  4  2  1  6
  1  7  1  0
  3  7  2  0
  4  7  1  0
  1  9  1  0
  5 10  1  0
  6 10  2  0
  9 10  1  6
 11  5  1  0
 11 12  1  0
  8 13  1  0
 12 13  1  0
  8 14  1  0
 15 16  1  0
 15 17  1  6
 15 18  1  0
 11 19  1  0
 11 20  1  0
 15 21  1  0
 16 21  1  0
 18 21  1  0
 25 23  1  6
 24 25  1  0
 27 22  1  1
 25 27  1  0
 22 29  1  0
 26 29  2  0
 29 30  1  0
 24 33  2  0
 32 33  2  0
 34 35  2  0
 35 36  1  0
 36 37  2  0
  9 38  1  0
 37 38  1  0
 34 39  1  0
 38 39  2  0
 21 41  1  6
 40 41  2  0
 41 42  1  0
 42 43  2  0
 43 44  1  0
  1 45  1  0
 40 45  1  0
 44 45  2  0
 31 46  1  0
 46 47  2  0
 47 48  1  0
 33 49  1  1
 48 49  2  0
 49 50  1  0
 46 51  1  0
 50 51  2  0
 52 53  1  0
 53 54  1  0
 33 55  1  0
 54 55  1  0
 27 56  1  0
 56 28  1  6
 55 56  1  0
  4 57  1  0
 57 52  1  6
 56 57  1  0
M  END
