x2540-x0759-x3110-x0734
     RDKit          3D

 48 54  0  0  0  0  0  0  0  0999 V2000
    8.0560    1.3980   23.1550 N   0  0  0  0  0  0  0  0  0  0  0  0
   13.4550    5.1390   22.7350 C   0  0  0  0  0  0  0  0  0  0  0  0
   11.9860    3.2460   22.5000 O   0  0  0  0  0  0  0  0  0  0  0  0
   12.3690    4.4880   21.9010 C   0  0  0  0  0  0  0  0  0  0  0  0
   11.0940    4.4340   24.2160 O   0  0  0  0  0  0  0  0  0  0  0  0
   11.1340    3.4220   23.5360 C   0  0  0  0  0  0  0  0  0  0  0  0
    8.7570    1.4010   21.0000 O   0  0  0  0  0  0  0  0  0  0  0  0
   10.2580    2.2050   23.7050 C   0  0  0  0  0  0  0  0  0  0  0  0
    4.8400   -3.0660   21.3530 O   0  0  0  0  0  0  0  0  0  0  0  0
    8.7700    2.5280   23.5150 C   0  0  0  0  0  0  0  0  0  0  0  0
    8.0250    0.9170   21.8580 C   0  0  0  0  0  0  0  0  0  0  0  0
    6.9640   -0.2140   21.5990 C   0  0  1  0  0  0  0  0  0  0  0  0
    6.1680   -2.8580   21.2430 C   0  0  0  0  0  0  0  0  0  0  0  0
    6.6970   -3.9210   20.3410 C   0  0  0  0  0  0  0  0  0  0  0  0
    8.1780   -3.7030   20.1320 C   0  0  0  0  0  0  0  0  0  0  0  0
   12.6180   -1.4810   23.7980 C   0  0  1  0  0  0  0  0  0  0  0  0
   12.1640   -0.0710   23.5550 C   0  0  0  0  0  0  0  0  0  0  0  0
   12.8530   -2.0930   22.5310 C   0  0  0  0  0  0  0  0  0  0  0  0
   11.4560   -2.3230   24.3660 C   0  0  0  0  0  0  0  0  0  0  0  0
    8.1840    3.1800   24.7740 C   0  0  0  0  0  0  0  0  0  0  0  0
    8.6080    3.6100   22.4240 C   0  0  0  0  0  0  0  0  0  0  0  0
   11.4590   -1.2180   22.8760 C   0  0  1  0  0  0  0  0  0  0  0  0
    6.3710    0.2600   17.8830 N   0  0  0  0  0  0  0  0  0  0  0  0
    5.1780    1.1150   17.8570 C   0  0  0  0  0  0  0  0  0  0  0  0
    4.6170    1.4710   19.0510 C   0  0  0  0  0  0  0  0  0  0  0  0
    5.1480    1.0580   20.2770 C   0  0  0  0  0  0  0  0  0  0  0  0
    6.3030    0.2420   20.3020 C   0  0  0  0  0  0  0  0  0  0  0  0
    6.9020   -0.1570   19.1020 C   0  0  0  0  0  0  0  0  0  0  0  0
    8.8400   -2.0830   22.3030 C   0  0  1  0  0  0  0  0  0  0  0  0
    9.9840   -1.4930   23.1420 C   0  0  0  0  0  0  0  0  0  0  0  0
    9.7630   -1.0630   24.4400 C   0  0  0  0  0  0  0  0  0  0  0  0
    8.5350   -1.1690   25.0070 C   0  0  0  0  0  0  0  0  0  0  0  0
    7.5160   -1.4100   24.1620 C   0  0  0  0  0  0  0  0  0  0  0  0
    7.7250   -2.2670   23.1270 C   0  0  1  0  0  0  0  0  0  0  0  0
    7.2810   -1.7560   21.8950 C   0  0  1  0  0  0  0  0  0  0  0  0
    8.0100   -3.7080   23.4900 N   0  0  0  0  0  0  0  0  0  0  0  0
    8.4630   -4.1540   22.3570 C   0  0  0  0  0  0  0  0  0  0  0  0
    9.1450   -3.2720   21.4830 C   0  0  0  0  0  0  0  0  0  0  0  0
    4.8200   -5.0090   26.5320 N   0  0  0  0  0  0  0  0  0  0  0  0
    4.1480   -5.8170   25.6450 O   0  0  0  0  0  0  0  0  0  0  0  0
    4.3860   -3.9120   26.9100 O   0  0  0  0  0  0  0  0  0  0  0  0
    6.2710   -5.1590   26.5420 C   0  0  0  0  0  0  0  0  0  0  0  0
    6.9850   -4.5580   25.5340 C   0  0  0  0  0  0  0  0  0  0  0  0
    8.3500   -4.6740   25.5070 C   0  0  0  0  0  0  0  0  0  0  0  0
    9.0310   -5.3950   26.4650 C   0  0  0  0  0  0  0  0  0  0  0  0
    8.3420   -5.9930   27.4850 C   0  0  0  0  0  0  0  0  0  0  0  0
    6.9420   -5.8810   27.5370 C   0  0  0  0  0  0  0  0  0  0  0  0
    8.9950   -4.0370   24.5020 C   0  0  0  0  0  0  0  0  0  0  0  0
  2  4  1  0
  3  4  1  0
  3  6  1  0
  5  6  2  0
  6  8  1  0
 10  1  1  0
  8 10  1  0
  1 11  1  0
  7 11  2  0
 12 11  1  6
  9 13  2  0
 13 14  1  0
 14 15  1  0
 16 17  1  0
 16 18  1  0
 16 19  1  6
 10 20  1  0
 10 21  1  0
 16 22  1  0
 17 22  1  0
 18 22  1  0
 23 24  2  0
 24 25  1  0
 25 26  2  0
 12 27  1  0
 26 27  1  0
 23 28  1  0
 27 28  2  0
 22 30  1  1
 29 30  1  0
 30 31  2  0
 31 32  1  0
 32 33  1  0
 29 34  1  0
 34 33  1  1
 12 35  1  0
 35 13  1  6
 29 35  1  0
 34 35  1  0
 34 36  1  0
 36 37  1  0
 29 38  1  6
 37 38  2  0
 39 40  2  0
 39 41  1  0
 39 42  1  0
 42 43  2  0
 43 44  1  0
 44 45  2  0
 45 46  1  0
 42 47  1  0
 46 47  2  0
 36 48  1  0
 44 48  1  0
M  CHG  2  39   1  41  -1
M  END
