x2540-x2754-x0978
     RDKit          3D

 55 59  0  0  0  0  0  0  0  0999 V2000
    6.8190   -1.1910   22.2350 C   0  0  1  0  0  0  0  0  0  0  0  0
    6.7630   -3.5330   19.3840 C   0  0  0  0  0  0  0  0  0  0  0  0
    4.6530   -2.9500   21.5130 O   0  0  0  0  0  0  0  0  0  0  0  0
    6.8820   -2.3360   20.3480 C   0  0  0  0  0  0  0  0  0  0  0  0
    7.9790    1.8120   23.0850 N   0  0  0  0  0  0  0  0  0  0  0  0
    8.8280    1.6760   20.8510 O   0  0  0  0  0  0  0  0  0  0  0  0
    5.8050   -2.2820   21.4490 C   0  0  0  0  0  0  0  0  0  0  0  0
    6.7370    0.2690   21.5700 C   0  0  1  0  0  0  0  0  0  0  0  0
    7.9040    1.2650   21.8290 C   0  0  0  0  0  0  0  0  0  0  0  0
    8.9100    2.9100   23.3870 C   0  0  0  0  0  0  0  0  0  0  0  0
    8.9130    3.0450   24.9010 C   0  0  0  0  0  0  0  0  0  0  0  0
    8.5160    4.2650   22.7540 C   0  0  0  0  0  0  0  0  0  0  0  0
   10.3610    2.5960   22.9340 C   0  0  0  0  0  0  0  0  0  0  0  0
   11.9910   -1.3070   23.6490 C   0  0  0  0  0  0  0  0  0  0  0  0
   12.6650   -1.3220   22.2730 C   0  0  0  0  0  0  0  0  0  0  0  0
   12.3900   -0.0140   24.3640 C   0  0  0  0  0  0  0  0  0  0  0  0
   12.5760   -2.4670   24.4820 C   0  0  0  0  0  0  0  0  0  0  0  0
    2.0310   -5.6090   22.8920 N   0  0  0  0  0  0  0  0  0  0  0  0
    1.7120   -8.0230   25.1000 C   0  0  0  0  0  0  0  0  0  0  0  0
    4.0420   -8.0670   24.8300 O   0  0  0  0  0  0  0  0  0  0  0  0
    2.8520   -7.6020   24.1790 C   0  0  2  0  0  0  0  0  0  0  0  0
    5.1260   -6.4330   22.1460 N   0  0  0  0  0  0  0  0  0  0  0  0
    0.8510   -7.4020   22.0790 O   0  0  0  0  0  0  0  0  0  0  0  0
    3.0340   -6.1400   23.7890 C   0  0  1  0  0  0  0  0  0  0  0  0
    0.8670   -6.2660   22.5370 C   0  0  0  0  0  0  0  0  0  0  0  0
   -0.4040   -5.4560   22.7320 C   0  0  0  0  0  0  0  0  0  0  0  0
    4.4820   -5.9300   23.1830 C   0  0  0  0  0  0  0  0  0  0  0  0
    7.6070   -2.2840   21.5940 C   0  0  0  0  0  0  0  0  0  0  0  0
    5.1260   -3.4120   25.2200 C   0  0  0  0  0  0  0  0  0  0  0  0
    4.0370   -2.9530   24.8480 O   0  0  0  0  0  0  0  0  0  0  0  0
    5.5800   -3.2550   26.5300 N   0  0  0  0  0  0  0  0  0  0  0  0
    5.1130   -2.2280   27.2730 C   0  0  0  0  0  0  0  0  0  0  0  0
    6.3210    0.4530   17.8330 N   0  0  0  0  0  0  0  0  0  0  0  0
    5.2310    1.2440   17.7630 C   0  0  0  0  0  0  0  0  0  0  0  0
    4.4820    1.8030   18.8070 C   0  0  0  0  0  0  0  0  0  0  0  0
    4.9680    1.4780   20.0400 C   0  0  0  0  0  0  0  0  0  0  0  0
    6.2040    0.5930   20.2110 C   0  0  0  0  0  0  0  0  0  0  0  0
    6.7830    0.1430   19.0390 C   0  0  0  0  0  0  0  0  0  0  0  0
    9.7200   -1.4920   24.6620 O   0  0  0  0  0  0  0  0  0  0  0  0
    8.3390   -1.4630   24.3560 N   0  0  0  0  0  0  0  0  0  0  0  0
    8.1760   -1.2810   23.0260 C   0  0  0  0  0  0  0  0  0  0  0  0
    9.4890   -1.1990   22.5750 C   0  0  0  0  0  0  0  0  0  0  0  0
   10.4790   -1.3210   23.5380 C   0  0  0  0  0  0  0  0  0  0  0  0
    6.9950   -4.8010   21.6900 N   0  0  0  0  0  0  0  0  0  0  0  0
    6.7320   -3.4440   22.1660 C   0  0  1  0  0  0  0  0  0  0  0  0
    6.8860   -3.3460   23.5620 C   0  0  0  0  0  0  0  0  0  0  0  0
    6.0920   -4.2070   24.3080 C   0  0  2  0  0  0  0  0  0  0  0  0
    5.5350   -5.1720   23.4950 C   0  0  0  0  0  0  0  0  0  0  0  0
    6.3300   -5.7920   22.5140 C   0  0  1  0  0  0  0  0  0  0  0  0
    7.0860   -4.7910   27.6950 C   0  0  0  0  0  0  0  0  0  0  0  0
    8.3680   -5.2860   27.9490 C   0  0  0  0  0  0  0  0  0  0  0  0
    9.4850   -4.7440   27.3200 C   0  0  0  0  0  0  0  0  0  0  0  0
    9.4330   -3.6870   26.4020 C   0  0  0  0  0  0  0  0  0  0  0  0
    8.0570   -3.1150   26.0970 C   0  0  0  0  0  0  0  0  0  0  0  0
    6.8730   -3.7410   26.8060 C   0  0  0  0  0  0  0  0  0  0  0  0
  2  4  1  0
  1  7  1  0
  3  7  2  0
  4  7  1  0
  1  8  1  0
  5  9  1  0
  6  9  2  0
  8  9  1  6
 10  5  1  0
 10 11  1  0
 10 12  1  0
 10 13  1  0
 14 15  1  0
 14 16  1  0
 14 17  1  0
 21 19  1  1
 20 21  1  0
 24 18  1  6
 21 24  1  0
 18 25  1  0
 23 25  2  0
 25 26  1  0
 22 27  1  0
 24 27  1  0
  1 28  1  6
 29 30  2  0
 29 31  1  0
 31 32  1  0
 33 34  2  0
 34 35  1  0
 35 36  2  0
  8 37  1  0
 36 37  1  0
 33 38  1  0
 37 38  2  0
 39 40  1  0
  1 41  1  0
 40 41  2  0
 41 42  1  0
 14 43  1  0
 39 43  1  0
 42 43  2  0
 45 28  1  6
 44 45  1  0
 45 46  1  0
 47 29  1  6
 46 47  1  0
 27 48  2  0
 47 48  1  0
 49 22  1  6
 44 49  1  0
 48 49  1  0
 50 51  2  0
 51 52  1  0
 52 53  2  0
 53 54  1  0
 31 55  1  0
 50 55  1  0
 54 55  2  0
M  END
