x2540-x1493-x0978
     RDKit          3D

 48 50  0  0  0  0  0  0  0  0999 V2000
    6.8090   -1.3510   21.9920 C   0  0  1  0  0  0  0  0  0  0  0  0
    7.5150   -3.2290   19.1750 C   0  0  0  0  0  0  0  0  0  0  0  0
    4.9150   -3.0410   21.0110 O   0  0  0  0  0  0  0  0  0  0  0  0
    7.3210   -3.3940   20.6430 C   0  0  0  0  0  0  0  0  0  0  0  0
    7.8670    1.7880   23.2430 N   0  0  0  0  0  0  0  0  0  0  0  0
    8.5320    1.5770   20.9180 O   0  0  0  0  0  0  0  0  0  0  0  0
    6.1940   -2.6000   21.1710 C   0  0  0  0  0  0  0  0  0  0  0  0
    6.5460    0.1270   21.6710 C   0  0  1  0  0  0  0  0  0  0  0  0
    7.6990    1.1940   21.9470 C   0  0  0  0  0  0  0  0  0  0  0  0
    8.7860    2.9420   23.3790 C   0  0  0  0  0  0  0  0  0  0  0  0
    9.0920    3.3550   24.8210 C   0  0  0  0  0  0  0  0  0  0  0  0
    8.3480    3.9420   22.5020 C   0  0  0  0  0  0  0  0  0  0  0  0
   10.1750    2.5710   22.9010 C   0  0  0  0  0  0  0  0  0  0  0  0
   12.2500   -1.4260   23.2630 C   0  0  0  0  0  0  0  0  0  0  0  0
   12.8780   -1.7750   22.0760 C   0  0  0  0  0  0  0  0  0  0  0  0
   12.7540   -0.0200   23.6010 C   0  0  0  0  0  0  0  0  0  0  0  0
   12.7200   -2.3630   24.4030 C   0  0  0  0  0  0  0  0  0  0  0  0
    2.1410   -5.6210   23.1890 N   0  0  0  0  0  0  0  0  0  0  0  0
    1.9870   -8.3170   24.4170 C   0  0  0  0  0  0  0  0  0  0  0  0
    4.4590   -7.9080   24.7600 O   0  0  0  0  0  0  0  0  0  0  0  0
    3.1840   -7.3580   24.5380 C   0  0  1  0  0  0  0  0  0  0  0  0
    0.8690   -7.4400   21.9300 O   0  0  0  0  0  0  0  0  0  0  0  0
    3.3720   -6.4290   23.3430 C   0  0  2  0  0  0  0  0  0  0  0  0
    4.0950   -4.2050   23.7830 O   0  0  0  0  0  0  0  0  0  0  0  0
    0.9580   -6.2600   22.5890 C   0  0  0  0  0  0  0  0  0  0  0  0
   -0.3740   -5.4700   22.7160 C   0  0  0  0  0  0  0  0  0  0  0  0
    6.0720   -1.8710   23.1520 C   0  0  0  0  0  0  0  0  0  0  0  0
    5.5980   -3.1980   23.1570 C   0  0  0  0  0  0  0  0  0  0  0  0
    4.2020   -5.8720   26.3430 C   0  0  0  0  0  0  0  0  0  0  0  0
    6.4430   -6.0310   26.6830 O   0  0  0  0  0  0  0  0  0  0  0  0
    5.5220   -5.8880   25.8920 C   0  0  0  0  0  0  0  0  0  0  0  0
    6.3840    0.5550   17.7710 N   0  0  0  0  0  0  0  0  0  0  0  0
    5.2370    1.4740   17.6770 C   0  0  0  0  0  0  0  0  0  0  0  0
    4.5280    1.9250   18.8640 C   0  0  0  0  0  0  0  0  0  0  0  0
    5.0000    1.4380   20.2140 C   0  0  0  0  0  0  0  0  0  0  0  0
    6.0910    0.5730   20.3210 C   0  0  0  0  0  0  0  0  0  0  0  0
    6.8370    0.0820   19.0880 C   0  0  0  0  0  0  0  0  0  0  0  0
    9.9140   -1.7190   24.2460 O   0  0  0  0  0  0  0  0  0  0  0  0
    8.5240   -1.7270   23.9810 N   0  0  0  0  0  0  0  0  0  0  0  0
    8.2680   -1.4430   22.5410 C   0  0  0  0  0  0  0  0  0  0  0  0
    9.6660   -1.2900   22.0180 C   0  0  0  0  0  0  0  0  0  0  0  0
   10.6820   -1.4720   23.1380 C   0  0  0  0  0  0  0  0  0  0  0  0
    5.7110   -5.7110   24.4290 N   0  0  0  0  0  0  0  0  0  0  0  0
    7.0780   -5.2220   24.1310 C   0  0  0  0  0  0  0  0  0  0  0  0
    7.2640   -4.7050   22.7230 C   0  0  0  0  0  0  0  0  0  0  0  0
    6.1480   -4.1930   22.1800 N   0  0  0  0  0  0  0  0  0  0  0  0
    5.2910   -5.2720   22.0970 C   0  0  0  0  0  0  0  0  0  0  0  0
    4.5800   -5.4820   23.4220 C   0  0  1  0  0  0  0  0  0  0  0  0
  2  4  1  0
  1  7  1  0
  3  7  2  0
  4  7  1  0
  1  8  1  0
  5  9  1  0
  6  9  2  0
  8  9  1  6
 10  5  1  0
 10 11  1  0
 10 12  1  0
 10 13  1  0
 14 15  1  0
 14 16  1  0
 14 17  1  0
 21 19  1  6
 20 21  1  0
 23 18  1  1
 21 23  1  0
 18 25  1  0
 22 25  2  0
 25 26  1  0
  1 27  1  1
 27 28  1  0
 29 31  1  0
 30 31  2  0
 32 33  2  0
 33 34  1  0
 34 35  2  0
  8 36  1  0
 35 36  1  0
 32 37  1  0
 36 37  2  0
 38 39  1  0
  1 40  1  0
 39 40  2  0
 40 41  1  0
 14 42  1  0
 38 42  1  0
 41 42  2  0
 31 43  1  0
 43 44  1  0
 44 45  1  0
 28 46  1  0
 45 46  1  0
 46 47  1  0
 23 48  1  0
 48 24  1  1
 43 48  1  0
 47 48  1  0
M  END
