x2540-x1386
     RDKit          3D

 29 32  0  0  0  0  0  0  0  0999 V2000
    7.0040   -1.2790   21.7060 N   0  0  0  0  0  0  0  0  0  0  0  0
    6.6710   -3.7410   19.8300 C   0  0  0  0  0  0  0  0  0  0  0  0
    4.9410   -3.1940   21.2970 O   0  0  0  0  0  0  0  0  0  0  0  0
    6.8320   -3.2330   21.2520 C   0  0  0  0  0  0  0  0  0  0  0  0
    8.0620    1.6430   23.0680 N   0  0  0  0  0  0  0  0  0  0  0  0
    8.7030    1.5910   20.9480 O   0  0  0  0  0  0  0  0  0  0  0  0
    5.7890   -2.1680   21.5190 C   0  0  0  0  0  0  0  0  0  0  0  0
    6.8300    0.1400   21.5310 C   0  0  1  0  0  0  0  0  0  0  0  0
    7.9410    1.1560   21.8090 C   0  0  0  0  0  0  0  0  0  0  0  0
    8.8930    2.7590   23.3670 C   0  0  0  0  0  0  0  0  0  0  0  0
    8.9510    2.9340   24.7410 C   0  0  0  0  0  0  0  0  0  0  0  0
    8.4420    4.0620   22.6840 C   0  0  0  0  0  0  0  0  0  0  0  0
   10.2490    2.4910   22.9590 C   0  0  0  0  0  0  0  0  0  0  0  0
   12.2390   -2.5760   24.1650 C   0  0  0  0  0  0  0  0  0  0  0  0
    6.2620    0.3190   17.7200 N   0  0  0  0  0  0  0  0  0  0  0  0
    5.2420    1.1930   17.7870 C   0  0  0  0  0  0  0  0  0  0  0  0
    4.6660    1.7520   18.9260 C   0  0  0  0  0  0  0  0  0  0  0  0
    5.1330    1.4430   20.1870 C   0  0  0  0  0  0  0  0  0  0  0  0
    6.2970    0.4690   20.2750 C   0  0  0  0  0  0  0  0  0  0  0  0
    6.8700   -0.1130   18.9800 C   0  0  0  0  0  0  0  0  0  0  0  0
    9.7630   -2.3730   24.1160 N   0  0  0  0  0  0  0  0  0  0  0  0
    8.3080   -2.3640   23.7490 N   0  0  0  0  0  0  0  0  0  0  0  0
    8.1790   -1.5290   22.6190 C   0  0  0  0  0  0  0  0  0  0  0  0
    9.5560   -0.8310   22.5010 C   0  0  0  0  0  0  0  0  0  0  0  0
   10.4490   -1.1660   23.5210 C   0  0  2  0  0  0  0  0  0  0  0  0
   11.7970   -1.4540   23.2550 C   0  0  2  0  0  0  0  0  0  0  0  0
   10.5510   -0.1070   24.5660 C   0  0  0  0  0  0  0  0  0  0  0  0
   12.2200    0.1640   24.0670 S   0  0  0  0  0  0  0  0  0  0  0  0
   12.9660   -0.7240   22.7310 C   0  0  0  0  0  0  0  0  0  0  0  0
  2  4  1  0
  1  7  1  0
  3  7  2  0
  4  7  1  0
  1  8  1  0
  5  9  1  0
  6  9  2  0
  8  9  1  6
 10  5  1  0
 10 11  1  0
 10 12  1  0
 10 13  1  0
 15 16  2  0
 16 17  1  0
 17 18  2  0
  8 19  1  0
 18 19  1  0
 15 20  1  0
 19 20  2  0
 21 22  2  0
  1 23  1  0
 22 23  1  0
 23 24  2  0
 25 21  1  0
 25 24  1  6
 26 14  1  1
 25 26  1  0
 25 27  1  0
 26 28  1  0
 27 28  2  0
 26 29  1  0
 28 29  1  6
M  END
