x2540-x1493-x3110-x0731-x1077
     RDKit          3D

 59 67  0  0  0  0  0  0  0  0999 V2000
    7.8900    1.2820   23.1370 N   0  0  0  0  0  0  0  0  0  0  0  0
   13.3940    5.1310   22.8870 C   0  0  0  0  0  0  0  0  0  0  0  0
   12.0150    3.3770   22.3700 O   0  0  0  0  0  0  0  0  0  0  0  0
   12.3420    4.4840   21.9480 C   0  0  0  0  0  0  0  0  0  0  0  0
    7.0370   -1.5880   21.6240 N   0  0  0  0  0  0  0  0  0  0  0  0
   11.1060    4.2820   24.2710 O   0  0  0  0  0  0  0  0  0  0  0  0
   11.1660    3.3930   23.4300 C   0  0  0  0  0  0  0  0  0  0  0  0
    8.5070    1.4010   20.9670 O   0  0  0  0  0  0  0  0  0  0  0  0
   10.2790    2.1160   23.3940 C   0  0  0  0  0  0  0  0  0  0  0  0
    4.8800   -3.0100   21.0420 O   0  0  0  0  0  0  0  0  0  0  0  0
    8.7880    2.3730   23.5300 C   0  0  0  0  0  0  0  0  0  0  0  0
    7.7560    0.8950   21.8250 C   0  0  0  0  0  0  0  0  0  0  0  0
    6.6390   -0.1440   21.4240 C   0  0  1  0  0  0  0  0  0  0  0  0
    6.3180   -2.8110   21.2940 C   0  0  0  0  0  0  0  0  0  0  0  0
    6.8890   -4.0770   21.2470 C   0  0  2  0  0  0  0  0  0  0  0  0
    8.3220   -4.2100   20.8730 C   0  0  0  0  0  0  0  0  0  0  0  0
   12.7200   -1.8190   24.3300 C   0  0  1  0  0  0  0  0  0  0  0  0
   12.0790   -0.4820   24.7990 C   0  0  0  0  0  0  0  0  0  0  0  0
   13.1690   -1.7760   22.9080 C   0  0  0  0  0  0  0  0  0  0  0  0
   12.2330   -3.0600   24.9680 C   0  0  0  0  0  0  0  0  0  0  0  0
    8.6090    2.7530   24.9490 C   0  0  0  0  0  0  0  0  0  0  0  0
    8.5030    3.6610   22.7300 C   0  0  0  0  0  0  0  0  0  0  0  0
   12.0120   -0.9370   23.4130 C   0  0  1  0  0  0  0  0  0  0  0  0
    0.7160   -0.8890   26.2700 C   0  0  0  0  0  0  0  0  0  0  0  0
    4.6880   -5.0180   24.9320 O   0  0  0  0  0  0  0  0  0  0  0  0
    5.6300   -4.2480   25.8680 S   0  0  2  0  0  0  0  0  0  0  0  0
    5.5170   -6.8560   27.4290 C   0  0  0  0  0  0  0  0  0  0  0  0
    6.1820   -6.2400   26.2030 C   0  0  0  0  0  0  0  0  0  0  0  0
    6.3210    0.4520   17.8440 N   0  0  0  0  0  0  0  0  0  0  0  0
    5.2350    1.2280   17.7340 C   0  0  0  0  0  0  0  0  0  0  0  0
    4.5310    1.5750   18.8350 C   0  0  0  0  0  0  0  0  0  0  0  0
    4.9750    1.1180   20.0560 C   0  0  0  0  0  0  0  0  0  0  0  0
    6.0890    0.3370   20.1850 C   0  0  0  0  0  0  0  0  0  0  0  0
    6.7610    0.0020   19.0260 C   0  0  0  0  0  0  0  0  0  0  0  0
    9.4810   -1.2010   21.9710 C   0  0  0  0  0  0  0  0  0  0  0  0
   10.7900   -1.0410   22.5800 C   0  0  0  0  0  0  0  0  0  0  0  0
   10.4570   -1.3670   23.9080 C   0  0  0  0  0  0  0  0  0  0  0  0
    9.2500   -1.7360   24.5280 C   0  0  0  0  0  0  0  0  0  0  0  0
    8.1170   -1.8180   23.7870 C   0  0  0  0  0  0  0  0  0  0  0  0
    8.1980   -1.5470   22.4700 C   0  0  0  0  0  0  0  0  0  0  0  0
    6.8110   -5.1640   26.1450 C   0  0  0  0  0  0  0  0  0  0  0  0
    7.3960   -5.3020   24.9170 C   0  0  2  0  0  0  0  0  0  0  0  0
    8.6170   -4.5340   24.2440 C   0  0  0  0  0  0  0  0  0  0  0  0
    9.7090   -4.8310   25.0210 C   0  0  0  0  0  0  0  0  0  0  0  0
    9.6010   -4.0060   26.2470 N   0  0  0  0  0  0  0  0  0  0  0  0
    8.5320   -4.5480   27.1300 C   0  0  0  0  0  0  0  0  0  0  0  0
    7.2260   -4.1670   26.7320 C   0  0  0  0  0  0  0  0  0  0  0  0
    2.0020   -1.6570   26.1930 C   0  0  0  0  0  0  0  0  0  0  0  0
    1.9500   -2.9380   25.6370 C   0  0  0  0  0  0  0  0  0  0  0  0
    3.0880   -3.7190   25.5420 C   0  0  0  0  0  0  0  0  0  0  0  0
    4.4350   -3.1540   26.0630 C   0  0  0  0  0  0  0  0  0  0  0  0
    4.3700   -1.7450   26.6370 C   0  0  0  0  0  0  0  0  0  0  0  0
    3.1560   -1.0900   26.6630 C   0  0  0  0  0  0  0  0  0  0  0  0
    6.1100   -5.2680   21.0680 N   0  0  0  0  0  0  0  0  0  0  0  0
    6.8170   -6.0750   21.9520 C   0  0  0  0  0  0  0  0  0  0  0  0
    5.9350   -6.6310   22.9140 C   0  0  0  0  0  0  0  0  0  0  0  0
    5.9530   -5.6550   24.4260 S   0  0  0  0  0  0  0  0  0  0  0  0
    5.3810   -4.6440   23.2020 C   0  0  0  0  0  0  0  0  0  0  0  0
    5.0960   -5.4690   21.9810 C   0  0  0  0  0  0  0  0  0  0  0  0
  2  4  1  0
  3  4  1  0
  3  7  1  0
  6  7  2  0
  7  9  1  0
 11  1  1  0
  9 11  1  0
  1 12  1  0
  8 12  2  0
  5 13  1  0
 13 12  1  6
  5 14  1  0
 10 14  2  0
 14 15  1  0
 15 16  1  6
 17 18  1  0
 17 19  1  0
 17 20  1  6
 11 21  1  0
 11 22  1  0
 17 23  1  0
 18 23  1  0
 19 23  1  0
 25 26  2  0
 27 28  1  0
 29 30  2  0
 30 31  1  0
 31 32  2  0
 13 33  1  0
 32 33  1  0
 29 34  1  0
 33 34  2  0
 23 36  1  6
 35 36  2  0
 36 37  1  0
 37 38  2  0
 38 39  1  0
  5 40  1  0
 35 40  1  0
 39 40  2  0
 28 41  2  0
 41 42  1  0
 42 43  1  6
 43 44  1  0
 44 45  1  0
 45 46  1  0
 26 47  2  0
 41 47  1  0
 46 47  1  0
 24 48  1  0
 48 49  2  0
 49 50  1  0
 26 51  1  6
 50 51  2  0
 51 52  1  0
 48 53  1  0
 52 53  2  0
 15 54  1  0
 54 55  1  0
 55 56  1  0
 26 57  1  0
 28 57  1  0
 42 57  1  0
 56 57  1  0
 57 58  1  0
 54 59  1  0
 58 59  1  0
M  END
