x2540-x1348
     RDKit          3D

 39 42  0  0  0  0  0  0  0  0999 V2000
    6.9520   -1.3440   21.7230 N   0  0  0  0  0  0  0  0  0  0  0  0
    6.7100   -4.2160   19.9390 C   0  0  0  0  0  0  0  0  0  0  0  0
    4.7740   -2.9140   21.2190 O   0  0  0  0  0  0  0  0  0  0  0  0
    6.9260   -3.7810   21.3670 C   0  0  1  0  0  0  0  0  0  0  0  0
    7.8750    1.6140   23.1390 N   0  0  0  0  0  0  0  0  0  0  0  0
    8.5630    1.3400   20.9520 O   0  0  0  0  0  0  0  0  0  0  0  0
    6.0990   -2.5730   21.4280 C   0  0  0  0  0  0  0  0  0  0  0  0
    6.4820    0.0590   21.5170 C   0  0  1  0  0  0  0  0  0  0  0  0
    7.7310    1.0170   21.8080 C   0  0  0  0  0  0  0  0  0  0  0  0
    8.7990    2.7450   23.3460 C   0  0  0  0  0  0  0  0  0  0  0  0
    8.7160    2.8830   24.8630 C   0  0  0  0  0  0  0  0  0  0  0  0
    8.3540    4.0680   22.6850 C   0  0  0  0  0  0  0  0  0  0  0  0
   10.2460    2.4020   22.9320 C   0  0  0  0  0  0  0  0  0  0  0  0
   11.6960   -1.2240   23.7560 C   0  0  0  0  0  0  0  0  0  0  0  0
   12.5860   -1.0130   22.6850 C   0  0  0  0  0  0  0  0  0  0  0  0
   12.4890    0.0440   23.7540 C   0  0  0  0  0  0  0  0  0  0  0  0
   12.7080   -2.3080   23.4820 C   0  0  0  0  0  0  0  0  0  0  0  0
    7.5830   -5.6610   27.8100 C   0  0  0  0  0  0  0  0  0  0  0  0
    7.2210   -4.8760   26.6640 O   0  0  0  0  0  0  0  0  0  0  0  0
    6.2530    0.5400   17.7370 N   0  0  0  0  0  0  0  0  0  0  0  0
    5.2040    1.4250   17.6600 C   0  0  0  0  0  0  0  0  0  0  0  0
    4.5490    1.8600   18.7620 C   0  0  0  0  0  0  0  0  0  0  0  0
    4.9930    1.3830   19.9540 C   0  0  0  0  0  0  0  0  0  0  0  0
    6.1080    0.4430   20.1660 C   0  0  0  0  0  0  0  0  0  0  0  0
    6.7010    0.0440   19.0320 C   0  0  0  0  0  0  0  0  0  0  0  0
    9.3360   -1.9210   24.3720 O   0  0  0  0  0  0  0  0  0  0  0  0
    8.0370   -1.9710   23.8520 N   0  0  0  0  0  0  0  0  0  0  0  0
    8.1170   -1.4780   22.5880 C   0  0  0  0  0  0  0  0  0  0  0  0
    9.4540   -1.1080   22.2600 C   0  0  0  0  0  0  0  0  0  0  0  0
   10.2160   -1.3820   23.3830 C   0  0  0  0  0  0  0  0  0  0  0  0
    6.2140   -5.5230   25.9980 C   0  0  0  0  0  0  0  0  0  0  0  0
    6.0380   -5.3710   24.6320 C   0  0  0  0  0  0  0  0  0  0  0  0
    5.0110   -6.0270   23.8650 C   0  0  0  0  0  0  0  0  0  0  0  0
    4.0410   -6.9580   24.6430 C   0  0  0  0  0  0  0  0  0  0  0  0
    4.2460   -7.1050   26.1740 C   0  0  0  0  0  0  0  0  0  0  0  0
    5.3920   -6.3210   26.7520 C   0  0  0  0  0  0  0  0  0  0  0  0
    6.8380   -4.5700   23.9200 N   0  0  0  0  0  0  0  0  0  0  0  0
    6.3540   -4.6130   22.4950 C   0  0  0  0  0  0  0  0  0  0  0  0
    5.0440   -5.6450   22.1930 S   0  0  0  0  0  0  0  0  0  0  0  0
  4  2  1  6
  1  7  1  0
  3  7  2  0
  4  7  1  0
  1  8  1  0
  5  9  1  0
  6  9  2  0
  8  9  1  6
 10  5  1  0
 10 11  1  0
 10 12  1  0
 10 13  1  0
 14 15  1  0
 14 16  1  0
 14 17  1  0
 18 19  1  0
 20 21  2  0
 21 22  1  0
 22 23  2  0
  8 24  1  0
 23 24  1  0
 20 25  1  0
 24 25  2  0
 26 27  1  0
  1 28  1  0
 27 28  2  0
 28 29  1  0
 14 30  1  0
 26 30  1  0
 29 30  2  0
 19 31  1  0
 31 32  2  0
 32 33  1  0
 33 34  2  0
 34 35  1  0
 31 36  1  0
 35 36  2  0
 32 37  1  0
  4 38  1  0
 37 38  2  0
 33 39  1  0
 38 39  1  0
M  END
