x2540-x0731-x3113-x0691
     RDKit          3D

 55 65  0  0  0  0  0  0  0  0999 V2000
    7.0210   -1.6860   21.5270 C   0  0  2  0  0  0  0  0  0  0  0  0
    6.6120   -4.2150   20.2630 C   0  0  0  0  0  0  0  0  0  0  0  0
    4.6170   -2.9490   21.5500 O   0  0  0  0  0  0  0  0  0  0  0  0
    5.8490   -3.0850   19.7610 C   0  0  0  0  0  0  0  0  0  0  0  0
    7.9740    1.4170   23.1420 N   0  0  0  0  0  0  0  0  0  0  0  0
    8.6340    1.3690   20.8480 O   0  0  0  0  0  0  0  0  0  0  0  0
    5.7180   -2.5500   21.0540 C   0  0  0  0  0  0  0  0  0  0  0  0
   11.7190    3.7790   22.2280 O   0  0  0  0  0  0  0  0  0  0  0  0
    6.6640   -0.1460   21.5830 C   0  0  1  0  0  0  0  0  0  0  0  0
    7.8100    0.9030   21.8920 C   0  0  0  0  0  0  0  0  0  0  0  0
    8.9020    2.5310   23.4410 C   0  0  0  0  0  0  0  0  0  0  0  0
   10.3710    1.9950   23.3020 C   0  0  0  0  0  0  0  0  0  0  0  0
   11.5360    3.0010   23.3920 C   0  0  0  0  0  0  0  0  0  0  0  0
   12.9070    4.5580   22.3620 C   0  0  0  0  0  0  0  0  0  0  0  0
   13.0930   -1.7370   24.0590 C   0  0  1  0  0  0  0  0  0  0  0  0
   13.2750   -1.8470   22.5670 C   0  0  0  0  0  0  0  0  0  0  0  0
   12.4750   -2.9120   24.7660 C   0  0  0  0  0  0  0  0  0  0  0  0
   12.4690   -0.4330   24.4390 C   0  0  0  0  0  0  0  0  0  0  0  0
    8.4940    2.9050   24.8320 C   0  0  0  0  0  0  0  0  0  0  0  0
    8.6520    3.7720   22.5590 C   0  0  0  0  0  0  0  0  0  0  0  0
   12.2220   -0.8970   23.0070 C   0  0  2  0  0  0  0  0  0  0  0  0
    6.3200   -5.4520   25.6840 O   0  0  0  0  0  0  0  0  0  0  0  0
    4.0770   -6.4900   25.1790 N   0  0  0  0  0  0  0  0  0  0  0  0
    5.0370   -5.3210   25.0970 S   0  0  1  0  0  0  0  0  0  0  0  0
    6.7710   -2.7180   22.6030 C   0  0  0  0  0  0  0  0  0  0  0  0
    3.5850   -0.6740   25.7930 O   0  0  0  0  0  0  0  0  0  0  0  0
    6.3240    0.4740   17.9140 N   0  0  0  0  0  0  0  0  0  0  0  0
    5.2290    1.2610   17.8780 C   0  0  0  0  0  0  0  0  0  0  0  0
    4.5400    1.6200   19.0350 C   0  0  0  0  0  0  0  0  0  0  0  0
    4.9890    1.1650   20.2690 C   0  0  0  0  0  0  0  0  0  0  0  0
    6.1130    0.3650   20.3240 C   0  0  0  0  0  0  0  0  0  0  0  0
    6.7400    0.0470   19.1140 C   0  0  0  0  0  0  0  0  0  0  0  0
    9.4960   -1.0820   21.9830 C   0  0  0  0  0  0  0  0  0  0  0  0
   10.8530   -0.9260   22.4390 C   0  0  0  0  0  0  0  0  0  0  0  0
   10.9260   -1.9990   23.3410 C   0  0  0  0  0  0  0  0  0  0  0  0
    9.9390   -3.0710   23.7940 C   0  0  0  0  0  0  0  0  0  0  0  0
    8.5660   -3.0460   23.2130 C   0  0  0  0  0  0  0  0  0  0  0  0
    8.4090   -1.9350   22.2390 C   0  0  0  0  0  0  0  0  0  0  0  0
    1.9320   -2.6630   25.4480 C   0  0  0  0  0  0  0  0  0  0  0  0
    1.4950   -3.9990   25.5880 C   0  0  0  0  0  0  0  0  0  0  0  0
    2.9770   -4.4010   25.4120 C   0  0  0  0  0  0  0  0  0  0  0  0
    4.3550   -3.8870   25.8360 C   0  0  0  0  0  0  0  0  0  0  0  0
    3.1810   -3.0800   26.4130 C   0  0  2  0  0  0  0  0  0  0  0  0
    3.0710   -1.8860   25.8780 C   0  0  0  0  0  0  0  0  0  0  0  0
    6.9470   -5.3120   22.7540 C   0  0  2  0  0  0  0  0  0  0  0  0
    6.4820   -4.1150   21.9360 C   0  0  2  0  0  0  0  0  0  0  0  0
    5.2410   -4.1790   22.4950 C   0  0  0  0  0  0  0  0  0  0  0  0
    5.4410   -5.2240   23.3540 C   0  0  2  0  0  0  0  0  0  0  0  0
    5.8020   -6.3570   22.8170 C   0  0  1  0  0  0  0  0  0  0  0  0
    6.9070   -6.4340   22.1730 C   0  0  0  0  0  0  0  0  0  0  0  0
    3.9490   -7.0400   26.5110 N   0  0  0  0  0  0  0  0  0  0  0  0
    5.5640   -5.1210   27.4440 O   0  0  0  0  0  0  0  0  0  0  0  0
    5.0630   -6.4610   27.6800 S   0  0  0  0  0  0  0  0  0  0  0  0
    1.3000   -0.3760   26.2900 C   0  0  0  0  0  0  0  0  0  0  0  0
    2.5620    0.2180   25.9170 C   0  0  0  0  0  0  0  0  0  0  0  0
  2  4  1  0
  1  7  1  0
  3  7  2  0
  4  7  1  0
  1  9  1  0
  5 10  1  0
  6 10  2  0
  9 10  1  6
 11  5  1  0
 11 12  1  0
  8 13  1  0
 12 13  1  0
  8 14  1  0
 15 16  1  0
 15 17  1  6
 15 18  1  0
 11 19  1  0
 11 20  1  0
 15 21  1  0
 16 21  1  0
 18 21  1  0
 22 24  2  0
 23 24  2  0
  1 25  1  0
 27 28  2  0
 28 29  1  0
 29 30  2  0
  9 31  1  0
 30 31  1  0
 27 32  1  0
 31 32  2  0
 21 34  1  6
 33 34  2  0
 34 35  1  0
 35 36  2  0
 36 37  1  0
  1 38  1  6
 33 38  1  0
 37 38  2  0
 39 40  1  0
 40 41  1  0
 24 42  1  1
 41 42  2  0
 39 43  1  0
 41 43  1  0
 43 42  1  6
 26 44  1  0
 39 44  2  0
 43 44  1  0
 46  2  1  6
 46 25  1  0
 45 46  1  0
 46 47  1  0
 24 48  1  0
 45 48  1  0
 48 47  1  6
 45 49  1  0
 48 49  1  0
 45 50  1  1
 49 50  1  6
 23 51  1  0
 51 53  2  0
 52 53  2  0
 26 55  1  0
 54 55  1  0
M  END
