x2540-x1308
     RDKit          3D

 46 50  0  0  0  0  0  0  0  0999 V2000
    6.9220   -1.2280   21.8740 C   0  0  1  0  0  0  0  0  0  0  0  0
    6.6140   -3.8690   19.8810 C   0  0  0  0  0  0  0  0  0  0  0  0
    4.9840   -3.1320   20.8190 O   0  0  0  0  0  0  0  0  0  0  0  0
    6.7370   -3.2520   21.2560 C   0  0  1  0  0  0  0  0  0  0  0  0
    7.9550    1.7940   23.2080 N   0  0  0  0  0  0  0  0  0  0  0  0
    8.6780    1.6900   20.9180 O   0  0  0  0  0  0  0  0  0  0  0  0
    5.7390   -2.1660   21.2780 C   0  0  0  0  0  0  0  0  0  0  0  0
    6.7380    0.2470   21.5700 C   0  0  1  0  0  0  0  0  0  0  0  0
    7.8330    1.2580   21.9110 C   0  0  0  0  0  0  0  0  0  0  0  0
    8.8720    2.8540   23.3840 C   0  0  0  0  0  0  0  0  0  0  0  0
    9.2220    3.0550   24.7050 C   0  0  0  0  0  0  0  0  0  0  0  0
    8.3590    4.0470   22.5480 C   0  0  0  0  0  0  0  0  0  0  0  0
   10.2180    2.5110   22.7870 C   0  0  0  0  0  0  0  0  0  0  0  0
   12.0290   -1.3810   23.4150 C   0  0  0  0  0  0  0  0  0  0  0  0
   12.7920   -1.3150   22.2390 C   0  0  0  0  0  0  0  0  0  0  0  0
   12.2910   -0.1060   24.2000 C   0  0  0  0  0  0  0  0  0  0  0  0
   12.5570   -2.5360   24.2940 C   0  0  0  0  0  0  0  0  0  0  0  0
    0.8690   -1.0440   26.3950 Cl  0  0  0  0  0  0  0  0  0  0  0  0
    6.2280   -5.2220   26.8140 O   0  0  0  0  0  0  0  0  0  0  0  0
    4.5890   -7.0120   26.2960 O   0  0  0  0  0  0  0  0  0  0  0  0
    5.1470   -5.7140   26.0000 S   0  0  0  0  0  0  0  0  0  0  0  0
    6.2160   -1.4330   23.1960 C   0  0  0  0  0  0  0  0  0  0  0  0
    6.0510   -2.9790   23.5870 C   0  0  0  0  0  0  0  0  0  0  0  0
    6.3850    0.4320   17.8250 N   0  0  0  0  0  0  0  0  0  0  0  0
    5.2640    1.3880   17.6900 C   0  0  0  0  0  0  0  0  0  0  0  0
    4.7500    1.8460   18.8760 C   0  0  0  0  0  0  0  0  0  0  0  0
    5.1830    1.5080   20.1400 C   0  0  0  0  0  0  0  0  0  0  0  0
    6.2470    0.6130   20.2410 C   0  0  0  0  0  0  0  0  0  0  0  0
    6.8310    0.0830   19.1050 C   0  0  0  0  0  0  0  0  0  0  0  0
    9.7850   -2.3520   24.0450 O   0  0  0  0  0  0  0  0  0  0  0  0
    8.4110   -2.3840   23.7070 N   0  0  0  0  0  0  0  0  0  0  0  0
    8.3370   -1.5250   22.5290 C   0  0  0  0  0  0  0  0  0  0  0  0
    9.5900   -1.0530   22.2220 C   0  0  0  0  0  0  0  0  0  0  0  0
   10.5390   -1.5130   23.1270 C   0  0  0  0  0  0  0  0  0  0  0  0
    6.3420   -4.0720   22.4870 C   0  0  0  0  0  0  0  0  0  0  0  0
    7.3390   -4.8550   22.9610 C   0  0  0  0  0  0  0  0  0  0  0  0
    6.9280   -5.2700   24.1380 C   0  0  0  0  0  0  0  0  0  0  0  0
    5.7150   -5.7780   24.3730 N   0  0  0  0  0  0  0  0  0  0  0  0
    4.8470   -5.6550   23.3080 C   0  0  0  0  0  0  0  0  0  0  0  0
    5.1430   -4.7680   22.2510 C   0  0  0  0  0  0  0  0  0  0  0  0
    4.2850   -3.2240   26.4620 C   0  0  0  0  0  0  0  0  0  0  0  0
    3.3190   -2.2300   26.5380 C   0  0  0  0  0  0  0  0  0  0  0  0
    1.9640   -2.3530   26.2350 C   0  0  0  0  0  0  0  0  0  0  0  0
    1.5030   -3.7290   25.7550 C   0  0  0  0  0  0  0  0  0  0  0  0
    2.5440   -4.8590   25.6580 C   0  0  0  0  0  0  0  0  0  0  0  0
    3.9820   -4.5300   26.0490 C   0  0  0  0  0  0  0  0  0  0  0  0
  4  2  1  6
  1  7  1  0
  3  7  2  0
  4  7  1  0
  1  8  1  0
  5  9  1  0
  6  9  2  0
  8  9  1  6
 10  5  1  0
 10 11  1  0
 10 12  1  0
 10 13  1  0
 14 15  1  0
 14 16  1  0
 14 17  1  0
 19 21  2  0
 20 21  2  0
  1 22  1  0
 22 23  1  0
 24 25  2  0
 25 26  1  0
 26 27  2  0
  8 28  1  0
 27 28  1  0
 24 29  1  0
 28 29  2  0
 30 31  1  0
  1 32  1  1
 31 32  2  0
 32 33  1  0
 14 34  1  0
 30 34  1  0
 33 34  2  0
  4 35  1  0
 35 23  1  0
 35 36  1  0
 36 37  1  0
 21 38  1  0
 37 38  1  0
 38 39  1  0
 35 40  1  0
 39 40  1  0
 41 42  2  0
 18 43  1  0
 42 43  1  0
 43 44  2  0
 44 45  1  0
 21 46  1  0
 41 46  1  0
 45 46  2  0
M  END
