x2540-x1358
     RDKit          3D

 44 48  0  0  0  0  0  0  0  0999 V2000
    7.0890   -1.3460   21.7450 C   0  0  1  0  0  0  0  0  0  0  0  0
    7.9200   -3.9950   21.0470 C   0  0  0  0  0  0  0  0  0  0  0  0
    5.0740   -3.2590   20.7300 O   0  0  0  0  0  0  0  0  0  0  0  0
    7.9450    1.8860   23.0040 N   0  0  0  0  0  0  0  0  0  0  0  0
    8.7240    1.6150   20.8550 O   0  0  0  0  0  0  0  0  0  0  0  0
    5.8950   -2.2920   21.1120 C   0  0  0  0  0  0  0  0  0  0  0  0
    6.8160    0.1590   21.4970 C   0  0  1  0  0  0  0  0  0  0  0  0
    7.9080    1.2060   21.6630 C   0  0  0  0  0  0  0  0  0  0  0  0
    8.9030    2.8620   23.3780 C   0  0  0  0  0  0  0  0  0  0  0  0
    9.0650    3.0440   24.7380 C   0  0  0  0  0  0  0  0  0  0  0  0
    8.5230    4.2010   22.7240 C   0  0  0  0  0  0  0  0  0  0  0  0
   10.2100    2.4950   22.8940 C   0  0  0  0  0  0  0  0  0  0  0  0
   12.1760   -1.4000   23.4420 C   0  0  0  0  0  0  0  0  0  0  0  0
   12.8860   -1.1860   22.2590 C   0  0  0  0  0  0  0  0  0  0  0  0
   12.3240   -0.1590   24.3200 C   0  0  0  0  0  0  0  0  0  0  0  0
   12.6020   -2.4430   24.1840 C   0  0  0  0  0  0  0  0  0  0  0  0
    6.7210   -2.4670   25.8510 N   0  0  0  0  0  0  0  0  0  0  0  0
    5.4720   -0.0690   25.2970 O   0  0  0  0  0  0  0  0  0  0  0  0
    4.5400   -3.7740   26.1350 O   0  0  0  0  0  0  0  0  0  0  0  0
    5.6720   -3.3620   25.3520 C   0  0  0  0  0  0  0  0  0  0  0  0
    6.5290   -1.6090   23.1070 C   0  0  0  0  0  0  0  0  0  0  0  0
    6.4010    0.3510   17.8550 N   0  0  0  0  0  0  0  0  0  0  0  0
    5.2420    1.3170   17.7570 C   0  0  0  0  0  0  0  0  0  0  0  0
    4.6660    1.8360   19.0630 C   0  0  0  0  0  0  0  0  0  0  0  0
    5.1950    1.4390   20.2510 C   0  0  0  0  0  0  0  0  0  0  0  0
    6.2720    0.5510   20.3510 C   0  0  0  0  0  0  0  0  0  0  0  0
    6.8790    0.0000   19.2030 C   0  0  0  0  0  0  0  0  0  0  0  0
    9.9840   -2.3740   23.9070 O   0  0  0  0  0  0  0  0  0  0  0  0
    8.6540   -2.4110   23.5120 N   0  0  0  0  0  0  0  0  0  0  0  0
    8.4890   -1.5720   22.3910 C   0  0  0  0  0  0  0  0  0  0  0  0
    9.7740   -1.0760   22.1640 C   0  0  0  0  0  0  0  0  0  0  0  0
   10.7040   -1.5540   23.1030 C   0  0  0  0  0  0  0  0  0  0  0  0
    5.9690   -0.1910   26.5490 C   0  0  0  0  0  0  0  0  0  0  0  0
    6.5860   -1.4160   26.7970 C   0  0  0  0  0  0  0  0  0  0  0  0
    7.1280   -1.6590   28.0690 C   0  0  0  0  0  0  0  0  0  0  0  0
    7.0650   -0.7320   29.0210 C   0  0  0  0  0  0  0  0  0  0  0  0
    6.4370    0.5580   28.7960 C   0  0  0  0  0  0  0  0  0  0  0  0
    5.8730    0.8300   27.5250 C   0  0  0  0  0  0  0  0  0  0  0  0
    5.6400   -4.5330   21.5420 N   0  0  0  0  0  0  0  0  0  0  0  0
    6.5780   -3.5500   21.6560 C   0  0  1  0  0  0  0  0  0  0  0  0
    6.7700   -3.1180   23.1670 C   0  0  2  0  0  0  0  0  0  0  0  0
    5.8370   -3.8420   23.8940 C   0  0  1  0  0  0  0  0  0  0  0  0
    6.1160   -5.3370   23.7630 C   0  0  0  0  0  0  0  0  0  0  0  0
    6.0150   -5.7230   22.2830 C   0  0  0  0  0  0  0  0  0  0  0  0
  1  6  1  0
  3  6  2  0
  1  7  1  0
  4  8  1  0
  5  8  2  0
  7  8  1  6
  9  4  1  0
  9 10  1  0
  9 11  1  0
  9 12  1  0
 13 14  1  0
 13 15  1  0
 13 16  1  0
 17 20  1  0
 19 20  2  0
  1 21  1  0
 22 23  2  0
 23 24  1  0
 24 25  2  0
  7 26  1  0
 25 26  1  0
 22 27  1  0
 26 27  2  0
 28 29  1  0
  1 30  1  1
 29 30  2  0
 30 31  1  0
 13 32  1  0
 28 32  1  0
 31 32  2  0
 18 33  1  0
 17 34  1  0
 33 34  2  0
 34 35  1  0
 35 36  2  0
 36 37  1  0
 33 38  1  0
 37 38  2  0
 40  2  1  6
  6 40  1  0
 39 40  1  0
 41 21  1  6
 40 41  1  0
 42 20  1  1
 41 42  1  0
 42 43  1  0
 39 44  1  0
 43 44  1  0
M  END
