x2540-x0734-x3124
     RDKit          3D

 44 48  0  0  0  0  0  0  0  0999 V2000
    7.2140   -1.4170   21.7140 C   0  0  2  0  0  0  0  0  0  0  0  0
    7.2400   -3.0720   19.7050 C   0  0  0  0  0  0  0  0  0  0  0  0
    4.9570   -3.1810   21.1290 O   0  0  0  0  0  0  0  0  0  0  0  0
    7.9360    1.7430   23.0530 N   0  0  0  0  0  0  0  0  0  0  0  0
    8.5960    1.4580   20.9200 O   0  0  0  0  0  0  0  0  0  0  0  0
    5.8410   -2.2900   21.4140 C   0  0  0  0  0  0  0  0  0  0  0  0
    6.8500    0.0670   21.6290 C   0  0  1  0  0  0  0  0  0  0  0  0
    7.8370    1.0860   21.8160 C   0  0  0  0  0  0  0  0  0  0  0  0
    8.8480    2.8230   23.3220 C   0  0  0  0  0  0  0  0  0  0  0  0
    8.9550    3.1740   24.6410 C   0  0  0  0  0  0  0  0  0  0  0  0
    8.4390    4.1120   22.5850 C   0  0  0  0  0  0  0  0  0  0  0  0
   10.2860    2.4540   22.8810 C   0  0  0  0  0  0  0  0  0  0  0  0
   12.1890   -1.3140   23.5330 C   0  0  0  0  0  0  0  0  0  0  0  0
   12.8640   -0.7020   22.4660 C   0  0  0  0  0  0  0  0  0  0  0  0
   12.3000   -0.3030   24.6870 C   0  0  0  0  0  0  0  0  0  0  0  0
   12.7590   -2.4400   24.0070 C   0  0  0  0  0  0  0  0  0  0  0  0
   12.0110   -3.0460   24.9940 C   0  0  0  0  0  0  0  0  0  0  0  0
    5.2590   -4.9020   26.1240 N   0  0  0  0  0  0  0  0  0  0  0  0
    4.5500   -5.7340   25.5390 O   0  0  0  0  0  0  0  0  0  0  0  0
    4.8250   -3.9240   26.7490 O   0  0  0  0  0  0  0  0  0  0  0  0
    6.8680   -2.2020   22.9570 C   0  0  0  0  0  0  0  0  0  0  0  0
    6.3580    0.4490   17.8020 N   0  0  0  0  0  0  0  0  0  0  0  0
    5.2810    1.2610   17.8070 C   0  0  0  0  0  0  0  0  0  0  0  0
    4.6550    1.7170   18.9620 C   0  0  0  0  0  0  0  0  0  0  0  0
    5.1740    1.3170   20.1910 C   0  0  0  0  0  0  0  0  0  0  0  0
    6.2760    0.4920   20.2930 C   0  0  0  0  0  0  0  0  0  0  0  0
    6.8540    0.0650   19.1140 C   0  0  0  0  0  0  0  0  0  0  0  0
    9.8210   -1.8710   24.3110 O   0  0  0  0  0  0  0  0  0  0  0  0
    8.4890   -1.9090   23.8520 N   0  0  0  0  0  0  0  0  0  0  0  0
    8.5390   -1.5260   22.5480 C   0  0  0  0  0  0  0  0  0  0  0  0
    9.8490   -1.2560   22.1750 C   0  0  0  0  0  0  0  0  0  0  0  0
   10.6620   -1.4690   23.3000 C   0  0  0  0  0  0  0  0  0  0  0  0
    6.6910   -5.0850   26.0650 C   0  0  0  0  0  0  0  0  0  0  0  0
    7.4330   -4.9550   24.8460 C   0  0  0  0  0  0  0  0  0  0  0  0
    8.8290   -5.1430   24.8580 C   0  0  0  0  0  0  0  0  0  0  0  0
    9.5220   -5.4980   26.1630 C   0  0  0  0  0  0  0  0  0  0  0  0
    8.8120   -5.6370   27.3390 C   0  0  0  0  0  0  0  0  0  0  0  0
    7.2910   -5.4140   27.3090 C   0  0  0  0  0  0  0  0  0  0  0  0
    5.6740   -4.4680   20.7550 N   0  0  0  0  0  0  0  0  0  0  0  0
    5.7810   -5.4470   21.7520 C   0  0  0  0  0  0  0  0  0  0  0  0
    6.2220   -5.8990   23.0650 C   0  0  0  0  0  0  0  0  0  0  0  0
    6.8450   -4.6810   23.5860 N   0  0  0  0  0  0  0  0  0  0  0  0
    7.3420   -3.6160   22.5350 C   0  0  1  0  0  0  0  0  0  0  0  0
    6.6340   -3.5330   21.0720 C   0  0  1  0  0  0  0  0  0  0  0  0
  1  6  1  0
  3  6  2  0
  1  7  1  0
  4  8  1  0
  5  8  2  0
  7  8  1  6
  9  4  1  0
  9 10  1  0
  9 11  1  0
  9 12  1  0
 13 14  1  0
 13 15  1  0
 13 16  1  0
 16 17  1  0
 18 19  2  0
 18 20  1  0
  1 21  1  0
 22 23  2  0
 23 24  1  0
 24 25  2  0
  7 26  1  0
 25 26  1  0
 22 27  1  0
 26 27  2  0
 28 29  1  0
  1 30  1  6
 29 30  2  0
 30 31  1  0
 13 32  1  0
 28 32  1  0
 31 32  2  0
 18 33  1  0
 33 34  2  0
 34 35  1  0
 35 36  2  0
 36 37  1  0
 33 38  1  0
 37 38  2  0
 39 40  1  0
 40 41  1  0
 34 42  1  0
 41 42  1  0
 43 21  1  1
 42 43  1  0
 44  2  1  6
  6 44  1  0
 39 44  1  0
 43 44  1  0
M  CHG  2  18   1  20  -1
M  END
