x2540-x1384
     RDKit          3D

 40 44  0  0  0  0  0  0  0  0999 V2000
    6.9530   -1.2260   21.9600 C   0  0  0  0  0  0  0  0  0  0  0  0
    6.7630   -3.6820   19.8060 C   0  0  0  0  0  0  0  0  0  0  0  0
    5.0370   -3.2860   21.1390 O   0  0  0  0  0  0  0  0  0  0  0  0
    6.9700   -3.1140   21.2190 C   0  0  0  0  0  0  0  0  0  0  0  0
    8.1090    1.8750   23.1790 N   0  0  0  0  0  0  0  0  0  0  0  0
    8.6840    1.6000   20.7560 O   0  0  0  0  0  0  0  0  0  0  0  0
    5.7700   -2.2640   21.5420 C   0  0  0  0  0  0  0  0  0  0  0  0
    6.7950    0.2460   21.6400 C   0  0  1  0  0  0  0  0  0  0  0  0
    7.9110    1.2630   21.8920 C   0  0  0  0  0  0  0  0  0  0  0  0
    9.0160    2.9880   23.4140 C   0  0  0  0  0  0  0  0  0  0  0  0
    8.9080    3.2560   24.9020 C   0  0  0  0  0  0  0  0  0  0  0  0
    8.5200    4.2280   22.6460 C   0  0  0  0  0  0  0  0  0  0  0  0
   10.4730    2.6800   23.0150 C   0  0  0  0  0  0  0  0  0  0  0  0
   12.0120   -1.3720   23.5820 C   0  0  0  0  0  0  0  0  0  0  0  0
   12.3590   -0.1420   24.1000 C   0  0  0  0  0  0  0  0  0  0  0  0
   12.7970   -0.3800   22.7960 C   0  0  0  0  0  0  0  0  0  0  0  0
   12.8120   -2.5450   24.1370 C   0  0  0  0  0  0  0  0  0  0  0  0
    6.3520    0.3700   17.9440 N   0  0  0  0  0  0  0  0  0  0  0  0
    5.2490    1.2820   17.7140 C   0  0  0  0  0  0  0  0  0  0  0  0
    4.6250    1.8530   18.7910 C   0  0  0  0  0  0  0  0  0  0  0  0
    5.1040    1.5260   20.0370 C   0  0  0  0  0  0  0  0  0  0  0  0
    6.2320    0.6120   20.3340 C   0  0  0  0  0  0  0  0  0  0  0  0
    6.7910    0.0790   19.2470 C   0  0  0  0  0  0  0  0  0  0  0  0
    9.8800   -2.4710   24.0460 O   0  0  0  0  0  0  0  0  0  0  0  0
    8.5220   -2.5210   23.6920 N   0  0  0  0  0  0  0  0  0  0  0  0
    8.3150   -1.5770   22.6560 C   0  0  0  0  0  0  0  0  0  0  0  0
    9.5820   -1.0050   22.4310 C   0  0  0  0  0  0  0  0  0  0  0  0
   10.5330   -1.5410   23.2830 C   0  0  0  0  0  0  0  0  0  0  0  0
    5.2990   -3.6330   27.1150 O   0  0  0  0  0  0  0  0  0  0  0  0
    3.6890   -3.8520   23.8710 C   0  0  2  0  0  0  0  0  0  0  0  0
    4.8700   -3.3990   23.5720 C   0  0  2  0  0  0  0  0  0  0  0  0
    5.0790   -3.8710   24.7640 C   0  0  2  0  0  0  0  0  0  0  0  0
    5.3060   -5.4180   24.7600 C   0  0  0  0  0  0  0  0  0  0  0  0
    4.4040   -6.3630   23.8020 C   0  0  0  0  0  0  0  0  0  0  0  0
    3.5460   -5.1450   23.4550 C   0  0  0  0  0  0  0  0  0  0  0  0
    4.8920   -3.0140   25.9210 C   0  0  1  0  0  0  0  0  0  0  0  0
    3.5880   -2.9080   25.8130 C   0  0  0  0  0  0  0  0  0  0  0  0
    2.7120   -3.2460   24.8950 C   0  0  0  0  0  0  0  0  0  0  0  0
    6.1730   -1.3520   23.3160 C   0  0  0  0  0  0  0  0  0  0  0  0
    4.9530   -1.9770   23.1890 C   0  0  0  0  0  0  0  0  0  0  0  0
  2  4  1  0
  1  7  1  0
  3  7  2  0
  4  7  1  0
  1  8  1  0
  5  9  1  0
  6  9  2  0
  8  9  1  6
 10  5  1  0
 10 11  1  0
 10 12  1  0
 10 13  1  0
 14 15  1  0
 14 16  1  0
 14 17  1  0
 18 19  2  0
 19 20  1  0
 20 21  2  0
  8 22  1  0
 21 22  1  0
 18 23  1  0
 22 23  2  0
 24 25  1  0
  1 26  1  0
 25 26  2  0
 26 27  1  0
 14 28  1  0
 24 28  1  0
 27 28  2  0
 30 31  1  0
 30 32  1  0
 31 32  1  0
 32 33  1  6
 33 34  1  0
 30 35  1  6
 34 35  2  0
 36 29  1  1
 32 36  1  0
 36 37  1  0
 30 38  1  0
 37 38  2  0
  1 39  1  0
 31 40  1  1
 39 40  1  0
M  END
