x2540-x0689-x3110-x0426-x0731
     RDKit          3D

 67 77  0  0  0  0  0  0  0  0999 V2000
    7.9680    1.2140   23.1400 N   0  0  0  0  0  0  0  0  0  0  0  0
   13.5640    5.1310   22.4560 C   0  0  0  0  0  0  0  0  0  0  0  0
   12.0190    3.2610   22.4520 O   0  0  0  0  0  0  0  0  0  0  0  0
   12.2940    4.3670   21.9910 C   0  0  0  0  0  0  0  0  0  0  0  0
    7.0650   -1.6150   21.4450 N   0  0  0  0  0  0  0  0  0  0  0  0
   10.9220    4.2550   24.1790 O   0  0  0  0  0  0  0  0  0  0  0  0
   11.0890    3.3030   23.4350 C   0  0  0  0  0  0  0  0  0  0  0  0
    8.5320    1.3750   20.9670 O   0  0  0  0  0  0  0  0  0  0  0  0
   10.2780    1.9850   23.4670 C   0  0  0  0  0  0  0  0  0  0  0  0
    5.0180   -3.1740   20.9240 O   0  0  0  0  0  0  0  0  0  0  0  0
    8.7780    2.3190   23.4980 C   0  0  0  0  0  0  0  0  0  0  0  0
    7.7800    0.8450   21.8040 C   0  0  0  0  0  0  0  0  0  0  0  0
    6.6210   -0.1630   21.4560 C   0  0  1  0  0  0  0  0  0  0  0  0
    6.2890   -2.8860   21.3000 C   0  0  0  0  0  0  0  0  0  0  0  0
    7.2370   -4.0070   21.7580 C   0  0  2  0  0  0  0  0  0  0  0  0
    8.5410   -4.3370   21.0190 C   0  0  0  0  0  0  0  0  0  0  0  0
   13.1340   -1.3120   24.3170 C   0  0  1  0  0  0  0  0  0  0  0  0
   11.8390   -0.8110   24.6390 C   0  0  0  0  0  0  0  0  0  0  0  0
   13.2790   -2.0550   23.0670 C   0  0  0  0  0  0  0  0  0  0  0  0
   13.6210   -2.2510   25.4220 C   0  0  0  0  0  0  0  0  0  0  0  0
    8.4410    2.7970   24.9180 C   0  0  0  0  0  0  0  0  0  0  0  0
    8.4640    3.5360   22.6000 C   0  0  0  0  0  0  0  0  0  0  0  0
   11.8850   -1.9940   23.6170 C   0  0  2  0  0  0  0  0  0  0  0  0
    2.3990    1.8630   23.7680 C   0  0  0  0  0  0  0  0  0  0  0  0
    2.3230    0.5230   23.9540 N   0  0  0  0  0  0  0  0  0  0  0  0
    3.3590    2.5570   23.0160 N   0  0  0  0  0  0  0  0  0  0  0  0
    4.2410    1.9040   22.2800 C   0  0  0  0  0  0  0  0  0  0  0  0
    3.7990    1.0770   21.2060 C   0  0  0  0  0  0  0  0  0  0  0  0
    2.8940    4.2830   25.2480 F   0  0  0  0  0  0  0  0  0  0  0  0
    1.3410    0.3500   26.0330 C   0  0  0  0  0  0  0  0  0  0  0  0
    6.4950   -3.1890   26.1830 O   0  0  0  0  0  0  0  0  0  0  0  0
    5.5330   -5.3670   27.2870 O   0  0  0  0  0  0  0  0  0  0  0  0
    5.3700   -4.3030   26.1140 S   0  0  0  0  0  0  0  0  0  0  0  0
    1.2840   -0.1390   24.7470 C   0  0  0  0  0  0  0  0  0  0  0  0
    4.2850   -7.7080   25.0130 O   0  0  0  0  0  0  0  0  0  0  0  0
    5.8460   -6.7340   26.7950 O   0  0  0  0  0  0  0  0  0  0  0  0
    4.9130   -6.5970   25.7010 S   0  0  0  0  0  0  0  0  0  0  0  0
    6.3180    0.6070   17.8860 N   0  0  0  0  0  0  0  0  0  0  0  0
    5.1250    1.1790   17.8330 C   0  0  0  0  0  0  0  0  0  0  0  0
    4.2490    1.3620   18.9010 C   0  0  0  0  0  0  0  0  0  0  0  0
    4.7130    0.9000   20.1230 C   0  0  0  0  0  0  0  0  0  0  0  0
    5.9990    0.3170   20.1640 C   0  0  0  0  0  0  0  0  0  0  0  0
    6.8040    0.1510   19.0550 C   0  0  0  0  0  0  0  0  0  0  0  0
    9.4850   -1.8400   21.9330 C   0  0  0  0  0  0  0  0  0  0  0  0
   10.7990   -1.9430   22.6030 C   0  0  0  0  0  0  0  0  0  0  0  0
   10.3270   -1.7480   23.9420 C   0  0  0  0  0  0  0  0  0  0  0  0
    9.0740   -1.5340   24.4410 C   0  0  0  0  0  0  0  0  0  0  0  0
    7.9830   -1.4790   23.7140 C   0  0  0  0  0  0  0  0  0  0  0  0
    8.1510   -1.6390   22.3920 C   0  0  0  0  0  0  0  0  0  0  0  0
    1.6290    3.8140   25.1740 C   0  0  0  0  0  0  0  0  0  0  0  0
    1.3260    2.6420   24.4640 C   0  0  0  0  0  0  0  0  0  0  0  0
   -0.1150    2.1640   24.4150 C   0  0  0  0  0  0  0  0  0  0  0  0
   -1.2740    2.8610   25.0870 C   0  0  0  0  0  0  0  0  0  0  0  0
   -0.8520    4.1260   25.8380 C   0  0  0  0  0  0  0  0  0  0  0  0
    0.6270    4.5530   25.8430 C   0  0  0  0  0  0  0  0  0  0  0  0
    2.1110   -1.8550   25.8790 C   0  0  0  0  0  0  0  0  0  0  0  0
    1.6210   -3.0530   26.4320 C   0  0  0  0  0  0  0  0  0  0  0  0
    2.4940   -3.9800   26.0770 C   0  0  0  0  0  0  0  0  0  0  0  0
    3.7770   -3.6540   26.3410 C   0  0  0  0  0  0  0  0  0  0  0  0
    3.1300   -2.5910   26.9600 C   0  0  2  0  0  0  0  0  0  0  0  0
    3.5610   -1.4270   26.3020 C   0  0  0  0  0  0  0  0  0  0  0  0
    5.2570   -5.1370   22.6710 C   0  0  1  0  0  0  0  0  0  0  0  0
    6.5860   -5.2720   22.3650 C   0  0  2  0  0  0  0  0  0  0  0  0
    6.5720   -5.0440   23.7840 C   0  0  2  0  0  0  0  0  0  0  0  0
    5.3660   -5.2630   24.6500 C   0  0  2  0  0  0  0  0  0  0  0  0
    4.3580   -5.3580   23.8280 C   0  0  2  0  0  0  0  0  0  0  0  0
    4.5000   -6.3940   22.8480 C   0  0  0  0  0  0  0  0  0  0  0  0
  2  4  1  0
  3  4  1  0
  3  7  1  0
  6  7  2  0
  7  9  1  0
 11  1  1  0
  9 11  1  0
  1 12  1  0
  8 12  2  0
  5 13  1  0
 13 12  1  6
  5 14  1  0
 10 14  2  0
 14 15  1  0
 15 16  1  6
 17 18  1  0
 17 19  1  0
 17 20  1  6
 11 21  1  0
 11 22  1  0
 17 23  1  0
 18 23  1  0
 19 23  1  0
 24 25  2  3
 24 26  1  0
 26 27  1  0
 27 28  1  0
 31 33  2  0
 32 33  2  0
 25 34  1  0
 30 34  1  0
 35 37  2  0
 36 37  2  0
 38 39  2  0
 39 40  1  0
 28 41  1  0
 40 41  2  0
 13 42  1  0
 41 42  1  0
 38 43  1  0
 42 43  2  0
 23 45  1  1
 44 45  2  0
 45 46  1  0
 46 47  2  0
 47 48  1  0
  5 49  1  0
 44 49  1  0
 48 49  2  0
 29 50  1  0
 24 51  1  0
 50 51  2  0
 51 52  1  0
 52 53  2  0
 53 54  1  0
 50 55  1  0
 54 55  2  0
 56 57  1  0
 57 58  1  0
 33 59  1  0
 58 59  2  0
 56 60  1  0
 58 60  1  0
 60 59  1  0
 56 61  2  0
 60 61  1  1
 63 15  1  6
 62 63  1  0
 62 64  1  0
 63 64  1  0
 65 33  1  0
 65 37  1  1
 64 65  1  1
 62 66  1  0
 65 66  1  0
 62 67  1  6
 66 67  1  6
M  END
