x2540-x0731-x0771-x3113
     RDKit          3D

 55 63  0  0  0  0  0  0  0  0999 V2000
    7.0470   -1.6870   21.9990 C   0  0  1  0  0  0  0  0  0  0  0  0
    8.0890   -3.8600   20.7850 C   0  0  0  0  0  0  0  0  0  0  0  0
    5.1740   -3.4910   20.7310 O   0  0  0  0  0  0  0  0  0  0  0  0
    6.6020   -3.8250   21.1260 C   0  0  2  0  0  0  0  0  0  0  0  0
    8.1680    1.3820   23.2130 N   0  0  0  0  0  0  0  0  0  0  0  0
    8.8260    1.3500   20.9820 O   0  0  0  0  0  0  0  0  0  0  0  0
    5.9200   -2.5930   21.2920 C   0  0  0  0  0  0  0  0  0  0  0  0
   11.6350    4.1700   23.4950 O   0  0  0  0  0  0  0  0  0  0  0  0
    6.9330   -0.1150   21.5850 C   0  0  1  0  0  0  0  0  0  0  0  0
    8.0860    0.9130   21.8540 C   0  0  0  0  0  0  0  0  0  0  0  0
    9.0680    2.4810   23.5240 C   0  0  0  0  0  0  0  0  0  0  0  0
   10.4990    1.9680   23.6320 C   0  0  0  0  0  0  0  0  0  0  0  0
   11.6510    2.8290   23.0560 C   0  0  0  0  0  0  0  0  0  0  0  0
   12.8010    4.8390   23.0030 C   0  0  0  0  0  0  0  0  0  0  0  0
   13.1990   -1.7060   24.0300 C   0  0  1  0  0  0  0  0  0  0  0  0
   13.3060   -1.7400   22.4590 C   0  0  0  0  0  0  0  0  0  0  0  0
   12.6530   -2.8830   24.7840 C   0  0  0  0  0  0  0  0  0  0  0  0
   12.6420   -0.3900   24.4040 C   0  0  0  0  0  0  0  0  0  0  0  0
    8.6480    3.0230   24.8890 C   0  0  0  0  0  0  0  0  0  0  0  0
    8.9910    3.6330   22.5090 C   0  0  0  0  0  0  0  0  0  0  0  0
   12.2690   -0.9860   23.0870 C   0  0  2  0  0  0  0  0  0  0  0  0
    0.2460   -1.3590   26.1570 C   0  0  0  0  0  0  0  0  0  0  0  0
    3.9150   -6.8980   25.4650 O   0  0  0  0  0  0  0  0  0  0  0  0
    5.3570   -5.4150   26.8700 O   0  0  0  0  0  0  0  0  0  0  0  0
    1.6250   -5.8980   24.9860 C   0  0  0  0  0  0  0  0  0  0  0  0
    4.6170   -5.6490   25.6480 S   0  0  0  0  0  0  0  0  0  0  0  0
    6.3770   -1.5920   23.3820 C   0  0  0  0  0  0  0  0  0  0  0  0
    7.0640   -3.8470   25.8050 O   0  0  0  0  0  0  0  0  0  0  0  0
    6.8640   -6.2710   26.4310 O   0  0  0  0  0  0  0  0  0  0  0  0
    7.0390   -5.2690   25.3950 S   0  0  0  0  0  0  0  0  0  0  0  0
    6.3650    0.3790   17.7890 N   0  0  0  0  0  0  0  0  0  0  0  0
    5.2690    1.1480   17.8320 C   0  0  0  0  0  0  0  0  0  0  0  0
    4.6380    1.5410   19.0150 C   0  0  0  0  0  0  0  0  0  0  0  0
    5.2090    1.0990   20.2050 C   0  0  0  0  0  0  0  0  0  0  0  0
    6.3660    0.2930   20.2540 C   0  0  0  0  0  0  0  0  0  0  0  0
    6.8670   -0.0210   19.0420 C   0  0  0  0  0  0  0  0  0  0  0  0
    9.4400   -1.1760   22.3150 C   0  0  0  0  0  0  0  0  0  0  0  0
   10.8630   -1.0350   22.6760 C   0  0  0  0  0  0  0  0  0  0  0  0
   11.0600   -2.3280   23.4910 C   0  0  0  0  0  0  0  0  0  0  0  0
   10.0200   -3.3730   23.7840 C   0  0  0  0  0  0  0  0  0  0  0  0
    8.6480   -3.1600   23.2590 C   0  0  0  0  0  0  0  0  0  0  0  0
    8.4470   -2.0540   22.5480 C   0  0  0  0  0  0  0  0  0  0  0  0
    1.3460   -2.3570   26.0310 C   0  0  0  0  0  0  0  0  0  0  0  0
    1.1250   -3.6190   25.5970 C   0  0  0  0  0  0  0  0  0  0  0  0
    2.1120   -4.5650   25.4860 C   0  0  0  0  0  0  0  0  0  0  0  0
    3.4620   -4.3830   25.7940 C   0  0  0  0  0  0  0  0  0  0  0  0
    3.6880   -3.0880   26.2240 C   0  0  0  0  0  0  0  0  0  0  0  0
    2.6440   -2.0200   26.3610 C   0  0  0  0  0  0  0  0  0  0  0  0
    5.5260   -5.4740   22.1790 C   0  0  2  0  0  0  0  0  0  0  0  0
    6.2940   -6.3810   22.3010 C   0  0  2  0  0  0  0  0  0  0  0  0
    5.7390   -6.5190   23.3930 C   0  0  1  0  0  0  0  0  0  0  0  0
    5.7310   -5.4080   24.3060 C   0  0  1  0  0  0  0  0  0  0  0  0
    5.6740   -4.3670   23.4200 C   0  0  1  0  0  0  0  0  0  0  0  0
    6.5480   -4.7890   22.3340 C   0  0  1  0  0  0  0  0  0  0  0  0
    0.8350    0.0300   26.1470 C   0  0  0  0  0  0  0  0  0  0  0  0
  4  2  1  1
  1  7  1  0
  3  7  2  0
  4  7  1  0
  1  9  1  0
  5 10  1  0
  6 10  2  0
  9 10  1  6
 11  5  1  0
 11 12  1  0
  8 13  1  0
 12 13  1  0
  8 14  1  0
 15 16  1  0
 15 17  1  6
 15 18  1  0
 11 19  1  0
 11 20  1  0
 15 21  1  0
 16 21  1  0
 18 21  1  0
 23 26  2  0
 24 26  2  0
  1 27  1  1
 28 30  2  0
 29 30  2  0
 31 32  2  0
 32 33  1  0
 33 34  2  0
  9 35  1  0
 34 35  1  0
 31 36  1  0
 35 36  2  0
 21 38  1  6
 37 38  2  0
 38 39  1  0
 39 40  2  0
 40 41  1  0
  1 42  1  0
 37 42  1  0
 41 42  2  0
 22 43  1  0
 43 44  2  0
 25 45  1  0
 44 45  1  0
 26 46  1  0
 45 46  2  0
 46 47  1  0
 43 48  1  0
 47 48  2  0
 49 50  1  1
 49 51  1  0
 50 51  1  1
 52 26  1  0
 52 30  1  1
 51 52  1  1
 49 53  1  0
 53 52  1  1
 54  4  1  6
 49 54  1  0
 50 54  1  0
 53 54  1  0
 22 55  1  0
M  END
