x2540-x0978-x1375-x3110-x3113
     RDKit          3D

 54 61  0  0  0  0  0  0  0  0999 V2000
    7.9370    1.2610   23.0760 N   0  0  0  0  0  0  0  0  0  0  0  0
   13.3710    5.1370   22.8930 C   0  0  0  0  0  0  0  0  0  0  0  0
   11.9880    3.1980   22.4900 O   0  0  0  0  0  0  0  0  0  0  0  0
   12.3770    4.4740   21.9570 C   0  0  0  0  0  0  0  0  0  0  0  0
    7.1510   -1.8270   21.6170 N   0  0  0  0  0  0  0  0  0  0  0  0
   10.9750    4.2750   24.2140 O   0  0  0  0  0  0  0  0  0  0  0  0
   11.0750    3.2990   23.4890 C   0  0  0  0  0  0  0  0  0  0  0  0
    8.5870    1.2490   20.9130 O   0  0  0  0  0  0  0  0  0  0  0  0
   10.2160    2.0520   23.5550 C   0  0  0  0  0  0  0  0  0  0  0  0
    4.9610   -3.1150   21.0420 O   0  0  0  0  0  0  0  0  0  0  0  0
    8.7090    2.3690   23.4570 C   0  0  0  0  0  0  0  0  0  0  0  0
    7.8500    0.7680   21.7710 C   0  0  0  0  0  0  0  0  0  0  0  0
    6.7270   -0.3430   21.4900 C   0  0  1  0  0  0  0  0  0  0  0  0
    6.1920   -3.0120   21.5710 C   0  0  0  0  0  0  0  0  0  0  0  0
    6.5560   -4.4050   22.1650 C   0  0  1  0  0  0  0  0  0  0  0  0
    6.8990   -5.3290   20.9360 C   0  0  0  0  0  0  0  0  0  0  0  0
   13.1890   -1.7770   24.1800 C   0  0  1  0  0  0  0  0  0  0  0  0
   12.6020   -0.4300   24.5720 C   0  0  0  0  0  0  0  0  0  0  0  0
   13.2060   -1.8220   22.7250 C   0  0  0  0  0  0  0  0  0  0  0  0
   12.0990   -2.7690   24.6380 C   0  0  0  0  0  0  0  0  0  0  0  0
    8.2240    2.9330   24.8010 C   0  0  0  0  0  0  0  0  0  0  0  0
    8.5020    3.5310   22.4540 C   0  0  0  0  0  0  0  0  0  0  0  0
   11.9100   -1.3500   23.6290 C   0  0  1  0  0  0  0  0  0  0  0  0
    2.0630   -5.5830   23.3050 N   0  0  0  0  0  0  0  0  0  0  0  0
    3.0750   -6.6140   25.6700 C   0  0  0  0  0  0  0  0  0  0  0  0
    4.9180   -8.2370   23.8160 O   0  0  0  0  0  0  0  0  0  0  0  0
    1.0350   -7.2280   22.1000 O   0  0  0  0  0  0  0  0  0  0  0  0
    3.3260   -6.0840   23.2160 C   0  0  1  0  0  0  0  0  0  0  0  0
    0.9990   -6.1340   22.6640 C   0  0  0  0  0  0  0  0  0  0  0  0
   -0.2700   -5.5130   22.5710 C   0  0  0  0  0  0  0  0  0  0  0  0
   10.8490   -4.7090   26.0100 F   0  0  0  0  0  0  0  0  0  0  0  0
    6.3270    0.4830   17.7370 N   0  0  0  0  0  0  0  0  0  0  0  0
    5.2270    1.2610   17.8040 C   0  0  0  0  0  0  0  0  0  0  0  0
    4.5730    1.5450   18.9360 C   0  0  0  0  0  0  0  0  0  0  0  0
    5.0810    1.0000   20.1170 C   0  0  0  0  0  0  0  0  0  0  0  0
    6.2190    0.1850   20.1610 C   0  0  0  0  0  0  0  0  0  0  0  0
    6.8330   -0.0740   18.9590 C   0  0  0  0  0  0  0  0  0  0  0  0
    9.8090   -1.7880   22.0310 C   0  0  0  0  0  0  0  0  0  0  0  0
   10.4960   -1.4580   23.3090 C   0  0  0  0  0  0  0  0  0  0  0  0
    9.9450   -1.1400   24.5480 C   0  0  0  0  0  0  0  0  0  0  0  0
    8.6380   -1.0790   24.7760 C   0  0  0  0  0  0  0  0  0  0  0  0
    7.8610   -1.3430   23.7180 C   0  0  0  0  0  0  0  0  0  0  0  0
    8.3880   -1.6610   22.4750 C   0  0  0  0  0  0  0  0  0  0  0  0
    8.2810   -3.3390   23.7830 C   0  0  0  0  0  0  0  0  0  0  0  0
    9.3100   -3.4250   24.7060 C   0  0  0  0  0  0  0  0  0  0  0  0
    9.8510   -4.6230   25.1240 C   0  0  0  0  0  0  0  0  0  0  0  0
    9.3110   -5.7450   24.5800 C   0  0  0  0  0  0  0  0  0  0  0  0
    8.2700   -5.6780   23.6440 C   0  0  0  0  0  0  0  0  0  0  0  0
    7.7080   -4.4440   23.2010 C   0  0  0  0  0  0  0  0  0  0  0  0
    4.3730   -4.4120   22.8870 C   0  0  0  0  0  0  0  0  0  0  0  0
    4.1320   -3.1540   23.0300 C   0  0  0  0  0  0  0  0  0  0  0  0
    4.7790   -4.8900   23.1610 S   0  0  0  0  0  0  0  0  0  0  0  0
    4.2920   -6.3590   24.2070 S   0  0  0  0  0  0  0  0  0  0  0  0
    5.4140   -5.2030   23.8750 C   0  0  0  0  0  0  0  0  0  0  0  0
  2  4  1  0
  3  4  1  0
  3  7  1  0
  6  7  2  0
  7  9  1  0
 11  1  1  0
  9 11  1  0
  1 12  1  0
  8 12  2  0
  5 13  1  0
 13 12  1  6
  5 14  1  0
 10 14  2  0
 15 14  1  0
 15 16  1  6
 17 18  1  0
 17 19  1  0
 17 20  1  6
 11 21  1  0
 11 22  1  0
 17 23  1  0
 18 23  1  0
 19 23  1  0
 28 24  1  1
 24 29  1  0
 27 29  2  0
 29 30  1  0
 32 33  2  0
 33 34  1  0
 34 35  2  0
 13 36  1  0
 35 36  1  0
 32 37  1  0
 36 37  2  0
 23 39  1  1
 38 39  2  0
 39 40  1  0
 40 41  2  0
 41 42  1  0
  5 43  1  0
 38 43  1  0
 42 43  2  0
 44 45  2  0
 31 46  1  0
 45 46  1  0
 46 47  2  0
 47 48  1  0
 15 49  1  0
 44 49  1  0
 48 49  2  0
 50 51  1  0
 15 52  1  0
 28 52  1  0
 50 52  1  0
 51 52  1  0
 25 53  1  0
 26 53  1  0
 28 53  1  0
 52 53  1  0
 50 54  1  0
 53 54  1  0
M  END
