x2540-x0305
     RDKit          3D

 33 34  0  0  0  0  0  0  0  0999 V2000
    6.9070   -1.4650   21.9120 N   0  0  0  0  0  0  0  0  0  0  0  0
    7.1750   -3.3610   19.4860 C   0  0  0  0  0  0  0  0  0  0  0  0
    4.7640   -3.0050   21.4030 O   0  0  0  0  0  0  0  0  0  0  0  0
    6.9290   -3.7240   20.9170 C   0  0  0  0  0  0  0  0  0  0  0  0
    7.9440    1.6100   23.0770 N   0  0  0  0  0  0  0  0  0  0  0  0
    8.6080    1.3640   20.9750 O   0  0  0  0  0  0  0  0  0  0  0  0
    6.0650   -2.6500   21.4540 C   0  0  0  0  0  0  0  0  0  0  0  0
    6.7160   -0.0490   21.6460 C   0  0  1  0  0  0  0  0  0  0  0  0
    7.8330    0.9990   21.8680 C   0  0  0  0  0  0  0  0  0  0  0  0
    8.7510    2.7660   23.2770 C   0  0  0  0  0  0  0  0  0  0  0  0
    8.7830    3.0710   24.6260 C   0  0  0  0  0  0  0  0  0  0  0  0
    8.2720    3.9990   22.4970 C   0  0  0  0  0  0  0  0  0  0  0  0
   10.1190    2.5170   22.8940 C   0  0  0  0  0  0  0  0  0  0  0  0
   11.9540   -1.4210   23.4580 C   0  0  2  0  0  0  0  0  0  0  0  0
   12.6630   -1.0180   22.3000 C   0  0  0  0  0  0  0  0  0  0  0  0
   12.0080   -0.2530   24.4270 C   0  0  0  0  0  0  0  0  0  0  0  0
   12.4370   -2.4910   24.1160 C   0  0  0  0  0  0  0  0  0  0  0  0
   13.2110   -1.8350   21.3700 N   0  0  0  0  0  0  0  0  0  0  0  0
    6.3820    0.4550   17.7900 N   0  0  0  0  0  0  0  0  0  0  0  0
    5.1460    1.4230   17.6670 C   0  0  0  0  0  0  0  0  0  0  0  0
    4.4270    1.8520   18.9280 C   0  0  0  0  0  0  0  0  0  0  0  0
    4.9690    1.3250   20.2580 C   0  0  0  0  0  0  0  0  0  0  0  0
    6.1930    0.3960   20.3120 C   0  0  0  0  0  0  0  0  0  0  0  0
    6.8420   -0.0110   19.1390 C   0  0  0  0  0  0  0  0  0  0  0  0
    9.7820   -2.3010   24.1560 O   0  0  0  0  0  0  0  0  0  0  0  0
    8.4150   -2.3470   23.7900 N   0  0  0  0  0  0  0  0  0  0  0  0
    8.2860   -1.6500   22.6100 C   0  0  0  0  0  0  0  0  0  0  0  0
    9.5520   -1.1800   22.2270 C   0  0  0  0  0  0  0  0  0  0  0  0
   10.4490   -1.5850   23.1940 C   0  0  0  0  0  0  0  0  0  0  0  0
    8.2930   -0.1440   27.2890 C   0  0  0  0  0  0  0  0  0  0  0  0
    8.6140   -0.0940   25.9320 C   0  0  0  0  0  0  0  0  0  0  0  0
   10.0710   -0.1840   25.8580 N   0  0  0  0  0  0  0  0  0  0  0  0
   10.5910    0.2870   24.6950 C   0  0  0  0  0  0  0  0  0  0  0  0
  2  4  1  0
  1  7  1  0
  3  7  2  0
  4  7  1  0
  1  8  1  0
  5  9  1  0
  6  9  2  0
  8  9  1  6
 10  5  1  0
 10 11  1  0
 10 12  1  0
 10 13  1  0
 14 15  1  0
 14 16  1  0
 14 17  1  1
 15 18  3  0
 19 20  2  0
 20 21  1  0
 21 22  2  0
  8 23  1  0
 22 23  1  0
 19 24  1  0
 23 24  2  0
 25 26  1  0
  1 27  1  0
 26 27  2  0
 27 28  1  0
 14 29  1  0
 25 29  1  0
 28 29  2  0
 30 31  1  0
 31 32  1  0
 16 33  1  0
 32 33  1  0
M  END
