x2540-x2643
     RDKit          3D

 28 29  0  0  0  0  0  0  0  0999 V2000
    6.8630   -1.4080   21.8970 N   0  0  0  0  0  0  0  0  0  0  0  0
    7.1770   -3.3700   19.4810 C   0  0  0  0  0  0  0  0  0  0  0  0
    4.7630   -2.9890   21.3910 O   0  0  0  0  0  0  0  0  0  0  0  0
    6.9940   -3.6720   20.9630 C   0  0  0  0  0  0  0  0  0  0  0  0
    7.8900    1.6650   23.1360 N   0  0  0  0  0  0  0  0  0  0  0  0
    8.4210    1.3220   20.8900 O   0  0  0  0  0  0  0  0  0  0  0  0
    6.0690   -2.6250   21.4510 C   0  0  0  0  0  0  0  0  0  0  0  0
    6.4050    0.0110   21.6720 C   0  0  1  0  0  0  0  0  0  0  0  0
    7.6570    1.0210   21.8180 C   0  0  0  0  0  0  0  0  0  0  0  0
    8.7880    2.8360   23.2820 C   0  0  0  0  0  0  0  0  0  0  0  0
    8.7580    3.1250   24.7950 C   0  0  0  0  0  0  0  0  0  0  0  0
    8.2890    4.0920   22.5400 C   0  0  0  0  0  0  0  0  0  0  0  0
   10.2320    2.5230   22.8350 C   0  0  0  0  0  0  0  0  0  0  0  0
   11.8700   -1.1170   23.8160 C   0  0  0  0  0  0  0  0  0  0  0  0
   12.7020   -1.2360   22.6850 C   0  0  0  0  0  0  0  0  0  0  0  0
   12.6000    0.0580   23.2400 C   0  0  0  0  0  0  0  0  0  0  0  0
   12.8080   -2.2880   23.6900 C   0  0  0  0  0  0  0  0  0  0  0  0
    6.4480    0.4340   17.8840 N   0  0  0  0  0  0  0  0  0  0  0  0
    5.3530    1.2590   17.7970 C   0  0  0  0  0  0  0  0  0  0  0  0
    4.5780    1.6970   18.8510 C   0  0  0  0  0  0  0  0  0  0  0  0
    4.9010    1.2950   20.1340 C   0  0  0  0  0  0  0  0  0  0  0  0
    6.0060    0.4560   20.3130 C   0  0  0  0  0  0  0  0  0  0  0  0
    6.8060    0.0080   19.1460 C   0  0  0  0  0  0  0  0  0  0  0  0
    9.6720   -1.9310   24.4440 O   0  0  0  0  0  0  0  0  0  0  0  0
    8.2520   -2.0840   24.0300 N   0  0  0  0  0  0  0  0  0  0  0  0
    8.1040   -1.5450   22.7690 C   0  0  0  0  0  0  0  0  0  0  0  0
    9.4200   -1.1100   22.4690 C   0  0  0  0  0  0  0  0  0  0  0  0
   10.3950   -1.3310   23.4800 C   0  0  0  0  0  0  0  0  0  0  0  0
  2  4  1  0
  1  7  1  0
  3  7  2  0
  4  7  1  0
  1  8  1  0
  5  9  1  0
  6  9  2  0
  8  9  1  6
 10  5  1  0
 10 11  1  0
 10 12  1  0
 10 13  1  0
 14 15  1  0
 14 16  1  0
 14 17  1  0
 18 19  2  0
 19 20  1  0
 20 21  2  0
  8 22  1  0
 21 22  1  0
 18 23  1  0
 22 23  2  0
 24 25  1  0
  1 26  1  0
 25 26  2  0
 26 27  1  0
 14 28  1  0
 24 28  1  0
 27 28  2  0
M  END
