x2540-x2649-x2754
     RDKit          3D

 46 51  0  0  0  0  0  0  0  0999 V2000
    7.6030   -1.6840   21.5530 S   0  0  0  0  0  0  0  0  0  0  0  0
    6.6620   -4.1810   20.1420 C   0  0  0  0  0  0  0  0  0  0  0  0
    4.6970   -2.8640   21.0750 O   0  0  0  0  0  0  0  0  0  0  0  0
    6.1930   -2.8530   20.1060 C   0  0  0  0  0  0  0  0  0  0  0  0
    7.8430    2.6110   22.4850 N   0  0  0  0  0  0  0  0  0  0  0  0
    8.7650    1.5060   20.8190 O   0  0  0  0  0  0  0  0  0  0  0  0
    5.8030   -2.3540   21.3700 C   0  0  0  0  0  0  0  0  0  0  0  0
    7.2450    0.1910   21.9810 C   0  0  1  0  0  0  0  0  0  0  0  0
    7.9460    1.4590   21.7900 C   0  0  0  0  0  0  0  0  0  0  0  0
    8.9380    3.0870   23.3170 C   0  0  0  0  0  0  0  0  0  0  0  0
    8.6590    2.6080   24.7050 C   0  0  0  0  0  0  0  0  0  0  0  0
    8.8950    4.6120   23.3850 C   0  0  0  0  0  0  0  0  0  0  0  0
   10.3150    2.7030   22.8720 C   0  0  0  0  0  0  0  0  0  0  0  0
   11.8800   -1.1030   23.5910 C   0  0  0  0  0  0  0  0  0  0  0  0
   12.7620   -1.1420   22.3480 C   0  0  0  0  0  0  0  0  0  0  0  0
   12.3340    0.0750   24.4040 C   0  0  0  0  0  0  0  0  0  0  0  0
   12.1930   -2.3300   24.3860 C   0  0  0  0  0  0  0  0  0  0  0  0
    4.4800    1.8750   21.5580 C   0  0  0  0  0  0  0  0  0  0  0  0
    5.0710   -3.5010   25.2190 C   0  0  0  0  0  0  0  0  0  0  0  0
    3.8810   -3.1840   24.9380 O   0  0  0  0  0  0  0  0  0  0  0  0
    5.5520   -3.2570   26.5050 N   0  0  0  0  0  0  0  0  0  0  0  0
    5.0660   -2.2280   27.3980 C   0  0  0  0  0  0  0  0  0  0  0  0
    9.2630   -2.6620   21.8530 C   0  0  0  0  0  0  0  0  0  0  0  0
    6.6010    0.2190   18.3410 N   0  0  0  0  0  0  0  0  0  0  0  0
    5.4880    0.9070   18.1260 C   0  0  0  0  0  0  0  0  0  0  0  0
    4.8540    1.4180   19.2360 C   0  0  0  0  0  0  0  0  0  0  0  0
    5.3330    1.2420   20.5160 C   0  0  0  0  0  0  0  0  0  0  0  0
    6.4820    0.5430   20.7570 C   0  0  0  0  0  0  0  0  0  0  0  0
    7.0640    0.0450   19.5660 C   0  0  0  0  0  0  0  0  0  0  0  0
    9.3630   -1.4550   23.9430 O   0  0  0  0  0  0  0  0  0  0  0  0
    8.3490   -0.5680   23.6940 N   0  0  0  0  0  0  0  0  0  0  0  0
    8.4120   -0.3420   22.3530 C   0  0  1  0  0  0  0  0  0  0  0  0
    9.8110   -0.1830   22.2660 C   0  0  0  0  0  0  0  0  0  0  0  0
   10.4250   -0.8970   23.2390 C   0  0  0  0  0  0  0  0  0  0  0  0
    6.7410   -4.1560   21.5110 N   0  0  0  0  0  0  0  0  0  0  0  0
    6.6890   -3.0270   22.2810 C   0  0  1  0  0  0  0  0  0  0  0  0
    6.8370   -3.1150   23.7550 C   0  0  0  0  0  0  0  0  0  0  0  0
    6.0390   -4.1550   24.2400 C   0  0  2  0  0  0  0  0  0  0  0  0
    5.2410   -4.7510   23.2850 C   0  0  0  0  0  0  0  0  0  0  0  0
    5.8720   -5.1590   22.0980 C   0  0  0  0  0  0  0  0  0  0  0  0
    7.0840   -4.7770   27.6060 C   0  0  0  0  0  0  0  0  0  0  0  0
    8.3610   -5.2720   27.8480 C   0  0  0  0  0  0  0  0  0  0  0  0
    9.4540   -4.7400   27.2380 C   0  0  0  0  0  0  0  0  0  0  0  0
    9.3040   -3.6310   26.3080 C   0  0  0  0  0  0  0  0  0  0  0  0
    8.0680   -3.1190   26.0480 C   0  0  0  0  0  0  0  0  0  0  0  0
    6.8790   -3.7250   26.7350 C   0  0  0  0  0  0  0  0  0  0  0  0
  2  4  1  0
  1  7  1  0
  3  7  2  0
  4  7  1  0
  1  8  1  0
  5  9  1  0
  6  9  2  0
  8  9  1  6
 10  5  1  0
 10 11  1  0
 10 12  1  0
 10 13  1  0
 14 15  1  0
 14 16  1  0
 14 17  1  0
 19 20  2  0
 19 21  1  0
 21 22  1  0
  1 23  1  0
 24 25  2  0
 25 26  1  0
 18 27  1  0
 26 27  2  0
  8 28  1  0
 27 28  1  0
 24 29  1  0
 28 29  2  0
 30 31  1  0
  1 32  1  0
  8 32  1  0
 31 32  1  0
 32 33  1  6
 14 34  1  0
 30 34  1  0
 33 34  2  0
  2 35  1  0
  1 36  1  0
 35 36  1  0
 36 37  1  1
 38 19  1  1
 37 38  1  0
 38 39  1  0
 35 40  1  0
 39 40  1  0
 41 42  2  0
 42 43  1  0
 43 44  2  0
 44 45  1  0
 21 46  1  0
 41 46  1  0
 45 46  2  0
M  END
