x2540-x0387
     RDKit          3D

 37 41  0  0  0  0  0  0  0  0999 V2000
    6.9200   -1.1950   21.6170 N   0  0  0  0  0  0  0  0  0  0  0  0
    6.8620   -3.9450   20.1700 C   0  0  0  0  0  0  0  0  0  0  0  0
    4.9100   -3.1080   21.1980 O   0  0  0  0  0  0  0  0  0  0  0  0
    6.4400   -2.4900   20.2350 C   0  0  0  0  0  0  0  0  0  0  0  0
    8.0180    1.6550   23.1060 N   0  0  0  0  0  0  0  0  0  0  0  0
    8.6880    1.5890   20.9940 O   0  0  0  0  0  0  0  0  0  0  0  0
    5.7810   -2.1670   21.5660 C   0  0  0  0  0  0  0  0  0  0  0  0
    6.7460    0.2130   21.5490 C   0  0  1  0  0  0  0  0  0  0  0  0
    7.8960    1.1780   21.8440 C   0  0  0  0  0  0  0  0  0  0  0  0
    8.8840    2.7320   23.4280 C   0  0  0  0  0  0  0  0  0  0  0  0
    8.9160    2.9000   24.8010 C   0  0  0  0  0  0  0  0  0  0  0  0
    8.4970    4.0560   22.7420 C   0  0  0  0  0  0  0  0  0  0  0  0
   10.2350    2.4120   23.0460 C   0  0  0  0  0  0  0  0  0  0  0  0
   12.0440   -1.5950   23.9400 C   0  0  1  0  0  0  0  0  0  0  0  0
   13.0170   -1.6620   24.9430 C   0  0  0  0  0  0  0  0  0  0  0  0
    9.1860   -4.6040   27.7740 O   0  0  0  0  0  0  0  0  0  0  0  0
    6.2560    0.5830   17.6600 N   0  0  0  0  0  0  0  0  0  0  0  0
    5.1460    1.5210   17.6490 C   0  0  0  0  0  0  0  0  0  0  0  0
    4.5290    2.0210   18.7760 C   0  0  0  0  0  0  0  0  0  0  0  0
    5.0030    1.6180   20.1470 C   0  0  0  0  0  0  0  0  0  0  0  0
    6.1760    0.6470   20.2540 C   0  0  0  0  0  0  0  0  0  0  0  0
    6.8310    0.0920   18.9540 C   0  0  0  0  0  0  0  0  0  0  0  0
    9.5390   -2.2650   23.9640 C   0  0  0  0  0  0  0  0  0  0  0  0
    8.1600   -2.2320   23.5160 N   0  0  0  0  0  0  0  0  0  0  0  0
    8.1150   -1.4430   22.3090 C   0  0  0  0  0  0  0  0  0  0  0  0
    9.4260   -1.0030   22.0410 C   0  0  0  0  0  0  0  0  0  0  0  0
   10.4020   -1.4620   22.9460 C   0  0  1  0  0  0  0  0  0  0  0  0
    9.2800   -5.1880   26.5440 C   0  0  0  0  0  0  0  0  0  0  0  0
    8.2880   -4.7660   25.7020 C   0  0  0  0  0  0  0  0  0  0  0  0
    8.3730   -3.4020   25.5680 C   0  0  0  0  0  0  0  0  0  0  0  0
    9.7230   -2.9350   25.0890 N   0  0  0  0  0  0  0  0  0  0  0  0
   10.6610   -3.8830   25.0950 C   0  0  0  0  0  0  0  0  0  0  0  0
   10.5270   -4.8670   26.0510 C   0  0  0  0  0  0  0  0  0  0  0  0
   11.3150   -0.3960   23.3650 C   0  0  2  0  0  0  0  0  0  0  0  0
   11.3200   -2.1130   21.9580 C   0  0  0  0  0  0  0  0  0  0  0  0
   13.0190   -1.7450   22.4420 S   0  0  0  0  0  0  0  0  0  0  0  0
   12.7540   -0.5540   23.9370 C   0  0  0  0  0  0  0  0  0  0  0  0
  2  4  1  0
  1  7  1  0
  3  7  2  0
  4  7  1  0
  1  8  1  0
  5  9  1  0
  6  9  2  0
  8  9  1  6
 10  5  1  0
 10 11  1  0
 10 12  1  0
 10 13  1  0
 14 15  1  1
 17 18  2  0
 18 19  1  0
 19 20  2  0
  8 21  1  0
 20 21  1  0
 17 22  1  0
 21 22  2  0
 23 24  2  0
  1 25  1  0
 24 25  1  0
 25 26  2  0
 27 23  1  0
 27 26  1  6
 16 28  1  0
 28 29  1  0
 29 30  1  0
 23 31  1  0
 30 31  1  0
 31 32  1  0
 28 33  1  0
 32 33  1  0
 14 34  1  0
 27 34  1  0
 27 35  1  0
 14 36  1  0
 35 36  2  0
 34 37  1  6
 36 37  1  6
M  END
