x2540-x0771-x0978-x3113-x0691
     RDKit          3D

 58 64  0  0  0  0  0  0  0  0999 V2000
    7.0450   -1.7430   21.5830 N   0  0  0  0  0  0  0  0  0  0  0  0
    8.1200   -4.6430   21.0590 C   0  0  0  0  0  0  0  0  0  0  0  0
    4.9090   -3.0380   20.9950 O   0  0  0  0  0  0  0  0  0  0  0  0
    6.8020   -4.2420   21.8150 C   0  0  1  0  0  0  0  0  0  0  0  0
    7.7510    1.4340   22.9700 N   0  0  0  0  0  0  0  0  0  0  0  0
    8.9100    0.6620   21.2510 O   0  0  0  0  0  0  0  0  0  0  0  0
    6.1530   -2.9470   21.4150 C   0  0  0  0  0  0  0  0  0  0  0  0
   11.6370    3.8380   22.4420 O   0  0  0  0  0  0  0  0  0  0  0  0
    6.7060   -0.3690   21.4680 C   0  0  1  0  0  0  0  0  0  0  0  0
    7.8770    0.5950   21.8910 C   0  0  0  0  0  0  0  0  0  0  0  0
    8.8320    2.3700   23.4200 C   0  0  0  0  0  0  0  0  0  0  0  0
   10.2540    1.9000   23.1040 C   0  0  0  0  0  0  0  0  0  0  0  0
   11.3780    2.8980   23.4740 C   0  0  0  0  0  0  0  0  0  0  0  0
   12.9070    4.4740   22.6270 C   0  0  0  0  0  0  0  0  0  0  0  0
   12.6660   -2.1340   24.6310 C   0  0  1  0  0  0  0  0  0  0  0  0
   13.2560   -2.2970   23.2840 C   0  0  0  0  0  0  0  0  0  0  0  0
   11.7550   -3.2310   25.1510 C   0  0  0  0  0  0  0  0  0  0  0  0
   12.2290   -0.7030   24.8370 C   0  0  0  0  0  0  0  0  0  0  0  0
    8.6980    2.5700   24.9140 C   0  0  0  0  0  0  0  0  0  0  0  0
    8.6650    3.7420   22.7430 C   0  0  0  0  0  0  0  0  0  0  0  0
   12.1850   -1.2680   23.3870 C   0  0  2  0  0  0  0  0  0  0  0  0
    2.4730   -5.5580   22.8660 N   0  0  0  0  0  0  0  0  0  0  0  0
    2.6820   -8.1570   24.4430 C   0  0  0  0  0  0  0  0  0  0  0  0
    4.3550   -7.0470   25.2650 N   0  0  0  0  0  0  0  0  0  0  0  0
    3.2860   -6.9090   24.4800 C   0  0  1  0  0  0  0  0  0  0  0  0
    1.0910   -7.3320   22.1120 O   0  0  0  0  0  0  0  0  0  0  0  0
    3.5450   -6.3300   23.2040 C   0  0  2  0  0  0  0  0  0  0  0  0
    4.3170   -4.0770   22.7450 O   0  0  0  0  0  0  0  0  0  0  0  0
    1.1430   -6.1940   22.6050 C   0  0  0  0  0  0  0  0  0  0  0  0
   -0.0270   -5.5130   22.8890 C   0  0  0  0  0  0  0  0  0  0  0  0
    0.5080   -1.2310   26.2870 C   0  0  0  0  0  0  0  0  0  0  0  0
    6.0130   -5.4260   26.8800 O   0  0  0  0  0  0  0  0  0  0  0  0
    4.9280   -5.7170   25.7400 S   0  0  2  0  0  0  0  0  0  0  0  0
    3.2700   -0.6700   26.3570 F   0  0  0  0  0  0  0  0  0  0  0  0
    6.3820    0.3600   17.8410 N   0  0  0  0  0  0  0  0  0  0  0  0
    5.2920    1.1170   17.8540 C   0  0  0  0  0  0  0  0  0  0  0  0
    4.5720    1.4340   18.9960 C   0  0  0  0  0  0  0  0  0  0  0  0
    5.0370    0.9290   20.2000 C   0  0  0  0  0  0  0  0  0  0  0  0
    6.1970    0.1380   20.1410 C   0  0  0  0  0  0  0  0  0  0  0  0
    6.8810   -0.1660   18.9810 C   0  0  0  0  0  0  0  0  0  0  0  0
    9.5630   -1.4330   21.9510 C   0  0  0  0  0  0  0  0  0  0  0  0
   10.9180   -1.3200   22.5610 C   0  0  0  0  0  0  0  0  0  0  0  0
   10.5420   -1.6920   23.8850 C   0  0  0  0  0  0  0  0  0  0  0  0
    9.3290   -2.0310   24.4110 C   0  0  0  0  0  0  0  0  0  0  0  0
    8.1690   -2.0850   23.7620 C   0  0  0  0  0  0  0  0  0  0  0  0
    8.2590   -1.7680   22.4450 C   0  0  0  0  0  0  0  0  0  0  0  0
    1.5380   -2.3110   26.1540 C   0  0  0  0  0  0  0  0  0  0  0  0
    1.1170   -3.6360   25.9880 C   0  0  0  0  0  0  0  0  0  0  0  0
    2.1460   -4.7360   25.8610 C   0  0  0  0  0  0  0  0  0  0  0  0
    3.6330   -4.5050   25.8990 C   0  0  0  0  0  0  0  0  0  0  0  0
    4.0020   -3.0310   26.0800 C   0  0  0  0  0  0  0  0  0  0  0  0
    2.9040   -1.9670   26.2020 C   0  0  0  0  0  0  0  0  0  0  0  0
    6.8490   -6.4100   22.3030 N   0  0  0  0  0  0  0  0  0  0  0  0
    5.8120   -5.4670   22.0190 C   0  0  1  0  0  0  0  0  0  0  0  0
    4.8760   -5.3760   23.0860 C   0  0  2  0  0  0  0  0  0  0  0  0
    5.6460   -5.2700   24.3330 N   0  0  0  0  0  0  0  0  0  0  0  0
    7.0790   -4.8830   24.2450 C   0  0  0  0  0  0  0  0  0  0  0  0
    7.8000   -5.7500   23.2030 C   0  0  0  0  0  0  0  0  0  0  0  0
  4  2  1  6
  1  7  1  0
  3  7  2  0
  4  7  1  0
  1  9  1  0
  5 10  1  0
  6 10  2  0
  9 10  1  6
 11  5  1  0
 11 12  1  0
  8 13  1  0
 12 13  1  0
  8 14  1  0
 15 16  1  0
 15 17  1  6
 15 18  1  0
 11 19  1  0
 11 20  1  0
 15 21  1  0
 16 21  1  0
 18 21  1  0
 25 23  1  6
 24 25  1  0
 27 22  1  1
 25 27  1  0
 22 29  1  0
 26 29  2  0
 29 30  1  0
 24 33  2  0
 32 33  2  0
 35 36  2  0
 36 37  1  0
 37 38  2  0
  9 39  1  0
 38 39  1  0
 35 40  1  0
 39 40  2  0
 21 42  1  6
 41 42  2  0
 42 43  1  0
 43 44  2  0
 44 45  1  0
  1 46  1  0
 41 46  1  0
 45 46  2  0
 31 47  1  0
 47 48  2  0
 48 49  1  0
 33 50  1  1
 49 50  2  0
 50 51  1  0
 34 52  1  0
 47 52  1  0
 51 52  2  0
  4 54  1  0
 54 53  1  1
 27 55  1  0
 55 28  1  6
 54 55  1  0
 33 56  1  0
 55 56  1  0
 56 57  1  0
 53 58  1  0
 57 58  1  0
M  END
