x2540-x1425
     RDKit          3D

 42 46  0  0  0  0  0  0  0  0999 V2000
    6.9940   -1.4040   21.7320 C   0  0  1  0  0  0  0  0  0  0  0  0
    7.2840   -3.1830   19.8920 C   0  0  0  0  0  0  0  0  0  0  0  0
    4.7340   -2.8610   21.0610 O   0  0  0  0  0  0  0  0  0  0  0  0
    7.7780    1.8570   22.9990 N   0  0  0  0  0  0  0  0  0  0  0  0
    8.5260    1.5410   20.8410 O   0  0  0  0  0  0  0  0  0  0  0  0
    5.9920   -2.6400   21.2880 C   0  0  0  0  0  0  0  0  0  0  0  0
    6.6100    0.0850   21.5160 C   0  0  1  0  0  0  0  0  0  0  0  0
    7.7070    1.1500   21.6690 C   0  0  0  0  0  0  0  0  0  0  0  0
    8.7830    2.8070   23.3360 C   0  0  0  0  0  0  0  0  0  0  0  0
    8.9990    2.9920   24.6880 C   0  0  0  0  0  0  0  0  0  0  0  0
    8.4250    4.1580   22.6930 C   0  0  0  0  0  0  0  0  0  0  0  0
   10.0660    2.4090   22.8150 C   0  0  0  0  0  0  0  0  0  0  0  0
   12.0810   -1.3560   23.4540 C   0  0  0  0  0  0  0  0  0  0  0  0
   12.8170   -1.1990   22.2720 C   0  0  0  0  0  0  0  0  0  0  0  0
   12.2920   -0.1050   24.3040 C   0  0  0  0  0  0  0  0  0  0  0  0
   12.4480   -2.4020   24.2220 C   0  0  0  0  0  0  0  0  0  0  0  0
    1.6580   -2.3500   28.1250 C   0  0  0  0  0  0  0  0  0  0  0  0
    2.9230   -2.1360   28.0200 O   0  0  0  0  0  0  0  0  0  0  0  0
    6.5410   -1.8810   23.0250 C   0  0  0  0  0  0  0  0  0  0  0  0
    6.4200    0.4070   17.9040 N   0  0  0  0  0  0  0  0  0  0  0  0
    5.2820    1.2710   17.7450 C   0  0  0  0  0  0  0  0  0  0  0  0
    4.5790    1.7130   19.0210 C   0  0  0  0  0  0  0  0  0  0  0  0
    4.9880    1.3330   20.2730 C   0  0  0  0  0  0  0  0  0  0  0  0
    6.1110    0.4960   20.3560 C   0  0  0  0  0  0  0  0  0  0  0  0
    6.8410    0.0130   19.2520 C   0  0  0  0  0  0  0  0  0  0  0  0
    9.7960   -1.8470   24.1620 O   0  0  0  0  0  0  0  0  0  0  0  0
    8.4510   -1.8910   23.8040 N   0  0  0  0  0  0  0  0  0  0  0  0
    8.4240   -1.4730   22.3930 C   0  0  0  0  0  0  0  0  0  0  0  0
    9.7340   -1.2120   22.0030 C   0  0  0  0  0  0  0  0  0  0  0  0
   10.5980   -1.4390   23.1100 C   0  0  0  0  0  0  0  0  0  0  0  0
    3.5520   -2.6790   26.9440 C   0  0  0  0  0  0  0  0  0  0  0  0
    4.8790   -2.3190   26.7510 C   0  0  0  0  0  0  0  0  0  0  0  0
    5.6420   -2.8160   25.6790 C   0  0  0  0  0  0  0  0  0  0  0  0
    5.1360   -3.6800   24.7600 C   0  0  0  0  0  0  0  0  0  0  0  0
    3.7300   -4.0710   24.9440 C   0  0  0  0  0  0  0  0  0  0  0  0
    2.9710   -3.5660   26.0240 C   0  0  0  0  0  0  0  0  0  0  0  0
    5.9570   -4.9280   21.1340 N   0  0  0  0  0  0  0  0  0  0  0  0
    6.7840   -3.8380   21.2270 C   0  0  1  0  0  0  0  0  0  0  0  0
    6.9340   -3.3910   22.8240 C   0  0  2  0  0  0  0  0  0  0  0  0
    5.9890   -4.1880   23.6410 N   0  0  0  0  0  0  0  0  0  0  0  0
    6.1120   -5.6440   23.5250 C   0  0  0  0  0  0  0  0  0  0  0  0
    6.3340   -5.9950   22.0710 C   0  0  0  0  0  0  0  0  0  0  0  0
  1  6  1  0
  3  6  2  0
  1  7  1  0
  4  8  1  0
  5  8  2  0
  7  8  1  6
  9  4  1  0
  9 10  1  0
  9 11  1  0
  9 12  1  0
 13 14  1  0
 13 15  1  0
 13 16  1  0
 17 18  1  0
  1 19  1  0
 20 21  2  0
 21 22  1  0
 22 23  2  0
  7 24  1  0
 23 24  1  0
 20 25  1  0
 24 25  2  0
 26 27  1  0
  1 28  1  1
 27 28  2  0
 28 29  1  0
 13 30  1  0
 26 30  1  0
 29 30  2  0
 18 31  1  0
 31 32  2  0
 32 33  1  0
 33 34  2  0
 34 35  1  0
 31 36  1  0
 35 36  2  0
 38  2  1  6
  6 38  1  0
 37 38  1  0
 39 19  1  6
 38 39  1  0
 34 40  1  0
 39 40  1  0
 40 41  1  0
 37 42  1  0
 41 42  1  0
M  END
