x2540-x0978
     RDKit          3D

 43 44  0  0  0  0  0  0  0  0999 V2000
    6.8560   -1.2940   21.9790 C   0  0  1  0  0  0  0  0  0  0  0  0
    6.8630   -3.5590   19.5220 C   0  0  0  0  0  0  0  0  0  0  0  0
    5.0960   -3.2950   20.8120 O   0  0  0  0  0  0  0  0  0  0  0  0
    7.0720   -2.7590   20.7630 C   0  0  0  0  0  0  0  0  0  0  0  0
    7.8070    1.9160   23.1830 N   0  0  0  0  0  0  0  0  0  0  0  0
    8.5740    1.5400   20.9180 O   0  0  0  0  0  0  0  0  0  0  0  0
    5.7780   -2.3380   21.4080 C   0  0  0  0  0  0  0  0  0  0  0  0
    6.6160    0.1860   21.6960 C   0  0  1  0  0  0  0  0  0  0  0  0
    7.7090    1.2360   21.9440 C   0  0  0  0  0  0  0  0  0  0  0  0
    8.8530    2.8530   23.3600 C   0  0  0  0  0  0  0  0  0  0  0  0
    9.3180    2.9340   24.6620 C   0  0  0  0  0  0  0  0  0  0  0  0
    8.4160    4.1420   22.6300 C   0  0  0  0  0  0  0  0  0  0  0  0
   10.1210    2.4180   22.6680 C   0  0  0  0  0  0  0  0  0  0  0  0
   12.0630   -1.3410   23.4500 C   0  0  0  0  0  0  0  0  0  0  0  0
   12.8360   -1.2490   22.2840 C   0  0  0  0  0  0  0  0  0  0  0  0
   12.3180   -0.0880   24.2610 C   0  0  0  0  0  0  0  0  0  0  0  0
   12.5820   -2.5130   24.3140 C   0  0  0  0  0  0  0  0  0  0  0  0
    1.7510   -5.6230   23.3740 N   0  0  0  0  0  0  0  0  0  0  0  0
    2.0260   -8.4710   24.8120 C   0  0  0  0  0  0  0  0  0  0  0  0
    4.3680   -7.8330   24.8120 O   0  0  0  0  0  0  0  0  0  0  0  0
    3.0600   -7.3070   24.6210 C   0  0  1  0  0  0  0  0  0  0  0  0
    5.2490   -6.0750   22.3290 N   0  0  0  0  0  0  0  0  0  0  0  0
    0.7620   -7.3290   21.8360 O   0  0  0  0  0  0  0  0  0  0  0  0
    2.9720   -6.4600   23.3290 C   0  0  2  0  0  0  0  0  0  0  0  0
    4.1000   -4.1530   23.4900 O   0  0  0  0  0  0  0  0  0  0  0  0
    0.7340   -6.1360   22.6130 C   0  0  0  0  0  0  0  0  0  0  0  0
   -0.4870   -5.4440   22.5620 C   0  0  0  0  0  0  0  0  0  0  0  0
    4.1230   -5.5120   23.0600 C   0  0  0  0  0  0  0  0  0  0  0  0
    6.5890   -5.4430   22.3920 C   0  0  0  0  0  0  0  0  0  0  0  0
    6.3350   -1.8400   23.2910 C   0  0  0  0  0  0  0  0  0  0  0  0
    6.4900   -3.2660   23.3700 C   0  0  0  0  0  0  0  0  0  0  0  0
    6.5530   -4.0650   22.2120 C   0  0  0  0  0  0  0  0  0  0  0  0
    6.3930    0.3860   17.8820 N   0  0  0  0  0  0  0  0  0  0  0  0
    5.2690    1.3280   17.7780 C   0  0  0  0  0  0  0  0  0  0  0  0
    4.6770    1.8050   18.9400 C   0  0  0  0  0  0  0  0  0  0  0  0
    5.1140    1.4290   20.1430 C   0  0  0  0  0  0  0  0  0  0  0  0
    6.2220    0.5070   20.2900 C   0  0  0  0  0  0  0  0  0  0  0  0
    6.8820   -0.0390   19.1780 C   0  0  0  0  0  0  0  0  0  0  0  0
    9.8680   -2.1320   24.1390 O   0  0  0  0  0  0  0  0  0  0  0  0
    8.5180   -2.1780   23.8410 N   0  0  0  0  0  0  0  0  0  0  0  0
    8.3400   -1.4670   22.5700 C   0  0  0  0  0  0  0  0  0  0  0  0
    9.6270   -1.0570   22.1960 C   0  0  0  0  0  0  0  0  0  0  0  0
   10.5710   -1.4580   23.1760 C   0  0  0  0  0  0  0  0  0  0  0  0
  2  4  1  0
  1  7  1  0
  3  7  2  0
  4  7  1  0
  1  8  1  0
  5  9  1  0
  6  9  2  0
  8  9  1  6
 10  5  1  0
 10 11  1  0
 10 12  1  0
 10 13  1  0
 14 15  1  0
 14 16  1  0
 14 17  1  0
 21 19  1  6
 20 21  1  0
 24 18  1  1
 21 24  1  0
 18 26  1  0
 23 26  2  0
 26 27  1  0
 22 28  1  0
 24 28  1  0
 25 28  2  0
 22 29  1  0
  1 30  1  1
 30 31  1  0
 29 32  1  0
 31 32  1  0
 33 34  2  0
 34 35  1  0
 35 36  2  0
  8 37  1  0
 36 37  1  0
 33 38  1  0
 37 38  2  0
 39 40  1  0
  1 41  1  0
 40 41  2  0
 41 42  1  0
 14 43  1  0
 39 43  1  0
 42 43  2  0
M  END
