x2540-x3117-x2754-x3110
     RDKit          3D

 53 61  0  0  0  0  0  0  0  0999 V2000
    7.8900    1.1990   23.0940 N   0  0  0  0  0  0  0  0  0  0  0  0
   13.1590    5.5120   22.8290 C   0  0  0  0  0  0  0  0  0  0  0  0
   12.6060    3.1700   23.1430 O   0  0  0  0  0  0  0  0  0  0  0  0
   13.0240    4.0400   22.3810 C   0  0  0  0  0  0  0  0  0  0  0  0
    7.1790   -1.6550   21.4240 N   0  0  0  0  0  0  0  0  0  0  0  0
   11.3000    3.2740   23.4020 C   0  0  0  0  0  0  0  0  0  0  0  0
    8.5440    1.3580   20.9100 O   0  0  0  0  0  0  0  0  0  0  0  0
   10.3450    2.1150   23.2840 C   0  0  0  0  0  0  0  0  0  0  0  0
    4.9580   -3.0690   20.8780 O   0  0  0  0  0  0  0  0  0  0  0  0
    7.8140    0.8350   21.7560 C   0  0  0  0  0  0  0  0  0  0  0  0
    6.7320   -0.2200   21.3680 C   0  0  1  0  0  0  0  0  0  0  0  0
    6.2400   -2.8620   21.2830 C   0  0  0  0  0  0  0  0  0  0  0  0
    8.1720   -4.6860   21.1010 C   0  0  0  0  0  0  0  0  0  0  0  0
   13.2330   -1.5900   24.3020 C   0  0  1  0  0  0  0  0  0  0  0  0
   12.3050   -0.4170   24.6180 C   0  0  0  0  0  0  0  0  0  0  0  0
   13.3580   -1.9290   22.9410 C   0  0  0  0  0  0  0  0  0  0  0  0
   12.4430   -2.7890   24.8640 C   0  0  0  0  0  0  0  0  0  0  0  0
    8.0820    2.6100   25.4660 C   0  0  0  0  0  0  0  0  0  0  0  0
   11.9280   -1.5930   23.8080 C   0  0  2  0  0  0  0  0  0  0  0  0
    4.8060   -3.3820   25.3820 C   0  0  0  0  0  0  0  0  0  0  0  0
    3.6350   -3.0710   25.1620 O   0  0  0  0  0  0  0  0  0  0  0  0
    5.3820   -3.2210   26.6510 N   0  0  0  0  0  0  0  0  0  0  0  0
    5.0140   -2.0610   27.4830 C   0  0  0  0  0  0  0  0  0  0  0  0
    6.3060    0.5250   17.7400 N   0  0  0  0  0  0  0  0  0  0  0  0
    5.2330    1.3220   17.7370 C   0  0  0  0  0  0  0  0  0  0  0  0
    4.5800    1.6470   18.8690 C   0  0  0  0  0  0  0  0  0  0  0  0
    5.0720    1.1310   20.0330 C   0  0  0  0  0  0  0  0  0  0  0  0
    6.2090    0.2890   20.0920 C   0  0  0  0  0  0  0  0  0  0  0  0
    6.8350   -0.0230   18.8870 C   0  0  0  0  0  0  0  0  0  0  0  0
    9.7470   -1.3210   21.8310 C   0  0  0  0  0  0  0  0  0  0  0  0
   11.0490   -1.3320   22.5810 C   0  0  0  0  0  0  0  0  0  0  0  0
   10.1270   -1.7980   23.3620 C   0  0  0  0  0  0  0  0  0  0  0  0
    9.3690   -2.2880   24.2980 C   0  0  0  0  0  0  0  0  0  0  0  0
    8.2110   -2.2660   23.6280 C   0  0  0  0  0  0  0  0  0  0  0  0
    8.3680   -1.7630   22.3130 C   0  0  0  0  0  0  0  0  0  0  0  0
    9.6200    5.1720   24.1780 O   0  0  0  0  0  0  0  0  0  0  0  0
   10.0610    3.9400   23.7940 C   0  0  0  0  0  0  0  0  0  0  0  0
    8.6530    2.8270   23.6510 S   0  0  0  0  0  0  0  0  0  0  0  0
    7.3960    3.7080   22.5010 C   0  0  0  0  0  0  0  0  0  0  0  0
    7.9270    4.6490   23.3870 C   0  0  2  0  0  0  0  0  0  0  0  0
    8.9510    5.5750   23.1230 C   0  0  0  0  0  0  0  0  0  0  0  0
    6.9080   -4.1150   21.7700 C   0  0  1  0  0  0  0  0  0  0  0  0
    7.4160   -3.4210   23.0460 C   0  0  0  0  0  0  0  0  0  0  0  0
    6.3260   -2.9060   23.7420 C   0  0  0  0  0  0  0  0  0  0  0  0
    5.6400   -3.9370   24.3000 C   0  0  2  0  0  0  0  0  0  0  0  0
    4.8870   -4.7520   23.2660 C   0  0  0  0  0  0  0  0  0  0  0  0
    5.7830   -5.1270   22.0690 C   0  0  0  0  0  0  0  0  0  0  0  0
    6.8460   -4.9070   27.7840 C   0  0  0  0  0  0  0  0  0  0  0  0
    8.2800   -5.4160   27.9410 C   0  0  0  0  0  0  0  0  0  0  0  0
    9.4030   -4.7440   27.1900 C   0  0  0  0  0  0  0  0  0  0  0  0
    9.1710   -3.6730   26.3560 C   0  0  0  0  0  0  0  0  0  0  0  0
    7.8570   -3.1920   26.2020 C   0  0  0  0  0  0  0  0  0  0  0  0
    6.6600   -3.8180   26.9280 C   0  0  0  0  0  0  0  0  0  0  0  0
  2  4  1  0
  3  4  1  0
  3  6  1  0
  6  8  1  0
  1 10  1  0
  7 10  2  0
  5 11  1  0
 11 10  1  6
  5 12  1  0
  9 12  2  0
 14 15  1  0
 14 16  1  0
 14 17  1  6
 14 19  1  0
 15 19  1  0
 16 19  1  0
 20 21  2  0
 20 22  1  0
 22 23  1  0
 24 25  2  0
 25 26  1  0
 26 27  2  0
 11 28  1  0
 27 28  1  0
 24 29  1  0
 28 29  2  0
 19 31  1  1
 30 31  2  0
 31 32  1  0
 32 33  2  0
 33 34  1  0
  5 35  1  0
 30 35  1  0
 34 35  2  0
  6 37  2  0
 36 37  1  0
  1 38  1  0
  8 38  1  0
 18 38  1  0
 37 38  1  0
 38 39  1  0
 38 40  1  0
 40 39  1  6
 36 41  1  0
 40 41  1  0
 42 12  1  0
 42 13  1  6
 42 43  1  0
 43 44  1  0
 45 20  1  1
 44 45  1  0
 45 46  1  0
 42 47  1  0
 46 47  1  0
 48 49  2  0
 49 50  1  0
 50 51  2  0
 51 52  1  0
 22 53  1  0
 48 53  1  0
 52 53  2  0
M  END
