x2540-x0354
     RDKit          3D

 39 41  0  0  0  0  0  0  0  0999 V2000
    6.9310   -1.3910   21.6100 N   0  0  0  0  0  0  0  0  0  0  0  0
    7.2420   -3.3510   19.4130 C   0  0  0  0  0  0  0  0  0  0  0  0
    4.7920   -3.0090   21.3450 O   0  0  0  0  0  0  0  0  0  0  0  0
    6.9610   -3.7260   20.8370 C   0  0  0  0  0  0  0  0  0  0  0  0
    7.3230    2.1710   22.3400 N   0  0  0  0  0  0  0  0  0  0  0  0
    8.6750    1.1070   20.9770 O   0  0  0  0  0  0  0  0  0  0  0  0
    6.0960   -2.6350   21.3150 C   0  0  0  0  0  0  0  0  0  0  0  0
    6.5590   -0.0120   21.4730 C   0  0  1  0  0  0  0  0  0  0  0  0
    7.6140    1.0950   21.5810 C   0  0  0  0  0  0  0  0  0  0  0  0
    8.2850    2.7190   23.1890 C   0  0  0  0  0  0  0  0  0  0  0  0
    7.9560    2.2270   24.4640 C   0  0  0  0  0  0  0  0  0  0  0  0
    8.3120    4.2610   23.1140 C   0  0  0  0  0  0  0  0  0  0  0  0
    9.5980    2.2310   22.8030 C   0  0  0  0  0  0  0  0  0  0  0  0
   11.8330   -1.4100   23.4970 C   0  0  0  0  0  0  0  0  0  0  0  0
   12.4330   -1.3690   22.2260 C   0  0  0  0  0  0  0  0  0  0  0  0
   12.2780   -0.1370   24.2270 C   0  0  0  0  0  0  0  0  0  0  0  0
   12.2560   -2.4300   24.2700 C   0  0  0  0  0  0  0  0  0  0  0  0
    7.3660   -2.1740   25.7090 O   0  0  0  0  0  0  0  0  0  0  0  0
    7.4650   -0.4450   27.5390 O   0  0  0  0  0  0  0  0  0  0  0  0
    8.3730   -1.2590   25.6690 C   0  0  0  0  0  0  0  0  0  0  0  0
    8.3680   -0.1580   26.7530 C   0  0  0  0  0  0  0  0  0  0  0  0
    5.6130    3.7570   30.9180 C   0  0  0  0  0  0  0  0  0  0  0  0
    6.3190    0.5230   17.7260 N   0  0  0  0  0  0  0  0  0  0  0  0
    5.1590    1.3930   17.6640 C   0  0  0  0  0  0  0  0  0  0  0  0
    4.5160    1.7190   18.8310 C   0  0  0  0  0  0  0  0  0  0  0  0
    4.9700    1.2420   20.0450 C   0  0  0  0  0  0  0  0  0  0  0  0
    6.0930    0.4160   20.1170 C   0  0  0  0  0  0  0  0  0  0  0  0
    6.7930    0.0210   19.0010 C   0  0  0  0  0  0  0  0  0  0  0  0
    9.4290   -1.3250   24.6380 C   0  0  0  0  0  0  0  0  0  0  0  0
    8.2320   -1.3410   23.9560 N   0  0  0  0  0  0  0  0  0  0  0  0
    8.0860   -1.3990   22.5290 C   0  0  0  0  0  0  0  0  0  0  0  0
    9.4290   -1.4320   22.3060 C   0  0  0  0  0  0  0  0  0  0  0  0
   10.2590   -1.3960   23.4260 C   0  0  0  0  0  0  0  0  0  0  0  0
    7.6160    2.0330   28.3390 C   0  0  0  0  0  0  0  0  0  0  0  0
    7.1080    2.9470   29.1790 C   0  0  0  0  0  0  0  0  0  0  0  0
    6.0290    2.5790   30.0670 C   0  0  0  0  0  0  0  0  0  0  0  0
    5.4720    1.2960   30.1010 C   0  0  0  0  0  0  0  0  0  0  0  0
    5.9760    0.3240   29.2480 C   0  0  0  0  0  0  0  0  0  0  0  0
    7.0310    0.6130   28.3550 C   0  0  0  0  0  0  0  0  0  0  0  0
  2  4  1  0
  1  7  1  0
  3  7  2  0
  4  7  1  0
  1  8  1  0
  5  9  1  0
  6  9  2  0
  8  9  1  6
 10  5  1  0
 10 11  1  0
 10 12  1  0
 10 13  1  0
 14 15  1  0
 14 16  1  0
 14 17  1  0
 18 20  2  0
 19 21  1  0
 20 21  1  0
 23 24  2  0
 24 25  1  0
 25 26  2  0
  8 27  1  0
 26 27  1  0
 23 28  1  0
 27 28  2  0
 20 29  1  0
 29 30  1  0
  1 31  1  0
 30 31  1  0
 31 32  2  0
 14 33  1  0
 29 33  2  0
 32 33  1  0
 34 35  2  0
 22 36  1  0
 35 36  1  0
 36 37  2  0
 37 38  1  0
 19 39  1  0
 34 39  1  0
 38 39  2  0
M  END
