x2540-x1493-x3113
     RDKit          3D

 43 48  0  0  0  0  0  0  0  0999 V2000
    7.3410   -1.8820   21.3960 C   0  0  2  0  0  0  0  0  0  0  0  0
    6.7370   -5.0720   20.5570 C   0  0  0  0  0  0  0  0  0  0  0  0
    4.7610   -2.8720   21.0080 O   0  0  0  0  0  0  0  0  0  0  0  0
    6.6130   -4.0220   21.6610 C   0  0  1  0  0  0  0  0  0  0  0  0
    8.3080    1.1450   23.2590 N   0  0  0  0  0  0  0  0  0  0  0  0
    8.6870    1.3890   20.8850 O   0  0  0  0  0  0  0  0  0  0  0  0
    6.0290   -2.8290   21.2980 C   0  0  0  0  0  0  0  0  0  0  0  0
   11.7390    4.1110   23.4150 O   0  0  0  0  0  0  0  0  0  0  0  0
    6.9690   -0.3830   21.5700 C   0  0  1  0  0  0  0  0  0  0  0  0
    8.0410    0.7480   21.9070 C   0  0  0  0  0  0  0  0  0  0  0  0
    8.9140    2.4640   23.5940 C   0  0  0  0  0  0  0  0  0  0  0  0
   10.4240    2.1210   23.7020 C   0  0  0  0  0  0  0  0  0  0  0  0
   11.2040    3.0060   22.7090 C   0  0  0  0  0  0  0  0  0  0  0  0
   12.9130    4.6140   22.9320 C   0  0  0  0  0  0  0  0  0  0  0  0
   13.0800   -1.8620   24.0890 C   0  0  1  0  0  0  0  0  0  0  0  0
   12.9650   -2.2590   22.9540 C   0  0  0  0  0  0  0  0  0  0  0  0
   12.4050   -2.7890   25.1210 C   0  0  0  0  0  0  0  0  0  0  0  0
   12.8260   -0.3960   24.2020 C   0  0  0  0  0  0  0  0  0  0  0  0
    9.0660    3.6790   24.3080 C   0  0  0  0  0  0  0  0  0  0  0  0
    8.7220    3.2050   22.2340 C   0  0  0  0  0  0  0  0  0  0  0  0
   12.0900   -1.1220   23.2460 C   0  0  2  0  0  0  0  0  0  0  0  0
    4.7810   -6.1770   25.9260 C   0  0  0  0  0  0  0  0  0  0  0  0
    7.2060   -5.2430   25.9540 O   0  0  0  0  0  0  0  0  0  0  0  0
    5.9930   -5.5080   25.2230 C   0  0  0  0  0  0  0  0  0  0  0  0
    8.2680   -2.9830   22.1820 C   0  0  0  0  0  0  0  0  0  0  0  0
    6.4340    0.4280   17.7770 N   0  0  0  0  0  0  0  0  0  0  0  0
    5.3040    1.2460   17.8750 C   0  0  0  0  0  0  0  0  0  0  0  0
    4.6630    1.5550   19.2200 C   0  0  0  0  0  0  0  0  0  0  0  0
    5.2310    1.0040   20.3870 C   0  0  0  0  0  0  0  0  0  0  0  0
    6.3630    0.1850   20.3320 C   0  0  0  0  0  0  0  0  0  0  0  0
    6.9230   -0.0770   19.0100 C   0  0  0  0  0  0  0  0  0  0  0  0
    9.7400   -1.4950   22.3280 C   0  0  0  0  0  0  0  0  0  0  0  0
   10.7000   -1.1950   23.3460 C   0  0  0  0  0  0  0  0  0  0  0  0
   10.1910   -0.8990   24.7390 C   0  0  0  0  0  0  0  0  0  0  0  0
    8.7190   -0.9090   25.0650 C   0  0  0  0  0  0  0  0  0  0  0  0
    7.7870   -1.2350   23.9470 C   0  0  0  0  0  0  0  0  0  0  0  0
    8.3270   -1.5280   22.5640 C   0  0  0  0  0  0  0  0  0  0  0  0
    5.7780   -5.2430   23.9120 N   0  0  0  0  0  0  0  0  0  0  0  0
    6.3580   -4.1310   23.1600 C   0  0  1  0  0  0  0  0  0  0  0  0
    7.8030   -4.1260   23.2250 C   0  0  1  0  0  0  0  0  0  0  0  0
    8.1850   -5.4660   22.7350 N   0  0  0  0  0  0  0  0  0  0  0  0
    7.1250   -6.4850   22.3900 C   0  0  0  0  0  0  0  0  0  0  0  0
    5.7230   -6.3170   22.9690 C   0  0  0  0  0  0  0  0  0  0  0  0
  4  2  1  6
  1  7  1  0
  3  7  2  0
  4  7  1  0
  1  9  1  0
  5 10  1  0
  6 10  2  0
  9 10  1  6
 11  5  1  0
 11 12  1  0
  8 13  1  0
 12 13  1  0
  8 14  1  0
 15 16  1  0
 15 17  1  6
 15 18  1  0
 11 19  1  0
 11 20  1  0
 15 21  1  0
 16 21  1  0
 18 21  1  0
 22 24  1  0
 23 24  2  0
  1 25  1  0
 26 27  2  0
 27 28  1  0
 28 29  2  0
  9 30  1  0
 29 30  1  0
 26 31  1  0
 30 31  2  0
 21 33  1  1
 32 33  2  0
 33 34  1  0
 34 35  2  0
 35 36  1  0
  1 37  1  6
 32 37  1  0
 36 37  2  0
 24 38  1  0
  4 39  1  0
 39 38  1  6
 40 25  1  6
 39 40  1  0
 40 41  1  0
 41 42  1  0
 38 43  1  0
 42 43  1  0
M  END
