x2540-x3110-x3113-x3124-x0734
     RDKit          3D

 49 54  0  0  0  0  0  0  0  0999 V2000
    7.8700    1.2850   23.1830 N   0  0  0  0  0  0  0  0  0  0  0  0
   13.3840    5.1360   22.8740 C   0  0  0  0  0  0  0  0  0  0  0  0
   12.0310    3.3700   22.3930 O   0  0  0  0  0  0  0  0  0  0  0  0
   12.4000    4.4610   21.9430 C   0  0  0  0  0  0  0  0  0  0  0  0
    7.0410   -1.5920   21.4640 N   0  0  0  0  0  0  0  0  0  0  0  0
   10.8380    4.3420   24.0280 O   0  0  0  0  0  0  0  0  0  0  0  0
   11.0480    3.3170   23.3550 C   0  0  0  0  0  0  0  0  0  0  0  0
    8.5600    1.4430   20.8920 O   0  0  0  0  0  0  0  0  0  0  0  0
   10.2110    2.0050   23.5830 C   0  0  0  0  0  0  0  0  0  0  0  0
    4.9610   -3.0800   20.9080 O   0  0  0  0  0  0  0  0  0  0  0  0
    8.7440    2.3450   23.4850 C   0  0  0  0  0  0  0  0  0  0  0  0
    7.6810    0.8280   21.8330 C   0  0  0  0  0  0  0  0  0  0  0  0
    6.5780   -0.2070   21.4400 C   0  0  1  0  0  0  0  0  0  0  0  0
    6.2620   -2.8510   21.2210 C   0  0  0  0  0  0  0  0  0  0  0  0
    8.3160   -4.5100   20.9730 C   0  0  0  0  0  0  0  0  0  0  0  0
   12.4680   -2.3020   24.7450 C   0  0  1  0  0  0  0  0  0  0  0  0
   12.0250   -0.8530   24.9670 C   0  0  0  0  0  0  0  0  0  0  0  0
   13.4770   -2.2060   23.7760 C   0  0  0  0  0  0  0  0  0  0  0  0
   11.3500   -2.9930   23.9720 C   0  0  0  0  0  0  0  0  0  0  0  0
    8.2900    2.9500   24.8140 C   0  0  0  0  0  0  0  0  0  0  0  0
    8.5030    3.4790   22.4670 C   0  0  0  0  0  0  0  0  0  0  0  0
   12.0050   -1.5020   23.6220 C   0  0  1  0  0  0  0  0  0  0  0  0
    5.0390   -4.8840   26.4730 N   0  0  0  0  0  0  0  0  0  0  0  0
    4.2590   -5.5780   25.8040 O   0  0  0  0  0  0  0  0  0  0  0  0
    4.7720   -3.6100   26.9200 O   0  0  0  0  0  0  0  0  0  0  0  0
    6.3010    0.4780   17.8030 N   0  0  0  0  0  0  0  0  0  0  0  0
    5.1980    1.2540   17.7840 C   0  0  0  0  0  0  0  0  0  0  0  0
    4.4580    1.5910   18.9140 C   0  0  0  0  0  0  0  0  0  0  0  0
    4.8890    1.1090   20.1270 C   0  0  0  0  0  0  0  0  0  0  0  0
    6.0280    0.3200   20.1620 C   0  0  0  0  0  0  0  0  0  0  0  0
    6.6980    0.0240   18.9970 C   0  0  0  0  0  0  0  0  0  0  0  0
    9.5550   -1.7860   21.8980 C   0  0  0  0  0  0  0  0  0  0  0  0
   10.8430   -1.7090   22.5790 C   0  0  0  0  0  0  0  0  0  0  0  0
   10.4650   -1.2310   24.0300 C   0  0  0  0  0  0  0  0  0  0  0  0
    9.0550   -0.9400   24.5340 C   0  0  0  0  0  0  0  0  0  0  0  0
    7.9750   -1.0700   23.7190 C   0  0  0  0  0  0  0  0  0  0  0  0
    8.2220   -1.5100   22.3130 C   0  0  0  0  0  0  0  0  0  0  0  0
    6.4320   -5.2800   26.4030 C   0  0  0  0  0  0  0  0  0  0  0  0
    7.0970   -5.2150   25.2090 C   0  0  0  0  0  0  0  0  0  0  0  0
    8.4420   -5.6100   25.1380 C   0  0  0  0  0  0  0  0  0  0  0  0
    9.1000   -6.0710   26.2860 C   0  0  0  0  0  0  0  0  0  0  0  0
    8.3790   -6.1080   27.4770 C   0  0  0  0  0  0  0  0  0  0  0  0
    7.0460   -5.7220   27.5710 C   0  0  0  0  0  0  0  0  0  0  0  0
    7.1430   -4.1190   21.4600 C   0  0  0  0  0  0  0  0  0  0  0  0
    6.0600   -5.1830   21.8080 C   0  0  0  0  0  0  0  0  0  0  0  0
    6.3990   -5.7630   23.0230 C   0  0  0  0  0  0  0  0  0  0  0  0
    6.4030   -4.7560   24.0930 N   0  0  0  0  0  0  0  0  0  0  0  0
    6.8700   -3.4490   23.7140 C   0  0  0  0  0  0  0  0  0  0  0  0
    7.8120   -3.7360   22.7670 C   0  0  0  0  0  0  0  0  0  0  0  0
  2  4  1  0
  3  4  1  0
  3  7  1  0
  6  7  2  0
  7  9  1  0
 11  1  1  0
  9 11  1  0
  1 12  1  0
  8 12  2  0
  5 13  1  0
 13 12  1  6
  5 14  1  0
 10 14  2  0
 16 17  1  0
 16 18  1  0
 16 19  1  6
 11 20  1  0
 11 21  1  0
 16 22  1  0
 17 22  1  0
 18 22  1  0
 23 24  2  0
 23 25  1  0
 26 27  2  0
 27 28  1  0
 28 29  2  0
 13 30  1  0
 29 30  1  0
 26 31  1  0
 30 31  2  0
 22 33  1  6
 32 33  2  0
 33 34  1  0
 34 35  2  0
 35 36  1  0
  5 37  1  0
 32 37  1  0
 36 37  2  0
 23 38  1  0
 38 39  2  0
 39 40  1  0
 40 41  2  0
 41 42  1  0
 38 43  1  0
 42 43  2  0
 44 14  1  0
 15 44  1  0
 44 45  1  0
 45 46  1  0
 39 47  1  0
 46 47  1  0
 47 48  1  0
 44 49  1  0
 48 49  1  0
M  CHG  2  23   1  25  -1
M  END
