x2540-x1308-x0978-x3110-x3113
     RDKit          3D

 59 65  0  0  0  0  0  0  0  0999 V2000
    7.8570    1.2000   23.1650 N   0  0  0  0  0  0  0  0  0  0  0  0
   13.6090    5.1140   22.4290 C   0  0  0  0  0  0  0  0  0  0  0  0
   12.0350    3.2570   22.5050 O   0  0  0  0  0  0  0  0  0  0  0  0
   12.3160    4.5250   21.8990 C   0  0  0  0  0  0  0  0  0  0  0  0
    7.0640   -1.7090   21.4190 N   0  0  0  0  0  0  0  0  0  0  0  0
   10.8870    4.2560   24.2080 O   0  0  0  0  0  0  0  0  0  0  0  0
   11.0760    3.3170   23.4570 C   0  0  0  0  0  0  0  0  0  0  0  0
    8.5420    1.2610   20.9420 O   0  0  0  0  0  0  0  0  0  0  0  0
   10.2310    2.0410   23.4700 C   0  0  0  0  0  0  0  0  0  0  0  0
    4.8850   -2.9870   20.8370 O   0  0  0  0  0  0  0  0  0  0  0  0
    8.7820    2.1680   23.5230 C   0  0  0  0  0  0  0  0  0  0  0  0
    7.7570    0.7650   21.7670 C   0  0  0  0  0  0  0  0  0  0  0  0
    6.6150   -0.2450   21.4180 C   0  0  1  0  0  0  0  0  0  0  0  0
    6.1480   -2.9070   21.2560 C   0  0  0  0  0  0  0  0  0  0  0  0
    6.8230   -4.1950   21.7030 C   0  0  2  0  0  0  0  0  0  0  0  0
    8.2540   -4.5010   21.1410 C   0  0  0  0  0  0  0  0  0  0  0  0
   12.7380   -1.7760   24.2220 C   0  0  1  0  0  0  0  0  0  0  0  0
   12.2200   -0.4240   24.5530 C   0  0  0  0  0  0  0  0  0  0  0  0
   13.3230   -1.4730   22.8710 C   0  0  0  0  0  0  0  0  0  0  0  0
   12.1870   -3.0360   24.7140 C   0  0  0  0  0  0  0  0  0  0  0  0
    8.4800    2.5610   24.9710 C   0  0  0  0  0  0  0  0  0  0  0  0
    8.5120    3.4520   22.6890 C   0  0  0  0  0  0  0  0  0  0  0  0
   12.0150   -0.9290   23.1620 C   0  0  1  0  0  0  0  0  0  0  0  0
    2.2830   -5.5960   22.8830 N   0  0  0  0  0  0  0  0  0  0  0  0
    2.6400   -8.0850   24.3720 C   0  0  0  0  0  0  0  0  0  0  0  0
    4.3010   -7.0250   25.2000 N   0  0  0  0  0  0  0  0  0  0  0  0
    3.3270   -6.8910   24.3460 C   0  0  1  0  0  0  0  0  0  0  0  0
    1.0470   -7.3560   22.0610 O   0  0  0  0  0  0  0  0  0  0  0  0
    3.5820   -6.2560   23.1500 C   0  0  2  0  0  0  0  0  0  0  0  0
    4.3910   -4.0200   22.7400 O   0  0  0  0  0  0  0  0  0  0  0  0
    1.0990   -6.2490   22.5670 C   0  0  0  0  0  0  0  0  0  0  0  0
   -0.0640   -5.5220   22.8620 C   0  0  0  0  0  0  0  0  0  0  0  0
    0.7280   -1.1100   26.6300 Cl  0  0  0  0  0  0  0  0  0  0  0  0
    5.8990   -5.5490   27.0690 O   0  0  0  0  0  0  0  0  0  0  0  0
    4.8800   -5.7080   25.7120 S   0  0  1  0  0  0  0  0  0  0  0  0
    6.3210    0.5160   17.6800 N   0  0  0  0  0  0  0  0  0  0  0  0
    5.2070    1.2460   17.7970 C   0  0  0  0  0  0  0  0  0  0  0  0
    4.4750    1.5370   18.9600 C   0  0  0  0  0  0  0  0  0  0  0  0
    4.9370    1.0330   20.1430 C   0  0  0  0  0  0  0  0  0  0  0  0
    6.0850    0.2770   20.1220 C   0  0  0  0  0  0  0  0  0  0  0  0
    6.7390    0.0460   18.8310 C   0  0  0  0  0  0  0  0  0  0  0  0
    9.4520   -1.2130   21.8260 C   0  0  0  0  0  0  0  0  0  0  0  0
   10.7380   -1.0340   22.3930 C   0  0  0  0  0  0  0  0  0  0  0  0
   10.4680   -1.5840   23.6650 C   0  0  0  0  0  0  0  0  0  0  0  0
    9.3280   -2.1080   24.1770 C   0  0  0  0  0  0  0  0  0  0  0  0
    8.1810   -2.1920   23.5100 C   0  0  0  0  0  0  0  0  0  0  0  0
    8.2210   -1.7310   22.2890 C   0  0  0  0  0  0  0  0  0  0  0  0
    6.8630   -6.4730   22.3040 N   0  0  0  0  0  0  0  0  0  0  0  0
    7.7970   -5.8470   23.2240 C   0  0  0  0  0  0  0  0  0  0  0  0
    7.1490   -5.2670   24.2850 C   0  0  0  0  0  0  0  0  0  0  0  0
    5.6630   -5.1850   24.2910 N   0  0  0  0  0  0  0  0  0  0  0  0
    4.9530   -5.3040   23.0540 C   0  0  1  0  0  0  0  0  0  0  0  0
    5.8670   -5.4470   21.9820 C   0  0  1  0  0  0  0  0  0  0  0  0
    4.0830   -3.1470   26.2830 C   0  0  0  0  0  0  0  0  0  0  0  0
    3.2000   -2.1390   26.4820 C   0  0  0  0  0  0  0  0  0  0  0  0
    1.8580   -2.3800   26.3760 C   0  0  0  0  0  0  0  0  0  0  0  0
    1.3610   -3.7880   26.0340 C   0  0  0  0  0  0  0  0  0  0  0  0
    2.3150   -4.7810   25.8420 C   0  0  0  0  0  0  0  0  0  0  0  0
    3.6590   -4.4570   25.9660 C   0  0  0  0  0  0  0  0  0  0  0  0
  2  4  1  0
  3  4  1  0
  3  7  1  0
  6  7  2  0
  7  9  1  0
 11  1  1  0
  9 11  1  0
  1 12  1  0
  8 12  2  0
  5 13  1  0
 13 12  1  6
  5 14  1  0
 10 14  2  0
 14 15  1  0
 15 16  1  6
 17 18  1  0
 17 19  1  0
 17 20  1  6
 11 21  1  0
 11 22  1  0
 17 23  1  0
 18 23  1  0
 19 23  1  0
 27 25  1  6
 26 27  1  0
 29 24  1  1
 27 29  1  0
 24 31  1  0
 28 31  2  0
 31 32  1  0
 26 35  2  0
 34 35  2  0
 36 37  2  0
 37 38  1  0
 38 39  2  0
 13 40  1  0
 39 40  1  0
 36 41  1  0
 40 41  2  0
 23 43  1  6
 42 43  2  0
 43 44  1  0
 44 45  2  0
 45 46  1  0
  5 47  1  0
 42 47  1  0
 46 47  2  0
 48 49  1  0
 49 50  1  0
 35 51  1  0
 50 51  1  0
 29 52  1  0
 52 30  1  6
 51 52  1  0
 15 53  1  0
 53 48  1  1
 52 53  1  0
 54 55  2  0
 33 56  1  0
 55 56  1  0
 56 57  2  0
 57 58  1  0
 35 59  1  1
 54 59  1  0
 58 59  2  0
M  END
