x2569-x0305
     RDKit          3D

 21 22  0  0  0  0  0  0  0  0999 V2000
    8.1900    0.1470   21.6570 C   0  0  0  0  0  0  0  0  0  0  0  0
    8.8640    1.1230   21.2680 O   0  0  0  0  0  0  0  0  0  0  0  0
    8.5990   -0.8260   22.7610 C   0  0  0  0  0  0  0  0  0  0  0  0
   13.6500   -3.0540   20.5900 N   0  0  0  0  0  0  0  0  0  0  0  0
    6.9560   -0.2120   21.1640 N   0  0  0  0  0  0  0  0  0  0  0  0
   13.0480   -2.0920   21.4720 C   0  0  0  0  0  0  0  0  0  0  0  0
    8.5810    0.5520   27.2050 C   0  0  0  0  0  0  0  0  0  0  0  0
    9.2860   -0.2060   26.0710 C   0  0  0  0  0  0  0  0  0  0  0  0
    9.6370    0.6030   24.9180 N   0  0  0  0  0  0  0  0  0  0  0  0
   11.8700    0.1310   24.3380 N   0  0  0  0  0  0  0  0  0  0  0  0
   12.8450   -0.5390   23.4840 C   0  0  0  0  0  0  0  0  0  0  0  0
   12.2710   -1.2760   22.4520 C   0  0  0  0  0  0  0  0  0  0  0  0
   10.9190   -1.3370   22.2500 C   0  0  0  0  0  0  0  0  0  0  0  0
   10.0400   -0.6980   23.0580 C   0  0  0  0  0  0  0  0  0  0  0  0
   10.5270    0.0180   24.1040 C   0  0  0  0  0  0  0  0  0  0  0  0
    6.4010    0.6640   17.6430 N   0  0  0  0  0  0  0  0  0  0  0  0
    6.8940    0.1680   18.7710 C   0  0  0  0  0  0  0  0  0  0  0  0
    6.3560    0.3240   20.0350 C   0  0  0  0  0  0  0  0  0  0  0  0
    5.1760    1.0450   20.1970 C   0  0  0  0  0  0  0  0  0  0  0  0
    4.5670    1.6050   19.0780 C   0  0  0  0  0  0  0  0  0  0  0  0
    5.1720    1.4190   17.8450 C   0  0  0  0  0  0  0  0  0  0  0  0
  1  2  2  0
  1  3  1  0
  1  5  1  0
  4  6  3  0
  7  8  1  0
  8  9  1  0
 10 11  2  0
  6 12  1  0
 11 12  1  0
 12 13  2  0
  3 14  1  0
 13 14  1  0
  9 15  1  0
 10 15  1  0
 14 15  2  0
 16 17  2  0
  5 18  1  0
 17 18  1  0
 18 19  2  0
 19 20  1  0
 16 21  1  0
 20 21  2  0
M  END
