x2569-x1311
     RDKit          3D

 38 41  0  0  0  0  0  0  0  0999 V2000
    5.2980   -4.9010   19.9940 O   0  0  0  0  0  0  0  0  0  0  0  0
    6.1650   -4.3290   20.6490 C   0  0  0  0  0  0  0  0  0  0  0  0
    7.0600   -3.3880   19.8240 C   0  0  0  0  0  0  0  0  0  0  0  0
    6.2860   -4.5090   22.0540 N   0  0  0  0  0  0  0  0  0  0  0  0
    4.2680   -7.5180   25.3250 O   0  0  0  0  0  0  0  0  0  0  0  0
    2.7250   -5.5670   24.8700 O   0  0  0  0  0  0  0  0  0  0  0  0
    8.2390    0.4610   21.7320 C   0  0  0  0  0  0  0  0  0  0  0  0
    8.9270    1.4090   21.3060 O   0  0  0  0  0  0  0  0  0  0  0  0
    8.6940   -0.3400   22.7700 C   0  0  1  0  0  0  0  0  0  0  0  0
   13.7300   -2.4260   20.6560 N   0  0  0  0  0  0  0  0  0  0  0  0
    7.0040    0.0830   21.2760 N   0  0  0  0  0  0  0  0  0  0  0  0
   13.1310   -1.5310   21.6050 C   0  0  0  0  0  0  0  0  0  0  0  0
    7.1530   -3.5660   22.6570 C   0  0  1  0  0  0  0  0  0  0  0  0
    7.1010   -2.2020   22.4680 C   0  0  0  0  0  0  0  0  0  0  0  0
    8.4310   -1.7830   22.3510 C   0  0  0  0  0  0  0  0  0  0  0  0
    8.7910   -5.6860   22.8880 C   0  0  0  0  0  0  0  0  0  0  0  0
    9.3610   -6.2060   23.9230 C   0  0  0  0  0  0  0  0  0  0  0  0
    9.1090   -5.5860   25.2470 C   0  0  0  0  0  0  0  0  0  0  0  0
    8.2430   -4.4730   25.2150 C   0  0  0  0  0  0  0  0  0  0  0  0
    7.5900   -3.8530   24.0940 C   0  0  0  0  0  0  0  0  0  0  0  0
    8.0000   -4.6200   22.9990 C   0  0  0  0  0  0  0  0  0  0  0  0
    4.5980   -6.0970   22.2240 C   0  0  0  0  0  0  0  0  0  0  0  0
    5.2060   -5.0070   22.8070 C   0  0  1  0  0  0  0  0  0  0  0  0
    5.3350   -5.2680   24.3180 C   0  0  0  0  0  0  0  0  0  0  0  0
    3.9080   -6.3410   24.5500 S   0  0  0  0  0  0  0  0  0  0  0  0
    3.8240   -6.8630   22.9960 C   0  0  0  0  0  0  0  0  0  0  0  0
   11.9120    0.9450   24.1410 N   0  0  0  0  0  0  0  0  0  0  0  0
   12.7290    0.2050   23.3870 C   0  0  0  0  0  0  0  0  0  0  0  0
   12.3290   -0.7060   22.4520 C   0  0  0  0  0  0  0  0  0  0  0  0
   10.9850   -0.9130   22.2280 C   0  0  0  0  0  0  0  0  0  0  0  0
   10.1160   -0.1560   22.9890 C   0  0  0  0  0  0  0  0  0  0  0  0
   10.5930    0.7500   23.9270 C   0  0  0  0  0  0  0  0  0  0  0  0
    6.3370    0.5610   17.7240 N   0  0  0  0  0  0  0  0  0  0  0  0
    6.9040    0.1510   18.8510 C   0  0  0  0  0  0  0  0  0  0  0  0
    6.4280    0.4700   20.1000 C   0  0  0  0  0  0  0  0  0  0  0  0
    5.2780    1.2520   20.1900 C   0  0  0  0  0  0  0  0  0  0  0  0
    4.6690    1.6840   19.0270 C   0  0  0  0  0  0  0  0  0  0  0  0
    5.2370    1.3190   17.8260 C   0  0  0  0  0  0  0  0  0  0  0  0
  1  2  2  0
  2  3  1  0
  2  4  1  0
  7  8  2  0
  7  9  1  0
  7 11  1  0
 10 12  3  0
  4 13  1  0
 13 14  1  1
  9 15  1  6
 14 15  1  0
 16 17  2  0
 17 18  1  0
 18 19  2  0
 13 20  1  0
 19 20  1  0
 16 21  1  0
 20 21  2  0
 23  4  1  6
 22 23  1  0
 23 24  1  0
 25  5  1  0
  6 25  1  0
 24 25  1  0
 22 26  2  0
 25 26  1  0
 27 28  2  0
 12 29  1  0
 28 29  1  0
 29 30  2  0
  9 31  1  0
 30 31  1  0
 27 32  1  0
 31 32  2  0
 33 34  2  0
 11 35  1  0
 34 35  1  0
 35 36  2  0
 36 37  1  0
 33 38  1  0
 37 38  2  0
M  END
