x2569-x0874
     RDKit          3D

 22 25  0  0  0  0  0  0  0  0999 V2000
   10.9860   -0.2930   24.1490 C   0  0  0  0  0  0  0  0  0  0  0  0
   12.1100    0.6230   23.5980 C   0  0  0  0  0  0  0  0  0  0  0  0
   14.0340   -3.5240   20.1480 N   0  0  0  0  0  0  0  0  0  0  0  0
    9.7430    0.3600   23.9580 N   0  0  0  0  0  0  0  0  0  0  0  0
   13.4580   -2.7200   21.2250 C   0  0  0  0  0  0  0  0  0  0  0  0
   12.8860    2.7130   22.5490 N   0  0  0  0  0  0  0  0  0  0  0  0
   13.1910    1.5030   23.0690 C   0  0  0  0  0  0  0  0  0  0  0  0
   11.9360   -0.1760   23.5180 C   0  0  1  0  0  0  0  0  0  0  0  0
   12.2030   -0.7060   22.2330 C   0  0  0  0  0  0  0  0  0  0  0  0
   12.8910   -1.9120   22.3850 C   0  0  0  0  0  0  0  0  0  0  0  0
   13.0240   -2.3270   23.6980 C   0  0  0  0  0  0  0  0  0  0  0  0
   12.4270   -1.4270   24.5460 C   0  0  1  0  0  0  0  0  0  0  0  0
   12.8700   -0.2280   24.4580 C   0  0  0  0  0  0  0  0  0  0  0  0
    7.8190   -0.3980   20.7360 N   0  0  0  0  0  0  0  0  0  0  0  0
    8.5340   -0.5430   21.9110 C   0  0  0  0  0  0  0  0  0  0  0  0
    9.0050    0.5170   22.7390 C   0  0  0  0  0  0  0  0  0  0  0  0
    8.7210    1.8160   22.3250 C   0  0  0  0  0  0  0  0  0  0  0  0
    8.0190    2.0510   21.1760 C   0  0  0  0  0  0  0  0  0  0  0  0
    7.5770    1.0020   20.3970 C   0  0  0  0  0  0  0  0  0  0  0  0
   10.4230    0.1950   23.8740 C   0  0  0  0  0  0  0  0  0  0  0  0
    9.8930   -1.0540   24.6400 C   0  0  0  0  0  0  0  0  0  0  0  0
   11.0480   -1.6280   24.8210 C   0  0  0  0  0  0  0  0  0  0  0  0
  1  2  2  0
  1  4  1  0
  3  5  3  0
  2  7  2  0
  6  7  1  0
  8  9  1  6
  5 10  1  0
  9 10  1  0
 10 11  2  0
  8 12  1  0
 12 11  1  6
  8 13  1  0
 12 13  1  0
 14 15  2  0
  4 16  1  0
 15 16  1  0
 16 17  2  0
 17 18  1  0
 14 19  1  0
 18 19  2  0
  8 20  1  0
 20 21  1  0
  1 22  1  0
 12 22  1  0
 21 22  2  0
M  END
