x2562-x0759
     RDKit          3D

 31 34  0  0  0  0  0  0  0  0999 V2000
    8.3350    0.1180   21.4080 C   0  0  0  0  0  0  0  0  0  0  0  0
    8.5530    1.3220   21.1450 O   0  0  0  0  0  0  0  0  0  0  0  0
    7.0200   -0.5780   21.3940 C   0  0  1  0  0  0  0  0  0  0  0  0
   12.1740    3.1130   23.3870 O   0  0  0  0  0  0  0  0  0  0  0  0
    9.4470   -0.7250   21.7240 N   0  0  0  0  0  0  0  0  0  0  0  0
   13.0200    6.8480   22.9780 O   0  0  0  0  0  0  0  0  0  0  0  0
    5.3710   -4.3130   19.8060 O   0  0  0  0  0  0  0  0  0  0  0  0
    6.2520   -3.4770   20.0070 C   0  0  0  0  0  0  0  0  0  0  0  0
    7.2260   -3.0440   18.9020 C   0  0  0  0  0  0  0  0  0  0  0  0
    4.4320    1.3960   19.2400 N   0  0  0  0  0  0  0  0  0  0  0  0
    5.0910    1.1830   18.0230 C   0  0  0  0  0  0  0  0  0  0  0  0
    6.2160    0.4930   17.7670 N   0  0  0  0  0  0  0  0  0  0  0  0
    6.8360   -0.1000   18.8970 C   0  0  0  0  0  0  0  0  0  0  0  0
    6.3430    0.0100   20.1880 C   0  0  0  0  0  0  0  0  0  0  0  0
    5.1690    0.7380   20.3240 C   0  0  0  0  0  0  0  0  0  0  0  0
   12.0880    4.9740   22.0440 N   0  0  0  0  0  0  0  0  0  0  0  0
   13.2790    5.6620   22.2370 C   0  0  2  0  0  0  0  0  0  0  0  0
   13.9580    4.6870   22.8790 C   0  0  0  0  0  0  0  0  0  0  0  0
   12.8780    3.9450   22.5410 C   0  0  1  0  0  0  0  0  0  0  0  0
   11.7860   -1.0180   22.2070 C   0  0  0  0  0  0  0  0  0  0  0  0
   12.9900   -0.5230   22.5860 C   0  0  0  0  0  0  0  0  0  0  0  0
   13.1870    0.7920   22.9620 C   0  0  0  0  0  0  0  0  0  0  0  0
   12.0210    1.8050   23.0060 C   0  0  0  0  0  0  0  0  0  0  0  0
   10.6750    1.2240   22.5800 C   0  0  0  0  0  0  0  0  0  0  0  0
   10.6500   -0.2270   22.1680 C   0  0  0  0  0  0  0  0  0  0  0  0
    6.3810   -2.9200   21.2760 N   0  0  0  0  0  0  0  0  0  0  0  0
    7.4020   -2.0960   21.5960 C   0  0  2  0  0  0  0  0  0  0  0  0
    8.0420   -2.2680   22.8370 C   0  0  0  0  0  0  0  0  0  0  0  0
    8.2180   -3.6420   23.2190 O   0  0  0  0  0  0  0  0  0  0  0  0
    7.0770   -4.4400   22.9130 C   0  0  0  0  0  0  0  0  0  0  0  0
    6.0160   -3.6220   22.5370 C   0  0  0  0  0  0  0  0  0  0  0  0
  1  2  2  0
  3  1  1  6
  1  5  1  0
  7  8  2  0
  8  9  1  0
 10 11  2  0
 11 12  1  0
 12 13  2  0
  3 14  1  0
 13 14  1  0
 10 15  1  0
 14 15  2  0
 17  6  1  1
 16 17  1  0
 17 18  1  0
 19  4  1  1
 16 19  1  0
 18 19  1  0
 20 21  2  0
 21 22  1  0
  4 23  1  0
 22 23  2  0
 23 24  1  0
  5 25  1  0
 20 25  1  0
 24 25  2  0
  8 26  1  0
  3 27  1  0
 26 27  1  0
 27 28  1  1
 28 29  1  0
 29 30  1  0
 26 31  1  0
 30 31  1  0
M  END
