x2563-x0195
     RDKit          3D

 29 33  0  0  0  0  0  0  0  0999 V2000
    8.0260   -0.2320   20.9690 C   0  0  0  0  0  0  0  0  0  0  0  0
    8.1880    1.2020   20.7750 O   0  0  0  0  0  0  0  0  0  0  0  0
    6.5470   -0.7010   20.8530 C   0  0  0  0  0  0  0  0  0  0  0  0
    9.0010   -1.2070   21.2420 N   0  0  0  0  0  0  0  0  0  0  0  0
    8.4890    0.2670   25.9540 C   0  0  0  0  0  0  0  0  0  0  0  0
   10.0140    2.3140   22.9190 S   0  0  0  0  0  0  0  0  0  0  0  0
    9.3700    2.7760   24.1270 O   0  0  0  0  0  0  0  0  0  0  0  0
    9.4320    2.6400   21.6220 O   0  0  0  0  0  0  0  0  0  0  0  0
   11.5720    3.0290   22.9600 N   0  0  0  0  0  0  0  0  0  0  0  0
    5.5230    1.1610   17.6270 N   0  0  0  0  0  0  0  0  0  0  0  0
    4.6190    2.1980   18.0970 C   0  0  0  0  0  0  0  0  0  0  0  0
    4.3720    2.2260   19.4620 C   0  0  0  0  0  0  0  0  0  0  0  0
    4.9700    1.2820   20.4830 C   0  0  0  0  0  0  0  0  0  0  0  0
    5.8380    0.3070   20.0130 C   0  0  0  0  0  0  0  0  0  0  0  0
    6.0630    0.2910   18.6550 C   0  0  0  0  0  0  0  0  0  0  0  0
    3.4220    3.3100   19.9340 C   0  0  0  0  0  0  0  0  0  0  0  0
    3.1000    3.4410   21.2820 C   0  0  0  0  0  0  0  0  0  0  0  0
    3.6820    2.5390   22.2020 C   0  0  0  0  0  0  0  0  0  0  0  0
    4.5780    1.5050   21.8280 C   0  0  0  0  0  0  0  0  0  0  0  0
   10.9730   -1.2290   22.8150 C   0  0  1  0  0  0  0  0  0  0  0  0
   10.4260   -1.3880   24.2030 C   0  0  1  0  0  0  0  0  0  0  0  0
   10.7380   -0.3590   25.1710 C   0  0  0  0  0  0  0  0  0  0  0  0
    9.5300    0.4950   24.8500 C   0  0  1  0  0  0  0  0  0  0  0  0
    8.9120    0.0360   23.4670 C   0  0  0  0  0  0  0  0  0  0  0  0
    9.6800   -0.8890   22.4120 C   0  0  0  0  0  0  0  0  0  0  0  0
   11.4850   -0.0050   22.6380 C   0  0  0  0  0  0  0  0  0  0  0  0
   10.2880    0.6200   22.9960 C   0  0  0  0  0  0  0  0  0  0  0  0
    9.3700   -0.4890   23.4480 C   0  0  0  0  0  0  0  0  0  0  0  0
   11.5100   -2.3010   23.6810 C   0  0  0  0  0  0  0  0  0  0  0  0
  1  2  2  0
  1  3  1  0
  1  4  1  0
  6  7  2  0
  6  8  2  0
  6  9  1  0
 10 11  2  0
 11 12  1  0
 12 13  2  0
  3 14  1  0
 13 14  1  0
 10 15  1  0
 14 15  2  0
 12 16  1  0
 16 17  2  0
 17 18  1  0
 13 19  1  0
 18 19  2  0
 20 21  1  0
 21 22  1  1
 23  5  1  1
 22 23  1  0
 23 24  1  0
  4 25  1  0
 20 25  1  0
 24 25  2  0
 20 26  1  1
  6 27  1  0
 26 27  2  0
 21 28  1  0
 27 28  1  0
 20 29  1  0
 21 29  1  0
M  END
