x2563-x0771
     RDKit          3D

 42 46  0  0  0  0  0  0  0  0999 V2000
    0.4560   -1.4300   25.9960 C   0  0  0  0  0  0  0  0  0  0  0  0
    4.4180   -7.0170   25.8900 O   0  0  0  0  0  0  0  0  0  0  0  0
    5.9890   -5.2790   26.8080 O   0  0  0  0  0  0  0  0  0  0  0  0
    5.8090   -4.3180   19.7530 O   0  0  0  0  0  0  0  0  0  0  0  0
    1.9740   -6.0540   25.0440 C   0  0  0  0  0  0  0  0  0  0  0  0
    6.6960   -4.0750   20.5470 C   0  0  0  0  0  0  0  0  0  0  0  0
    8.0810   -3.5680   20.1850 C   0  0  0  0  0  0  0  0  0  0  0  0
    5.0190   -5.7060   25.8320 S   0  0  0  0  0  0  0  0  0  0  0  0
    8.4680    0.1580   21.3160 C   0  0  0  0  0  0  0  0  0  0  0  0
    8.6640    1.3620   21.0230 O   0  0  0  0  0  0  0  0  0  0  0  0
    7.0790   -0.4730   21.2420 C   0  0  2  0  0  0  0  0  0  0  0  0
    9.4140   -0.7340   21.7240 N   0  0  0  0  0  0  0  0  0  0  0  0
    6.1850   -2.6500   22.1500 C   0  0  0  0  0  0  0  0  0  0  0  0
    7.0350   -1.9890   21.2540 C   0  0  0  0  0  0  0  0  0  0  0  0
    1.6200   -2.3920   25.9850 C   0  0  0  0  0  0  0  0  0  0  0  0
    1.4590   -3.7120   25.5800 C   0  0  0  0  0  0  0  0  0  0  0  0
    2.4460   -4.7060   25.5240 C   0  0  0  0  0  0  0  0  0  0  0  0
    3.7770   -4.4360   25.9000 C   0  0  0  0  0  0  0  0  0  0  0  0
    4.0170   -2.9900   26.3530 C   0  0  0  0  0  0  0  0  0  0  0  0
    2.8710   -1.9690   26.3810 C   0  0  0  0  0  0  0  0  0  0  0  0
    6.2790   -4.1920   22.0000 C   0  0  0  0  0  0  0  0  0  0  0  0
    5.0200   -5.0230   22.0870 C   0  0  0  0  0  0  0  0  0  0  0  0
    5.0670   -6.0860   23.1470 C   0  0  0  0  0  0  0  0  0  0  0  0
    5.7300   -5.4900   24.2940 N   0  0  0  0  0  0  0  0  0  0  0  0
    7.0730   -4.9430   24.1400 C   0  0  0  0  0  0  0  0  0  0  0  0
    7.3960   -4.8110   22.8070 C   0  0  0  0  0  0  0  0  0  0  0  0
    6.2470    0.6830   17.6430 N   0  0  0  0  0  0  0  0  0  0  0  0
    5.1140    1.3810   17.8430 C   0  0  0  0  0  0  0  0  0  0  0  0
    4.5950    1.4540   19.1770 C   0  0  0  0  0  0  0  0  0  0  0  0
    5.2650    0.8300   20.2260 C   0  0  0  0  0  0  0  0  0  0  0  0
    6.4080    0.1450   20.0380 C   0  0  0  0  0  0  0  0  0  0  0  0
    6.8860    0.0660   18.7610 C   0  0  0  0  0  0  0  0  0  0  0  0
    3.4110    2.1580   19.4300 C   0  0  0  0  0  0  0  0  0  0  0  0
    2.8930    2.2370   20.7250 C   0  0  0  0  0  0  0  0  0  0  0  0
    3.5560    1.6180   21.7710 C   0  0  0  0  0  0  0  0  0  0  0  0
    4.7240    0.9250   21.5270 C   0  0  0  0  0  0  0  0  0  0  0  0
   11.5780   -0.7000   22.6540 C   0  0  0  0  0  0  0  0  0  0  0  0
   12.4100   -0.5530   23.7250 C   0  0  0  0  0  0  0  0  0  0  0  0
   11.9130   -0.2960   24.9740 C   0  0  0  0  0  0  0  0  0  0  0  0
   10.5310   -0.1670   25.1770 C   0  0  0  0  0  0  0  0  0  0  0  0
    9.6790   -0.3030   24.1100 C   0  0  0  0  0  0  0  0  0  0  0  0
   10.2040   -0.5740   22.8490 C   0  0  0  0  0  0  0  0  0  0  0  0
  4  6  2  0
  6  7  1  0
  2  8  2  0
  3  8  2  0
  9 10  2  0
  9 11  1  0
  9 12  1  0
 11 14  1  6
 13 14  1  0
  1 15  1  0
 15 16  2  0
  5 17  1  0
 16 17  1  0
  8 18  1  0
 17 18  2  0
 18 19  1  0
 15 20  1  0
 19 20  2  0
 21  6  1  0
 13 21  1  0
 21 22  1  0
 22 23  1  0
  8 24  1  0
 23 24  1  0
 24 25  1  0
 21 26  1  0
 25 26  1  0
 27 28  2  0
 28 29  1  0
 29 30  2  0
 11 31  1  0
 30 31  1  0
 27 32  1  0
 31 32  2  0
 29 33  1  0
 33 34  2  0
 34 35  1  0
 30 36  1  0
 35 36  2  0
 37 38  2  0
 38 39  1  0
 39 40  2  0
 40 41  1  0
 12 42  1  0
 37 42  1  0
 41 42  2  0
M  END
