x2569-x0705
     RDKit          3D

 36 39  0  0  0  0  0  0  0  0999 V2000
    1.3510   -2.7270   27.7490 C   0  0  0  0  0  0  0  0  0  0  0  0
    7.6640   -1.2130   26.2630 O   0  0  0  0  0  0  0  0  0  0  0  0
    5.4560   -3.5830   19.5460 O   0  0  0  0  0  0  0  0  0  0  0  0
    6.6010   -1.6450   25.4260 C   0  0  0  0  0  0  0  0  0  0  0  0
    6.4780   -3.3410   20.2410 C   0  0  0  0  0  0  0  0  0  0  0  0
    7.7300   -3.7960   19.6660 C   0  0  0  0  0  0  0  0  0  0  0  0
    8.2200    0.2460   21.8130 C   0  0  0  0  0  0  0  0  0  0  0  0
    8.8980    1.1730   21.3170 O   0  0  0  0  0  0  0  0  0  0  0  0
    8.6030   -0.3080   23.0480 C   0  0  1  0  0  0  0  0  0  0  0  0
   13.4950   -2.9570   20.7530 N   0  0  0  0  0  0  0  0  0  0  0  0
    7.0160   -0.3160   21.2030 N   0  0  0  0  0  0  0  0  0  0  0  0
   12.8890   -2.0480   21.5510 C   0  0  0  0  0  0  0  0  0  0  0  0
    2.6820   -2.4740   27.1750 C   0  0  0  0  0  0  0  0  0  0  0  0
    2.7760   -1.4820   26.1970 C   0  0  0  0  0  0  0  0  0  0  0  0
    3.9890   -1.1790   25.6090 C   0  0  0  0  0  0  0  0  0  0  0  0
    5.2470   -1.9480   26.0420 C   0  0  0  0  0  0  0  0  0  0  0  0
    5.0310   -2.9150   27.0210 C   0  0  0  0  0  0  0  0  0  0  0  0
    3.8050   -3.1890   27.5850 C   0  0  0  0  0  0  0  0  0  0  0  0
    6.6110   -2.7940   21.5040 N   0  0  0  0  0  0  0  0  0  0  0  0
    5.6230   -3.1720   22.4810 C   0  0  0  0  0  0  0  0  0  0  0  0
    5.4560   -2.0840   23.3080 C   0  0  0  0  0  0  0  0  0  0  0  0
    6.7080   -1.7810   24.0390 N   0  0  0  0  0  0  0  0  0  0  0  0
    8.0190   -1.7000   23.3170 C   0  0  1  0  0  0  0  0  0  0  0  0
    7.9710   -2.6570   22.1220 C   0  0  0  0  0  0  0  0  0  0  0  0
   12.1040    0.5520   24.0210 N   0  0  0  0  0  0  0  0  0  0  0  0
   12.7820   -0.2900   23.2360 C   0  0  0  0  0  0  0  0  0  0  0  0
   12.1600   -1.1680   22.3680 C   0  0  0  0  0  0  0  0  0  0  0  0
   10.7740   -1.2010   22.2830 C   0  0  0  0  0  0  0  0  0  0  0  0
   10.0320   -0.3250   23.0970 C   0  0  0  0  0  0  0  0  0  0  0  0
   10.7740    0.5280   23.9480 C   0  0  0  0  0  0  0  0  0  0  0  0
    6.3910    0.6260   17.7500 N   0  0  0  0  0  0  0  0  0  0  0  0
    6.8970    0.1220   18.8870 C   0  0  0  0  0  0  0  0  0  0  0  0
    6.3380    0.2580   20.1170 C   0  0  0  0  0  0  0  0  0  0  0  0
    5.1450    0.9580   20.2100 C   0  0  0  0  0  0  0  0  0  0  0  0
    4.5810    1.4940   19.0510 C   0  0  0  0  0  0  0  0  0  0  0  0
    5.2410    1.3060   17.8520 C   0  0  0  0  0  0  0  0  0  0  0  0
  2  4  2  0
  3  5  2  0
  5  6  1  0
  7  8  2  0
  9  7  1  6
  7 11  1  0
 10 12  3  0
  1 13  1  0
 13 14  2  0
 14 15  1  0
  4 16  1  0
 15 16  2  0
 16 17  1  0
 13 18  1  0
 17 18  2  0
  5 19  1  0
 19 20  1  0
 20 21  1  0
  4 22  1  0
 21 22  1  0
  9 23  1  0
 22 23  1  0
 19 24  1  0
 23 24  1  6
 25 26  2  0
 12 27  1  0
 26 27  1  0
 27 28  2  0
  9 29  1  0
 28 29  1  0
 25 30  1  0
 29 30  2  0
 31 32  2  0
 11 33  1  0
 32 33  1  0
 33 34  2  0
 34 35  1  0
 31 36  1  0
 35 36  2  0
M  END
