x2562-x2563
     RDKit          3D

 25 28  0  0  0  0  0  0  0  0999 V2000
    8.3990   -0.2260   21.4050 C   0  0  0  0  0  0  0  0  0  0  0  0
    8.5580    0.9960   21.3490 O   0  0  0  0  0  0  0  0  0  0  0  0
    7.2430   -0.9870   20.8410 C   0  0  0  0  0  0  0  0  0  0  0  0
   12.0600    2.9420   23.2810 O   0  0  0  0  0  0  0  0  0  0  0  0
    9.4290   -0.9990   22.0600 N   0  0  0  0  0  0  0  0  0  0  0  0
   13.4800    6.8140   22.2200 O   0  0  0  0  0  0  0  0  0  0  0  0
    4.5640    1.4540   19.5340 N   0  0  0  0  0  0  0  0  0  0  0  0
    5.0450    1.4760   18.1800 C   0  0  0  0  0  0  0  0  0  0  0  0
    6.1760    0.7140   17.6720 N   0  0  0  0  0  0  0  0  0  0  0  0
    6.7780   -0.0260   18.6180 C   0  0  0  0  0  0  0  0  0  0  0  0
    6.4240   -0.1190   19.9390 C   0  0  0  0  0  0  0  0  0  0  0  0
    5.3460    0.5690   20.4720 C   0  0  0  0  0  0  0  0  0  0  0  0
   12.5180    4.7420   21.7120 N   0  0  0  0  0  0  0  0  0  0  0  0
   12.7300    5.6980   22.6310 C   0  0  1  0  0  0  0  0  0  0  0  0
   13.3430    4.9240   23.4380 C   0  0  0  0  0  0  0  0  0  0  0  0
   13.0350    3.8120   22.6940 C   0  0  1  0  0  0  0  0  0  0  0  0
   11.8340   -1.1540   22.3220 C   0  0  0  0  0  0  0  0  0  0  0  0
   13.0090   -0.5310   22.5970 C   0  0  0  0  0  0  0  0  0  0  0  0
   13.0330    0.8130   22.8990 C   0  0  0  0  0  0  0  0  0  0  0  0
   11.9150    1.6240   22.9590 C   0  0  0  0  0  0  0  0  0  0  0  0
   10.6750    1.0940   22.6980 C   0  0  0  0  0  0  0  0  0  0  0  0
   10.6580   -0.4100   22.3500 C   0  0  0  0  0  0  0  0  0  0  0  0
    3.5080    2.0810   20.2010 C   0  0  0  0  0  0  0  0  0  0  0  0
    3.5150    1.6530   21.6550 C   0  0  0  0  0  0  0  0  0  0  0  0
    4.6620    0.7270   21.7580 C   0  0  0  0  0  0  0  0  0  0  0  0
  1  2  2  0
  1  3  1  0
  1  5  1  0
  7  8  1  0
  8  9  2  0
  9 10  1  0
  3 11  1  0
 10 11  2  0
  7 12  1  0
 11 12  1  0
 14  6  1  6
 13 14  1  0
 14 15  1  0
 16  4  1  1
 13 16  1  0
 15 16  1  0
 17 18  2  0
 18 19  1  0
  4 20  1  0
 19 20  2  0
 20 21  1  0
  5 22  1  0
 17 22  1  0
 21 22  2  0
  7 23  1  0
 23 24  2  0
 12 25  2  0
 24 25  1  0
M  END
