x2562-x2910
     RDKit          3D

 33 37  0  0  0  0  0  0  0  0999 V2000
    7.7570   -1.4750   21.1150 N   0  0  0  0  0  0  0  0  0  0  0  0
    9.7190    2.5630   23.8860 C   0  0  0  0  0  0  0  0  0  0  0  0
    9.4670    1.4750   23.3520 O   0  0  0  0  0  0  0  0  0  0  0  0
    9.4200   -1.1490   22.6830 N   0  0  0  0  0  0  0  0  0  0  0  0
    5.4370   -2.0530   21.6990 O   0  0  0  0  0  0  0  0  0  0  0  0
    6.4360    1.2740   16.8150 O   0  0  0  0  0  0  0  0  0  0  0  0
    9.1200   -2.4950   22.6430 C   0  0  0  0  0  0  0  0  0  0  0  0
    7.8650   -2.4790   22.1650 C   0  0  0  0  0  0  0  0  0  0  0  0
    6.2360   -1.3610   21.0650 C   0  0  0  0  0  0  0  0  0  0  0  0
    8.6620   -0.4230   21.6710 C   0  0  0  0  0  0  0  0  0  0  0  0
    8.7130    0.7600   21.3420 O   0  0  0  0  0  0  0  0  0  0  0  0
   12.1430    2.6810   23.3590 O   0  0  0  0  0  0  0  0  0  0  0  0
   13.4160    6.6670   22.0380 O   0  0  0  0  0  0  0  0  0  0  0  0
   10.6260    0.8370   23.0450 C   0  0  0  0  0  0  0  0  0  0  0  0
   10.8050   -0.5220   22.6650 C   0  0  0  0  0  0  0  0  0  0  0  0
   11.5720   -1.3500   22.3590 C   0  0  0  0  0  0  0  0  0  0  0  0
   12.9830   -0.7580   22.3660 C   0  0  0  0  0  0  0  0  0  0  0  0
   13.1620    0.6300   22.7140 C   0  0  0  0  0  0  0  0  0  0  0  0
   12.0340    1.4610   23.0510 C   0  0  0  0  0  0  0  0  0  0  0  0
    4.7850    1.7050   18.4150 N   0  0  0  0  0  0  0  0  0  0  0  0
    4.1610    1.4260   19.6900 C   0  0  0  0  0  0  0  0  0  0  0  0
    4.6990    0.4140   20.4940 C   0  0  0  0  0  0  0  0  0  0  0  0
    5.8200   -0.3030   20.0480 C   0  0  0  0  0  0  0  0  0  0  0  0
    6.4060   -0.0260   18.8220 C   0  0  0  0  0  0  0  0  0  0  0  0
    5.8390    0.9880   18.0610 C   0  0  0  0  0  0  0  0  0  0  0  0
    3.0490    2.1650   20.0790 C   0  0  0  0  0  0  0  0  0  0  0  0
    2.4050    1.9510   21.2870 C   0  0  0  0  0  0  0  0  0  0  0  0
    2.8540    0.9680   22.1810 C   0  0  0  0  0  0  0  0  0  0  0  0
    3.9730    0.1850   21.8440 C   0  0  0  0  0  0  0  0  0  0  0  0
   12.4630    4.4050   21.5600 N   0  0  0  0  0  0  0  0  0  0  0  0
   12.6410    5.5920   22.5000 C   0  0  1  0  0  0  0  0  0  0  0  0
   13.3570    4.8020   23.5030 C   0  0  0  0  0  0  0  0  0  0  0  0
   13.0640    3.5700   22.6870 C   0  0  1  0  0  0  0  0  0  0  0  0
  2  3  1  0
  4  7  1  0
  1  8  1  0
  7  8  1  0
  1  9  1  0
  5  9  2  0
  1 10  1  0
  4 10  1  0
 10 11  2  0
  3 14  1  0
  4 15  1  0
 14 15  2  0
 15 16  1  0
 16 17  2  0
 17 18  1  0
 12 19  1  0
 14 19  1  0
 18 19  2  0
 20 21  2  0
 21 22  1  0
  9 23  1  0
 22 23  2  0
 23 24  1  0
  6 25  1  0
 20 25  1  0
 24 25  2  0
 21 26  1  0
 26 27  2  0
 27 28  1  0
 22 29  1  0
 28 29  2  0
 31 13  1  6
 30 31  1  0
 31 32  1  0
 33 12  1  1
 30 33  1  0
 32 33  1  0
M  END
