x2562-x1384
     RDKit          3D

 39 44  0  0  0  0  0  0  0  0999 V2000
    8.4050    0.4050   21.4850 C   0  0  0  0  0  0  0  0  0  0  0  0
    8.6680    1.5820   21.1450 O   0  0  0  0  0  0  0  0  0  0  0  0
    7.0600   -0.1890   21.3330 C   0  0  2  0  0  0  0  0  0  0  0  0
   12.1590    2.8530   23.3510 O   0  0  0  0  0  0  0  0  0  0  0  0
    9.2980   -0.5140   22.0280 N   0  0  0  0  0  0  0  0  0  0  0  0
   13.3910    6.7950   22.0060 O   0  0  0  0  0  0  0  0  0  0  0  0
    6.6470   -3.6530   21.6390 N   0  0  0  0  0  0  0  0  0  0  0  0
    7.2580   -3.1890   19.2220 C   0  0  0  0  0  0  0  0  0  0  0  0
    5.4240   -4.5530   19.9170 O   0  0  0  0  0  0  0  0  0  0  0  0
    6.3680   -3.8550   20.2760 C   0  0  0  0  0  0  0  0  0  0  0  0
    7.1950   -1.6150   21.0660 C   0  0  0  0  0  0  0  0  0  0  0  0
    7.4280   -2.5540   22.1210 C   0  0  0  0  0  0  0  0  0  0  0  0
    4.5660    1.7870   19.2910 N   0  0  0  0  0  0  0  0  0  0  0  0
    5.1170    1.4510   17.9850 C   0  0  0  0  0  0  0  0  0  0  0  0
    6.1550    0.6750   17.7050 N   0  0  0  0  0  0  0  0  0  0  0  0
    6.7400    0.1750   18.7750 C   0  0  0  0  0  0  0  0  0  0  0  0
    6.3430    0.4000   20.2180 C   0  0  0  0  0  0  0  0  0  0  0  0
    5.2340    1.2160   20.4550 C   0  0  0  0  0  0  0  0  0  0  0  0
   12.3700    4.6510   21.7030 N   0  0  0  0  0  0  0  0  0  0  0  0
   12.5620    5.8240   22.5940 C   0  0  1  0  0  0  0  0  0  0  0  0
   13.3350    4.9610   23.2600 C   0  0  0  0  0  0  0  0  0  0  0  0
   13.0580    3.7530   22.7050 C   0  0  1  0  0  0  0  0  0  0  0  0
   11.6800   -1.1470   22.2480 C   0  0  0  0  0  0  0  0  0  0  0  0
   12.9590   -0.6740   22.5530 C   0  0  0  0  0  0  0  0  0  0  0  0
   13.1540    0.6650   22.9150 C   0  0  0  0  0  0  0  0  0  0  0  0
   12.0840    1.5410   22.9930 C   0  0  0  0  0  0  0  0  0  0  0  0
   10.8570    1.0580   22.6910 C   0  0  0  0  0  0  0  0  0  0  0  0
   10.6160   -0.2390   22.3160 C   0  0  0  0  0  0  0  0  0  0  0  0
    5.8340   -2.3030   26.1150 O   0  0  0  0  0  0  0  0  0  0  0  0
    3.8360   -3.9280   24.0270 C   0  0  2  0  0  0  0  0  0  0  0  0
    5.1750   -3.5980   23.5900 C   0  0  1  0  0  0  0  0  0  0  0  0
    5.2580   -4.1580   24.9240 C   0  0  2  0  0  0  0  0  0  0  0  0
    5.5080   -5.6880   24.9630 C   0  0  0  0  0  0  0  0  0  0  0  0
    4.4410   -6.2530   24.0600 C   0  0  0  0  0  0  0  0  0  0  0  0
    3.4950   -5.2070   23.5510 C   0  0  0  0  0  0  0  0  0  0  0  0
    4.9660   -3.4130   26.0310 C   0  0  2  0  0  0  0  0  0  0  0  0
    3.7070   -2.9360   25.9550 C   0  0  0  0  0  0  0  0  0  0  0  0
    2.7940   -3.0880   24.8950 C   0  0  0  0  0  0  0  0  0  0  0  0
    5.8590   -4.3850   22.6110 C   0  0  0  0  0  0  0  0  0  0  0  0
  1  2  2  0
  1  3  1  0
  1  5  1  0
  7 10  1  0
  8 10  1  0
  9 10  2  0
  3 11  1  6
  7 12  1  0
 11 12  1  0
 13 14  2  0
 14 15  1  0
 15 16  2  0
  3 17  1  0
 16 17  1  0
 13 18  1  0
 17 18  2  0
 20  6  1  6
 19 20  1  0
 20 21  1  0
 22  4  1  1
 19 22  1  0
 21 22  1  0
 23 24  2  0
 24 25  1  0
  4 26  1  0
 25 26  2  0
 26 27  1  0
  5 28  1  0
 23 28  1  0
 27 28  2  0
 30 31  1  0
 30 32  1  0
 31 32  1  0
 32 33  1  1
 33 34  1  0
 30 35  1  6
 34 35  2  0
 36 29  1  6
 32 36  1  0
 36 37  1  0
 30 38  1  0
 37 38  2  0
  7 39  1  0
 31 39  1  6
M  END
