x2563-x2910
     RDKit          3D

 27 30  0  0  0  0  0  0  0  0999 V2000
    7.4260   -1.4970   21.8510 N   0  0  0  0  0  0  0  0  0  0  0  0
   10.3720    2.7450   23.5520 C   0  0  0  0  0  0  0  0  0  0  0  0
    9.9150    1.3870   23.4710 O   0  0  0  0  0  0  0  0  0  0  0  0
    9.5820   -1.2160   22.2910 N   0  0  0  0  0  0  0  0  0  0  0  0
    5.3470   -2.7540   21.1880 O   0  0  0  0  0  0  0  0  0  0  0  0
    6.4310    1.3380   16.7510 O   0  0  0  0  0  0  0  0  0  0  0  0
    9.4510   -2.5720   22.2600 C   0  0  0  0  0  0  0  0  0  0  0  0
    7.9500   -2.6360   22.4570 C   0  0  0  0  0  0  0  0  0  0  0  0
    6.1870   -1.5990   21.0710 C   0  0  0  0  0  0  0  0  0  0  0  0
    8.3330   -0.7150   21.6740 C   0  0  0  0  0  0  0  0  0  0  0  0
    8.1960    0.3610   21.0610 O   0  0  0  0  0  0  0  0  0  0  0  0
   10.8990    0.5470   23.0230 C   0  0  0  0  0  0  0  0  0  0  0  0
   10.6080   -0.6950   22.4700 C   0  0  0  0  0  0  0  0  0  0  0  0
   11.6530   -1.4970   22.0480 C   0  0  0  0  0  0  0  0  0  0  0  0
   12.9690   -1.1300   22.1370 C   0  0  0  0  0  0  0  0  0  0  0  0
   13.2510    0.1200   22.6820 C   0  0  0  0  0  0  0  0  0  0  0  0
   12.2260    0.9520   23.1260 C   0  0  0  0  0  0  0  0  0  0  0  0
    4.7330    1.8490   18.4140 N   0  0  0  0  0  0  0  0  0  0  0  0
    4.0980    1.5630   19.6700 C   0  0  0  0  0  0  0  0  0  0  0  0
    4.6030    0.4130   20.5500 C   0  0  0  0  0  0  0  0  0  0  0  0
    5.8000   -0.4930   20.1380 C   0  0  0  0  0  0  0  0  0  0  0  0
    6.3860   -0.1160   18.8140 C   0  0  0  0  0  0  0  0  0  0  0  0
    5.8570    1.0290   17.9800 C   0  0  0  0  0  0  0  0  0  0  0  0
    3.0350    2.3450   20.0540 C   0  0  0  0  0  0  0  0  0  0  0  0
    2.3150    2.0990   21.3740 C   0  0  0  0  0  0  0  0  0  0  0  0
    2.7990    1.0410   22.1630 C   0  0  0  0  0  0  0  0  0  0  0  0
    3.9020    0.2320   21.7610 C   0  0  0  0  0  0  0  0  0  0  0  0
  2  3  1  0
  4  7  1  0
  1  8  1  0
  7  8  1  0
  1  9  1  0
  5  9  2  0
  1 10  1  0
  4 10  1  0
 10 11  2  0
  3 12  1  0
  4 13  1  0
 12 13  2  0
 13 14  1  0
 14 15  2  0
 15 16  1  0
 12 17  1  0
 16 17  2  0
 18 19  2  0
 19 20  1  0
  9 21  1  0
 20 21  2  0
 21 22  1  0
  6 23  1  0
 18 23  1  0
 22 23  2  0
 19 24  1  0
 24 25  2  0
 25 26  1  0
 20 27  1  0
 26 27  2  0
M  END
