x2562-x0161
     RDKit          3D

 29 31  0  0  0  0  0  0  0  0999 V2000
    8.1710   -0.1490   21.3670 C   0  0  0  0  0  0  0  0  0  0  0  0
    8.3820    1.0610   21.3070 O   0  0  0  0  0  0  0  0  0  0  0  0
    6.8240   -0.7800   21.1580 C   0  0  0  0  0  0  0  0  0  0  0  0
   11.9750    3.0740   23.1390 O   0  0  0  0  0  0  0  0  0  0  0  0
    9.3250   -0.9750   21.6130 N   0  0  0  0  0  0  0  0  0  0  0  0
   13.5570    6.8100   22.1510 O   0  0  0  0  0  0  0  0  0  0  0  0
   13.4090   -2.2560   24.1280 C   0  0  0  0  0  0  0  0  0  0  0  0
   13.6350   -1.3220   23.3490 O   0  0  0  0  0  0  0  0  0  0  0  0
    4.4640    1.4340   19.2310 N   0  0  0  0  0  0  0  0  0  0  0  0
    5.1070    1.4060   17.9360 C   0  0  0  0  0  0  0  0  0  0  0  0
    6.2390    0.6520   17.8060 N   0  0  0  0  0  0  0  0  0  0  0  0
    6.7020    0.0000   18.8510 C   0  0  0  0  0  0  0  0  0  0  0  0
    6.1640   -0.0170   20.0970 C   0  0  0  0  0  0  0  0  0  0  0  0
    4.9950    0.7320   20.2780 C   0  0  0  0  0  0  0  0  0  0  0  0
   13.0700    5.1380   23.3990 N   0  0  0  0  0  0  0  0  0  0  0  0
   12.7470    5.7510   22.2750 C   0  0  2  0  0  0  0  0  0  0  0  0
   12.9750    4.6610   21.5980 C   0  0  0  0  0  0  0  0  0  0  0  0
   13.0850    3.8690   22.7180 C   0  0  2  0  0  0  0  0  0  0  0  0
   11.5850   -1.2140   22.5210 C   0  0  0  0  0  0  0  0  0  0  0  0
   12.6950   -0.5950   23.0330 C   0  0  0  0  0  0  0  0  0  0  0  0
   12.7690    0.7820   23.1940 C   0  0  0  0  0  0  0  0  0  0  0  0
   11.7870    1.7150   22.9190 C   0  0  0  0  0  0  0  0  0  0  0  0
   10.5060    1.0990   22.3710 C   0  0  0  0  0  0  0  0  0  0  0  0
   10.5010   -0.4400   22.1750 C   0  0  0  0  0  0  0  0  0  0  0  0
    9.4840    5.1510   24.0010 S   0  0  1  0  0  0  0  0  0  0  0  0
   10.8780    6.0300   23.6920 N   0  0  0  0  0  0  0  0  0  0  0  0
    8.7400    5.2380   25.2270 O   0  0  0  0  0  0  0  0  0  0  0  0
    8.4670    5.7300   22.7630 N   0  0  0  0  0  0  0  0  0  0  0  0
   12.0250    5.3310   24.1830 C   0  0  0  0  0  0  0  0  0  0  0  0
  1  2  2  0
  1  3  1  0
  1  5  1  0
  7  8  1  0
  9 10  2  0
 10 11  1  0
 11 12  2  0
  3 13  1  0
 12 13  1  0
  9 14  1  0
 13 14  2  0
 16  6  1  6
 15 16  1  0
 16 17  1  0
 18  4  1  1
 15 18  1  0
 17 18  1  0
  8 20  1  0
 19 20  2  0
 20 21  1  0
  4 22  1  0
 21 22  2  0
 22 23  1  0
  5 24  1  0
 19 24  1  0
 23 24  2  0
 25 26  2  0
 25 27  2  0
 25 28  1  6
 15 29  1  0
 26 29  1  0
M  END
