x2562-x0708
     RDKit          3D

 32 35  0  0  0  0  0  0  0  0999 V2000
    6.4980   -4.7760   21.2360 N   0  0  0  0  0  0  0  0  0  0  0  0
    7.2480   -3.1480   19.3630 C   0  0  0  0  0  0  0  0  0  0  0  0
    5.0760   -4.0230   19.6060 O   0  0  0  0  0  0  0  0  0  0  0  0
    6.2000   -4.0020   20.0800 C   0  0  0  0  0  0  0  0  0  0  0  0
    7.6830   -4.6120   21.9540 N   0  0  0  0  0  0  0  0  0  0  0  0
    6.9670   -3.0280   22.9390 O   0  0  0  0  0  0  0  0  0  0  0  0
    8.0120   -3.3700   22.3930 C   0  0  0  0  0  0  0  0  0  0  0  0
   12.3340    2.7330   23.4800 O   0  0  0  0  0  0  0  0  0  0  0  0
   12.8860    6.8560   22.6750 O   0  0  0  0  0  0  0  0  0  0  0  0
    8.6750    0.1750   21.6700 C   0  0  0  0  0  0  0  0  0  0  0  0
    8.8250    1.3640   21.3150 O   0  0  0  0  0  0  0  0  0  0  0  0
    7.6670   -0.7010   20.8950 C   0  0  0  0  0  0  0  0  0  0  0  0
    9.4430   -0.5070   22.8250 N   0  0  0  0  0  0  0  0  0  0  0  0
    8.8630   -2.1570   22.6030 C   0  0  0  0  0  0  0  0  0  0  0  0
   10.1640   -1.7580   22.5550 C   0  0  0  0  0  0  0  0  0  0  0  0
   11.0640   -1.1370   22.6050 C   0  0  0  0  0  0  0  0  0  0  0  0
   10.1690    0.0060   23.0350 C   0  0  0  0  0  0  0  0  0  0  0  0
    8.4600   -0.5610   23.1090 S   0  0  0  0  0  0  0  0  0  0  0  0
   12.5840   -0.8110   22.5080 C   0  0  0  0  0  0  0  0  0  0  0  0
   13.0120    0.5150   22.8080 C   0  0  0  0  0  0  0  0  0  0  0  0
   12.1050    1.5480   23.1990 C   0  0  0  0  0  0  0  0  0  0  0  0
   10.7500    1.3490   23.3280 C   0  0  0  0  0  0  0  0  0  0  0  0
   12.5160    4.5610   21.9930 N   0  0  0  0  0  0  0  0  0  0  0  0
   13.4010    5.6150   22.2180 C   0  0  2  0  0  0  0  0  0  0  0  0
   13.6390    4.7540   23.2390 C   0  0  0  0  0  0  0  0  0  0  0  0
   13.1660    3.5970   22.6860 C   0  0  1  0  0  0  0  0  0  0  0  0
    4.7610    1.6020   19.4350 N   0  0  0  0  0  0  0  0  0  0  0  0
    5.1370    1.4040   18.1470 C   0  0  0  0  0  0  0  0  0  0  0  0
    6.1560    0.6500   17.6940 N   0  0  0  0  0  0  0  0  0  0  0  0
    6.8780    0.0370   18.6420 C   0  0  0  0  0  0  0  0  0  0  0  0
    6.6750    0.1080   19.9990 C   0  0  0  0  0  0  0  0  0  0  0  0
    5.6010    0.8950   20.4080 C   0  0  0  0  0  0  0  0  0  0  0  0
  1  4  1  0
  2  4  1  0
  3  4  2  0
  1  5  1  0
  5  7  1  0
  6  7  2  0
 10 11  2  0
 10 12  1  0
 10 13  1  0
  7 14  1  0
 13 15  1  0
 14 15  2  0
 15 16  1  0
 16 17  2  0
 14 18  1  0
 17 18  1  0
 16 19  1  0
 19 20  2  0
  8 21  1  0
 20 21  1  0
 17 22  1  0
 21 22  2  0
 24  9  1  1
 23 24  1  0
 24 25  1  0
 26  8  1  1
 23 26  1  0
 25 26  1  0
 27 28  2  0
 28 29  1  0
 29 30  2  0
 12 31  1  0
 30 31  1  0
 27 32  1  0
 31 32  2  0
M  END
