x2562-x1478
     RDKit          3D

 34 37  0  0  0  0  0  0  0  0999 V2000
    8.4310    0.4920   21.5430 C   0  0  0  0  0  0  0  0  0  0  0  0
    8.6300    1.6670   21.1630 O   0  0  0  0  0  0  0  0  0  0  0  0
    7.2580   -0.2990   21.1190 C   0  0  2  0  0  0  0  0  0  0  0  0
   12.9080    2.7260   23.1390 O   0  0  0  0  0  0  0  0  0  0  0  0
    9.2500   -0.2300   22.3790 N   0  0  0  0  0  0  0  0  0  0  0  0
   12.9660    6.7030   22.2320 O   0  0  0  0  0  0  0  0  0  0  0  0
    6.5580   -2.6210   21.2820 N   0  0  0  0  0  0  0  0  0  0  0  0
    7.7690   -4.3950   20.3340 C   0  0  0  0  0  0  0  0  0  0  0  0
    5.6310   -3.6460   19.4820 O   0  0  0  0  0  0  0  0  0  0  0  0
    6.1540   -5.7880   22.2740 Cl  0  0  0  0  0  0  0  0  0  0  0  0
    6.5480   -3.5420   20.3020 C   0  0  0  0  0  0  0  0  0  0  0  0
    7.6020   -1.7350   21.3180 C   0  0  0  0  0  0  0  0  0  0  0  0
    4.6470    1.7110   19.1820 N   0  0  0  0  0  0  0  0  0  0  0  0
    5.1010    1.3420   17.9670 C   0  0  0  0  0  0  0  0  0  0  0  0
    6.1230    0.5120   17.7220 N   0  0  0  0  0  0  0  0  0  0  0  0
    6.9400   -0.1350   18.7710 C   0  0  0  0  0  0  0  0  0  0  0  0
    6.5750    0.1840   19.8770 C   0  0  0  0  0  0  0  0  0  0  0  0
    5.3960    1.1250   20.1360 C   0  0  0  0  0  0  0  0  0  0  0  0
   12.3440    4.6150   21.7020 N   0  0  0  0  0  0  0  0  0  0  0  0
   13.3640    5.5610   22.1750 C   0  0  2  0  0  0  0  0  0  0  0  0
   13.1610    4.9660   23.3740 C   0  0  0  0  0  0  0  0  0  0  0  0
   12.3240    3.9420   23.0240 C   0  0  2  0  0  0  0  0  0  0  0  0
   11.5410   -1.0990   22.4050 C   0  0  0  0  0  0  0  0  0  0  0  0
   12.8900   -0.8630   22.5370 C   0  0  0  0  0  0  0  0  0  0  0  0
   13.2860    0.4470   22.7790 C   0  0  0  0  0  0  0  0  0  0  0  0
   12.4020    1.4970   22.8980 C   0  0  0  0  0  0  0  0  0  0  0  0
   11.0700    1.2380   22.7650 C   0  0  0  0  0  0  0  0  0  0  0  0
   10.6300   -0.0440   22.5170 C   0  0  0  0  0  0  0  0  0  0  0  0
    4.9140   -4.6140   24.1260 N   0  0  0  0  0  0  0  0  0  0  0  0
    5.6040   -4.3310   23.0020 C   0  0  0  0  0  0  0  0  0  0  0  0
    5.8080   -3.0070   22.5450 C   0  0  0  0  0  0  0  0  0  0  0  0
    5.2790   -1.7900   23.2830 C   0  0  0  0  0  0  0  0  0  0  0  0
    4.5030   -2.1140   24.5520 C   0  0  0  0  0  0  0  0  0  0  0  0
    4.3930   -3.6130   24.8640 C   0  0  0  0  0  0  0  0  0  0  0  0
  1  2  2  0
  1  3  1  0
  1  5  1  0
  7 11  1  0
  8 11  1  0
  9 11  2  0
  3 12  1  6
  7 12  1  0
 13 14  2  0
 14 15  1  0
 15 16  2  0
  3 17  1  0
 16 17  1  0
 13 18  1  0
 17 18  2  0
 20  6  1  1
 19 20  1  0
 20 21  1  0
 22  4  1  6
 19 22  1  0
 21 22  1  0
 23 24  2  0
 24 25  1  0
  4 26  1  0
 25 26  2  0
 26 27  1  0
  5 28  1  0
 23 28  1  0
 27 28  2  0
 10 30  1  0
 29 30  2  0
  7 31  1  0
 30 31  1  0
 31 32  2  0
 32 33  1  0
 29 34  1  0
 33 34  2  0
M  END
