x2563-x0731
     RDKit          3D

 41 45  0  0  0  0  0  0  0  0999 V2000
    0.9560   -1.1280   25.9120 C   0  0  0  0  0  0  0  0  0  0  0  0
    6.5370   -4.8870   26.9480 O   0  0  0  0  0  0  0  0  0  0  0  0
    4.8070   -6.5720   26.3000 O   0  0  0  0  0  0  0  0  0  0  0  0
    5.5500   -5.2060   20.0050 O   0  0  0  0  0  0  0  0  0  0  0  0
    6.2970   -4.3460   20.4500 C   0  0  0  0  0  0  0  0  0  0  0  0
    7.0370   -3.4230   19.4990 C   0  0  0  0  0  0  0  0  0  0  0  0
    5.4750   -5.3100   26.0760 S   0  0  0  0  0  0  0  0  0  0  0  0
    8.1080   -0.3800   21.2240 C   0  0  0  0  0  0  0  0  0  0  0  0
    8.2120    0.8480   21.1260 O   0  0  0  0  0  0  0  0  0  0  0  0
    7.1370   -1.0680   20.5450 C   0  0  1  0  0  0  0  0  0  0  0  0
    8.9720   -1.2230   21.9930 N   0  0  0  0  0  0  0  0  0  0  0  0
    6.5180   -2.7440   22.3330 C   0  0  0  0  0  0  0  0  0  0  0  0
    6.0790   -1.8670   21.3570 C   0  0  0  0  0  0  0  0  0  0  0  0
    2.0750   -2.1300   25.9380 C   0  0  0  0  0  0  0  0  0  0  0  0
    1.9420   -3.4110   25.4480 C   0  0  0  0  0  0  0  0  0  0  0  0
    2.9470   -4.3840   25.4640 C   0  0  0  0  0  0  0  0  0  0  0  0
    4.2070   -4.0750   26.0130 C   0  0  0  0  0  0  0  0  0  0  0  0
    4.4630   -2.7980   26.5300 C   0  0  0  0  0  0  0  0  0  0  0  0
    3.3070   -1.7930   26.4730 C   0  0  0  0  0  0  0  0  0  0  0  0
    6.3990   -4.2350   21.9670 C   0  0  0  0  0  0  0  0  0  0  0  0
    7.5460   -4.9370   22.6290 C   0  0  0  0  0  0  0  0  0  0  0  0
    7.4420   -4.9240   24.1560 C   0  0  0  0  0  0  0  0  0  0  0  0
    6.1330   -5.4790   24.5190 N   0  0  0  0  0  0  0  0  0  0  0  0
    5.2750   -5.9490   23.4400 C   0  0  0  0  0  0  0  0  0  0  0  0
    5.0780   -4.9340   22.3480 C   0  0  0  0  0  0  0  0  0  0  0  0
    6.1760    0.7730   17.4520 N   0  0  0  0  0  0  0  0  0  0  0  0
    5.0920    1.5450   17.9730 C   0  0  0  0  0  0  0  0  0  0  0  0
    4.6430    1.5140   19.2840 C   0  0  0  0  0  0  0  0  0  0  0  0
    5.3270    0.6450   20.1650 C   0  0  0  0  0  0  0  0  0  0  0  0
    6.3900   -0.1230   19.6690 C   0  0  0  0  0  0  0  0  0  0  0  0
    6.8420   -0.1050   18.3950 C   0  0  0  0  0  0  0  0  0  0  0  0
    3.5720    2.3020   19.7050 C   0  0  0  0  0  0  0  0  0  0  0  0
    3.1630    2.2440   21.0230 C   0  0  0  0  0  0  0  0  0  0  0  0
    3.8200    1.4040   21.9190 C   0  0  0  0  0  0  0  0  0  0  0  0
    4.8850    0.6100   21.5040 C   0  0  0  0  0  0  0  0  0  0  0  0
   11.3250   -0.7350   22.4350 C   0  0  0  0  0  0  0  0  0  0  0  0
   12.2500   -0.0870   23.1990 C   0  0  0  0  0  0  0  0  0  0  0  0
   11.8130    0.6550   24.2520 C   0  0  0  0  0  0  0  0  0  0  0  0
   10.4500    0.7400   24.5400 C   0  0  0  0  0  0  0  0  0  0  0  0
    9.5150    0.1000   23.7830 C   0  0  0  0  0  0  0  0  0  0  0  0
    9.9720   -0.6370   22.7190 C   0  0  0  0  0  0  0  0  0  0  0  0
  4  5  2  0
  5  6  1  0
  2  7  2  0
  3  7  2  0
  8  9  2  0
  8 10  1  0
  8 11  1  0
 10 13  1  1
 12 13  1  0
  1 14  1  0
 14 15  2  0
 15 16  1  0
  7 17  1  0
 16 17  2  0
 17 18  1  0
 14 19  1  0
 18 19  2  0
 20  5  1  0
 12 20  1  0
 20 21  1  0
 21 22  1  0
  7 23  1  0
 22 23  1  0
 23 24  1  0
 20 25  1  0
 24 25  1  0
 26 27  2  0
 27 28  1  0
 28 29  2  0
 10 30  1  0
 29 30  1  0
 26 31  1  0
 30 31  2  0
 28 32  1  0
 32 33  2  0
 33 34  1  0
 29 35  1  0
 34 35  2  0
 36 37  2  0
 37 38  1  0
 38 39  2  0
 39 40  1  0
 11 41  1  0
 36 41  1  0
 40 41  2  0
M  END
