x2562-x1374
     RDKit          3D

 42 46  0  0  0  0  0  0  0  0999 V2000
   10.2940   -3.9220   26.0620 C   0  0  0  0  0  0  0  0  0  0  0  0
    6.1660   -3.6370   21.6960 N   0  0  0  0  0  0  0  0  0  0  0  0
    6.1670   -4.0530   20.3430 C   0  0  0  0  0  0  0  0  0  0  0  0
    5.3980   -4.9240   19.9770 O   0  0  0  0  0  0  0  0  0  0  0  0
    7.1780   -3.3250   19.3460 C   0  0  0  0  0  0  0  0  0  0  0  0
    2.9290   -7.1690   22.8090 O   0  0  0  0  0  0  0  0  0  0  0  0
    4.5190   -7.4590   24.6440 O   0  0  0  0  0  0  0  0  0  0  0  0
    8.2830    0.2140   21.5630 C   0  0  0  0  0  0  0  0  0  0  0  0
    8.3880    1.3720   21.1000 O   0  0  0  0  0  0  0  0  0  0  0  0
    7.0800   -0.4760   21.5140 C   0  0  2  0  0  0  0  0  0  0  0  0
   12.1410    3.0220   23.2360 O   0  0  0  0  0  0  0  0  0  0  0  0
    9.2970   -0.5140   22.1300 N   0  0  0  0  0  0  0  0  0  0  0  0
   13.4200    6.7680   22.1390 O   0  0  0  0  0  0  0  0  0  0  0  0
    7.3640   -3.0700   22.0220 C   0  0  1  0  0  0  0  0  0  0  0  0
    7.8730   -1.7840   21.7870 C   0  0  0  0  0  0  0  0  0  0  0  0
    9.4620   -4.3710   24.9490 C   0  0  0  0  0  0  0  0  0  0  0  0
    8.8560   -3.4350   24.1060 C   0  0  0  0  0  0  0  0  0  0  0  0
    8.0810   -3.9030   23.0500 C   0  0  0  0  0  0  0  0  0  0  0  0
    7.9390   -5.2390   22.8720 C   0  0  0  0  0  0  0  0  0  0  0  0
    8.5130   -6.1570   23.6740 C   0  0  0  0  0  0  0  0  0  0  0  0
    9.2870   -5.7330   24.7370 C   0  0  0  0  0  0  0  0  0  0  0  0
    4.4600   -4.0540   23.6230 C   0  0  0  0  0  0  0  0  0  0  0  0
    5.6060   -4.5430   22.7340 C   0  0  1  0  0  0  0  0  0  0  0  0
    5.2240   -6.0590   22.4900 C   0  0  0  0  0  0  0  0  0  0  0  0
    3.9740   -6.5980   23.6080 S   0  0  0  0  0  0  0  0  0  0  0  0
    3.5550   -5.0360   24.1460 C   0  0  0  0  0  0  0  0  0  0  0  0
    4.5250    1.3080   19.2970 N   0  0  0  0  0  0  0  0  0  0  0  0
    5.1520    1.0130   18.0280 C   0  0  0  0  0  0  0  0  0  0  0  0
    6.2680    0.2940   17.8770 N   0  0  0  0  0  0  0  0  0  0  0  0
    6.9050   -0.2140   18.9580 C   0  0  0  0  0  0  0  0  0  0  0  0
    6.4070    0.0120   20.2530 C   0  0  0  0  0  0  0  0  0  0  0  0
    5.2400    0.7510   20.4180 C   0  0  0  0  0  0  0  0  0  0  0  0
   12.5080    4.6630   21.6520 N   0  0  0  0  0  0  0  0  0  0  0  0
   12.7250    5.6470   22.5990 C   0  0  1  0  0  0  0  0  0  0  0  0
   13.4340    4.9360   23.4690 C   0  0  0  0  0  0  0  0  0  0  0  0
   13.0930    3.9190   22.6440 C   0  0  1  0  0  0  0  0  0  0  0  0
   11.6920   -0.9780   22.3560 C   0  0  0  0  0  0  0  0  0  0  0  0
   13.0150   -0.5770   22.6030 C   0  0  0  0  0  0  0  0  0  0  0  0
   13.1210    0.7560   22.8840 C   0  0  0  0  0  0  0  0  0  0  0  0
   12.0840    1.6770   22.9520 C   0  0  0  0  0  0  0  0  0  0  0  0
   10.6860    1.2120   22.6870 C   0  0  0  0  0  0  0  0  0  0  0  0
   10.5900   -0.1060   22.3940 C   0  0  0  0  0  0  0  0  0  0  0  0
  2  3  1  0
  3  4  2  0
  3  5  1  0
  8  9  2  0
  8 10  1  0
  8 12  1  0
  2 14  1  0
 10 15  1  6
 14 15  1  1
  1 16  1  0
 16 17  2  0
 14 18  1  0
 17 18  1  0
 18 19  2  0
 19 20  1  0
 16 21  1  0
 20 21  2  0
 23  2  1  6
 22 23  1  0
 23 24  1  0
 25  6  1  0
  7 25  1  0
 24 25  1  0
 22 26  2  0
 25 26  1  0
 27 28  2  0
 28 29  1  0
 29 30  2  0
 10 31  1  0
 30 31  1  0
 27 32  1  0
 31 32  2  0
 34 13  1  6
 33 34  1  0
 34 35  1  0
 36 11  1  1
 33 36  1  0
 35 36  1  0
 37 38  2  0
 38 39  1  0
 11 40  1  0
 39 40  2  0
 40 41  1  0
 12 42  1  0
 37 42  1  0
 41 42  2  0
M  END
