x2562-x1311
     RDKit          3D

 42 46  0  0  0  0  0  0  0  0999 V2000
    8.3930    0.2900   21.3660 C   0  0  0  0  0  0  0  0  0  0  0  0
    8.6430    1.4880   21.1020 O   0  0  0  0  0  0  0  0  0  0  0  0
    7.0880   -0.3170   21.0430 C   0  0  2  0  0  0  0  0  0  0  0  0
   12.1580    3.0270   23.2950 O   0  0  0  0  0  0  0  0  0  0  0  0
    9.2650   -0.6040   21.9780 N   0  0  0  0  0  0  0  0  0  0  0  0
   13.4550    6.8620   22.2530 O   0  0  0  0  0  0  0  0  0  0  0  0
    5.8110   -4.7910   20.0360 O   0  0  0  0  0  0  0  0  0  0  0  0
    6.6520   -4.6040   20.9570 C   0  0  0  0  0  0  0  0  0  0  0  0
    8.1600   -4.4620   20.6860 C   0  0  0  0  0  0  0  0  0  0  0  0
    6.1920   -4.4610   22.4450 C   0  0  2  0  0  0  0  0  0  0  0  0
    4.1810   -7.6760   25.3630 O   0  0  0  0  0  0  0  0  0  0  0  0
    2.3990   -5.9450   24.9940 O   0  0  0  0  0  0  0  0  0  0  0  0
    7.2160   -1.7600   20.7260 C   0  0  0  0  0  0  0  0  0  0  0  0
    6.2800   -2.4110   21.5860 C   0  0  0  0  0  0  0  0  0  0  0  0
    5.8010   -2.9780   22.4770 C   0  0  0  0  0  0  0  0  0  0  0  0
    4.5670    1.8730   19.1670 N   0  0  0  0  0  0  0  0  0  0  0  0
    5.0720    1.5900   17.9090 C   0  0  0  0  0  0  0  0  0  0  0  0
    6.1290    0.7620   17.5420 N   0  0  0  0  0  0  0  0  0  0  0  0
    6.7800    0.1350   18.6600 C   0  0  0  0  0  0  0  0  0  0  0  0
    6.3580    0.3620   19.9590 C   0  0  0  0  0  0  0  0  0  0  0  0
    5.2870    1.1940   20.2330 C   0  0  0  0  0  0  0  0  0  0  0  0
   12.5370    4.8030   21.7220 N   0  0  0  0  0  0  0  0  0  0  0  0
   12.6800    5.7660   22.6620 C   0  0  1  0  0  0  0  0  0  0  0  0
   13.3580    4.9610   23.4360 C   0  0  0  0  0  0  0  0  0  0  0  0
   13.0980    3.8210   22.7390 C   0  0  1  0  0  0  0  0  0  0  0  0
   11.6490   -1.1180   22.2710 C   0  0  0  0  0  0  0  0  0  0  0  0
   12.9130   -0.6190   22.5800 C   0  0  0  0  0  0  0  0  0  0  0  0
   13.1040    0.7170   22.9080 C   0  0  0  0  0  0  0  0  0  0  0  0
   12.0900    1.6540   22.9710 C   0  0  0  0  0  0  0  0  0  0  0  0
   10.8500    1.2130   22.6800 C   0  0  0  0  0  0  0  0  0  0  0  0
   10.5740   -0.2160   22.3020 C   0  0  0  0  0  0  0  0  0  0  0  0
    8.1950   -5.8560   22.9840 C   0  0  0  0  0  0  0  0  0  0  0  0
    9.3650   -6.1980   23.8720 C   0  0  0  0  0  0  0  0  0  0  0  0
    9.5570   -5.3590   25.0900 C   0  0  0  0  0  0  0  0  0  0  0  0
    8.6060   -4.2130   25.4000 C   0  0  0  0  0  0  0  0  0  0  0  0
    7.5640   -3.9950   24.5030 C   0  0  0  0  0  0  0  0  0  0  0  0
    7.3800   -4.7800   23.3670 C   0  0  0  0  0  0  0  0  0  0  0  0
    4.4060   -6.2040   22.3130 C   0  0  0  0  0  0  0  0  0  0  0  0
    4.9270   -5.1820   23.0080 C   0  0  1  0  0  0  0  0  0  0  0  0
    4.7540   -5.5130   24.3150 C   0  0  0  0  0  0  0  0  0  0  0  0
    3.6150   -6.6030   24.5940 S   0  0  0  0  0  0  0  0  0  0  0  0
    3.5710   -7.0430   22.9960 C   0  0  0  0  0  0  0  0  0  0  0  0
  1  2  2  0
  1  3  1  0
  1  5  1  0
  7  8  2  0
  8  9  1  0
 10  8  1  0
  3 13  1  6
 13 14  1  0
 10 15  1  6
 14 15  1  0
 16 17  2  0
 17 18  1  0
 18 19  2  0
  3 20  1  0
 19 20  1  0
 16 21  1  0
 20 21  2  0
 23  6  1  6
 22 23  1  0
 23 24  1  0
 25  4  1  1
 22 25  1  0
 24 25  1  0
 26 27  2  0
 27 28  1  0
  4 29  1  0
 28 29  2  0
 29 30  1  0
  5 31  1  0
 26 31  1  0
 30 31  2  0
 32 33  2  0
 33 34  1  0
 34 35  2  0
 35 36  1  0
 10 37  1  0
 32 37  1  0
 36 37  2  0
 10 39  1  0
 39 38  1  6
 39 40  1  0
 41 11  1  0
 12 41  1  0
 40 41  1  0
 38 42  2  0
 41 42  1  0
M  END
