x2562-x3298
     RDKit          3D

 36 39  0  0  0  0  0  0  0  0999 V2000
    6.3060    1.0880   22.2770 N   0  0  0  0  0  0  0  0  0  0  0  0
    5.8320   -0.8900   21.1240 C   0  0  2  0  0  0  0  0  0  0  0  0
    4.8750   -1.2070   21.8330 O   0  0  0  0  0  0  0  0  0  0  0  0
    6.9150    0.0020   21.6430 C   0  0  1  0  0  0  0  0  0  0  0  0
    8.7740    0.7570   23.1390 N   0  0  0  0  0  0  0  0  0  0  0  0
    7.7250    0.2650   20.7680 O   0  0  0  0  0  0  0  0  0  0  0  0
    9.8670    1.7550   25.2000 O   0  0  0  0  0  0  0  0  0  0  0  0
    9.0260   -0.7630   25.2180 O   0  0  0  0  0  0  0  0  0  0  0  0
   13.6900   -1.8370   21.0210 F   0  0  0  0  0  0  0  0  0  0  0  0
    9.6230    0.3550   24.5210 S   0  0  0  0  0  0  0  0  0  0  0  0
    7.4590   -0.9260   22.5340 N   0  0  0  0  0  0  0  0  0  0  0  0
    6.2150    0.4430   17.8180 N   0  0  0  0  0  0  0  0  0  0  0  0
    6.2930   -0.2350   18.9550 C   0  0  0  0  0  0  0  0  0  0  0  0
    5.3980    0.0800   20.1540 C   0  0  0  0  0  0  0  0  0  0  0  0
    4.2990    1.1360   20.3500 C   0  0  0  0  0  0  0  0  0  0  0  0
    4.3510    1.7730   19.0240 C   0  0  0  0  0  0  0  0  0  0  0  0
    5.2040    1.4720   17.8800 C   0  0  0  0  0  0  0  0  0  0  0  0
    6.6160    3.7610   22.2730 C   0  0  0  0  0  0  0  0  0  0  0  0
    7.6560    4.8670   22.5460 C   0  0  0  0  0  0  0  0  0  0  0  0
    8.9280    4.4840   22.9500 C   0  0  0  0  0  0  0  0  0  0  0  0
    9.2960    3.1650   23.1290 C   0  0  0  0  0  0  0  0  0  0  0  0
    8.3830    2.1440   22.9170 C   0  0  0  0  0  0  0  0  0  0  0  0
    7.0780    2.3080   22.4890 C   0  0  0  0  0  0  0  0  0  0  0  0
   12.2210    0.3780   23.5070 C   0  0  0  0  0  0  0  0  0  0  0  0
   13.1600   -0.1810   22.6410 C   0  0  0  0  0  0  0  0  0  0  0  0
   12.8340   -1.3060   21.8630 C   0  0  0  0  0  0  0  0  0  0  0  0
   11.5920   -1.8780   21.9490 C   0  0  0  0  0  0  0  0  0  0  0  0
   10.6820   -1.3290   22.7890 C   0  0  0  0  0  0  0  0  0  0  0  0
   10.9600   -0.2180   23.5600 C   0  0  0  0  0  0  0  0  0  0  0  0
   11.6000    3.3360   22.6460 O   0  0  0  0  0  0  0  0  0  0  0  0
   13.4610    5.9450   20.6780 O   0  0  0  0  0  0  0  0  0  0  0  0
   11.7880    5.7770   22.3450 N   0  0  0  0  0  0  0  0  0  0  0  0
   13.2230    5.9670   22.0680 C   0  0  1  0  0  0  0  0  0  0  0  0
   13.5900    4.7790   22.8230 C   0  0  0  0  0  0  0  0  0  0  0  0
   12.1470    4.5300   23.1710 C   0  0  2  0  0  0  0  0  0  0  0  0
   10.7080    2.7280   23.5410 C   0  0  0  0  0  0  0  0  0  0  0  0
  2  3  1  1
  1  4  1  0
  2  4  1  0
  4  6  1  0
 10  5  1  0
  7 10  2  0
  8 10  2  0
  4 11  1  1
 12 13  2  0
  2 14  1  0
 13 14  1  0
 14 15  2  0
 15 16  1  0
 12 17  1  0
 16 17  2  0
 18 19  2  0
 19 20  1  0
 20 21  2  0
  5 22  1  0
 21 22  1  0
  1 23  1  0
 18 23  1  0
 22 23  2  0
 24 25  2  0
  9 26  1  0
 25 26  1  0
 26 27  2  0
 27 28  1  0
 10 29  1  0
 24 29  1  0
 28 29  2  0
 33 31  1  6
 32 33  1  0
 33 34  1  0
 35 30  1  6
 32 35  1  0
 34 35  1  0
 21 36  1  0
 30 36  1  0
M  END
