x2569-x1375
     RDKit          3D

 39 42  0  0  0  0  0  0  0  0999 V2000
    5.7270   -4.6950   20.0070 O   0  0  0  0  0  0  0  0  0  0  0  0
    6.5380   -4.3750   20.9160 C   0  0  0  0  0  0  0  0  0  0  0  0
    8.0070   -3.9360   20.6750 C   0  0  0  0  0  0  0  0  0  0  0  0
    6.1840   -4.3450   22.2880 N   0  0  0  0  0  0  0  0  0  0  0  0
    2.5130   -6.8590   23.6750 O   0  0  0  0  0  0  0  0  0  0  0  0
    4.4450   -7.7790   24.9500 O   0  0  0  0  0  0  0  0  0  0  0  0
   10.4150   -4.7440   26.1860 F   0  0  0  0  0  0  0  0  0  0  0  0
    8.2540    0.4820   21.7580 C   0  0  0  0  0  0  0  0  0  0  0  0
    9.0550    1.3170   21.2990 O   0  0  0  0  0  0  0  0  0  0  0  0
    8.6240   -0.4700   22.7070 C   0  0  1  0  0  0  0  0  0  0  0  0
   13.9790   -1.6460   20.4550 N   0  0  0  0  0  0  0  0  0  0  0  0
    6.9360    0.3650   21.4100 N   0  0  0  0  0  0  0  0  0  0  0  0
   13.1960   -1.3350   21.5970 C   0  0  0  0  0  0  0  0  0  0  0  0
    6.5410   -3.1130   22.8840 C   0  0  2  0  0  0  0  0  0  0  0  0
    6.8670   -2.0410   22.0770 C   0  0  0  0  0  0  0  0  0  0  0  0
    8.2550   -1.8150   22.0900 C   0  0  0  0  0  0  0  0  0  0  0  0
    7.6330   -3.2060   23.9820 C   0  0  0  0  0  0  0  0  0  0  0  0
    8.6510   -3.5240   24.9020 C   0  0  0  0  0  0  0  0  0  0  0  0
    9.4830   -4.7440   25.2250 C   0  0  0  0  0  0  0  0  0  0  0  0
    9.2040   -5.8110   24.4710 C   0  0  0  0  0  0  0  0  0  0  0  0
    8.2550   -5.7010   23.5330 C   0  0  0  0  0  0  0  0  0  0  0  0
    7.5820   -4.5010   23.3590 C   0  0  0  0  0  0  0  0  0  0  0  0
    4.6620   -4.4040   24.1360 C   0  0  0  0  0  0  0  0  0  0  0  0
    5.0160   -4.8790   22.8580 C   0  0  2  0  0  0  0  0  0  0  0  0
    4.9590   -6.4050   22.7810 C   0  0  0  0  0  0  0  0  0  0  0  0
    3.8760   -6.7380   24.1470 S   0  0  0  0  0  0  0  0  0  0  0  0
    4.0390   -5.2730   24.9560 C   0  0  0  0  0  0  0  0  0  0  0  0
   11.7350    0.1630   24.6470 N   0  0  0  0  0  0  0  0  0  0  0  0
   12.6150   -0.3080   23.7760 C   0  0  0  0  0  0  0  0  0  0  0  0
   12.2930   -0.8390   22.5680 C   0  0  0  0  0  0  0  0  0  0  0  0
   10.9730   -0.9140   22.1850 C   0  0  0  0  0  0  0  0  0  0  0  0
   10.0310   -0.4250   23.0640 C   0  0  0  0  0  0  0  0  0  0  0  0
   10.4380    0.1030   24.2800 C   0  0  0  0  0  0  0  0  0  0  0  0
    6.3400    0.4680   17.8110 N   0  0  0  0  0  0  0  0  0  0  0  0
    6.8940    0.1720   18.9800 C   0  0  0  0  0  0  0  0  0  0  0  0
    6.3960    0.6210   20.1820 C   0  0  0  0  0  0  0  0  0  0  0  0
    5.2450    1.4080   20.1780 C   0  0  0  0  0  0  0  0  0  0  0  0
    4.6560    1.7180   18.9710 C   0  0  0  0  0  0  0  0  0  0  0  0
    5.2370    1.2330   17.8270 C   0  0  0  0  0  0  0  0  0  0  0  0
  1  2  2  0
  2  3  1  0
  2  4  1  0
  8  9  2  0
  8 10  1  0
  8 12  1  0
 11 13  3  0
  4 14  1  0
 14 15  1  6
 10 16  1  6
 15 16  1  0
 14 17  1  0
 17 18  2  0
  7 19  1  0
 18 19  1  0
 19 20  2  0
 20 21  1  0
 17 22  1  0
 21 22  2  0
 24  4  1  1
 23 24  1  0
 24 25  1  0
 26  5  1  0
  6 26  1  0
 25 26  1  0
 23 27  2  0
 26 27  1  0
 28 29  2  0
 13 30  1  0
 29 30  1  0
 30 31  2  0
 10 32  1  0
 31 32  1  0
 28 33  1  0
 32 33  2  0
 34 35  2  0
 12 36  1  0
 35 36  1  0
 36 37  2  0
 37 38  1  0
 34 39  1  0
 38 39  2  0
M  END
