x2569-x0691
     RDKit          3D

 40 43  0  0  0  0  0  0  0  0999 V2000
    4.1210   -6.9210   26.0010 O   0  0  0  0  0  0  0  0  0  0  0  0
    5.6960   -5.2200   26.9520 O   0  0  0  0  0  0  0  0  0  0  0  0
    5.7670   -4.2760   19.8260 O   0  0  0  0  0  0  0  0  0  0  0  0
    6.6610   -4.1740   20.6840 C   0  0  0  0  0  0  0  0  0  0  0  0
    8.0730   -3.6350   20.3840 C   0  0  0  0  0  0  0  0  0  0  0  0
    3.2650   -0.6260   25.9310 F   0  0  0  0  0  0  0  0  0  0  0  0
    4.7830   -5.6400   25.9160 S   0  0  0  0  0  0  0  0  0  0  0  0
    8.2210    0.1560   21.6380 C   0  0  0  0  0  0  0  0  0  0  0  0
    8.9590    1.1100   21.3080 O   0  0  0  0  0  0  0  0  0  0  0  0
    8.7040   -0.9450   22.3540 C   0  0  2  0  0  0  0  0  0  0  0  0
   13.9520   -1.6870   20.5170 N   0  0  0  0  0  0  0  0  0  0  0  0
    6.8140    0.0210   21.3360 N   0  0  0  0  0  0  0  0  0  0  0  0
   13.2740   -1.3440   21.6010 C   0  0  0  0  0  0  0  0  0  0  0  0
    5.9620   -3.3630   22.8010 C   0  0  0  0  0  0  0  0  0  0  0  0
    6.5860   -2.1570   22.4140 C   0  0  0  0  0  0  0  0  0  0  0  0
    7.6530   -1.6720   23.2090 C   0  0  0  0  0  0  0  0  0  0  0  0
    2.9570   -1.9270   25.8520 C   0  0  0  0  0  0  0  0  0  0  0  0
    3.9000   -2.9170   25.9070 C   0  0  0  0  0  0  0  0  0  0  0  0
    3.5140   -4.3870   25.8170 C   0  0  0  0  0  0  0  0  0  0  0  0
    2.1430   -4.6410   25.6700 C   0  0  0  0  0  0  0  0  0  0  0  0
    1.2110   -3.6050   25.6170 C   0  0  0  0  0  0  0  0  0  0  0  0
    1.6160   -2.2770   25.7090 C   0  0  0  0  0  0  0  0  0  0  0  0
    6.3120   -4.5690   22.1310 C   0  0  0  0  0  0  0  0  0  0  0  0
    5.2470   -5.4700   22.0510 C   0  0  0  0  0  0  0  0  0  0  0  0
    5.0070   -6.3010   23.2880 C   0  0  0  0  0  0  0  0  0  0  0  0
    5.5680   -5.5620   24.4300 N   0  0  0  0  0  0  0  0  0  0  0  0
    7.0280   -5.2220   24.2900 C   0  0  0  0  0  0  0  0  0  0  0  0
    7.3980   -5.2540   22.9480 C   0  0  0  0  0  0  0  0  0  0  0  0
   11.6510    0.1550   24.5010 N   0  0  0  0  0  0  0  0  0  0  0  0
   12.6440   -0.2610   23.7090 C   0  0  0  0  0  0  0  0  0  0  0  0
   12.3770   -0.8900   22.5060 C   0  0  0  0  0  0  0  0  0  0  0  0
   11.0830   -1.0880   22.1330 C   0  0  0  0  0  0  0  0  0  0  0  0
   10.0690   -0.6780   22.8960 C   0  0  0  0  0  0  0  0  0  0  0  0
   10.3900   -0.0580   24.0800 C   0  0  0  0  0  0  0  0  0  0  0  0
    6.3860    0.6240   17.7820 N   0  0  0  0  0  0  0  0  0  0  0  0
    6.8340    0.2180   18.9650 C   0  0  0  0  0  0  0  0  0  0  0  0
    6.2110    0.4950   20.1770 C   0  0  0  0  0  0  0  0  0  0  0  0
    5.0380    1.2250   20.1670 C   0  0  0  0  0  0  0  0  0  0  0  0
    4.5490    1.6560   18.9520 C   0  0  0  0  0  0  0  0  0  0  0  0
    5.2530    1.3380   17.7990 C   0  0  0  0  0  0  0  0  0  0  0  0
  3  4  2  0
  4  5  1  0
  1  7  2  0
  2  7  2  0
  8  9  2  0
  8 10  1  0
  8 12  1  0
 11 13  3  0
 14 15  1  0
 10 16  1  1
 15 16  1  0
  6 17  1  0
 17 18  2  0
  7 19  1  0
 18 19  1  0
 19 20  2  0
 20 21  1  0
 17 22  1  0
 21 22  2  0
 23  4  1  0
 14 23  1  0
 23 24  1  0
 24 25  1  0
  7 26  1  0
 25 26  1  0
 26 27  1  0
 23 28  1  0
 27 28  1  0
 29 30  2  0
 13 31  1  0
 30 31  1  0
 31 32  2  0
 10 33  1  0
 32 33  1  0
 29 34  1  0
 33 34  2  0
 35 36  2  0
 12 37  1  0
 36 37  1  0
 37 38  2  0
 38 39  1  0
 35 40  1  0
 39 40  2  0
M  END
