x2562-x0978
     RDKit          3D

 39 41  0  0  0  0  0  0  0  0999 V2000
    1.9000   -5.7150   23.5230 N   0  0  0  0  0  0  0  0  0  0  0  0
    2.2100   -8.0690   24.4450 C   0  0  0  0  0  0  0  0  0  0  0  0
    4.4860   -7.5340   24.5300 O   0  0  0  0  0  0  0  0  0  0  0  0
    3.2020   -6.9200   24.5500 C   0  0  1  0  0  0  0  0  0  0  0  0
    5.2900   -5.6670   22.2190 N   0  0  0  0  0  0  0  0  0  0  0  0
    0.9660   -7.4530   21.8230 O   0  0  0  0  0  0  0  0  0  0  0  0
    3.0610   -5.8340   23.4370 C   0  0  2  0  0  0  0  0  0  0  0  0
    4.8830   -4.7220   24.3260 O   0  0  0  0  0  0  0  0  0  0  0  0
    0.8960   -6.2780   22.6130 C   0  0  0  0  0  0  0  0  0  0  0  0
   -0.3070   -5.5920   22.5070 C   0  0  0  0  0  0  0  0  0  0  0  0
    4.4400   -5.3810   23.3930 C   0  0  0  0  0  0  0  0  0  0  0  0
    6.1980   -4.7620   21.7100 C   0  0  1  0  0  0  0  0  0  0  0  0
    6.3970   -4.9930   20.2450 C   0  0  0  0  0  0  0  0  0  0  0  0
    5.7030   -6.2260   19.7520 C   0  0  0  0  0  0  0  0  0  0  0  0
    8.3630   -0.1940   21.3340 C   0  0  0  0  0  0  0  0  0  0  0  0
    8.4920    1.0400   21.3750 O   0  0  0  0  0  0  0  0  0  0  0  0
    7.2060   -0.7810   20.8790 C   0  0  1  0  0  0  0  0  0  0  0  0
   11.9260    2.9510   23.3220 O   0  0  0  0  0  0  0  0  0  0  0  0
    9.4830   -1.0490   21.7620 N   0  0  0  0  0  0  0  0  0  0  0  0
   12.3800    6.5920   22.4860 O   0  0  0  0  0  0  0  0  0  0  0  0
    5.7930   -3.4540   21.9590 C   0  0  0  0  0  0  0  0  0  0  0  0
    6.8370   -2.6370   22.3400 C   0  0  0  0  0  0  0  0  0  0  0  0
    6.4630   -1.3380   22.0870 C   0  0  0  0  0  0  0  0  0  0  0  0
    4.6350    1.5140   19.4110 N   0  0  0  0  0  0  0  0  0  0  0  0
    5.0930    1.4220   18.1180 C   0  0  0  0  0  0  0  0  0  0  0  0
    6.1180    0.7120   17.6450 N   0  0  0  0  0  0  0  0  0  0  0  0
    6.8110   -0.0070   18.5240 C   0  0  0  0  0  0  0  0  0  0  0  0
    6.4870   -0.0410   19.9590 C   0  0  0  0  0  0  0  0  0  0  0  0
    5.2970    0.8030   20.3560 C   0  0  0  0  0  0  0  0  0  0  0  0
   12.5130    4.4810   21.6130 N   0  0  0  0  0  0  0  0  0  0  0  0
   13.2130    5.4680   22.2920 C   0  0  2  0  0  0  0  0  0  0  0  0
   13.4710    4.7710   23.3960 C   0  0  0  0  0  0  0  0  0  0  0  0
   12.9650    3.7440   22.6920 C   0  0  1  0  0  0  0  0  0  0  0  0
   11.8730   -1.0820   22.2630 C   0  0  0  0  0  0  0  0  0  0  0  0
   13.0650   -0.5590   22.6310 C   0  0  0  0  0  0  0  0  0  0  0  0
   12.9740    0.7980   22.9560 C   0  0  0  0  0  0  0  0  0  0  0  0
   11.8590    1.6110   22.9590 C   0  0  0  0  0  0  0  0  0  0  0  0
   10.6200    1.0820   22.5870 C   0  0  0  0  0  0  0  0  0  0  0  0
   10.5710   -0.2440   22.2190 C   0  0  0  0  0  0  0  0  0  0  0  0
  4  2  1  6
  3  4  1  0
  7  1  1  1
  4  7  1  0
  1  9  1  0
  6  9  2  0
  9 10  1  0
  5 11  1  0
  7 11  1  0
  8 11  2  0
  5 12  1  0
 12 13  1  6
 13 14  2  3
 15 16  2  0
 15 17  1  0
 15 19  1  0
 12 21  1  0
 21 22  1  0
 17 23  1  1
 22 23  1  0
 24 25  2  0
 25 26  1  0
 26 27  2  0
 17 28  1  0
 27 28  1  0
 24 29  1  0
 28 29  2  0
 31 20  1  1
 30 31  1  0
 31 32  1  0
 33 18  1  1
 30 33  1  0
 32 33  1  0
 34 35  2  0
 35 36  1  0
 18 37  1  0
 36 37  2  0
 37 38  1  0
 19 39  1  0
 34 39  1  0
 38 39  2  0
M  END
