x2563-x3117
     RDKit          3D

 40 45  0  0  0  0  0  0  0  0999 V2000
    6.8220   -1.6840   22.0840 N   0  0  0  0  0  0  0  0  0  0  0  0
    6.6370   -4.0430   20.0980 C   0  0  0  0  0  0  0  0  0  0  0  0
    5.0060   -3.4520   21.4380 O   0  0  0  0  0  0  0  0  0  0  0  0
    6.8840   -3.3940   21.4680 C   0  0  0  0  0  0  0  0  0  0  0  0
    7.6010    1.6440   22.8170 N   0  0  0  0  0  0  0  0  0  0  0  0
    8.3960    1.1060   20.7580 O   0  0  0  0  0  0  0  0  0  0  0  0
    5.7250   -2.4870   21.7870 C   0  0  0  0  0  0  0  0  0  0  0  0
    6.7950   -0.3200   21.5970 C   0  0  1  0  0  0  0  0  0  0  0  0
    7.8720    0.4820   21.9220 C   0  0  2  0  0  0  0  0  0  0  0  0
   12.3840   -2.3210   24.3100 C   0  0  0  0  0  0  0  0  0  0  0  0
   12.7800   -1.1870   24.9890 C   0  0  0  0  0  0  0  0  0  0  0  0
   13.4890   -2.6620   23.3220 C   0  0  0  0  0  0  0  0  0  0  0  0
   11.9850   -3.3850   25.3280 C   0  0  0  0  0  0  0  0  0  0  0  0
    4.6990    0.6280   18.5450 C   0  0  2  0  0  0  0  0  0  0  0  0
    5.2910    1.6410   18.0230 C   0  0  0  0  0  0  0  0  0  0  0  0
    5.8920    1.7420   19.1960 C   0  0  0  0  0  0  0  0  0  0  0  0
    5.5340    0.6010   20.1360 C   0  0  0  0  0  0  0  0  0  0  0  0
    6.3220   -0.6170   20.2110 C   0  0  0  0  0  0  0  0  0  0  0  0
    5.5800   -0.4940   18.8640 C   0  0  0  0  0  0  0  0  0  0  0  0
    9.7190    5.2360   23.0450 O   0  0  0  0  0  0  0  0  0  0  0  0
    9.9970    4.3940   24.1300 C   0  0  0  0  0  0  0  0  0  0  0  0
    9.1590    3.1230   24.1500 C   0  0  0  0  0  0  0  0  0  0  0  0
    8.4960    2.8570   22.7820 C   0  0  0  0  0  0  0  0  0  0  0  0
    7.7950    4.0170   22.4080 C   0  0  0  0  0  0  0  0  0  0  0  0
    8.3220    5.2940   22.8020 C   0  0  0  0  0  0  0  0  0  0  0  0
   10.0390   -0.7990   21.7750 C   0  0  0  0  0  0  0  0  0  0  0  0
   11.0980   -1.4600   22.3400 C   0  0  0  0  0  0  0  0  0  0  0  0
   11.1560   -1.7100   23.6820 C   0  0  0  0  0  0  0  0  0  0  0  0
   10.0570   -1.3310   24.4660 C   0  0  0  0  0  0  0  0  0  0  0  0
    8.9910   -0.6580   23.8820 C   0  0  0  0  0  0  0  0  0  0  0  0
    8.9810   -0.3460   22.5200 C   0  0  0  0  0  0  0  0  0  0  0  0
   11.7910    0.7670   22.9570 C   0  0  0  0  0  0  0  0  0  0  0  0
   12.1140   -0.0940   23.9880 C   0  0  0  0  0  0  0  0  0  0  0  0
   11.4320   -0.4700   25.1970 C   0  0  0  0  0  0  0  0  0  0  0  0
   10.2810    0.3470   25.0370 C   0  0  0  0  0  0  0  0  0  0  0  0
    9.8790    1.2090   24.0620 C   0  0  0  0  0  0  0  0  0  0  0  0
   10.6280    1.4450   22.9780 C   0  0  0  0  0  0  0  0  0  0  0  0
    3.5230    1.3160   19.4750 C   0  0  0  0  0  0  0  0  0  0  0  0
    3.3270    1.3210   20.9200 C   0  0  0  0  0  0  0  0  0  0  0  0
    4.4710    0.4090   20.8640 C   0  0  0  0  0  0  0  0  0  0  0  0
  2  4  1  0
  1  7  1  0
  3  7  2  0
  4  7  1  0
  8  1  1  6
  5  9  1  0
  9  6  1  6
  8  9  1  0
 10 11  1  0
 10 12  1  0
 10 13  1  0
 14 15  1  6
 14 16  1  0
 15 16  2  0
 16 17  1  0
  8 18  1  0
 17 18  1  0
 14 19  1  0
 18 19  2  0
 20 21  1  0
 21 22  1  0
  5 23  1  0
 22 23  1  0
 23 24  1  0
 20 25  1  0
 24 25  1  0
 26 27  2  0
 10 28  1  0
 27 28  1  0
 28 29  2  0
 29 30  1  0
  9 31  1  0
 26 31  1  0
 30 31  2  0
 32 33  2  0
 11 34  1  0
 33 34  1  0
 34 35  2  0
 35 36  1  0
 32 37  1  0
 36 37  2  0
 14 38  1  0
 38 39  2  0
 17 40  2  0
 39 40  1  0
M  END
