x2562-x0946
     RDKit          3D

 26 28  0  0  0  0  0  0  0  0999 V2000
    8.4320   -0.0970   21.5220 C   0  0  0  0  0  0  0  0  0  0  0  0
    8.5980    1.1050   21.2310 O   0  0  0  0  0  0  0  0  0  0  0  0
    7.1430   -0.7910   21.2280 C   0  0  0  0  0  0  0  0  0  0  0  0
   12.0530    2.9990   23.2650 O   0  0  0  0  0  0  0  0  0  0  0  0
    9.3830   -0.9060   22.1220 N   0  0  0  0  0  0  0  0  0  0  0  0
   13.6830    6.9500   22.6130 O   0  0  0  0  0  0  0  0  0  0  0  0
    8.7140    4.9760   23.3540 N   0  0  0  0  0  0  0  0  0  0  0  0
   10.0560    4.9960   25.5290 O   0  0  0  0  0  0  0  0  0  0  0  0
   10.8730    5.8390   23.1710 N   0  0  0  0  0  0  0  0  0  0  0  0
   10.2130    4.8400   24.0980 S   0  0  0  0  0  0  0  0  0  0  0  0
    4.6170    1.5410   19.2090 N   0  0  0  0  0  0  0  0  0  0  0  0
    5.0920    1.4030   17.9770 C   0  0  0  0  0  0  0  0  0  0  0  0
    6.1150    0.6470   17.6550 N   0  0  0  0  0  0  0  0  0  0  0  0
    6.7010    0.0010   18.6620 C   0  0  0  0  0  0  0  0  0  0  0  0
    6.4340   -0.0590   20.1590 C   0  0  0  0  0  0  0  0  0  0  0  0
    5.2670    0.8510   20.1640 C   0  0  0  0  0  0  0  0  0  0  0  0
   11.9960    5.3570   22.3010 N   0  0  0  0  0  0  0  0  0  0  0  0
   13.2920    5.6920   22.9270 C   0  0  1  0  0  0  0  0  0  0  0  0
   13.7220    4.7260   22.4180 C   0  0  0  0  0  0  0  0  0  0  0  0
   12.4630    3.9150   22.2190 C   0  0  1  0  0  0  0  0  0  0  0  0
   11.7950   -1.1290   22.3200 C   0  0  0  0  0  0  0  0  0  0  0  0
   13.0300   -0.5770   22.5580 C   0  0  0  0  0  0  0  0  0  0  0  0
   13.1460    0.7580   22.8610 C   0  0  0  0  0  0  0  0  0  0  0  0
   12.0370    1.5920   22.9450 C   0  0  0  0  0  0  0  0  0  0  0  0
   10.7720    1.0580   22.7070 C   0  0  0  0  0  0  0  0  0  0  0  0
   10.6460   -0.3160   22.3860 C   0  0  0  0  0  0  0  0  0  0  0  0
  1  2  2  0
  1  3  1  0
  1  5  1  0
  7 10  1  0
  8 10  2  0
  9 10  2  0
 11 12  2  0
 12 13  1  0
 13 14  2  0
  3 15  1  0
 14 15  1  0
 11 16  1  0
 15 16  2  0
  9 17  1  0
 18  6  1  6
 17 18  1  0
 18 19  1  0
 20  4  1  1
 17 20  1  0
 19 20  1  0
 21 22  2  0
 22 23  1  0
  4 24  1  0
 23 24  2  0
 24 25  1  0
  5 26  1  0
 21 26  1  0
 25 26  2  0
M  END
