x2562-x1385
     RDKit          3D

 39 43  0  0  0  0  0  0  0  0999 V2000
    7.9810   -0.3560   21.6400 C   0  0  1  0  0  0  0  0  0  0  0  0
    7.7310    0.5260   22.4740 O   0  0  0  0  0  0  0  0  0  0  0  0
   11.9520    2.7940   23.3200 O   0  0  0  0  0  0  0  0  0  0  0  0
    9.2870   -0.6630   21.3880 N   0  0  0  0  0  0  0  0  0  0  0  0
   12.9540    6.7000   22.5420 O   0  0  0  0  0  0  0  0  0  0  0  0
    7.4250   -2.9110   18.9050 C   0  0  0  0  0  0  0  0  0  0  0  0
    5.5380   -4.0370   19.7610 O   0  0  0  0  0  0  0  0  0  0  0  0
    6.4080   -3.1690   20.0100 C   0  0  0  0  0  0  0  0  0  0  0  0
    9.2170   -3.9110   23.6630 C   0  0  0  0  0  0  0  0  0  0  0  0
    7.0990   -5.6690   28.7050 Br  0  0  0  0  0  0  0  0  0  0  0  0
   12.3600    4.6560   21.6980 N   0  0  0  0  0  0  0  0  0  0  0  0
   13.3160    5.5570   22.2950 C   0  0  2  0  0  0  0  0  0  0  0  0
   13.5280    4.7420   23.4090 C   0  0  0  0  0  0  0  0  0  0  0  0
   12.9390    3.6580   22.7150 C   0  0  1  0  0  0  0  0  0  0  0  0
   11.6760   -1.1950   22.0990 C   0  0  0  0  0  0  0  0  0  0  0  0
   12.9520   -0.6260   22.6670 C   0  0  0  0  0  0  0  0  0  0  0  0
   13.0070    0.6870   23.0490 C   0  0  0  0  0  0  0  0  0  0  0  0
   11.9680    1.5890   22.9900 C   0  0  0  0  0  0  0  0  0  0  0  0
   10.7670    1.1180   22.4800 C   0  0  0  0  0  0  0  0  0  0  0  0
   10.5110   -0.2030   21.9950 C   0  0  0  0  0  0  0  0  0  0  0  0
    6.3990   -2.5050   21.3010 N   0  0  0  0  0  0  0  0  0  0  0  0
    5.9100   -3.2670   22.2510 C   0  0  0  0  0  0  0  0  0  0  0  0
    6.9730   -3.9930   22.8610 C   0  0  0  0  0  0  0  0  0  0  0  0
    8.1060   -3.1320   23.2930 N   0  0  0  0  0  0  0  0  0  0  0  0
    8.4900   -2.3830   22.3440 C   0  0  0  0  0  0  0  0  0  0  0  0
    7.3630   -1.7640   21.9780 C   0  0  1  0  0  0  0  0  0  0  0  0
    9.6720   -5.6900   25.3830 C   0  0  0  0  0  0  0  0  0  0  0  0
    8.9670   -4.6030   24.9650 C   0  0  0  0  0  0  0  0  0  0  0  0
    7.7270   -4.0800   26.0330 S   0  0  0  0  0  0  0  0  0  0  0  0
    8.0660   -5.3480   27.1070 C   0  0  0  0  0  0  0  0  0  0  0  0
    9.2260   -6.1410   26.5500 C   0  0  0  0  0  0  0  0  0  0  0  0
    4.0400    1.8490   19.0580 N   0  0  0  0  0  0  0  0  0  0  0  0
    4.8770    1.8010   17.8780 C   0  0  0  0  0  0  0  0  0  0  0  0
    5.9970    1.0910   17.6170 N   0  0  0  0  0  0  0  0  0  0  0  0
    6.7200    0.2140   18.3430 C   0  0  0  0  0  0  0  0  0  0  0  0
    5.8710    0.2180   19.6180 C   0  0  0  0  0  0  0  0  0  0  0  0
    4.6180    0.9690   19.9730 C   0  0  0  0  0  0  0  0  0  0  0  0
    7.3960    0.2530   20.4000 C   0  0  0  0  0  0  0  0  0  0  0  0
    7.2130   -0.6320   19.3790 C   0  0  0  0  0  0  0  0  0  0  0  0
  1  2  1  1
  1  4  1  0
  6  8  1  0
  7  8  2  0
 12  5  1  1
 11 12  1  0
 12 13  1  0
 14  3  1  1
 11 14  1  0
 13 14  1  0
 15 16  2  0
 16 17  1  0
  3 18  1  0
 17 18  2  0
 18 19  1  0
  4 20  1  0
 15 20  1  0
 19 20  2  0
  8 21  1  0
 21 22  1  0
 22 23  1  0
  9 24  1  0
 23 24  1  0
 24 25  1  0
  1 26  1  0
 21 26  1  0
 26 25  1  6
  9 28  1  0
 27 28  2  0
 28 29  1  0
 10 30  1  0
 29 30  1  0
 27 31  1  0
 30 31  2  0
 32 33  2  0
 33 34  1  0
 34 35  2  0
 35 36  1  0
 32 37  1  0
 36 37  2  0
  1 38  1  0
 35 39  1  0
 38 39  1  0
M  END
