x2569-x0734
     RDKit          3D

 37 40  0  0  0  0  0  0  0  0999 V2000
    5.2940   -4.7490   26.1670 N   0  0  0  0  0  0  0  0  0  0  0  0
    4.6740   -5.6040   25.5110 O   0  0  0  0  0  0  0  0  0  0  0  0
    4.7680   -3.7980   26.7600 O   0  0  0  0  0  0  0  0  0  0  0  0
    5.1010   -4.2760   19.7180 O   0  0  0  0  0  0  0  0  0  0  0  0
    6.2270   -3.9210   20.0500 C   0  0  0  0  0  0  0  0  0  0  0  0
    7.1450   -3.1660   19.0850 C   0  0  0  0  0  0  0  0  0  0  0  0
    8.1640   -0.0830   21.8380 C   0  0  0  0  0  0  0  0  0  0  0  0
    8.7900    0.9530   21.5790 O   0  0  0  0  0  0  0  0  0  0  0  0
    8.7480   -1.0430   22.6790 C   0  0  2  0  0  0  0  0  0  0  0  0
   14.0940   -1.4310   20.3160 N   0  0  0  0  0  0  0  0  0  0  0  0
    6.9170   -0.3870   21.3420 N   0  0  0  0  0  0  0  0  0  0  0  0
   13.3330   -1.2440   21.5070 C   0  0  0  0  0  0  0  0  0  0  0  0
    7.8600   -1.8770   23.6460 C   0  0  0  0  0  0  0  0  0  0  0  0
    6.6560   -4.9250   26.3410 C   0  0  0  0  0  0  0  0  0  0  0  0
    7.3690   -4.5920   25.1650 C   0  0  0  0  0  0  0  0  0  0  0  0
    8.7680   -4.6990   25.1070 C   0  0  0  0  0  0  0  0  0  0  0  0
    9.4960   -5.1310   26.2040 C   0  0  0  0  0  0  0  0  0  0  0  0
    8.7430   -5.4910   27.4860 C   0  0  0  0  0  0  0  0  0  0  0  0
    7.3560   -5.3600   27.4600 C   0  0  0  0  0  0  0  0  0  0  0  0
    6.7500   -4.2090   21.3020 N   0  0  0  0  0  0  0  0  0  0  0  0
    6.4560   -5.4770   21.9620 C   0  0  0  0  0  0  0  0  0  0  0  0
    6.0260   -5.2600   23.2760 C   0  0  0  0  0  0  0  0  0  0  0  0
    6.7620   -4.1340   23.9580 N   0  0  0  0  0  0  0  0  0  0  0  0
    7.0490   -2.9130   23.1500 C   0  0  2  0  0  0  0  0  0  0  0  0
    7.6720   -3.3680   22.0120 C   0  0  0  0  0  0  0  0  0  0  0  0
   11.7540    0.0860   24.6490 N   0  0  0  0  0  0  0  0  0  0  0  0
   12.6610   -0.2730   23.7430 C   0  0  0  0  0  0  0  0  0  0  0  0
   12.3540   -0.8510   22.5600 C   0  0  0  0  0  0  0  0  0  0  0  0
   11.0870   -1.1080   22.2150 C   0  0  0  0  0  0  0  0  0  0  0  0
   10.1020   -0.7670   23.0750 C   0  0  0  0  0  0  0  0  0  0  0  0
   10.4680   -0.1650   24.3000 C   0  0  0  0  0  0  0  0  0  0  0  0
    6.4120    0.5730   17.8170 N   0  0  0  0  0  0  0  0  0  0  0  0
    6.8940    0.0460   18.9640 C   0  0  0  0  0  0  0  0  0  0  0  0
    6.3050    0.2010   20.2160 C   0  0  0  0  0  0  0  0  0  0  0  0
    5.1500    0.9360   20.2470 C   0  0  0  0  0  0  0  0  0  0  0  0
    4.6170    1.4910   19.1000 C   0  0  0  0  0  0  0  0  0  0  0  0
    5.2790    1.2910   17.8940 C   0  0  0  0  0  0  0  0  0  0  0  0
  1  2  2  0
  1  3  1  0
  4  5  2  0
  5  6  1  0
  7  8  2  0
  7  9  1  0
  7 11  1  0
 10 12  3  0
  9 13  1  1
  1 14  1  0
 14 15  2  0
 15 16  1  0
 16 17  2  0
 17 18  1  0
 14 19  1  0
 18 19  2  0
  5 20  1  0
 20 21  1  0
 21 22  1  0
 15 23  1  0
 22 23  1  0
 24 13  1  1
 23 24  1  0
 20 25  1  0
 24 25  1  0
 26 27  2  0
 12 28  1  0
 27 28  1  0
 28 29  2  0
  9 30  1  0
 29 30  1  0
 26 31  1  0
 30 31  2  0
 32 33  2  0
 11 34  1  0
 33 34  1  0
 34 35  2  0
 35 36  1  0
 32 37  1  0
 36 37  2  0
M  CHG  2   1   1   3  -1
M  END
