x2563-x1425
     RDKit          3D

 38 42  0  0  0  0  0  0  0  0999 V2000
    1.3240   -2.3340   28.3180 C   0  0  0  0  0  0  0  0  0  0  0  0
    2.7460   -2.1280   28.3300 O   0  0  0  0  0  0  0  0  0  0  0  0
    5.1400   -4.4770   19.8090 O   0  0  0  0  0  0  0  0  0  0  0  0
    6.2280   -4.0460   20.1470 C   0  0  0  0  0  0  0  0  0  0  0  0
    7.0980   -3.2990   19.1680 C   0  0  0  0  0  0  0  0  0  0  0  0
    8.2620   -0.2550   21.1180 C   0  0  0  0  0  0  0  0  0  0  0  0
    8.2930    0.9770   21.0760 O   0  0  0  0  0  0  0  0  0  0  0  0
    7.2460   -0.9820   20.5920 C   0  0  1  0  0  0  0  0  0  0  0  0
    9.2580   -1.0950   21.6880 N   0  0  0  0  0  0  0  0  0  0  0  0
    6.4440   -1.8630   21.5580 C   0  0  0  0  0  0  0  0  0  0  0  0
    3.4360   -2.5550   27.2210 C   0  0  0  0  0  0  0  0  0  0  0  0
    4.7270   -2.1120   26.9770 C   0  0  0  0  0  0  0  0  0  0  0  0
    5.4240   -2.5350   25.8780 C   0  0  0  0  0  0  0  0  0  0  0  0
    4.8590   -3.4200   24.9760 C   0  0  0  0  0  0  0  0  0  0  0  0
    3.5640   -3.8990   25.1670 C   0  0  0  0  0  0  0  0  0  0  0  0
    2.8680   -3.4520   26.3020 C   0  0  0  0  0  0  0  0  0  0  0  0
    6.7400   -4.2480   21.4030 N   0  0  0  0  0  0  0  0  0  0  0  0
    7.2080   -3.0850   22.1360 C   0  0  2  0  0  0  0  0  0  0  0  0
    6.9110   -3.2930   23.6270 C   0  0  0  0  0  0  0  0  0  0  0  0
    5.6210   -3.8680   23.7970 N   0  0  0  0  0  0  0  0  0  0  0  0
    5.5250   -5.1740   23.3760 C   0  0  0  0  0  0  0  0  0  0  0  0
    6.3780   -5.4660   22.1420 C   0  0  0  0  0  0  0  0  0  0  0  0
    6.2360    0.6630   17.5360 N   0  0  0  0  0  0  0  0  0  0  0  0
    5.0900    1.4590   17.9630 C   0  0  0  0  0  0  0  0  0  0  0  0
    4.6260    1.4190   19.4010 C   0  0  0  0  0  0  0  0  0  0  0  0
    5.3630    0.5980   20.2530 C   0  0  0  0  0  0  0  0  0  0  0  0
    6.4680   -0.1440   19.7700 C   0  0  0  0  0  0  0  0  0  0  0  0
    6.8590   -0.0850   18.4410 C   0  0  0  0  0  0  0  0  0  0  0  0
    3.5490    2.1480   19.8350 C   0  0  0  0  0  0  0  0  0  0  0  0
    3.1370    2.1140   21.1480 C   0  0  0  0  0  0  0  0  0  0  0  0
    3.8460    1.3140   22.0370 C   0  0  0  0  0  0  0  0  0  0  0  0
    4.9350    0.5690   21.6000 C   0  0  0  0  0  0  0  0  0  0  0  0
   11.4690   -0.7400   22.3910 C   0  0  0  0  0  0  0  0  0  0  0  0
   12.3560   -0.1270   23.2340 C   0  0  0  0  0  0  0  0  0  0  0  0
   11.8730    0.6970   24.2180 C   0  0  0  0  0  0  0  0  0  0  0  0
   10.5180    0.9310   24.4010 C   0  0  0  0  0  0  0  0  0  0  0  0
    9.6560    0.3230   23.5630 C   0  0  0  0  0  0  0  0  0  0  0  0
   10.1170   -0.5040   22.5570 C   0  0  0  0  0  0  0  0  0  0  0  0
  1  2  1  0
  3  4  2  0
  4  5  1  0
  6  7  2  0
  6  8  1  0
  6  9  1  0
  8 10  1  1
  2 11  1  0
 11 12  2  0
 12 13  1  0
 13 14  2  0
 14 15  1  0
 11 16  1  0
 15 16  2  0
  4 17  1  0
 18 10  1  6
 17 18  1  0
 18 19  1  0
 14 20  1  0
 19 20  1  0
 20 21  1  0
 17 22  1  0
 21 22  1  0
 23 24  2  0
 24 25  1  0
 25 26  2  0
  8 27  1  0
 26 27  1  0
 23 28  1  0
 27 28  2  0
 25 29  1  0
 29 30  2  0
 30 31  1  0
 26 32  1  0
 31 32  2  0
 33 34  2  0
 34 35  1  0
 35 36  2  0
 36 37  1  0
  9 38  1  0
 33 38  1  0
 37 38  2  0
M  END
