x2562-x0770
     RDKit          3D

 34 37  0  0  0  0  0  0  0  0999 V2000
    8.1950   -0.5750   21.3110 C   0  0  0  0  0  0  0  0  0  0  0  0
    8.0580    0.5290   20.7460 O   0  0  0  0  0  0  0  0  0  0  0  0
   11.7720    2.8870   23.2080 O   0  0  0  0  0  0  0  0  0  0  0  0
    9.4070   -1.0320   21.7630 N   0  0  0  0  0  0  0  0  0  0  0  0
   12.6670    6.6850   22.4580 O   0  0  0  0  0  0  0  0  0  0  0  0
   13.2290   -2.2310   22.2400 Cl  0  0  0  0  0  0  0  0  0  0  0  0
    7.4420   -2.9570   18.7910 C   0  0  0  0  0  0  0  0  0  0  0  0
    5.5460   -3.9950   19.7490 O   0  0  0  0  0  0  0  0  0  0  0  0
    6.5650   -3.2830   19.9580 C   0  0  0  0  0  0  0  0  0  0  0  0
    9.4000   -2.5170   23.6480 C   0  0  0  0  0  0  0  0  0  0  0  0
   12.4350    4.6400   21.5810 N   0  0  0  0  0  0  0  0  0  0  0  0
   13.2160    5.6030   22.3170 C   0  0  2  0  0  0  0  0  0  0  0  0
   13.3490    4.7920   23.4530 C   0  0  0  0  0  0  0  0  0  0  0  0
   12.8530    3.6930   22.7100 C   0  0  1  0  0  0  0  0  0  0  0  0
   11.7660   -1.3860   22.1610 C   0  0  0  0  0  0  0  0  0  0  0  0
   12.9050   -0.4350   22.6160 C   0  0  0  0  0  0  0  0  0  0  0  0
   12.8930    0.8870   22.9350 C   0  0  0  0  0  0  0  0  0  0  0  0
   11.8350    1.6830   22.9320 C   0  0  0  0  0  0  0  0  0  0  0  0
   10.6920    1.0440   22.5600 C   0  0  0  0  0  0  0  0  0  0  0  0
   10.6100   -0.3420   22.1930 C   0  0  0  0  0  0  0  0  0  0  0  0
    6.9890   -2.8370   21.2500 N   0  0  0  0  0  0  0  0  0  0  0  0
    7.0390   -1.5510   21.6650 C   0  0  1  0  0  0  0  0  0  0  0  0
    7.2010   -1.4790   23.0580 C   0  0  0  0  0  0  0  0  0  0  0  0
    7.9380   -2.6150   23.6660 N   0  0  0  0  0  0  0  0  0  0  0  0
    7.4600   -3.7980   23.3610 C   0  0  0  0  0  0  0  0  0  0  0  0
    6.6430   -3.6700   22.2500 C   0  0  0  0  0  0  0  0  0  0  0  0
    4.6520    1.8400   19.0610 N   0  0  0  0  0  0  0  0  0  0  0  0
    5.1720    1.5550   17.8530 C   0  0  0  0  0  0  0  0  0  0  0  0
    6.1020    0.6890   17.5010 N   0  0  0  0  0  0  0  0  0  0  0  0
    6.5310    0.0550   18.5470 C   0  0  0  0  0  0  0  0  0  0  0  0
    6.0350    0.3100   19.7970 C   0  0  0  0  0  0  0  0  0  0  0  0
    4.9500    1.3030   20.2980 C   0  0  0  0  0  0  0  0  0  0  0  0
    5.7510   -0.9390   21.1000 C   0  0  0  0  0  0  0  0  0  0  0  0
    5.5090    0.5240   21.4450 C   0  0  0  0  0  0  0  0  0  0  0  0
  1  2  2  0
  1  4  1  0
  7  9  1  0
  8  9  2  0
 12  5  1  1
 11 12  1  0
 12 13  1  0
 14  3  1  1
 11 14  1  0
 13 14  1  0
  6 15  1  0
 15 16  2  0
 16 17  1  0
  3 18  1  0
 17 18  2  0
 18 19  1  0
  4 20  1  0
 15 20  1  0
 19 20  2  0
  9 21  1  0
 22  1  1  0
 21 22  1  0
 22 23  1  0
 10 24  1  0
 23 24  1  0
 24 25  1  0
 21 26  1  0
 25 26  1  0
 27 28  2  0
 28 29  1  0
 29 30  2  0
 30 31  1  0
 27 32  1  0
 31 32  2  0
 22 33  1  1
 32 34  1  0
 33 34  1  0
M  END
