x2563-x1478
     RDKit          3D

 32 35  0  0  0  0  0  0  0  0999 V2000
    8.6270    0.3940   21.2660 C   0  0  0  0  0  0  0  0  0  0  0  0
    8.6430    1.6090   21.0630 O   0  0  0  0  0  0  0  0  0  0  0  0
    7.3850   -0.4100   21.1690 C   0  0  2  0  0  0  0  0  0  0  0  0
    9.6760   -0.4040   21.5800 N   0  0  0  0  0  0  0  0  0  0  0  0
    6.5380   -2.6970   21.2900 N   0  0  0  0  0  0  0  0  0  0  0  0
    7.7460   -4.4940   20.3620 C   0  0  0  0  0  0  0  0  0  0  0  0
    5.5350   -3.8880   19.6340 O   0  0  0  0  0  0  0  0  0  0  0  0
    5.9440   -5.7210   22.1410 Cl  0  0  0  0  0  0  0  0  0  0  0  0
    6.4930   -3.6780   20.3780 C   0  0  0  0  0  0  0  0  0  0  0  0
    7.6480   -1.9070   21.2440 C   0  0  0  0  0  0  0  0  0  0  0  0
    6.2330    0.5170   17.6780 N   0  0  0  0  0  0  0  0  0  0  0  0
    5.1130    1.2110   17.9230 C   0  0  0  0  0  0  0  0  0  0  0  0
    4.6090    1.4320   19.1870 C   0  0  0  0  0  0  0  0  0  0  0  0
    5.4070    0.8500   20.3470 C   0  0  0  0  0  0  0  0  0  0  0  0
    6.5430    0.1610   20.0550 C   0  0  0  0  0  0  0  0  0  0  0  0
    6.9110    0.0150   18.7300 C   0  0  0  0  0  0  0  0  0  0  0  0
    3.4390    2.1430   19.4460 C   0  0  0  0  0  0  0  0  0  0  0  0
    3.0180    2.3150   20.7660 C   0  0  0  0  0  0  0  0  0  0  0  0
    3.7420    1.7910   21.8440 C   0  0  0  0  0  0  0  0  0  0  0  0
    4.9120    1.0730   21.6400 C   0  0  0  0  0  0  0  0  0  0  0  0
   11.7470   -0.5120   22.7080 C   0  0  0  0  0  0  0  0  0  0  0  0
   12.5740   -0.4890   23.8120 C   0  0  0  0  0  0  0  0  0  0  0  0
   12.0580   -0.3310   25.0670 C   0  0  0  0  0  0  0  0  0  0  0  0
   10.5190   -0.1620   25.2230 C   0  0  0  0  0  0  0  0  0  0  0  0
    9.6840   -0.1860   23.9880 C   0  0  0  0  0  0  0  0  0  0  0  0
   10.3460   -0.3640   22.7820 C   0  0  0  0  0  0  0  0  0  0  0  0
    4.9500   -4.6090   24.0870 N   0  0  0  0  0  0  0  0  0  0  0  0
    5.5640   -4.2650   22.9810 C   0  0  0  0  0  0  0  0  0  0  0  0
    5.8670   -2.9260   22.5410 C   0  0  0  0  0  0  0  0  0  0  0  0
    5.5800   -1.6940   23.2000 C   0  0  0  0  0  0  0  0  0  0  0  0
    4.8740   -2.2720   24.4560 C   0  0  0  0  0  0  0  0  0  0  0  0
    4.6160   -3.5810   24.8050 C   0  0  0  0  0  0  0  0  0  0  0  0
  1  2  2  0
  1  3  1  0
  1  4  1  0
  5  9  1  0
  6  9  1  0
  7  9  2  0
  3 10  1  6
  5 10  1  0
 11 12  2  0
 12 13  1  0
 13 14  2  0
  3 15  1  0
 14 15  1  0
 11 16  1  0
 15 16  2  0
 13 17  1  0
 17 18  2  0
 18 19  1  0
 14 20  1  0
 19 20  2  0
 21 22  2  0
 22 23  1  0
 23 24  2  0
 24 25  1  0
  4 26  1  0
 21 26  1  0
 25 26  2  0
  8 28  1  0
 27 28  2  0
  5 29  1  0
 28 29  1  0
 29 30  2  0
 30 31  1  0
 27 32  1  0
 31 32  2  0
M  END
