x2563-x2581
     RDKit          3D

 33 37  0  0  0  0  0  0  0  0999 V2000
   10.4780   -2.4860   23.7270 C   0  0  0  0  0  0  0  0  0  0  0  0
   10.9980   -1.1440   23.7960 O   0  0  0  0  0  0  0  0  0  0  0  0
   10.1330    3.1820   22.0060 N   0  0  0  0  0  0  0  0  0  0  0  0
   10.9400    3.6990   24.4540 O   0  0  0  0  0  0  0  0  0  0  0  0
   10.9160    3.8930   23.0520 C   0  0  0  0  0  0  0  0  0  0  0  0
   11.7810    5.1010   22.6990 C   0  0  0  0  0  0  0  0  0  0  0  0
    7.4990   -0.6510   20.6440 C   0  0  0  0  0  0  0  0  0  0  0  0
    8.7710    1.5270   21.2430 N   0  0  0  0  0  0  0  0  0  0  0  0
    9.8480    2.0460   22.0480 C   0  0  0  0  0  0  0  0  0  0  0  0
   10.6570    1.1460   22.9380 C   0  0  0  0  0  0  0  0  0  0  0  0
   10.3700   -0.1990   23.0210 C   0  0  0  0  0  0  0  0  0  0  0  0
    9.3240   -0.6340   22.2260 C   0  0  0  0  0  0  0  0  0  0  0  0
    8.4860    0.0430   21.3430 C   0  0  0  0  0  0  0  0  0  0  0  0
    9.7870    6.7860   22.8150 C   0  0  0  0  0  0  0  0  0  0  0  0
    9.0980    7.8760   23.3700 C   0  0  0  0  0  0  0  0  0  0  0  0
    9.5990    8.6040   24.4650 C   0  0  0  0  0  0  0  0  0  0  0  0
   10.9300    8.2250   25.0980 C   0  0  0  0  0  0  0  0  0  0  0  0
   11.6560    7.0390   24.4830 C   0  0  0  0  0  0  0  0  0  0  0  0
   11.0150    6.3460   23.3130 C   0  0  0  0  0  0  0  0  0  0  0  0
    8.8690    9.6400   24.9160 C   0  0  0  0  0  0  0  0  0  0  0  0
    9.3850   10.4600   26.0930 C   0  0  0  0  0  0  0  0  0  0  0  0
   10.7390   10.0460   26.7190 C   0  0  0  0  0  0  0  0  0  0  0  0
   11.4290    8.9500   26.1800 C   0  0  0  0  0  0  0  0  0  0  0  0
    6.0350    0.9740   17.5490 N   0  0  0  0  0  0  0  0  0  0  0  0
    5.0090    1.6750   18.0090 C   0  0  0  0  0  0  0  0  0  0  0  0
    4.7220    1.6560   19.3910 C   0  0  0  0  0  0  0  0  0  0  0  0
    5.5240    0.9060   20.2680 C   0  0  0  0  0  0  0  0  0  0  0  0
    6.5890    0.1770   19.8100 C   0  0  0  0  0  0  0  0  0  0  0  0
    6.8220    0.2200   18.4800 C   0  0  0  0  0  0  0  0  0  0  0  0
    3.6310    2.3970   19.8590 C   0  0  0  0  0  0  0  0  0  0  0  0
    3.3260    2.4120   21.2140 C   0  0  0  0  0  0  0  0  0  0  0  0
    4.1120    1.6840   22.1000 C   0  0  0  0  0  0  0  0  0  0  0  0
    5.1900    0.9400   21.6340 C   0  0  0  0  0  0  0  0  0  0  0  0
  1  2  1  0
  3  5  1  0
  4  5  2  0
  5  6  1  0
  3  9  1  0
  8  9  2  0
  9 10  1  0
  2 11  1  0
 10 11  2  0
 11 12  1  0
  7 13  1  0
  8 13  1  0
 12 13  2  0
 14 15  2  0
 15 16  1  0
 16 17  2  0
 17 18  1  0
  6 19  1  0
 14 19  1  0
 18 19  2  0
 16 20  1  0
 20 21  2  0
 21 22  1  0
 17 23  1  0
 22 23  2  0
 24 25  2  0
 25 26  1  0
 26 27  2  0
  7 28  1  0
 27 28  1  0
 24 29  1  0
 28 29  2  0
 26 30  1  0
 30 31  2  0
 31 32  1  0
 27 33  1  0
 32 33  2  0
M  END
