x2562-x2600
     RDKit          3D

 24 26  0  0  0  0  0  0  0  0999 V2000
    8.3110   -0.0830   21.4570 C   0  0  0  0  0  0  0  0  0  0  0  0
    8.5470    1.1100   21.2570 O   0  0  0  0  0  0  0  0  0  0  0  0
    7.0370   -0.7810   21.0560 C   0  0  0  0  0  0  0  0  0  0  0  0
   12.1790    3.0530   23.3470 O   0  0  0  0  0  0  0  0  0  0  0  0
    9.3560   -0.8360   22.1190 N   0  0  0  0  0  0  0  0  0  0  0  0
   13.4060    6.9310   22.2840 O   0  0  0  0  0  0  0  0  0  0  0  0
   13.5650   -1.8690   20.8130 N   0  0  0  0  0  0  0  0  0  0  0  0
   13.0170   -2.0770   22.1270 C   0  0  0  0  0  0  0  0  0  0  0  0
    4.5850    1.5720   19.3330 N   0  0  0  0  0  0  0  0  0  0  0  0
    5.0390    1.4550   18.0800 C   0  0  0  0  0  0  0  0  0  0  0  0
    6.1490    0.6120   17.6450 N   0  0  0  0  0  0  0  0  0  0  0  0
    6.8300   -0.1610   18.6750 C   0  0  0  0  0  0  0  0  0  0  0  0
    6.3730   -0.0370   19.9780 C   0  0  0  0  0  0  0  0  0  0  0  0
    5.2880    0.8060   20.2340 C   0  0  0  0  0  0  0  0  0  0  0  0
   12.5650    4.7620   21.6650 N   0  0  0  0  0  0  0  0  0  0  0  0
   12.6440    5.8780   22.6440 C   0  0  1  0  0  0  0  0  0  0  0  0
   13.3670    4.9780   23.3270 C   0  0  0  0  0  0  0  0  0  0  0  0
   13.1400    3.8250   22.6700 C   0  0  1  0  0  0  0  0  0  0  0  0
   11.7410   -1.3160   22.2130 C   0  0  0  0  0  0  0  0  0  0  0  0
   12.8190   -0.4470   22.5280 C   0  0  0  0  0  0  0  0  0  0  0  0
   12.9650    0.8720   22.8710 C   0  0  0  0  0  0  0  0  0  0  0  0
   11.9600    1.7580   23.0050 C   0  0  0  0  0  0  0  0  0  0  0  0
   10.6430    1.1170   22.7360 C   0  0  0  0  0  0  0  0  0  0  0  0
   10.6750   -0.3830   22.3590 C   0  0  0  0  0  0  0  0  0  0  0  0
  1  2  2  0
  1  3  1  0
  1  5  1  0
  7  8  3  0
  9 10  2  0
 10 11  1  0
 11 12  2  0
  3 13  1  0
 12 13  1  0
  9 14  1  0
 13 14  2  0
 16  6  1  6
 15 16  1  0
 16 17  1  0
 18  4  1  1
 15 18  1  0
 17 18  1  0
  8 19  1  0
 19 20  2  0
 20 21  1  0
  4 22  1  0
 21 22  2  0
 22 23  1  0
  5 24  1  0
 19 24  1  0
 23 24  2  0
M  END
