x2563-x0786
     RDKit          3D

 40 44  0  0  0  0  0  0  0  0999 V2000
    6.4550   -4.1280   21.9210 N   0  0  0  0  0  0  0  0  0  0  0  0
    7.1860   -5.4150   20.0380 C   0  0  0  0  0  0  0  0  0  0  0  0
    5.1950   -4.3950   19.8990 O   0  0  0  0  0  0  0  0  0  0  0  0
    6.1640   -4.6060   20.6400 C   0  0  0  0  0  0  0  0  0  0  0  0
    3.6260   -8.0780   24.8550 O   0  0  0  0  0  0  0  0  0  0  0  0
    3.2150   -7.0480   24.3160 C   0  0  0  0  0  0  0  0  0  0  0  0
    8.3060   -0.2660   21.1440 C   0  0  0  0  0  0  0  0  0  0  0  0
    8.4000    0.9600   21.0470 O   0  0  0  0  0  0  0  0  0  0  0  0
    7.3260   -0.9600   20.5130 C   0  0  1  0  0  0  0  0  0  0  0  0
    9.1280   -1.0750   21.8690 N   0  0  0  0  0  0  0  0  0  0  0  0
    7.1840   -2.9280   21.9910 C   0  0  0  0  0  0  0  0  0  0  0  0
    6.5160   -1.8890   21.4000 C   0  0  0  0  0  0  0  0  0  0  0  0
    5.6450   -4.4390   23.0800 C   0  0  0  0  0  0  0  0  0  0  0  0
    4.8540   -5.5540   23.1450 C   0  0  0  0  0  0  0  0  0  0  0  0
    4.0970   -5.7960   24.2820 C   0  0  0  0  0  0  0  0  0  0  0  0
    4.0870   -4.9550   25.4050 C   0  0  0  0  0  0  0  0  0  0  0  0
    4.8720   -3.8080   25.4010 C   0  0  0  0  0  0  0  0  0  0  0  0
    5.6880   -3.5610   24.1510 C   0  0  0  0  0  0  0  0  0  0  0  0
    1.5000   -5.6740   23.3580 C   0  0  0  0  0  0  0  0  0  0  0  0
    0.5300   -5.0900   24.3800 C   0  0  0  0  0  0  0  0  0  0  0  0
   -0.9800   -6.0820   24.4630 S   0  0  0  0  0  0  0  0  0  0  0  0
   -0.1150   -7.6090   24.9400 C   0  0  0  0  0  0  0  0  0  0  0  0
    0.9540   -8.0220   23.9260 C   0  0  0  0  0  0  0  0  0  0  0  0
    1.9710   -6.9710   23.7130 N   0  0  0  0  0  0  0  0  0  0  0  0
    6.1890    0.7990   17.4990 N   0  0  0  0  0  0  0  0  0  0  0  0
    5.1260    1.4880   17.9510 C   0  0  0  0  0  0  0  0  0  0  0  0
    4.6480    1.4740   19.2490 C   0  0  0  0  0  0  0  0  0  0  0  0
    5.3420    0.6710   20.1740 C   0  0  0  0  0  0  0  0  0  0  0  0
    6.4560   -0.0520   19.7060 C   0  0  0  0  0  0  0  0  0  0  0  0
    6.8150    0.0530   18.4070 C   0  0  0  0  0  0  0  0  0  0  0  0
    3.5320    2.2220   19.6270 C   0  0  0  0  0  0  0  0  0  0  0  0
    3.0890    2.1820   20.9440 C   0  0  0  0  0  0  0  0  0  0  0  0
    3.7600    1.4010   21.8710 C   0  0  0  0  0  0  0  0  0  0  0  0
    4.8710    0.6510   21.5010 C   0  0  0  0  0  0  0  0  0  0  0  0
   11.3590   -0.6570   22.4510 C   0  0  0  0  0  0  0  0  0  0  0  0
   12.2920   -0.0300   23.2360 C   0  0  0  0  0  0  0  0  0  0  0  0
   11.8150    0.7650   24.2300 C   0  0  0  0  0  0  0  0  0  0  0  0
   10.4750    0.9650   24.4920 C   0  0  0  0  0  0  0  0  0  0  0  0
    9.5520    0.3500   23.7220 C   0  0  0  0  0  0  0  0  0  0  0  0
   10.0000   -0.4550   22.6990 C   0  0  0  0  0  0  0  0  0  0  0  0
  1  4  1  0
  2  4  1  0
  3  4  2  0
  5  6  2  0
  7  8  2  0
  7  9  1  0
  7 10  1  0
  1 11  1  0
  9 12  1  1
 11 12  1  0
  1 13  1  0
 13 14  2  0
  6 15  1  0
 14 15  1  0
 15 16  2  0
 16 17  1  0
 13 18  1  0
 17 18  2  0
 19 20  1  0
 20 21  1  0
 21 22  1  0
 22 23  1  0
  6 24  1  0
 19 24  1  0
 23 24  1  0
 25 26  2  0
 26 27  1  0
 27 28  2  0
  9 29  1  0
 28 29  1  0
 25 30  1  0
 29 30  2  0
 27 31  1  0
 31 32  2  0
 32 33  1  0
 28 34  1  0
 33 34  2  0
 35 36  2  0
 36 37  1  0
 37 38  2  0
 38 39  1  0
 10 40  1  0
 35 40  1  0
 39 40  2  0
M  END
