x2569-x0426
     RDKit          3D

 30 32  0  0  0  0  0  0  0  0999 V2000
    8.0540    0.2170   21.5870 C   0  0  0  0  0  0  0  0  0  0  0  0
    8.6680    1.2040   21.1280 O   0  0  0  0  0  0  0  0  0  0  0  0
    8.6880   -0.6260   22.6720 C   0  0  0  0  0  0  0  0  0  0  0  0
   13.5590   -3.0930   20.7480 N   0  0  0  0  0  0  0  0  0  0  0  0
    6.7950   -0.2470   21.2190 N   0  0  0  0  0  0  0  0  0  0  0  0
   13.0700   -2.2740   21.3620 C   0  0  0  0  0  0  0  0  0  0  0  0
    2.3750    1.7000   23.7680 C   0  0  0  0  0  0  0  0  0  0  0  0
    2.3330    0.4630   23.7310 O   0  0  0  0  0  0  0  0  0  0  0  0
    3.3870    2.4320   23.1740 N   0  0  0  0  0  0  0  0  0  0  0  0
    4.3870    1.8960   22.4260 C   0  0  0  0  0  0  0  0  0  0  0  0
    4.0450    0.9160   21.4990 C   0  0  0  0  0  0  0  0  0  0  0  0
    2.7830    4.3410   25.2440 F   0  0  0  0  0  0  0  0  0  0  0  0
   12.1420    0.8020   23.1230 N   0  0  0  0  0  0  0  0  0  0  0  0
   12.9010   -0.1450   22.5640 C   0  0  0  0  0  0  0  0  0  0  0  0
   12.3460   -1.2830   21.9990 C   0  0  0  0  0  0  0  0  0  0  0  0
   10.9810   -1.4510   22.0380 C   0  0  0  0  0  0  0  0  0  0  0  0
   10.1760   -0.5130   22.6070 C   0  0  0  0  0  0  0  0  0  0  0  0
   10.8000    0.5880   23.1240 C   0  0  0  0  0  0  0  0  0  0  0  0
    6.4110    0.7570   17.7090 N   0  0  0  0  0  0  0  0  0  0  0  0
    6.8360    0.2650   18.8780 C   0  0  0  0  0  0  0  0  0  0  0  0
    6.1860    0.2860   20.0960 C   0  0  0  0  0  0  0  0  0  0  0  0
    4.9010    0.8440   20.2520 C   0  0  0  0  0  0  0  0  0  0  0  0
    4.3210    1.4490   18.9630 C   0  0  0  0  0  0  0  0  0  0  0  0
    5.2290    1.3300   17.7380 C   0  0  0  0  0  0  0  0  0  0  0  0
    1.5600    3.7920   25.2070 C   0  0  0  0  0  0  0  0  0  0  0  0
    1.3090    2.4720   24.4810 C   0  0  0  0  0  0  0  0  0  0  0  0
   -0.0040    2.0010   24.5120 C   0  0  0  0  0  0  0  0  0  0  0  0
   -1.0130    2.7160   25.1770 C   0  0  0  0  0  0  0  0  0  0  0  0
   -0.7570    3.9210   25.8340 C   0  0  0  0  0  0  0  0  0  0  0  0
    0.5200    4.4540   25.8480 C   0  0  0  0  0  0  0  0  0  0  0  0
  1  2  2  0
  1  3  1  0
  1  5  1  0
  4  6  3  0
  7  8  2  0
  7  9  1  0
  9 10  1  0
 10 11  1  0
 13 14  2  0
  6 15  1  0
 14 15  1  0
 15 16  2  0
  3 17  1  0
 16 17  1  0
 13 18  1  0
 17 18  2  0
 19 20  2  0
  5 21  1  0
 20 21  1  0
 11 22  1  0
 21 22  2  0
 22 23  1  0
 19 24  1  0
 23 24  2  0
 12 25  1  0
  7 26  1  0
 25 26  2  0
 26 27  1  0
 27 28  2  0
 28 29  1  0
 25 30  1  0
 29 30  2  0
M  END
