x2569-x0708
     RDKit          3D

 28 30  0  0  0  0  0  0  0  0999 V2000
    6.7470   -4.7080   21.1460 N   0  0  0  0  0  0  0  0  0  0  0  0
    7.2900   -3.1630   19.4250 C   0  0  0  0  0  0  0  0  0  0  0  0
    5.2330   -3.9320   19.5940 O   0  0  0  0  0  0  0  0  0  0  0  0
    6.3790   -3.9250   20.0520 C   0  0  0  0  0  0  0  0  0  0  0  0
    7.6280   -4.2110   22.1370 N   0  0  0  0  0  0  0  0  0  0  0  0
    6.3150   -2.5010   22.7410 O   0  0  0  0  0  0  0  0  0  0  0  0
    7.4550   -2.8880   22.4850 C   0  0  0  0  0  0  0  0  0  0  0  0
    8.5750    0.1730   21.7370 C   0  0  0  0  0  0  0  0  0  0  0  0
    9.0970    1.2150   21.2770 O   0  0  0  0  0  0  0  0  0  0  0  0
    9.2850   -0.6850   22.8720 C   0  0  0  0  0  0  0  0  0  0  0  0
    7.3000   -0.2690   21.2910 N   0  0  0  0  0  0  0  0  0  0  0  0
   13.5490   -3.3890   20.7340 N   0  0  0  0  0  0  0  0  0  0  0  0
   12.9690   -2.3260   21.5120 C   0  0  0  0  0  0  0  0  0  0  0  0
    8.6200   -1.9030   22.6010 C   0  0  0  0  0  0  0  0  0  0  0  0
    9.9160   -1.9920   22.2950 C   0  0  0  0  0  0  0  0  0  0  0  0
   10.8930   -1.1210   22.4320 C   0  0  0  0  0  0  0  0  0  0  0  0
   10.3690   -0.0190   22.9540 C   0  0  0  0  0  0  0  0  0  0  0  0
    8.6260   -0.2680   23.2350 S   0  0  0  0  0  0  0  0  0  0  0  0
   12.3880   -1.2260   22.0920 C   0  0  0  0  0  0  0  0  0  0  0  0
   13.1140   -0.0750   22.4110 C   0  0  0  0  0  0  0  0  0  0  0  0
   12.5170    1.0570   22.9420 C   0  0  0  0  0  0  0  0  0  0  0  0
   11.1640    1.0920   23.1950 C   0  0  0  0  0  0  0  0  0  0  0  0
    6.3070    0.5230   17.6850 N   0  0  0  0  0  0  0  0  0  0  0  0
    7.0510   -0.0650   18.7930 C   0  0  0  0  0  0  0  0  0  0  0  0
    6.6360    0.2370   20.0810 C   0  0  0  0  0  0  0  0  0  0  0  0
    5.4270    1.1410   20.3580 C   0  0  0  0  0  0  0  0  0  0  0  0
    4.7650    1.6640   19.2430 C   0  0  0  0  0  0  0  0  0  0  0  0
    5.1610    1.3940   17.9420 C   0  0  0  0  0  0  0  0  0  0  0  0
  1  4  1  0
  2  4  1  0
  3  4  2  0
  1  5  1  0
  5  7  1  0
  6  7  2  0
  8  9  2  0
  8 10  1  0
  8 11  1  0
 12 13  3  0
  7 14  1  0
 10 15  1  0
 14 15  2  0
 15 16  1  0
 16 17  2  0
 14 18  1  0
 17 18  1  0
 13 19  1  0
 16 19  1  0
 19 20  2  0
 20 21  1  0
 17 22  1  0
 21 22  2  0
 23 24  2  0
 11 25  1  0
 24 25  1  0
 25 26  2  0
 26 27  1  0
 23 28  1  0
 27 28  2  0
M  END
