x2569-x1493
     RDKit          3D

 32 34  0  0  0  0  0  0  0  0999 V2000
    8.3490    0.3590   21.8590 C   0  0  0  0  0  0  0  0  0  0  0  0
    9.0690    1.3010   21.4840 O   0  0  0  0  0  0  0  0  0  0  0  0
    8.6690   -0.5770   23.0210 C   0  0  1  0  0  0  0  0  0  0  0  0
   13.5360   -2.8730   20.6860 N   0  0  0  0  0  0  0  0  0  0  0  0
    7.1770    0.0720   21.2350 N   0  0  0  0  0  0  0  0  0  0  0  0
   13.1240   -1.8340   21.5860 C   0  0  0  0  0  0  0  0  0  0  0  0
    5.1580   -6.0080   26.2110 C   0  0  0  0  0  0  0  0  0  0  0  0
    7.3410   -5.1620   25.8640 O   0  0  0  0  0  0  0  0  0  0  0  0
    6.2250   -5.2630   25.3790 C   0  0  0  0  0  0  0  0  0  0  0  0
    5.2310   -4.6420   19.9230 O   0  0  0  0  0  0  0  0  0  0  0  0
    6.3350   -4.4560   20.4260 C   0  0  0  0  0  0  0  0  0  0  0  0
    7.2110   -3.3830   19.7780 C   0  0  0  0  0  0  0  0  0  0  0  0
    8.0580   -1.9670   22.8160 C   0  0  0  0  0  0  0  0  0  0  0  0
    7.1520   -2.5180   23.7540 C   0  0  0  0  0  0  0  0  0  0  0  0
   12.0330    0.7720   24.1200 N   0  0  0  0  0  0  0  0  0  0  0  0
   12.8020    0.0110   23.3510 C   0  0  0  0  0  0  0  0  0  0  0  0
   12.3070   -1.0410   22.3880 C   0  0  0  0  0  0  0  0  0  0  0  0
   10.9340   -1.1930   22.3230 C   0  0  0  0  0  0  0  0  0  0  0  0
   10.0860   -0.4280   23.0950 C   0  0  0  0  0  0  0  0  0  0  0  0
   10.6000    0.5170   23.9640 C   0  0  0  0  0  0  0  0  0  0  0  0
    6.1900    0.4970   17.6210 N   0  0  0  0  0  0  0  0  0  0  0  0
    6.9570    0.0070   18.7320 C   0  0  0  0  0  0  0  0  0  0  0  0
    6.5410    0.4020   19.9890 C   0  0  0  0  0  0  0  0  0  0  0  0
    5.3180    1.2890   20.2060 C   0  0  0  0  0  0  0  0  0  0  0  0
    4.6600    1.6930   19.0620 C   0  0  0  0  0  0  0  0  0  0  0  0
    5.1290    1.2860   17.8350 C   0  0  0  0  0  0  0  0  0  0  0  0
    5.8940   -4.7110   24.0450 N   0  0  0  0  0  0  0  0  0  0  0  0
    6.6020   -3.8480   23.2550 C   0  0  2  0  0  0  0  0  0  0  0  0
    7.5650   -4.5380   22.5640 C   0  0  0  0  0  0  0  0  0  0  0  0
    6.7950   -5.2260   21.5360 N   0  0  0  0  0  0  0  0  0  0  0  0
    5.8560   -6.0260   22.0870 C   0  0  0  0  0  0  0  0  0  0  0  0
    5.2060   -5.6020   23.2560 C   0  0  0  0  0  0  0  0  0  0  0  0
  1  2  2  0
  1  3  1  0
  1  5  1  0
  4  6  3  0
  7  9  1  0
  8  9  2  0
 10 11  2  0
 11 12  1  0
  3 13  1  6
 13 14  1  0
 15 16  2  0
  6 17  1  0
 16 17  1  0
 17 18  2  0
  3 19  1  0
 18 19  1  0
 15 20  1  0
 19 20  2  0
 21 22  2  0
  5 23  1  0
 22 23  1  0
 23 24  2  0
 24 25  1  0
 21 26  1  0
 25 26  2  0
  9 27  1  0
 28 14  1  1
 27 28  1  0
 28 29  1  0
 11 30  1  0
 29 30  1  0
 30 31  1  0
 27 32  1  0
 31 32  1  0
M  END
