x2562-x1336
     RDKit          3D

 42 46  0  0  0  0  0  0  0  0999 V2000
    6.0030   -5.1910   28.8700 C   0  0  0  0  0  0  0  0  0  0  0  0
    8.4160   -0.9500   25.0190 O   0  0  0  0  0  0  0  0  0  0  0  0
    6.0750   -1.2350   25.7950 O   0  0  0  0  0  0  0  0  0  0  0  0
    5.4080   -4.2790   19.8090 O   0  0  0  0  0  0  0  0  0  0  0  0
    9.8940   -3.4720   24.7510 C   0  0  0  0  0  0  0  0  0  0  0  0
    6.5190   -3.8430   20.1090 C   0  0  0  0  0  0  0  0  0  0  0  0
    7.4420   -3.1900   19.0660 C   0  0  0  0  0  0  0  0  0  0  0  0
    7.2270   -1.7710   25.1080 S   0  0  0  0  0  0  0  0  0  0  0  0
    8.5280   -0.0740   21.4530 C   0  0  0  0  0  0  0  0  0  0  0  0
    8.4310    1.1260   21.1490 O   0  0  0  0  0  0  0  0  0  0  0  0
    7.5330   -0.9100   21.1390 C   0  0  1  0  0  0  0  0  0  0  0  0
   12.1010    2.9800   23.3070 O   0  0  0  0  0  0  0  0  0  0  0  0
    9.5540   -0.8400   22.1220 N   0  0  0  0  0  0  0  0  0  0  0  0
   13.0100    6.9110   22.6540 O   0  0  0  0  0  0  0  0  0  0  0  0
    7.0720   -4.8130   27.8130 C   0  0  0  0  0  0  0  0  0  0  0  0
    6.7870   -3.6970   27.0350 C   0  0  0  0  0  0  0  0  0  0  0  0
    7.6380   -3.2090   26.0340 C   0  0  0  0  0  0  0  0  0  0  0  0
    8.8680   -3.8750   25.7820 C   0  0  0  0  0  0  0  0  0  0  0  0
    9.1190   -5.0020   26.5920 C   0  0  0  0  0  0  0  0  0  0  0  0
    8.2720   -5.4860   27.5880 C   0  0  0  0  0  0  0  0  0  0  0  0
    7.0060   -3.9840   21.4130 N   0  0  0  0  0  0  0  0  0  0  0  0
    6.1840   -4.2280   22.5140 C   0  0  0  0  0  0  0  0  0  0  0  0
    5.6900   -3.1360   23.2480 C   0  0  0  0  0  0  0  0  0  0  0  0
    6.7000   -2.0460   23.4580 N   0  0  0  0  0  0  0  0  0  0  0  0
    7.5670   -1.8970   22.4190 C   0  0  1  0  0  0  0  0  0  0  0  0
    8.0050   -3.2000   21.8030 C   0  0  0  0  0  0  0  0  0  0  0  0
    4.4900    1.1730   19.7030 N   0  0  0  0  0  0  0  0  0  0  0  0
    4.9620    1.0700   18.4250 C   0  0  0  0  0  0  0  0  0  0  0  0
    6.0650    0.4420   17.9470 N   0  0  0  0  0  0  0  0  0  0  0  0
    6.7940   -0.1600   18.9100 C   0  0  0  0  0  0  0  0  0  0  0  0
    6.4850   -0.1640   20.2710 C   0  0  0  0  0  0  0  0  0  0  0  0
    5.3440    0.4860   20.6930 C   0  0  0  0  0  0  0  0  0  0  0  0
   12.5440    4.7700   21.7620 N   0  0  0  0  0  0  0  0  0  0  0  0
   13.4150    5.5850   22.3530 C   0  0  2  0  0  0  0  0  0  0  0  0
   13.6010    4.8160   23.3340 C   0  0  0  0  0  0  0  0  0  0  0  0
   13.0710    3.7670   22.6690 C   0  0  1  0  0  0  0  0  0  0  0  0
   11.9280   -1.1020   22.2870 C   0  0  0  0  0  0  0  0  0  0  0  0
   13.1140   -0.4630   22.5360 C   0  0  0  0  0  0  0  0  0  0  0  0
   13.2760    0.9080   22.8740 C   0  0  0  0  0  0  0  0  0  0  0  0
   12.1240    1.6520   22.9800 C   0  0  0  0  0  0  0  0  0  0  0  0
   10.9330    1.0790   22.7470 C   0  0  0  0  0  0  0  0  0  0  0  0
   10.7870   -0.3530   22.3710 C   0  0  0  0  0  0  0  0  0  0  0  0
  4  6  2  0
  6  7  1  0
  2  8  2  0
  3  8  2  0
  9 10  2  0
 11  9  1  1
  9 13  1  0
  1 15  1  0
 15 16  2  0
  8 17  1  0
 16 17  1  0
  5 18  1  0
 17 18  2  0
 18 19  1  0
 15 20  1  0
 19 20  2  0
  6 21  1  0
 21 22  1  0
 22 23  1  0
  8 24  1  0
 23 24  1  0
 11 25  1  0
 24 25  1  0
 21 26  1  0
 25 26  1  6
 27 28  2  0
 28 29  1  0
 29 30  2  0
 11 31  1  0
 30 31  1  0
 27 32  1  0
 31 32  2  0
 34 14  1  1
 33 34  1  0
 34 35  1  0
 36 12  1  1
 33 36  1  0
 35 36  1  0
 37 38  2  0
 38 39  1  0
 12 40  1  0
 39 40  2  0
 40 41  1  0
 13 42  1  0
 37 42  1  0
 41 42  2  0
M  END
