x2563-x1386
     RDKit          3D

 31 35  0  0  0  0  0  0  0  0999 V2000
    8.3050   -0.4800   21.2890 C   0  0  0  0  0  0  0  0  0  0  0  0
    8.6640    0.8770   20.9610 O   0  0  0  0  0  0  0  0  0  0  0  0
    7.5320   -2.9630   18.5830 C   0  0  0  0  0  0  0  0  0  0  0  0
    5.5980   -3.7930   19.6290 O   0  0  0  0  0  0  0  0  0  0  0  0
    6.6700   -3.1490   19.7710 C   0  0  0  0  0  0  0  0  0  0  0  0
   10.1530   -2.7280   23.5420 C   0  0  0  0  0  0  0  0  0  0  0  0
    7.1910   -2.6690   20.9890 N   0  0  0  0  0  0  0  0  0  0  0  0
    7.2150   -1.5410   21.2790 C   0  0  2  0  0  0  0  0  0  0  0  0
    8.7100   -1.6810   21.8510 C   0  0  2  0  0  0  0  0  0  0  0  0
    8.7600   -2.2010   23.1210 C   0  0  1  0  0  0  0  0  0  0  0  0
    7.9230   -3.3070   23.2520 C   0  0  0  0  0  0  0  0  0  0  0  0
    7.1200   -3.6130   22.1290 C   0  0  0  0  0  0  0  0  0  0  0  0
   11.4770   -0.4860   23.0280 C   0  0  0  0  0  0  0  0  0  0  0  0
   12.1540    0.6860   23.1440 C   0  0  0  0  0  0  0  0  0  0  0  0
   11.4830    1.6640   23.7630 C   0  0  0  0  0  0  0  0  0  0  0  0
   10.0800    1.4540   24.2930 C   0  0  0  0  0  0  0  0  0  0  0  0
    9.1250    0.2210   24.2800 C   0  0  0  0  0  0  0  0  0  0  0  0
   10.1680   -0.6700   23.5240 C   0  0  0  0  0  0  0  0  0  0  0  0
    8.3650   -1.0950   24.1560 C   0  0  0  0  0  0  0  0  0  0  0  0
    6.2890    0.7360   17.4690 N   0  0  0  0  0  0  0  0  0  0  0  0
    5.1160    1.4700   17.8900 C   0  0  0  0  0  0  0  0  0  0  0  0
    4.6030    1.5060   19.3010 C   0  0  0  0  0  0  0  0  0  0  0  0
    5.3750    0.7710   20.1870 C   0  0  0  0  0  0  0  0  0  0  0  0
    6.5250    0.0510   19.7970 C   0  0  0  0  0  0  0  0  0  0  0  0
    7.0080    0.0010   18.4830 C   0  0  0  0  0  0  0  0  0  0  0  0
    3.4770    2.2030   19.6750 C   0  0  0  0  0  0  0  0  0  0  0  0
    3.0650    2.1950   21.0000 C   0  0  0  0  0  0  0  0  0  0  0  0
    3.8190    1.4750   21.9200 C   0  0  0  0  0  0  0  0  0  0  0  0
    4.9430    0.7860   21.5140 C   0  0  0  0  0  0  0  0  0  0  0  0
    6.0310   -1.2890   22.1500 C   0  0  0  0  0  0  0  0  0  0  0  0
    5.7570    0.0160   22.5180 C   0  0  0  0  0  0  0  0  0  0  0  0
  1  2  2  0
  3  5  1  0
  4  5  2  0
  5  7  1  0
  1  8  1  0
  7  8  1  0
  9  1  1  1
  8  9  1  0
 10  6  1  1
  9 10  1  0
 10 11  1  0
  7 12  1  0
 11 12  1  0
 13 14  2  0
 14 15  1  0
 15 16  2  0
 16 17  1  0
 13 18  1  0
 17 18  2  0
 10 19  1  0
 17 19  1  0
 20 21  2  0
 21 22  1  0
 22 23  2  0
 23 24  1  0
 20 25  1  0
 24 25  2  0
 22 26  1  0
 26 27  2  0
 27 28  1  0
 23 29  1  0
 28 29  2  0
  8 30  1  1
 29 31  1  0
 30 31  1  0
M  END
