x2563-x2779
     RDKit          3D

 31 35  0  0  0  0  0  0  0  0999 V2000
    8.2930   -0.5680   21.3030 C   0  0  0  0  0  0  0  0  0  0  0  0
    8.6560    0.7900   20.9690 O   0  0  0  0  0  0  0  0  0  0  0  0
    7.5410   -2.9980   18.6580 C   0  0  0  0  0  0  0  0  0  0  0  0
    5.5890   -3.8660   19.6580 O   0  0  0  0  0  0  0  0  0  0  0  0
    6.6520   -3.2170   19.8190 C   0  0  0  0  0  0  0  0  0  0  0  0
   10.2200   -2.7830   23.4960 C   0  0  0  0  0  0  0  0  0  0  0  0
    7.1520   -2.7520   21.0410 N   0  0  0  0  0  0  0  0  0  0  0  0
    7.1940   -1.6200   21.3200 C   0  0  2  0  0  0  0  0  0  0  0  0
    8.7040   -1.7750   21.8480 C   0  0  2  0  0  0  0  0  0  0  0  0
    8.8000   -2.2980   23.1130 C   0  0  1  0  0  0  0  0  0  0  0  0
    7.9970   -3.4320   23.2520 C   0  0  0  0  0  0  0  0  0  0  0  0
    7.1300   -3.7100   22.1730 C   0  0  0  0  0  0  0  0  0  0  0  0
   11.4810   -0.4930   23.0120 C   0  0  0  0  0  0  0  0  0  0  0  0
   12.1300    0.6900   23.1500 C   0  0  0  0  0  0  0  0  0  0  0  0
   11.4430    1.6380   23.7970 C   0  0  0  0  0  0  0  0  0  0  0  0
   10.0480    1.3800   24.3330 C   0  0  0  0  0  0  0  0  0  0  0  0
    9.1230    0.1280   24.2980 C   0  0  0  0  0  0  0  0  0  0  0  0
   10.1780   -0.7220   23.5130 C   0  0  0  0  0  0  0  0  0  0  0  0
    8.3870   -1.2030   24.1510 C   0  0  0  0  0  0  0  0  0  0  0  0
    6.2880    0.7210   17.4810 N   0  0  0  0  0  0  0  0  0  0  0  0
    5.1170    1.4550   17.9070 C   0  0  0  0  0  0  0  0  0  0  0  0
    4.6080    1.4830   19.3200 C   0  0  0  0  0  0  0  0  0  0  0  0
    5.3820    0.7440   20.2030 C   0  0  0  0  0  0  0  0  0  0  0  0
    6.5310    0.0240   19.8080 C   0  0  0  0  0  0  0  0  0  0  0  0
    7.0090   -0.0210   18.4910 C   0  0  0  0  0  0  0  0  0  0  0  0
    3.4840    2.1800   19.6970 C   0  0  0  0  0  0  0  0  0  0  0  0
    3.0740    2.1670   21.0230 C   0  0  0  0  0  0  0  0  0  0  0  0
    3.8280    1.4420   21.9400 C   0  0  0  0  0  0  0  0  0  0  0  0
    4.9520    0.7520   21.5350 C   0  0  0  0  0  0  0  0  0  0  0  0
    6.0200   -1.3410   22.1970 C   0  0  0  0  0  0  0  0  0  0  0  0
    5.7610   -0.0240   22.5420 C   0  0  0  0  0  0  0  0  0  0  0  0
  1  2  2  0
  3  5  1  0
  4  5  2  0
  5  7  1  0
  1  8  1  0
  7  8  1  0
  9  1  1  1
  8  9  1  0
 10  6  1  1
  9 10  1  0
 10 11  1  0
  7 12  1  0
 11 12  1  0
 13 14  2  0
 14 15  1  0
 15 16  2  0
 16 17  1  0
 13 18  1  0
 17 18  2  0
 10 19  1  0
 17 19  1  0
 20 21  2  0
 21 22  1  0
 22 23  2  0
 23 24  1  0
 20 25  1  0
 24 25  2  0
 22 26  1  0
 26 27  2  0
 27 28  1  0
 23 29  1  0
 28 29  2  0
  8 30  1  1
 29 31  1  0
 30 31  1  0
M  END
