x2562-x0731
     RDKit          3D

 43 47  0  0  0  0  0  0  0  0999 V2000
    0.8450   -0.9030   26.0530 C   0  0  0  0  0  0  0  0  0  0  0  0
    6.5180   -4.6080   26.5660 O   0  0  0  0  0  0  0  0  0  0  0  0
    4.7000   -6.7650   26.0300 O   0  0  0  0  0  0  0  0  0  0  0  0
    5.2990   -5.1400   19.9940 O   0  0  0  0  0  0  0  0  0  0  0  0
    6.2990   -4.6110   20.4370 C   0  0  0  0  0  0  0  0  0  0  0  0
    6.9760   -3.5160   19.6290 C   0  0  0  0  0  0  0  0  0  0  0  0
    5.4190   -5.1000   25.7670 S   0  0  0  0  0  0  0  0  0  0  0  0
    8.3440   -0.2290   21.4070 C   0  0  0  0  0  0  0  0  0  0  0  0
    8.4080    0.9970   21.2270 O   0  0  0  0  0  0  0  0  0  0  0  0
    7.2060   -1.0610   20.9090 C   0  0  1  0  0  0  0  0  0  0  0  0
   12.0260    2.9200   23.3150 O   0  0  0  0  0  0  0  0  0  0  0  0
    9.4330   -0.8660   22.1280 N   0  0  0  0  0  0  0  0  0  0  0  0
   12.7070    6.6740   22.3030 O   0  0  0  0  0  0  0  0  0  0  0  0
    5.9440   -2.9600   22.1410 C   0  0  0  0  0  0  0  0  0  0  0  0
    6.4040   -1.5610   22.1380 C   0  0  0  0  0  0  0  0  0  0  0  0
    1.9220   -1.9420   25.9600 C   0  0  0  0  0  0  0  0  0  0  0  0
    1.7580   -3.3420   25.3470 C   0  0  0  0  0  0  0  0  0  0  0  0
    2.8290   -4.2130   25.3230 C   0  0  0  0  0  0  0  0  0  0  0  0
    4.0840   -3.9260   25.8210 C   0  0  0  0  0  0  0  0  0  0  0  0
    4.2990   -2.6790   26.3830 C   0  0  0  0  0  0  0  0  0  0  0  0
    3.3340   -1.6560   26.4990 C   0  0  0  0  0  0  0  0  0  0  0  0
    6.8590   -5.0050   21.6470 N   0  0  0  0  0  0  0  0  0  0  0  0
    6.9980   -3.9950   22.5120 C   0  0  2  0  0  0  0  0  0  0  0  0
    7.0680   -4.4170   23.8510 C   0  0  0  0  0  0  0  0  0  0  0  0
    5.9510   -5.0490   24.1740 N   0  0  0  0  0  0  0  0  0  0  0  0
    5.5490   -5.9760   23.2830 C   0  0  0  0  0  0  0  0  0  0  0  0
    6.4240   -6.2530   22.2630 C   0  0  0  0  0  0  0  0  0  0  0  0
    4.4740    1.5300   19.4230 N   0  0  0  0  0  0  0  0  0  0  0  0
    5.0040    1.4390   18.1660 C   0  0  0  0  0  0  0  0  0  0  0  0
    6.1580    0.6140   17.6990 N   0  0  0  0  0  0  0  0  0  0  0  0
    6.8800   -0.2330   18.6760 C   0  0  0  0  0  0  0  0  0  0  0  0
    6.4060   -0.1890   19.9840 C   0  0  0  0  0  0  0  0  0  0  0  0
    5.2130    0.6730   20.3860 C   0  0  0  0  0  0  0  0  0  0  0  0
   12.5150    4.4090   21.5750 N   0  0  0  0  0  0  0  0  0  0  0  0
   13.3630    5.5020   22.1330 C   0  0  2  0  0  0  0  0  0  0  0  0
   13.4680    4.8740   23.4700 C   0  0  0  0  0  0  0  0  0  0  0  0
   13.0150    3.6600   22.7660 C   0  0  1  0  0  0  0  0  0  0  0  0
   11.7960   -1.1390   22.3400 C   0  0  0  0  0  0  0  0  0  0  0  0
   13.0330   -0.5790   22.6000 C   0  0  0  0  0  0  0  0  0  0  0  0
   13.0970    0.7700   22.9140 C   0  0  0  0  0  0  0  0  0  0  0  0
   11.9810    1.5860   22.9920 C   0  0  0  0  0  0  0  0  0  0  0  0
   10.7660    1.0210   22.7320 C   0  0  0  0  0  0  0  0  0  0  0  0
   10.6580   -0.3210   22.4040 C   0  0  0  0  0  0  0  0  0  0  0  0
  4  5  2  0
  5  6  1  0
  2  7  2  0
  3  7  2  0
  8  9  2  0
  8 10  1  0
  8 12  1  0
 10 15  1  1
 14 15  1  0
  1 16  1  0
 16 17  2  0
 17 18  1  0
  7 19  1  0
 18 19  2  0
 19 20  1  0
 16 21  1  0
 20 21  2  0
  5 22  1  0
 23 14  1  1
 22 23  1  0
 23 24  1  0
  7 25  1  0
 24 25  1  0
 25 26  1  0
 22 27  1  0
 26 27  1  0
 28 29  2  0
 29 30  1  0
 30 31  2  0
 10 32  1  0
 31 32  1  0
 28 33  1  0
 32 33  2  0
 35 13  1  1
 34 35  1  0
 35 36  1  0
 37 11  1  1
 34 37  1  0
 36 37  1  0
 38 39  2  0
 39 40  1  0
 11 41  1  0
 40 41  2  0
 41 42  1  0
 12 43  1  0
 38 43  1  0
 42 43  2  0
M  END
