x2562-x2119
     RDKit          3D

 29 32  0  0  0  0  0  0  0  0999 V2000
    8.3570   -0.2010   21.3960 C   0  0  0  0  0  0  0  0  0  0  0  0
    8.4350    1.0270   21.4720 O   0  0  0  0  0  0  0  0  0  0  0  0
    7.3460   -0.9570   20.6070 C   0  0  2  0  0  0  0  0  0  0  0  0
   12.2580    2.9260   23.3450 O   0  0  0  0  0  0  0  0  0  0  0  0
    9.3510   -0.9710   22.0960 N   0  0  0  0  0  0  0  0  0  0  0  0
   13.3830    6.7980   22.0740 O   0  0  0  0  0  0  0  0  0  0  0  0
    5.7800   -5.2310   20.0550 N   0  0  0  0  0  0  0  0  0  0  0  0
    6.4640   -4.1500   20.0170 C   0  0  0  0  0  0  0  0  0  0  0  0
    4.5760    1.4610   19.4930 N   0  0  0  0  0  0  0  0  0  0  0  0
    4.9650    1.5650   18.2090 C   0  0  0  0  0  0  0  0  0  0  0  0
    6.1060    0.8860   17.5940 N   0  0  0  0  0  0  0  0  0  0  0  0
    6.8810    0.0290   18.4790 C   0  0  0  0  0  0  0  0  0  0  0  0
    6.5070   -0.0860   19.7880 C   0  0  0  0  0  0  0  0  0  0  0  0
    5.3810    0.6220   20.2400 C   0  0  0  0  0  0  0  0  0  0  0  0
   12.4810    4.6340   21.6590 N   0  0  0  0  0  0  0  0  0  0  0  0
   12.5960    5.8140   22.5520 C   0  0  1  0  0  0  0  0  0  0  0  0
   13.2910    4.9550   23.3130 C   0  0  0  0  0  0  0  0  0  0  0  0
   13.1480    3.7720   22.6680 C   0  0  1  0  0  0  0  0  0  0  0  0
   11.7990   -1.2240   22.2860 C   0  0  0  0  0  0  0  0  0  0  0  0
   12.9950   -0.6060   22.5470 C   0  0  0  0  0  0  0  0  0  0  0  0
   13.1360    0.7300   22.8790 C   0  0  0  0  0  0  0  0  0  0  0  0
   12.0760    1.6200   23.0010 C   0  0  0  0  0  0  0  0  0  0  0  0
   10.7130    1.0010   22.7230 C   0  0  0  0  0  0  0  0  0  0  0  0
   10.6390   -0.4900   22.3490 C   0  0  0  0  0  0  0  0  0  0  0  0
    6.2280   -3.2440   21.1350 C   0  0  0  0  0  0  0  0  0  0  0  0
    5.4510   -3.7500   22.2440 N   0  0  0  0  0  0  0  0  0  0  0  0
    5.3900   -2.6490   23.1660 C   0  0  0  0  0  0  0  0  0  0  0  0
    6.0650   -1.5530   22.6770 C   0  0  0  0  0  0  0  0  0  0  0  0
    6.5800   -1.9000   21.4300 N   0  0  0  0  0  0  0  0  0  0  0  0
  1  2  2  0
  3  1  1  1
  1  5  1  0
  7  8  2  3
  9 10  2  0
 10 11  1  0
 11 12  2  0
  3 13  1  0
 12 13  1  0
  9 14  1  0
 13 14  2  0
 16  6  1  6
 15 16  1  0
 16 17  1  0
 18  4  1  1
 15 18  1  0
 17 18  1  0
 19 20  2  0
 20 21  1  0
  4 22  1  0
 21 22  2  0
 22 23  1  0
  5 24  1  0
 19 24  1  0
 23 24  2  0
  8 25  1  0
 25 26  2  0
 26 27  1  0
 27 28  2  0
  3 29  1  0
 25 29  1  0
 28 29  1  0
M  END
