x2569-x3124
     RDKit          3D

 29 30  0  0  0  0  0  0  0  0999 V2000
    6.7690   -1.7070   21.9140 N   0  0  0  0  0  0  0  0  0  0  0  0
    6.6800   -4.7960   20.4000 C   0  0  0  0  0  0  0  0  0  0  0  0
    4.7780   -3.0020   21.2930 O   0  0  0  0  0  0  0  0  0  0  0  0
    6.8010   -4.1910   21.5900 C   0  0  0  0  0  0  0  0  0  0  0  0
    7.4850    1.6150   23.1350 N   0  0  0  0  0  0  0  0  0  0  0  0
    8.7630    0.6390   21.4290 O   0  0  0  0  0  0  0  0  0  0  0  0
    6.0140   -2.9080   21.5800 C   0  0  0  0  0  0  0  0  0  0  0  0
    6.4740   -0.2490   21.6560 C   0  0  1  0  0  0  0  0  0  0  0  0
    7.6890    0.6500   22.0200 C   0  0  0  0  0  0  0  0  0  0  0  0
    8.0040    2.8800   23.0000 C   0  0  0  0  0  0  0  0  0  0  0  0
   11.9630   -2.0210   24.4120 C   0  0  0  0  0  0  0  0  0  0  0  0
   12.2120   -0.8240   25.1200 C   0  0  0  0  0  0  0  0  0  0  0  0
   13.0430   -2.0990   23.6370 C   0  0  0  0  0  0  0  0  0  0  0  0
   11.8930   -3.2260   25.3970 C   0  0  0  0  0  0  0  0  0  0  0  0
    6.3620    0.3130   17.9130 N   0  0  0  0  0  0  0  0  0  0  0  0
    5.1700    1.1470   17.8320 C   0  0  0  0  0  0  0  0  0  0  0  0
    4.4400    1.4750   18.9550 C   0  0  0  0  0  0  0  0  0  0  0  0
    4.8660    1.0060   20.1710 C   0  0  0  0  0  0  0  0  0  0  0  0
    5.9940    0.2230   20.3110 C   0  0  0  0  0  0  0  0  0  0  0  0
    6.7150   -0.1090   19.1500 C   0  0  0  0  0  0  0  0  0  0  0  0
    9.1830   -1.8080   21.6810 C   0  0  0  0  0  0  0  0  0  0  0  0
   10.6030   -1.8890   22.2310 C   0  0  0  0  0  0  0  0  0  0  0  0
   10.7030   -1.9380   23.6000 C   0  0  0  0  0  0  0  0  0  0  0  0
    9.5880   -1.9180   24.4150 C   0  0  0  0  0  0  0  0  0  0  0  0
    8.2730   -1.8470   23.9240 C   0  0  0  0  0  0  0  0  0  0  0  0
    8.0720   -1.7910   22.5180 C   0  0  0  0  0  0  0  0  0  0  0  0
   13.9460   -1.3030   20.3210 N   0  0  0  0  0  0  0  0  0  0  0  0
   13.4860   -1.1470   21.6480 C   0  0  0  0  0  0  0  0  0  0  0  0
   13.1270   -0.9540   22.9150 C   0  0  0  0  0  0  0  0  0  0  0  0
  2  4  1  0
  1  7  1  0
  3  7  2  0
  4  7  1  0
  1  8  1  0
  5  9  1  0
  6  9  2  0
  8  9  1  6
  5 10  1  0
 11 12  1  0
 11 13  1  0
 11 14  1  0
 15 16  2  0
 16 17  1  0
 17 18  2  0
  8 19  1  0
 18 19  1  0
 15 20  1  0
 19 20  2  0
 21 22  2  0
 11 23  1  0
 22 23  1  0
 23 24  2  0
 24 25  1  0
  1 26  1  0
 21 26  1  0
 25 26  2  0
 27 28  3  0
 13 29  1  0
 28 29  1  0
M  END
