x2563-x1311
     RDKit          3D

 40 44  0  0  0  0  0  0  0  0999 V2000
    5.7440   -4.8110   20.0700 O   0  0  0  0  0  0  0  0  0  0  0  0
    6.5900   -4.6120   21.0000 C   0  0  0  0  0  0  0  0  0  0  0  0
    8.0820   -4.4180   20.6920 C   0  0  0  0  0  0  0  0  0  0  0  0
    6.2670   -4.4990   22.5380 C   0  0  2  0  0  0  0  0  0  0  0  0
    3.8700   -7.6850   25.3160 O   0  0  0  0  0  0  0  0  0  0  0  0
    2.2930   -5.8450   24.7800 O   0  0  0  0  0  0  0  0  0  0  0  0
    8.2190   -0.1550   21.0770 C   0  0  0  0  0  0  0  0  0  0  0  0
    8.2870    1.0760   21.0090 O   0  0  0  0  0  0  0  0  0  0  0  0
    7.3260   -0.8580   20.3260 C   0  0  1  0  0  0  0  0  0  0  0  0
    9.0220   -1.0040   21.9080 N   0  0  0  0  0  0  0  0  0  0  0  0
    6.0800   -3.0360   22.7840 C   0  0  0  0  0  0  0  0  0  0  0  0
    6.8830   -2.2020   22.1130 C   0  0  0  0  0  0  0  0  0  0  0  0
    6.4510   -1.9090   20.8740 C   0  0  0  0  0  0  0  0  0  0  0  0
    8.3440   -5.8240   23.0380 C   0  0  0  0  0  0  0  0  0  0  0  0
    9.3620   -6.0950   23.9250 C   0  0  0  0  0  0  0  0  0  0  0  0
    9.5260   -5.4970   25.1580 C   0  0  0  0  0  0  0  0  0  0  0  0
    8.6680   -4.5360   25.6480 C   0  0  0  0  0  0  0  0  0  0  0  0
    7.5080   -4.1530   24.7540 C   0  0  0  0  0  0  0  0  0  0  0  0
    7.4060   -4.8780   23.3990 C   0  0  0  0  0  0  0  0  0  0  0  0
    4.4350   -6.2470   22.2740 C   0  0  0  0  0  0  0  0  0  0  0  0
    4.9790   -5.1140   23.0220 C   0  0  1  0  0  0  0  0  0  0  0  0
    4.9200   -5.3970   24.4970 C   0  0  0  0  0  0  0  0  0  0  0  0
    3.5410   -6.5210   24.5150 S   0  0  0  0  0  0  0  0  0  0  0  0
    3.5700   -7.0250   22.9360 C   0  0  0  0  0  0  0  0  0  0  0  0
    6.1790    1.0400   17.3840 N   0  0  0  0  0  0  0  0  0  0  0  0
    5.0360    1.7160   17.9210 C   0  0  0  0  0  0  0  0  0  0  0  0
    4.6200    1.5750   19.2550 C   0  0  0  0  0  0  0  0  0  0  0  0
    5.3770    0.7180   20.1030 C   0  0  0  0  0  0  0  0  0  0  0  0
    6.4780    0.0700   19.5590 C   0  0  0  0  0  0  0  0  0  0  0  0
    6.8570    0.2180   18.3080 C   0  0  0  0  0  0  0  0  0  0  0  0
    3.4960    2.2590   19.7310 C   0  0  0  0  0  0  0  0  0  0  0  0
    3.1200    2.1000   21.0500 C   0  0  0  0  0  0  0  0  0  0  0  0
    3.8450    1.2690   21.9040 C   0  0  0  0  0  0  0  0  0  0  0  0
    4.9590    0.5820   21.4380 C   0  0  0  0  0  0  0  0  0  0  0  0
   11.3790   -0.6800   22.4010 C   0  0  0  0  0  0  0  0  0  0  0  0
   12.3080   -0.0320   23.1640 C   0  0  0  0  0  0  0  0  0  0  0  0
   11.8480    0.8120   24.1200 C   0  0  0  0  0  0  0  0  0  0  0  0
   10.5010    1.0380   24.3580 C   0  0  0  0  0  0  0  0  0  0  0  0
    9.5690    0.4060   23.6100 C   0  0  0  0  0  0  0  0  0  0  0  0
   10.0280   -0.4430   22.6320 C   0  0  0  0  0  0  0  0  0  0  0  0
  1  2  2  0
  2  3  1  0
  4  2  1  0
  7  8  2  0
  7  9  1  0
  7 10  1  0
  4 11  1  6
 11 12  1  0
  9 13  1  1
 12 13  1  0
 14 15  2  0
 15 16  1  0
 16 17  2  0
 17 18  1  0
  4 19  1  0
 14 19  1  0
 18 19  2  0
  4 21  1  0
 21 20  1  6
 21 22  1  0
 23  5  1  0
  6 23  1  0
 22 23  1  0
 20 24  2  0
 23 24  1  0
 25 26  2  0
 26 27  1  0
 27 28  2  0
  9 29  1  0
 28 29  1  0
 25 30  1  0
 29 30  2  0
 27 31  1  0
 31 32  2  0
 32 33  1  0
 28 34  1  0
 33 34  2  0
 35 36  2  0
 36 37  1  0
 37 38  2  0
 38 39  1  0
 10 40  1  0
 35 40  1  0
 39 40  2  0
M  END
