x2563-x2705
     RDKit          3D

 35 39  0  0  0  0  0  0  0  0999 V2000
    6.5920   -1.7650   22.3730 N   0  0  0  0  0  0  0  0  0  0  0  0
    6.7960   -4.7880   20.4870 C   0  0  0  0  0  0  0  0  0  0  0  0
    4.8040   -3.1030   21.4230 O   0  0  0  0  0  0  0  0  0  0  0  0
    6.9920   -4.0440   21.8020 C   0  0  0  0  0  0  0  0  0  0  0  0
    7.3930    1.6110   22.7750 N   0  0  0  0  0  0  0  0  0  0  0  0
    8.2620    0.9350   20.7700 O   0  0  0  0  0  0  0  0  0  0  0  0
    6.0060   -2.9300   21.8330 C   0  0  0  0  0  0  0  0  0  0  0  0
    6.6000   -0.4670   21.7160 C   0  0  1  0  0  0  0  0  0  0  0  0
    7.7200    0.4000   21.9620 C   0  0  2  0  0  0  0  0  0  0  0  0
   10.0580    1.8530   23.9830 C   0  0  0  0  0  0  0  0  0  0  0  0
    9.2590    1.2600   24.9580 C   0  0  0  0  0  0  0  0  0  0  0  0
    6.0940    4.1550   21.7350 C   0  0  0  0  0  0  0  0  0  0  0  0
   12.1170   -1.8530   23.1960 C   0  0  0  0  0  0  0  0  0  0  0  0
   12.9630   -1.0250   23.9450 C   0  0  0  0  0  0  0  0  0  0  0  0
   12.7190   -2.5110   24.4790 C   0  0  0  0  0  0  0  0  0  0  0  0
   12.8380   -2.0570   21.8850 C   0  0  0  0  0  0  0  0  0  0  0  0
    5.2250    0.8160   18.8380 C   0  0  2  0  0  0  0  0  0  0  0  0
    6.4540    1.4500   19.2230 C   0  0  0  0  0  0  0  0  0  0  0  0
    5.9470    0.7170   20.2990 C   0  0  2  0  0  0  0  0  0  0  0  0
    6.1620   -0.7990   20.2720 C   0  0  0  0  0  0  0  0  0  0  0  0
    5.6140   -0.6420   18.8580 C   0  0  0  0  0  0  0  0  0  0  0  0
    9.8760   -1.5240   24.2680 N   0  0  0  0  0  0  0  0  0  0  0  0
    8.7200   -0.8970   23.8580 N   0  0  0  0  0  0  0  0  0  0  0  0
    8.8510   -0.3750   22.6020 C   0  0  0  0  0  0  0  0  0  0  0  0
   10.0880   -0.6750   22.1620 C   0  0  0  0  0  0  0  0  0  0  0  0
   10.6910   -1.3520   23.1990 C   0  0  0  0  0  0  0  0  0  0  0  0
    9.3330    3.0470   23.4410 C   0  0  0  0  0  0  0  0  0  0  0  0
    9.9600    4.3050   23.5310 C   0  0  0  0  0  0  0  0  0  0  0  0
    9.3580    5.4600   23.0600 C   0  0  0  0  0  0  0  0  0  0  0  0
    8.0990    5.3440   22.4840 C   0  0  0  0  0  0  0  0  0  0  0  0
    7.4570    4.1070   22.3820 C   0  0  0  0  0  0  0  0  0  0  0  0
    8.0510    2.9120   22.8580 C   0  0  0  0  0  0  0  0  0  0  0  0
    3.7380    1.3600   19.5280 C   0  0  0  0  0  0  0  0  0  0  0  0
    3.7910    1.3370   21.0120 C   0  0  0  0  0  0  0  0  0  0  0  0
    4.6770    1.0750   20.2260 C   0  0  0  0  0  0  0  0  0  0  0  0
  2  4  1  0
  1  7  1  0
  3  7  2  0
  4  7  1  0
  8  1  1  6
  5  9  1  0
  9  6  1  6
  8  9  1  0
 10 11  1  0
 13 14  1  0
 13 15  1  0
 13 16  1  0
 17 18  1  6
 17 19  1  0
 19 18  1  6
  8 20  1  0
 19 20  1  0
 17 21  1  0
 20 21  2  0
 22 23  1  0
  9 24  1  0
 23 24  1  0
 24 25  2  0
 13 26  1  0
 22 26  2  0
 25 26  1  0
 10 27  1  0
 27 28  2  0
 28 29  1  0
 29 30  2  0
 12 31  1  0
 30 31  1  0
  5 32  1  0
 27 32  1  0
 31 32  2  0
 17 33  1  0
 33 34  1  0
 19 35  1  0
 34 35  2  0
M  END
