x2562-x0705
     RDKit          3D

 41 45  0  0  0  0  0  0  0  0999 V2000
    8.4690    0.2730   21.3670 C   0  0  0  0  0  0  0  0  0  0  0  0
    8.7150    1.4920   21.1960 O   0  0  0  0  0  0  0  0  0  0  0  0
    7.1130   -0.2940   21.1940 C   0  0  1  0  0  0  0  0  0  0  0  0
   12.0480    2.8300   23.3900 O   0  0  0  0  0  0  0  0  0  0  0  0
    9.3920   -0.7250   21.6820 N   0  0  0  0  0  0  0  0  0  0  0  0
   13.3730    6.7160   22.0340 O   0  0  0  0  0  0  0  0  0  0  0  0
    4.5980    1.8860   19.0360 N   0  0  0  0  0  0  0  0  0  0  0  0
    5.0940    1.6370   17.8030 C   0  0  0  0  0  0  0  0  0  0  0  0
    6.1030    0.8600   17.5650 N   0  0  0  0  0  0  0  0  0  0  0  0
    6.6390    0.3280   18.6490 C   0  0  0  0  0  0  0  0  0  0  0  0
    6.3630    0.3940   20.1520 C   0  0  0  0  0  0  0  0  0  0  0  0
    5.1850    1.2940   20.2340 C   0  0  0  0  0  0  0  0  0  0  0  0
   12.4190    4.5640   21.8290 N   0  0  0  0  0  0  0  0  0  0  0  0
   12.6820    5.7690   22.6970 C   0  0  1  0  0  0  0  0  0  0  0  0
   13.2570    5.0170   23.3580 C   0  0  0  0  0  0  0  0  0  0  0  0
   12.9950    3.6970   22.7410 C   0  0  1  0  0  0  0  0  0  0  0  0
   11.7130   -1.1780   22.1740 C   0  0  0  0  0  0  0  0  0  0  0  0
   12.9610   -0.7510   22.5940 C   0  0  0  0  0  0  0  0  0  0  0  0
   13.0790    0.5670   22.9830 C   0  0  0  0  0  0  0  0  0  0  0  0
   12.0210    1.4590   22.9910 C   0  0  0  0  0  0  0  0  0  0  0  0
   10.7830    1.0520   22.5860 C   0  0  0  0  0  0  0  0  0  0  0  0
   10.6300   -0.2720   22.1600 C   0  0  0  0  0  0  0  0  0  0  0  0
    0.9450   -2.6810   27.8940 C   0  0  0  0  0  0  0  0  0  0  0  0
    7.4300   -1.4750   26.4680 O   0  0  0  0  0  0  0  0  0  0  0  0
    5.6570   -4.0630   19.8100 O   0  0  0  0  0  0  0  0  0  0  0  0
    6.4520   -1.9380   25.5680 C   0  0  0  0  0  0  0  0  0  0  0  0
    6.6280   -3.9320   20.5840 C   0  0  0  0  0  0  0  0  0  0  0  0
    7.7860   -4.8200   20.5490 C   0  0  0  0  0  0  0  0  0  0  0  0
    2.3380   -2.4940   27.3030 C   0  0  0  0  0  0  0  0  0  0  0  0
    2.5530   -1.4350   26.2030 C   0  0  0  0  0  0  0  0  0  0  0  0
    3.9540   -1.2260   25.5900 C   0  0  0  0  0  0  0  0  0  0  0  0
    5.1140   -2.0920   26.1010 C   0  0  0  0  0  0  0  0  0  0  0  0
    4.7930   -3.0950   27.1760 C   0  0  0  0  0  0  0  0  0  0  0  0
    3.4070   -3.2840   27.7640 C   0  0  0  0  0  0  0  0  0  0  0  0
    6.7820   -2.8530   21.6070 C   0  0  0  0  0  0  0  0  0  0  0  0
    5.5810   -2.6600   22.2410 C   0  0  0  0  0  0  0  0  0  0  0  0
    5.5480   -2.9500   23.5850 C   0  0  0  0  0  0  0  0  0  0  0  0
    6.6570   -2.2380   24.2560 N   0  0  0  0  0  0  0  0  0  0  0  0
    7.9820   -2.3080   23.6100 C   0  0  0  0  0  0  0  0  0  0  0  0
    7.9620   -3.1810   22.5240 C   0  0  0  0  0  0  0  0  0  0  0  0
    7.2100   -1.7200   20.6940 C   0  0  0  0  0  0  0  0  0  0  0  0
  1  2  2  0
  1  3  1  0
  1  5  1  0
  7  8  2  0
  8  9  1  0
  9 10  2  0
  3 11  1  0
 10 11  1  0
  7 12  1  0
 11 12  2  0
 14  6  1  6
 13 14  1  0
 14 15  1  0
 16  4  1  1
 13 16  1  0
 15 16  1  0
 17 18  2  0
 18 19  1  0
  4 20  1  0
 19 20  2  0
 20 21  1  0
  5 22  1  0
 17 22  1  0
 21 22  2  0
 24 26  2  0
 25 27  2  0
 27 28  1  0
 23 29  1  0
 29 30  2  0
 30 31  1  0
 26 32  1  0
 31 32  2  0
 32 33  1  0
 29 34  1  0
 33 34  2  0
 35 27  1  0
 35 36  1  0
 36 37  1  0
 26 38  1  0
 37 38  1  0
 38 39  1  0
 35 40  1  0
 39 40  1  0
  3 41  1  6
 35 41  1  0
M  END
