x2563-x2119
     RDKit          3D

 27 30  0  0  0  0  0  0  0  0999 V2000
    8.3930   -0.4710   21.2980 C   0  0  0  0  0  0  0  0  0  0  0  0
    8.5270    0.9590   21.1770 O   0  0  0  0  0  0  0  0  0  0  0  0
    7.3040   -1.0980   20.4620 C   0  0  2  0  0  0  0  0  0  0  0  0
    9.1010   -1.3960   22.0580 N   0  0  0  0  0  0  0  0  0  0  0  0
    5.7960   -5.4150   20.0040 N   0  0  0  0  0  0  0  0  0  0  0  0
    6.4080   -4.2750   19.9980 C   0  0  0  0  0  0  0  0  0  0  0  0
    6.1810    0.8820   17.4670 N   0  0  0  0  0  0  0  0  0  0  0  0
    5.0520    1.6590   17.9280 C   0  0  0  0  0  0  0  0  0  0  0  0
    4.6780    1.5140   19.2420 C   0  0  0  0  0  0  0  0  0  0  0  0
    5.3900    0.5900   20.2180 C   0  0  0  0  0  0  0  0  0  0  0  0
    6.4580   -0.1330   19.7370 C   0  0  0  0  0  0  0  0  0  0  0  0
    6.8200    0.0150   18.4450 C   0  0  0  0  0  0  0  0  0  0  0  0
    3.4900    2.3350   19.7080 C   0  0  0  0  0  0  0  0  0  0  0  0
    3.1020    2.2080   21.0310 C   0  0  0  0  0  0  0  0  0  0  0  0
    3.7680    1.3590   21.9210 C   0  0  0  0  0  0  0  0  0  0  0  0
    4.8630    0.5810   21.5310 C   0  0  0  0  0  0  0  0  0  0  0  0
   11.3810   -0.8230   22.3940 C   0  0  0  0  0  0  0  0  0  0  0  0
   12.4410    0.0020   23.0810 C   0  0  0  0  0  0  0  0  0  0  0  0
   11.9030    0.9480   24.0920 C   0  0  0  0  0  0  0  0  0  0  0  0
   10.4250    1.0870   24.4380 C   0  0  0  0  0  0  0  0  0  0  0  0
    9.4400    0.2440   23.7260 C   0  0  0  0  0  0  0  0  0  0  0  0
   10.0380   -0.6940   22.6930 C   0  0  0  0  0  0  0  0  0  0  0  0
    6.1520   -3.3880   21.1030 C   0  0  0  0  0  0  0  0  0  0  0  0
    5.3790   -3.8110   22.2690 N   0  0  0  0  0  0  0  0  0  0  0  0
    5.3380   -2.7550   23.0950 C   0  0  0  0  0  0  0  0  0  0  0  0
    6.0380   -1.6340   22.5560 C   0  0  0  0  0  0  0  0  0  0  0  0
    6.5380   -1.9950   21.3300 N   0  0  0  0  0  0  0  0  0  0  0  0
  1  2  2  0
  3  1  1  1
  1  4  1  0
  5  6  2  3
  7  8  2  0
  8  9  1  0
  9 10  2  0
  3 11  1  0
 10 11  1  0
  7 12  1  0
 11 12  2  0
  9 13  1  0
 13 14  2  0
 14 15  1  0
 10 16  1  0
 15 16  2  0
 17 18  2  0
 18 19  1  0
 19 20  2  0
 20 21  1  0
  4 22  1  0
 17 22  1  0
 21 22  2  0
  6 23  1  0
 23 24  2  0
 24 25  1  0
 25 26  2  0
  3 27  1  0
 23 27  1  0
 26 27  1  0
M  END
