x2562-x2908
     RDKit          3D

 24 26  0  0  0  0  0  0  0  0999 V2000
    8.3120   -0.0630   21.3670 C   0  0  0  0  0  0  0  0  0  0  0  0
    8.5050    1.1510   21.3540 O   0  0  0  0  0  0  0  0  0  0  0  0
    6.9950   -0.7160   21.0500 C   0  0  0  0  0  0  0  0  0  0  0  0
   12.0510    3.0600   23.3540 O   0  0  0  0  0  0  0  0  0  0  0  0
    9.4530   -0.8970   21.6700 N   0  0  0  0  0  0  0  0  0  0  0  0
   13.4680    6.8390   22.3070 O   0  0  0  0  0  0  0  0  0  0  0  0
    4.8700    1.1710   21.7560 C   0  0  0  0  0  0  0  0  0  0  0  0
   13.1480   -2.2460   22.2300 Cl  0  0  0  0  0  0  0  0  0  0  0  0
    4.7140    1.6570   19.2500 N   0  0  0  0  0  0  0  0  0  0  0  0
    5.1330    1.4570   17.8890 C   0  0  0  0  0  0  0  0  0  0  0  0
    6.1220    0.5520   17.6570 N   0  0  0  0  0  0  0  0  0  0  0  0
    6.6570   -0.0960   18.6780 C   0  0  0  0  0  0  0  0  0  0  0  0
    6.3150    0.0480   19.9900 C   0  0  0  0  0  0  0  0  0  0  0  0
    5.2960    0.9670   20.2750 C   0  0  0  0  0  0  0  0  0  0  0  0
   12.4260    4.8340   21.7420 N   0  0  0  0  0  0  0  0  0  0  0  0
   12.6970    5.7860   22.6700 C   0  0  1  0  0  0  0  0  0  0  0  0
   13.3850    4.9410   23.3640 C   0  0  0  0  0  0  0  0  0  0  0  0
   12.9850    3.8590   22.6520 C   0  0  1  0  0  0  0  0  0  0  0  0
   11.7600   -1.3230   22.1460 C   0  0  0  0  0  0  0  0  0  0  0  0
   12.7920   -0.4590   22.6070 C   0  0  0  0  0  0  0  0  0  0  0  0
   12.8600    0.8650   22.9620 C   0  0  0  0  0  0  0  0  0  0  0  0
   11.8570    1.7610   22.9770 C   0  0  0  0  0  0  0  0  0  0  0  0
   10.5920    1.1160   22.5320 C   0  0  0  0  0  0  0  0  0  0  0  0
   10.6890   -0.3900   22.1420 C   0  0  0  0  0  0  0  0  0  0  0  0
  1  2  2  0
  1  3  1  0
  1  5  1  0
  9 10  2  0
 10 11  1  0
 11 12  2  0
  3 13  1  0
 12 13  1  0
  7 14  1  0
  9 14  1  0
 13 14  2  0
 16  6  1  6
 15 16  1  0
 16 17  1  0
 18  4  1  1
 15 18  1  0
 17 18  1  0
  8 19  1  0
 19 20  2  0
 20 21  1  0
  4 22  1  0
 21 22  2  0
 22 23  1  0
  5 24  1  0
 19 24  1  0
 23 24  2  0
M  END
