x2563-x2600
     RDKit          3D

 21 24  0  0  0  0  0  0  0  0999 V2000
   13.6740   -3.0640   20.5990 N   0  0  0  0  0  0  0  0  0  0  0  0
    8.2990    0.2940   21.4510 C   0  0  0  0  0  0  0  0  0  0  0  0
    8.8600    1.6000   21.1960 O   0  0  0  0  0  0  0  0  0  0  0  0
    8.6000   -0.2590   22.8640 C   0  0  0  0  0  0  0  0  0  0  0  0
    7.5680   -0.5020   20.6170 N   0  0  0  0  0  0  0  0  0  0  0  0
   13.1070   -2.1420   21.4220 C   0  0  0  0  0  0  0  0  0  0  0  0
    4.7380    0.4860   18.6110 C   0  0  1  0  0  0  0  0  0  0  0  0
    5.8880   -0.4670   18.8080 C   0  0  0  0  0  0  0  0  0  0  0  0
    6.6440   -0.1150   20.0800 C   0  0  0  0  0  0  0  0  0  0  0  0
    5.7480    0.7270   20.3050 C   0  0  0  0  0  0  0  0  0  0  0  0
    5.1400    1.6780   17.8940 C   0  0  0  0  0  0  0  0  0  0  0  0
   10.7370    0.5910   23.8620 C   0  0  0  0  0  0  0  0  0  0  0  0
   12.1110    0.5700   23.9410 C   0  0  0  0  0  0  0  0  0  0  0  0
   12.9210   -0.2670   23.2030 C   0  0  0  0  0  0  0  0  0  0  0  0
   12.3870   -1.1620   22.3120 C   0  0  0  0  0  0  0  0  0  0  0  0
   10.8910   -1.2130   22.1570 C   0  0  0  0  0  0  0  0  0  0  0  0
   10.0700   -0.2540   23.0060 C   0  0  0  0  0  0  0  0  0  0  0  0
    3.6500    1.1310   19.6400 C   0  0  0  0  0  0  0  0  0  0  0  0
    3.8290    1.2640   21.1830 C   0  0  0  0  0  0  0  0  0  0  0  0
    5.0430    0.5440   21.3450 C   0  0  0  0  0  0  0  0  0  0  0  0
    5.6660    1.6160   19.0880 C   0  0  0  0  0  0  0  0  0  0  0  0
  2  3  2  0
  2  4  1  0
  2  5  1  0
  1  6  3  0
  7  8  1  1
  5  9  1  0
  8  9  2  0
  9 10  1  0
  7 11  1  0
 12 13  2  0
 13 14  1  0
  6 15  1  0
 14 15  2  0
 15 16  1  0
  4 17  1  0
 12 17  1  0
 16 17  2  0
  7 18  1  0
 18 19  2  0
 10 20  2  0
 19 20  1  0
  7 21  1  0
 10 21  1  0
 11 21  2  0
M  END
