x2562-x2779
     RDKit          3D

 32 35  0  0  0  0  0  0  0  0999 V2000
    7.9800   -0.1090   21.3960 C   0  0  0  0  0  0  0  0  0  0  0  0
    7.5320    0.9790   20.9980 O   0  0  0  0  0  0  0  0  0  0  0  0
   12.0960    2.9940   23.1910 O   0  0  0  0  0  0  0  0  0  0  0  0
    8.8630   -0.2190   22.4770 N   0  0  0  0  0  0  0  0  0  0  0  0
   13.4410    6.7850   22.2390 O   0  0  0  0  0  0  0  0  0  0  0  0
    7.4080   -3.0380   18.6600 C   0  0  0  0  0  0  0  0  0  0  0  0
    5.6220   -4.1440   19.8050 O   0  0  0  0  0  0  0  0  0  0  0  0
    6.4900   -3.2380   19.8760 C   0  0  0  0  0  0  0  0  0  0  0  0
    9.9240   -2.7320   23.4520 C   0  0  0  0  0  0  0  0  0  0  0  0
   12.4330    4.8560   21.6160 N   0  0  0  0  0  0  0  0  0  0  0  0
   12.7860    5.8350   22.6150 C   0  0  1  0  0  0  0  0  0  0  0  0
   13.4830    4.9240   23.4090 C   0  0  0  0  0  0  0  0  0  0  0  0
   13.0640    3.8590   22.6040 C   0  0  1  0  0  0  0  0  0  0  0  0
   11.4250   -0.9810   22.4150 C   0  0  0  0  0  0  0  0  0  0  0  0
   12.8580   -0.4680   22.5700 C   0  0  0  0  0  0  0  0  0  0  0  0
   13.0890    0.8670   22.8290 C   0  0  0  0  0  0  0  0  0  0  0  0
   12.0710    1.7910   22.9600 C   0  0  0  0  0  0  0  0  0  0  0  0
   10.7680    1.3680   22.8290 C   0  0  0  0  0  0  0  0  0  0  0  0
   10.2980    0.0730   22.5710 C   0  0  0  0  0  0  0  0  0  0  0  0
    6.7140   -2.3450   20.9960 N   0  0  0  0  0  0  0  0  0  0  0  0
    7.7090   -1.4780   20.7600 C   0  0  2  0  0  0  0  0  0  0  0  0
    8.8780   -2.0910   21.3020 C   0  0  0  0  0  0  0  0  0  0  0  0
    8.6860   -2.4000   22.7480 N   0  0  0  0  0  0  0  0  0  0  0  0
    7.7260   -3.2760   22.9430 C   0  0  0  0  0  0  0  0  0  0  0  0
    6.6010   -2.8250   22.2560 C   0  0  0  0  0  0  0  0  0  0  0  0
    4.3400    1.4500   19.4570 N   0  0  0  0  0  0  0  0  0  0  0  0
    5.1070    1.6460   18.4050 C   0  0  0  0  0  0  0  0  0  0  0  0
    6.2130    0.9440   18.0180 N   0  0  0  0  0  0  0  0  0  0  0  0
    6.8860   -0.1510   18.5340 C   0  0  0  0  0  0  0  0  0  0  0  0
    6.0480   -0.3410   19.6470 C   0  0  0  0  0  0  0  0  0  0  0  0
    4.8250    0.4220   20.1030 C   0  0  0  0  0  0  0  0  0  0  0  0
    7.3790   -1.2390   19.2230 C   0  0  0  0  0  0  0  0  0  0  0  0
  1  2  2  0
  1  4  1  0
  6  8  1  0
  7  8  2  0
 11  5  1  6
 10 11  1  0
 11 12  1  0
 13  3  1  1
 10 13  1  0
 12 13  1  0
 14 15  2  0
 15 16  1  0
  3 17  1  0
 16 17  2  0
 17 18  1  0
  4 19  1  0
 14 19  1  0
 18 19  2  0
  8 20  1  0
 21  1  1  0
 20 21  1  0
 21 22  1  0
  9 23  1  0
 22 23  1  0
 23 24  1  0
 20 25  1  0
 24 25  1  0
 26 27  2  0
 27 28  1  0
 28 29  2  0
 29 30  1  0
 26 31  1  0
 30 31  2  0
 21 32  1  6
 29 32  1  0
M  END
