x2563-x0354
     RDKit          3D

 34 37  0  0  0  0  0  0  0  0999 V2000
   13.1730   -1.0790   22.5570 C   0  0  0  0  0  0  0  0  0  0  0  0
    7.8320   -2.1090   25.0890 O   0  0  0  0  0  0  0  0  0  0  0  0
    7.4640   -0.5600   27.2400 O   0  0  0  0  0  0  0  0  0  0  0  0
    8.7290   -1.3110   25.3670 C   0  0  0  0  0  0  0  0  0  0  0  0
    8.2730   -0.2000   26.3560 C   0  0  0  0  0  0  0  0  0  0  0  0
    5.6470    3.5960   30.9470 C   0  0  0  0  0  0  0  0  0  0  0  0
   12.3370   -1.5330   23.5850 N   0  0  0  0  0  0  0  0  0  0  0  0
   11.6240   -2.4330   23.5270 C   0  0  1  0  0  0  0  0  0  0  0  0
   10.8410   -2.4800   24.8090 C   0  0  0  0  0  0  0  0  0  0  0  0
   10.0470   -1.3600   24.9190 N   0  0  0  0  0  0  0  0  0  0  0  0
   10.7180   -0.4480   25.1340 C   0  0  0  0  0  0  0  0  0  0  0  0
   12.0230   -0.5280   24.6370 C   0  0  0  0  0  0  0  0  0  0  0  0
    7.7010    1.6890   28.1750 C   0  0  0  0  0  0  0  0  0  0  0  0
    7.2550    2.6880   29.0750 C   0  0  0  0  0  0  0  0  0  0  0  0
    6.1690    2.5300   29.9520 C   0  0  0  0  0  0  0  0  0  0  0  0
    5.4580    1.3380   29.9760 C   0  0  0  0  0  0  0  0  0  0  0  0
    5.8860    0.2230   29.0340 C   0  0  0  0  0  0  0  0  0  0  0  0
    7.0790    0.4450   28.0930 C   0  0  0  0  0  0  0  0  0  0  0  0
    8.3860    0.2420   21.4190 C   0  0  0  0  0  0  0  0  0  0  0  0
    8.6370    1.4130   21.0840 O   0  0  0  0  0  0  0  0  0  0  0  0
    7.3250   -0.6130   20.7420 C   0  0  0  0  0  0  0  0  0  0  0  0
    9.1040   -0.4730   22.4880 N   0  0  0  0  0  0  0  0  0  0  0  0
    6.2960    0.6640   17.5700 N   0  0  0  0  0  0  0  0  0  0  0  0
    5.0840    1.4160   17.8900 C   0  0  0  0  0  0  0  0  0  0  0  0
    4.6000    1.4430   19.3180 C   0  0  0  0  0  0  0  0  0  0  0  0
    5.3800    0.7420   20.2340 C   0  0  0  0  0  0  0  0  0  0  0  0
    6.5380    0.0590   19.8320 C   0  0  0  0  0  0  0  0  0  0  0  0
    6.9760    0.0210   18.5160 C   0  0  0  0  0  0  0  0  0  0  0  0
    3.4650    2.1170   19.7080 C   0  0  0  0  0  0  0  0  0  0  0  0
    3.0650    2.1180   21.0240 C   0  0  0  0  0  0  0  0  0  0  0  0
    3.8040    1.4400   21.9790 C   0  0  0  0  0  0  0  0  0  0  0  0
    4.9440    0.7640   21.5810 C   0  0  0  0  0  0  0  0  0  0  0  0
   10.7220   -2.2530   22.3770 C   0  0  0  0  0  0  0  0  0  0  0  0
   10.3790   -0.9660   22.0900 C   0  0  0  0  0  0  0  0  0  0  0  0
  2  4  2  0
  3  5  1  0
  4  5  1  0
  1  7  1  0
  7  8  1  0
  8  9  1  0
  4 10  1  0
  9 10  1  0
 10 11  1  0
  7 12  1  0
 11 12  1  0
 13 14  2  0
  6 15  1  0
 14 15  1  0
 15 16  2  0
 16 17  1  0
  3 18  1  0
 13 18  1  0
 17 18  2  0
 19 20  2  0
 19 21  1  0
 19 22  1  0
 23 24  2  0
 24 25  1  0
 25 26  2  0
 21 27  1  0
 26 27  1  0
 23 28  1  0
 27 28  2  0
 25 29  1  0
 29 30  2  0
 30 31  1  0
 26 32  1  0
 31 32  2  0
  8 33  1  6
 22 34  1  0
 33 34  1  0
M  END
