x2563-x0305
     RDKit          3D

 26 28  0  0  0  0  0  0  0  0999 V2000
    8.3700    0.0160   21.0620 C   0  0  0  0  0  0  0  0  0  0  0  0
    8.2690    1.4450   20.8760 O   0  0  0  0  0  0  0  0  0  0  0  0
    7.1190   -0.8150   20.7660 C   0  0  0  0  0  0  0  0  0  0  0  0
    9.4490   -0.7110   21.4570 N   0  0  0  0  0  0  0  0  0  0  0  0
    8.7680   -0.5710   27.5890 C   0  0  0  0  0  0  0  0  0  0  0  0
    8.1310   -0.6600   26.1900 C   0  0  0  0  0  0  0  0  0  0  0  0
    6.1930    0.7210   17.4870 N   0  0  0  0  0  0  0  0  0  0  0  0
    5.0590    1.4920   17.8610 C   0  0  0  0  0  0  0  0  0  0  0  0
    4.5940    1.4590   19.2810 C   0  0  0  0  0  0  0  0  0  0  0  0
    5.2790    0.6990   20.1890 C   0  0  0  0  0  0  0  0  0  0  0  0
    6.3770   -0.0300   19.8100 C   0  0  0  0  0  0  0  0  0  0  0  0
    6.8810   -0.0770   18.5240 C   0  0  0  0  0  0  0  0  0  0  0  0
    3.3660    2.2860   19.6590 C   0  0  0  0  0  0  0  0  0  0  0  0
    2.9040    2.2900   20.9740 C   0  0  0  0  0  0  0  0  0  0  0  0
    3.5870    1.5300   21.9100 C   0  0  0  0  0  0  0  0  0  0  0  0
    4.8020    0.7140   21.5080 C   0  0  0  0  0  0  0  0  0  0  0  0
   11.0030   -0.0900   23.0690 C   0  0  0  0  0  0  0  0  0  0  0  0
   11.7390    0.2550   24.3530 C   0  0  0  0  0  0  0  0  0  0  0  0
   10.5040   -0.0360   25.2630 C   0  0  0  0  0  0  0  0  0  0  0  0
    9.1090   -0.4680   25.0620 C   0  0  0  0  0  0  0  0  0  0  0  0
    8.7300   -0.7130   23.6690 C   0  0  0  0  0  0  0  0  0  0  0  0
    9.7290   -0.5040   22.7780 C   0  0  0  0  0  0  0  0  0  0  0  0
   13.4310   -1.0980   21.6440 C   0  0  0  0  0  0  0  0  0  0  0  0
   13.9420   -1.2830   20.3350 N   0  0  0  0  0  0  0  0  0  0  0  0
   12.6340    0.4160   23.1690 C   0  0  0  0  0  0  0  0  0  0  0  0
   12.9650   -0.9090   22.9590 C   0  0  0  0  0  0  0  0  0  0  0  0
  1  2  2  0
  1  3  1  0
  1  4  1  0
  5  6  1  0
  7  8  2  0
  8  9  1  0
  9 10  2  0
  3 11  1  0
 10 11  1  0
  7 12  1  0
 11 12  2  0
  9 13  1  0
 13 14  2  0
 14 15  1  0
 10 16  1  0
 15 16  2  0
 17 18  2  0
 18 19  1  0
  6 20  1  0
 19 20  2  0
 20 21  1  0
  4 22  1  0
 17 22  1  0
 21 22  2  0
 23 24  3  0
 18 25  1  0
 23 26  1  0
 25 26  1  0
M  END
