x2569-x0731
     RDKit          3D

 39 42  0  0  0  0  0  0  0  0999 V2000
    1.0380   -1.0370   26.0680 C   0  0  0  0  0  0  0  0  0  0  0  0
    6.3380   -5.1370   26.8750 O   0  0  0  0  0  0  0  0  0  0  0  0
    4.5910   -6.6750   25.9160 O   0  0  0  0  0  0  0  0  0  0  0  0
    5.3220   -5.1260   20.0160 O   0  0  0  0  0  0  0  0  0  0  0  0
    6.2820   -4.5520   20.5290 C   0  0  0  0  0  0  0  0  0  0  0  0
    6.9220   -3.4440   19.6900 C   0  0  0  0  0  0  0  0  0  0  0  0
    5.3290   -5.4320   25.8890 S   0  0  0  0  0  0  0  0  0  0  0  0
    8.2210    0.2230   21.6290 C   0  0  0  0  0  0  0  0  0  0  0  0
    8.9110    1.2110   21.2890 O   0  0  0  0  0  0  0  0  0  0  0  0
    8.8170   -0.9340   22.4470 C   0  0  2  0  0  0  0  0  0  0  0  0
   13.9770   -1.6500   20.4860 N   0  0  0  0  0  0  0  0  0  0  0  0
    6.9760   -0.0230   21.3640 N   0  0  0  0  0  0  0  0  0  0  0  0
   13.2720   -1.3350   21.5770 C   0  0  0  0  0  0  0  0  0  0  0  0
    7.1850   -2.6570   22.2870 C   0  0  0  0  0  0  0  0  0  0  0  0
    7.7910   -1.7760   23.1980 C   0  0  0  0  0  0  0  0  0  0  0  0
    2.0930   -2.0630   26.0190 C   0  0  0  0  0  0  0  0  0  0  0  0
    1.8040   -3.2750   25.4640 C   0  0  0  0  0  0  0  0  0  0  0  0
    2.8720   -4.3490   25.4240 C   0  0  0  0  0  0  0  0  0  0  0  0
    4.1470   -4.0980   25.9540 C   0  0  0  0  0  0  0  0  0  0  0  0
    4.3760   -2.8270   26.4960 C   0  0  0  0  0  0  0  0  0  0  0  0
    3.3730   -1.8560   26.5200 C   0  0  0  0  0  0  0  0  0  0  0  0
    6.7970   -4.9360   21.7910 N   0  0  0  0  0  0  0  0  0  0  0  0
    7.2000   -4.1010   22.7940 C   0  0  2  0  0  0  0  0  0  0  0  0
    6.4610   -3.9900   23.9650 C   0  0  0  0  0  0  0  0  0  0  0  0
    6.0090   -5.3170   24.3650 N   0  0  0  0  0  0  0  0  0  0  0  0
    5.3700   -6.0940   23.2630 C   0  0  0  0  0  0  0  0  0  0  0  0
    6.3180   -6.2670   22.2650 C   0  0  0  0  0  0  0  0  0  0  0  0
   11.6830    0.1640   24.5920 N   0  0  0  0  0  0  0  0  0  0  0  0
   12.6980   -0.3030   23.6600 C   0  0  0  0  0  0  0  0  0  0  0  0
   12.4140   -0.9100   22.4750 C   0  0  0  0  0  0  0  0  0  0  0  0
   11.1140   -1.1080   22.1170 C   0  0  0  0  0  0  0  0  0  0  0  0
   10.1310   -0.6740   22.9640 C   0  0  0  0  0  0  0  0  0  0  0  0
   10.4170   -0.0530   24.1750 C   0  0  0  0  0  0  0  0  0  0  0  0
    6.3470    0.5700   17.7950 N   0  0  0  0  0  0  0  0  0  0  0  0
    6.8610    0.1680   18.9690 C   0  0  0  0  0  0  0  0  0  0  0  0
    6.3060    0.4430   20.1970 C   0  0  0  0  0  0  0  0  0  0  0  0
    5.1220    1.1690   20.2240 C   0  0  0  0  0  0  0  0  0  0  0  0
    4.5710    1.5880   19.0270 C   0  0  0  0  0  0  0  0  0  0  0  0
    5.2090    1.2780   17.8420 C   0  0  0  0  0  0  0  0  0  0  0  0
  4  5  2  0
  5  6  1  0
  2  7  2  0
  3  7  2  0
  8  9  2  0
  8 10  1  0
  8 12  1  0
 11 13  3  0
 10 15  1  1
 14 15  1  0
  1 16  1  0
 16 17  2  0
 17 18  1  0
  7 19  1  0
 18 19  2  0
 19 20  1  0
 16 21  1  0
 20 21  2  0
  5 22  1  0
 23 14  1  6
 22 23  1  0
 23 24  1  0
  7 25  1  0
 24 25  1  0
 25 26  1  0
 22 27  1  0
 26 27  1  0
 28 29  2  0
 13 30  1  0
 29 30  1  0
 30 31  2  0
 10 32  1  0
 31 32  1  0
 28 33  1  0
 32 33  2  0
 34 35  2  0
 12 36  1  0
 35 36  1  0
 36 37  2  0
 37 38  1  0
 34 39  1  0
 38 39  2  0
M  END
