x2569-x2563
     RDKit          3D

 21 24  0  0  0  0  0  0  0  0999 V2000
    8.5520    0.3960   21.7730 C   0  0  0  0  0  0  0  0  0  0  0  0
    9.0130    1.4590   21.3300 O   0  0  0  0  0  0  0  0  0  0  0  0
    8.8420   -0.1710   23.1400 C   0  0  0  0  0  0  0  0  0  0  0  0
   13.6090   -3.1950   20.6340 N   0  0  0  0  0  0  0  0  0  0  0  0
    7.7200   -0.4090   21.0820 N   0  0  0  0  0  0  0  0  0  0  0  0
   13.0170   -2.2080   21.5010 C   0  0  0  0  0  0  0  0  0  0  0  0
   12.3520    0.4760   24.1540 N   0  0  0  0  0  0  0  0  0  0  0  0
   12.9820   -0.3800   23.3440 C   0  0  0  0  0  0  0  0  0  0  0  0
   12.3400   -1.3180   22.3370 C   0  0  0  0  0  0  0  0  0  0  0  0
   10.9880   -1.2380   22.2950 C   0  0  0  0  0  0  0  0  0  0  0  0
   10.3400   -0.3420   23.1380 C   0  0  0  0  0  0  0  0  0  0  0  0
   11.0300    0.4800   24.0350 C   0  0  0  0  0  0  0  0  0  0  0  0
    5.2130    1.2810   18.6760 C   0  0  2  0  0  0  0  0  0  0  0  0
    6.6390    0.9580   18.9100 C   0  0  0  0  0  0  0  0  0  0  0  0
    6.7280    0.2210   20.2230 C   0  0  0  0  0  0  0  0  0  0  0  0
    5.5280    0.4270   20.3980 C   0  0  0  0  0  0  0  0  0  0  0  0
    4.6300    0.3000   17.9750 C   0  0  0  0  0  0  0  0  0  0  0  0
    4.0460    1.7470   19.5570 C   0  0  0  0  0  0  0  0  0  0  0  0
    3.9410    1.7260   21.0180 C   0  0  0  0  0  0  0  0  0  0  0  0
    5.1150    1.3560   21.4720 C   0  0  0  0  0  0  0  0  0  0  0  0
    4.8940   -0.1450   19.3310 C   0  0  0  0  0  0  0  0  0  0  0  0
  1  2  2  0
  1  3  1  0
  1  5  1  0
  4  6  3  0
  7  8  2  0
  6  9  1  0
  8  9  1  0
  9 10  2  0
  3 11  1  0
 10 11  1  0
  7 12  1  0
 11 12  2  0
 13 14  1  1
  5 15  1  0
 14 15  2  0
 15 16  1  0
 13 17  1  0
 13 18  1  0
 18 19  2  0
 16 20  2  0
 19 20  1  0
 13 21  1  0
 16 21  1  0
 17 21  2  0
M  END
