x2562-x2581
     RDKit          3D

 38 42  0  0  0  0  0  0  0  0999 V2000
    8.4350   -0.1350   21.5110 C   0  0  0  0  0  0  0  0  0  0  0  0
    8.6190    1.0500   21.2310 O   0  0  0  0  0  0  0  0  0  0  0  0
    7.1780   -0.8720   21.1110 C   0  0  0  0  0  0  0  0  0  0  0  0
   11.3470    3.6650   22.9370 C   0  0  2  0  0  0  0  0  0  0  0  0
    9.5080   -0.7990   22.2630 N   0  0  0  0  0  0  0  0  0  0  0  0
   13.1110    6.9480   22.3620 O   0  0  0  0  0  0  0  0  0  0  0  0
    9.9840    3.9110   22.4500 N   0  0  0  0  0  0  0  0  0  0  0  0
   11.1880    3.9320   24.3020 O   0  0  0  0  0  0  0  0  0  0  0  0
    4.6260    1.4720   19.4410 N   0  0  0  0  0  0  0  0  0  0  0  0
    5.0370    1.3840   18.1620 C   0  0  0  0  0  0  0  0  0  0  0  0
    6.1560    0.5570   17.7000 N   0  0  0  0  0  0  0  0  0  0  0  0
    6.8610   -0.2050   18.7240 C   0  0  0  0  0  0  0  0  0  0  0  0
    6.4670   -0.1260   20.0470 C   0  0  0  0  0  0  0  0  0  0  0  0
    5.3700    0.7060   20.3190 C   0  0  0  0  0  0  0  0  0  0  0  0
   12.3090    4.6170   22.3460 N   0  0  0  0  0  0  0  0  0  0  0  0
   12.8590    5.7790   23.1150 C   0  0  1  0  0  0  0  0  0  0  0  0
   13.9070    5.0010   23.1290 C   0  0  0  0  0  0  0  0  0  0  0  0
   13.6600    4.0900   22.2130 C   0  0  0  0  0  0  0  0  0  0  0  0
   12.0020   -0.9780   22.6410 C   0  0  0  0  0  0  0  0  0  0  0  0
   12.9030    0.0990   22.8410 C   0  0  0  0  0  0  0  0  0  0  0  0
   12.7760    1.4790   22.9360 C   0  0  0  0  0  0  0  0  0  0  0  0
   11.6410    2.1960   22.8510 C   0  0  0  0  0  0  0  0  0  0  0  0
   10.5120    1.2930   22.6190 C   0  0  0  0  0  0  0  0  0  0  0  0
   10.7880   -0.2050   22.5260 C   0  0  0  0  0  0  0  0  0  0  0  0
    9.2640   -2.9990   23.7160 C   0  0  0  0  0  0  0  0  0  0  0  0
    9.9580   -1.7990   23.4640 O   0  0  0  0  0  0  0  0  0  0  0  0
   10.8360   -1.9200   22.4180 C   0  0  0  0  0  0  0  0  0  0  0  0
    8.9820    7.2020   22.6220 C   0  0  0  0  0  0  0  0  0  0  0  0
    8.6010    8.2930   23.3350 C   0  0  0  0  0  0  0  0  0  0  0  0
    9.3220    8.7580   24.4020 C   0  0  0  0  0  0  0  0  0  0  0  0
   10.4770    8.0760   24.7620 C   0  0  0  0  0  0  0  0  0  0  0  0
   10.9380    6.9470   24.0960 C   0  0  0  0  0  0  0  0  0  0  0  0
   10.2450    6.4200   22.9790 C   0  0  0  0  0  0  0  0  0  0  0  0
    8.8620    9.9070   25.0710 C   0  0  0  0  0  0  0  0  0  0  0  0
    9.5280   10.4860   26.1770 C   0  0  0  0  0  0  0  0  0  0  0  0
   10.6460    9.7750   26.4830 C   0  0  0  0  0  0  0  0  0  0  0  0
   11.1420    8.6420   25.8620 C   0  0  0  0  0  0  0  0  0  0  0  0
   12.1460    6.1900   24.4200 C   0  0  0  0  0  0  0  0  0  0  0  0
  1  2  2  0
  1  3  1  0
  1  5  1  0
  4  7  1  6
  4  8  1  0
  9 10  2  0
 10 11  1  0
 11 12  2  0
  3 13  1  0
 12 13  1  0
  9 14  1  0
 13 14  2  0
  4 15  1  0
 16  6  1  6
 15 16  1  0
 16 17  1  0
 15 18  1  0
 17 18  1  0
 19 20  2  0
 20 21  1  0
  4 22  1  0
 21 22  2  0
 22 23  1  0
  5 24  1  0
 19 24  1  0
 23 24  2  0
 25 26  1  0
 19 27  1  0
 26 27  1  0
 28 29  2  0
 29 30  1  0
 30 31  2  0
 31 32  1  0
 28 33  1  0
 32 33  2  0
 30 34  1  0
 34 35  2  0
 35 36  1  0
 31 37  1  0
 36 37  2  0
 16 38  1  0
 32 38  1  0
M  END
