x2569-x1418
     RDKit          3D

 28 31  0  0  0  0  0  0  0  0999 V2000
    7.9480   -0.3940   21.6310 C   0  0  1  0  0  0  0  0  0  0  0  0
    8.6000    0.0180   20.7540 O   0  0  0  0  0  0  0  0  0  0  0  0
    8.7520   -0.9170   22.8000 C   0  0  2  0  0  0  0  0  0  0  0  0
   13.5680   -2.5770   20.7560 N   0  0  0  0  0  0  0  0  0  0  0  0
    6.6940    0.1150   21.7080 N   0  0  0  0  0  0  0  0  0  0  0  0
   13.0270   -1.6140   21.6660 C   0  0  0  0  0  0  0  0  0  0  0  0
    7.2560   -2.9990   18.8390 C   0  0  0  0  0  0  0  0  0  0  0  0
    5.5460   -4.1100   19.7380 O   0  0  0  0  0  0  0  0  0  0  0  0
    6.4150   -3.2130   19.8570 C   0  0  0  0  0  0  0  0  0  0  0  0
    9.7160   -3.0480   23.8360 C   0  0  0  0  0  0  0  0  0  0  0  0
   11.9880    1.0890   24.0770 N   0  0  0  0  0  0  0  0  0  0  0  0
   12.9130    0.2410   23.2340 C   0  0  0  0  0  0  0  0  0  0  0  0
   12.3220   -0.7670   22.4730 C   0  0  0  0  0  0  0  0  0  0  0  0
   10.9910   -1.0330   22.4260 C   0  0  0  0  0  0  0  0  0  0  0  0
   10.0860   -0.3210   23.1420 C   0  0  0  0  0  0  0  0  0  0  0  0
   10.5710    0.7900   24.0180 C   0  0  0  0  0  0  0  0  0  0  0  0
    6.3790    0.5530   17.9080 N   0  0  0  0  0  0  0  0  0  0  0  0
    6.8190    0.1730   19.2420 C   0  0  0  0  0  0  0  0  0  0  0  0
    6.1460    0.5350   20.4120 C   0  0  0  0  0  0  0  0  0  0  0  0
    4.9990    1.2780   20.3400 C   0  0  0  0  0  0  0  0  0  0  0  0
    4.5270    1.6720   19.0980 C   0  0  0  0  0  0  0  0  0  0  0  0
    5.1560    1.3550   17.8840 C   0  0  0  0  0  0  0  0  0  0  0  0
    6.5230   -2.4450   21.0370 N   0  0  0  0  0  0  0  0  0  0  0  0
    6.3050   -3.0940   22.2110 C   0  0  0  0  0  0  0  0  0  0  0  0
    7.1910   -2.7630   23.3350 C   0  0  0  0  0  0  0  0  0  0  0  0
    8.5400   -2.4250   22.9960 C   0  0  1  0  0  0  0  0  0  0  0  0
    8.7390   -2.5970   21.6830 C   0  0  0  0  0  0  0  0  0  0  0  0
    7.6050   -1.9000   21.4320 C   0  0  1  0  0  0  0  0  0  0  0  0
  1  2  1  6
  1  3  1  0
  1  5  1  0
  4  6  3  0
  7  9  1  0
  8  9  2  0
 11 12  2  0
  6 13  1  0
 12 13  1  0
 13 14  2  0
  3 15  1  6
 14 15  1  0
 11 16  1  0
 15 16  2  0
 17 18  2  0
  5 19  1  0
 18 19  1  0
 19 20  2  0
 20 21  1  0
 17 22  1  0
 21 22  2  0
  9 23  1  0
 23 24  1  0
 24 25  1  0
  3 26  1  0
 26 10  1  1
 25 26  1  0
 26 27  1  0
  1 28  1  0
 28 23  1  6
 27 28  1  0
M  END
