x2569-x2562
     RDKit          3D

 24 26  0  0  0  0  0  0  0  0999 V2000
    8.3760    0.1810   21.4280 C   0  0  0  0  0  0  0  0  0  0  0  0
    8.5190    1.3760   21.1100 O   0  0  0  0  0  0  0  0  0  0  0  0
    7.2580   -0.7260   20.9370 C   0  0  0  0  0  0  0  0  0  0  0  0
   12.1250    2.9320   23.4520 O   0  0  0  0  0  0  0  0  0  0  0  0
    9.2440   -0.4720   22.2860 N   0  0  0  0  0  0  0  0  0  0  0  0
   13.3540    6.7190   21.8160 O   0  0  0  0  0  0  0  0  0  0  0  0
   13.4730   -2.7880   21.0370 N   0  0  0  0  0  0  0  0  0  0  0  0
   12.5750   -2.0180   21.7050 C   0  0  0  0  0  0  0  0  0  0  0  0
    4.6320    1.5950   19.2330 N   0  0  0  0  0  0  0  0  0  0  0  0
    5.0770    1.5010   17.9450 C   0  0  0  0  0  0  0  0  0  0  0  0
    6.1720    0.6930   17.6440 N   0  0  0  0  0  0  0  0  0  0  0  0
    6.8090    0.0150   18.6180 C   0  0  0  0  0  0  0  0  0  0  0  0
    6.4850    0.0290   19.9370 C   0  0  0  0  0  0  0  0  0  0  0  0
    5.3940    0.8100   20.2500 C   0  0  0  0  0  0  0  0  0  0  0  0
   12.3220    4.6050   21.8790 N   0  0  0  0  0  0  0  0  0  0  0  0
   12.6670    5.8260   22.6330 C   0  0  1  0  0  0  0  0  0  0  0  0
   13.3110    4.9440   23.4000 C   0  0  0  0  0  0  0  0  0  0  0  0
   12.9520    3.7990   22.8080 C   0  0  1  0  0  0  0  0  0  0  0  0
   11.5160   -1.1660   22.0270 C   0  0  0  0  0  0  0  0  0  0  0  0
   12.7720   -0.4840   22.2930 C   0  0  0  0  0  0  0  0  0  0  0  0
   13.0600    0.7910   22.7510 C   0  0  0  0  0  0  0  0  0  0  0  0
   12.0340    1.5980   23.0120 C   0  0  0  0  0  0  0  0  0  0  0  0
   10.8040    1.1270   22.8500 C   0  0  0  0  0  0  0  0  0  0  0  0
   10.5770   -0.1630   22.4010 C   0  0  0  0  0  0  0  0  0  0  0  0
  1  2  2  0
  1  3  1  0
  1  5  1  0
  7  8  3  0
  9 10  2  0
 10 11  1  0
 11 12  2  0
  3 13  1  0
 12 13  1  0
  9 14  1  0
 13 14  2  0
 16  6  1  6
 15 16  1  0
 16 17  1  0
 18  4  1  1
 15 18  1  0
 17 18  1  0
  8 19  1  0
 19 20  2  0
 20 21  1  0
  4 22  1  0
 21 22  2  0
 22 23  1  0
  5 24  1  0
 19 24  1  0
 23 24  2  0
M  END
