x2563-x1418
     RDKit          3D

 30 34  0  0  0  0  0  0  0  0999 V2000
    8.3850   -0.2080   21.2960 C   0  0  0  0  0  0  0  0  0  0  0  0
    8.5700    1.1780   20.8860 O   0  0  0  0  0  0  0  0  0  0  0  0
    7.4620   -2.9440   18.6710 C   0  0  0  0  0  0  0  0  0  0  0  0
    5.5160   -3.8970   19.6510 O   0  0  0  0  0  0  0  0  0  0  0  0
    6.5240   -3.1770   19.8270 C   0  0  0  0  0  0  0  0  0  0  0  0
   10.0970   -2.7260   23.0890 C   0  0  0  0  0  0  0  0  0  0  0  0
    6.8480   -2.6600   21.0930 N   0  0  0  0  0  0  0  0  0  0  0  0
    6.6870   -3.3890   22.0020 C   0  0  0  0  0  0  0  0  0  0  0  0
    7.7490   -3.2160   23.1260 C   0  0  0  0  0  0  0  0  0  0  0  0
    8.6550   -2.1680   23.0030 C   0  0  2  0  0  0  0  0  0  0  0  0
    8.4860   -1.5980   21.7630 C   0  0  1  0  0  0  0  0  0  0  0  0
    7.1980   -1.2400   21.4350 C   0  0  2  0  0  0  0  0  0  0  0  0
   11.5260   -0.4690   23.1050 C   0  0  0  0  0  0  0  0  0  0  0  0
   12.1540    0.7300   23.1950 C   0  0  0  0  0  0  0  0  0  0  0  0
   11.4350    1.7020   23.7710 C   0  0  0  0  0  0  0  0  0  0  0  0
   10.0290    1.4510   24.2810 C   0  0  0  0  0  0  0  0  0  0  0  0
    9.1250    0.1820   24.2900 C   0  0  0  0  0  0  0  0  0  0  0  0
   10.2140   -0.6910   23.5830 C   0  0  0  0  0  0  0  0  0  0  0  0
    8.4290   -1.1710   24.1880 C   0  0  0  0  0  0  0  0  0  0  0  0
    6.2860    0.7610   17.4640 N   0  0  0  0  0  0  0  0  0  0  0  0
    5.1410    1.4430   18.0340 C   0  0  0  0  0  0  0  0  0  0  0  0
    4.7440    1.3120   19.4800 C   0  0  0  0  0  0  0  0  0  0  0  0
    5.5840    0.4740   20.2130 C   0  0  0  0  0  0  0  0  0  0  0  0
    6.6860   -0.1860   19.6740 C   0  0  0  0  0  0  0  0  0  0  0  0
    7.0680   -0.0800   18.3500 C   0  0  0  0  0  0  0  0  0  0  0  0
    3.6630    1.9560   20.0230 C   0  0  0  0  0  0  0  0  0  0  0  0
    3.3790    1.7780   21.3690 C   0  0  0  0  0  0  0  0  0  0  0  0
    4.2110    0.9420   22.1300 C   0  0  0  0  0  0  0  0  0  0  0  0
    5.3000    0.2960   21.5600 C   0  0  0  0  0  0  0  0  0  0  0  0
    6.1380   -0.5480   22.3330 C   0  0  0  0  0  0  0  0  0  0  0  0
  1  2  2  0
  3  5  1  0
  4  5  2  0
  5  7  1  0
  7  8  1  0
  8  9  1  0
 10  6  1  6
  9 10  1  0
 11  1  1  1
 10 11  1  0
  1 12  1  0
  7 12  1  0
 11 12  1  0
 13 14  2  0
 14 15  1  0
 15 16  2  0
 16 17  1  0
 13 18  1  0
 17 18  2  0
 10 19  1  0
 17 19  1  0
 20 21  2  0
 21 22  1  0
 22 23  2  0
 23 24  1  0
 20 25  1  0
 24 25  2  0
 22 26  1  0
 26 27  2  0
 27 28  1  0
 23 29  1  0
 28 29  2  0
 12 30  1  1
 29 30  1  0
M  END
