x2563-x1374
     RDKit          3D

 40 44  0  0  0  0  0  0  0  0999 V2000
   10.4720   -3.8300   25.8470 C   0  0  0  0  0  0  0  0  0  0  0  0
    6.0030   -3.8950   21.7610 N   0  0  0  0  0  0  0  0  0  0  0  0
    6.1760   -4.2100   20.4150 C   0  0  0  0  0  0  0  0  0  0  0  0
    5.5210   -5.1360   19.9950 O   0  0  0  0  0  0  0  0  0  0  0  0
    7.1170   -3.4090   19.4580 C   0  0  0  0  0  0  0  0  0  0  0  0
    2.6860   -6.5840   23.4820 O   0  0  0  0  0  0  0  0  0  0  0  0
    4.5300   -7.8990   24.3580 O   0  0  0  0  0  0  0  0  0  0  0  0
    8.4700    0.1280   21.2680 C   0  0  0  0  0  0  0  0  0  0  0  0
    8.5520    1.3470   21.0270 O   0  0  0  0  0  0  0  0  0  0  0  0
    7.2880   -0.5720   21.2400 C   0  0  2  0  0  0  0  0  0  0  0  0
    9.5430   -0.6480   21.5810 N   0  0  0  0  0  0  0  0  0  0  0  0
    6.9200   -2.9020   22.2120 C   0  0  2  0  0  0  0  0  0  0  0  0
    7.4830   -2.0990   21.1970 C   0  0  0  0  0  0  0  0  0  0  0  0
    9.4940   -4.2450   24.8010 C   0  0  0  0  0  0  0  0  0  0  0  0
    8.7480   -3.3280   24.0720 C   0  0  0  0  0  0  0  0  0  0  0  0
    7.8370   -3.7400   23.0950 C   0  0  0  0  0  0  0  0  0  0  0  0
    7.6590   -5.0840   22.8190 C   0  0  0  0  0  0  0  0  0  0  0  0
    8.3520   -6.0580   23.4900 C   0  0  0  0  0  0  0  0  0  0  0  0
    9.3320   -5.5920   24.5580 C   0  0  0  0  0  0  0  0  0  0  0  0
    5.0310   -4.3740   24.1010 C   0  0  0  0  0  0  0  0  0  0  0  0
    5.0550   -4.6750   22.6270 C   0  0  2  0  0  0  0  0  0  0  0  0
    5.1000   -6.2010   22.4920 C   0  0  0  0  0  0  0  0  0  0  0  0
    4.0720   -6.6290   23.8930 S   0  0  0  0  0  0  0  0  0  0  0  0
    4.5200   -5.3430   24.8980 C   0  0  0  0  0  0  0  0  0  0  0  0
    6.2520    0.4860   17.7310 N   0  0  0  0  0  0  0  0  0  0  0  0
    5.1140    1.1340   18.0110 C   0  0  0  0  0  0  0  0  0  0  0  0
    4.5760    1.2710   19.2800 C   0  0  0  0  0  0  0  0  0  0  0  0
    5.2820    0.6980   20.3510 C   0  0  0  0  0  0  0  0  0  0  0  0
    6.4780    0.0280   20.0980 C   0  0  0  0  0  0  0  0  0  0  0  0
    6.9090   -0.0540   18.7750 C   0  0  0  0  0  0  0  0  0  0  0  0
    3.3810    1.9530   19.5080 C   0  0  0  0  0  0  0  0  0  0  0  0
    2.8590    2.0780   20.7910 C   0  0  0  0  0  0  0  0  0  0  0  0
    3.5490    1.5120   21.8530 C   0  0  0  0  0  0  0  0  0  0  0  0
    4.7400    0.8350   21.6410 C   0  0  0  0  0  0  0  0  0  0  0  0
   11.6810   -0.6820   22.6240 C   0  0  0  0  0  0  0  0  0  0  0  0
   12.4840   -0.5460   23.7390 C   0  0  0  0  0  0  0  0  0  0  0  0
   11.9100   -0.2460   24.9490 C   0  0  0  0  0  0  0  0  0  0  0  0
   10.5330   -0.0700   25.0470 C   0  0  0  0  0  0  0  0  0  0  0  0
    9.7350   -0.1940   23.9480 C   0  0  0  0  0  0  0  0  0  0  0  0
   10.2950   -0.5050   22.7250 C   0  0  0  0  0  0  0  0  0  0  0  0
  2  3  1  0
  3  4  2  0
  3  5  1  0
  8  9  2  0
  8 10  1  0
  8 11  1  0
  2 12  1  0
 10 13  1  6
 12 13  1  6
  1 14  1  0
 14 15  2  0
 12 16  1  0
 15 16  1  0
 16 17  2  0
 17 18  1  0
 14 19  1  0
 18 19  2  0
 21  2  1  1
 20 21  1  0
 21 22  1  0
 23  6  1  0
  7 23  1  0
 22 23  1  0
 20 24  2  0
 23 24  1  0
 25 26  2  0
 26 27  1  0
 27 28  2  0
 10 29  1  0
 28 29  1  0
 25 30  1  0
 29 30  2  0
 27 31  1  0
 31 32  2  0
 32 33  1  0
 28 34  1  0
 33 34  2  0
 35 36  2  0
 36 37  1  0
 37 38  2  0
 38 39  1  0
 11 40  1  0
 35 40  1  0
 39 40  2  0
M  END
