x2563-x1385
     RDKit          3D

 36 41  0  0  0  0  0  0  0  0999 V2000
    7.5180   -3.0380   18.6100 C   0  0  0  0  0  0  0  0  0  0  0  0
    5.5920   -4.0080   19.6950 O   0  0  0  0  0  0  0  0  0  0  0  0
    6.5840   -3.2570   19.8060 C   0  0  0  0  0  0  0  0  0  0  0  0
    9.6460   -3.0060   24.0550 C   0  0  0  0  0  0  0  0  0  0  0  0
    7.1220   -5.8330   28.4950 Br  0  0  0  0  0  0  0  0  0  0  0  0
    8.1810   -0.6900   21.7220 C   0  0  2  0  0  0  0  0  0  0  0  0
    8.8850   -0.1490   20.9240 O   0  0  0  0  0  0  0  0  0  0  0  0
    6.9070   -1.0620   21.2980 C   0  0  2  0  0  0  0  0  0  0  0  0
    8.1450    0.0900   22.8860 N   0  0  0  0  0  0  0  0  0  0  0  0
    6.8900   -2.5800   21.1780 C   0  0  1  0  0  0  0  0  0  0  0  0
    6.4470   -3.2880   22.2680 C   0  0  0  0  0  0  0  0  0  0  0  0
    7.3890   -3.5230   23.2750 C   0  0  0  0  0  0  0  0  0  0  0  0
    8.5100   -2.5470   23.4040 N   0  0  0  0  0  0  0  0  0  0  0  0
    8.8990   -1.8430   22.1480 C   0  0  1  0  0  0  0  0  0  0  0  0
    8.3690   -2.5890   21.1890 C   0  0  0  0  0  0  0  0  0  0  0  0
    9.8090   -5.2630   25.3300 C   0  0  0  0  0  0  0  0  0  0  0  0
    9.2330   -4.0240   25.1430 C   0  0  0  0  0  0  0  0  0  0  0  0
    7.9750   -3.7450   26.2880 S   0  0  0  0  0  0  0  0  0  0  0  0
    8.1870   -5.2570   27.0270 C   0  0  0  0  0  0  0  0  0  0  0  0
    9.3120   -6.0630   26.3660 C   0  0  0  0  0  0  0  0  0  0  0  0
    6.3380    0.5510   17.6480 N   0  0  0  0  0  0  0  0  0  0  0  0
    5.2700    1.3480   17.8720 C   0  0  0  0  0  0  0  0  0  0  0  0
    4.6510    1.4200   19.2440 C   0  0  0  0  0  0  0  0  0  0  0  0
    5.2530    0.5870   20.3500 C   0  0  0  0  0  0  0  0  0  0  0  0
    6.4510   -0.3050   20.0710 C   0  0  0  0  0  0  0  0  0  0  0  0
    6.8840   -0.2400   18.7420 C   0  0  0  0  0  0  0  0  0  0  0  0
    3.5490    2.2270   19.5150 C   0  0  0  0  0  0  0  0  0  0  0  0
    3.0060    2.2640   20.8300 C   0  0  0  0  0  0  0  0  0  0  0  0
    3.5840    1.4870   21.8420 C   0  0  0  0  0  0  0  0  0  0  0  0
    4.6710    0.6690   21.6170 C   0  0  0  0  0  0  0  0  0  0  0  0
   10.5250    0.5130   22.7250 C   0  0  0  0  0  0  0  0  0  0  0  0
   11.7940    0.5160   23.2640 C   0  0  0  0  0  0  0  0  0  0  0  0
   11.9210    0.0980   24.5630 C   0  0  0  0  0  0  0  0  0  0  0  0
   10.8020   -0.2970   25.2880 C   0  0  0  0  0  0  0  0  0  0  0  0
    9.5510   -0.2930   24.7510 C   0  0  0  0  0  0  0  0  0  0  0  0
    9.4180    0.1070   23.4700 C   0  0  0  0  0  0  0  0  0  0  0  0
  1  3  1  0
  2  3  2  0
  6  7  1  6
  6  8  1  0
  6  9  1  0
 10  3  1  6
  8 10  1  0
 10 11  1  0
 11 12  1  0
  4 13  1  0
 12 13  1  0
  6 14  1  0
 14 13  1  1
 10 15  1  0
 14 15  1  0
  4 17  1  0
 16 17  2  0
 17 18  1  0
  5 19  1  0
 18 19  1  0
 16 20  1  0
 19 20  2  0
 21 22  2  0
 22 23  1  0
 23 24  2  0
  8 25  1  6
 24 25  1  0
 21 26  1  0
 25 26  2  0
 23 27  1  0
 27 28  2  0
 28 29  1  0
 24 30  1  0
 29 30  2  0
 31 32  2  0
 32 33  1  0
 33 34  2  0
 34 35  1  0
  9 36  1  0
 31 36  1  0
 35 36  2  0
M  END
