x2562-x2646
     RDKit          3D

 24 26  0  0  0  0  0  0  0  0999 V2000
    8.2860   -0.0740   21.4280 C   0  0  0  0  0  0  0  0  0  0  0  0
    8.5580    1.1070   21.2140 O   0  0  0  0  0  0  0  0  0  0  0  0
    6.9460   -0.7070   21.1610 C   0  0  0  0  0  0  0  0  0  0  0  0
   12.0740    3.0210   23.3990 O   0  0  0  0  0  0  0  0  0  0  0  0
    9.3540   -0.8930   21.9580 N   0  0  0  0  0  0  0  0  0  0  0  0
   12.7570    6.7460   22.5600 O   0  0  0  0  0  0  0  0  0  0  0  0
    4.5020    0.9140   21.7220 C   0  0  0  0  0  0  0  0  0  0  0  0
   13.0930   -2.2840   22.0460 Cl  0  0  0  0  0  0  0  0  0  0  0  0
    4.5730    1.4940   19.2370 N   0  0  0  0  0  0  0  0  0  0  0  0
    5.1600    1.4050   17.9210 C   0  0  0  0  0  0  0  0  0  0  0  0
    6.2680    0.6230   17.7780 N   0  0  0  0  0  0  0  0  0  0  0  0
    6.7520   -0.0010   18.8300 C   0  0  0  0  0  0  0  0  0  0  0  0
    6.2640    0.0380   20.0930 C   0  0  0  0  0  0  0  0  0  0  0  0
    5.1160    0.8240   20.2990 C   0  0  0  0  0  0  0  0  0  0  0  0
   12.5860    4.6260   21.7070 N   0  0  0  0  0  0  0  0  0  0  0  0
   13.3780    5.5690   22.2620 C   0  0  2  0  0  0  0  0  0  0  0  0
   13.5830    4.8280   23.3110 C   0  0  0  0  0  0  0  0  0  0  0  0
   13.0680    3.7250   22.7140 C   0  0  1  0  0  0  0  0  0  0  0  0
   11.7130   -1.3440   22.1390 C   0  0  0  0  0  0  0  0  0  0  0  0
   12.7850   -0.4810   22.5170 C   0  0  0  0  0  0  0  0  0  0  0  0
   12.8840    0.8450   22.8960 C   0  0  0  0  0  0  0  0  0  0  0  0
   11.8710    1.7290   23.0170 C   0  0  0  0  0  0  0  0  0  0  0  0
   10.5790    1.0770   22.6810 C   0  0  0  0  0  0  0  0  0  0  0  0
   10.6480   -0.4140   22.2700 C   0  0  0  0  0  0  0  0  0  0  0  0
  1  2  2  0
  1  3  1  0
  1  5  1  0
  9 10  2  0
 10 11  1  0
 11 12  2  0
  3 13  1  0
 12 13  1  0
  7 14  1  0
  9 14  1  0
 13 14  2  0
 16  6  1  1
 15 16  1  0
 16 17  1  0
 18  4  1  1
 15 18  1  0
 17 18  1  0
  8 19  1  0
 19 20  2  0
 20 21  1  0
  4 22  1  0
 21 22  2  0
 22 23  1  0
  5 24  1  0
 19 24  1  0
 23 24  2  0
M  END
