x2563-x1384
     RDKit          3D

 37 42  0  0  0  0  0  0  0  0999 V2000
    5.5760   -2.9570   21.1010 N   0  0  0  0  0  0  0  0  0  0  0  0
    7.5910   -4.2870   20.5430 C   0  0  0  0  0  0  0  0  0  0  0  0
    5.3760   -4.8910   19.9890 O   0  0  0  0  0  0  0  0  0  0  0  0
    6.1040   -4.0780   20.5340 C   0  0  0  0  0  0  0  0  0  0  0  0
    8.5830    0.4800   21.2520 C   0  0  0  0  0  0  0  0  0  0  0  0
    8.7760    1.6780   21.0400 O   0  0  0  0  0  0  0  0  0  0  0  0
    7.3640   -0.0980   21.1350 C   0  0  2  0  0  0  0  0  0  0  0  0
    9.5030   -0.4690   21.6210 N   0  0  0  0  0  0  0  0  0  0  0  0
    6.1800   -1.8960   20.3940 C   0  0  0  0  0  0  0  0  0  0  0  0
    7.4290   -1.5450   20.8760 C   0  0  0  0  0  0  0  0  0  0  0  0
    6.2790    0.7470   17.6160 N   0  0  0  0  0  0  0  0  0  0  0  0
    5.1350    1.3730   17.8650 C   0  0  0  0  0  0  0  0  0  0  0  0
    4.5770    1.5640   19.2870 C   0  0  0  0  0  0  0  0  0  0  0  0
    5.3480    1.0600   20.3050 C   0  0  0  0  0  0  0  0  0  0  0  0
    6.5200    0.4420   20.0100 C   0  0  0  0  0  0  0  0  0  0  0  0
    6.9370    0.2970   18.6880 C   0  0  0  0  0  0  0  0  0  0  0  0
    3.3670    2.2050   19.5450 C   0  0  0  0  0  0  0  0  0  0  0  0
    2.9180    2.3410   20.8590 C   0  0  0  0  0  0  0  0  0  0  0  0
    3.6840    1.8380   21.9020 C   0  0  0  0  0  0  0  0  0  0  0  0
    4.8800    1.2090   21.6240 C   0  0  0  0  0  0  0  0  0  0  0  0
   11.6400   -0.6330   22.6140 C   0  0  0  0  0  0  0  0  0  0  0  0
   12.5320   -0.6010   23.6510 C   0  0  0  0  0  0  0  0  0  0  0  0
   11.9420   -0.3290   25.0240 C   0  0  0  0  0  0  0  0  0  0  0  0
   10.4440   -0.1060   25.1650 C   0  0  0  0  0  0  0  0  0  0  0  0
    9.6460   -0.1500   24.0470 C   0  0  0  0  0  0  0  0  0  0  0  0
   10.2520   -0.4140   22.7850 C   0  0  0  0  0  0  0  0  0  0  0  0
    2.5880   -2.7420   26.1670 O   0  0  0  0  0  0  0  0  0  0  0  0
    5.2100   -4.4320   24.2510 C   0  0  1  0  0  0  0  0  0  0  0  0
    4.7060   -3.7920   23.1230 C   0  0  1  0  0  0  0  0  0  0  0  0
    3.7470   -3.9340   24.2750 C   0  0  1  0  0  0  0  0  0  0  0  0
    3.0220   -5.1250   24.4160 C   0  0  0  0  0  0  0  0  0  0  0  0
    3.8110   -6.2500   24.1800 C   0  0  0  0  0  0  0  0  0  0  0  0
    5.1340   -5.8820   24.0840 C   0  0  0  0  0  0  0  0  0  0  0  0
    3.6540   -2.7280   25.2740 C   0  0  2  0  0  0  0  0  0  0  0  0
    4.7250   -2.8960   26.0760 C   0  0  0  0  0  0  0  0  0  0  0  0
    5.6000   -3.8140   25.5680 C   0  0  0  0  0  0  0  0  0  0  0  0
    5.4960   -2.7280   22.5330 C   0  0  0  0  0  0  0  0  0  0  0  0
  1  4  1  0
  2  4  1  0
  3  4  2  0
  5  6  2  0
  5  7  1  0
  5  8  1  0
  1  9  1  0
  7 10  1  6
  9 10  1  0
 11 12  2  0
 12 13  1  0
 13 14  2  0
  7 15  1  0
 14 15  1  0
 11 16  1  0
 15 16  2  0
 13 17  1  0
 17 18  2  0
 18 19  1  0
 14 20  1  0
 19 20  2  0
 21 22  2  0
 22 23  1  0
 23 24  2  0
 24 25  1  0
  8 26  1  0
 21 26  1  0
 25 26  2  0
 28 29  1  0
 28 30  1  0
 29 30  1  0
 30 31  1  6
 31 32  1  0
 28 33  1  6
 32 33  2  0
 34 27  1  1
 30 34  1  0
 34 35  1  0
 28 36  1  0
 35 36  2  0
  1 37  1  0
 29 37  1  1
M  END
