x2562-x0755
     RDKit          3D

 45 49  0  0  0  0  0  0  0  0999 V2000
    4.5000   -6.3130   26.1860 O   0  0  0  0  0  0  0  0  0  0  0  0
    6.0590   -4.6370   27.0840 O   0  0  0  0  0  0  0  0  0  0  0  0
    5.7690   -4.5680   19.9020 O   0  0  0  0  0  0  0  0  0  0  0  0
    6.7040   -4.3910   20.6750 C   0  0  0  0  0  0  0  0  0  0  0  0
    8.0510   -3.7110   20.3440 C   0  0  0  0  0  0  0  0  0  0  0  0
    2.1960   -5.4640   25.6990 F   0  0  0  0  0  0  0  0  0  0  0  0
    5.5220   -2.0660   26.1380 F   0  0  0  0  0  0  0  0  0  0  0  0
    5.2050   -5.0610   25.9990 S   0  0  0  0  0  0  0  0  0  0  0  0
    2.5840   -4.1840   25.7870 C   0  0  0  0  0  0  0  0  0  0  0  0
    3.9420   -3.8360   25.9250 C   0  0  0  0  0  0  0  0  0  0  0  0
    4.2580   -2.4870   26.0080 C   0  0  0  0  0  0  0  0  0  0  0  0
    3.2520   -1.5130   25.9600 C   0  0  0  0  0  0  0  0  0  0  0  0
    1.9000   -1.8610   25.8280 C   0  0  0  0  0  0  0  0  0  0  0  0
    1.5590   -3.2010   25.7380 C   0  0  0  0  0  0  0  0  0  0  0  0
    6.4290   -4.8390   22.1090 C   0  0  0  0  0  0  0  0  0  0  0  0
    7.5510   -5.0000   22.8760 C   0  0  0  0  0  0  0  0  0  0  0  0
    7.2610   -5.0960   24.2270 C   0  0  0  0  0  0  0  0  0  0  0  0
    5.7800   -5.1570   24.4310 N   0  0  0  0  0  0  0  0  0  0  0  0
    4.9400   -6.0490   23.5360 C   0  0  0  0  0  0  0  0  0  0  0  0
    5.5680   -6.0970   22.3080 C   0  0  0  0  0  0  0  0  0  0  0  0
    8.4260    0.2600   21.3770 C   0  0  0  0  0  0  0  0  0  0  0  0
    8.5970    1.4650   21.1230 O   0  0  0  0  0  0  0  0  0  0  0  0
    7.0270   -0.3420   21.3040 C   0  0  2  0  0  0  0  0  0  0  0  0
   12.0490    2.9070   23.2840 O   0  0  0  0  0  0  0  0  0  0  0  0
    9.3960   -0.6610   21.7100 N   0  0  0  0  0  0  0  0  0  0  0  0
   13.4300    6.6390   22.0810 O   0  0  0  0  0  0  0  0  0  0  0  0
    5.4970   -2.4670   21.6580 C   0  0  0  0  0  0  0  0  0  0  0  0
    6.8220   -1.8200   21.3040 C   0  0  0  0  0  0  0  0  0  0  0  0
    4.4890    1.5990   19.1790 N   0  0  0  0  0  0  0  0  0  0  0  0
    5.1450    1.3270   17.9150 C   0  0  0  0  0  0  0  0  0  0  0  0
    6.2430    0.6010   17.7380 N   0  0  0  0  0  0  0  0  0  0  0  0
    6.7890    0.0880   18.8420 C   0  0  0  0  0  0  0  0  0  0  0  0
    6.2810    0.2750   20.1290 C   0  0  0  0  0  0  0  0  0  0  0  0
    5.1280    1.0180   20.3430 C   0  0  0  0  0  0  0  0  0  0  0  0
   12.3960    4.5850   21.6830 N   0  0  0  0  0  0  0  0  0  0  0  0
   12.6710    5.5840   22.6000 C   0  0  1  0  0  0  0  0  0  0  0  0
   13.3810    4.8710   23.4800 C   0  0  0  0  0  0  0  0  0  0  0  0
   12.9720    3.8480   22.6770 C   0  0  1  0  0  0  0  0  0  0  0  0
   11.7350   -1.0760   22.2610 C   0  0  0  0  0  0  0  0  0  0  0  0
   13.0100   -0.6740   22.6770 C   0  0  0  0  0  0  0  0  0  0  0  0
   13.0570    0.6500   22.9930 C   0  0  0  0  0  0  0  0  0  0  0  0
   12.0130    1.5580   22.9590 C   0  0  0  0  0  0  0  0  0  0  0  0
   10.6440    1.0990   22.5220 C   0  0  0  0  0  0  0  0  0  0  0  0
   10.6280   -0.2280   22.1810 C   0  0  0  0  0  0  0  0  0  0  0  0
    5.6450   -3.6690   22.5920 C   0  0  0  0  0  0  0  0  0  0  0  0
  3  4  2  0
  4  5  1  0
  1  8  2  0
  2  8  2  0
  6  9  1  0
  8 10  1  0
  9 10  2  0
  7 11  1  0
 10 11  1  0
 11 12  2  0
 12 13  1  0
  9 14  1  0
 13 14  2  0
 15  4  1  0
 15 16  1  0
 16 17  1  0
  8 18  1  0
 17 18  1  0
 18 19  1  0
 15 20  1  0
 19 20  1  0
 21 22  2  0
 21 23  1  0
 21 25  1  0
 23 28  1  6
 27 28  1  0
 29 30  2  0
 30 31  1  0
 31 32  2  0
 23 33  1  0
 32 33  1  0
 29 34  1  0
 33 34  2  0
 36 26  1  6
 35 36  1  0
 36 37  1  0
 38 24  1  1
 35 38  1  0
 37 38  1  0
 39 40  2  0
 40 41  1  0
 24 42  1  0
 41 42  2  0
 42 43  1  0
 25 44  1  0
 39 44  1  0
 43 44  2  0
 15 45  1  0
 27 45  1  0
M  END
