x2563-x1308
     RDKit          3D

 41 45  0  0  0  0  0  0  0  0999 V2000
    7.9470   -3.5770   20.1710 C   0  0  0  0  0  0  0  0  0  0  0  0
    5.8220   -4.8370   19.9600 O   0  0  0  0  0  0  0  0  0  0  0  0
    0.5230   -1.1430   26.2630 Cl  0  0  0  0  0  0  0  0  0  0  0  0
    6.7090   -4.3390   20.6470 C   0  0  0  0  0  0  0  0  0  0  0  0
    6.4930   -5.0450   26.9120 O   0  0  0  0  0  0  0  0  0  0  0  0
    4.8420   -6.7930   26.2190 O   0  0  0  0  0  0  0  0  0  0  0  0
    5.3600   -5.4480   26.1100 S   0  0  0  0  0  0  0  0  0  0  0  0
    8.1700   -0.4870   21.2520 C   0  0  0  0  0  0  0  0  0  0  0  0
    8.2990    0.7300   21.0720 O   0  0  0  0  0  0  0  0  0  0  0  0
    7.0370   -1.2100   20.5350 C   0  0  1  0  0  0  0  0  0  0  0  0
    8.9900   -1.2130   22.0490 N   0  0  0  0  0  0  0  0  0  0  0  0
    6.3390   -2.9060   22.4690 C   0  0  0  0  0  0  0  0  0  0  0  0
    5.9760   -2.1420   21.1850 C   0  0  0  0  0  0  0  0  0  0  0  0
    6.4900   -4.4100   22.1490 C   0  0  0  0  0  0  0  0  0  0  0  0
    7.4990   -4.9560   22.9040 C   0  0  0  0  0  0  0  0  0  0  0  0
    7.3090   -5.0330   24.2740 C   0  0  0  0  0  0  0  0  0  0  0  0
    5.8980   -5.2380   24.5090 N   0  0  0  0  0  0  0  0  0  0  0  0
    5.2470   -6.0260   23.4680 C   0  0  0  0  0  0  0  0  0  0  0  0
    5.1940   -5.2510   22.3330 C   0  0  0  0  0  0  0  0  0  0  0  0
    4.3890   -2.9980   26.4970 C   0  0  0  0  0  0  0  0  0  0  0  0
    3.2650   -1.9360   26.5460 C   0  0  0  0  0  0  0  0  0  0  0  0
    1.7960   -2.2940   26.2120 C   0  0  0  0  0  0  0  0  0  0  0  0
    1.5780   -3.7400   25.8380 C   0  0  0  0  0  0  0  0  0  0  0  0
    2.7070   -4.7530   25.8010 C   0  0  0  0  0  0  0  0  0  0  0  0
    4.1270   -4.3340   26.1470 C   0  0  0  0  0  0  0  0  0  0  0  0
    6.1470    0.7070   17.5040 N   0  0  0  0  0  0  0  0  0  0  0  0
    5.1450    1.4650   17.9630 C   0  0  0  0  0  0  0  0  0  0  0  0
    4.6330    1.4790   19.2470 C   0  0  0  0  0  0  0  0  0  0  0  0
    5.2320    0.6020   20.1760 C   0  0  0  0  0  0  0  0  0  0  0  0
    6.2850   -0.2090   19.7190 C   0  0  0  0  0  0  0  0  0  0  0  0
    6.6750   -0.1050   18.4250 C   0  0  0  0  0  0  0  0  0  0  0  0
    3.5780    2.3130   19.6170 C   0  0  0  0  0  0  0  0  0  0  0  0
    3.1080    2.2880   20.9240 C   0  0  0  0  0  0  0  0  0  0  0  0
    3.6870    1.4370   21.8540 C   0  0  0  0  0  0  0  0  0  0  0  0
    4.7350    0.6010   21.4900 C   0  0  0  0  0  0  0  0  0  0  0  0
   11.2630   -0.6700   22.4610 C   0  0  0  0  0  0  0  0  0  0  0  0
   12.2210    0.0410   23.1620 C   0  0  0  0  0  0  0  0  0  0  0  0
   11.7770    0.8660   24.1510 C   0  0  0  0  0  0  0  0  0  0  0  0
   10.4460    1.0160   24.4840 C   0  0  0  0  0  0  0  0  0  0  0  0
    9.5030    0.3220   23.8010 C   0  0  0  0  0  0  0  0  0  0  0  0
    9.9090   -0.5150   22.7880 C   0  0  0  0  0  0  0  0  0  0  0  0
  1  4  1  0
  2  4  2  0
  5  7  2  0
  6  7  2  0
  8  9  2  0
  8 10  1  0
  8 11  1  0
 10 13  1  1
 12 13  1  0
 14  4  1  0
 12 14  1  0
 14 15  1  0
 15 16  1  0
  7 17  1  0
 16 17  1  0
 17 18  1  0
 14 19  1  0
 18 19  1  0
 20 21  2  0
  3 22  1  0
 21 22  1  0
 22 23  2  0
 23 24  1  0
  7 25  1  0
 20 25  1  0
 24 25  2  0
 26 27  2  0
 27 28  1  0
 28 29  2  0
 10 30  1  0
 29 30  1  0
 26 31  1  0
 30 31  2  0
 28 32  1  0
 32 33  2  0
 33 34  1  0
 29 35  1  0
 34 35  2  0
 36 37  2  0
 37 38  1  0
 38 39  2  0
 39 40  1  0
 11 41  1  0
 36 41  1  0
 40 41  2  0
M  END
