x2563-x2608
     RDKit          3D

 21 23  0  0  0  0  0  0  0  0999 V2000
    8.0700   -0.5190   21.2760 C   0  0  0  0  0  0  0  0  0  0  0  0
    8.3360    0.6440   20.9520 O   0  0  0  0  0  0  0  0  0  0  0  0
    6.7980   -1.1290   20.7990 C   0  0  0  0  0  0  0  0  0  0  0  0
    8.8360   -1.2890   22.0810 N   0  0  0  0  0  0  0  0  0  0  0  0
   13.3740    0.3510   22.8610 C   0  0  0  0  0  0  0  0  0  0  0  0
    6.0930    0.6260   17.4870 N   0  0  0  0  0  0  0  0  0  0  0  0
    5.0920    1.4300   17.9030 C   0  0  0  0  0  0  0  0  0  0  0  0
    4.5770    1.4700   19.2240 C   0  0  0  0  0  0  0  0  0  0  0  0
    5.1340    0.6230   20.2090 C   0  0  0  0  0  0  0  0  0  0  0  0
    6.1450   -0.2100   19.8530 C   0  0  0  0  0  0  0  0  0  0  0  0
    6.6080   -0.1660   18.4160 C   0  0  0  0  0  0  0  0  0  0  0  0
    3.5320    2.3320   19.5710 C   0  0  0  0  0  0  0  0  0  0  0  0
    3.0490    2.3590   20.8740 C   0  0  0  0  0  0  0  0  0  0  0  0
    3.5990    1.5290   21.8500 C   0  0  0  0  0  0  0  0  0  0  0  0
    4.6300    0.6690   21.5170 C   0  0  0  0  0  0  0  0  0  0  0  0
   11.1450   -0.5110   22.4640 C   0  0  0  0  0  0  0  0  0  0  0  0
   11.9440    0.3220   23.1700 C   0  0  0  0  0  0  0  0  0  0  0  0
   11.4320    1.1240   24.1470 C   0  0  0  0  0  0  0  0  0  0  0  0
   10.0930    1.1670   24.5200 C   0  0  0  0  0  0  0  0  0  0  0  0
    9.2170    0.3680   23.8600 C   0  0  0  0  0  0  0  0  0  0  0  0
    9.8140   -0.5220   22.7480 C   0  0  0  0  0  0  0  0  0  0  0  0
  1  2  2  0
  1  3  1  0
  1  4  1  0
  6  7  2  0
  7  8  1  0
  8  9  2  0
  3 10  1  0
  9 10  1  0
  6 11  1  0
 10 11  2  0
  8 12  1  0
 12 13  2  0
 13 14  1  0
  9 15  1  0
 14 15  2  0
  5 17  1  0
 16 17  2  0
 17 18  1  0
 18 19  2  0
 19 20  1  0
  4 21  1  0
 16 21  1  0
 20 21  2  0
M  END
