x2563-x0946
     RDKit          3D

 27 29  0  0  0  0  0  0  0  0999 V2000
    8.4100   -0.5040   21.2520 C   0  0  0  0  0  0  0  0  0  0  0  0
    8.4820    0.7250   21.1510 O   0  0  0  0  0  0  0  0  0  0  0  0
    7.2760   -1.1730   20.5610 C   0  0  0  0  0  0  0  0  0  0  0  0
    9.3150   -1.2770   21.9580 N   0  0  0  0  0  0  0  0  0  0  0  0
   12.6640   -1.6820   21.9720 Br  0  0  0  0  0  0  0  0  0  0  0  0
    6.1640    0.6440   17.5640 N   0  0  0  0  0  0  0  0  0  0  0  0
    5.1380    1.3860   18.0040 C   0  0  0  0  0  0  0  0  0  0  0  0
    4.6870    1.3810   19.3180 C   0  0  0  0  0  0  0  0  0  0  0  0
    5.3570    0.5440   20.2400 C   0  0  0  0  0  0  0  0  0  0  0  0
    6.4350   -0.2310   19.7710 C   0  0  0  0  0  0  0  0  0  0  0  0
    6.7720   -0.1340   18.4650 C   0  0  0  0  0  0  0  0  0  0  0  0
    3.6090    2.1720   19.7250 C   0  0  0  0  0  0  0  0  0  0  0  0
    3.1860    2.1470   21.0490 C   0  0  0  0  0  0  0  0  0  0  0  0
    3.8340    1.3350   21.9650 C   0  0  0  0  0  0  0  0  0  0  0  0
    4.9070    0.5380   21.5690 C   0  0  0  0  0  0  0  0  0  0  0  0
   11.4850   -0.4190   22.7570 C   0  0  0  0  0  0  0  0  0  0  0  0
   12.0960    0.5810   23.4590 C   0  0  0  0  0  0  0  0  0  0  0  0
   11.3060    1.5250   24.0640 C   0  0  0  0  0  0  0  0  0  0  0  0
    9.9540    1.5070   24.0330 C   0  0  0  0  0  0  0  0  0  0  0  0
    9.3450    0.5420   23.3350 C   0  0  0  0  0  0  0  0  0  0  0  0
   10.0780   -0.4080   22.6800 C   0  0  0  0  0  0  0  0  0  0  0  0
    9.6010    5.7590   22.7740 N   0  0  0  0  0  0  0  0  0  0  0  0
   10.7800    4.3360   24.3050 N   0  0  0  0  0  0  0  0  0  0  0  0
   11.7640    6.6400   23.4720 O   0  0  0  0  0  0  0  0  0  0  0  0
   11.1510    5.3600   23.2530 S   0  0  2  0  0  0  0  0  0  0  0  0
    9.1060    2.5250   24.7360 C   0  0  0  0  0  0  0  0  0  0  0  0
    9.3570    3.9970   24.4190 C   0  0  0  0  0  0  0  0  0  0  0  0
  1  2  2  0
  1  3  1  0
  1  4  1  0
  6  7  2  0
  7  8  1  0
  8  9  2  0
  3 10  1  0
  9 10  1  0
  6 11  1  0
 10 11  2  0
  8 12  1  0
 12 13  2  0
 13 14  1  0
  9 15  1  0
 14 15  2  0
  5 16  1  0
 16 17  2  0
 17 18  1  0
 18 19  2  0
 19 20  1  0
  4 21  1  0
 16 21  1  0
 20 21  2  0
 25 22  1  1
 23 25  2  0
 24 25  2  0
 19 26  1  0
 23 27  1  0
 26 27  1  0
M  END
