x2562-x0072
     RDKit          3D

 30 32  0  0  0  0  0  0  0  0999 V2000
    8.4540    0.0910   21.4060 C   0  0  0  0  0  0  0  0  0  0  0  0
    8.6690    1.2880   21.0740 O   0  0  0  0  0  0  0  0  0  0  0  0
    7.1750   -0.6230   21.1110 C   0  0  0  0  0  0  0  0  0  0  0  0
   12.0240    2.8660   23.3800 O   0  0  0  0  0  0  0  0  0  0  0  0
    9.3050   -0.7430   22.0970 N   0  0  0  0  0  0  0  0  0  0  0  0
   12.8310    6.7930   22.5130 O   0  0  0  0  0  0  0  0  0  0  0  0
    4.5880    1.6430   19.1160 N   0  0  0  0  0  0  0  0  0  0  0  0
    5.0870    1.5050   17.8690 C   0  0  0  0  0  0  0  0  0  0  0  0
    6.1140    0.7760   17.5780 N   0  0  0  0  0  0  0  0  0  0  0  0
    6.6750    0.1700   18.6120 C   0  0  0  0  0  0  0  0  0  0  0  0
    6.4070    0.1080   20.1050 C   0  0  0  0  0  0  0  0  0  0  0  0
    5.2030    0.9700   20.2580 C   0  0  0  0  0  0  0  0  0  0  0  0
   12.5180    4.5370   21.8200 N   0  0  0  0  0  0  0  0  0  0  0  0
   13.4370    5.5920   22.3620 C   0  0  2  0  0  0  0  0  0  0  0  0
   13.5180    4.8780   23.2640 C   0  0  0  0  0  0  0  0  0  0  0  0
   13.0210    3.6150   22.7110 C   0  0  1  0  0  0  0  0  0  0  0  0
   11.7130   -1.1370   22.2330 C   0  0  0  0  0  0  0  0  0  0  0  0
   12.9900   -0.6590   22.4930 C   0  0  0  0  0  0  0  0  0  0  0  0
   13.1100    0.6630   22.8670 C   0  0  0  0  0  0  0  0  0  0  0  0
   12.0160    1.5030   22.9960 C   0  0  0  0  0  0  0  0  0  0  0  0
   10.7610    1.0500   22.7450 C   0  0  0  0  0  0  0  0  0  0  0  0
   10.6020   -0.2690   22.3600 C   0  0  0  0  0  0  0  0  0  0  0  0
    6.5120   -5.3500   26.4210 C   0  0  0  0  0  0  0  0  0  0  0  0
    8.0820   -4.6260   26.3200 S   0  0  0  0  0  0  0  0  0  0  0  0
    9.0810   -5.6710   26.2920 O   0  0  0  0  0  0  0  0  0  0  0  0
    8.1550   -3.5640   27.2910 O   0  0  0  0  0  0  0  0  0  0  0  0
    8.1130   -3.9540   24.7870 N   0  0  0  0  0  0  0  0  0  0  0  0
    9.2790   -3.3910   24.4070 C   0  0  0  0  0  0  0  0  0  0  0  0
    9.3970   -2.7990   23.1730 C   0  0  0  0  0  0  0  0  0  0  0  0
    8.8290   -1.5550   23.1080 C   0  0  0  0  0  0  0  0  0  0  0  0
  1  2  2  0
  1  3  1  0
  1  5  1  0
  7  8  2  0
  8  9  1  0
  9 10  2  0
  3 11  1  0
 10 11  1  0
  7 12  1  0
 11 12  2  0
 14  6  1  1
 13 14  1  0
 14 15  1  0
 16  4  1  1
 13 16  1  0
 15 16  1  0
 17 18  2  0
 18 19  1  0
  4 20  1  0
 19 20  2  0
 20 21  1  0
  5 22  1  0
 17 22  1  0
 21 22  2  0
 23 24  1  0
 24 25  2  0
 24 26  2  0
 24 27  1  0
 27 28  1  0
 28 29  1  0
  5 30  1  0
 29 30  1  0
M  END
