x2569-x3305
     RDKit          3D

 29 31  0  0  0  0  0  0  0  0999 V2000
    3.5600   -7.0080   23.8330 C   0  0  0  0  0  0  0  0  0  0  0  0
    5.5140   -3.1460   21.0310 O   0  0  0  0  0  0  0  0  0  0  0  0
    6.5520   -2.3560   23.1810 N   0  0  0  0  0  0  0  0  0  0  0  0
    7.1840   -1.3160   21.1070 N   0  0  0  0  0  0  0  0  0  0  0  0
    7.0580   -3.5450   23.8960 C   0  0  0  0  0  0  0  0  0  0  0  0
    6.4030   -2.2820   21.7250 C   0  0  0  0  0  0  0  0  0  0  0  0
    8.2570   -0.6500   21.5870 C   0  0  0  0  0  0  0  0  0  0  0  0
    9.0980   -1.3670   22.6380 C   0  0  0  0  0  0  0  0  0  0  0  0
    6.9520   -1.2600   19.7740 C   0  0  0  0  0  0  0  0  0  0  0  0
    8.5580    0.4990   21.2210 O   0  0  0  0  0  0  0  0  0  0  0  0
   13.7760   -3.5410   20.4970 N   0  0  0  0  0  0  0  0  0  0  0  0
   13.3430   -2.3410   21.2750 C   0  0  0  0  0  0  0  0  0  0  0  0
    4.7210   -6.2960   23.5440 N   0  0  0  0  0  0  0  0  0  0  0  0
    5.0540   -5.1240   24.1250 C   0  0  0  0  0  0  0  0  0  0  0  0
    6.2670   -4.7790   23.5610 C   0  0  0  0  0  0  0  0  0  0  0  0
    6.6230   -5.7500   22.6570 N   0  0  0  0  0  0  0  0  0  0  0  0
    5.6580   -6.6820   22.6560 N   0  0  0  0  0  0  0  0  0  0  0  0
    5.7700    1.5470   17.6350 N   0  0  0  0  0  0  0  0  0  0  0  0
    6.4920    0.5690   18.1660 C   0  0  0  0  0  0  0  0  0  0  0  0
    6.1320   -0.2520   19.3470 C   0  0  0  0  0  0  0  0  0  0  0  0
    4.9240    0.1070   19.9260 C   0  0  0  0  0  0  0  0  0  0  0  0
    4.1630    1.1400   19.4050 C   0  0  0  0  0  0  0  0  0  0  0  0
    4.6300    1.8010   18.2860 C   0  0  0  0  0  0  0  0  0  0  0  0
   10.7850    0.3630   23.2480 C   0  0  0  0  0  0  0  0  0  0  0  0
   12.1160    0.7960   23.2340 C   0  0  0  0  0  0  0  0  0  0  0  0
   13.1640   -0.0510   22.5800 C   0  0  0  0  0  0  0  0  0  0  0  0
   12.7290   -1.2300   22.0200 C   0  0  0  0  0  0  0  0  0  0  0  0
   11.4450   -1.6260   22.0540 C   0  0  0  0  0  0  0  0  0  0  0  0
   10.4720   -0.8670   22.6490 C   0  0  0  0  0  0  0  0  0  0  0  0
  3  5  1  0
  2  6  2  0
  3  6  1  0
  4  6  1  0
  4  7  1  0
  7  8  1  0
  4  9  1  0
  7 10  2  0
 11 12  3  0
  1 13  1  0
 13 14  1  0
  5 15  1  0
 14 15  2  0
 15 16  1  0
 13 17  1  0
 16 17  2  0
 18 19  2  0
  9 20  1  0
 19 20  1  0
 20 21  2  0
 21 22  1  0
 18 23  1  0
 22 23  2  0
 24 25  2  0
 25 26  1  0
 12 27  1  0
 26 27  2  0
 27 28  1  0
  8 29  1  0
 24 29  1  0
 28 29  2  0
M  END
