x2562-x0769
     RDKit          3D

 43 47  0  0  0  0  0  0  0  0999 V2000
    5.8670   -5.1530   26.9660 O   0  0  0  0  0  0  0  0  0  0  0  0
    3.9940   -6.5310   25.9680 O   0  0  0  0  0  0  0  0  0  0  0  0
    5.9230   -4.5150   19.8870 O   0  0  0  0  0  0  0  0  0  0  0  0
    6.8440   -4.1650   20.6270 C   0  0  0  0  0  0  0  0  0  0  0  0
    8.2350   -3.6420   20.2490 C   0  0  0  0  0  0  0  0  0  0  0  0
    5.5740   -2.3770   26.2440 F   0  0  0  0  0  0  0  0  0  0  0  0
    4.8300   -5.3510   25.9780 S   0  0  0  0  0  0  0  0  0  0  0  0
    8.2310   -0.0780   21.4530 C   0  0  0  0  0  0  0  0  0  0  0  0
    8.1710    1.1460   21.3220 O   0  0  0  0  0  0  0  0  0  0  0  0
    7.2210   -0.9020   20.8870 C   0  0  1  0  0  0  0  0  0  0  0  0
   12.0720    2.9690   23.2820 O   0  0  0  0  0  0  0  0  0  0  0  0
    9.3150   -0.7930   22.1460 N   0  0  0  0  0  0  0  0  0  0  0  0
   12.8860    6.7530   22.6350 O   0  0  0  0  0  0  0  0  0  0  0  0
    6.9320   -2.7130   22.5750 C   0  0  0  0  0  0  0  0  0  0  0  0
    6.3130   -1.6440   21.9160 C   0  0  0  0  0  0  0  0  0  0  0  0
    4.2610   -2.6110   26.1250 C   0  0  0  0  0  0  0  0  0  0  0  0
    3.7700   -3.9170   25.9970 C   0  0  0  0  0  0  0  0  0  0  0  0
    2.3780   -4.0760   25.8750 C   0  0  0  0  0  0  0  0  0  0  0  0
    1.5210   -2.9770   25.8830 C   0  0  0  0  0  0  0  0  0  0  0  0
    2.0220   -1.6930   26.0130 C   0  0  0  0  0  0  0  0  0  0  0  0
    3.3910   -1.5090   26.1330 C   0  0  0  0  0  0  0  0  0  0  0  0
    6.5470   -4.1830   22.1190 C   0  0  0  0  0  0  0  0  0  0  0  0
    5.2240   -4.4920   22.1630 C   0  0  0  0  0  0  0  0  0  0  0  0
    4.8090   -4.2330   23.6030 C   0  0  0  0  0  0  0  0  0  0  0  0
    5.5600   -5.1660   24.4580 N   0  0  0  0  0  0  0  0  0  0  0  0
    6.9200   -5.1110   24.2910 C   0  0  0  0  0  0  0  0  0  0  0  0
    7.3720   -5.0890   22.8360 C   0  0  0  0  0  0  0  0  0  0  0  0
    4.5980    1.4710   19.3600 N   0  0  0  0  0  0  0  0  0  0  0  0
    5.1350    1.3890   18.0160 C   0  0  0  0  0  0  0  0  0  0  0  0
    6.1950    0.6520   17.6650 N   0  0  0  0  0  0  0  0  0  0  0  0
    6.8420   -0.0720   18.5970 C   0  0  0  0  0  0  0  0  0  0  0  0
    6.4350   -0.0760   19.9150 C   0  0  0  0  0  0  0  0  0  0  0  0
    5.3350    0.6700   20.3130 C   0  0  0  0  0  0  0  0  0  0  0  0
   12.4290    4.6440   21.7440 N   0  0  0  0  0  0  0  0  0  0  0  0
   13.3880    5.4880   22.2650 C   0  0  2  0  0  0  0  0  0  0  0  0
   13.7090    4.7630   23.3450 C   0  0  0  0  0  0  0  0  0  0  0  0
   13.0500    3.8100   22.6250 C   0  0  1  0  0  0  0  0  0  0  0  0
   11.7330   -1.0670   22.3750 C   0  0  0  0  0  0  0  0  0  0  0  0
   13.0310   -0.6070   22.6190 C   0  0  0  0  0  0  0  0  0  0  0  0
   13.0560    0.7190   22.9010 C   0  0  0  0  0  0  0  0  0  0  0  0
   11.9960    1.6070   22.9770 C   0  0  0  0  0  0  0  0  0  0  0  0
   10.5810    1.0980   22.7110 C   0  0  0  0  0  0  0  0  0  0  0  0
   10.5830   -0.2590   22.4170 C   0  0  0  0  0  0  0  0  0  0  0  0
  3  4  2  0
  4  5  1  0
  1  7  2  0
  2  7  2  0
  8  9  2  0
  8 10  1  0
  8 12  1  0
 10 15  1  1
 14 15  1  0
  6 16  1  0
  7 17  1  0
 16 17  2  0
 17 18  1  0
 18 19  2  0
 19 20  1  0
 16 21  1  0
 20 21  2  0
 22  4  1  0
 14 22  1  0
 22 23  1  0
 23 24  1  0
  7 25  1  0
 24 25  1  0
 25 26  1  0
 22 27  1  0
 26 27  1  0
 28 29  2  0
 29 30  1  0
 30 31  2  0
 10 32  1  0
 31 32  1  0
 28 33  1  0
 32 33  2  0
 35 13  1  1
 34 35  1  0
 35 36  1  0
 37 11  1  1
 34 37  1  0
 36 37  1  0
 38 39  2  0
 39 40  1  0
 11 41  1  0
 40 41  2  0
 41 42  1  0
 12 43  1  0
 38 43  1  0
 42 43  2  0
M  END
