x2562-x0689
     RDKit          3D

 41 45  0  0  0  0  0  0  0  0999 V2000
    8.1320   -0.0750   21.4430 C   0  0  0  0  0  0  0  0  0  0  0  0
    8.4420    1.1090   21.3000 O   0  0  0  0  0  0  0  0  0  0  0  0
    6.7090   -0.6160   21.3260 C   0  0  2  0  0  0  0  0  0  0  0  0
   11.9640    2.9850   23.2240 O   0  0  0  0  0  0  0  0  0  0  0  0
    9.2280   -0.9800   21.7170 N   0  0  0  0  0  0  0  0  0  0  0  0
   13.4890    6.6490   22.2970 O   0  0  0  0  0  0  0  0  0  0  0  0
    7.9810   -3.6010   20.3020 C   0  0  0  0  0  0  0  0  0  0  0  0
    5.7420   -4.5030   19.8590 O   0  0  0  0  0  0  0  0  0  0  0  0
    6.6160   -4.2000   20.6540 C   0  0  0  0  0  0  0  0  0  0  0  0
    3.8710   -6.2300   25.8740 O   0  0  0  0  0  0  0  0  0  0  0  0
    5.5850   -4.5870   26.7550 O   0  0  0  0  0  0  0  0  0  0  0  0
    4.6130   -4.9950   25.7640 S   0  0  0  0  0  0  0  0  0  0  0  0
    6.6190   -2.1460   21.3680 C   0  0  0  0  0  0  0  0  0  0  0  0
    5.7970   -2.8500   22.2870 C   0  0  0  0  0  0  0  0  0  0  0  0
    4.4130    1.5430   19.1300 N   0  0  0  0  0  0  0  0  0  0  0  0
    5.1150    1.3760   17.9990 C   0  0  0  0  0  0  0  0  0  0  0  0
    6.3320    0.5920   17.7740 N   0  0  0  0  0  0  0  0  0  0  0  0
    6.7750   -0.0260   18.8950 C   0  0  0  0  0  0  0  0  0  0  0  0
    6.1270    0.0900   20.1310 C   0  0  0  0  0  0  0  0  0  0  0  0
    4.9740    0.8590   20.2130 C   0  0  0  0  0  0  0  0  0  0  0  0
   12.4080    4.5330   21.6250 N   0  0  0  0  0  0  0  0  0  0  0  0
   12.6400    5.6210   22.4860 C   0  0  1  0  0  0  0  0  0  0  0  0
   13.2690    4.8540   23.4070 C   0  0  0  0  0  0  0  0  0  0  0  0
   12.9380    3.8090   22.6650 C   0  0  1  0  0  0  0  0  0  0  0  0
   11.7090   -1.3210   22.1770 C   0  0  0  0  0  0  0  0  0  0  0  0
   13.0580   -0.7550   22.5740 C   0  0  0  0  0  0  0  0  0  0  0  0
   13.1790    0.7330   22.9320 C   0  0  0  0  0  0  0  0  0  0  0  0
   11.9790    1.6320   22.9180 C   0  0  0  0  0  0  0  0  0  0  0  0
   10.6610    0.9530   22.5090 C   0  0  0  0  0  0  0  0  0  0  0  0
   10.4680   -0.4040   22.1400 C   0  0  0  0  0  0  0  0  0  0  0  0
    6.2410   -4.3660   22.1200 C   0  0  0  0  0  0  0  0  0  0  0  0
    5.3850   -5.4450   21.9980 C   0  0  0  0  0  0  0  0  0  0  0  0
    4.7660   -5.7940   23.1840 C   0  0  0  0  0  0  0  0  0  0  0  0
    5.3790   -4.9690   24.2510 N   0  0  0  0  0  0  0  0  0  0  0  0
    6.7270   -4.8410   24.2410 C   0  0  0  0  0  0  0  0  0  0  0  0
    7.2830   -4.6090   22.9760 C   0  0  0  0  0  0  0  0  0  0  0  0
    3.8670   -2.1120   26.1050 S   0  0  0  0  0  0  0  0  0  0  0  0
    3.4810   -3.7420   25.7300 C   0  0  0  0  0  0  0  0  0  0  0  0
    2.1410   -4.0010   25.3810 C   0  0  0  0  0  0  0  0  0  0  0  0
    1.5080   -2.8050   25.4550 C   0  0  0  0  0  0  0  0  0  0  0  0
    2.2380   -1.6790   25.8200 C   0  0  0  0  0  0  0  0  0  0  0  0
  1  2  2  0
  1  3  1  0
  1  5  1  0
  7  9  1  0
  8  9  2  0
 10 12  2  0
 11 12  2  0
  3 13  1  6
 13 14  1  0
 15 16  2  0
 16 17  1  0
 17 18  2  0
  3 19  1  0
 18 19  1  0
 15 20  1  0
 19 20  2  0
 22  6  1  6
 21 22  1  0
 22 23  1  0
 24  4  1  1
 21 24  1  0
 23 24  1  0
 25 26  2  0
 26 27  1  0
  4 28  1  0
 27 28  2  0
 28 29  1  0
  5 30  1  0
 25 30  1  0
 29 30  2  0
 31  9  1  0
 14 31  1  0
 31 32  1  0
 32 33  1  0
 12 34  1  0
 33 34  1  0
 34 35  1  0
 31 36  1  0
 35 36  1  0
 12 38  1  0
 37 38  1  0
 38 39  2  0
 39 40  1  0
 37 41  1  0
 40 41  2  0
M  END
