x2563-x0426
     RDKit          3D

 29 33  0  0  0  0  0  0  0  0999 V2000
    2.3730    1.5290   23.7220 C   0  0  0  0  0  0  0  0  0  0  0  0
    2.1820    0.3250   23.7650 O   0  0  0  0  0  0  0  0  0  0  0  0
    3.4760    2.1260   23.1160 N   0  0  0  0  0  0  0  0  0  0  0  0
    2.9100    4.1110   25.0690 F   0  0  0  0  0  0  0  0  0  0  0  0
    8.0900   -0.2700   21.0430 C   0  0  0  0  0  0  0  0  0  0  0  0
    8.1890    0.9540   20.9390 O   0  0  0  0  0  0  0  0  0  0  0  0
    7.0370   -1.0480   20.2670 C   0  0  0  0  0  0  0  0  0  0  0  0
    8.8790   -1.0970   21.8290 N   0  0  0  0  0  0  0  0  0  0  0  0
    1.6540    3.6430   25.0550 C   0  0  0  0  0  0  0  0  0  0  0  0
    1.3470    2.4060   24.4150 C   0  0  0  0  0  0  0  0  0  0  0  0
   -0.0040    1.9420   24.4210 C   0  0  0  0  0  0  0  0  0  0  0  0
   -1.0110    2.6850   25.0460 C   0  0  0  0  0  0  0  0  0  0  0  0
   -0.6410    4.0250   25.7330 C   0  0  0  0  0  0  0  0  0  0  0  0
    0.6860    4.4300   25.6960 C   0  0  0  0  0  0  0  0  0  0  0  0
    5.1680    0.6880   20.0840 C   0  0  2  0  0  0  0  0  0  0  0  0
    6.1260   -0.1560   19.5430 C   0  0  0  0  0  0  0  0  0  0  0  0
    6.1700   -0.0190   18.2500 N   0  0  0  0  0  0  0  0  0  0  0  0
    5.1330    0.9750   17.8270 C   0  0  0  0  0  0  0  0  0  0  0  0
    4.5440    1.5000   18.9830 C   0  0  2  0  0  0  0  0  0  0  0  0
    5.3550    2.1330   19.9590 C   0  0  1  0  0  0  0  0  0  0  0  0
   11.2330   -0.7330   22.3900 C   0  0  0  0  0  0  0  0  0  0  0  0
   12.2190   -0.2220   23.2210 C   0  0  0  0  0  0  0  0  0  0  0  0
   11.8700    0.4320   24.3660 C   0  0  0  0  0  0  0  0  0  0  0  0
   10.3720    0.5990   24.7260 C   0  0  0  0  0  0  0  0  0  0  0  0
    9.3700    0.0330   23.7900 C   0  0  0  0  0  0  0  0  0  0  0  0
    9.8550   -0.6060   22.6620 C   0  0  0  0  0  0  0  0  0  0  0  0
    4.3150    0.4960   21.3300 C   0  0  0  0  0  0  0  0  0  0  0  0
    4.1620    1.7700   21.9520 C   0  0  0  0  0  0  0  0  0  0  0  0
    4.8330    2.7600   21.2410 C   0  0  0  0  0  0  0  0  0  0  0  0
  1  2  2  0
  1  3  1  0
  5  6  2  0
  5  7  1  0
  5  8  1  0
  4  9  1  0
  1 10  1  0
  9 10  2  0
 10 11  1  0
 11 12  2  0
 12 13  1  0
  9 14  1  0
 13 14  2  0
  7 16  1  0
 15 16  1  0
 16 17  2  0
 17 18  1  0
 15 19  1  0
 19 18  1  6
 15 20  1  0
 19 20  1  0
 21 22  2  0
 22 23  1  0
 23 24  2  0
 24 25  1  0
  8 26  1  0
 21 26  1  0
 25 26  2  0
 15 27  1  1
  3 28  1  0
 27 28  2  0
 20 29  1  1
 28 29  1  0
M  END
