x2563-x0991
     RDKit          3D

 26 28  0  0  0  0  0  0  0  0999 V2000
    8.2880   -0.5340   21.3440 C   0  0  0  0  0  0  0  0  0  0  0  0
    8.5300    0.8670   21.0900 O   0  0  0  0  0  0  0  0  0  0  0  0
    6.9300   -1.0480   20.8570 C   0  0  0  0  0  0  0  0  0  0  0  0
    9.0940   -1.4720   21.9780 N   0  0  0  0  0  0  0  0  0  0  0  0
    9.9770   -5.6550   25.4880 N   0  0  0  0  0  0  0  0  0  0  0  0
    9.2470   -3.2730   23.7030 C   0  0  0  0  0  0  0  0  0  0  0  0
    8.3410   -4.4370   24.1590 C   0  0  0  0  0  0  0  0  0  0  0  0
    7.7950   -5.0790   26.3700 N   0  0  0  0  0  0  0  0  0  0  0  0
    8.6880   -5.0610   25.3510 C   0  0  0  0  0  0  0  0  0  0  0  0
    8.7750   -2.8150   22.3210 C   0  0  0  0  0  0  0  0  0  0  0  0
    6.2370    0.6260   17.5810 N   0  0  0  0  0  0  0  0  0  0  0  0
    5.1080    1.5370   17.8610 C   0  0  0  0  0  0  0  0  0  0  0  0
    4.6950    1.4610   19.2000 C   0  0  0  0  0  0  0  0  0  0  0  0
    5.2920    0.6210   20.1620 C   0  0  0  0  0  0  0  0  0  0  0  0
    6.3230   -0.1690   19.7840 C   0  0  0  0  0  0  0  0  0  0  0  0
    6.7710   -0.1560   18.5260 C   0  0  0  0  0  0  0  0  0  0  0  0
    3.6120    2.3100   19.5260 C   0  0  0  0  0  0  0  0  0  0  0  0
    3.0600    2.3430   20.9420 C   0  0  0  0  0  0  0  0  0  0  0  0
    3.6930    1.4490   21.9940 C   0  0  0  0  0  0  0  0  0  0  0  0
    4.8290    0.6000   21.4990 C   0  0  0  0  0  0  0  0  0  0  0  0
   11.3050   -0.7840   22.3470 C   0  0  0  0  0  0  0  0  0  0  0  0
   12.3060    0.0230   23.0750 C   0  0  0  0  0  0  0  0  0  0  0  0
   11.7840    0.8640   24.1950 C   0  0  0  0  0  0  0  0  0  0  0  0
   10.4240    0.8520   24.5080 C   0  0  0  0  0  0  0  0  0  0  0  0
    9.5320    0.0710   23.7810 C   0  0  0  0  0  0  0  0  0  0  0  0
    9.9800   -0.7300   22.7090 C   0  0  0  0  0  0  0  0  0  0  0  0
  1  2  2  0
  1  3  1  0
  1  4  1  0
  6  7  1  0
  5  9  2  3
  7  9  1  0
  8  9  1  0
  4 10  1  0
  6 10  1  0
 11 12  2  0
 12 13  1  0
 13 14  2  0
  3 15  1  0
 14 15  1  0
 11 16  1  0
 15 16  2  0
 13 17  1  0
 17 18  2  0
 18 19  1  0
 14 20  1  0
 19 20  2  0
 21 22  2  0
 22 23  1  0
 23 24  2  0
 24 25  1  0
  4 26  1  0
 21 26  1  0
 25 26  2  0
M  END
