x2563-x0104
     RDKit          3D

 31 34  0  0  0  0  0  0  0  0999 V2000
    9.0020    6.6120   22.6390 C   0  0  0  0  0  0  0  0  0  0  0  0
   10.3050    6.1130   23.3400 C   0  0  0  0  0  0  0  0  0  0  0  0
   10.5220    6.2960   24.5340 O   0  0  0  0  0  0  0  0  0  0  0  0
   11.1560    5.4560   22.4870 N   0  0  0  0  0  0  0  0  0  0  0  0
   12.5280    5.4290   22.6740 C   0  0  0  0  0  0  0  0  0  0  0  0
   13.0620    4.0080   22.9230 C   0  0  0  0  0  0  0  0  0  0  0  0
   13.5600   -1.7050   22.0030 F   0  0  0  0  0  0  0  0  0  0  0  0
   12.1390    2.9530   23.1400 C   0  0  0  0  0  0  0  0  0  0  0  0
   10.7490    3.0770   23.6720 C   0  0  0  0  0  0  0  0  0  0  0  0
   10.1180    1.8730   23.7310 N   0  0  0  0  0  0  0  0  0  0  0  0
   10.8430    1.0070   23.3360 C   0  0  0  0  0  0  0  0  0  0  0  0
   12.1010    1.4350   22.9650 C   0  0  0  0  0  0  0  0  0  0  0  0
   10.6150   -0.4950   23.1590 C   0  0  0  0  0  0  0  0  0  0  0  0
   11.3770   -1.5970   22.7060 C   0  0  0  0  0  0  0  0  0  0  0  0
   12.5890   -0.9150   22.4430 C   0  0  0  0  0  0  0  0  0  0  0  0
   12.9440    0.4300   22.5480 C   0  0  0  0  0  0  0  0  0  0  0  0
    8.5990   -0.2450   21.6800 C   0  0  0  0  0  0  0  0  0  0  0  0
    8.9830    0.8830   21.3660 O   0  0  0  0  0  0  0  0  0  0  0  0
    7.6270   -1.0070   20.7610 C   0  0  0  0  0  0  0  0  0  0  0  0
    9.0140   -0.9240   22.9530 N   0  0  0  0  0  0  0  0  0  0  0  0
    6.2210    0.5080   17.5810 N   0  0  0  0  0  0  0  0  0  0  0  0
    5.2040    1.2970   17.9410 C   0  0  0  0  0  0  0  0  0  0  0  0
    4.7840    1.4700   19.3820 C   0  0  0  0  0  0  0  0  0  0  0  0
    5.5670    0.7160   20.4250 C   0  0  0  0  0  0  0  0  0  0  0  0
    6.6960   -0.1440   19.8740 C   0  0  0  0  0  0  0  0  0  0  0  0
    6.9160   -0.1700   18.5210 C   0  0  0  0  0  0  0  0  0  0  0  0
    3.7270    2.2820   19.7770 C   0  0  0  0  0  0  0  0  0  0  0  0
    3.3740    2.4200   21.1490 C   0  0  0  0  0  0  0  0  0  0  0  0
    4.1190    1.7140   22.1140 C   0  0  0  0  0  0  0  0  0  0  0  0
    5.1790    0.8870   21.7540 C   0  0  0  0  0  0  0  0  0  0  0  0
    9.9870   -2.0290   23.0630 C   0  0  0  0  0  0  0  0  0  0  0  0
  1  2  1  0
  2  3  2  0
  2  4  1  0
  4  5  1  0
  5  6  1  0
  6  8  1  0
  8  9  2  0
  9 10  1  0
 10 11  1  0
  8 12  1  0
 11 12  2  0
 11 13  1  0
 13 14  2  0
  7 15  1  0
 14 15  1  0
 12 16  1  0
 15 16  2  0
 17 18  2  0
 17 19  1  0
 17 20  1  0
 21 22  2  0
 22 23  1  0
 23 24  2  0
 19 25  1  0
 24 25  1  0
 21 26  1  0
 25 26  2  0
 23 27  1  0
 27 28  2  0
 28 29  1  0
 24 30  1  0
 29 30  2  0
 14 31  1  0
 20 31  1  0
M  END
