x2563-x1351
     RDKit          3D

 39 43  0  0  0  0  0  0  0  0999 V2000
    7.0700   -3.3420   19.2150 C   0  0  0  0  0  0  0  0  0  0  0  0
    5.2480   -4.7380   19.9110 O   0  0  0  0  0  0  0  0  0  0  0  0
    6.2360   -4.1080   20.2560 C   0  0  0  0  0  0  0  0  0  0  0  0
    5.8570   -2.9770   25.2980 N   0  0  0  0  0  0  0  0  0  0  0  0
    7.9840   -2.9010   26.2210 O   0  0  0  0  0  0  0  0  0  0  0  0
    6.8640   -2.4070   26.0830 C   0  0  0  0  0  0  0  0  0  0  0  0
    8.3080    0.1210   21.2190 C   0  0  0  0  0  0  0  0  0  0  0  0
    8.4350    1.3180   20.9070 O   0  0  0  0  0  0  0  0  0  0  0  0
    7.1300   -0.5400   21.2150 C   0  0  2  0  0  0  0  0  0  0  0  0
    9.2820   -0.7360   21.6250 N   0  0  0  0  0  0  0  0  0  0  0  0
    7.4030   -1.9900   20.9610 C   0  0  0  0  0  0  0  0  0  0  0  0
    6.6360   -4.1080   21.5810 N   0  0  0  0  0  0  0  0  0  0  0  0
    7.4570   -2.9670   21.9540 C   0  0  2  0  0  0  0  0  0  0  0  0
    7.1240   -2.6900   23.2760 C   0  0  0  0  0  0  0  0  0  0  0  0
    5.9670   -3.2190   23.8410 C   0  0  1  0  0  0  0  0  0  0  0  0
    5.5940   -4.5460   23.5540 C   0  0  0  0  0  0  0  0  0  0  0  0
    6.3280   -5.0570   22.4820 C   0  0  0  0  0  0  0  0  0  0  0  0
    7.0960   -0.7830   28.0290 C   0  0  0  0  0  0  0  0  0  0  0  0
    6.7690    0.5090   28.8210 C   0  0  0  0  0  0  0  0  0  0  0  0
    5.7230    1.5130   28.2510 C   0  0  0  0  0  0  0  0  0  0  0  0
    5.1240    1.0820   26.9220 C   0  0  0  0  0  0  0  0  0  0  0  0
    5.4910   -0.2020   26.1990 C   0  0  0  0  0  0  0  0  0  0  0  0
    6.5140   -1.1410   26.8040 C   0  0  0  0  0  0  0  0  0  0  0  0
    6.2720    0.5750   17.6970 N   0  0  0  0  0  0  0  0  0  0  0  0
    5.1440    1.2590   17.9700 C   0  0  0  0  0  0  0  0  0  0  0  0
    4.5680    1.4080   19.2220 C   0  0  0  0  0  0  0  0  0  0  0  0
    5.2300    0.7980   20.2930 C   0  0  0  0  0  0  0  0  0  0  0  0
    6.4000    0.0950   20.0530 C   0  0  0  0  0  0  0  0  0  0  0  0
    6.8790    0.0030   18.7470 C   0  0  0  0  0  0  0  0  0  0  0  0
    3.3880    2.1270   19.4300 C   0  0  0  0  0  0  0  0  0  0  0  0
    2.8640    2.2370   20.7160 C   0  0  0  0  0  0  0  0  0  0  0  0
    3.5120    1.6370   21.7820 C   0  0  0  0  0  0  0  0  0  0  0  0
    4.6800    0.9260   21.5790 C   0  0  0  0  0  0  0  0  0  0  0  0
   11.4770   -0.5770   22.3900 C   0  0  0  0  0  0  0  0  0  0  0  0
   12.3800   -0.1420   23.3110 C   0  0  0  0  0  0  0  0  0  0  0  0
   11.8770    0.5110   24.3850 C   0  0  0  0  0  0  0  0  0  0  0  0
   10.5350    0.7590   24.5980 C   0  0  0  0  0  0  0  0  0  0  0  0
    9.6430    0.3430   23.6850 C   0  0  0  0  0  0  0  0  0  0  0  0
   10.1240   -0.3200   22.5830 C   0  0  0  0  0  0  0  0  0  0  0  0
  1  3  1  0
  2  3  2  0
  4  6  1  0
  5  6  2  0
  7  8  2  0
  7  9  1  0
  7 10  1  0
  9 11  1  6
  3 12  1  0
 13 11  1  6
 12 13  1  0
 13 14  1  0
 15  4  1  1
 14 15  1  0
 15 16  1  0
 12 17  1  0
 16 17  1  0
 18 19  2  0
 19 20  1  0
 20 21  2  0
 21 22  1  0
  6 23  1  0
 18 23  1  0
 22 23  2  0
 24 25  2  0
 25 26  1  0
 26 27  2  0
  9 28  1  0
 27 28  1  0
 24 29  1  0
 28 29  2  0
 26 30  1  0
 30 31  2  0
 31 32  1  0
 27 33  1  0
 32 33  2  0
 34 35  2  0
 35 36  1  0
 36 37  2  0
 37 38  1  0
 10 39  1  0
 34 39  1  0
 38 39  2  0
M  END
