x2562-x2643
     RDKit          3D

 23 25  0  0  0  0  0  0  0  0999 V2000
    8.4170    0.0710   21.3800 C   0  0  0  0  0  0  0  0  0  0  0  0
    8.6110    1.2890   21.1090 O   0  0  0  0  0  0  0  0  0  0  0  0
    7.1190   -0.6140   21.0790 C   0  0  0  0  0  0  0  0  0  0  0  0
   12.0310    2.8850   23.3040 O   0  0  0  0  0  0  0  0  0  0  0  0
    9.3510   -0.7850   21.9570 N   0  0  0  0  0  0  0  0  0  0  0  0
   12.8850    6.8090   22.4430 O   0  0  0  0  0  0  0  0  0  0  0  0
    8.6180   -1.6380   22.8910 C   0  0  0  0  0  0  0  0  0  0  0  0
    4.4660    1.6780   19.2890 N   0  0  0  0  0  0  0  0  0  0  0  0
    5.0550    1.4480   18.0690 C   0  0  0  0  0  0  0  0  0  0  0  0
    6.2290    0.6120   17.6930 N   0  0  0  0  0  0  0  0  0  0  0  0
    6.8200    0.0030   18.6340 C   0  0  0  0  0  0  0  0  0  0  0  0
    6.3810    0.1100   19.9830 C   0  0  0  0  0  0  0  0  0  0  0  0
    5.2290    0.9170   20.3340 C   0  0  0  0  0  0  0  0  0  0  0  0
   12.5230    4.6440   21.6500 N   0  0  0  0  0  0  0  0  0  0  0  0
   13.3860    5.5130   22.1840 C   0  0  2  0  0  0  0  0  0  0  0  0
   13.5460    4.7830   23.3840 C   0  0  0  0  0  0  0  0  0  0  0  0
   13.0040    3.6630   22.7600 C   0  0  1  0  0  0  0  0  0  0  0  0
   11.7940   -1.2310   22.2640 C   0  0  0  0  0  0  0  0  0  0  0  0
   12.9840   -0.6380   22.5930 C   0  0  0  0  0  0  0  0  0  0  0  0
   13.0610    0.7000   22.9240 C   0  0  0  0  0  0  0  0  0  0  0  0
   11.9820    1.5610   22.9730 C   0  0  0  0  0  0  0  0  0  0  0  0
   10.7530    1.0010   22.6450 C   0  0  0  0  0  0  0  0  0  0  0  0
   10.6800   -0.3570   22.2960 C   0  0  0  0  0  0  0  0  0  0  0  0
  1  2  2  0
  1  3  1  0
  1  5  1  0
  5  7  1  0
  8  9  2  0
  9 10  1  0
 10 11  2  0
  3 12  1  0
 11 12  1  0
  8 13  1  0
 12 13  2  0
 15  6  1  1
 14 15  1  0
 15 16  1  0
 17  4  1  1
 14 17  1  0
 16 17  1  0
 18 19  2  0
 19 20  1  0
  4 21  1  0
 20 21  2  0
 21 22  1  0
  5 23  1  0
 18 23  1  0
 22 23  2  0
M  END
