x2569-x1249
     RDKit          3D

 28 30  0  0  0  0  0  0  0  0999 V2000
    8.1500    0.1160   21.6200 C   0  0  0  0  0  0  0  0  0  0  0  0
    8.8110    1.1080   21.2310 O   0  0  0  0  0  0  0  0  0  0  0  0
    8.5660   -0.8080   22.7600 C   0  0  0  0  0  0  0  0  0  0  0  0
   13.6440   -2.8200   20.6260 N   0  0  0  0  0  0  0  0  0  0  0  0
    6.9410   -0.2880   21.0910 N   0  0  0  0  0  0  0  0  0  0  0  0
   13.0330   -1.9150   21.5290 C   0  0  0  0  0  0  0  0  0  0  0  0
    8.3380    0.6720   24.7990 N   0  0  0  0  0  0  0  0  0  0  0  0
    7.5630    1.5740   24.1540 C   0  0  0  0  0  0  0  0  0  0  0  0
    8.0270    2.6390   23.7290 O   0  0  0  0  0  0  0  0  0  0  0  0
    9.6540    0.9260   24.9520 C   0  0  0  0  0  0  0  0  0  0  0  0
   11.8430    0.3920   24.2840 N   0  0  0  0  0  0  0  0  0  0  0  0
   12.8220   -0.2940   23.4570 C   0  0  0  0  0  0  0  0  0  0  0  0
   12.2500   -1.0960   22.4840 C   0  0  0  0  0  0  0  0  0  0  0  0
   10.9020   -1.2210   22.3080 C   0  0  0  0  0  0  0  0  0  0  0  0
    9.9980   -0.5720   23.0830 C   0  0  0  0  0  0  0  0  0  0  0  0
   10.4980    0.2280   24.0770 C   0  0  0  0  0  0  0  0  0  0  0  0
    6.4120    0.6890   17.6050 N   0  0  0  0  0  0  0  0  0  0  0  0
    6.9190    0.1430   18.7120 C   0  0  0  0  0  0  0  0  0  0  0  0
    6.3670    0.2740   19.9660 C   0  0  0  0  0  0  0  0  0  0  0  0
    5.2010    1.0050   20.0800 C   0  0  0  0  0  0  0  0  0  0  0  0
    4.5780    1.6110   19.0110 C   0  0  0  0  0  0  0  0  0  0  0  0
    5.1780    1.4640   17.7750 C   0  0  0  0  0  0  0  0  0  0  0  0
    3.4820    0.9250   23.8450 O   0  0  0  0  0  0  0  0  0  0  0  0
    4.2430    0.8990   22.6360 C   0  0  0  0  0  0  0  0  0  0  0  0
    5.5510    1.6920   22.7960 C   0  0  0  0  0  0  0  0  0  0  0  0
    6.2340    1.2280   24.0000 N   0  0  0  0  0  0  0  0  0  0  0  0
    5.5570    0.3100   24.7340 C   0  0  0  0  0  0  0  0  0  0  0  0
    4.2030    0.5250   25.0100 C   0  0  0  0  0  0  0  0  0  0  0  0
  1  2  2  0
  1  3  1  0
  1  5  1  0
  4  6  3  0
  7  8  1  0
  8  9  2  0
  7 10  1  0
 11 12  2  0
  6 13  1  0
 12 13  1  0
 13 14  2  0
  3 15  1  0
 14 15  1  0
 10 16  1  0
 11 16  1  0
 15 16  2  0
 17 18  2  0
  5 19  1  0
 18 19  1  0
 19 20  2  0
 20 21  1  0
 17 22  1  0
 21 22  2  0
 23 24  1  0
 24 25  1  0
  8 26  1  0
 25 26  1  0
 26 27  1  0
 23 28  1  0
 27 28  1  0
M  END
