x2562-x0354
     RDKit          3D

 40 44  0  0  0  0  0  0  0  0999 V2000
    8.4220   -0.1560   21.3110 C   0  0  0  0  0  0  0  0  0  0  0  0
    8.6130    1.0770   21.2850 O   0  0  0  0  0  0  0  0  0  0  0  0
    7.0390   -0.7130   21.1920 C   0  0  0  0  0  0  0  0  0  0  0  0
   13.2070    3.0940   22.8020 O   0  0  0  0  0  0  0  0  0  0  0  0
    9.4180   -1.1320   21.3950 N   0  0  0  0  0  0  0  0  0  0  0  0
   13.5520    6.9910   22.3420 O   0  0  0  0  0  0  0  0  0  0  0  0
    7.9070   -2.3040   25.0880 O   0  0  0  0  0  0  0  0  0  0  0  0
    7.3650   -0.5310   27.3850 O   0  0  0  0  0  0  0  0  0  0  0  0
    8.7290   -1.4850   25.5170 C   0  0  0  0  0  0  0  0  0  0  0  0
    8.3110   -0.2550   26.3520 C   0  0  0  0  0  0  0  0  0  0  0  0
    5.5660    3.5620   30.9960 C   0  0  0  0  0  0  0  0  0  0  0  0
   10.1400   -1.3300   22.5880 C   0  0  0  0  0  0  0  0  0  0  0  0
    4.5260    1.5440   19.4690 N   0  0  0  0  0  0  0  0  0  0  0  0
    5.0360    1.4110   18.0850 C   0  0  0  0  0  0  0  0  0  0  0  0
    6.1680    0.5950   17.6690 N   0  0  0  0  0  0  0  0  0  0  0  0
    6.8270   -0.1020   18.6310 C   0  0  0  0  0  0  0  0  0  0  0  0
    6.3660   -0.0070   20.0950 C   0  0  0  0  0  0  0  0  0  0  0  0
    5.2600    0.7960   20.3940 C   0  0  0  0  0  0  0  0  0  0  0  0
   12.2690    4.9790   21.8790 N   0  0  0  0  0  0  0  0  0  0  0  0
   12.5200    6.1200   22.7300 C   0  0  1  0  0  0  0  0  0  0  0  0
   12.9820    5.2160   23.6380 C   0  0  0  0  0  0  0  0  0  0  0  0
   12.4630    4.2500   22.9890 C   0  0  2  0  0  0  0  0  0  0  0  0
   11.2210   -0.2570   22.7270 C   0  0  0  0  0  0  0  0  0  0  0  0
   12.6520   -0.5750   22.8940 C   0  0  0  0  0  0  0  0  0  0  0  0
   13.1620    0.7430   22.8810 C   0  0  0  0  0  0  0  0  0  0  0  0
   12.5270    1.9550   22.7950 C   0  0  0  0  0  0  0  0  0  0  0  0
   11.2230    2.0440   22.6900 C   0  0  0  0  0  0  0  0  0  0  0  0
   10.5400    0.9420   22.6410 C   0  0  0  0  0  0  0  0  0  0  0  0
   11.7550   -1.6240   22.8750 N   0  0  0  0  0  0  0  0  0  0  0  0
   11.9640   -2.5590   23.9620 C   0  0  0  0  0  0  0  0  0  0  0  0
   10.5800   -2.8660   24.5910 C   0  0  0  0  0  0  0  0  0  0  0  0
   10.1170   -1.6430   25.3000 N   0  0  0  0  0  0  0  0  0  0  0  0
   10.8270   -0.5160   24.7660 C   0  0  0  0  0  0  0  0  0  0  0  0
   10.6310   -0.7830   23.2690 C   0  0  0  0  0  0  0  0  0  0  0  0
    7.7380    1.7410   28.2580 C   0  0  0  0  0  0  0  0  0  0  0  0
    7.2270    2.8140   29.2400 C   0  0  0  0  0  0  0  0  0  0  0  0
    6.0970    2.5430   30.0330 C   0  0  0  0  0  0  0  0  0  0  0  0
    5.4810    1.3000   29.8990 C   0  0  0  0  0  0  0  0  0  0  0  0
    5.9210    0.3190   29.0260 C   0  0  0  0  0  0  0  0  0  0  0  0
    7.0300    0.5060   28.2050 C   0  0  0  0  0  0  0  0  0  0  0  0
  1  2  2  0
  1  3  1  0
  1  5  1  0
  7  9  2  0
  8 10  1  0
  9 10  1  0
  5 12  1  0
 13 14  2  0
 14 15  1  0
 15 16  2  0
  3 17  1  0
 16 17  1  0
 13 18  1  0
 17 18  2  0
 20  6  1  6
 19 20  1  0
 20 21  1  0
 22  4  1  6
 19 22  1  0
 21 22  1  0
 12 23  1  0
 23 24  1  0
 24 25  2  0
  4 26  1  0
 25 26  1  0
 26 27  2  0
 23 28  2  0
 27 28  1  0
 24 29  1  0
 29 30  1  0
 30 31  1  0
  9 32  1  0
 31 32  1  0
 32 33  1  0
 29 34  1  0
 33 34  1  0
 35 36  2  0
 11 37  1  0
 36 37  1  0
 37 38  2  0
 38 39  1  0
  8 40  1  0
 35 40  1  0
 39 40  2  0
M  END
