x2562-x3305
     RDKit          3D

 35 39  0  0  0  0  0  0  0  0999 V2000
    3.5050   -7.0170   23.7440 C   0  0  0  0  0  0  0  0  0  0  0  0
    5.2850   -2.8740   21.2920 O   0  0  0  0  0  0  0  0  0  0  0  0
    6.5980   -2.3390   23.3530 N   0  0  0  0  0  0  0  0  0  0  0  0
    7.2790   -1.4560   21.0910 C   0  0  1  0  0  0  0  0  0  0  0  0
    7.0480   -3.2990   23.8520 C   0  0  0  0  0  0  0  0  0  0  0  0
    6.3290   -2.2490   21.9190 C   0  0  0  0  0  0  0  0  0  0  0  0
    8.6800   -1.8590   21.4740 C   0  0  2  0  0  0  0  0  0  0  0  0
    9.3170   -2.1040   22.6800 C   0  0  0  0  0  0  0  0  0  0  0  0
    6.8930   -1.4720   19.6480 C   0  0  0  0  0  0  0  0  0  0  0  0
    8.0470   -0.3300   21.4740 C   0  0  0  0  0  0  0  0  0  0  0  0
    8.1420    1.1010   21.6790 O   0  0  0  0  0  0  0  0  0  0  0  0
    4.6290   -6.2320   23.5350 N   0  0  0  0  0  0  0  0  0  0  0  0
    4.9990   -4.9480   24.0740 C   0  0  0  0  0  0  0  0  0  0  0  0
    6.2100   -4.5350   23.6010 C   0  0  0  0  0  0  0  0  0  0  0  0
    6.6150   -5.6520   22.6960 N   0  0  0  0  0  0  0  0  0  0  0  0
    5.6420   -6.6080   22.7080 N   0  0  0  0  0  0  0  0  0  0  0  0
    5.8410    1.4890   17.7260 N   0  0  0  0  0  0  0  0  0  0  0  0
    6.6110    0.3480   18.2240 C   0  0  0  0  0  0  0  0  0  0  0  0
    6.1440   -0.3760   19.2630 C   0  0  0  0  0  0  0  0  0  0  0  0
    4.9760   -0.0810   19.9180 C   0  0  0  0  0  0  0  0  0  0  0  0
    4.1790    0.9890   19.5480 C   0  0  0  0  0  0  0  0  0  0  0  0
    4.7210    1.7870   18.3430 C   0  0  0  0  0  0  0  0  0  0  0  0
   10.4200    0.0370   23.0220 C   0  0  0  0  0  0  0  0  0  0  0  0
   11.6270    0.9090   22.9920 C   0  0  0  0  0  0  0  0  0  0  0  0
   13.0680    0.5090   22.5900 C   0  0  0  0  0  0  0  0  0  0  0  0
   12.8980   -0.8740   22.2910 C   0  0  0  0  0  0  0  0  0  0  0  0
   11.7650   -1.6610   22.3230 C   0  0  0  0  0  0  0  0  0  0  0  0
   10.5330   -1.2490   22.6720 C   0  0  0  0  0  0  0  0  0  0  0  0
   12.0580    2.8330   22.3820 O   0  0  0  0  0  0  0  0  0  0  0  0
   13.1860    6.8130   22.2370 O   0  0  0  0  0  0  0  0  0  0  0  0
   11.7470    5.1770   22.2610 N   0  0  0  0  0  0  0  0  0  0  0  0
   12.7730    5.7280   22.9450 C   0  0  1  0  0  0  0  0  0  0  0  0
   13.5840    4.7410   22.8230 C   0  0  0  0  0  0  0  0  0  0  0  0
   12.6210    4.1050   21.9710 C   0  0  1  0  0  0  0  0  0  0  0  0
   13.0130    1.9480   22.9490 C   0  0  0  0  0  0  0  0  0  0  0  0
  3  5  1  0
  2  6  2  0
  3  6  1  0
  4  6  1  0
  4  7  1  0
  7  8  1  1
  4  9  1  6
  4 10  1  0
  7 10  1  0
 10 11  2  0
  1 12  1  0
 12 13  1  0
  5 14  1  0
 13 14  2  0
 14 15  1  0
 12 16  1  0
 15 16  2  0
 17 18  2  0
  9 19  1  0
 18 19  1  0
 19 20  2  0
 20 21  1  0
 17 22  1  0
 21 22  2  0
 23 24  2  0
 24 25  1  0
 25 26  2  0
 26 27  1  0
  8 28  1  0
 23 28  1  0
 27 28  2  0
 32 30  1  6
 31 32  1  0
 32 33  1  0
 34 29  1  1
 31 34  1  0
 33 34  1  0
 25 35  1  0
 29 35  1  0
M  END
