x2562-x1380
     RDKit          3D

 40 44  0  0  0  0  0  0  0  0999 V2000
    8.3400    0.0710   21.5010 C   0  0  0  0  0  0  0  0  0  0  0  0
    8.5640    1.2670   21.1570 O   0  0  0  0  0  0  0  0  0  0  0  0
    6.8960   -0.4020   21.5940 C   0  0  2  0  0  0  0  0  0  0  0  0
   12.0220    2.8590   23.3420 O   0  0  0  0  0  0  0  0  0  0  0  0
    9.3680   -0.8220   21.7700 N   0  0  0  0  0  0  0  0  0  0  0  0
   12.9250    6.7690   22.6740 O   0  0  0  0  0  0  0  0  0  0  0  0
    7.4150   -3.2690   19.2660 C   0  0  0  0  0  0  0  0  0  0  0  0
    5.3980   -4.4130   19.8750 O   0  0  0  0  0  0  0  0  0  0  0  0
    6.5330   -4.0600   20.2080 C   0  0  0  0  0  0  0  0  0  0  0  0
    5.0510   -2.3090   25.2020 O   0  0  0  0  0  0  0  0  0  0  0  0
    6.0310   -3.0470   25.3250 C   0  0  0  0  0  0  0  0  0  0  0  0
    6.4510   -1.8490   21.9980 C   0  0  0  0  0  0  0  0  0  0  0  0
    4.4600    1.4920   19.3890 N   0  0  0  0  0  0  0  0  0  0  0  0
    5.0620    1.2140   18.0660 C   0  0  0  0  0  0  0  0  0  0  0  0
    6.2410    0.3980   17.8230 N   0  0  0  0  0  0  0  0  0  0  0  0
    6.8640   -0.1590   18.9020 C   0  0  0  0  0  0  0  0  0  0  0  0
    6.3020    0.1030   20.3290 C   0  0  0  0  0  0  0  0  0  0  0  0
    5.1520    0.8960   20.4460 C   0  0  0  0  0  0  0  0  0  0  0  0
   12.4220    4.5070   21.7760 N   0  0  0  0  0  0  0  0  0  0  0  0
   13.3840    5.5120   22.1740 C   0  0  2  0  0  0  0  0  0  0  0  0
   13.5650    4.7400   23.2740 C   0  0  0  0  0  0  0  0  0  0  0  0
   12.9990    3.7060   22.7000 C   0  0  1  0  0  0  0  0  0  0  0  0
   11.7570   -1.2030   22.1950 C   0  0  0  0  0  0  0  0  0  0  0  0
   12.9800   -0.6520   22.5860 C   0  0  0  0  0  0  0  0  0  0  0  0
   13.0660    0.6900   22.9570 C   0  0  0  0  0  0  0  0  0  0  0  0
   11.9640    1.5220   22.9730 C   0  0  0  0  0  0  0  0  0  0  0  0
   10.7570    0.9670   22.5870 C   0  0  0  0  0  0  0  0  0  0  0  0
   10.6340   -0.3740   22.1890 C   0  0  0  0  0  0  0  0  0  0  0  0
    7.0750   -4.4550   21.4400 N   0  0  0  0  0  0  0  0  0  0  0  0
    6.4090   -5.4380   22.2690 C   0  0  0  0  0  0  0  0  0  0  0  0
    5.7310   -4.6960   23.4100 C   0  0  0  0  0  0  0  0  0  0  0  0
    6.6520   -3.6300   24.0400 C   0  0  1  0  0  0  0  0  0  0  0  0
    7.3620   -2.6830   22.9810 C   0  0  1  0  0  0  0  0  0  0  0  0
    8.0290   -3.6670   22.0550 C   0  0  0  0  0  0  0  0  0  0  0  0
    7.8930   -3.8220   26.8830 C   0  0  0  0  0  0  0  0  0  0  0  0
    7.8690   -5.1240   27.4110 C   0  0  0  0  0  0  0  0  0  0  0  0
    7.1090   -5.1450   28.5680 C   0  0  0  0  0  0  0  0  0  0  0  0
    5.8120   -4.6690   28.4200 C   0  0  0  0  0  0  0  0  0  0  0  0
    5.6050   -3.4770   27.7120 C   0  0  0  0  0  0  0  0  0  0  0  0
    6.5400   -3.3690   26.5860 N   0  0  0  0  0  0  0  0  0  0  0  0
  1  2  2  0
  1  3  1  0
  1  5  1  0
  7  9  1  0
  8  9  2  0
 10 11  2  0
  3 12  1  6
 13 14  2  0
 14 15  1  0
 15 16  2  0
  3 17  1  0
 16 17  1  0
 13 18  1  0
 17 18  2  0
 20  6  1  1
 19 20  1  0
 20 21  1  0
 22  4  1  1
 19 22  1  0
 21 22  1  0
 23 24  2  0
 24 25  1  0
  4 26  1  0
 25 26  2  0
 26 27  1  0
  5 28  1  0
 23 28  1  0
 27 28  2  0
  9 29  1  0
 29 30  1  0
 30 31  1  0
 32 11  1  1
 31 32  1  0
 33 12  1  6
 32 33  1  0
 29 34  1  0
 33 34  1  0
 35 36  1  0
 36 37  1  0
 37 38  1  0
 38 39  1  0
 11 40  1  0
 35 40  1  0
 39 40  1  0
M  END
