x2569-x0678
     RDKit          3D

 18 19  0  0  0  0  0  0  0  0999 V2000
    8.2020    0.2610   21.6790 C   0  0  0  0  0  0  0  0  0  0  0  0
    8.8010    1.2530   21.2210 O   0  0  0  0  0  0  0  0  0  0  0  0
    8.7610   -0.6370   22.7650 C   0  0  0  0  0  0  0  0  0  0  0  0
   13.7480   -3.5270   20.5590 N   0  0  0  0  0  0  0  0  0  0  0  0
    6.9640   -0.1620   21.2590 N   0  0  0  0  0  0  0  0  0  0  0  0
   13.1290   -2.4630   21.3220 C   0  0  0  0  0  0  0  0  0  0  0  0
   12.2080    0.7700   23.1280 N   0  0  0  0  0  0  0  0  0  0  0  0
   12.9490   -0.1800   22.5680 C   0  0  0  0  0  0  0  0  0  0  0  0
   12.3950   -1.4650   21.9530 C   0  0  0  0  0  0  0  0  0  0  0  0
   11.0420   -1.6140   22.0260 C   0  0  0  0  0  0  0  0  0  0  0  0
   10.2800   -0.6230   22.6190 C   0  0  0  0  0  0  0  0  0  0  0  0
   10.8830    0.5160   23.1320 C   0  0  0  0  0  0  0  0  0  0  0  0
    6.3570    0.6080   17.6580 N   0  0  0  0  0  0  0  0  0  0  0  0
    6.9610    0.0410   18.8610 C   0  0  0  0  0  0  0  0  0  0  0  0
    6.4160    0.3200   20.0860 C   0  0  0  0  0  0  0  0  0  0  0  0
    5.1700    1.1970   20.1880 C   0  0  0  0  0  0  0  0  0  0  0  0
    4.6620    1.6860   18.9980 C   0  0  0  0  0  0  0  0  0  0  0  0
    5.1880    1.4460   17.7570 C   0  0  0  0  0  0  0  0  0  0  0  0
  1  2  2  0
  1  3  1  0
  1  5  1  0
  4  6  3  0
  7  8  2  0
  6  9  1  0
  8  9  1  0
  9 10  2  0
  3 11  1  0
 10 11  1  0
  7 12  1  0
 11 12  2  0
 13 14  2  0
  5 15  1  0
 14 15  1  0
 15 16  2  0
 16 17  1  0
 13 18  1  0
 17 18  2  0
M  END
