x2569-x0540
     RDKit          3D

 30 32  0  0  0  0  0  0  0  0999 V2000
    8.2900   -0.1790   21.7270 C   0  0  0  0  0  0  0  0  0  0  0  0
    8.9110    0.8330   21.4010 O   0  0  0  0  0  0  0  0  0  0  0  0
    8.7070   -1.1340   22.8480 C   0  0  0  0  0  0  0  0  0  0  0  0
   14.1280   -1.2360   20.2030 N   0  0  0  0  0  0  0  0  0  0  0  0
    7.1060   -0.5990   21.1310 N   0  0  0  0  0  0  0  0  0  0  0  0
   13.2790   -1.3670   21.3250 C   0  0  0  0  0  0  0  0  0  0  0  0
    2.8470    1.4730   24.4480 O   0  0  0  0  0  0  0  0  0  0  0  0
    2.9530    2.3450   23.5810 C   0  0  0  0  0  0  0  0  0  0  0  0
    4.1410    2.6230   22.8720 N   0  0  0  0  0  0  0  0  0  0  0  0
    4.9510    1.5960   22.5210 C   0  0  0  0  0  0  0  0  0  0  0  0
    4.4820    0.6610   21.6140 C   0  0  0  0  0  0  0  0  0  0  0  0
    1.9370    3.1860   23.1640 N   0  0  0  0  0  0  0  0  0  0  0  0
   12.1800   -1.3550   24.6930 N   0  0  0  0  0  0  0  0  0  0  0  0
   12.9070   -1.3760   23.6070 C   0  0  0  0  0  0  0  0  0  0  0  0
   12.4050   -1.3340   22.3360 C   0  0  0  0  0  0  0  0  0  0  0  0
   11.0460   -1.2560   22.0690 C   0  0  0  0  0  0  0  0  0  0  0  0
   10.2090   -1.2220   23.1210 C   0  0  0  0  0  0  0  0  0  0  0  0
   10.8590   -1.2800   24.4730 C   0  0  0  0  0  0  0  0  0  0  0  0
    6.4150    0.6440   17.7000 N   0  0  0  0  0  0  0  0  0  0  0  0
    6.9710    0.0540   18.7800 C   0  0  0  0  0  0  0  0  0  0  0  0
    6.4030    0.0490   20.0320 C   0  0  0  0  0  0  0  0  0  0  0  0
    5.1830    0.6430   20.2790 C   0  0  0  0  0  0  0  0  0  0  0  0
    4.6080    1.2500   19.1640 C   0  0  0  0  0  0  0  0  0  0  0  0
    5.2330    1.2410   17.9160 C   0  0  0  0  0  0  0  0  0  0  0  0
    0.5810    4.6770   24.5700 C   0  0  0  0  0  0  0  0  0  0  0  0
   -0.6630    4.9140   25.1580 C   0  0  0  0  0  0  0  0  0  0  0  0
   -1.7190    4.4900   24.3660 C   0  0  0  0  0  0  0  0  0  0  0  0
   -1.6310    3.2200   23.7940 C   0  0  0  0  0  0  0  0  0  0  0  0
   -0.4460    3.0660   23.0360 C   0  0  0  0  0  0  0  0  0  0  0  0
    0.6660    3.2930   23.8950 C   0  0  0  0  0  0  0  0  0  0  0  0
  1  2  2  0
  1  3  1  0
  1  5  1  0
  4  6  3  0
  7  8  2  0
  8  9  1  0
  9 10  1  0
 10 11  1  0
  8 12  1  0
 13 14  2  0
  6 15  1  0
 14 15  1  0
 15 16  2  0
  3 17  1  0
 16 17  1  0
 13 18  1  0
 17 18  2  0
 19 20  2  0
  5 21  1  0
 20 21  1  0
 11 22  1  0
 21 22  2  0
 22 23  1  0
 19 24  1  0
 23 24  2  0
 25 26  1  0
 26 27  1  0
 27 28  1  0
 28 29  1  0
 12 30  1  0
 25 30  1  0
 29 30  1  0
M  END
