x2569-x1380
     RDKit          3D

 36 39  0  0  0  0  0  0  0  0999 V2000
    8.1210    0.0040   21.9370 C   0  0  0  0  0  0  0  0  0  0  0  0
    8.8420    0.7360   21.2680 O   0  0  0  0  0  0  0  0  0  0  0  0
    8.5860   -0.4970   23.3150 C   0  0  1  0  0  0  0  0  0  0  0  0
   13.5770   -3.1320   20.6590 N   0  0  0  0  0  0  0  0  0  0  0  0
    6.8670   -0.3680   21.4890 N   0  0  0  0  0  0  0  0  0  0  0  0
   12.9660   -2.1010   21.4670 C   0  0  0  0  0  0  0  0  0  0  0  0
    6.9900   -3.3210   19.3390 C   0  0  0  0  0  0  0  0  0  0  0  0
    5.2580   -4.5950   19.8930 O   0  0  0  0  0  0  0  0  0  0  0  0
    6.2890   -4.0120   20.2310 C   0  0  0  0  0  0  0  0  0  0  0  0
    5.0020   -2.6090   25.1610 O   0  0  0  0  0  0  0  0  0  0  0  0
    6.0500   -3.2350   25.3110 C   0  0  0  0  0  0  0  0  0  0  0  0
    8.2610   -1.9590   23.7880 C   0  0  0  0  0  0  0  0  0  0  0  0
   12.1740    0.6940   23.8230 N   0  0  0  0  0  0  0  0  0  0  0  0
   12.8440   -0.1600   23.0400 C   0  0  0  0  0  0  0  0  0  0  0  0
   12.2370   -1.1740   22.3000 C   0  0  0  0  0  0  0  0  0  0  0  0
   10.8840   -1.3350   22.3430 C   0  0  0  0  0  0  0  0  0  0  0  0
   10.0890   -0.3910   23.2150 C   0  0  0  0  0  0  0  0  0  0  0  0
   10.8480    0.5600   23.8920 C   0  0  0  0  0  0  0  0  0  0  0  0
    6.4180    0.5130   17.7620 N   0  0  0  0  0  0  0  0  0  0  0  0
    6.9820   -0.0730   18.9690 C   0  0  0  0  0  0  0  0  0  0  0  0
    6.3730    0.1410   20.1980 C   0  0  0  0  0  0  0  0  0  0  0  0
    5.1970    0.8940   20.3640 C   0  0  0  0  0  0  0  0  0  0  0  0
    4.5550    1.5030   19.2740 C   0  0  0  0  0  0  0  0  0  0  0  0
    5.1890    1.3150   17.9100 C   0  0  0  0  0  0  0  0  0  0  0  0
    6.7790   -4.0840   21.5200 N   0  0  0  0  0  0  0  0  0  0  0  0
    6.3620   -5.0510   22.3140 C   0  0  0  0  0  0  0  0  0  0  0  0
    5.9270   -4.6630   23.5540 C   0  0  0  0  0  0  0  0  0  0  0  0
    6.7490   -3.7080   24.1990 C   0  0  1  0  0  0  0  0  0  0  0  0
    7.1210   -2.6110   23.3220 C   0  0  2  0  0  0  0  0  0  0  0  0
    7.4950   -3.1070   22.0620 C   0  0  0  0  0  0  0  0  0  0  0  0
    7.8920   -3.9200   26.9120 C   0  0  0  0  0  0  0  0  0  0  0  0
    7.7480   -5.2090   27.3210 C   0  0  0  0  0  0  0  0  0  0  0  0
    7.2530   -5.1910   28.6080 C   0  0  0  0  0  0  0  0  0  0  0  0
    6.1460   -4.3300   28.8010 C   0  0  0  0  0  0  0  0  0  0  0  0
    5.5660   -3.8750   27.6120 C   0  0  0  0  0  0  0  0  0  0  0  0
    6.5470   -3.4890   26.6020 N   0  0  0  0  0  0  0  0  0  0  0  0
  1  2  2  0
  1  3  1  0
  1  5  1  0
  4  6  3  0
  7  9  1  0
  8  9  2  0
 10 11  2  0
  3 12  1  6
 13 14  2  0
  6 15  1  0
 14 15  1  0
 15 16  2  0
  3 17  1  0
 16 17  1  0
 13 18  1  0
 17 18  2  0
 19 20  2  0
  5 21  1  0
 20 21  1  0
 21 22  2  0
 22 23  1  0
 19 24  1  0
 23 24  2  0
  9 25  1  0
 25 26  1  0
 26 27  1  0
 28 11  1  1
 27 28  1  0
 29 12  1  1
 28 29  1  0
 25 30  1  0
 29 30  1  0
 31 32  1  0
 32 33  1  0
 33 34  1  0
 34 35  1  0
 11 36  1  0
 31 36  1  0
 35 36  1  0
M  END
