x2562-x3077
     RDKit          3D

 34 38  0  0  0  0  0  0  0  0999 V2000
    8.5360   -0.0060   21.3950 C   0  0  0  0  0  0  0  0  0  0  0  0
    8.6370    1.2040   21.0910 O   0  0  0  0  0  0  0  0  0  0  0  0
    7.4560   -0.9480   21.0370 C   0  0  2  0  0  0  0  0  0  0  0  0
   12.1830    3.1660   23.3540 O   0  0  0  0  0  0  0  0  0  0  0  0
    9.5350   -0.6120   22.1920 N   0  0  0  0  0  0  0  0  0  0  0  0
   13.3930    6.8360   21.9500 O   0  0  0  0  0  0  0  0  0  0  0  0
   13.0990   -2.3560   21.9710 Cl  0  0  0  0  0  0  0  0  0  0  0  0
    6.9780   -3.1930   19.1260 C   0  0  0  0  0  0  0  0  0  0  0  0
    5.3330   -4.7230   19.9300 O   0  0  0  0  0  0  0  0  0  0  0  0
    6.1680   -3.8780   20.2190 C   0  0  0  0  0  0  0  0  0  0  0  0
    8.5470   -1.3320   24.2080 C   0  0  0  0  0  0  0  0  0  0  0  0
    4.5570    1.3270   19.6370 N   0  0  0  0  0  0  0  0  0  0  0  0
    4.9420    1.3230   18.2120 C   0  0  0  0  0  0  0  0  0  0  0  0
    6.1060    0.5500   17.7860 N   0  0  0  0  0  0  0  0  0  0  0  0
    6.8140   -0.1320   18.7340 C   0  0  0  0  0  0  0  0  0  0  0  0
    6.5430   -0.1770   20.0920 C   0  0  0  0  0  0  0  0  0  0  0  0
    5.4210    0.5390   20.5360 C   0  0  0  0  0  0  0  0  0  0  0  0
   12.0040    5.1410   22.3790 N   0  0  0  0  0  0  0  0  0  0  0  0
   13.0460    5.8340   22.8670 C   0  0  1  0  0  0  0  0  0  0  0  0
   13.8420    4.7390   22.9230 C   0  0  0  0  0  0  0  0  0  0  0  0
   12.7660    4.0010   22.4580 C   0  0  1  0  0  0  0  0  0  0  0  0
   11.8350   -1.2530   22.1820 C   0  0  0  0  0  0  0  0  0  0  0  0
   13.0430   -0.5680   22.4360 C   0  0  0  0  0  0  0  0  0  0  0  0
   13.2350    0.8980   22.8230 C   0  0  0  0  0  0  0  0  0  0  0  0
   12.1160    1.8710   23.0130 C   0  0  0  0  0  0  0  0  0  0  0  0
   10.8440    1.2480   22.7780 C   0  0  0  0  0  0  0  0  0  0  0  0
   10.8820   -0.2150   22.3960 C   0  0  0  0  0  0  0  0  0  0  0  0
    6.4240   -3.5910   21.5420 N   0  0  0  0  0  0  0  0  0  0  0  0
    7.3780   -4.0830   22.3570 C   0  0  0  0  0  0  0  0  0  0  0  0
    7.3640   -3.4200   23.5400 C   0  0  2  0  0  0  0  0  0  0  0  0
    6.0640   -2.9500   23.6150 C   0  0  0  0  0  0  0  0  0  0  0  0
    5.9820   -2.5540   22.3060 C   0  0  1  0  0  0  0  0  0  0  0  0
    8.0290   -2.1410   23.0830 N   0  0  0  0  0  0  0  0  0  0  0  0
    6.9660   -1.6150   22.3660 C   0  0  1  0  0  0  0  0  0  0  0  0
  1  2  2  0
  3  1  1  1
  1  5  1  0
  8 10  1  0
  9 10  2  0
 12 13  2  0
 13 14  1  0
 14 15  2  0
  3 16  1  0
 15 16  1  0
 12 17  1  0
 16 17  2  0
 19  6  1  6
 18 19  1  0
 19 20  1  0
 21  4  1  1
 18 21  1  0
 20 21  1  0
  7 22  1  0
 22 23  2  0
 23 24  1  0
  4 25  1  0
 24 25  2  0
 25 26  1  0
  5 27  1  0
 22 27  1  0
 26 27  2  0
 10 28  1  0
 28 29  1  0
 30 29  1  6
 30 31  1  0
 32 28  1  6
 31 32  1  0
 11 33  1  0
 30 33  1  0
  3 34  1  0
 32 34  1  0
 34 33  1  6
M  END
