x2563-x2694
     RDKit          3D

 36 40  0  0  0  0  0  0  0  0999 V2000
    6.3530   -1.0010   22.0460 N   0  0  0  0  0  0  0  0  0  0  0  0
    6.7220   -3.8600   20.1550 C   0  0  0  0  0  0  0  0  0  0  0  0
    4.9650   -3.1390   21.0550 O   0  0  0  0  0  0  0  0  0  0  0  0
    6.8690   -2.8320   21.3070 C   0  0  0  0  0  0  0  0  0  0  0  0
    7.6430    2.0190   22.7740 N   0  0  0  0  0  0  0  0  0  0  0  0
    8.9970    1.5010   21.0870 O   0  0  0  0  0  0  0  0  0  0  0  0
    5.5380   -2.0780   21.5370 C   0  0  0  0  0  0  0  0  0  0  0  0
   11.0320    6.7560   24.0950 O   0  0  0  0  0  0  0  0  0  0  0  0
    7.5230   -0.2600   21.4730 C   0  0  2  0  0  0  0  0  0  0  0  0
    8.0330    1.1050   21.7830 C   0  0  0  0  0  0  0  0  0  0  0  0
   10.1440    1.7730   24.2390 C   0  0  0  0  0  0  0  0  0  0  0  0
   12.1140    6.6090   25.0170 C   0  0  0  0  0  0  0  0  0  0  0  0
   12.4140   -1.5470   23.3640 C   0  0  0  0  0  0  0  0  0  0  0  0
   12.9450   -0.3460   23.8360 C   0  0  0  0  0  0  0  0  0  0  0  0
   13.1740   -1.9230   22.0780 C   0  0  0  0  0  0  0  0  0  0  0  0
   12.6430   -2.6270   24.4380 C   0  0  0  0  0  0  0  0  0  0  0  0
    5.6700    1.3000   18.7130 C   0  0  1  0  0  0  0  0  0  0  0  0
    5.1580    0.3670   17.9290 C   0  0  0  0  0  0  0  0  0  0  0  0
    5.2430   -0.3970   18.9940 C   0  0  0  0  0  0  0  0  0  0  0  0
    5.7390    0.3020   20.0630 C   0  0  0  0  0  0  0  0  0  0  0  0
    7.2360    0.4900   20.1260 C   0  0  0  0  0  0  0  0  0  0  0  0
    6.9840    1.1490   18.9410 C   0  0  0  0  0  0  0  0  0  0  0  0
    8.7360   -1.2050   23.5490 N   0  0  0  0  0  0  0  0  0  0  0  0
   10.0080   -1.5150   24.0270 O   0  0  0  0  0  0  0  0  0  0  0  0
   10.9470   -1.3110   23.0640 C   0  0  0  0  0  0  0  0  0  0  0  0
   10.1310   -0.8320   21.8730 C   0  0  0  0  0  0  0  0  0  0  0  0
    8.8000   -0.7640   22.2360 C   0  0  0  0  0  0  0  0  0  0  0  0
    9.6220    3.1080   23.7570 C   0  0  0  0  0  0  0  0  0  0  0  0
   10.4450    4.2350   24.0710 C   0  0  0  0  0  0  0  0  0  0  0  0
   10.3090    5.6250   23.8210 C   0  0  0  0  0  0  0  0  0  0  0  0
    8.9480    5.5700   23.0420 C   0  0  0  0  0  0  0  0  0  0  0  0
    8.1180    4.4870   22.7100 C   0  0  0  0  0  0  0  0  0  0  0  0
    8.4310    3.2140   23.0660 C   0  0  0  0  0  0  0  0  0  0  0  0
    5.2030    1.2750   20.1940 C   0  0  0  0  0  0  0  0  0  0  0  0
    5.3960    1.8150   21.4880 C   0  0  0  0  0  0  0  0  0  0  0  0
    4.7190    0.8990   20.8710 C   0  0  0  0  0  0  0  0  0  0  0  0
  2  4  1  0
  1  7  1  0
  3  7  2  0
  4  7  1  0
  9  1  1  1
  5 10  1  0
  6 10  2  0
  9 10  1  0
  8 12  1  0
 13 14  1  0
 13 15  1  0
 13 16  1  0
 17 18  1  6
 17 19  1  0
 18 19  2  0
 19 20  1  0
  9 21  1  0
 20 21  1  0
 17 22  1  0
 21 22  2  0
 23 24  1  0
 13 25  1  0
 24 25  1  0
 25 26  2  0
  9 27  1  0
 23 27  2  0
 26 27  1  0
 11 28  1  0
 28 29  2  0
  8 30  1  0
 29 30  1  0
 30 31  2  0
 31 32  1  0
  5 33  1  0
 28 33  1  0
 32 33  2  0
 17 34  1  0
 34 35  2  0
 20 36  2  0
 35 36  1  0
M  END
