x2562-x1249
     RDKit          3D

 35 38  0  0  0  0  0  0  0  0999 V2000
    8.2190    0.0320   21.4990 C   0  0  0  0  0  0  0  0  0  0  0  0
    7.9020    1.3940   21.3790 N   0  0  0  0  0  0  0  0  0  0  0  0
    7.4960   -0.9430   20.6520 C   0  0  0  0  0  0  0  0  0  0  0  0
   12.1940    3.0590   23.4120 O   0  0  0  0  0  0  0  0  0  0  0  0
    9.1520   -0.4300   22.4080 N   0  0  0  0  0  0  0  0  0  0  0  0
   13.4390    7.0690   22.4150 O   0  0  0  0  0  0  0  0  0  0  0  0
   13.3740   -2.6230   21.3800 N   0  0  0  0  0  0  0  0  0  0  0  0
   12.5500   -1.9670   21.7950 C   0  0  0  0  0  0  0  0  0  0  0  0
    4.5000    1.2220   19.3860 N   0  0  0  0  0  0  0  0  0  0  0  0
    5.0030    1.3500   18.1360 C   0  0  0  0  0  0  0  0  0  0  0  0
    6.1790    0.8230   17.6000 N   0  0  0  0  0  0  0  0  0  0  0  0
    6.9080    0.1020   18.4520 C   0  0  0  0  0  0  0  0  0  0  0  0
    6.5600   -0.1330   19.7860 C   0  0  0  0  0  0  0  0  0  0  0  0
    5.3310    0.4230   20.2870 C   0  0  0  0  0  0  0  0  0  0  0  0
   12.4970    4.8120   21.8270 N   0  0  0  0  0  0  0  0  0  0  0  0
   12.6400    5.9710   22.7690 C   0  0  1  0  0  0  0  0  0  0  0  0
   13.5520    4.9810   23.3180 C   0  0  0  0  0  0  0  0  0  0  0  0
   13.1290    3.8750   22.6860 C   0  0  1  0  0  0  0  0  0  0  0  0
   11.4700   -1.1230   22.1090 C   0  0  0  0  0  0  0  0  0  0  0  0
   12.6740   -0.3940   22.3430 C   0  0  0  0  0  0  0  0  0  0  0  0
   13.0070    0.8910   22.7560 C   0  0  0  0  0  0  0  0  0  0  0  0
   12.0290    1.7730   23.0360 C   0  0  0  0  0  0  0  0  0  0  0  0
   10.7990    1.2430   22.8960 C   0  0  0  0  0  0  0  0  0  0  0  0
   10.5720   -0.0630   22.4850 C   0  0  0  0  0  0  0  0  0  0  0  0
    8.0450    0.7990   25.3690 N   0  0  0  0  0  0  0  0  0  0  0  0
    7.6950    1.3190   24.1640 C   0  0  0  0  0  0  0  0  0  0  0  0
    8.6190    1.9070   23.4910 N   0  0  0  0  0  0  0  0  0  0  0  0
    9.3720    0.2440   25.5230 C   0  0  0  0  0  0  0  0  0  0  0  0
    3.5110    1.0290   23.8090 O   0  0  0  0  0  0  0  0  0  0  0  0
    4.3590    1.0810   22.6750 C   0  0  0  0  0  0  0  0  0  0  0  0
    5.5510    1.7840   22.9470 C   0  0  0  0  0  0  0  0  0  0  0  0
    6.3430    1.0410   23.9540 N   0  0  0  0  0  0  0  0  0  0  0  0
    5.5310    0.7210   25.1530 C   0  0  0  0  0  0  0  0  0  0  0  0
    4.1270    0.1820   24.7870 C   0  0  0  0  0  0  0  0  0  0  0  0
    8.4530    2.4520   22.1790 C   0  0  0  0  0  0  0  0  0  0  0  0
  1  2  2  3
  1  3  1  0
  1  5  1  0
  7  8  3  0
  9 10  2  0
 10 11  1  0
 11 12  2  0
  3 13  1  0
 12 13  1  0
  9 14  1  0
 13 14  2  0
 16  6  1  6
 15 16  1  0
 16 17  1  0
 18  4  1  1
 15 18  1  0
 17 18  1  0
  8 19  1  0
 19 20  2  0
 20 21  1  0
  4 22  1  0
 21 22  2  0
 22 23  1  0
  5 24  1  0
 19 24  1  0
 23 24  2  0
 25 26  1  0
 26 27  2  3
 25 28  1  0
 29 30  1  0
 30 31  1  0
 26 32  1  0
 31 32  1  0
 32 33  1  0
 29 34  1  0
 33 34  1  0
  2 35  1  0
 27 35  1  0
M  END
