x2563-x0397
     RDKit          3D

 27 30  0  0  0  0  0  0  0  0999 V2000
    7.8950   -1.3610   20.3620 C   0  0  0  0  0  0  0  0  0  0  0  0
    6.5510   -1.8060   20.3190 N   0  0  0  0  0  0  0  0  0  0  0  0
    6.1340   -1.5740   18.9200 C   0  0  0  0  0  0  0  0  0  0  0  0
    4.2480    3.0100   19.2640 C   0  0  0  0  0  0  0  0  0  0  0  0
    6.1010   -3.1500   20.6810 C   0  0  0  0  0  0  0  0  0  0  0  0
    5.5330   -3.9250   19.8800 O   0  0  0  0  0  0  0  0  0  0  0  0
    6.3500   -3.5350   21.9890 N   0  0  0  0  0  0  0  0  0  0  0  0
    8.1760   -0.1030   21.1920 C   0  0  0  0  0  0  0  0  0  0  0  0
    8.2820    1.2360   20.6930 O   0  0  0  0  0  0  0  0  0  0  0  0
    8.3450   -0.4610   22.4770 N   0  0  0  0  0  0  0  0  0  0  0  0
    5.1840    0.6910   19.7110 C   0  0  1  0  0  0  0  0  0  0  0  0
    5.6790   -0.1620   18.7340 C   0  0  0  0  0  0  0  0  0  0  0  0
    5.7690    0.4160   17.4870 N   0  0  0  0  0  0  0  0  0  0  0  0
    5.2580    1.6560   17.5930 N   0  0  0  0  0  0  0  0  0  0  0  0
    4.8790    1.8660   18.8240 C   0  0  0  0  0  0  0  0  0  0  0  0
    6.5670   -5.6050   23.3440 C   0  0  0  0  0  0  0  0  0  0  0  0
    5.7530   -4.7680   22.5250 C   0  0  0  0  0  0  0  0  0  0  0  0
    6.0820   -5.7830   21.8110 C   0  0  0  0  0  0  0  0  0  0  0  0
   10.8660   -0.3750   22.5820 C   0  0  0  0  0  0  0  0  0  0  0  0
   12.1500   -0.3080   23.4250 C   0  0  0  0  0  0  0  0  0  0  0  0
   12.0200   -0.2830   24.9480 C   0  0  0  0  0  0  0  0  0  0  0  0
   10.6110   -0.3130   25.5110 C   0  0  0  0  0  0  0  0  0  0  0  0
    9.4180   -0.3660   24.6420 C   0  0  0  0  0  0  0  0  0  0  0  0
    9.5980   -0.4000   23.1680 C   0  0  0  0  0  0  0  0  0  0  0  0
    3.8590    0.5400   20.4260 C   0  0  0  0  0  0  0  0  0  0  0  0
    4.3750    0.6860   21.6050 C   0  0  0  0  0  0  0  0  0  0  0  0
    5.7320    0.8440   21.2360 C   0  0  0  0  0  0  0  0  0  0  0  0
  1  2  1  0
  2  3  1  0
  2  5  1  0
  5  6  2  0
  5  7  1  0
  1  8  1  0
  8  9  2  0
  8 10  1  0
  3 12  1  0
 11 12  1  0
 12 13  2  0
 13 14  1  0
  4 15  1  0
 11 15  1  0
 14 15  2  0
  7 17  1  0
 16 17  1  0
 16 18  1  0
 17 18  1  0
 19 20  2  0
 20 21  1  0
 21 22  2  0
 22 23  1  0
 10 24  1  0
 19 24  1  0
 23 24  2  0
 11 25  1  1
 25 26  2  0
 11 27  1  0
 26 27  1  0
M  END
