x2569-x1334
     RDKit          3D

 34 38  0  0  0  0  0  0  0  0999 V2000
    8.0490   -0.5260   21.7480 C   0  0  1  0  0  0  0  0  0  0  0  0
    8.8550    0.1900   21.1780 O   0  0  0  0  0  0  0  0  0  0  0  0
    8.5220   -1.0300   23.1150 C   0  0  2  0  0  0  0  0  0  0  0  0
   13.7460   -2.0850   20.6280 N   0  0  0  0  0  0  0  0  0  0  0  0
    6.7560   -0.0740   21.6850 N   0  0  0  0  0  0  0  0  0  0  0  0
   13.0000   -1.4710   21.6290 C   0  0  0  0  0  0  0  0  0  0  0  0
    7.3750   -3.0170   18.7430 C   0  0  0  0  0  0  0  0  0  0  0  0
    5.6420   -4.0540   19.7130 O   0  0  0  0  0  0  0  0  0  0  0  0
    7.3640   -5.7230   28.4110 Cl  0  0  0  0  0  0  0  0  0  0  0  0
    6.5870   -3.2280   19.8100 C   0  0  0  0  0  0  0  0  0  0  0  0
    9.6620   -3.1480   24.0290 C   0  0  0  0  0  0  0  0  0  0  0  0
   11.9300    0.6790   24.3820 N   0  0  0  0  0  0  0  0  0  0  0  0
   12.8120    0.0150   23.4050 C   0  0  0  0  0  0  0  0  0  0  0  0
   12.2200   -0.8560   22.5170 C   0  0  0  0  0  0  0  0  0  0  0  0
   10.8770   -1.1310   22.4800 C   0  0  0  0  0  0  0  0  0  0  0  0
    9.9600   -0.5810   23.3250 C   0  0  0  0  0  0  0  0  0  0  0  0
   10.5130    0.3690   24.3360 C   0  0  0  0  0  0  0  0  0  0  0  0
    6.4350    0.5400   17.8950 N   0  0  0  0  0  0  0  0  0  0  0  0
    6.8860    0.1040   19.2150 C   0  0  0  0  0  0  0  0  0  0  0  0
    6.2150    0.3910   20.3960 C   0  0  0  0  0  0  0  0  0  0  0  0
    5.0520    1.1150   20.3440 C   0  0  0  0  0  0  0  0  0  0  0  0
    4.5600    1.5620   19.1260 C   0  0  0  0  0  0  0  0  0  0  0  0
    5.1930    1.3160   17.9010 C   0  0  0  0  0  0  0  0  0  0  0  0
    6.8540   -2.5220   21.0060 N   0  0  0  0  0  0  0  0  0  0  0  0
    8.0490   -1.9020   21.0280 C   0  0  2  0  0  0  0  0  0  0  0  0
    8.9920   -2.5720   21.7700 C   0  0  0  0  0  0  0  0  0  0  0  0
    8.5450   -2.5640   23.0530 C   0  0  2  0  0  0  0  0  0  0  0  0
    7.2870   -3.1360   23.3050 C   0  0  0  0  0  0  0  0  0  0  0  0
    6.3920   -2.9700   22.1950 C   0  0  0  0  0  0  0  0  0  0  0  0
    9.8160   -5.3450   25.3130 C   0  0  0  0  0  0  0  0  0  0  0  0
    9.2480   -4.1010   25.1370 C   0  0  0  0  0  0  0  0  0  0  0  0
    8.0440   -3.7740   26.3150 S   0  0  0  0  0  0  0  0  0  0  0  0
    8.2910   -5.2810   27.0430 C   0  0  0  0  0  0  0  0  0  0  0  0
    9.2660   -6.0320   26.4180 C   0  0  0  0  0  0  0  0  0  0  0  0
  1  2  1  6
  1  3  1  0
  1  5  1  0
  4  6  3  0
  7 10  1  0
  8 10  2  0
 12 13  2  0
  6 14  1  0
 13 14  1  0
 14 15  2  0
  3 16  1  6
 15 16  1  0
 12 17  1  0
 16 17  2  0
 18 19  2  0
  5 20  1  0
 19 20  1  0
 20 21  2  0
 21 22  1  0
 18 23  1  0
 22 23  2  0
 10 24  1  0
  1 25  1  0
 25 24  1  1
 25 26  1  0
  3 27  1  0
 27 11  1  1
 26 27  1  0
 27 28  1  0
 24 29  1  0
 28 29  1  0
 11 31  1  0
 30 31  2  0
 31 32  1  0
  9 33  1  0
 32 33  1  0
 30 34  1  0
 33 34  2  0
M  END
