x2563-x0981
     RDKit          3D

 38 40  0  0  0  0  0  0  0  0999 V2000
    1.2640   -8.6480   21.4740 C   0  0  0  0  0  0  0  0  0  0  0  0
    2.7730   -7.1120   22.7140 N   0  0  0  0  0  0  0  0  0  0  0  0
    0.5900   -6.5020   22.3470 O   0  0  0  0  0  0  0  0  0  0  0  0
    1.4890   -7.3280   22.2200 C   0  0  0  0  0  0  0  0  0  0  0  0
    2.4820   -8.1610   26.2830 N   0  0  0  0  0  0  0  0  0  0  0  0
    4.0400   -8.1760   24.6020 O   0  0  0  0  0  0  0  0  0  0  0  0
    3.0710   -5.9210   23.5420 C   0  0  1  0  0  0  0  0  0  0  0  0
    5.1980   -5.6880   22.2000 N   0  0  0  0  0  0  0  0  0  0  0  0
    5.0360   -4.6450   24.1940 O   0  0  0  0  0  0  0  0  0  0  0  0
    2.8740   -6.2440   24.8900 C   0  0  0  0  0  0  0  0  0  0  0  0
    3.1850   -7.5790   25.2250 C   0  0  0  0  0  0  0  0  0  0  0  0
    4.5310   -5.3620   23.3400 C   0  0  0  0  0  0  0  0  0  0  0  0
    6.4250   -5.1650   21.8180 C   0  0  1  0  0  0  0  0  0  0  0  0
    6.4770   -5.2090   20.2930 C   0  0  0  0  0  0  0  0  0  0  0  0
    5.6390   -6.3260   19.7760 C   0  0  0  0  0  0  0  0  0  0  0  0
    8.5270    0.1910   21.2910 C   0  0  0  0  0  0  0  0  0  0  0  0
    8.7020    1.3970   21.0430 O   0  0  0  0  0  0  0  0  0  0  0  0
    7.2860   -0.3780   21.1050 C   0  0  2  0  0  0  0  0  0  0  0  0
    9.4650   -0.6880   21.7330 N   0  0  0  0  0  0  0  0  0  0  0  0
    6.7670   -3.7940   22.4420 C   0  0  0  0  0  0  0  0  0  0  0  0
    6.3720   -2.6560   21.7320 C   0  0  0  0  0  0  0  0  0  0  0  0
    7.3470   -1.8920   21.0950 C   0  0  0  0  0  0  0  0  0  0  0  0
    6.2190    0.7330   17.5800 N   0  0  0  0  0  0  0  0  0  0  0  0
    5.0910    1.3980   17.9250 C   0  0  0  0  0  0  0  0  0  0  0  0
    4.5700    1.5400   19.2230 C   0  0  0  0  0  0  0  0  0  0  0  0
    5.2400    0.9790   20.2880 C   0  0  0  0  0  0  0  0  0  0  0  0
    6.5150    0.2350   19.9900 C   0  0  0  0  0  0  0  0  0  0  0  0
    6.9240    0.1630   18.5580 C   0  0  0  0  0  0  0  0  0  0  0  0
    3.3810    2.2440   19.4450 C   0  0  0  0  0  0  0  0  0  0  0  0
    2.8610    2.3840   20.7530 C   0  0  0  0  0  0  0  0  0  0  0  0
    3.5550    1.8060   21.8400 C   0  0  0  0  0  0  0  0  0  0  0  0
    4.7270    1.1180   21.5850 C   0  0  0  0  0  0  0  0  0  0  0  0
   11.6040   -0.6420   22.6870 C   0  0  0  0  0  0  0  0  0  0  0  0
   12.4580   -0.5080   23.7390 C   0  0  0  0  0  0  0  0  0  0  0  0
   11.9270   -0.2710   24.9670 C   0  0  0  0  0  0  0  0  0  0  0  0
   10.5370   -0.1510   25.1580 C   0  0  0  0  0  0  0  0  0  0  0  0
    9.6920   -0.2750   24.1260 C   0  0  0  0  0  0  0  0  0  0  0  0
   10.2310   -0.5290   22.8690 C   0  0  0  0  0  0  0  0  0  0  0  0
  1  4  1  0
  2  4  1  0
  3  4  2  0
  2  7  1  0
  7 10  1  1
  5 11  1  0
  6 11  2  0
 10 11  1  0
  7 12  1  0
  8 12  1  0
  9 12  2  0
  8 13  1  0
 13 14  1  6
 14 15  2  3
 16 17  2  0
 16 18  1  0
 16 19  1  0
 13 20  1  0
 20 21  1  0
 18 22  1  6
 21 22  1  0
 23 24  2  0
 24 25  1  0
 25 26  2  0
 18 27  1  0
 26 27  1  0
 23 28  1  0
 27 28  2  0
 25 29  1  0
 29 30  2  0
 30 31  1  0
 26 32  1  0
 31 32  2  0
 33 34  2  0
 34 35  1  0
 35 36  2  0
 36 37  1  0
 19 38  1  0
 33 38  1  0
 37 38  2  0
M  END
