x2569-x0786
     RDKit          3D

 39 42  0  0  0  0  0  0  0  0999 V2000
    6.4360   -3.9580   21.9420 N   0  0  0  0  0  0  0  0  0  0  0  0
    7.1670   -5.1870   20.2260 C   0  0  0  0  0  0  0  0  0  0  0  0
    5.2420   -4.3190   19.8880 O   0  0  0  0  0  0  0  0  0  0  0  0
    6.2040   -4.4710   20.6690 C   0  0  0  0  0  0  0  0  0  0  0  0
    3.7420   -8.0540   24.7970 O   0  0  0  0  0  0  0  0  0  0  0  0
    3.2460   -7.0380   24.3070 C   0  0  0  0  0  0  0  0  0  0  0  0
    8.2350    0.4890   21.7140 C   0  0  0  0  0  0  0  0  0  0  0  0
    8.8620    1.4110   21.1570 O   0  0  0  0  0  0  0  0  0  0  0  0
    8.7030   -0.0920   23.0610 C   0  0  1  0  0  0  0  0  0  0  0  0
   13.6140   -2.7590   20.6580 N   0  0  0  0  0  0  0  0  0  0  0  0
    7.0520   -0.0720   21.2100 N   0  0  0  0  0  0  0  0  0  0  0  0
   12.9820   -1.9420   21.4900 C   0  0  0  0  0  0  0  0  0  0  0  0
    7.6730   -3.5330   22.3550 C   0  0  0  0  0  0  0  0  0  0  0  0
    7.7780   -2.1630   22.1460 C   0  0  0  0  0  0  0  0  0  0  0  0
    8.0440   -1.4730   23.3140 C   0  0  0  0  0  0  0  0  0  0  0  0
    5.6570   -4.2470   23.1020 C   0  0  0  0  0  0  0  0  0  0  0  0
    4.8470   -5.5390   23.0680 C   0  0  0  0  0  0  0  0  0  0  0  0
    4.0910   -5.8070   24.2200 C   0  0  0  0  0  0  0  0  0  0  0  0
    4.1340   -4.9060   25.2830 C   0  0  0  0  0  0  0  0  0  0  0  0
    4.8770   -3.7490   25.2880 C   0  0  0  0  0  0  0  0  0  0  0  0
    5.6440   -3.4030   24.2060 C   0  0  0  0  0  0  0  0  0  0  0  0
    1.4940   -5.6470   23.3320 C   0  0  0  0  0  0  0  0  0  0  0  0
    0.4990   -5.0680   24.3520 C   0  0  0  0  0  0  0  0  0  0  0  0
   -0.8430   -6.2090   24.2890 S   0  0  0  0  0  0  0  0  0  0  0  0
   -0.0820   -7.5730   24.8930 C   0  0  0  0  0  0  0  0  0  0  0  0
    0.8620   -7.9690   23.9480 C   0  0  0  0  0  0  0  0  0  0  0  0
    1.9560   -6.9540   23.8310 N   0  0  0  0  0  0  0  0  0  0  0  0
   12.1670    0.2520   24.2840 N   0  0  0  0  0  0  0  0  0  0  0  0
   12.8540   -0.4870   23.4210 C   0  0  0  0  0  0  0  0  0  0  0  0
   12.2490   -1.1680   22.3670 C   0  0  0  0  0  0  0  0  0  0  0  0
   10.8650   -1.0620   22.2080 C   0  0  0  0  0  0  0  0  0  0  0  0
   10.1630   -0.2970   23.1000 C   0  0  0  0  0  0  0  0  0  0  0  0
   10.8560    0.3120   24.0880 C   0  0  0  0  0  0  0  0  0  0  0  0
    6.3660    0.6050   17.7050 N   0  0  0  0  0  0  0  0  0  0  0  0
    6.9140    0.1550   18.8410 C   0  0  0  0  0  0  0  0  0  0  0  0
    6.4030    0.4260   20.0980 C   0  0  0  0  0  0  0  0  0  0  0  0
    5.2510    1.1920   20.2070 C   0  0  0  0  0  0  0  0  0  0  0  0
    4.6660    1.6620   19.0480 C   0  0  0  0  0  0  0  0  0  0  0  0
    5.2590    1.3480   17.8320 C   0  0  0  0  0  0  0  0  0  0  0  0
  1  4  1  0
  2  4  1  0
  3  4  2  0
  5  6  2  0
  7  8  2  0
  7  9  1  0
  7 11  1  0
 10 12  3  0
  1 13  1  0
 13 14  1  0
  9 15  1  6
 14 15  1  0
  1 16  1  0
 16 17  2  0
  6 18  1  0
 17 18  1  0
 18 19  2  0
 19 20  1  0
 16 21  1  0
 20 21  2  0
 22 23  1  0
 23 24  1  0
 24 25  1  0
 25 26  1  0
  6 27  1  0
 22 27  1  0
 26 27  1  0
 28 29  2  0
 12 30  1  0
 29 30  1  0
 30 31  2  0
  9 32  1  0
 31 32  1  0
 28 33  1  0
 32 33  2  0
 34 35  2  0
 11 36  1  0
 35 36  1  0
 36 37  2  0
 37 38  1  0
 34 39  1  0
 38 39  2  0
M  END
