x2563-x0769
     RDKit          3D

 41 45  0  0  0  0  0  0  0  0999 V2000
    5.8890   -4.9880   27.0840 O   0  0  0  0  0  0  0  0  0  0  0  0
    4.1230   -6.5020   26.1250 O   0  0  0  0  0  0  0  0  0  0  0  0
    5.7130   -5.2770   20.0040 O   0  0  0  0  0  0  0  0  0  0  0  0
    6.4330   -4.4470   20.5290 C   0  0  0  0  0  0  0  0  0  0  0  0
    7.2100   -3.4580   19.6660 C   0  0  0  0  0  0  0  0  0  0  0  0
    5.6060   -2.3880   26.3450 F   0  0  0  0  0  0  0  0  0  0  0  0
    4.8850   -5.2700   26.0870 S   0  0  0  0  0  0  0  0  0  0  0  0
    8.1980   -0.3840   21.2450 C   0  0  0  0  0  0  0  0  0  0  0  0
    8.3320    0.8340   21.0600 O   0  0  0  0  0  0  0  0  0  0  0  0
    7.0470   -1.0990   20.5680 C   0  0  1  0  0  0  0  0  0  0  0  0
    9.0190   -1.1270   22.0240 N   0  0  0  0  0  0  0  0  0  0  0  0
    6.5290   -2.8870   22.3950 C   0  0  0  0  0  0  0  0  0  0  0  0
    5.9980   -1.9370   21.3260 C   0  0  0  0  0  0  0  0  0  0  0  0
    4.2990   -2.6160   26.1720 C   0  0  0  0  0  0  0  0  0  0  0  0
    3.7860   -3.9050   26.0290 C   0  0  0  0  0  0  0  0  0  0  0  0
    2.4120   -4.0880   25.8490 C   0  0  0  0  0  0  0  0  0  0  0  0
    1.5410   -2.9900   25.8150 C   0  0  0  0  0  0  0  0  0  0  0  0
    2.0700   -1.7130   25.9650 C   0  0  0  0  0  0  0  0  0  0  0  0
    3.4300   -1.5310   26.1390 C   0  0  0  0  0  0  0  0  0  0  0  0
    6.3990   -4.4060   22.0630 C   0  0  0  0  0  0  0  0  0  0  0  0
    5.0090   -5.0360   22.2680 C   0  0  0  0  0  0  0  0  0  0  0  0
    4.9110   -5.9130   23.4720 C   0  0  0  0  0  0  0  0  0  0  0  0
    5.6500   -5.2920   24.5670 N   0  0  0  0  0  0  0  0  0  0  0  0
    7.0880   -4.9610   24.3890 C   0  0  0  0  0  0  0  0  0  0  0  0
    7.4660   -5.1170   22.9080 C   0  0  0  0  0  0  0  0  0  0  0  0
    6.1550    0.7360   17.4960 N   0  0  0  0  0  0  0  0  0  0  0  0
    5.1420    1.4870   17.9400 C   0  0  0  0  0  0  0  0  0  0  0  0
    4.6250    1.5160   19.2240 C   0  0  0  0  0  0  0  0  0  0  0  0
    5.2310    0.6700   20.1640 C   0  0  0  0  0  0  0  0  0  0  0  0
    6.2940   -0.1340   19.7260 C   0  0  0  0  0  0  0  0  0  0  0  0
    6.6890   -0.0510   18.4310 C   0  0  0  0  0  0  0  0  0  0  0  0
    3.5560    2.3440   19.5740 C   0  0  0  0  0  0  0  0  0  0  0  0
    3.0810    2.3370   20.8800 C   0  0  0  0  0  0  0  0  0  0  0  0
    3.6680    1.5150   21.8240 C   0  0  0  0  0  0  0  0  0  0  0  0
    4.7300    0.6850   21.4800 C   0  0  0  0  0  0  0  0  0  0  0  0
   11.3010   -0.6670   22.4690 C   0  0  0  0  0  0  0  0  0  0  0  0
   12.2640    0.0290   23.1690 C   0  0  0  0  0  0  0  0  0  0  0  0
   11.8230    0.9030   24.1180 C   0  0  0  0  0  0  0  0  0  0  0  0
   10.4940    1.1140   24.4100 C   0  0  0  0  0  0  0  0  0  0  0  0
    9.5430    0.4360   23.7290 C   0  0  0  0  0  0  0  0  0  0  0  0
    9.9480   -0.4480   22.7550 C   0  0  0  0  0  0  0  0  0  0  0  0
  3  4  2  0
  4  5  1  0
  1  7  2  0
  2  7  2  0
  8  9  2  0
  8 10  1  0
  8 11  1  0
 10 13  1  1
 12 13  1  0
  6 14  1  0
  7 15  1  0
 14 15  2  0
 15 16  1  0
 16 17  2  0
 17 18  1  0
 14 19  1  0
 18 19  2  0
 20  4  1  0
 12 20  1  0
 20 21  1  0
 21 22  1  0
  7 23  1  0
 22 23  1  0
 23 24  1  0
 20 25  1  0
 24 25  1  0
 26 27  2  0
 27 28  1  0
 28 29  2  0
 10 30  1  0
 29 30  1  0
 26 31  1  0
 30 31  2  0
 28 32  1  0
 32 33  2  0
 33 34  1  0
 29 35  1  0
 34 35  2  0
 36 37  2  0
 37 38  1  0
 38 39  2  0
 39 40  1  0
 11 41  1  0
 36 41  1  0
 40 41  2  0
M  END
