x2563-x1334
     RDKit          3D

 36 41  0  0  0  0  0  0  0  0999 V2000
    7.6370   -2.9380   18.5560 C   0  0  0  0  0  0  0  0  0  0  0  0
    5.9190   -3.9660   19.7640 O   0  0  0  0  0  0  0  0  0  0  0  0
    7.3230   -5.9070   28.6080 Cl  0  0  0  0  0  0  0  0  0  0  0  0
    6.8340   -3.0760   19.8270 C   0  0  0  0  0  0  0  0  0  0  0  0
    9.2070   -3.3050   24.0920 C   0  0  0  0  0  0  0  0  0  0  0  0
    8.1120    0.0300   21.1370 C   0  0  0  0  0  0  0  0  0  0  0  0
    8.3870    1.2340   20.9180 O   0  0  0  0  0  0  0  0  0  0  0  0
    6.9200   -0.6470   21.0150 C   0  0  2  0  0  0  0  0  0  0  0  0
    9.0210   -0.9540   21.5710 N   0  0  0  0  0  0  0  0  0  0  0  0
    7.1060   -2.1660   21.1370 C   0  0  2  0  0  0  0  0  0  0  0  0
    8.2880   -2.1750   21.8360 C   0  0  1  0  0  0  0  0  0  0  0  0
    8.9180   -3.2940   21.7970 C   0  0  0  0  0  0  0  0  0  0  0  0
    8.4380   -3.7190   23.0510 N   0  0  0  0  0  0  0  0  0  0  0  0
    6.9400   -3.5980   23.2340 C   0  0  0  0  0  0  0  0  0  0  0  0
    6.2440   -2.8600   22.2000 C   0  0  0  0  0  0  0  0  0  0  0  0
    9.6980   -5.4380   25.3460 C   0  0  0  0  0  0  0  0  0  0  0  0
    8.9760   -4.2670   25.2280 C   0  0  0  0  0  0  0  0  0  0  0  0
    7.7920   -3.9790   26.4460 S   0  0  0  0  0  0  0  0  0  0  0  0
    8.1650   -5.4300   27.2070 C   0  0  0  0  0  0  0  0  0  0  0  0
    9.2840   -6.1540   26.4650 C   0  0  0  0  0  0  0  0  0  0  0  0
    6.1670    0.7190   17.4470 N   0  0  0  0  0  0  0  0  0  0  0  0
    5.0800    1.4770   17.7010 C   0  0  0  0  0  0  0  0  0  0  0  0
    4.4880    1.5540   19.0900 C   0  0  0  0  0  0  0  0  0  0  0  0
    5.1600    0.7850   20.1740 C   0  0  0  0  0  0  0  0  0  0  0  0
    6.3780   -0.0200   19.8350 C   0  0  0  0  0  0  0  0  0  0  0  0
    6.7790   -0.0020   18.5270 C   0  0  0  0  0  0  0  0  0  0  0  0
    3.3570    2.3080   19.4050 C   0  0  0  0  0  0  0  0  0  0  0  0
    2.8640    2.3370   20.7460 C   0  0  0  0  0  0  0  0  0  0  0  0
    3.5200    1.6070   21.7460 C   0  0  0  0  0  0  0  0  0  0  0  0
    4.6340    0.8520   21.4680 C   0  0  0  0  0  0  0  0  0  0  0  0
   11.3320   -0.6840   22.3070 C   0  0  0  0  0  0  0  0  0  0  0  0
   12.2440   -0.1450   23.1780 C   0  0  0  0  0  0  0  0  0  0  0  0
   11.7850    0.6190   24.2200 C   0  0  0  0  0  0  0  0  0  0  0  0
   10.4310    0.8590   24.4230 C   0  0  0  0  0  0  0  0  0  0  0  0
    9.5180    0.3230   23.5420 C   0  0  0  0  0  0  0  0  0  0  0  0
    9.9770   -0.4440   22.4800 C   0  0  0  0  0  0  0  0  0  0  0  0
  1  4  1  0
  2  4  2  0
  6  7  2  0
  6  8  1  0
  6  9  1  0
 10  4  1  6
  8 10  1  0
  9 11  1  0
 10 11  1  0
 11 12  1  6
  5 13  1  0
 12 13  1  0
 13 14  1  0
 10 15  1  0
 14 15  1  0
  5 17  1  0
 16 17  2  0
 17 18  1  0
  3 19  1  0
 18 19  1  0
 16 20  1  0
 19 20  2  0
 21 22  2  0
 22 23  1  0
 23 24  2  0
  8 25  1  6
 24 25  1  0
 21 26  1  0
 25 26  2  0
 23 27  1  0
 27 28  2  0
 28 29  1  0
 24 30  1  0
 29 30  2  0
 31 32  2  0
 32 33  1  0
 33 34  2  0
 34 35  1  0
  9 36  1  0
 31 36  1  0
 35 36  2  0
M  END
