x2572-x1425
     RDKit          3D

 37 40  0  0  0  0  0  0  0  0999 V2000
    4.9150    1.1770   21.7160 C   0  0  0  0  0  0  0  0  0  0  0  0
    9.0010    1.2490   21.2950 O   0  0  0  0  0  0  0  0  0  0  0  0
    7.2110   -0.5250   21.1400 N   0  0  0  0  0  0  0  0  0  0  0  0
   13.5160   -3.1950   20.7030 N   0  0  0  0  0  0  0  0  0  0  0  0
    8.3190    0.0500   21.7540 C   0  0  0  0  0  0  0  0  0  0  0  0
    8.6720   -0.6110   22.8280 C   0  0  0  0  0  0  0  0  0  0  0  0
   13.0070   -2.1830   21.4320 C   0  0  0  0  0  0  0  0  0  0  0  0
    1.4960   -2.3640   28.1280 C   0  0  0  0  0  0  0  0  0  0  0  0
    2.7060   -2.2260   28.2430 O   0  0  0  0  0  0  0  0  0  0  0  0
    5.1490   -4.5410   19.8410 O   0  0  0  0  0  0  0  0  0  0  0  0
    6.1780   -3.9800   20.1630 C   0  0  0  0  0  0  0  0  0  0  0  0
    7.0150   -3.2180   19.1770 C   0  0  0  0  0  0  0  0  0  0  0  0
    6.4080   -1.6250   21.7340 C   0  0  0  0  0  0  0  0  0  0  0  0
    6.3840    0.5530   17.6740 N   0  0  0  0  0  0  0  0  0  0  0  0
    6.9520   -0.0250   18.7420 C   0  0  0  0  0  0  0  0  0  0  0  0
    6.5560    0.1150   20.0730 C   0  0  0  0  0  0  0  0  0  0  0  0
    5.4420    0.9410   20.3340 C   0  0  0  0  0  0  0  0  0  0  0  0
    4.7360    1.6310   19.1550 C   0  0  0  0  0  0  0  0  0  0  0  0
    5.2390    1.4040   17.9110 C   0  0  0  0  0  0  0  0  0  0  0  0
   10.7540    0.7030   23.6430 C   0  0  0  0  0  0  0  0  0  0  0  0
   12.1450    0.8500   23.6610 C   0  0  0  0  0  0  0  0  0  0  0  0
   12.9290   -0.0710   22.9530 C   0  0  0  0  0  0  0  0  0  0  0  0
   12.3530   -1.1040   22.2470 C   0  0  0  0  0  0  0  0  0  0  0  0
   10.9740   -1.2320   22.2370 C   0  0  0  0  0  0  0  0  0  0  0  0
   10.1600   -0.3370   22.9290 C   0  0  0  0  0  0  0  0  0  0  0  0
    3.4920   -2.5760   27.1760 C   0  0  0  0  0  0  0  0  0  0  0  0
    4.8050   -2.1320   26.9480 C   0  0  0  0  0  0  0  0  0  0  0  0
    5.5500   -2.5270   25.8450 C   0  0  0  0  0  0  0  0  0  0  0  0
    4.9420   -3.4030   24.9450 C   0  0  0  0  0  0  0  0  0  0  0  0
    3.6290   -3.8710   25.1330 C   0  0  0  0  0  0  0  0  0  0  0  0
    2.8890   -3.4620   26.2540 C   0  0  0  0  0  0  0  0  0  0  0  0
    6.6500   -4.0510   21.4510 N   0  0  0  0  0  0  0  0  0  0  0  0
    7.1120   -2.8680   22.2390 C   0  0  2  0  0  0  0  0  0  0  0  0
    7.0050   -3.2170   23.5790 C   0  0  0  0  0  0  0  0  0  0  0  0
    5.6920   -3.8440   23.7780 N   0  0  0  0  0  0  0  0  0  0  0  0
    5.4680   -5.1760   23.1940 C   0  0  0  0  0  0  0  0  0  0  0  0
    6.3890   -5.3250   22.1570 C   0  0  0  0  0  0  0  0  0  0  0  0
  2  5  2  0
  3  5  1  0
  5  6  1  0
  4  7  3  0
  8  9  1  0
 10 11  2  0
 11 12  1  0
  3 13  1  0
 14 15  2  0
  3 16  1  0
 15 16  1  0
  1 17  1  0
 16 17  2  0
 17 18  1  0
 14 19  1  0
 18 19  2  0
 20 21  2  0
 21 22  1  0
  7 23  1  0
 22 23  2  0
 23 24  1  0
  6 25  1  0
 20 25  1  0
 24 25  2  0
  9 26  1  0
 26 27  2  0
 27 28  1  0
 28 29  2  0
 29 30  1  0
 26 31  1  0
 30 31  2  0
 11 32  1  0
 33 13  1  1
 32 33  1  0
 33 34  1  0
 29 35  1  0
 34 35  1  0
 35 36  1  0
 32 37  1  0
 36 37  1  0
M  END
