x2572-x1375
     RDKit          3D

 40 43  0  0  0  0  0  0  0  0999 V2000
    5.7890   -4.9850   20.0500 O   0  0  0  0  0  0  0  0  0  0  0  0
    6.5660   -4.4550   20.8580 C   0  0  0  0  0  0  0  0  0  0  0  0
    7.9800   -3.8600   20.5900 C   0  0  0  0  0  0  0  0  0  0  0  0
    6.1240   -4.2390   22.3480 C   0  0  2  0  0  0  0  0  0  0  0  0
    2.3200   -7.0600   23.5650 O   0  0  0  0  0  0  0  0  0  0  0  0
    4.3430   -8.0350   24.9220 O   0  0  0  0  0  0  0  0  0  0  0  0
   10.6730   -4.6820   25.9730 F   0  0  0  0  0  0  0  0  0  0  0  0
    4.5460    1.5430   21.4050 C   0  0  0  0  0  0  0  0  0  0  0  0
    8.8010    1.3560   21.2460 O   0  0  0  0  0  0  0  0  0  0  0  0
    6.9610   -0.0800   21.1070 N   0  0  0  0  0  0  0  0  0  0  0  0
   13.8080   -2.4080   20.5780 N   0  0  0  0  0  0  0  0  0  0  0  0
    8.1220    0.4010   21.6840 C   0  0  0  0  0  0  0  0  0  0  0  0
    8.4890   -0.2920   22.8400 C   0  0  0  0  0  0  0  0  0  0  0  0
   13.0620   -1.7060   21.5150 C   0  0  0  0  0  0  0  0  0  0  0  0
    5.6100   -2.9920   22.2810 C   0  0  0  0  0  0  0  0  0  0  0  0
    5.8720   -2.1160   21.2790 C   0  0  0  0  0  0  0  0  0  0  0  0
    6.0010   -0.7730   21.9180 C   0  0  0  0  0  0  0  0  0  0  0  0
    7.8870   -3.2760   23.9800 C   0  0  0  0  0  0  0  0  0  0  0  0
    9.0650   -3.3570   24.9250 C   0  0  0  0  0  0  0  0  0  0  0  0
    9.6340   -4.5800   25.1400 C   0  0  0  0  0  0  0  0  0  0  0  0
    9.1380   -5.7050   24.5010 C   0  0  0  0  0  0  0  0  0  0  0  0
    7.9970   -5.6580   23.5750 C   0  0  0  0  0  0  0  0  0  0  0  0
    7.3830   -4.4140   23.3340 C   0  0  0  0  0  0  0  0  0  0  0  0
    4.5780   -4.4880   24.1580 C   0  0  0  0  0  0  0  0  0  0  0  0
    4.9010   -4.9770   22.8910 C   0  0  2  0  0  0  0  0  0  0  0  0
    4.8920   -6.3580   22.8820 C   0  0  0  0  0  0  0  0  0  0  0  0
    3.7760   -6.7980   24.1520 S   0  0  0  0  0  0  0  0  0  0  0  0
    3.8870   -5.4260   25.0850 C   0  0  0  0  0  0  0  0  0  0  0  0
    6.4030    0.7150   17.5990 N   0  0  0  0  0  0  0  0  0  0  0  0
    6.9200    0.2190   18.7220 C   0  0  0  0  0  0  0  0  0  0  0  0
    6.3690    0.4610   19.9670 C   0  0  0  0  0  0  0  0  0  0  0  0
    5.2180    1.2370   20.0970 C   0  0  0  0  0  0  0  0  0  0  0  0
    4.6320    1.7760   18.9640 C   0  0  0  0  0  0  0  0  0  0  0  0
    5.2220    1.5170   17.7460 C   0  0  0  0  0  0  0  0  0  0  0  0
   10.5100    0.6720   23.8850 C   0  0  0  0  0  0  0  0  0  0  0  0
   12.0050    0.7720   23.9990 C   0  0  0  0  0  0  0  0  0  0  0  0
   12.8460    0.0220   23.2610 C   0  0  0  0  0  0  0  0  0  0  0  0
   12.2700   -0.9590   22.2800 C   0  0  0  0  0  0  0  0  0  0  0  0
   10.7870   -1.1120   22.1120 C   0  0  0  0  0  0  0  0  0  0  0  0
    9.9440   -0.2220   22.9770 C   0  0  0  0  0  0  0  0  0  0  0  0
  1  2  2  0
  2  3  1  0
  4  2  1  0
  9 12  2  0
 10 12  1  0
 12 13  1  0
 11 14  3  0
  4 15  1  6
 15 16  1  0
 10 17  1  0
 16 17  1  0
 18 19  2  0
  7 20  1  0
 19 20  1  0
 20 21  2  0
 21 22  1  0
  4 23  1  0
 18 23  1  0
 22 23  2  0
  4 25  1  0
 25 24  1  1
 25 26  1  0
 27  5  1  0
  6 27  1  0
 26 27  1  0
 24 28  2  0
 27 28  1  0
 29 30  2  0
 10 31  1  0
 30 31  1  0
  8 32  1  0
 31 32  2  0
 32 33  1  0
 29 34  1  0
 33 34  2  0
 35 36  2  0
 36 37  1  0
 14 38  1  0
 37 38  2  0
 38 39  1  0
 13 40  1  0
 35 40  1  0
 39 40  2  0
M  END
