x2572-x2643
     RDKit          3D

 19 20  0  0  0  0  0  0  0  0999 V2000
    4.8270    1.2710   21.7430 C   0  0  0  0  0  0  0  0  0  0  0  0
    8.8990    1.4260   21.2580 O   0  0  0  0  0  0  0  0  0  0  0  0
    7.1860   -0.3980   21.1120 N   0  0  0  0  0  0  0  0  0  0  0  0
   13.5250   -3.1540   20.6880 N   0  0  0  0  0  0  0  0  0  0  0  0
    8.2590    0.2080   21.7220 C   0  0  0  0  0  0  0  0  0  0  0  0
    8.6640   -0.4310   22.7790 C   0  0  0  0  0  0  0  0  0  0  0  0
   12.9780   -2.1890   21.4390 C   0  0  0  0  0  0  0  0  0  0  0  0
    6.2800    0.5530   17.6420 N   0  0  0  0  0  0  0  0  0  0  0  0
    6.8830    0.0110   18.7190 C   0  0  0  0  0  0  0  0  0  0  0  0
    6.5410    0.1540   20.0410 C   0  0  0  0  0  0  0  0  0  0  0  0
    5.3050    1.0360   20.3470 C   0  0  0  0  0  0  0  0  0  0  0  0
    4.6600    1.6070   19.2610 C   0  0  0  0  0  0  0  0  0  0  0  0
    5.2090    1.3280   17.8650 C   0  0  0  0  0  0  0  0  0  0  0  0
   10.7660    0.6550   23.7180 C   0  0  0  0  0  0  0  0  0  0  0  0
   12.1460    0.7060   23.7820 C   0  0  0  0  0  0  0  0  0  0  0  0
   12.9490   -0.3020   22.9750 C   0  0  0  0  0  0  0  0  0  0  0  0
   12.2990   -1.2280   22.2130 C   0  0  0  0  0  0  0  0  0  0  0  0
   10.9100   -1.2700   22.1550 C   0  0  0  0  0  0  0  0  0  0  0  0
   10.1470   -0.3510   22.8870 C   0  0  0  0  0  0  0  0  0  0  0  0
  2  5  2  0
  3  5  1  0
  5  6  1  0
  4  7  3  0
  8  9  2  0
  3 10  1  0
  9 10  1  0
  1 11  1  0
 10 11  2  0
 11 12  1  0
  8 13  1  0
 12 13  2  0
 14 15  2  0
 15 16  1  0
  7 17  1  0
 16 17  2  0
 17 18  1  0
  6 19  1  0
 14 19  1  0
 18 19  2  0
M  END
