x2572-x0705
     RDKit          3D

 37 40  0  0  0  0  0  0  0  0999 V2000
    4.6100    1.4640   21.6150 C   0  0  0  0  0  0  0  0  0  0  0  0
    8.8060    1.3040   21.8770 O   0  0  0  0  0  0  0  0  0  0  0  0
    6.8950   -0.2250   21.4180 N   0  0  0  0  0  0  0  0  0  0  0  0
   13.6020   -3.1890   20.6550 N   0  0  0  0  0  0  0  0  0  0  0  0
    8.1540    0.0230   21.9000 C   0  0  0  0  0  0  0  0  0  0  0  0
    8.7160   -1.0500   22.3470 C   0  0  1  0  0  0  0  0  0  0  0  0
   13.1180   -2.2030   21.4310 C   0  0  0  0  0  0  0  0  0  0  0  0
    1.3030   -2.6540   27.7010 C   0  0  0  0  0  0  0  0  0  0  0  0
    7.5130   -1.4050   26.0630 O   0  0  0  0  0  0  0  0  0  0  0  0
    5.5880   -3.8900   19.7600 O   0  0  0  0  0  0  0  0  0  0  0  0
    6.5640   -1.6660   25.3350 C   0  0  0  0  0  0  0  0  0  0  0  0
    6.5860   -3.6370   20.4850 C   0  0  0  0  0  0  0  0  0  0  0  0
    7.8850   -3.7550   19.8420 C   0  0  0  0  0  0  0  0  0  0  0  0
    6.4410    0.4780   17.7720 N   0  0  0  0  0  0  0  0  0  0  0  0
    6.8960    0.0100   18.9460 C   0  0  0  0  0  0  0  0  0  0  0  0
    6.3700    0.2790   20.2250 C   0  0  0  0  0  0  0  0  0  0  0  0
    5.2500    1.1120   20.3050 C   0  0  0  0  0  0  0  0  0  0  0  0
    4.6650    1.6850   19.0130 C   0  0  0  0  0  0  0  0  0  0  0  0
    5.2850    1.3420   17.8510 C   0  0  0  0  0  0  0  0  0  0  0  0
   10.5230    0.4260   23.6670 C   0  0  0  0  0  0  0  0  0  0  0  0
   11.9200    0.6080   23.8380 C   0  0  0  0  0  0  0  0  0  0  0  0
   12.8160   -0.2090   23.1420 C   0  0  0  0  0  0  0  0  0  0  0  0
   12.4130   -1.1980   22.2860 C   0  0  0  0  0  0  0  0  0  0  0  0
   11.0640   -1.3640   22.1260 C   0  0  0  0  0  0  0  0  0  0  0  0
   10.1080   -0.5930   22.7770 C   0  0  0  0  0  0  0  0  0  0  0  0
    2.6860   -2.4520   27.1270 C   0  0  0  0  0  0  0  0  0  0  0  0
    2.8750   -1.4650   26.1780 C   0  0  0  0  0  0  0  0  0  0  0  0
    4.0980   -1.1910   25.5890 C   0  0  0  0  0  0  0  0  0  0  0  0
    5.2010   -1.9730   25.9900 C   0  0  0  0  0  0  0  0  0  0  0  0
    5.0370   -2.9980   26.9650 C   0  0  0  0  0  0  0  0  0  0  0  0
    3.7680   -3.2400   27.5380 C   0  0  0  0  0  0  0  0  0  0  0  0
    6.5780   -3.3300   21.8450 N   0  0  0  0  0  0  0  0  0  0  0  0
    5.4060   -3.2230   22.7110 C   0  0  0  0  0  0  0  0  0  0  0  0
    5.3860   -1.9270   23.2030 C   0  0  0  0  0  0  0  0  0  0  0  0
    6.6450   -1.6690   23.9350 N   0  0  0  0  0  0  0  0  0  0  0  0
    7.9550   -2.0240   23.3010 C   0  0  1  0  0  0  0  0  0  0  0  0
    7.8700   -3.1990   22.5530 C   0  0  0  0  0  0  0  0  0  0  0  0
  2  5  2  0
  3  5  1  0
  6  5  1  1
  4  7  3  0
  9 11  2  0
 10 12  2  0
 12 13  1  0
 14 15  2  0
  3 16  1  0
 15 16  1  0
  1 17  1  0
 16 17  2  0
 17 18  1  0
 14 19  1  0
 18 19  2  0
 20 21  2  0
 21 22  1  0
  7 23  1  0
 22 23  2  0
 23 24  1  0
  6 25  1  0
 20 25  1  0
 24 25  2  0
  8 26  1  0
 26 27  2  0
 27 28  1  0
 11 29  1  0
 28 29  2  0
 29 30  1  0
 26 31  1  0
 30 31  2  0
 12 32  1  0
 32 33  1  0
 33 34  1  0
 11 35  1  0
 34 35  1  0
  6 36  1  0
 35 36  1  0
 32 37  1  0
 36 37  1  6
M  END
