x2572-x1493
     RDKit          3D

 33 35  0  0  0  0  0  0  0  0999 V2000
    4.8050    1.2150   21.7140 C   0  0  0  0  0  0  0  0  0  0  0  0
    8.7580    1.2400   21.2050 O   0  0  0  0  0  0  0  0  0  0  0  0
    7.0480   -0.5990   21.2010 N   0  0  0  0  0  0  0  0  0  0  0  0
   13.7030   -2.4210   20.6620 N   0  0  0  0  0  0  0  0  0  0  0  0
    8.0500    0.1140   21.8040 C   0  0  0  0  0  0  0  0  0  0  0  0
    8.3430   -0.2890   23.0140 C   0  0  1  0  0  0  0  0  0  0  0  0
   12.9470   -1.7830   21.5030 C   0  0  0  0  0  0  0  0  0  0  0  0
    5.1170   -5.8270   25.7530 C   0  0  0  0  0  0  0  0  0  0  0  0
    7.2900   -5.2030   25.9610 O   0  0  0  0  0  0  0  0  0  0  0  0
    6.2710   -5.1860   25.2750 C   0  0  0  0  0  0  0  0  0  0  0  0
    5.5160   -4.4220   19.9130 O   0  0  0  0  0  0  0  0  0  0  0  0
    6.5470   -4.4940   20.5940 C   0  0  0  0  0  0  0  0  0  0  0  0
    7.7510   -3.6530   20.2840 C   0  0  0  0  0  0  0  0  0  0  0  0
    7.5190   -1.5290   23.4910 C   0  0  0  0  0  0  0  0  0  0  0  0
    7.5090   -2.7500   22.7570 C   0  0  0  0  0  0  0  0  0  0  0  0
    6.2910    0.5230   17.6490 N   0  0  0  0  0  0  0  0  0  0  0  0
    6.8960   -0.1280   18.6670 C   0  0  0  0  0  0  0  0  0  0  0  0
    6.3880    0.1040   20.0800 C   0  0  0  0  0  0  0  0  0  0  0  0
    5.3470    0.9460   20.3050 C   0  0  0  0  0  0  0  0  0  0  0  0
    4.7320    1.6070   19.2410 C   0  0  0  0  0  0  0  0  0  0  0  0
    5.2380    1.3640   17.9510 C   0  0  0  0  0  0  0  0  0  0  0  0
   10.5270    0.6740   24.0820 C   0  0  0  0  0  0  0  0  0  0  0  0
   11.8930    0.6460   24.0570 C   0  0  0  0  0  0  0  0  0  0  0  0
   12.6310   -0.1340   23.2470 C   0  0  0  0  0  0  0  0  0  0  0  0
   12.0590   -0.9950   22.3470 C   0  0  0  0  0  0  0  0  0  0  0  0
   10.6720   -1.0660   22.2690 C   0  0  0  0  0  0  0  0  0  0  0  0
    9.8420   -0.2800   23.0810 C   0  0  0  0  0  0  0  0  0  0  0  0
    6.2190   -4.5570   24.0160 N   0  0  0  0  0  0  0  0  0  0  0  0
    7.4290   -4.1460   23.4940 C   0  0  1  0  0  0  0  0  0  0  0  0
    7.7430   -5.2190   22.6490 C   0  0  0  0  0  0  0  0  0  0  0  0
    6.6690   -5.3810   21.6650 N   0  0  0  0  0  0  0  0  0  0  0  0
    5.6530   -6.0180   22.2160 C   0  0  0  0  0  0  0  0  0  0  0  0
    5.2440   -5.0270   23.1000 C   0  0  0  0  0  0  0  0  0  0  0  0
  2  5  2  0
  3  5  1  0
  5  6  1  0
  4  7  3  0
  8 10  1  0
  9 10  2  0
 11 12  2  0
 12 13  1  0
  6 14  1  6
 14 15  1  0
 16 17  2  0
  3 18  1  0
 17 18  1  0
  1 19  1  0
 18 19  2  0
 19 20  1  0
 16 21  1  0
 20 21  2  0
 22 23  2  0
 23 24  1  0
  7 25  1  0
 24 25  2  0
 25 26  1  0
  6 27  1  0
 22 27  1  0
 26 27  2  0
 10 28  1  0
 29 15  1  6
 28 29  1  0
 29 30  1  0
 12 31  1  0
 30 31  1  0
 31 32  1  0
 28 33  1  0
 32 33  1  0
M  END
