x2572-x0991
     RDKit          3D

 25 26  0  0  0  0  0  0  0  0999 V2000
    4.7470    1.2490   21.7010 C   0  0  0  0  0  0  0  0  0  0  0  0
    8.7890    1.1370   21.8550 O   0  0  0  0  0  0  0  0  0  0  0  0
    7.0150   -0.5190   21.3300 N   0  0  0  0  0  0  0  0  0  0  0  0
   13.6970   -2.8290   20.6280 N   0  0  0  0  0  0  0  0  0  0  0  0
    8.2370   -0.1910   21.8720 C   0  0  0  0  0  0  0  0  0  0  0  0
    8.8870   -1.2070   22.3760 C   0  0  2  0  0  0  0  0  0  0  0  0
   13.2440   -1.8930   21.4330 C   0  0  0  0  0  0  0  0  0  0  0  0
    9.7180   -5.6320   25.1080 N   0  0  0  0  0  0  0  0  0  0  0  0
    8.5260   -3.3700   23.4800 C   0  0  0  0  0  0  0  0  0  0  0  0
    7.7830   -4.0230   24.4810 C   0  0  0  0  0  0  0  0  0  0  0  0
    8.2060   -4.8900   26.7130 N   0  0  0  0  0  0  0  0  0  0  0  0
    8.6500   -4.9120   25.4450 C   0  0  0  0  0  0  0  0  0  0  0  0
    8.2450   -1.9550   23.4830 C   0  0  0  0  0  0  0  0  0  0  0  0
    6.3720    0.4860   17.7660 N   0  0  0  0  0  0  0  0  0  0  0  0
    6.8850   -0.0860   18.8810 C   0  0  0  0  0  0  0  0  0  0  0  0
    6.4370    0.0930   20.1970 C   0  0  0  0  0  0  0  0  0  0  0  0
    5.3450    0.9460   20.3660 C   0  0  0  0  0  0  0  0  0  0  0  0
    4.7610    1.5870   19.1040 C   0  0  0  0  0  0  0  0  0  0  0  0
    5.3130    1.3160   17.8880 C   0  0  0  0  0  0  0  0  0  0  0  0
   10.5050    0.4830   23.6600 C   0  0  0  0  0  0  0  0  0  0  0  0
   11.8730    0.8050   23.8000 C   0  0  0  0  0  0  0  0  0  0  0  0
   12.8510    0.0890   23.1140 C   0  0  0  0  0  0  0  0  0  0  0  0
   12.5260   -0.9430   22.2890 C   0  0  0  0  0  0  0  0  0  0  0  0
   11.2130   -1.2360   22.1640 C   0  0  0  0  0  0  0  0  0  0  0  0
   10.1920   -0.5870   22.7920 C   0  0  0  0  0  0  0  0  0  0  0  0
  2  5  2  0
  3  5  1  0
  5  6  1  0
  4  7  3  0
  9 10  1  0
  8 12  2  3
 10 12  1  0
 11 12  1  0
  6 13  1  1
  9 13  1  0
 14 15  2  0
  3 16  1  0
 15 16  1  0
  1 17  1  0
 16 17  2  0
 17 18  1  0
 14 19  1  0
 18 19  2  0
 20 21  2  0
 21 22  1  0
  7 23  1  0
 22 23  2  0
 23 24  1  0
  6 25  1  0
 20 25  1  0
 24 25  2  0
M  END
