x2572-x2705
     RDKit          3D

 35 37  0  0  0  0  0  0  0  0999 V2000
    6.9840   -1.5800   21.7530 N   0  0  0  0  0  0  0  0  0  0  0  0
    6.8060   -4.8720   20.4800 C   0  0  0  0  0  0  0  0  0  0  0  0
    4.8740   -3.0610   21.2310 O   0  0  0  0  0  0  0  0  0  0  0  0
    6.9400   -4.0910   21.7670 C   0  0  0  0  0  0  0  0  0  0  0  0
    7.4350    1.9380   22.7640 N   0  0  0  0  0  0  0  0  0  0  0  0
    8.9170    0.7620   21.4530 O   0  0  0  0  0  0  0  0  0  0  0  0
    6.1590   -2.8360   21.5600 C   0  0  0  0  0  0  0  0  0  0  0  0
    6.6610   -0.0990   21.4940 C   0  0  1  0  0  0  0  0  0  0  0  0
    7.7850    0.8900   21.9050 C   0  0  0  0  0  0  0  0  0  0  0  0
   10.1710    2.0370   23.9630 C   0  0  0  0  0  0  0  0  0  0  0  0
    9.2600    1.2600   24.9660 C   0  0  0  0  0  0  0  0  0  0  0  0
    6.1590    4.4910   21.8570 C   0  0  0  0  0  0  0  0  0  0  0  0
   11.9930   -1.6520   23.3000 C   0  0  0  0  0  0  0  0  0  0  0  0
   12.6220   -0.7550   24.1920 C   0  0  0  0  0  0  0  0  0  0  0  0
   12.7590   -2.3510   24.4690 C   0  0  0  0  0  0  0  0  0  0  0  0
   12.7600   -1.7460   21.9670 C   0  0  0  0  0  0  0  0  0  0  0  0
    4.2380    1.6510   21.2580 C   0  0  0  0  0  0  0  0  0  0  0  0
   13.5190   -1.7460   20.8270 N   0  0  0  0  0  0  0  0  0  0  0  0
    6.3270    0.2840   17.8160 N   0  0  0  0  0  0  0  0  0  0  0  0
    5.2380    1.0940   17.7910 C   0  0  0  0  0  0  0  0  0  0  0  0
    4.5350    1.5480   18.8580 C   0  0  0  0  0  0  0  0  0  0  0  0
    5.0040    1.1390   20.0750 C   0  0  0  0  0  0  0  0  0  0  0  0
    6.1090    0.3230   20.1630 C   0  0  0  0  0  0  0  0  0  0  0  0
    6.8790   -0.1980   19.0830 C   0  0  0  0  0  0  0  0  0  0  0  0
    9.7240   -1.6640   24.3700 N   0  0  0  0  0  0  0  0  0  0  0  0
    8.4360   -1.6520   23.8900 N   0  0  0  0  0  0  0  0  0  0  0  0
    8.2260   -1.6320   22.5130 C   0  0  0  0  0  0  0  0  0  0  0  0
    9.6030   -1.6420   22.1960 C   0  0  0  0  0  0  0  0  0  0  0  0
   10.4350   -1.6560   23.2800 C   0  0  0  0  0  0  0  0  0  0  0  0
    9.4200    3.2640   23.4820 C   0  0  0  0  0  0  0  0  0  0  0  0
   10.1000    4.4930   23.6350 C   0  0  0  0  0  0  0  0  0  0  0  0
    9.4610    5.6700   23.2020 C   0  0  0  0  0  0  0  0  0  0  0  0
    8.1880    5.6200   22.6340 C   0  0  0  0  0  0  0  0  0  0  0  0
    7.5240    4.3980   22.4890 C   0  0  0  0  0  0  0  0  0  0  0  0
    8.1250    3.1950   22.9130 C   0  0  0  0  0  0  0  0  0  0  0  0
  2  4  1  0
  1  7  1  0
  3  7  2  0
  4  7  1  0
  1  8  1  0
  5  9  1  0
  6  9  2  0
  8  9  1  6
 10 11  1  0
 13 14  1  0
 13 15  1  0
 13 16  1  0
 16 18  3  0
 19 20  2  0
 20 21  1  0
 17 22  1  0
 21 22  2  0
  8 23  1  0
 22 23  1  0
 19 24  1  0
 23 24  2  0
 25 26  1  0
  1 27  1  0
 26 27  1  0
 27 28  2  0
 13 29  1  0
 25 29  2  0
 28 29  1  0
 10 30  1  0
 30 31  2  0
 31 32  1  0
 32 33  2  0
 12 34  1  0
 33 34  1  0
  5 35  1  0
 30 35  1  0
 34 35  2  0
M  END
