x2572-x1351
     RDKit          3D

 38 41  0  0  0  0  0  0  0  0999 V2000
    4.9470    1.1670   21.6930 C   0  0  0  0  0  0  0  0  0  0  0  0
    9.0080    1.2780   21.2950 O   0  0  0  0  0  0  0  0  0  0  0  0
    7.2280   -0.5050   21.1460 N   0  0  0  0  0  0  0  0  0  0  0  0
   13.5320   -3.2050   20.6850 N   0  0  0  0  0  0  0  0  0  0  0  0
    8.3370    0.0720   21.7590 C   0  0  0  0  0  0  0  0  0  0  0  0
    8.7090   -0.5880   22.8300 C   0  0  0  0  0  0  0  0  0  0  0  0
   13.0320   -2.1800   21.4020 C   0  0  0  0  0  0  0  0  0  0  0  0
    7.0620   -3.2420   19.3070 C   0  0  0  0  0  0  0  0  0  0  0  0
    5.1890   -4.6090   19.8920 O   0  0  0  0  0  0  0  0  0  0  0  0
    6.1820   -3.9990   20.2570 C   0  0  0  0  0  0  0  0  0  0  0  0
    5.9150   -3.0890   25.4160 N   0  0  0  0  0  0  0  0  0  0  0  0
    8.1170   -2.9510   26.4330 O   0  0  0  0  0  0  0  0  0  0  0  0
    6.8210   -2.4400   26.1800 C   0  0  0  0  0  0  0  0  0  0  0  0
    6.4590   -1.6320   21.7110 C   0  0  0  0  0  0  0  0  0  0  0  0
    6.3480    0.5930   17.6340 N   0  0  0  0  0  0  0  0  0  0  0  0
    7.0460   -0.0890   18.7570 C   0  0  0  0  0  0  0  0  0  0  0  0
    6.5910    0.1090   20.0580 C   0  0  0  0  0  0  0  0  0  0  0  0
    5.4730    0.9350   20.3070 C   0  0  0  0  0  0  0  0  0  0  0  0
    4.7440    1.6390   19.1500 C   0  0  0  0  0  0  0  0  0  0  0  0
    5.1920    1.4580   17.8800 C   0  0  0  0  0  0  0  0  0  0  0  0
   10.7740    0.7720   23.6350 C   0  0  0  0  0  0  0  0  0  0  0  0
   12.1700    0.8850   23.6050 C   0  0  0  0  0  0  0  0  0  0  0  0
   12.9250   -0.0430   22.8990 C   0  0  0  0  0  0  0  0  0  0  0  0
   12.3860   -1.0920   22.2100 C   0  0  0  0  0  0  0  0  0  0  0  0
   11.0070   -1.2020   22.2340 C   0  0  0  0  0  0  0  0  0  0  0  0
   10.1900   -0.2940   22.9280 C   0  0  0  0  0  0  0  0  0  0  0  0
    6.5710   -4.0270   21.5950 N   0  0  0  0  0  0  0  0  0  0  0  0
    7.1740   -2.9500   22.1260 C   0  0  2  0  0  0  0  0  0  0  0  0
    7.2720   -2.8980   23.5040 C   0  0  0  0  0  0  0  0  0  0  0  0
    6.0320   -3.1810   24.0670 C   0  0  1  0  0  0  0  0  0  0  0  0
    5.5660   -4.4710   23.7110 C   0  0  0  0  0  0  0  0  0  0  0  0
    6.1250   -4.9390   22.4860 C   0  0  0  0  0  0  0  0  0  0  0  0
    7.0300   -0.7630   28.0020 C   0  0  0  0  0  0  0  0  0  0  0  0
    6.7270    0.4270   28.6560 C   0  0  0  0  0  0  0  0  0  0  0  0
    5.7820    1.2900   28.0930 C   0  0  0  0  0  0  0  0  0  0  0  0
    5.1560    0.9460   26.8830 C   0  0  0  0  0  0  0  0  0  0  0  0
    5.4760   -0.2630   26.2360 C   0  0  0  0  0  0  0  0  0  0  0  0
    6.4240   -1.1350   26.7980 C   0  0  0  0  0  0  0  0  0  0  0  0
  2  5  2  0
  3  5  1  0
  5  6  1  0
  4  7  3  0
  8 10  1  0
  9 10  2  0
 11 13  1  0
 12 13  2  0
  3 14  1  0
 15 16  2  0
  3 17  1  0
 16 17  1  0
  1 18  1  0
 17 18  2  0
 18 19  1  0
 15 20  1  0
 19 20  2  0
 21 22  2  0
 22 23  1  0
  7 24  1  0
 23 24  2  0
 24 25  1  0
  6 26  1  0
 21 26  1  0
 25 26  2  0
 10 27  1  0
 28 14  1  1
 27 28  1  0
 28 29  1  0
 30 11  1  1
 29 30  1  0
 30 31  1  0
 27 32  1  0
 31 32  1  0
 33 34  2  0
 34 35  1  0
 35 36  2  0
 36 37  1  0
 13 38  1  0
 33 38  1  0
 37 38  2  0
M  END
