x2572-x0107
     RDKit          3D

 19 20  0  0  0  0  0  0  0  0999 V2000
    4.8310    1.2740   21.7440 C   0  0  0  0  0  0  0  0  0  0  0  0
    8.9030    1.4280   21.2630 O   0  0  0  0  0  0  0  0  0  0  0  0
    7.1910   -0.3970   21.1130 N   0  0  0  0  0  0  0  0  0  0  0  0
   13.5230   -3.1720   20.6870 N   0  0  0  0  0  0  0  0  0  0  0  0
    8.2640    0.2100   21.7260 C   0  0  0  0  0  0  0  0  0  0  0  0
    8.6680   -0.4300   22.7790 C   0  0  0  0  0  0  0  0  0  0  0  0
   12.9800   -2.2010   21.4380 C   0  0  0  0  0  0  0  0  0  0  0  0
    6.2790    0.5500   17.6430 N   0  0  0  0  0  0  0  0  0  0  0  0
    6.8840    0.0110   18.7180 C   0  0  0  0  0  0  0  0  0  0  0  0
    6.5460    0.1540   20.0440 C   0  0  0  0  0  0  0  0  0  0  0  0
    5.3090    1.0380   20.3510 C   0  0  0  0  0  0  0  0  0  0  0  0
    4.6620    1.6070   19.2640 C   0  0  0  0  0  0  0  0  0  0  0  0
    5.2080    1.3260   17.8680 C   0  0  0  0  0  0  0  0  0  0  0  0
   10.7730    0.6550   23.7090 C   0  0  0  0  0  0  0  0  0  0  0  0
   12.1550    0.7080   23.7710 C   0  0  0  0  0  0  0  0  0  0  0  0
   12.9540   -0.3070   22.9650 C   0  0  0  0  0  0  0  0  0  0  0  0
   12.3040   -1.2370   22.2070 C   0  0  0  0  0  0  0  0  0  0  0  0
   10.9130   -1.2770   22.1530 C   0  0  0  0  0  0  0  0  0  0  0  0
   10.1530   -0.3520   22.8840 C   0  0  0  0  0  0  0  0  0  0  0  0
  2  5  2  0
  3  5  1  0
  5  6  1  0
  4  7  3  0
  8  9  2  0
  3 10  1  0
  9 10  1  0
  1 11  1  0
 10 11  2  0
 11 12  1  0
  8 13  1  0
 12 13  2  0
 14 15  2  0
 15 16  1  0
  7 17  1  0
 16 17  2  0
 17 18  1  0
  6 19  1  0
 14 19  1  0
 18 19  2  0
M  END
