x2572-x2569
     RDKit          3D

 19 20  0  0  0  0  0  0  0  0999 V2000
    4.8450    1.2960   21.7580 C   0  0  0  0  0  0  0  0  0  0  0  0
    8.9020    1.4080   21.2430 O   0  0  0  0  0  0  0  0  0  0  0  0
    7.1840   -0.4070   21.1090 N   0  0  0  0  0  0  0  0  0  0  0  0
   13.5960   -3.1300   20.6980 N   0  0  0  0  0  0  0  0  0  0  0  0
    8.2670    0.1900   21.7080 C   0  0  0  0  0  0  0  0  0  0  0  0
    8.6830   -0.4550   22.7570 C   0  0  0  0  0  0  0  0  0  0  0  0
   13.0270   -2.1700   21.4460 C   0  0  0  0  0  0  0  0  0  0  0  0
    6.2660    0.5500   17.6450 N   0  0  0  0  0  0  0  0  0  0  0  0
    6.8680    0.0020   18.7190 C   0  0  0  0  0  0  0  0  0  0  0  0
    6.5370    0.1520   20.0470 C   0  0  0  0  0  0  0  0  0  0  0  0
    5.3170    1.0500   20.3630 C   0  0  0  0  0  0  0  0  0  0  0  0
    4.6720    1.6310   19.2790 C   0  0  0  0  0  0  0  0  0  0  0  0
    5.2090    1.3420   17.8780 C   0  0  0  0  0  0  0  0  0  0  0  0
   10.7700    0.6580   23.7010 C   0  0  0  0  0  0  0  0  0  0  0  0
   12.1520    0.7270   23.7710 C   0  0  0  0  0  0  0  0  0  0  0  0
   12.9660   -0.2760   22.9710 C   0  0  0  0  0  0  0  0  0  0  0  0
   12.3360   -1.2140   22.2100 C   0  0  0  0  0  0  0  0  0  0  0  0
   10.9430   -1.2680   22.1490 C   0  0  0  0  0  0  0  0  0  0  0  0
   10.1700   -0.3560   22.8710 C   0  0  0  0  0  0  0  0  0  0  0  0
  2  5  2  0
  3  5  1  0
  5  6  1  0
  4  7  3  0
  8  9  2  0
  3 10  1  0
  9 10  1  0
  1 11  1  0
 10 11  2  0
 11 12  1  0
  8 13  1  0
 12 13  2  0
 14 15  2  0
 15 16  1  0
  7 17  1  0
 16 17  2  0
 17 18  1  0
  6 19  1  0
 14 19  1  0
 18 19  2  0
M  END
