x2572-x2779
     RDKit          3D

 29 32  0  0  0  0  0  0  0  0999 V2000
    4.8710    1.0540   21.7610 C   0  0  0  0  0  0  0  0  0  0  0  0
    8.8680    1.5060   21.1410 O   0  0  0  0  0  0  0  0  0  0  0  0
    7.2770   -0.4560   20.9700 N   0  0  0  0  0  0  0  0  0  0  0  0
   13.6520   -3.0430   20.6140 N   0  0  0  0  0  0  0  0  0  0  0  0
    8.3320    0.2390   21.5840 C   0  0  0  0  0  0  0  0  0  0  0  0
    8.8270   -0.3800   22.6440 C   0  0  2  0  0  0  0  0  0  0  0  0
   13.1270   -2.0890   21.3800 C   0  0  0  0  0  0  0  0  0  0  0  0
    7.3650   -2.9130   18.8070 C   0  0  0  0  0  0  0  0  0  0  0  0
    5.3600   -3.9140   19.6340 O   0  0  0  0  0  0  0  0  0  0  0  0
    6.3890   -3.2720   19.8850 C   0  0  0  0  0  0  0  0  0  0  0  0
    9.6650   -2.9120   23.7760 C   0  0  0  0  0  0  0  0  0  0  0  0
    6.2300    0.5730   17.6380 N   0  0  0  0  0  0  0  0  0  0  0  0
    6.9830   -0.0450   18.5680 C   0  0  0  0  0  0  0  0  0  0  0  0
    6.4570    0.1670   19.9700 C   0  0  0  0  0  0  0  0  0  0  0  0
    5.3200    0.8950   20.3470 C   0  0  0  0  0  0  0  0  0  0  0  0
    4.6080    1.4930   19.3040 C   0  0  0  0  0  0  0  0  0  0  0  0
    5.1440    1.2920   17.8830 C   0  0  0  0  0  0  0  0  0  0  0  0
   10.7620    0.7000   23.6110 C   0  0  0  0  0  0  0  0  0  0  0  0
   12.1440    0.8370   23.7630 C   0  0  0  0  0  0  0  0  0  0  0  0
   12.9710   -0.0420   23.0620 C   0  0  0  0  0  0  0  0  0  0  0  0
   12.4150   -1.0090   22.2560 C   0  0  0  0  0  0  0  0  0  0  0  0
   11.0810   -1.1220   22.1240 C   0  0  0  0  0  0  0  0  0  0  0  0
   10.2350   -0.2730   22.7920 C   0  0  0  0  0  0  0  0  0  0  0  0
    6.7130   -2.9590   21.2150 N   0  0  0  0  0  0  0  0  0  0  0  0
    7.1370   -1.6410   21.7120 C   0  0  1  0  0  0  0  0  0  0  0  0
    8.3540   -1.7390   22.3040 C   0  0  2  0  0  0  0  0  0  0  0  0
    8.4180   -2.5810   23.3290 N   0  0  0  0  0  0  0  0  0  0  0  0
    7.5110   -3.5820   23.3400 C   0  0  0  0  0  0  0  0  0  0  0  0
    7.0240   -3.9400   22.0700 C   0  0  0  0  0  0  0  0  0  0  0  0
  2  5  2  0
  3  5  1  0
  5  6  1  0
  4  7  3  0
  8 10  1  0
  9 10  2  0
 12 13  2  0
  3 14  1  0
 13 14  1  0
  1 15  1  0
 14 15  2  0
 15 16  1  0
 12 17  1  0
 16 17  2  0
 18 19  2  0
 19 20  1  0
  7 21  1  0
 20 21  2  0
 21 22  1  0
  6 23  1  6
 18 23  1  0
 22 23  2  0
 10 24  1  0
 25  3  1  6
 24 25  1  0
  6 26  1  0
 25 26  1  0
 11 27  1  0
 26 27  1  1
 27 28  1  0
 24 29  1  0
 28 29  1  0
M  END
