x2572-x1308
     RDKit          3D

 40 43  0  0  0  0  0  0  0  0999 V2000
    7.0710   -3.3720   19.7550 C   0  0  0  0  0  0  0  0  0  0  0  0
    5.3940   -5.0230   20.0150 O   0  0  0  0  0  0  0  0  0  0  0  0
    0.7100   -1.2760   26.1930 Cl  0  0  0  0  0  0  0  0  0  0  0  0
    6.3330   -4.4350   20.5380 C   0  0  0  0  0  0  0  0  0  0  0  0
    6.2730   -5.1980   27.0610 O   0  0  0  0  0  0  0  0  0  0  0  0
    4.6730   -6.9730   26.2560 O   0  0  0  0  0  0  0  0  0  0  0  0
    5.2420   -5.4950   26.1010 S   0  0  0  0  0  0  0  0  0  0  0  0
    4.4600    1.1080   21.5020 C   0  0  0  0  0  0  0  0  0  0  0  0
    8.7320    1.1290   21.4830 O   0  0  0  0  0  0  0  0  0  0  0  0
    6.9120   -0.4140   21.1290 N   0  0  0  0  0  0  0  0  0  0  0  0
   13.6190   -3.1820   20.6430 N   0  0  0  0  0  0  0  0  0  0  0  0
    8.1950    0.0510   21.7390 C   0  0  0  0  0  0  0  0  0  0  0  0
    8.7790   -0.9420   22.6900 C   0  0  1  0  0  0  0  0  0  0  0  0
   13.1410   -2.1310   21.4430 C   0  0  0  0  0  0  0  0  0  0  0  0
    7.3460   -2.7060   22.5930 C   0  0  0  0  0  0  0  0  0  0  0  0
    8.6830   -2.3530   22.4270 C   0  0  0  0  0  0  0  0  0  0  0  0
    6.6960   -4.8010   21.8400 N   0  0  0  0  0  0  0  0  0  0  0  0
    7.0820   -4.0460   22.9250 C   0  0  2  0  0  0  0  0  0  0  0  0
    6.3560   -4.0570   24.1240 C   0  0  0  0  0  0  0  0  0  0  0  0
    5.9240   -5.3740   24.5270 N   0  0  0  0  0  0  0  0  0  0  0  0
    5.2430   -6.0660   23.4200 C   0  0  0  0  0  0  0  0  0  0  0  0
    6.1990   -5.9930   22.2190 C   0  0  0  0  0  0  0  0  0  0  0  0
    4.3480   -3.0380   26.4470 C   0  0  0  0  0  0  0  0  0  0  0  0
    3.3250   -2.0490   26.4770 C   0  0  0  0  0  0  0  0  0  0  0  0
    1.9920   -2.4240   26.1630 C   0  0  0  0  0  0  0  0  0  0  0  0
    1.7490   -3.7620   25.8280 C   0  0  0  0  0  0  0  0  0  0  0  0
    2.7200   -4.7250   25.7950 C   0  0  0  0  0  0  0  0  0  0  0  0
    4.0250   -4.3520   26.1110 C   0  0  0  0  0  0  0  0  0  0  0  0
    6.3790    0.6660   17.6830 N   0  0  0  0  0  0  0  0  0  0  0  0
    6.8860    0.0850   18.7670 C   0  0  0  0  0  0  0  0  0  0  0  0
    6.3030    0.2090   20.0160 C   0  0  0  0  0  0  0  0  0  0  0  0
    5.1380    0.9480   20.1710 C   0  0  0  0  0  0  0  0  0  0  0  0
    4.5720    1.5670   19.0660 C   0  0  0  0  0  0  0  0  0  0  0  0
    5.1650    1.4530   17.8120 C   0  0  0  0  0  0  0  0  0  0  0  0
   10.7160    0.4260   23.6470 C   0  0  0  0  0  0  0  0  0  0  0  0
   12.0990    0.6440   23.7120 C   0  0  0  0  0  0  0  0  0  0  0  0
   12.9640   -0.1780   22.9950 C   0  0  0  0  0  0  0  0  0  0  0  0
   12.4370   -1.2050   22.2270 C   0  0  0  0  0  0  0  0  0  0  0  0
   11.0970   -1.4110   22.1620 C   0  0  0  0  0  0  0  0  0  0  0  0
   10.2310   -0.6180   22.8520 C   0  0  0  0  0  0  0  0  0  0  0  0
  1  4  1  0
  2  4  2  0
  5  7  2  0
  6  7  2  0
  9 12  2  0
 10 12  1  0
 12 13  1  0
 11 14  3  0
 13 16  1  6
 15 16  1  0
  4 17  1  0
 18 15  1  6
 17 18  1  0
 18 19  1  0
  7 20  1  0
 19 20  1  0
 20 21  1  0
 17 22  1  0
 21 22  1  0
 23 24  2  0
  3 25  1  0
 24 25  1  0
 25 26  2  0
 26 27  1  0
  7 28  1  0
 23 28  1  0
 27 28  2  0
 29 30  2  0
 10 31  1  0
 30 31  1  0
  8 32  1  0
 31 32  2  0
 32 33  1  0
 29 34  1  0
 33 34  2  0
 35 36  2  0
 36 37  1  0
 14 38  1  0
 37 38  2  0
 38 39  1  0
 13 40  1  0
 35 40  1  0
 39 40  2  0
M  END
