x2572-x0305
     RDKit          3D

 22 23  0  0  0  0  0  0  0  0999 V2000
    4.9040    1.2130   21.6850 C   0  0  0  0  0  0  0  0  0  0  0  0
    9.0580    1.3560   21.2710 O   0  0  0  0  0  0  0  0  0  0  0  0
    7.3610   -0.4790   21.0600 N   0  0  0  0  0  0  0  0  0  0  0  0
   13.9200   -1.6830   20.4720 N   0  0  0  0  0  0  0  0  0  0  0  0
    8.3720    0.1710   21.7450 C   0  0  0  0  0  0  0  0  0  0  0  0
    8.6290   -0.4030   22.8920 C   0  0  0  0  0  0  0  0  0  0  0  0
   13.1630   -1.4530   21.4870 C   0  0  0  0  0  0  0  0  0  0  0  0
    8.3860   -0.0310   27.2560 C   0  0  0  0  0  0  0  0  0  0  0  0
    8.5410   -0.2330   25.8780 C   0  0  0  0  0  0  0  0  0  0  0  0
    9.7770    0.2670   25.5550 N   0  0  0  0  0  0  0  0  0  0  0  0
    6.3660    0.5070   17.7220 N   0  0  0  0  0  0  0  0  0  0  0  0
    6.9900   -0.0430   18.7700 C   0  0  0  0  0  0  0  0  0  0  0  0
    6.5410    0.1780   20.0480 C   0  0  0  0  0  0  0  0  0  0  0  0
    5.3110    1.0440   20.2540 C   0  0  0  0  0  0  0  0  0  0  0  0
    4.6510    1.6160   19.1690 C   0  0  0  0  0  0  0  0  0  0  0  0
    5.1700    1.3640   17.8910 C   0  0  0  0  0  0  0  0  0  0  0  0
   10.6000   -0.1660   24.5920 C   0  0  0  0  0  0  0  0  0  0  0  0
   11.9460   -0.3010   24.8260 C   0  0  0  0  0  0  0  0  0  0  0  0
   12.7950   -0.7180   23.8500 C   0  0  0  0  0  0  0  0  0  0  0  0
   12.3330   -1.0200   22.6050 C   0  0  0  0  0  0  0  0  0  0  0  0
   10.9670   -0.9110   22.3300 C   0  0  0  0  0  0  0  0  0  0  0  0
   10.1110   -0.4860   23.3170 C   0  0  0  0  0  0  0  0  0  0  0  0
  2  5  2  0
  3  5  1  0
  5  6  1  0
  4  7  3  0
  8  9  1  0
  9 10  1  0
 11 12  2  0
  3 13  1  0
 12 13  1  0
  1 14  1  0
 13 14  2  0
 14 15  1  0
 11 16  1  0
 15 16  2  0
 10 17  1  0
 17 18  2  0
 18 19  1  0
  7 20  1  0
 19 20  2  0
 20 21  1  0
  6 22  1  0
 17 22  1  0
 21 22  2  0
M  END
