x2572-x0995
     RDKit          3D

 20 21  0  0  0  0  0  0  0  0999 V2000
    4.7490    1.2580   21.6900 C   0  0  0  0  0  0  0  0  0  0  0  0
    8.9170    1.4190   21.2670 O   0  0  0  0  0  0  0  0  0  0  0  0
    7.1450   -0.3510   21.1830 N   0  0  0  0  0  0  0  0  0  0  0  0
   13.5080   -3.1770   20.6870 N   0  0  0  0  0  0  0  0  0  0  0  0
    8.2530    0.2240   21.7560 C   0  0  0  0  0  0  0  0  0  0  0  0
    8.6670   -0.4240   22.8030 C   0  0  0  0  0  0  0  0  0  0  0  0
   12.9740   -2.2050   21.4460 C   0  0  0  0  0  0  0  0  0  0  0  0
    3.5290    2.3130   19.0810 N   0  0  0  0  0  0  0  0  0  0  0  0
    6.4070    0.4630   17.6870 N   0  0  0  0  0  0  0  0  0  0  0  0
    6.9960   -0.0520   18.7690 C   0  0  0  0  0  0  0  0  0  0  0  0
    6.5440    0.1510   20.0660 C   0  0  0  0  0  0  0  0  0  0  0  0
    5.2670    1.0130   20.3140 C   0  0  0  0  0  0  0  0  0  0  0  0
    4.6410    1.5420   19.2000 C   0  0  0  0  0  0  0  0  0  0  0  0
    5.1940    1.2930   17.8230 C   0  0  0  0  0  0  0  0  0  0  0  0
   10.7660    0.6700   23.7210 C   0  0  0  0  0  0  0  0  0  0  0  0
   12.1400    0.6840   23.7450 C   0  0  0  0  0  0  0  0  0  0  0  0
   12.9930   -0.3030   22.9650 C   0  0  0  0  0  0  0  0  0  0  0  0
   12.3130   -1.2300   22.2220 C   0  0  0  0  0  0  0  0  0  0  0  0
   10.9140   -1.2710   22.1750 C   0  0  0  0  0  0  0  0  0  0  0  0
   10.1510   -0.3420   22.9040 C   0  0  0  0  0  0  0  0  0  0  0  0
  2  5  2  0
  3  5  1  0
  5  6  1  0
  4  7  3  0
  9 10  2  0
  3 11  1  0
 10 11  1  0
  1 12  1  0
 11 12  2  0
  8 13  1  0
 12 13  1  0
  9 14  1  0
 13 14  2  0
 15 16  2  0
 16 17  1  0
  7 18  1  0
 17 18  2  0
 18 19  1  0
  6 20  1  0
 15 20  1  0
 19 20  2  0
M  END
