x2572-x2649
     RDKit          3D

 20 21  0  0  0  0  0  0  0  0999 V2000
    4.8650    1.3030   21.7570 C   0  0  0  0  0  0  0  0  0  0  0  0
    8.9420    1.4160   21.2590 O   0  0  0  0  0  0  0  0  0  0  0  0
    7.2130   -0.4040   21.2470 N   0  0  0  0  0  0  0  0  0  0  0  0
   13.9380   -1.6090   20.4580 N   0  0  0  0  0  0  0  0  0  0  0  0
    8.2590    0.2760   21.8440 C   0  0  0  0  0  0  0  0  0  0  0  0
    8.5970   -0.1920   23.0210 C   0  0  1  0  0  0  0  0  0  0  0  0
   13.1960   -1.3980   21.4970 C   0  0  0  0  0  0  0  0  0  0  0  0
    7.9720   -1.4220   23.2710 C   0  0  0  0  0  0  0  0  0  0  0  0
    6.2940    0.4940   17.6740 N   0  0  0  0  0  0  0  0  0  0  0  0
    7.0100   -0.1180   18.7340 C   0  0  0  0  0  0  0  0  0  0  0  0
    6.5120    0.1700   20.1730 C   0  0  0  0  0  0  0  0  0  0  0  0
    5.4030    0.9850   20.3920 C   0  0  0  0  0  0  0  0  0  0  0  0
    4.6670    1.6130   19.2180 C   0  0  0  0  0  0  0  0  0  0  0  0
    5.1430    1.3470   17.9470 C   0  0  0  0  0  0  0  0  0  0  0  0
   10.6440   -0.1660   24.6280 C   0  0  0  0  0  0  0  0  0  0  0  0
   12.1430   -0.3780   24.8850 C   0  0  0  0  0  0  0  0  0  0  0  0
   12.9020   -0.7750   23.8420 C   0  0  0  0  0  0  0  0  0  0  0  0
   12.3380   -0.9810   22.6030 C   0  0  0  0  0  0  0  0  0  0  0  0
   10.9750   -0.7980   22.3660 C   0  0  0  0  0  0  0  0  0  0  0  0
   10.1180   -0.3870   23.3700 C   0  0  0  0  0  0  0  0  0  0  0  0
  2  5  2  0
  3  5  1  0
  5  6  1  0
  4  7  3  0
  6  8  1  6
  9 10  2  0
  3 11  1  0
 10 11  1  0
  1 12  1  0
 11 12  2  0
 12 13  1  0
  9 14  1  0
 13 14  2  0
 15 16  2  0
 16 17  1  0
  7 18  1  0
 17 18  2  0
 18 19  1  0
  6 20  1  0
 15 20  1  0
 19 20  2  0
M  END
