x2572-x1358
     RDKit          3D

 39 42  0  0  0  0  0  0  0  0999 V2000
    6.7960   -2.6940   25.9050 N   0  0  0  0  0  0  0  0  0  0  0  0
    5.3580   -0.2090   25.4050 O   0  0  0  0  0  0  0  0  0  0  0  0
    4.5930   -3.3870   25.5990 O   0  0  0  0  0  0  0  0  0  0  0  0
    5.1180   -4.3230   19.7450 O   0  0  0  0  0  0  0  0  0  0  0  0
    5.7240   -3.1840   25.1690 C   0  0  0  0  0  0  0  0  0  0  0  0
    6.2070   -3.8780   20.0480 C   0  0  0  0  0  0  0  0  0  0  0  0
    7.1050   -3.1760   19.0690 C   0  0  0  0  0  0  0  0  0  0  0  0
    4.7940    1.0340   21.6700 C   0  0  0  0  0  0  0  0  0  0  0  0
    8.7850    1.2510   21.2310 O   0  0  0  0  0  0  0  0  0  0  0  0
    7.2220   -0.4520   21.1250 N   0  0  0  0  0  0  0  0  0  0  0  0
   13.5100   -3.1240   20.7370 N   0  0  0  0  0  0  0  0  0  0  0  0
    8.2610    0.2280   21.7260 C   0  0  0  0  0  0  0  0  0  0  0  0
    8.7450   -0.2450   22.9490 C   0  0  0  0  0  0  0  0  0  0  0  0
   12.9780   -2.1570   21.4750 C   0  0  0  0  0  0  0  0  0  0  0  0
    6.5540   -1.5410   21.7300 C   0  0  0  0  0  0  0  0  0  0  0  0
    6.0480   -0.4060   26.5730 C   0  0  0  0  0  0  0  0  0  0  0  0
    6.7470   -1.6100   26.8180 C   0  0  0  0  0  0  0  0  0  0  0  0
    7.4140   -1.7060   28.0410 C   0  0  0  0  0  0  0  0  0  0  0  0
    7.4230   -0.6030   29.1010 C   0  0  0  0  0  0  0  0  0  0  0  0
    6.7140    0.5360   28.7840 C   0  0  0  0  0  0  0  0  0  0  0  0
    6.0390    0.6360   27.5440 C   0  0  0  0  0  0  0  0  0  0  0  0
    6.7170   -4.0190   21.3130 N   0  0  0  0  0  0  0  0  0  0  0  0
    7.3780   -2.8270   22.0050 C   0  0  2  0  0  0  0  0  0  0  0  0
    7.2680   -3.0280   23.3720 C   0  0  0  0  0  0  0  0  0  0  0  0
    6.0150   -3.4690   23.6850 C   0  0  1  0  0  0  0  0  0  0  0  0
    5.7380   -4.7840   23.3040 C   0  0  0  0  0  0  0  0  0  0  0  0
    6.3130   -5.2070   22.0820 C   0  0  0  0  0  0  0  0  0  0  0  0
    6.3520    0.6250   17.6570 N   0  0  0  0  0  0  0  0  0  0  0  0
    6.9460    0.0730   18.7080 C   0  0  0  0  0  0  0  0  0  0  0  0
    6.5060    0.1740   19.9970 C   0  0  0  0  0  0  0  0  0  0  0  0
    5.3500    0.8840   20.2840 C   0  0  0  0  0  0  0  0  0  0  0  0
    4.6780    1.4880   19.2060 C   0  0  0  0  0  0  0  0  0  0  0  0
    5.2320    1.3240   17.9180 C   0  0  0  0  0  0  0  0  0  0  0  0
   10.9010    0.7480   23.6590 C   0  0  0  0  0  0  0  0  0  0  0  0
   12.2770    0.7640   23.6440 C   0  0  0  0  0  0  0  0  0  0  0  0
   12.9870   -0.1870   22.9310 C   0  0  0  0  0  0  0  0  0  0  0  0
   12.3070   -1.1690   22.2250 C   0  0  0  0  0  0  0  0  0  0  0  0
   10.9300   -1.1910   22.2330 C   0  0  0  0  0  0  0  0  0  0  0  0
   10.2280   -0.2330   22.9470 C   0  0  0  0  0  0  0  0  0  0  0  0
  1  5  1  0
  3  5  2  0
  4  6  2  0
  6  7  1  0
  9 12  2  0
 10 12  1  0
 12 13  1  0
 11 14  3  0
 10 15  1  0
  2 16  1  0
  1 17  1  0
 16 17  2  0
 17 18  1  0
 18 19  2  0
 19 20  1  0
 16 21  1  0
 20 21  2  0
  6 22  1  0
 23 15  1  1
 22 23  1  0
 23 24  1  0
 25  5  1  1
 24 25  1  0
 25 26  1  0
 22 27  1  0
 26 27  1  0
 28 29  2  0
 10 30  1  0
 29 30  1  0
  8 31  1  0
 30 31  2  0
 31 32  1  0
 28 33  1  0
 32 33  2  0
 34 35  2  0
 35 36  1  0
 14 37  1  0
 36 37  2  0
 37 38  1  0
 13 39  1  0
 34 39  1  0
 38 39  2  0
M  END
