x2572-x0770
     RDKit          3D

 29 32  0  0  0  0  0  0  0  0999 V2000
    4.9250    1.0570   21.7720 C   0  0  0  0  0  0  0  0  0  0  0  0
    8.8580    1.4830   21.1360 O   0  0  0  0  0  0  0  0  0  0  0  0
    7.2900   -0.4940   20.9130 N   0  0  0  0  0  0  0  0  0  0  0  0
   13.5810   -3.2630   20.6420 N   0  0  0  0  0  0  0  0  0  0  0  0
    8.3180    0.2100   21.5630 C   0  0  0  0  0  0  0  0  0  0  0  0
    8.7870   -0.3910   22.6470 C   0  0  2  0  0  0  0  0  0  0  0  0
   13.0720   -2.2600   21.3760 C   0  0  0  0  0  0  0  0  0  0  0  0
    7.3050   -2.9450   18.8980 C   0  0  0  0  0  0  0  0  0  0  0  0
    5.3170   -4.0050   19.6820 O   0  0  0  0  0  0  0  0  0  0  0  0
    6.3030   -3.3060   19.9520 C   0  0  0  0  0  0  0  0  0  0  0  0
    9.3020   -2.8180   24.0870 C   0  0  0  0  0  0  0  0  0  0  0  0
    6.2200    0.5970   17.6210 N   0  0  0  0  0  0  0  0  0  0  0  0
    6.9690   -0.0430   18.5370 C   0  0  0  0  0  0  0  0  0  0  0  0
    6.4650    0.1630   19.9420 C   0  0  0  0  0  0  0  0  0  0  0  0
    5.3490    0.9060   20.3510 C   0  0  0  0  0  0  0  0  0  0  0  0
    4.6360    1.5280   19.3180 C   0  0  0  0  0  0  0  0  0  0  0  0
    5.1480    1.3340   17.8900 C   0  0  0  0  0  0  0  0  0  0  0  0
   10.7710    0.6350   23.5860 C   0  0  0  0  0  0  0  0  0  0  0  0
   12.1590    0.7420   23.7350 C   0  0  0  0  0  0  0  0  0  0  0  0
   12.9610   -0.1700   23.0410 C   0  0  0  0  0  0  0  0  0  0  0  0
   12.3800   -1.1400   22.2410 C   0  0  0  0  0  0  0  0  0  0  0  0
   11.0370   -1.2180   22.1140 C   0  0  0  0  0  0  0  0  0  0  0  0
   10.2080   -0.3370   22.7760 C   0  0  0  0  0  0  0  0  0  0  0  0
    6.5390   -2.9220   21.2860 N   0  0  0  0  0  0  0  0  0  0  0  0
    7.0280   -1.5980   21.7310 C   0  0  1  0  0  0  0  0  0  0  0  0
    8.2020   -1.7370   22.3970 C   0  0  2  0  0  0  0  0  0  0  0  0
    8.1230   -2.4890   23.4860 N   0  0  0  0  0  0  0  0  0  0  0  0
    7.1840   -3.4640   23.4870 C   0  0  0  0  0  0  0  0  0  0  0  0
    6.7540   -3.8660   22.2090 C   0  0  0  0  0  0  0  0  0  0  0  0
  2  5  2  0
  3  5  1  0
  5  6  1  0
  4  7  3  0
  8 10  1  0
  9 10  2  0
 12 13  2  0
  3 14  1  0
 13 14  1  0
  1 15  1  0
 14 15  2  0
 15 16  1  0
 12 17  1  0
 16 17  2  0
 18 19  2  0
 19 20  1  0
  7 21  1  0
 20 21  2  0
 21 22  1  0
  6 23  1  6
 18 23  1  0
 22 23  2  0
 10 24  1  0
 25  3  1  6
 24 25  1  0
  6 26  1  0
 25 26  1  0
 11 27  1  0
 26 27  1  1
 27 28  1  0
 24 29  1  0
 28 29  1  0
M  END
