x2572-x0072
     RDKit          3D

 25 26  0  0  0  0  0  0  0  0999 V2000
    4.8310    1.1640   21.7600 C   0  0  0  0  0  0  0  0  0  0  0  0
    8.8760    0.8200   21.9680 O   0  0  0  0  0  0  0  0  0  0  0  0
    7.1030   -0.8050   21.3670 N   0  0  0  0  0  0  0  0  0  0  0  0
   14.0960   -1.3490   20.2670 N   0  0  0  0  0  0  0  0  0  0  0  0
    8.2850   -0.4910   22.0250 C   0  0  0  0  0  0  0  0  0  0  0  0
    8.8670   -1.4970   22.6880 C   0  0  2  0  0  0  0  0  0  0  0  0
   13.3830   -1.2900   21.3470 C   0  0  0  0  0  0  0  0  0  0  0  0
    6.5810   -4.9880   25.8590 C   0  0  0  0  0  0  0  0  0  0  0  0
    8.2260   -4.3420   25.6610 S   0  0  0  0  0  0  0  0  0  0  0  0
    9.1590   -5.4420   25.7450 O   0  0  0  0  0  0  0  0  0  0  0  0
    8.4640   -3.3580   26.6740 O   0  0  0  0  0  0  0  0  0  0  0  0
    8.2580   -3.6120   24.0980 N   0  0  0  0  0  0  0  0  0  0  0  0
    8.0250   -2.1920   23.8720 C   0  0  0  0  0  0  0  0  0  0  0  0
    6.4590    0.3290   17.8940 N   0  0  0  0  0  0  0  0  0  0  0  0
    6.9600   -0.2920   18.9890 C   0  0  0  0  0  0  0  0  0  0  0  0
    6.4560   -0.0480   20.2590 C   0  0  0  0  0  0  0  0  0  0  0  0
    5.3170    0.9490   20.3650 C   0  0  0  0  0  0  0  0  0  0  0  0
    4.8050    1.5790   19.2360 C   0  0  0  0  0  0  0  0  0  0  0  0
    5.3350    1.3120   17.9650 C   0  0  0  0  0  0  0  0  0  0  0  0
   10.6040   -0.6300   24.4600 C   0  0  0  0  0  0  0  0  0  0  0  0
   11.9260   -0.3720   24.7050 C   0  0  0  0  0  0  0  0  0  0  0  0
   12.8650   -0.5710   23.7250 C   0  0  0  0  0  0  0  0  0  0  0  0
   12.5160   -1.0370   22.4930 C   0  0  0  0  0  0  0  0  0  0  0  0
   11.1920   -1.3160   22.2290 C   0  0  0  0  0  0  0  0  0  0  0  0
   10.2600   -1.1160   23.1900 C   0  0  0  0  0  0  0  0  0  0  0  0
  2  5  2  0
  3  5  1  0
  5  6  1  0
  4  7  3  0
  8  9  1  0
  9 10  2  0
  9 11  2  0
  9 12  1  0
  6 13  1  1
 12 13  1  0
 14 15  2  0
  3 16  1  0
 15 16  1  0
  1 17  1  0
 16 17  2  0
 17 18  1  0
 14 19  1  0
 18 19  2  0
 20 21  2  0
 21 22  1  0
  7 23  1  0
 22 23  2  0
 23 24  1  0
  6 25  1  0
 20 25  1  0
 24 25  2  0
M  END
