x2572-x0195
     RDKit          3D

 28 31  0  0  0  0  0  0  0  0999 V2000
    5.0370    1.2390   21.8440 C   0  0  0  0  0  0  0  0  0  0  0  0
    8.8140    1.7880   20.8980 O   0  0  0  0  0  0  0  0  0  0  0  0
    7.4870   -0.2870   21.1470 N   0  0  0  0  0  0  0  0  0  0  0  0
   13.5090   -3.3270   20.9930 N   0  0  0  0  0  0  0  0  0  0  0  0
    8.4950    0.5730   21.5640 C   0  0  0  0  0  0  0  0  0  0  0  0
    9.1740    0.3030   22.6240 C   0  0  2  0  0  0  0  0  0  0  0  0
   13.0450   -2.2390   21.6350 C   0  0  0  0  0  0  0  0  0  0  0  0
   10.2260    4.3280   23.4280 S   0  0  0  0  0  0  0  0  0  0  0  0
    9.7600    4.9170   24.6610 O   0  0  0  0  0  0  0  0  0  0  0  0
    9.2140    4.5050   22.4300 O   0  0  0  0  0  0  0  0  0  0  0  0
   11.6360    5.1460   22.9530 N   0  0  0  0  0  0  0  0  0  0  0  0
    6.3140    0.3450   17.7290 N   0  0  0  0  0  0  0  0  0  0  0  0
    7.0370   -0.1000   18.7550 C   0  0  0  0  0  0  0  0  0  0  0  0
    6.7230    0.1390   20.0870 C   0  0  0  0  0  0  0  0  0  0  0  0
    5.4350    0.9600   20.4300 C   0  0  0  0  0  0  0  0  0  0  0  0
    4.6540    1.4400   19.3900 C   0  0  0  0  0  0  0  0  0  0  0  0
    5.0980    1.1390   17.9720 C   0  0  0  0  0  0  0  0  0  0  0  0
   11.7620    0.9290   22.8490 C   0  0  2  0  0  0  0  0  0  0  0  0
   11.9320    0.7670   24.1030 C   0  0  2  0  0  0  0  0  0  0  0  0
   12.6950   -0.3690   23.2780 C   0  0  1  0  0  0  0  0  0  0  0  0
   12.4480   -1.0690   22.1150 C   0  0  2  0  0  0  0  0  0  0  0  0
   11.0940   -1.1380   21.9930 C   0  0  0  0  0  0  0  0  0  0  0  0
   10.6500    0.0470   22.4530 C   0  0  0  0  0  0  0  0  0  0  0  0
   11.0750    1.5440   23.4380 C   0  0  0  0  0  0  0  0  0  0  0  0
   10.5590    2.6060   23.6690 C   0  0  0  0  0  0  0  0  0  0  0  0
   10.3390    1.4590   24.4480 C   0  0  0  0  0  0  0  0  0  0  0  0
    9.0640   -1.2180   24.5160 C   0  0  0  0  0  0  0  0  0  0  0  0
    8.4890   -0.8350   23.2970 C   0  0  0  0  0  0  0  0  0  0  0  0
  2  5  2  0
  3  5  1  0
  5  6  1  0
  4  7  3  0
  8  9  2  0
  8 10  2  0
  8 11  1  0
 12 13  2  0
  3 14  1  0
 13 14  1  0
  1 15  1  0
 14 15  2  0
 15 16  1  0
 12 17  1  0
 16 17  2  0
 18 19  1  0
 18 20  1  0
 19 20  1  0
 21  7  1  1
 20 21  1  1
 21 22  1  0
  6 23  1  0
 18 23  1  0
 22 23  2  0
 18 24  1  6
  8 25  1  0
 24 25  2  0
 19 26  1  1
 25 26  1  0
  6 28  1  6
 27 28  1  0
M  END
