x2572-x1336
     RDKit          3D

 40 45  0  0  0  0  0  0  0  0999 V2000
    6.1000   -5.4990   29.0890 C   0  0  0  0  0  0  0  0  0  0  0  0
    8.4340   -1.0960   24.7960 N   0  0  0  0  0  0  0  0  0  0  0  0
    6.1600   -1.0680   25.7860 O   0  0  0  0  0  0  0  0  0  0  0  0
    5.3780   -4.1350   19.7300 O   0  0  0  0  0  0  0  0  0  0  0  0
    9.7830   -3.5180   24.9360 C   0  0  0  0  0  0  0  0  0  0  0  0
    6.4610   -3.5960   19.9680 C   0  0  0  0  0  0  0  0  0  0  0  0
    7.4150   -3.0880   18.9090 C   0  0  0  0  0  0  0  0  0  0  0  0
    7.0980   -1.9510   25.1330 S   0  0  2  0  0  0  0  0  0  0  0  0
    4.6570    1.3690   21.8150 C   0  0  0  0  0  0  0  0  0  0  0  0
    8.6530    1.2970   21.1370 O   0  0  0  0  0  0  0  0  0  0  0  0
    7.0910   -0.3430   21.9280 N   0  0  0  0  0  0  0  0  0  0  0  0
   13.6640   -2.9980   20.6100 N   0  0  0  0  0  0  0  0  0  0  0  0
    8.3050    0.4400   21.9780 C   0  0  0  0  0  0  0  0  0  0  0  0
    9.0170    0.1050   23.0870 C   0  0  1  0  0  0  0  0  0  0  0  0
   13.2080   -2.0380   21.3700 C   0  0  0  0  0  0  0  0  0  0  0  0
    8.6600   -1.1540   23.4400 C   0  0  2  0  0  0  0  0  0  0  0  0
    7.0400   -4.9750   28.0050 C   0  0  0  0  0  0  0  0  0  0  0  0
    6.6070   -3.8850   27.2450 C   0  0  0  0  0  0  0  0  0  0  0  0
    7.5380   -3.3550   26.1630 C   0  0  0  0  0  0  0  0  0  0  0  0
    8.7810   -3.9700   25.9720 C   0  0  0  0  0  0  0  0  0  0  0  0
    9.1870   -5.0590   26.7430 C   0  0  0  0  0  0  0  0  0  0  0  0
    8.2870   -5.5630   27.7810 C   0  0  0  0  0  0  0  0  0  0  0  0
    6.9680   -3.4470   21.3250 N   0  0  0  0  0  0  0  0  0  0  0  0
    6.2860   -4.0400   22.4480 C   0  0  0  0  0  0  0  0  0  0  0  0
    5.7040   -3.0860   23.2450 C   0  0  0  0  0  0  0  0  0  0  0  0
    6.6140   -2.1320   23.5080 N   0  0  0  0  0  0  0  0  0  0  0  0
    7.4280   -1.5930   22.5090 C   0  0  1  0  0  0  0  0  0  0  0  0
    7.9540   -2.6020   21.6880 C   0  0  0  0  0  0  0  0  0  0  0  0
    6.4170   -0.0380   18.1060 N   0  0  0  0  0  0  0  0  0  0  0  0
    6.9860   -0.4010   19.4140 C   0  0  0  0  0  0  0  0  0  0  0  0
    6.4620    0.0170   20.6700 C   0  0  0  0  0  0  0  0  0  0  0  0
    5.3110    0.8380   20.5850 C   0  0  0  0  0  0  0  0  0  0  0  0
    4.7100    1.2220   19.3650 C   0  0  0  0  0  0  0  0  0  0  0  0
    5.2410    0.8030   18.1620 C   0  0  0  0  0  0  0  0  0  0  0  0
   11.1770    1.1860   23.4530 C   0  0  0  0  0  0  0  0  0  0  0  0
   12.5280    1.2600   23.3400 C   0  0  0  0  0  0  0  0  0  0  0  0
   13.2720    0.1640   22.6450 C   0  0  0  0  0  0  0  0  0  0  0  0
   12.5820   -0.8960   22.1300 C   0  0  0  0  0  0  0  0  0  0  0  0
   11.0900   -1.0190   22.2380 C   0  0  0  0  0  0  0  0  0  0  0  0
   10.4480    0.1380   22.9520 C   0  0  0  0  0  0  0  0  0  0  0  0
  4  6  2  0
  6  7  1  0
  2  8  2  0
  3  8  2  0
 10 13  2  0
 11 13  1  0
 13 14  1  0
 12 15  3  0
 16  2  1  1
 14 16  1  0
  1 17  1  0
 17 18  2  0
  8 19  1  1
 18 19  1  0
  5 20  1  0
 19 20  2  0
 20 21  1  0
 17 22  1  0
 21 22  2  0
  6 23  1  0
 23 24  1  0
 24 25  1  0
  8 26  1  0
 25 26  1  0
 27 11  1  0
 16 27  1  0
 26 27  1  0
 23 28  1  0
 27 28  1  6
 29 30  2  0
 11 31  1  0
 30 31  1  0
  9 32  1  0
 31 32  2  0
 32 33  1  0
 29 34  1  0
 33 34  2  0
 35 36  2  0
 36 37  1  0
 15 38  1  0
 37 38  2  0
 38 39  1  0
 14 40  1  6
 35 40  1  0
 39 40  2  0
M  END
