x2572-x2754
     RDKit          3D

 39 42  0  0  0  0  0  0  0  0999 V2000
    5.0400   -3.3070   25.2470 C   0  0  0  0  0  0  0  0  0  0  0  0
    3.9140   -2.9860   24.8510 O   0  0  0  0  0  0  0  0  0  0  0  0
    5.4980   -3.1610   26.5500 N   0  0  0  0  0  0  0  0  0  0  0  0
    5.1690   -4.5060   19.8490 O   0  0  0  0  0  0  0  0  0  0  0  0
    6.1600   -3.8860   20.1910 C   0  0  0  0  0  0  0  0  0  0  0  0
    7.0830   -3.1490   19.2290 C   0  0  0  0  0  0  0  0  0  0  0  0
    4.8390   -2.1660   27.3940 C   0  0  0  0  0  0  0  0  0  0  0  0
    4.8040    1.2470   21.5960 C   0  0  0  0  0  0  0  0  0  0  0  0
    8.6550    1.3130   21.1830 O   0  0  0  0  0  0  0  0  0  0  0  0
    7.1190   -0.5420   21.0330 N   0  0  0  0  0  0  0  0  0  0  0  0
   13.6410   -3.3660   20.6170 N   0  0  0  0  0  0  0  0  0  0  0  0
    8.1680    0.2650   21.6670 C   0  0  0  0  0  0  0  0  0  0  0  0
    8.5770   -0.2760   22.8760 C   0  0  0  0  0  0  0  0  0  0  0  0
   13.0560   -2.4050   21.3270 C   0  0  0  0  0  0  0  0  0  0  0  0
    6.3150   -1.5070   21.8100 C   0  0  0  0  0  0  0  0  0  0  0  0
    6.5670   -3.8510   21.5910 N   0  0  0  0  0  0  0  0  0  0  0  0
    7.0890   -2.7700   22.2450 C   0  0  2  0  0  0  0  0  0  0  0  0
    6.9150   -2.7980   23.6640 C   0  0  0  0  0  0  0  0  0  0  0  0
    6.0730   -3.9330   24.2960 C   0  0  2  0  0  0  0  0  0  0  0  0
    5.3490   -4.7430   23.4460 C   0  0  0  0  0  0  0  0  0  0  0  0
    6.1160   -5.0230   22.3520 C   0  0  0  0  0  0  0  0  0  0  0  0
    7.1600   -4.9630   26.6320 C   0  0  0  0  0  0  0  0  0  0  0  0
    8.3770   -5.4480   27.0930 C   0  0  0  0  0  0  0  0  0  0  0  0
    9.1990   -4.7290   27.9230 C   0  0  0  0  0  0  0  0  0  0  0  0
    8.7500   -3.4700   28.2940 C   0  0  0  0  0  0  0  0  0  0  0  0
    7.5450   -2.9430   27.8560 C   0  0  0  0  0  0  0  0  0  0  0  0
    6.7360   -3.6860   27.0140 C   0  0  0  0  0  0  0  0  0  0  0  0
    6.3070    0.5850   17.6340 N   0  0  0  0  0  0  0  0  0  0  0  0
    6.8850   -0.0300   18.6770 C   0  0  0  0  0  0  0  0  0  0  0  0
    6.4640    0.1290   19.9900 C   0  0  0  0  0  0  0  0  0  0  0  0
    5.3770    0.9720   20.2350 C   0  0  0  0  0  0  0  0  0  0  0  0
    4.7770    1.6040   19.1600 C   0  0  0  0  0  0  0  0  0  0  0  0
    5.2620    1.3930   17.8890 C   0  0  0  0  0  0  0  0  0  0  0  0
   10.7770    0.6660   23.6240 C   0  0  0  0  0  0  0  0  0  0  0  0
   12.2900    0.6570   23.6290 C   0  0  0  0  0  0  0  0  0  0  0  0
   12.9790   -0.3000   22.9160 C   0  0  0  0  0  0  0  0  0  0  0  0
   12.2620   -1.3840   22.0970 C   0  0  0  0  0  0  0  0  0  0  0  0
   10.7520   -1.3930   22.0790 C   0  0  0  0  0  0  0  0  0  0  0  0
   10.0590   -0.3060   22.8860 C   0  0  0  0  0  0  0  0  0  0  0  0
  1  2  2  0
  1  3  1  0
  4  5  2  0
  5  6  1  0
  3  7  1  0
  9 12  2  0
 10 12  1  0
 12 13  1  0
 11 14  3  0
 10 15  1  0
  5 16  1  0
 17 15  1  6
 16 17  1  0
 17 18  1  0
 19  1  1  1
 18 19  1  0
 19 20  1  0
 16 21  1  0
 20 21  1  0
 22 23  2  0
 23 24  1  0
 24 25  2  0
 25 26  1  0
  3 27  1  0
 22 27  1  0
 26 27  2  0
 28 29  2  0
 10 30  1  0
 29 30  1  0
  8 31  1  0
 30 31  2  0
 31 32  1  0
 28 33  1  0
 32 33  2  0
 34 35  2  0
 35 36  1  0
 14 37  1  0
 36 37  2  0
 37 38  1  0
 13 39  1  0
 34 39  1  0
 38 39  2  0
M  END
