x2572-x2119
     RDKit          3D

 26 28  0  0  0  0  0  0  0  0999 V2000
    4.6970    1.3690   21.6250 C   0  0  0  0  0  0  0  0  0  0  0  0
    8.8110    1.3870   21.2940 O   0  0  0  0  0  0  0  0  0  0  0  0
    7.0790   -0.4050   21.2540 N   0  0  0  0  0  0  0  0  0  0  0  0
   13.5890   -3.1830   20.6580 N   0  0  0  0  0  0  0  0  0  0  0  0
    8.1780    0.1800   21.8020 C   0  0  0  0  0  0  0  0  0  0  0  0
    8.6460   -0.4490   22.8220 C   0  0  0  0  0  0  0  0  0  0  0  0
   13.0610   -2.2040   21.4090 C   0  0  0  0  0  0  0  0  0  0  0  0
    5.8530   -5.4060   20.0540 N   0  0  0  0  0  0  0  0  0  0  0  0
    6.4520   -4.2790   20.0840 C   0  0  0  0  0  0  0  0  0  0  0  0
    6.3620    0.5700   17.6880 N   0  0  0  0  0  0  0  0  0  0  0  0
    6.9200   -0.0040   18.7570 C   0  0  0  0  0  0  0  0  0  0  0  0
    6.4270    0.2070   20.1820 C   0  0  0  0  0  0  0  0  0  0  0  0
    5.3420    1.0280   20.3170 C   0  0  0  0  0  0  0  0  0  0  0  0
    4.7340    1.6570   19.0630 C   0  0  0  0  0  0  0  0  0  0  0  0
    5.1880    1.4800   17.7380 C   0  0  0  0  0  0  0  0  0  0  0  0
   10.7710    0.6880   23.7130 C   0  0  0  0  0  0  0  0  0  0  0  0
   12.2770    0.7210   23.7010 C   0  0  0  0  0  0  0  0  0  0  0  0
   12.9930   -0.1830   22.9810 C   0  0  0  0  0  0  0  0  0  0  0  0
   12.3530   -1.1700   22.2320 C   0  0  0  0  0  0  0  0  0  0  0  0
   10.9580   -1.2160   22.2220 C   0  0  0  0  0  0  0  0  0  0  0  0
   10.1890   -0.3040   22.9440 C   0  0  0  0  0  0  0  0  0  0  0  0
    6.1920   -3.3560   21.1520 C   0  0  0  0  0  0  0  0  0  0  0  0
    5.5500   -3.5390   22.2510 N   0  0  0  0  0  0  0  0  0  0  0  0
    5.6610   -2.3380   22.7740 C   0  0  0  0  0  0  0  0  0  0  0  0
    6.3420   -1.2070   22.1690 C   0  0  0  0  0  0  0  0  0  0  0  0
    6.6470   -2.0850   21.0710 N   0  0  0  0  0  0  0  0  0  0  0  0
  2  5  2  0
  3  5  1  0
  5  6  1  0
  4  7  3  0
  8  9  2  3
 10 11  2  0
  3 12  1  0
 11 12  1  0
  1 13  1  0
 12 13  2  0
 13 14  1  0
 10 15  1  0
 14 15  2  0
 16 17  2  0
 17 18  1  0
  7 19  1  0
 18 19  2  0
 19 20  1  0
  6 21  1  0
 16 21  1  0
 20 21  2  0
  9 22  1  0
 22 23  1  0
 23 24  1  0
  3 25  1  0
 24 25  2  0
 22 26  2  0
 25 26  1  0
M  END
