x2572-x0540
     RDKit          3D

 30 32  0  0  0  0  0  0  0  0999 V2000
    4.3720    0.8300   21.5840 C   0  0  0  0  0  0  0  0  0  0  0  0
    8.7140    1.1930   21.2210 O   0  0  0  0  0  0  0  0  0  0  0  0
    7.0260   -0.4410   21.1300 N   0  0  0  0  0  0  0  0  0  0  0  0
   13.5820   -3.1770   20.6550 N   0  0  0  0  0  0  0  0  0  0  0  0
    8.1410    0.1670   21.6470 C   0  0  0  0  0  0  0  0  0  0  0  0
    8.6970   -0.5700   22.9000 C   0  0  0  0  0  0  0  0  0  0  0  0
   13.0360   -2.1840   21.4180 C   0  0  0  0  0  0  0  0  0  0  0  0
    2.8900    1.8380   24.0740 O   0  0  0  0  0  0  0  0  0  0  0  0
    3.0560    2.7160   23.2210 C   0  0  0  0  0  0  0  0  0  0  0  0
    4.4070    2.7380   23.0460 N   0  0  0  0  0  0  0  0  0  0  0  0
    5.1030    1.5880   22.6510 C   0  0  0  0  0  0  0  0  0  0  0  0
    1.7980    3.1700   22.9420 N   0  0  0  0  0  0  0  0  0  0  0  0
    6.3800    0.6940   17.6800 N   0  0  0  0  0  0  0  0  0  0  0  0
    6.8870    0.1510   18.7830 C   0  0  0  0  0  0  0  0  0  0  0  0
    6.3410    0.1620   20.0300 C   0  0  0  0  0  0  0  0  0  0  0  0
    5.1030    0.7700   20.2580 C   0  0  0  0  0  0  0  0  0  0  0  0
    4.4590    1.4180   19.0260 C   0  0  0  0  0  0  0  0  0  0  0  0
    5.1850    1.3190   17.8240 C   0  0  0  0  0  0  0  0  0  0  0  0
   10.7730    0.6380   23.7120 C   0  0  0  0  0  0  0  0  0  0  0  0
   12.1450    0.7710   23.7260 C   0  0  0  0  0  0  0  0  0  0  0  0
   12.9490   -0.0970   23.0100 C   0  0  0  0  0  0  0  0  0  0  0  0
   12.3400   -1.1590   22.2420 C   0  0  0  0  0  0  0  0  0  0  0  0
   10.9720   -1.2290   22.2730 C   0  0  0  0  0  0  0  0  0  0  0  0
   10.1790   -0.3660   22.9780 C   0  0  0  0  0  0  0  0  0  0  0  0
    0.7340    4.4840   24.3480 C   0  0  0  0  0  0  0  0  0  0  0  0
   -0.4000    4.8580   25.0640 C   0  0  0  0  0  0  0  0  0  0  0  0
   -1.5780    4.5180   24.4090 C   0  0  0  0  0  0  0  0  0  0  0  0
   -1.6650    3.1880   23.9470 C   0  0  0  0  0  0  0  0  0  0  0  0
   -0.5120    2.8120   23.2300 C   0  0  0  0  0  0  0  0  0  0  0  0
    0.7290    3.1840   23.7940 C   0  0  0  0  0  0  0  0  0  0  0  0
  2  5  2  0
  3  5  1  0
  5  6  1  0
  4  7  3  0
  8  9  2  0
  9 10  1  0
  1 11  1  0
 10 11  1  0
  9 12  1  0
 13 14  2  0
  3 15  1  0
 14 15  1  0
  1 16  1  0
 15 16  2  0
 16 17  1  0
 13 18  1  0
 17 18  2  0
 19 20  2  0
 20 21  1  0
  7 22  1  0
 21 22  2  0
 22 23  1  0
  6 24  1  0
 19 24  1  0
 23 24  2  0
 25 26  1  0
 26 27  1  0
 27 28  1  0
 28 29  1  0
 12 30  1  0
 25 30  1  0
 29 30  1  0
M  END
