x2572-x2910
     RDKit          3D

 30 33  0  0  0  0  0  0  0  0999 V2000
    7.5200   -1.5500   21.6110 N   0  0  0  0  0  0  0  0  0  0  0  0
   10.2730    2.6050   23.6190 C   0  0  0  0  0  0  0  0  0  0  0  0
   10.0510    1.4260   23.8780 O   0  0  0  0  0  0  0  0  0  0  0  0
    9.3470   -1.1730   22.5870 N   0  0  0  0  0  0  0  0  0  0  0  0
    5.5460   -2.6630   20.7730 O   0  0  0  0  0  0  0  0  0  0  0  0
    6.4540    1.3200   16.7680 O   0  0  0  0  0  0  0  0  0  0  0  0
    9.1370   -2.5290   22.4740 C   0  0  0  0  0  0  0  0  0  0  0  0
    7.8790   -2.7130   22.2650 C   0  0  0  0  0  0  0  0  0  0  0  0
    6.2150   -1.6320   20.8260 C   0  0  0  0  0  0  0  0  0  0  0  0
    3.6070    1.3750   20.6590 C   0  0  0  0  0  0  0  0  0  0  0  0
    8.4370    0.6890   21.3340 O   0  0  0  0  0  0  0  0  0  0  0  0
    8.4190   -0.4600   21.7600 C   0  0  0  0  0  0  0  0  0  0  0  0
   13.6580   -2.7670   20.6960 N   0  0  0  0  0  0  0  0  0  0  0  0
   12.7090   -2.2130   21.3820 C   0  0  0  0  0  0  0  0  0  0  0  0
   11.0090    0.6450   23.2800 C   0  0  0  0  0  0  0  0  0  0  0  0
   10.6360   -0.6920   22.6120 C   0  0  0  0  0  0  0  0  0  0  0  0
   11.4270   -1.6450   21.9420 C   0  0  0  0  0  0  0  0  0  0  0  0
   12.6990   -0.9940   22.0840 C   0  0  0  0  0  0  0  0  0  0  0  0
   13.1900    0.3110   22.7150 C   0  0  0  0  0  0  0  0  0  0  0  0
   12.2940    1.0960   23.2990 C   0  0  0  0  0  0  0  0  0  0  0  0
    4.7760    1.7530   18.5560 N   0  0  0  0  0  0  0  0  0  0  0  0
    4.1660    1.4870   19.7390 C   0  0  0  0  0  0  0  0  0  0  0  0
    4.5900    0.3770   20.5620 C   0  0  0  0  0  0  0  0  0  0  0  0
    5.6320   -0.3670   20.0520 C   0  0  0  0  0  0  0  0  0  0  0  0
    6.2610   -0.1140   18.8470 C   0  0  0  0  0  0  0  0  0  0  0  0
    5.8800    0.9710   18.0040 C   0  0  0  0  0  0  0  0  0  0  0  0
    3.0810    2.3770   20.1130 C   0  0  0  0  0  0  0  0  0  0  0  0
    2.3980    2.1800   21.3140 C   0  0  0  0  0  0  0  0  0  0  0  0
    2.9570    1.1040   21.9100 C   0  0  0  0  0  0  0  0  0  0  0  0
    3.9000    0.1650   21.7970 C   0  0  0  0  0  0  0  0  0  0  0  0
  2  3  1  0
  4  7  1  0
  1  8  1  0
  7  8  1  0
  1  9  1  0
  5  9  2  0
  1 12  1  0
  4 12  1  0
 11 12  2  0
 13 14  3  0
  3 15  1  0
  4 16  1  0
 15 16  2  0
 14 17  1  0
 16 17  1  0
 17 18  2  0
 18 19  1  0
 15 20  1  0
 19 20  2  0
 21 22  2  0
 22 23  1  0
  9 24  1  0
 23 24  2  0
 24 25  1  0
  6 26  1  0
 21 26  1  0
 25 26  2  0
 22 27  1  0
 27 28  2  0
 10 29  1  0
 28 29  1  0
 23 30  1  0
 29 30  2  0
M  END
