x2572-x0434
     RDKit          3D

 19 20  0  0  0  0  0  0  0  0999 V2000
    4.8460    1.2950   21.7580 C   0  0  0  0  0  0  0  0  0  0  0  0
    8.8920    1.4150   21.2450 O   0  0  0  0  0  0  0  0  0  0  0  0
    7.1850   -0.4110   21.1110 N   0  0  0  0  0  0  0  0  0  0  0  0
   13.5290   -3.1420   20.6860 N   0  0  0  0  0  0  0  0  0  0  0  0
    8.2570    0.1980   21.7160 C   0  0  0  0  0  0  0  0  0  0  0  0
    8.6670   -0.4320   22.7790 C   0  0  0  0  0  0  0  0  0  0  0  0
   12.9770   -2.1780   21.4350 C   0  0  0  0  0  0  0  0  0  0  0  0
    6.2610    0.5550   17.6440 N   0  0  0  0  0  0  0  0  0  0  0  0
    6.8630    0.0040   18.7150 C   0  0  0  0  0  0  0  0  0  0  0  0
    6.5340    0.1500   20.0460 C   0  0  0  0  0  0  0  0  0  0  0  0
    5.3140    1.0490   20.3600 C   0  0  0  0  0  0  0  0  0  0  0  0
    4.6670    1.6300   19.2800 C   0  0  0  0  0  0  0  0  0  0  0  0
    5.2020    1.3470   17.8760 C   0  0  0  0  0  0  0  0  0  0  0  0
   10.7640    0.6610   23.7150 C   0  0  0  0  0  0  0  0  0  0  0  0
   12.1440    0.7170   23.7780 C   0  0  0  0  0  0  0  0  0  0  0  0
   12.9480   -0.2930   22.9680 C   0  0  0  0  0  0  0  0  0  0  0  0
   12.2980   -1.2200   22.2080 C   0  0  0  0  0  0  0  0  0  0  0  0
   10.9120   -1.2660   22.1500 C   0  0  0  0  0  0  0  0  0  0  0  0
   10.1490   -0.3460   22.8840 C   0  0  0  0  0  0  0  0  0  0  0  0
  2  5  2  0
  3  5  1  0
  5  6  1  0
  4  7  3  0
  8  9  2  0
  3 10  1  0
  9 10  1  0
  1 11  1  0
 10 11  2  0
 11 12  1  0
  8 13  1  0
 12 13  2  0
 14 15  2  0
 15 16  1  0
  7 17  1  0
 16 17  2  0
 17 18  1  0
  6 19  1  0
 14 19  1  0
 18 19  2  0
M  END
