x2572-x2600
     RDKit          3D

 19 20  0  0  0  0  0  0  0  0999 V2000
    4.8430    1.2510   21.6360 C   0  0  0  0  0  0  0  0  0  0  0  0
    8.7750    1.3330   21.2330 O   0  0  0  0  0  0  0  0  0  0  0  0
    7.1850   -0.3640   21.0690 N   0  0  0  0  0  0  0  0  0  0  0  0
   13.5680   -3.2360   20.6440 N   0  0  0  0  0  0  0  0  0  0  0  0
    8.2160    0.3030   21.6510 C   0  0  0  0  0  0  0  0  0  0  0  0
    8.6980   -0.3630   22.9730 C   0  0  0  0  0  0  0  0  0  0  0  0
   13.0060   -2.2450   21.4010 C   0  0  0  0  0  0  0  0  0  0  0  0
    6.2850    0.5680   17.6650 N   0  0  0  0  0  0  0  0  0  0  0  0
    6.8930    0.0310   18.7170 C   0  0  0  0  0  0  0  0  0  0  0  0
    6.4540    0.2390   20.0100 C   0  0  0  0  0  0  0  0  0  0  0  0
    5.3400    1.0220   20.1960 C   0  0  0  0  0  0  0  0  0  0  0  0
    4.6770    1.5960   19.1420 C   0  0  0  0  0  0  0  0  0  0  0  0
    5.1990    1.3380   17.8790 C   0  0  0  0  0  0  0  0  0  0  0  0
   10.8040    0.7200   23.7490 C   0  0  0  0  0  0  0  0  0  0  0  0
   12.1810    0.7530   23.7230 C   0  0  0  0  0  0  0  0  0  0  0  0
   12.9400   -0.2600   22.9210 C   0  0  0  0  0  0  0  0  0  0  0  0
   12.2840   -1.2230   22.2110 C   0  0  0  0  0  0  0  0  0  0  0  0
   10.9100   -1.2680   22.2240 C   0  0  0  0  0  0  0  0  0  0  0  0
   10.1800   -0.2810   23.0030 C   0  0  0  0  0  0  0  0  0  0  0  0
  2  5  2  0
  3  5  1  0
  5  6  1  0
  4  7  3  0
  8  9  2  0
  3 10  1  0
  9 10  1  0
  1 11  1  0
 10 11  2  0
 11 12  1  0
  8 13  1  0
 12 13  2  0
 14 15  2  0
 15 16  1  0
  7 17  1  0
 16 17  2  0
 17 18  1  0
  6 19  1  0
 14 19  1  0
 18 19  2  0
M  END
