x2581-x0689
     RDKit          3D

 41 45  0  0  0  0  0  0  0  0999 V2000
    9.8910   -2.7180   23.5600 C   0  0  0  0  0  0  0  0  0  0  0  0
   10.3130   -1.4090   23.9840 O   0  0  0  0  0  0  0  0  0  0  0  0
   10.1230    3.3360   22.2550 N   0  0  0  0  0  0  0  0  0  0  0  0
   11.6430    2.9390   23.8290 O   0  0  0  0  0  0  0  0  0  0  0  0
   11.2780    3.7410   22.9970 C   0  0  0  0  0  0  0  0  0  0  0  0
   11.8930    5.0640   22.7100 C   0  0  0  0  0  0  0  0  0  0  0  0
    7.4230   -3.4560   20.0200 C   0  0  0  0  0  0  0  0  0  0  0  0
    5.2010   -4.3360   19.8110 O   0  0  0  0  0  0  0  0  0  0  0  0
    6.2560   -4.3670   20.4280 C   0  0  0  0  0  0  0  0  0  0  0  0
    4.0970   -6.2480   25.8320 O   0  0  0  0  0  0  0  0  0  0  0  0
    5.8220   -4.4520   26.7050 O   0  0  0  0  0  0  0  0  0  0  0  0
    4.8000   -5.0000   25.6200 S   0  0  0  0  0  0  0  0  0  0  0  0
    8.4630   -3.0020   23.0590 C   0  0  0  0  0  0  0  0  0  0  0  0
    7.5560   -3.4020   24.0540 C   0  0  0  0  0  0  0  0  0  0  0  0
    8.8180    1.6250   21.2250 N   0  0  0  0  0  0  0  0  0  0  0  0
    9.6980    1.9410   22.1870 C   0  0  0  0  0  0  0  0  0  0  0  0
   10.2770    0.9390   23.1980 C   0  0  0  0  0  0  0  0  0  0  0  0
    9.8760   -0.4060   23.1320 C   0  0  0  0  0  0  0  0  0  0  0  0
    8.9580   -0.6420   22.0900 C   0  0  0  0  0  0  0  0  0  0  0  0
    8.4630    0.3230   21.2020 C   0  0  0  0  0  0  0  0  0  0  0  0
    9.7920    6.7310   22.8060 C   0  0  0  0  0  0  0  0  0  0  0  0
    9.1210    7.8050   23.3770 C   0  0  0  0  0  0  0  0  0  0  0  0
    9.6240    8.5210   24.4630 C   0  0  0  0  0  0  0  0  0  0  0  0
   10.8710    8.1180   24.9980 C   0  0  0  0  0  0  0  0  0  0  0  0
   11.6340    6.9340   24.3930 C   0  0  0  0  0  0  0  0  0  0  0  0
   11.1410    6.2240   23.3080 C   0  0  0  0  0  0  0  0  0  0  0  0
    8.9300    9.6110   25.0060 C   0  0  0  0  0  0  0  0  0  0  0  0
    9.4570   10.3200   26.0830 C   0  0  0  0  0  0  0  0  0  0  0  0
   10.6680    9.9980   26.6770 C   0  0  0  0  0  0  0  0  0  0  0  0
   11.4260    8.8010   26.0810 C   0  0  0  0  0  0  0  0  0  0  0  0
    6.3920   -5.2690   21.5060 N   0  0  0  0  0  0  0  0  0  0  0  0
    5.1930   -5.9320   21.9260 C   0  0  0  0  0  0  0  0  0  0  0  0
    5.1430   -6.2290   23.2660 C   0  0  0  0  0  0  0  0  0  0  0  0
    5.6000   -5.0660   24.0980 N   0  0  0  0  0  0  0  0  0  0  0  0
    7.0410   -4.7820   23.8660 C   0  0  1  0  0  0  0  0  0  0  0  0
    7.4810   -5.2910   22.4900 C   0  0  0  0  0  0  0  0  0  0  0  0
    3.8370   -2.1820   25.9710 S   0  0  0  0  0  0  0  0  0  0  0  0
    3.4620   -3.8240   25.6180 C   0  0  0  0  0  0  0  0  0  0  0  0
    1.9770   -4.0090   25.3550 C   0  0  0  0  0  0  0  0  0  0  0  0
    1.2370   -2.7000   25.4820 C   0  0  0  0  0  0  0  0  0  0  0  0
    2.2300   -1.5930   25.8340 C   0  0  0  0  0  0  0  0  0  0  0  0
  1  2  1  0
  3  5  1  0
  4  5  2  0
  5  6  1  0
  7  9  1  0
  8  9  2  0
 10 12  2  0
 11 12  2  0
  1 13  1  0
 13 14  1  0
  3 16  1  0
 15 16  2  0
 16 17  1  0
  2 18  1  0
 17 18  2  0
 18 19  1  0
 15 20  1  0
 19 20  2  0
 21 22  2  0
 22 23  1  0
 23 24  2  0
 24 25  1  0
  6 26  1  0
 21 26  1  0
 25 26  2  0
 23 27  1  0
 27 28  2  0
 28 29  1  0
 24 30  1  0
 29 30  2  0
  9 31  1  0
 31 32  1  0
 32 33  1  0
 12 34  1  0
 33 34  1  0
 35 14  1  6
 34 35  1  0
 31 36  1  0
 35 36  1  0
 12 38  1  0
 37 38  1  0
 38 39  2  0
 39 40  1  0
 37 41  1  0
 40 41  2  0
M  END
