x2581-x2912
     RDKit          3D

 39 43  0  0  0  0  0  0  0  0999 V2000
    6.6840   -0.2910   21.2680 N   0  0  0  0  0  0  0  0  0  0  0  0
    7.2530   -1.3960   23.8130 C   0  0  0  0  0  0  0  0  0  0  0  0
    7.8850   -1.9490   22.5580 C   0  0  0  0  0  0  0  0  0  0  0  0
    7.9360   -0.9120   21.4720 C   0  0  2  0  0  0  0  0  0  0  0  0
   13.6150   -2.9560   20.6230 N   0  0  0  0  0  0  0  0  0  0  0  0
    4.6170    1.5230   21.5190 C   0  0  0  0  0  0  0  0  0  0  0  0
   13.1080   -2.0890   21.5080 C   0  0  0  0  0  0  0  0  0  0  0  0
    9.2330   -2.6690   22.9570 C   0  0  0  0  0  0  0  0  0  0  0  0
   10.2580    3.4260   22.0420 N   0  0  0  0  0  0  0  0  0  0  0  0
   11.2720    3.4480   24.0750 O   0  0  0  0  0  0  0  0  0  0  0  0
   11.1160    4.0250   22.8750 C   0  0  0  0  0  0  0  0  0  0  0  0
   11.8080    5.1840   22.5540 C   0  0  0  0  0  0  0  0  0  0  0  0
    6.2700    0.5710   17.6470 N   0  0  0  0  0  0  0  0  0  0  0  0
    5.1800    1.5250   17.7860 C   0  0  0  0  0  0  0  0  0  0  0  0
    4.6810    1.7960   19.0530 C   0  0  0  0  0  0  0  0  0  0  0  0
    5.2050    1.1740   20.1850 C   0  0  0  0  0  0  0  0  0  0  0  0
    6.2490    0.2530   20.0990 C   0  0  0  0  0  0  0  0  0  0  0  0
    6.7850   -0.0560   18.8500 C   0  0  0  0  0  0  0  0  0  0  0  0
   11.1390   -0.2060   24.6260 C   0  0  0  0  0  0  0  0  0  0  0  0
   12.4610   -0.5700   24.8080 C   0  0  0  0  0  0  0  0  0  0  0  0
   13.2470   -0.7530   23.6640 C   0  0  0  0  0  0  0  0  0  0  0  0
   12.5170   -1.2620   22.4460 C   0  0  0  0  0  0  0  0  0  0  0  0
   11.2470   -0.8960   22.3050 C   0  0  0  0  0  0  0  0  0  0  0  0
   10.6620   -0.0240   23.3610 C   0  0  2  0  0  0  0  0  0  0  0  0
    8.8840    1.4520   21.6940 N   0  0  0  0  0  0  0  0  0  0  0  0
    9.9610    2.1170   22.2260 C   0  0  0  0  0  0  0  0  0  0  0  0
   10.8360    1.4020   23.0200 C   0  0  0  0  0  0  0  0  0  0  0  0
    9.2170   -0.2520   23.1940 C   0  0  0  0  0  0  0  0  0  0  0  0
    8.9810    0.1170   21.9210 C   0  0  1  0  0  0  0  0  0  0  0  0
    9.8440    6.7960   22.6510 C   0  0  0  0  0  0  0  0  0  0  0  0
    9.1930    7.8540   23.2270 C   0  0  0  0  0  0  0  0  0  0  0  0
    9.6580    8.6640   24.4290 C   0  0  0  0  0  0  0  0  0  0  0  0
   10.9810    8.2410   25.0540 C   0  0  0  0  0  0  0  0  0  0  0  0
   11.6510    7.0560   24.3680 C   0  0  0  0  0  0  0  0  0  0  0  0
   11.0740    6.3420   23.1620 C   0  0  0  0  0  0  0  0  0  0  0  0
    8.9450    9.7400   24.9510 C   0  0  0  0  0  0  0  0  0  0  0  0
    9.4220   10.5490   26.1480 C   0  0  0  0  0  0  0  0  0  0  0  0
   10.7680   10.1060   26.7770 C   0  0  0  0  0  0  0  0  0  0  0  0
   11.5020    8.9140   26.1570 C   0  0  0  0  0  0  0  0  0  0  0  0
  2  3  1  0
  4  1  1  1
  3  4  1  0
  5  7  3  0
  3  8  1  0
  9 11  1  0
 10 11  2  0
 11 12  1  0
 13 14  2  0
 14 15  1  0
  6 16  1  0
 15 16  2  0
  1 17  1  0
 16 17  1  0
 13 18  1  0
 17 18  2  0
 19 20  2  0
 20 21  1  0
  7 22  1  0
 21 22  1  0
 22 23  2  0
 24 19  1  1
 23 24  1  0
  9 26  1  0
 25 26  1  0
 24 27  1  0
 26 27  2  0
 24 28  1  0
  4 29  1  0
 25 29  1  0
 29 28  1  1
 30 31  2  0
 31 32  1  0
 32 33  2  0
 33 34  1  0
 12 35  1  0
 30 35  1  0
 34 35  2  0
 32 36  1  0
 36 37  2  0
 37 38  1  0
 33 39  1  0
 38 39  2  0
M  END
