x2581-x0705
     RDKit          3D

 40 44  0  0  0  0  0  0  0  0999 V2000
    9.2170   -2.2620   24.1710 C   0  0  0  0  0  0  0  0  0  0  0  0
   10.3190   -1.5540   23.5740 O   0  0  0  0  0  0  0  0  0  0  0  0
   10.5670    3.2880   22.1030 N   0  0  0  0  0  0  0  0  0  0  0  0
   11.0100    3.5750   24.3090 O   0  0  0  0  0  0  0  0  0  0  0  0
   11.1790    3.9910   23.1850 C   0  0  0  0  0  0  0  0  0  0  0  0
   11.9220    5.2160   22.8420 C   0  0  0  0  0  0  0  0  0  0  0  0
    1.0730   -2.4520   27.8020 C   0  0  0  0  0  0  0  0  0  0  0  0
    7.4670   -1.5160   26.1750 O   0  0  0  0  0  0  0  0  0  0  0  0
    5.5160   -3.7040   19.6020 O   0  0  0  0  0  0  0  0  0  0  0  0
    6.5630   -2.0030   25.5330 C   0  0  0  0  0  0  0  0  0  0  0  0
    6.5250   -3.4440   20.2780 C   0  0  0  0  0  0  0  0  0  0  0  0
    7.8690   -3.7010   19.7480 C   0  0  0  0  0  0  0  0  0  0  0  0
    8.8770    1.8430   21.2780 N   0  0  0  0  0  0  0  0  0  0  0  0
    9.9390    1.9690   22.0860 C   0  0  0  0  0  0  0  0  0  0  0  0
   10.4980    0.8240   22.9130 C   0  0  0  0  0  0  0  0  0  0  0  0
    9.9100   -0.4390   22.8680 C   0  0  0  0  0  0  0  0  0  0  0  0
    8.8130   -0.4720   21.9910 C   0  0  0  0  0  0  0  0  0  0  0  0
    8.3280    0.6160   21.2440 C   0  0  0  0  0  0  0  0  0  0  0  0
    9.7980    6.8180   22.8540 C   0  0  0  0  0  0  0  0  0  0  0  0
    9.1160    7.8900   23.4260 C   0  0  0  0  0  0  0  0  0  0  0  0
    9.6050    8.6240   24.5130 C   0  0  0  0  0  0  0  0  0  0  0  0
   10.8440    8.2590   25.0570 C   0  0  0  0  0  0  0  0  0  0  0  0
   11.6280    7.0900   24.4730 C   0  0  0  0  0  0  0  0  0  0  0  0
   11.1500    6.3690   23.3980 C   0  0  0  0  0  0  0  0  0  0  0  0
    8.8960    9.7000   25.0480 C   0  0  0  0  0  0  0  0  0  0  0  0
    9.3960   10.4380   26.1280 C   0  0  0  0  0  0  0  0  0  0  0  0
   10.6160   10.1450   26.7300 C   0  0  0  0  0  0  0  0  0  0  0  0
   11.3870    8.9540   26.1350 C   0  0  0  0  0  0  0  0  0  0  0  0
    2.4810   -2.3760   27.2670 C   0  0  0  0  0  0  0  0  0  0  0  0
    2.7260   -1.4650   26.2260 C   0  0  0  0  0  0  0  0  0  0  0  0
    4.0100   -1.4040   25.7440 C   0  0  0  0  0  0  0  0  0  0  0  0
    5.2290   -2.1910   26.1800 C   0  0  0  0  0  0  0  0  0  0  0  0
    5.0110   -3.1790   27.2980 C   0  0  0  0  0  0  0  0  0  0  0  0
    3.5900   -3.2780   27.8610 C   0  0  0  0  0  0  0  0  0  0  0  0
    6.5610   -2.9730   21.5610 N   0  0  0  0  0  0  0  0  0  0  0  0
    5.6560   -3.6290   22.4840 C   0  0  0  0  0  0  0  0  0  0  0  0
    5.3670   -2.5820   23.5280 C   0  0  0  0  0  0  0  0  0  0  0  0
    6.6420   -2.3790   24.2500 N   0  0  0  0  0  0  0  0  0  0  0  0
    7.8570   -2.0140   23.4670 C   0  0  2  0  0  0  0  0  0  0  0  0
    7.8820   -2.7430   22.1360 C   0  0  0  0  0  0  0  0  0  0  0  0
  1  2  1  0
  3  5  1  0
  4  5  2  0
  5  6  1  0
  8 10  2  0
  9 11  2  0
 11 12  1  0
  3 14  1  0
 13 14  2  0
 14 15  1  0
  2 16  1  0
 15 16  2  0
 16 17  1  0
 13 18  1  0
 17 18  2  0
 19 20  2  0
 20 21  1  0
 21 22  2  0
 22 23  1  0
  6 24  1  0
 19 24  1  0
 23 24  2  0
 21 25  1  0
 25 26  2  0
 26 27  1  0
 22 28  1  0
 27 28  2  0
  7 29  1  0
 29 30  2  0
 30 31  1  0
 10 32  1  0
 31 32  2  0
 32 33  1  0
 29 34  1  0
 33 34  2  0
 11 35  1  0
 35 36  1  0
 36 37  1  0
 10 38  1  0
 37 38  1  0
 39  1  1  1
 38 39  1  0
 35 40  1  0
 39 40  1  0
M  END
