x2581-x0736
     RDKit          3D

 38 42  0  0  0  0  0  0  0  0999 V2000
    9.6210   -2.7300   23.8450 C   0  0  0  0  0  0  0  0  0  0  0  0
   10.1440   -1.3670   23.8620 O   0  0  0  0  0  0  0  0  0  0  0  0
   10.4330    3.2710   22.1500 N   0  0  0  0  0  0  0  0  0  0  0  0
   11.2900    3.2680   24.1670 O   0  0  0  0  0  0  0  0  0  0  0  0
   11.2370    3.8790   23.1340 C   0  0  0  0  0  0  0  0  0  0  0  0
   11.8850    5.1690   22.8150 C   0  0  0  0  0  0  0  0  0  0  0  0
    7.2490   -3.0380   18.9520 C   0  0  0  0  0  0  0  0  0  0  0  0
    5.2300   -4.1850   19.6950 O   0  0  0  0  0  0  0  0  0  0  0  0
    6.2120   -3.5210   19.9780 C   0  0  0  0  0  0  0  0  0  0  0  0
    6.0390   -2.6200   24.9150 O   0  0  0  0  0  0  0  0  0  0  0  0
    7.4010   -2.2600   24.6470 C   0  0  0  0  0  0  0  0  0  0  0  0
    8.7950    1.6460   21.1420 N   0  0  0  0  0  0  0  0  0  0  0  0
    9.8390    1.9360   22.1230 C   0  0  0  0  0  0  0  0  0  0  0  0
   10.3230    0.9830   23.0440 C   0  0  0  0  0  0  0  0  0  0  0  0
    9.6930   -0.4160   22.9660 C   0  0  0  0  0  0  0  0  0  0  0  0
    8.7120   -0.6230   21.9980 C   0  0  0  0  0  0  0  0  0  0  0  0
    8.3000    0.4020   21.1370 C   0  0  0  0  0  0  0  0  0  0  0  0
    9.9180    6.7040   22.8430 C   0  0  0  0  0  0  0  0  0  0  0  0
    9.1900    7.7720   23.3520 C   0  0  0  0  0  0  0  0  0  0  0  0
    9.6800    8.5060   24.4420 C   0  0  0  0  0  0  0  0  0  0  0  0
   10.9140    8.2160   25.0840 C   0  0  0  0  0  0  0  0  0  0  0  0
   11.6570    7.1390   24.5870 C   0  0  0  0  0  0  0  0  0  0  0  0
   11.1400    6.3390   23.4020 C   0  0  0  0  0  0  0  0  0  0  0  0
    8.9290    9.5850   24.9180 C   0  0  0  0  0  0  0  0  0  0  0  0
    9.4510   10.3990   26.0890 C   0  0  0  0  0  0  0  0  0  0  0  0
   10.6680   10.0510   26.6690 C   0  0  0  0  0  0  0  0  0  0  0  0
   11.3820    8.9740   26.1700 C   0  0  0  0  0  0  0  0  0  0  0  0
    6.4170   -3.2070   21.3070 N   0  0  0  0  0  0  0  0  0  0  0  0
    6.8880   -2.0080   21.6650 C   0  0  0  0  0  0  0  0  0  0  0  0
    8.1380   -2.1540   22.2090 C   0  0  0  0  0  0  0  0  0  0  0  0
    8.1350   -2.7630   23.4430 C   0  0  0  0  0  0  0  0  0  0  0  0
    7.7650   -4.0580   23.1760 C   0  0  0  0  0  0  0  0  0  0  0  0
    6.5200   -4.2730   22.3190 C   0  0  0  0  0  0  0  0  0  0  0  0
    8.5750   -0.1470   25.0790 O   0  0  0  0  0  0  0  0  0  0  0  0
    8.1310   -1.3580   25.5720 C   0  0  0  0  0  0  0  0  0  0  0  0
    8.5110   -1.5090   27.0330 C   0  0  0  0  0  0  0  0  0  0  0  0
    9.2300   -0.2430   27.3140 C   0  0  0  0  0  0  0  0  0  0  0  0
    9.2270    0.5620   26.0320 C   0  0  0  0  0  0  0  0  0  0  0  0
  1  2  1  0
  3  5  1  0
  4  5  2  0
  5  6  1  0
  7  9  1  0
  8  9  2  0
 10 11  2  0
  3 13  1  0
 12 13  2  0
 13 14  1  0
  2 15  1  0
 14 15  2  0
 15 16  1  0
 12 17  1  0
 16 17  2  0
 18 19  2  0
 19 20  1  0
 20 21  2  0
 21 22  1  0
  6 23  1  0
 18 23  1  0
 22 23  2  0
 20 24  1  0
 24 25  2  0
 25 26  1  0
 21 27  1  0
 26 27  2  0
  9 28  1  0
 28 29  1  0
 29 30  1  0
  1 31  1  0
 31 11  1  0
 30 31  1  0
 31 32  1  0
 28 33  1  0
 32 33  1  0
 11 35  1  0
 34 35  1  0
 35 36  2  0
 36 37  1  0
 34 38  1  0
 37 38  2  0
M  END
