x2581-x0759
     RDKit          3D

 34 37  0  0  0  0  0  0  0  0999 V2000
    9.7960   -2.3450   23.2780 C   0  0  0  0  0  0  0  0  0  0  0  0
   10.0380   -1.0710   23.8620 O   0  0  0  0  0  0  0  0  0  0  0  0
   10.0050    3.6250   22.3970 N   0  0  0  0  0  0  0  0  0  0  0  0
   12.2490    2.9300   23.2800 N   0  0  0  0  0  0  0  0  0  0  0  0
   11.3670    3.9210   22.7550 C   0  0  0  0  0  0  0  0  0  0  0  0
   11.9390    5.2800   22.5850 C   0  0  0  0  0  0  0  0  0  0  0  0
    5.4350   -4.2540   19.8300 O   0  0  0  0  0  0  0  0  0  0  0  0
    6.4250   -3.5590   20.1020 C   0  0  0  0  0  0  0  0  0  0  0  0
    7.3660   -3.0820   19.0060 C   0  0  0  0  0  0  0  0  0  0  0  0
    8.7880    1.9780   21.2630 N   0  0  0  0  0  0  0  0  0  0  0  0
    9.6140    2.2590   22.2970 C   0  0  0  0  0  0  0  0  0  0  0  0
   10.0770    1.3030   23.2160 C   0  0  0  0  0  0  0  0  0  0  0  0
    9.6860   -0.0220   23.0750 C   0  0  0  0  0  0  0  0  0  0  0  0
    8.7610   -0.3350   21.9170 C   0  0  0  0  0  0  0  0  0  0  0  0
    8.3700    0.7090   21.0910 C   0  0  0  0  0  0  0  0  0  0  0  0
    9.7480    6.8030   22.7050 C   0  0  0  0  0  0  0  0  0  0  0  0
    9.0640    7.8450   23.3480 C   0  0  0  0  0  0  0  0  0  0  0  0
    9.6250    8.4980   24.4450 C   0  0  0  0  0  0  0  0  0  0  0  0
   10.8890    8.1130   24.9330 C   0  0  0  0  0  0  0  0  0  0  0  0
   11.6220    7.0810   24.3450 C   0  0  0  0  0  0  0  0  0  0  0  0
   11.1310    6.3850   23.2310 C   0  0  0  0  0  0  0  0  0  0  0  0
    8.9130    9.5440   25.0400 C   0  0  0  0  0  0  0  0  0  0  0  0
    9.4250   10.2380   26.1300 C   0  0  0  0  0  0  0  0  0  0  0  0
   10.7870    9.8240   26.6640 C   0  0  0  0  0  0  0  0  0  0  0  0
   11.4630    8.7780   26.0470 C   0  0  0  0  0  0  0  0  0  0  0  0
    6.7320   -3.2250   21.4390 N   0  0  0  0  0  0  0  0  0  0  0  0
    7.7570   -2.3690   21.7420 C   0  0  0  0  0  0  0  0  0  0  0  0
    8.2820   -2.6520   23.1900 C   0  0  1  0  0  0  0  0  0  0  0  0
    8.2250   -4.0490   23.5310 O   0  0  0  0  0  0  0  0  0  0  0  0
    7.0180   -4.7210   23.1820 C   0  0  0  0  0  0  0  0  0  0  0  0
    6.0950   -3.8550   22.5940 C   0  0  0  0  0  0  0  0  0  0  0  0
   12.5150   -0.4490   22.7980 F   0  0  0  0  0  0  0  0  0  0  0  0
   11.7130    1.6090   23.4950 C   0  0  0  0  0  0  0  0  0  0  0  0
   12.8510    0.6190   23.5310 C   0  0  0  0  0  0  0  0  0  0  0  0
  1  2  1  0
  3  5  1  0
  4  5  2  3
  5  6  1  0
  7  8  2  0
  8  9  1  0
  3 11  1  0
 10 11  2  0
 11 12  1  0
  2 13  1  0
 12 13  2  0
 13 14  1  0
 10 15  1  0
 14 15  2  0
 16 17  2  0
 17 18  1  0
 18 19  2  0
 19 20  1  0
  6 21  1  0
 16 21  1  0
 20 21  2  0
 18 22  1  0
 22 23  2  0
 23 24  1  0
 19 25  1  0
 24 25  2  0
  8 26  1  0
 26 27  1  0
 28  1  1  6
 27 28  1  0
 28 29  1  0
 29 30  1  0
 26 31  1  0
 30 31  1  0
  4 33  1  0
 32 34  1  0
 33 34  1  0
M  END
