x2581-x2964
     RDKit          3D

 35 39  0  0  0  0  0  0  0  0999 V2000
    9.9900   -2.5080   23.9390 C   0  0  0  0  0  0  0  0  0  0  0  0
   10.1640   -1.0820   24.0150 O   0  0  0  0  0  0  0  0  0  0  0  0
   10.4940    3.2190   22.1630 N   0  0  0  0  0  0  0  0  0  0  0  0
   11.0350    3.6490   24.3240 O   0  0  0  0  0  0  0  0  0  0  0  0
   11.1640    4.0020   23.1660 C   0  0  0  0  0  0  0  0  0  0  0  0
   11.9110    5.2040   22.7380 C   0  0  0  0  0  0  0  0  0  0  0  0
    3.2940    2.1600   19.1610 N   0  0  0  0  0  0  0  0  0  0  0  0
   13.4160   -2.0830   21.1150 Cl  0  0  0  0  0  0  0  0  0  0  0  0
    7.0110   -0.2010   21.2130 N   0  0  0  0  0  0  0  0  0  0  0  0
    8.6080    1.5530   21.8410 N   0  0  0  0  0  0  0  0  0  0  0  0
    9.8780    1.8450   22.2640 C   0  0  0  0  0  0  0  0  0  0  0  0
   10.6740    0.8280   22.8010 C   0  0  0  0  0  0  0  0  0  0  0  0
   10.2020   -0.4960   22.9360 C   0  0  2  0  0  0  0  0  0  0  0  0
    9.0010   -0.6910   22.3210 C   0  0  0  0  0  0  0  0  0  0  0  0
    8.1940    0.2630   21.7740 C   0  0  0  0  0  0  0  0  0  0  0  0
    9.8190    6.8290   22.8050 C   0  0  0  0  0  0  0  0  0  0  0  0
    9.1800    7.8960   23.4140 C   0  0  0  0  0  0  0  0  0  0  0  0
    9.6900    8.6040   24.5190 C   0  0  0  0  0  0  0  0  0  0  0  0
   10.9420    8.1610   25.0160 C   0  0  0  0  0  0  0  0  0  0  0  0
   11.6410    7.0800   24.4480 C   0  0  0  0  0  0  0  0  0  0  0  0
   11.1600    6.3680   23.3470 C   0  0  0  0  0  0  0  0  0  0  0  0
    8.6670    9.7530   24.8940 C   0  0  0  0  0  0  0  0  0  0  0  0
    9.4130   10.2920   25.9910 C   0  0  0  0  0  0  0  0  0  0  0  0
   10.7670    9.8570   26.5800 C   0  0  0  0  0  0  0  0  0  0  0  0
   11.4820    8.8150   26.0820 C   0  0  0  0  0  0  0  0  0  0  0  0
    4.5580    1.4640   19.0540 C   0  0  0  0  0  0  0  0  0  0  0  0
    5.1750    0.9620   20.1870 C   0  0  0  0  0  0  0  0  0  0  0  0
    6.3700    0.2950   20.0990 C   0  0  0  0  0  0  0  0  0  0  0  0
    6.9260    0.1500   18.6980 C   0  0  0  0  0  0  0  0  0  0  0  0
    6.3260    0.6460   17.6170 N   0  0  0  0  0  0  0  0  0  0  0  0
    5.1710    1.2860   17.8260 C   0  0  0  0  0  0  0  0  0  0  0  0
   12.0240    1.1330   23.1730 C   0  0  0  0  0  0  0  0  0  0  0  0
   12.9260    0.1850   22.8050 C   0  0  0  0  0  0  0  0  0  0  0  0
   12.5060   -1.0720   22.0650 C   0  0  0  0  0  0  0  0  0  0  0  0
   11.0710   -1.3960   22.1520 C   0  0  0  0  0  0  0  0  0  0  0  0
  1  2  1  0
  3  5  1  0
  4  5  2  0
  5  6  1  0
  3 11  1  0
 10 11  1  0
 11 12  2  0
 13  2  1  1
 12 13  1  0
 13 14  1  0
  9 15  1  0
 10 15  1  0
 14 15  2  0
 16 17  2  0
 17 18  1  0
 18 19  2  0
 19 20  1  0
  6 21  1  0
 16 21  1  0
 20 21  2  0
 18 22  1  0
 22 23  2  0
 23 24  1  0
 19 25  1  0
 24 25  2  0
  7 26  1  0
 26 27  2  0
  9 28  1  0
 27 28  1  0
 28 29  2  0
 29 30  1  0
 26 31  1  0
 30 31  2  0
 12 32  1  0
 32 33  2  0
  8 34  1  0
 33 34  1  0
 13 35  1  0
 34 35  2  0
M  END
