x2581-x1380
     RDKit          3D

 40 44  0  0  0  0  0  0  0  0999 V2000
   10.0940   -2.6710   23.3420 C   0  0  0  0  0  0  0  0  0  0  0  0
   10.3750   -1.3780   23.8890 O   0  0  0  0  0  0  0  0  0  0  0  0
   10.1380    3.3740   22.2440 N   0  0  0  0  0  0  0  0  0  0  0  0
   11.6610    2.9620   23.8100 O   0  0  0  0  0  0  0  0  0  0  0  0
   11.2920    3.7730   22.9910 C   0  0  0  0  0  0  0  0  0  0  0  0
   11.9010    5.1000   22.7200 C   0  0  0  0  0  0  0  0  0  0  0  0
    7.1420   -3.2700   19.3180 C   0  0  0  0  0  0  0  0  0  0  0  0
    5.2970   -4.7210   19.9350 O   0  0  0  0  0  0  0  0  0  0  0  0
    6.2690   -4.0760   20.3000 C   0  0  0  0  0  0  0  0  0  0  0  0
    4.6640   -2.5970   25.4640 O   0  0  0  0  0  0  0  0  0  0  0  0
    5.8640   -3.3700   25.3440 C   0  0  0  0  0  0  0  0  0  0  0  0
    8.9350   -3.3250   24.0730 C   0  0  0  0  0  0  0  0  0  0  0  0
    8.8030    1.6770   21.2290 N   0  0  0  0  0  0  0  0  0  0  0  0
    9.7110    1.9800   22.1670 C   0  0  0  0  0  0  0  0  0  0  0  0
   10.3220    0.9690   23.1460 C   0  0  0  0  0  0  0  0  0  0  0  0
    9.9140   -0.3690   23.0700 C   0  0  0  0  0  0  0  0  0  0  0  0
    8.9650   -0.6020   22.0640 C   0  0  0  0  0  0  0  0  0  0  0  0
    8.4430    0.3740   21.2010 C   0  0  0  0  0  0  0  0  0  0  0  0
    9.7680    6.7260   22.7770 C   0  0  0  0  0  0  0  0  0  0  0  0
    9.1270    7.8100   23.3900 C   0  0  0  0  0  0  0  0  0  0  0  0
    9.6360    8.5240   24.4770 C   0  0  0  0  0  0  0  0  0  0  0  0
   10.8710    8.1360   25.0050 C   0  0  0  0  0  0  0  0  0  0  0  0
   11.6270    6.9600   24.3920 C   0  0  0  0  0  0  0  0  0  0  0  0
   11.1260    6.2560   23.3080 C   0  0  0  0  0  0  0  0  0  0  0  0
    8.9430    9.6070   25.0250 C   0  0  0  0  0  0  0  0  0  0  0  0
    9.4580   10.3290   26.1080 C   0  0  0  0  0  0  0  0  0  0  0  0
   10.6770   10.0170   26.7030 C   0  0  0  0  0  0  0  0  0  0  0  0
   11.4260    8.8190   26.0880 C   0  0  0  0  0  0  0  0  0  0  0  0
    6.6340   -4.0750   21.6480 N   0  0  0  0  0  0  0  0  0  0  0  0
    6.5720   -5.3210   22.4240 C   0  0  0  0  0  0  0  0  0  0  0  0
    6.5000   -5.0890   23.8170 C   0  0  0  0  0  0  0  0  0  0  0  0
    6.3470   -3.7150   23.9360 C   0  0  2  0  0  0  0  0  0  0  0  0
    7.5610   -2.8900   23.4930 C   0  0  2  0  0  0  0  0  0  0  0  0
    7.6860   -3.1480   22.0240 C   0  0  0  0  0  0  0  0  0  0  0  0
    7.9070   -4.1680   26.6480 C   0  0  0  0  0  0  0  0  0  0  0  0
    7.9140   -5.5430   27.3150 C   0  0  0  0  0  0  0  0  0  0  0  0
    7.2640   -5.2810   28.6650 C   0  0  0  0  0  0  0  0  0  0  0  0
    5.8140   -4.8290   28.5530 C   0  0  0  0  0  0  0  0  0  0  0  0
    5.7700   -3.5410   27.7260 C   0  0  0  0  0  0  0  0  0  0  0  0
    6.5050   -3.7580   26.4790 N   0  0  0  0  0  0  0  0  0  0  0  0
  1  2  1  0
  3  5  1  0
  4  5  2  0
  5  6  1  0
  7  9  1  0
  8  9  2  0
 10 11  2  0
  1 12  1  0
  3 14  1  0
 13 14  2  0
 14 15  1  0
  2 16  1  0
 15 16  2  0
 16 17  1  0
 13 18  1  0
 17 18  2  0
 19 20  2  0
 20 21  1  0
 21 22  2  0
 22 23  1  0
  6 24  1  0
 19 24  1  0
 23 24  2  0
 21 25  1  0
 25 26  2  0
 26 27  1  0
 22 28  1  0
 27 28  2  0
  9 29  1  0
 29 30  1  0
 30 31  1  0
 32 11  1  1
 31 32  1  0
 33 12  1  1
 32 33  1  0
 29 34  1  0
 33 34  1  0
 35 36  1  0
 36 37  1  0
 37 38  1  0
 38 39  1  0
 11 40  1  0
 35 40  1  0
 39 40  1  0
M  END
