x2581-x0991
     RDKit          3D

 26 28  0  0  0  0  0  0  0  0999 V2000
   10.0190   -2.8700   23.5320 C   0  0  0  0  0  0  0  0  0  0  0  0
   10.0620   -1.5030   24.0170 O   0  0  0  0  0  0  0  0  0  0  0  0
   10.4920    3.1600   22.1240 N   0  0  0  0  0  0  0  0  0  0  0  0
   11.1920    3.1700   24.2130 O   0  0  0  0  0  0  0  0  0  0  0  0
   11.2190    3.7760   23.1730 C   0  0  0  0  0  0  0  0  0  0  0  0
   11.9130    5.0620   22.8870 C   0  0  0  0  0  0  0  0  0  0  0  0
   10.3050   -5.1080   25.4290 N   0  0  0  0  0  0  0  0  0  0  0  0
    8.8450   -3.7330   24.0740 C   0  0  0  0  0  0  0  0  0  0  0  0
    8.1730   -5.2220   25.8640 N   0  0  0  0  0  0  0  0  0  0  0  0
    9.0510   -4.6700   25.1040 C   0  0  0  0  0  0  0  0  0  0  0  0
    8.8320    1.5640   21.1840 N   0  0  0  0  0  0  0  0  0  0  0  0
    9.8860    1.8670   22.1550 C   0  0  0  0  0  0  0  0  0  0  0  0
   10.2450    0.8230   23.0560 C   0  0  0  0  0  0  0  0  0  0  0  0
    9.7210   -0.4880   23.1390 C   0  0  0  0  0  0  0  0  0  0  0  0
    8.6440   -0.8120   22.1280 C   0  0  0  0  0  0  0  0  0  0  0  0
    8.2860    0.2020   21.2550 C   0  0  0  0  0  0  0  0  0  0  0  0
    9.8160    6.7070   22.8350 C   0  0  0  0  0  0  0  0  0  0  0  0
    9.1520    7.7950   23.3630 C   0  0  0  0  0  0  0  0  0  0  0  0
    9.6470    8.5170   24.4340 C   0  0  0  0  0  0  0  0  0  0  0  0
   10.8950    8.0990   25.0010 C   0  0  0  0  0  0  0  0  0  0  0  0
   11.6360    6.9980   24.5240 C   0  0  0  0  0  0  0  0  0  0  0  0
   11.1510    6.2490   23.4290 C   0  0  0  0  0  0  0  0  0  0  0  0
    8.9350    9.6250   24.9240 C   0  0  0  0  0  0  0  0  0  0  0  0
    9.4370   10.3540   25.9900 C   0  0  0  0  0  0  0  0  0  0  0  0
   10.7520    9.9040   26.5820 C   0  0  0  0  0  0  0  0  0  0  0  0
   11.4470    8.8130   26.0980 C   0  0  0  0  0  0  0  0  0  0  0  0
  1  2  1  0
  3  5  1  0
  4  5  2  0
  5  6  1  0
  1  8  1  0
  7 10  2  3
  8 10  1  0
  9 10  1  0
  3 12  1  0
 11 12  2  0
 12 13  1  0
  2 14  1  0
 13 14  2  0
 14 15  1  0
 11 16  1  0
 15 16  2  0
 17 18  2  0
 18 19  1  0
 19 20  2  0
 20 21  1  0
  6 22  1  0
 17 22  1  0
 21 22  2  0
 19 23  1  0
 23 24  2  0
 24 25  1  0
 20 26  1  0
 25 26  2  0
M  END
