x2581-x0434
     RDKit          3D

 34 38  0  0  0  0  0  0  0  0999 V2000
    9.5200   -2.7510   23.3390 C   0  0  0  0  0  0  0  0  0  0  0  0
    8.4610   -1.9880   22.7450 O   0  0  0  0  0  0  0  0  0  0  0  0
   10.1460    3.3720   22.1070 N   0  0  0  0  0  0  0  0  0  0  0  0
   11.2680    3.3010   24.0520 O   0  0  0  0  0  0  0  0  0  0  0  0
   11.1170    3.9210   23.0230 C   0  0  0  0  0  0  0  0  0  0  0  0
   11.8420    5.1680   22.6710 C   0  0  0  0  0  0  0  0  0  0  0  0
    7.3010   -0.1610   22.2550 N   0  0  0  0  0  0  0  0  0  0  0  0
    8.9080    1.1200   21.1520 N   0  0  0  0  0  0  0  0  0  0  0  0
    9.6900    1.9420   22.0420 C   0  0  0  0  0  0  0  0  0  0  0  0
   10.1610    1.1890   23.0530 C   0  0  0  0  0  0  0  0  0  0  0  0
    9.8520   -0.1480   23.0560 C   0  0  0  0  0  0  0  0  0  0  0  0
    8.7200   -0.7000   22.3890 C   0  0  1  0  0  0  0  0  0  0  0  0
    9.0780   -0.3110   21.1970 C   0  0  0  0  0  0  0  0  0  0  0  0
    9.7660    6.8150   22.7890 C   0  0  0  0  0  0  0  0  0  0  0  0
    9.1500    7.8840   23.4190 C   0  0  0  0  0  0  0  0  0  0  0  0
    9.6780    8.5770   24.5230 C   0  0  0  0  0  0  0  0  0  0  0  0
   10.9320    8.1150   25.0030 C   0  0  0  0  0  0  0  0  0  0  0  0
   11.6120    7.0300   24.4120 C   0  0  0  0  0  0  0  0  0  0  0  0
   11.1080    6.3310   23.3080 C   0  0  0  0  0  0  0  0  0  0  0  0
    8.6730    9.7330   24.9220 C   0  0  0  0  0  0  0  0  0  0  0  0
    9.4330   10.2560   26.0160 C   0  0  0  0  0  0  0  0  0  0  0  0
   10.7880    9.8020   26.5870 C   0  0  0  0  0  0  0  0  0  0  0  0
   11.4880    8.7560   26.0700 C   0  0  0  0  0  0  0  0  0  0  0  0
    5.5480    0.9800   20.8570 C   0  0  0  0  0  0  0  0  0  0  0  0
    4.8990    1.3570   19.6630 C   0  0  0  0  0  0  0  0  0  0  0  0
    5.3450    0.9460   18.4190 C   0  0  0  0  0  0  0  0  0  0  0  0
    6.5320    0.0840   18.3750 N   0  0  0  0  0  0  0  0  0  0  0  0
    7.1740   -0.2860   19.6760 C   0  0  0  0  0  0  0  0  0  0  0  0
    6.6920    0.1640   20.9340 C   0  0  0  0  0  0  0  0  0  0  0  0
   10.1800   -0.4850   24.4570 C   0  0  0  0  0  0  0  0  0  0  0  0
   11.5240   -0.3340   24.8020 C   0  0  0  0  0  0  0  0  0  0  0  0
   12.5980    0.1270   23.8120 C   0  0  0  0  0  0  0  0  0  0  0  0
   12.4150   -0.7170   22.5960 C   0  0  0  0  0  0  0  0  0  0  0  0
   10.9500   -0.8440   22.2440 C   0  0  0  0  0  0  0  0  0  0  0  0
  1  2  1  0
  3  5  1  0
  4  5  2  0
  5  6  1  0
  3  9  1  0
  8  9  1  0
  9 10  2  0
 11 10  1  0
 12  2  1  0
 12  7  1  1
 11 12  1  0
  8 13  1  0
 12 13  1  0
 14 15  2  0
 15 16  1  0
 16 17  2  0
 17 18  1  0
  6 19  1  0
 14 19  1  0
 18 19  2  0
 16 20  1  0
 20 21  2  0
 21 22  1  0
 17 23  1  0
 22 23  2  0
 24 25  2  0
 25 26  1  0
 26 27  2  0
 27 28  1  0
  7 29  1  0
 24 29  1  0
 28 29  2  0
 11 30  1  0
 30 31  2  0
 31 32  1  0
 32 33  1  0
 11 34  1  0
 33 34  2  0
M  END
