x2581-x0978
     RDKit          3D

 39 41  0  0  0  0  0  0  0  0999 V2000
    2.1160   -5.6100   23.0730 N   0  0  0  0  0  0  0  0  0  0  0  0
    2.1790   -8.0310   24.5720 C   0  0  0  0  0  0  0  0  0  0  0  0
    4.5730   -7.6050   24.6710 O   0  0  0  0  0  0  0  0  0  0  0  0
    3.3570   -7.1020   24.4640 C   0  0  1  0  0  0  0  0  0  0  0  0
    5.5800   -5.9050   21.8500 N   0  0  0  0  0  0  0  0  0  0  0  0
    0.7650   -7.4350   21.8480 O   0  0  0  0  0  0  0  0  0  0  0  0
    3.3300   -6.3980   23.1510 C   0  0  2  0  0  0  0  0  0  0  0  0
    4.6030   -4.3060   23.3330 O   0  0  0  0  0  0  0  0  0  0  0  0
    0.8250   -6.2010   22.5490 C   0  0  0  0  0  0  0  0  0  0  0  0
   -0.3180   -5.4380   22.8040 C   0  0  0  0  0  0  0  0  0  0  0  0
    4.5430   -5.4230   22.8190 C   0  0  0  0  0  0  0  0  0  0  0  0
    6.9310   -5.2550   21.5890 C   0  0  1  0  0  0  0  0  0  0  0  0
    6.8070   -4.3150   20.3710 C   0  0  0  0  0  0  0  0  0  0  0  0
    5.4350   -4.3090   19.8890 C   0  0  0  0  0  0  0  0  0  0  0  0
    9.8500   -2.4250   23.9270 C   0  0  0  0  0  0  0  0  0  0  0  0
   10.6980   -1.4330   23.4000 O   0  0  0  0  0  0  0  0  0  0  0  0
   10.3810    3.4340   22.2110 N   0  0  0  0  0  0  0  0  0  0  0  0
   11.2090    3.6540   24.1880 O   0  0  0  0  0  0  0  0  0  0  0  0
   11.1750    4.0860   23.0500 C   0  0  0  0  0  0  0  0  0  0  0  0
   11.9010    5.2290   22.7390 C   0  0  0  0  0  0  0  0  0  0  0  0
    7.3270   -4.5390   22.8450 C   0  0  0  0  0  0  0  0  0  0  0  0
    7.8200   -3.2240   22.8450 C   0  0  0  0  0  0  0  0  0  0  0  0
    9.1940   -3.1910   22.9900 C   0  0  0  0  0  0  0  0  0  0  0  0
    8.7110    1.7600   21.2670 N   0  0  0  0  0  0  0  0  0  0  0  0
    9.8780    2.0710   22.1080 C   0  0  0  0  0  0  0  0  0  0  0  0
   10.5750    0.9400   22.8530 C   0  0  0  0  0  0  0  0  0  0  0  0
   10.1660   -0.3620   22.7870 C   0  0  0  0  0  0  0  0  0  0  0  0
    8.9610   -0.5740   21.8980 C   0  0  0  0  0  0  0  0  0  0  0  0
    8.3300    0.4580   21.2190 C   0  0  0  0  0  0  0  0  0  0  0  0
    9.9060    6.7340   22.8160 C   0  0  0  0  0  0  0  0  0  0  0  0
    9.0970    7.8850   23.4070 C   0  0  0  0  0  0  0  0  0  0  0  0
    9.6320    8.5830   24.4970 C   0  0  0  0  0  0  0  0  0  0  0  0
   10.8980    8.2550   25.0730 C   0  0  0  0  0  0  0  0  0  0  0  0
   11.5830    7.2010   24.5000 C   0  0  0  0  0  0  0  0  0  0  0  0
   11.1310    6.3710   23.3270 C   0  0  0  0  0  0  0  0  0  0  0  0
    8.8810    9.6440   25.0150 C   0  0  0  0  0  0  0  0  0  0  0  0
    9.3630   10.4840   26.1920 C   0  0  0  0  0  0  0  0  0  0  0  0
   10.7140   10.1240   26.8020 C   0  0  0  0  0  0  0  0  0  0  0  0
   11.4420    8.9500   26.1580 C   0  0  0  0  0  0  0  0  0  0  0  0
  4  2  1  6
  3  4  1  0
  7  1  1  1
  4  7  1  0
  1  9  1  0
  6  9  2  0
  9 10  1  0
  5 11  1  0
  7 11  1  0
  8 11  2  0
  5 12  1  0
 12 13  1  6
 13 14  2  3
 15 16  1  0
 17 19  1  0
 18 19  2  0
 19 20  1  0
 12 21  1  0
 21 22  1  0
 15 23  1  0
 22 23  1  0
 17 25  1  0
 24 25  2  0
 25 26  1  0
 16 27  1  0
 26 27  2  0
 27 28  1  0
 24 29  1  0
 28 29  2  0
 30 31  2  0
 31 32  1  0
 32 33  2  0
 33 34  1  0
 20 35  1  0
 30 35  1  0
 34 35  2  0
 32 36  1  0
 36 37  2  0
 37 38  1  0
 33 39  1  0
 38 39  2  0
M  END
