x2581-x1478
     RDKit          3D

 35 38  0  0  0  0  0  0  0  0999 V2000
   10.1610   -2.5630   23.4000 C   0  0  0  0  0  0  0  0  0  0  0  0
   10.3320   -1.2620   23.9760 O   0  0  0  0  0  0  0  0  0  0  0  0
   10.6760    3.3260   22.0020 N   0  0  0  0  0  0  0  0  0  0  0  0
   11.1170    3.6080   24.2060 O   0  0  0  0  0  0  0  0  0  0  0  0
   11.2690    4.0400   23.0850 C   0  0  0  0  0  0  0  0  0  0  0  0
   11.9740    5.2830   22.7570 C   0  0  0  0  0  0  0  0  0  0  0  0
    6.9050   -2.7950   21.4880 N   0  0  0  0  0  0  0  0  0  0  0  0
    7.9180   -4.4610   20.3280 C   0  0  0  0  0  0  0  0  0  0  0  0
    5.8450   -3.5150   19.5000 O   0  0  0  0  0  0  0  0  0  0  0  0
    6.2650   -5.7840   22.3220 Cl  0  0  0  0  0  0  0  0  0  0  0  0
    6.7540   -3.5430   20.3640 C   0  0  0  0  0  0  0  0  0  0  0  0
    8.7610   -3.0920   23.0720 C   0  0  0  0  0  0  0  0  0  0  0  0
    8.2800   -2.4560   21.9240 C   0  0  0  0  0  0  0  0  0  0  0  0
    8.8730    1.8780   21.2770 N   0  0  0  0  0  0  0  0  0  0  0  0
    9.9930    2.0420   22.0880 C   0  0  0  0  0  0  0  0  0  0  0  0
   10.5580    0.9920   23.0200 C   0  0  0  0  0  0  0  0  0  0  0  0
    9.9220   -0.2430   23.1290 C   0  0  0  0  0  0  0  0  0  0  0  0
    8.7990   -0.3580   22.2940 C   0  0  0  0  0  0  0  0  0  0  0  0
    8.2980    0.6270   21.4180 C   0  0  0  0  0  0  0  0  0  0  0  0
    9.8420    6.8780   22.8150 C   0  0  0  0  0  0  0  0  0  0  0  0
    9.1330    7.9290   23.3850 C   0  0  0  0  0  0  0  0  0  0  0  0
    9.6090    8.6480   24.4840 C   0  0  0  0  0  0  0  0  0  0  0  0
   10.8610    8.2750   25.0300 C   0  0  0  0  0  0  0  0  0  0  0  0
   11.6590    7.1230   24.4280 C   0  0  0  0  0  0  0  0  0  0  0  0
   11.1930    6.4160   23.3390 C   0  0  0  0  0  0  0  0  0  0  0  0
    8.8820    9.7130   25.0290 C   0  0  0  0  0  0  0  0  0  0  0  0
    9.3840   10.4200   26.1210 C   0  0  0  0  0  0  0  0  0  0  0  0
   10.5970   10.1230   26.7220 C   0  0  0  0  0  0  0  0  0  0  0  0
   11.3910    8.9560   26.1240 C   0  0  0  0  0  0  0  0  0  0  0  0
    4.7110   -4.6220   24.0510 N   0  0  0  0  0  0  0  0  0  0  0  0
    5.6450   -4.3220   22.9760 C   0  0  0  0  0  0  0  0  0  0  0  0
    6.0180   -3.0390   22.5120 C   0  0  0  0  0  0  0  0  0  0  0  0
    5.4110   -2.0130   23.1850 C   0  0  0  0  0  0  0  0  0  0  0  0
    4.4200   -2.1410   24.3230 C   0  0  0  0  0  0  0  0  0  0  0  0
    4.1360   -3.5850   24.6810 C   0  0  0  0  0  0  0  0  0  0  0  0
  1  2  1  0
  3  5  1  0
  4  5  2  0
  5  6  1  0
  7 11  1  0
  8 11  1  0
  9 11  2  0
  1 12  1  0
  7 13  1  0
 12 13  1  0
  3 15  1  0
 14 15  2  0
 15 16  1  0
  2 17  1  0
 16 17  2  0
 17 18  1  0
 14 19  1  0
 18 19  2  0
 20 21  2  0
 21 22  1  0
 22 23  2  0
 23 24  1  0
  6 25  1  0
 20 25  1  0
 24 25  2  0
 22 26  1  0
 26 27  2  0
 27 28  1  0
 23 29  1  0
 28 29  2  0
 10 31  1  0
 30 31  2  0
  7 32  1  0
 31 32  1  0
 32 33  2  0
 33 34  1  0
 30 35  1  0
 34 35  2  0
M  END
