x2581-x0731
     RDKit          3D

 43 47  0  0  0  0  0  0  0  0999 V2000
    0.7200   -1.0080   25.9910 C   0  0  0  0  0  0  0  0  0  0  0  0
    6.1330   -4.7290   26.7440 O   0  0  0  0  0  0  0  0  0  0  0  0
    4.6140   -6.5340   25.8790 O   0  0  0  0  0  0  0  0  0  0  0  0
    5.4000   -5.1120   20.0480 O   0  0  0  0  0  0  0  0  0  0  0  0
    6.3620   -4.5190   20.5420 C   0  0  0  0  0  0  0  0  0  0  0  0
    7.0470   -3.4480   19.7200 C   0  0  0  0  0  0  0  0  0  0  0  0
    5.1290   -5.1850   25.8230 S   0  0  0  0  0  0  0  0  0  0  0  0
    9.9310   -2.6260   23.3270 C   0  0  0  0  0  0  0  0  0  0  0  0
   10.0230   -1.3180   23.7790 O   0  0  0  0  0  0  0  0  0  0  0  0
   10.5670    3.3070   22.1380 N   0  0  0  0  0  0  0  0  0  0  0  0
   11.0230    3.5920   24.2000 O   0  0  0  0  0  0  0  0  0  0  0  0
   11.1630    3.9570   23.0480 C   0  0  0  0  0  0  0  0  0  0  0  0
   11.9150    5.0940   22.7860 C   0  0  0  0  0  0  0  0  0  0  0  0
    8.0980   -3.9980   23.7690 C   0  0  0  0  0  0  0  0  0  0  0  0
    8.6150   -3.0080   22.9350 C   0  0  0  0  0  0  0  0  0  0  0  0
    1.8370   -2.0220   25.9570 C   0  0  0  0  0  0  0  0  0  0  0  0
    1.6300   -3.3070   25.4240 C   0  0  0  0  0  0  0  0  0  0  0  0
    2.6590   -4.2480   25.3940 C   0  0  0  0  0  0  0  0  0  0  0  0
    3.9520   -4.0240   25.8720 C   0  0  0  0  0  0  0  0  0  0  0  0
    4.1980   -2.7580   26.4030 C   0  0  0  0  0  0  0  0  0  0  0  0
    3.2510   -1.7320   26.4870 C   0  0  0  0  0  0  0  0  0  0  0  0
    6.8610   -4.8600   21.8080 N   0  0  0  0  0  0  0  0  0  0  0  0
    7.0160   -3.7830   22.8160 C   0  0  1  0  0  0  0  0  0  0  0  0
    5.8700   -3.6950   23.5880 C   0  0  0  0  0  0  0  0  0  0  0  0
    5.7350   -5.0310   24.2640 N   0  0  0  0  0  0  0  0  0  0  0  0
    5.4260   -6.0620   23.2460 C   0  0  0  0  0  0  0  0  0  0  0  0
    6.5040   -6.1600   22.3770 C   0  0  0  0  0  0  0  0  0  0  0  0
    8.7800    1.7790   21.1610 N   0  0  0  0  0  0  0  0  0  0  0  0
    9.8790    1.9840   22.1120 C   0  0  0  0  0  0  0  0  0  0  0  0
   10.2340    0.8930   22.9330 C   0  0  0  0  0  0  0  0  0  0  0  0
    9.5970   -0.3510   22.9080 C   0  0  0  0  0  0  0  0  0  0  0  0
    8.4660   -0.5000   21.8900 C   0  0  0  0  0  0  0  0  0  0  0  0
    8.0890    0.5160   21.0700 C   0  0  0  0  0  0  0  0  0  0  0  0
    9.9260    6.6390   22.8150 C   0  0  0  0  0  0  0  0  0  0  0  0
    9.2110    7.6970   23.3250 C   0  0  0  0  0  0  0  0  0  0  0  0
    9.6220    8.5900   24.4990 C   0  0  0  0  0  0  0  0  0  0  0  0
   10.9540    8.2560   25.1520 C   0  0  0  0  0  0  0  0  0  0  0  0
   11.6830    7.0750   24.5400 C   0  0  0  0  0  0  0  0  0  0  0  0
   11.1670    6.2690   23.3680 C   0  0  0  0  0  0  0  0  0  0  0  0
    8.8600    9.6590   24.9660 C   0  0  0  0  0  0  0  0  0  0  0  0
    9.2980   10.5400   26.1310 C   0  0  0  0  0  0  0  0  0  0  0  0
   10.6550   10.1840   26.7880 C   0  0  0  0  0  0  0  0  0  0  0  0
   11.4410    8.9970   26.2260 C   0  0  0  0  0  0  0  0  0  0  0  0
  4  5  2  0
  5  6  1  0
  2  7  2  0
  3  7  2  0
  8  9  1  0
 10 12  1  0
 11 12  2  0
 12 13  1  0
  8 15  1  0
 14 15  1  0
  1 16  1  0
 16 17  2  0
 17 18  1  0
  7 19  1  0
 18 19  2  0
 19 20  1  0
 16 21  1  0
 20 21  2  0
  5 22  1  0
 23 14  1  1
 22 23  1  0
 23 24  1  0
  7 25  1  0
 24 25  1  0
 25 26  1  0
 22 27  1  0
 26 27  1  0
 10 29  1  0
 28 29  2  0
 29 30  1  0
  9 31  1  0
 30 31  2  0
 31 32  1  0
 28 33  1  0
 32 33  2  0
 34 35  2  0
 35 36  1  0
 36 37  2  0
 37 38  1  0
 13 39  1  0
 34 39  1  0
 38 39  2  0
 36 40  1  0
 40 41  2  0
 41 42  1  0
 37 43  1  0
 42 43  2  0
M  END
