x2581-x1384
     RDKit          3D

 39 44  0  0  0  0  0  0  0  0999 V2000
    9.6350   -2.5720   23.6960 C   0  0  0  0  0  0  0  0  0  0  0  0
   10.4370   -1.3950   23.8430 O   0  0  0  0  0  0  0  0  0  0  0  0
   10.1440    3.3840   22.2590 N   0  0  0  0  0  0  0  0  0  0  0  0
   11.6590    2.9680   23.8220 O   0  0  0  0  0  0  0  0  0  0  0  0
   11.2980    3.7770   22.9970 C   0  0  0  0  0  0  0  0  0  0  0  0
   11.9200    5.0960   22.7160 C   0  0  0  0  0  0  0  0  0  0  0  0
    6.6540   -3.3440   21.7240 N   0  0  0  0  0  0  0  0  0  0  0  0
    7.3340   -3.0690   19.3040 C   0  0  0  0  0  0  0  0  0  0  0  0
    5.5060   -4.4680   19.9600 O   0  0  0  0  0  0  0  0  0  0  0  0
    6.4040   -3.6970   20.3560 C   0  0  0  0  0  0  0  0  0  0  0  0
    8.9580   -2.8870   22.3560 C   0  0  0  0  0  0  0  0  0  0  0  0
    7.8690   -3.7490   22.4810 C   0  0  0  0  0  0  0  0  0  0  0  0
    8.7670    1.6990   21.2070 N   0  0  0  0  0  0  0  0  0  0  0  0
    9.7230    1.9950   22.1720 C   0  0  0  0  0  0  0  0  0  0  0  0
   10.3530    0.9690   23.1290 C   0  0  0  0  0  0  0  0  0  0  0  0
    9.9530   -0.3730   23.0440 C   0  0  0  0  0  0  0  0  0  0  0  0
    8.9840   -0.6030   22.0480 C   0  0  0  0  0  0  0  0  0  0  0  0
    8.4210    0.3510   21.1900 C   0  0  0  0  0  0  0  0  0  0  0  0
    9.8180    6.7590   22.8020 C   0  0  0  0  0  0  0  0  0  0  0  0
    9.1390    7.8310   23.3700 C   0  0  0  0  0  0  0  0  0  0  0  0
    9.6360    8.5450   24.4620 C   0  0  0  0  0  0  0  0  0  0  0  0
   10.8790    8.1450   25.0030 C   0  0  0  0  0  0  0  0  0  0  0  0
   11.6470    6.9630   24.4010 C   0  0  0  0  0  0  0  0  0  0  0  0
   11.1630    6.2560   23.3130 C   0  0  0  0  0  0  0  0  0  0  0  0
    8.9320    9.6340   25.0010 C   0  0  0  0  0  0  0  0  0  0  0  0
    9.4530   10.3410   26.0850 C   0  0  0  0  0  0  0  0  0  0  0  0
   10.6570   10.0230   26.6840 C   0  0  0  0  0  0  0  0  0  0  0  0
   11.4240    8.8300   26.0940 C   0  0  0  0  0  0  0  0  0  0  0  0
    5.8960   -2.1250   25.3670 O   0  0  0  0  0  0  0  0  0  0  0  0
    3.8550   -4.1790   23.9040 C   0  0  2  0  0  0  0  0  0  0  0  0
    5.0690   -3.9860   23.3960 C   0  0  2  0  0  0  0  0  0  0  0  0
    5.3220   -4.2340   24.6620 C   0  0  2  0  0  0  0  0  0  0  0  0
    5.5270   -5.7060   25.0160 C   0  0  0  0  0  0  0  0  0  0  0  0
    4.5560   -6.4810   24.1490 C   0  0  0  0  0  0  0  0  0  0  0  0
    3.5330   -5.6160   23.4700 C   0  0  0  0  0  0  0  0  0  0  0  0
    5.1980   -3.3110   25.6800 C   0  0  2  0  0  0  0  0  0  0  0  0
    3.7910   -2.8410   25.7630 C   0  0  0  0  0  0  0  0  0  0  0  0
    2.7890   -3.3310   24.6940 C   0  0  0  0  0  0  0  0  0  0  0  0
    5.5530   -2.8360   22.5880 C   0  0  0  0  0  0  0  0  0  0  0  0
  1  2  1  0
  3  5  1  0
  4  5  2  0
  5  6  1  0
  7 10  1  0
  8 10  1  0
  9 10  2  0
  1 11  1  0
  7 12  1  0
 11 12  1  0
  3 14  1  0
 13 14  2  0
 14 15  1  0
  2 16  1  0
 15 16  2  0
 16 17  1  0
 13 18  1  0
 17 18  2  0
 19 20  2  0
 20 21  1  0
 21 22  2  0
 22 23  1  0
  6 24  1  0
 19 24  1  0
 23 24  2  0
 21 25  1  0
 25 26  2  0
 26 27  1  0
 22 28  1  0
 27 28  2  0
 30 31  1  0
 30 32  1  0
 31 32  1  0
 32 33  1  6
 33 34  1  0
 30 35  1  6
 34 35  2  0
 36 29  1  6
 32 36  1  0
 36 37  1  0
 30 38  1  0
 37 38  2  0
  7 39  1  0
 31 39  1  1
M  END
