x2581-x0354
     RDKit          3D

 40 45  0  0  0  0  0  0  0  0999 V2000
   10.1160   -2.4870   23.0320 C   0  0  0  0  0  0  0  0  0  0  0  0
   10.7580   -1.3960   22.8480 N   0  0  0  0  0  0  0  0  0  0  0  0
   10.1280    3.4940   22.3320 N   0  0  0  0  0  0  0  0  0  0  0  0
   12.3000    2.8930   23.3850 O   0  0  0  0  0  0  0  0  0  0  0  0
   11.4670    3.7640   22.8180 C   0  0  0  0  0  0  0  0  0  0  0  0
   12.0190    5.1360   22.6700 C   0  0  0  0  0  0  0  0  0  0  0  0
   13.1710   -1.4470   22.7970 C   0  0  0  0  0  0  0  0  0  0  0  0
    7.6520   -2.2200   25.1970 O   0  0  0  0  0  0  0  0  0  0  0  0
    7.4050   -0.6210   27.3090 O   0  0  0  0  0  0  0  0  0  0  0  0
    8.5250   -1.4430   25.5530 C   0  0  0  0  0  0  0  0  0  0  0  0
    8.1650   -0.3490   26.3640 C   0  0  0  0  0  0  0  0  0  0  0  0
    5.6460    3.7180   31.0230 C   0  0  0  0  0  0  0  0  0  0  0  0
    8.6000    2.0790   21.3140 N   0  0  0  0  0  0  0  0  0  0  0  0
    9.7470    2.2290   22.1100 C   0  0  0  0  0  0  0  0  0  0  0  0
   10.5100    1.0320   22.6640 C   0  0  0  0  0  0  0  0  0  0  0  0
   10.0920   -0.2690   22.3890 C   0  0  0  0  0  0  0  0  0  0  0  0
    8.9450   -0.3350   21.6020 C   0  0  0  0  0  0  0  0  0  0  0  0
    8.2330    0.7530   21.0930 C   0  0  0  0  0  0  0  0  0  0  0  0
    9.8300    6.7140   22.7800 C   0  0  0  0  0  0  0  0  0  0  0  0
    9.1680    7.7650   23.3990 C   0  0  0  0  0  0  0  0  0  0  0  0
    9.6190    8.5140   24.4740 C   0  0  0  0  0  0  0  0  0  0  0  0
   10.8890    8.1520   24.9910 C   0  0  0  0  0  0  0  0  0  0  0  0
   11.6780    6.9900   24.3540 C   0  0  0  0  0  0  0  0  0  0  0  0
   11.2030    6.2600   23.2680 C   0  0  0  0  0  0  0  0  0  0  0  0
    8.8970    9.5770   25.0370 C   0  0  0  0  0  0  0  0  0  0  0  0
    9.4130   10.2890   26.1060 C   0  0  0  0  0  0  0  0  0  0  0  0
   10.6360   10.0020   26.6680 C   0  0  0  0  0  0  0  0  0  0  0  0
   11.4530    8.8410   26.0770 C   0  0  0  0  0  0  0  0  0  0  0  0
   11.9300   -1.4910   23.6540 C   0  0  2  0  0  0  0  0  0  0  0  0
   11.8050   -2.6030   24.4280 C   0  0  0  0  0  0  0  0  0  0  0  0
   10.4320   -2.7220   24.5000 C   0  0  1  0  0  0  0  0  0  0  0  0
    9.8450   -1.5790   25.2370 N   0  0  0  0  0  0  0  0  0  0  0  0
   10.6460   -0.3850   25.2950 C   0  0  0  0  0  0  0  0  0  0  0  0
   11.9310   -0.3730   24.4720 C   0  0  0  0  0  0  0  0  0  0  0  0
    7.8290    1.7010   28.2960 C   0  0  0  0  0  0  0  0  0  0  0  0
    7.3610    2.7860   29.2460 C   0  0  0  0  0  0  0  0  0  0  0  0
    6.0990    2.6210   30.0850 C   0  0  0  0  0  0  0  0  0  0  0  0
    5.3040    1.3150   29.9450 C   0  0  0  0  0  0  0  0  0  0  0  0
    5.7900    0.2100   28.9720 C   0  0  0  0  0  0  0  0  0  0  0  0
    7.0590    0.4030   28.1410 C   0  0  0  0  0  0  0  0  0  0  0  0
  1  2  1  0
  3  5  1  0
  4  5  2  0
  5  6  1  0
  8 10  2  0
  9 11  1  0
 10 11  1  0
  3 14  1  0
 13 14  2  0
 14 15  1  0
  2 16  1  0
 15 16  2  0
 16 17  1  0
 13 18  1  0
 17 18  2  0
 19 20  2  0
 20 21  1  0
 21 22  2  0
 22 23  1  0
  6 24  1  0
 19 24  1  0
 23 24  2  0
 21 25  1  0
 25 26  2  0
 26 27  1  0
 22 28  1  0
 27 28  2  0
  2 29  1  0
 29  7  1  6
 29 30  1  0
 31  1  1  6
 30 31  1  0
 10 32  1  0
 31 32  1  0
 32 33  1  0
 29 34  1  0
 33 34  1  0
 35 36  2  0
 12 37  1  0
 36 37  1  0
 37 38  2  0
 38 39  1  0
  9 40  1  0
 35 40  1  0
 39 40  2  0
M  END
