x2581-x1351
     RDKit          3D

 42 46  0  0  0  0  0  0  0  0999 V2000
    9.6640   -2.5420   23.3990 C   0  0  0  0  0  0  0  0  0  0  0  0
   10.4760   -1.3710   23.5020 O   0  0  0  0  0  0  0  0  0  0  0  0
   10.5290    3.3380   22.1510 N   0  0  0  0  0  0  0  0  0  0  0  0
   10.9980    3.6510   24.3490 O   0  0  0  0  0  0  0  0  0  0  0  0
   11.1520    4.0590   23.2150 C   0  0  0  0  0  0  0  0  0  0  0  0
   11.8930    5.2750   22.8380 C   0  0  0  0  0  0  0  0  0  0  0  0
    7.1390   -3.2370   19.2810 C   0  0  0  0  0  0  0  0  0  0  0  0
    5.1060   -4.4140   19.7930 O   0  0  0  0  0  0  0  0  0  0  0  0
    6.1830   -4.0170   20.1890 C   0  0  0  0  0  0  0  0  0  0  0  0
    5.6550   -2.9040   25.2300 N   0  0  0  0  0  0  0  0  0  0  0  0
    7.9130   -2.5660   26.0870 N   0  0  0  0  0  0  0  0  0  0  0  0
    6.6300   -2.2010   26.0640 C   0  0  0  0  0  0  0  0  0  0  0  0
    9.6300   -3.2390   24.7320 C   0  0  0  0  0  0  0  0  0  0  0  0
    8.4300   -3.6040   25.3130 C   0  0  0  0  0  0  0  0  0  0  0  0
    8.8000    1.7440   21.2470 N   0  0  0  0  0  0  0  0  0  0  0  0
    9.9600    2.0130   22.1070 C   0  0  0  0  0  0  0  0  0  0  0  0
   10.4880    0.9420   22.8370 C   0  0  0  0  0  0  0  0  0  0  0  0
    9.9580   -0.3440   22.7830 C   0  0  0  0  0  0  0  0  0  0  0  0
    8.8570   -0.6100   21.9680 C   0  0  0  0  0  0  0  0  0  0  0  0
    8.2630    0.3850   21.2030 C   0  0  0  0  0  0  0  0  0  0  0  0
    9.9590    6.8120   22.8150 C   0  0  0  0  0  0  0  0  0  0  0  0
    9.1800    7.8850   23.2700 C   0  0  0  0  0  0  0  0  0  0  0  0
    9.6470    8.6240   24.3760 C   0  0  0  0  0  0  0  0  0  0  0  0
   10.9700    8.2570   25.0630 C   0  0  0  0  0  0  0  0  0  0  0  0
   11.6910    7.1960   24.5840 C   0  0  0  0  0  0  0  0  0  0  0  0
   11.1710    6.4310   23.4010 C   0  0  0  0  0  0  0  0  0  0  0  0
    8.9340    9.7110   24.8790 C   0  0  0  0  0  0  0  0  0  0  0  0
    9.3660   10.4630   25.9560 C   0  0  0  0  0  0  0  0  0  0  0  0
   10.7000   10.0830   26.6410 C   0  0  0  0  0  0  0  0  0  0  0  0
   11.4250    9.0030   26.1580 C   0  0  0  0  0  0  0  0  0  0  0  0
    6.5730   -4.3120   21.4730 N   0  0  0  0  0  0  0  0  0  0  0  0
    7.4970   -3.4010   22.1510 C   0  0  0  0  0  0  0  0  0  0  0  0
    6.8290   -2.7670   23.1740 C   0  0  0  0  0  0  0  0  0  0  0  0
    6.1480   -3.7340   24.1380 C   0  0  0  0  0  0  0  0  0  0  0  0
    4.9970   -4.3720   23.3850 C   0  0  0  0  0  0  0  0  0  0  0  0
    5.7190   -5.1900   22.3070 C   0  0  0  0  0  0  0  0  0  0  0  0
    6.7490   -0.8520   28.2820 C   0  0  0  0  0  0  0  0  0  0  0  0
    6.3460    0.3700   29.0840 C   0  0  0  0  0  0  0  0  0  0  0  0
    5.4160    1.4150   28.5010 C   0  0  0  0  0  0  0  0  0  0  0  0
    4.8670    1.2350   27.0760 C   0  0  0  0  0  0  0  0  0  0  0  0
    5.2680    0.0040   26.2520 C   0  0  0  0  0  0  0  0  0  0  0  0
    6.2140   -1.0340   26.8600 C   0  0  0  0  0  0  0  0  0  0  0  0
  1  2  1  0
  3  5  1  0
  4  5  2  0
  5  6  1  0
  7  9  1  0
  8  9  2  0
 10 12  1  0
 11 12  2  3
  1 13  1  0
 11 14  1  0
 13 14  1  0
  3 16  1  0
 15 16  2  0
 16 17  1  0
  2 18  1  0
 17 18  2  0
 18 19  1  0
 15 20  1  0
 19 20  2  0
 21 22  2  0
 22 23  1  0
 23 24  2  0
 24 25  1  0
  6 26  1  0
 21 26  1  0
 25 26  2  0
 23 27  1  0
 27 28  2  0
 28 29  1  0
 24 30  1  0
 29 30  2  0
  9 31  1  0
 31 32  1  0
 32 33  1  0
 10 34  1  0
 33 34  1  0
 34 35  1  0
 31 36  1  0
 35 36  1  0
 37 38  2  0
 38 39  1  0
 39 40  2  0
 40 41  1  0
 12 42  1  0
 37 42  1  0
 41 42  2  0
M  END
