x2581-x1458
     RDKit          3D

 39 42  0  0  0  0  0  0  0  0999 V2000
    7.1370   -3.5150   26.6160 N   0  0  0  0  0  0  0  0  0  0  0  0
    8.8280   -5.4210   26.9050 C   0  0  0  0  0  0  0  0  0  0  0  0
    5.0350   -3.5070   25.8910 O   0  0  0  0  0  0  0  0  0  0  0  0
    7.6080   -4.6720   27.3740 C   0  0  0  0  0  0  0  0  0  0  0  0
    5.4700   -4.7550   20.0130 O   0  0  0  0  0  0  0  0  0  0  0  0
    6.5240   -5.6660   27.5770 C   0  0  0  0  0  0  0  0  0  0  0  0
    7.6480   -2.1040   26.7260 C   0  0  0  0  0  0  0  0  0  0  0  0
    6.2380   -3.6950   25.7000 C   0  0  0  0  0  0  0  0  0  0  0  0
    6.5150   -4.1970   20.3820 C   0  0  0  0  0  0  0  0  0  0  0  0
    7.2990   -3.3260   19.4200 C   0  0  0  0  0  0  0  0  0  0  0  0
    9.9750   -2.7540   22.6250 C   0  0  0  0  0  0  0  0  0  0  0  0
   10.1040   -1.5190   23.3340 O   0  0  0  0  0  0  0  0  0  0  0  0
   10.6430    3.3110   22.1870 N   0  0  0  0  0  0  0  0  0  0  0  0
   11.0120    3.7420   24.4110 O   0  0  0  0  0  0  0  0  0  0  0  0
   11.1390    3.9870   23.2370 C   0  0  0  0  0  0  0  0  0  0  0  0
   11.8210    5.1000   22.7650 C   0  0  0  0  0  0  0  0  0  0  0  0
    8.9410   -3.5620   23.1120 C   0  0  0  0  0  0  0  0  0  0  0  0
    7.0880   -4.4140   21.6700 N   0  0  0  0  0  0  0  0  0  0  0  0
    7.6870   -3.3980   22.4610 C   0  0  1  0  0  0  0  0  0  0  0  0
    6.8550   -3.0490   23.4780 C   0  0  0  0  0  0  0  0  0  0  0  0
    6.7130   -4.1250   24.3490 C   0  0  2  0  0  0  0  0  0  0  0  0
    5.9540   -5.1080   23.6950 C   0  0  0  0  0  0  0  0  0  0  0  0
    6.5830   -5.5400   22.5040 C   0  0  0  0  0  0  0  0  0  0  0  0
    8.9460    1.9480   21.3400 N   0  0  0  0  0  0  0  0  0  0  0  0
   10.0310    1.9840   22.1660 C   0  0  0  0  0  0  0  0  0  0  0  0
   10.4820    0.8590   22.8680 C   0  0  0  0  0  0  0  0  0  0  0  0
    9.6910   -0.4240   22.6710 C   0  0  0  0  0  0  0  0  0  0  0  0
    8.6080   -0.3780   21.8240 C   0  0  0  0  0  0  0  0  0  0  0  0
    8.2720    0.7890   21.1940 C   0  0  0  0  0  0  0  0  0  0  0  0
    9.7740    6.7790   22.7890 C   0  0  0  0  0  0  0  0  0  0  0  0
    9.1420    7.8730   23.3690 C   0  0  0  0  0  0  0  0  0  0  0  0
    9.6330    8.6160   24.4700 C   0  0  0  0  0  0  0  0  0  0  0  0
   10.8520    8.2340   25.0420 C   0  0  0  0  0  0  0  0  0  0  0  0
   11.6310    7.0610   24.5060 C   0  0  0  0  0  0  0  0  0  0  0  0
   11.1100    6.2820   23.3410 C   0  0  0  0  0  0  0  0  0  0  0  0
    8.8960    9.7050   24.9430 C   0  0  0  0  0  0  0  0  0  0  0  0
    9.3940   10.5340   26.1140 C   0  0  0  0  0  0  0  0  0  0  0  0
   10.7170   10.1390   26.7570 C   0  0  0  0  0  0  0  0  0  0  0  0
   11.4020    8.9310   26.1330 C   0  0  0  0  0  0  0  0  0  0  0  0
  1  4  1  0
  2  4  1  0
  4  6  1  0
  1  7  1  0
  1  8  1  0
  3  8  2  0
  5  9  2  0
  9 10  1  0
 11 12  1  0
 13 15  1  0
 14 15  2  0
 15 16  1  0
 11 17  1  0
  9 18  1  0
 19 17  1  1
 18 19  1  0
 19 20  1  0
 21  8  1  1
 20 21  1  0
 21 22  1  0
 18 23  1  0
 22 23  1  0
 13 25  1  0
 24 25  2  0
 25 26  1  0
 12 27  1  0
 26 27  2  0
 27 28  1  0
 24 29  1  0
 28 29  2  0
 30 31  2  0
 31 32  1  0
 32 33  2  0
 33 34  1  0
 16 35  1  0
 30 35  1  0
 34 35  2  0
 32 36  1  0
 36 37  2  0
 37 38  1  0
 33 39  1  0
 38 39  2  0
M  END
