x2581-x2563
     RDKit          3D

 33 37  0  0  0  0  0  0  0  0999 V2000
   10.6260   -2.5310   23.8800 C   0  0  0  0  0  0  0  0  0  0  0  0
   10.8480   -1.1310   24.0780 O   0  0  0  0  0  0  0  0  0  0  0  0
   10.1820    3.1890   22.1510 N   0  0  0  0  0  0  0  0  0  0  0  0
   11.1940    3.1200   24.1590 O   0  0  0  0  0  0  0  0  0  0  0  0
   11.0810    3.7490   23.1300 C   0  0  0  0  0  0  0  0  0  0  0  0
   11.7690    5.0330   22.8180 C   0  0  0  0  0  0  0  0  0  0  0  0
    7.6100   -0.6670   20.6140 C   0  0  0  0  0  0  0  0  0  0  0  0
    8.8420    1.3690   21.3010 N   0  0  0  0  0  0  0  0  0  0  0  0
    9.8110    1.9510   22.1330 C   0  0  0  0  0  0  0  0  0  0  0  0
   10.4250    1.0340   23.0250 C   0  0  0  0  0  0  0  0  0  0  0  0
   10.2040   -0.3360   23.1870 C   0  0  0  0  0  0  0  0  0  0  0  0
    9.2590   -0.8900   22.3680 C   0  0  0  0  0  0  0  0  0  0  0  0
    8.5600    0.0130   21.3970 C   0  0  0  0  0  0  0  0  0  0  0  0
    9.8660    6.6320   22.8670 C   0  0  0  0  0  0  0  0  0  0  0  0
    9.1700    7.7190   23.3520 C   0  0  0  0  0  0  0  0  0  0  0  0
    9.6570    8.4700   24.4160 C   0  0  0  0  0  0  0  0  0  0  0  0
   10.9000    8.0690   24.9830 C   0  0  0  0  0  0  0  0  0  0  0  0
   11.6320    6.9480   24.4980 C   0  0  0  0  0  0  0  0  0  0  0  0
   11.0790    6.2420   23.4190 C   0  0  0  0  0  0  0  0  0  0  0  0
    8.9540    9.5880   24.9040 C   0  0  0  0  0  0  0  0  0  0  0  0
    9.5310   10.3910   26.0670 C   0  0  0  0  0  0  0  0  0  0  0  0
   10.7430    9.9980   26.6240 C   0  0  0  0  0  0  0  0  0  0  0  0
   11.4650    8.7760   26.0560 C   0  0  0  0  0  0  0  0  0  0  0  0
    6.2410    0.8400   17.4990 N   0  0  0  0  0  0  0  0  0  0  0  0
    5.1260    1.4740   17.9240 C   0  0  0  0  0  0  0  0  0  0  0  0
    4.6770    1.4900   19.2200 C   0  0  0  0  0  0  0  0  0  0  0  0
    5.5180    0.7370   20.2710 C   0  0  0  0  0  0  0  0  0  0  0  0
    6.6480    0.1160   19.7950 C   0  0  0  0  0  0  0  0  0  0  0  0
    6.9840    0.1650   18.4800 C   0  0  0  0  0  0  0  0  0  0  0  0
    3.4250    2.1890   19.6880 C   0  0  0  0  0  0  0  0  0  0  0  0
    2.9860    2.1650   21.1480 C   0  0  0  0  0  0  0  0  0  0  0  0
    3.8620    1.4060   22.1380 C   0  0  0  0  0  0  0  0  0  0  0  0
    5.1150    0.7150   21.6150 C   0  0  0  0  0  0  0  0  0  0  0  0
  1  2  1  0
  3  5  1  0
  4  5  2  0
  5  6  1  0
  3  9  1  0
  8  9  2  0
  9 10  1  0
  2 11  1  0
 10 11  2  0
 11 12  1  0
  7 13  1  0
  8 13  1  0
 12 13  2  0
 14 15  2  0
 15 16  1  0
 16 17  2  0
 17 18  1  0
  6 19  1  0
 14 19  1  0
 18 19  2  0
 16 20  1  0
 20 21  2  0
 21 22  1  0
 17 23  1  0
 22 23  2  0
 24 25  2  0
 25 26  1  0
 26 27  2  0
  7 28  1  0
 27 28  1  0
 24 29  1  0
 28 29  2  0
 26 30  1  0
 30 31  2  0
 31 32  1  0
 27 33  1  0
 32 33  2  0
M  END
