x2581-x0734
     RDKit          3D

 41 45  0  0  0  0  0  0  0  0999 V2000
    9.8680   -2.2210   24.4100 C   0  0  0  0  0  0  0  0  0  0  0  0
   10.6350   -1.1480   23.8810 O   0  0  0  0  0  0  0  0  0  0  0  0
   10.2220    3.3510   22.1810 N   0  0  0  0  0  0  0  0  0  0  0  0
   11.3760    3.2510   24.0600 O   0  0  0  0  0  0  0  0  0  0  0  0
   11.1850    3.9040   23.0670 C   0  0  0  0  0  0  0  0  0  0  0  0
   11.8210    5.1950   22.7190 C   0  0  0  0  0  0  0  0  0  0  0  0
    5.1560   -4.8390   26.1980 N   0  0  0  0  0  0  0  0  0  0  0  0
    4.5260   -5.6540   25.5090 O   0  0  0  0  0  0  0  0  0  0  0  0
    4.6600   -3.8330   26.7260 O   0  0  0  0  0  0  0  0  0  0  0  0
    5.0150   -4.2940   19.6850 O   0  0  0  0  0  0  0  0  0  0  0  0
    6.0840   -3.8260   19.9960 C   0  0  0  0  0  0  0  0  0  0  0  0
    7.0430   -3.1290   19.0330 C   0  0  0  0  0  0  0  0  0  0  0  0
    9.2010   -3.2200   23.4690 C   0  0  0  0  0  0  0  0  0  0  0  0
    8.8300    1.5820   21.2410 N   0  0  0  0  0  0  0  0  0  0  0  0
    9.7700    1.9650   22.1140 C   0  0  0  0  0  0  0  0  0  0  0  0
   10.4080    1.1140   23.0160 C   0  0  0  0  0  0  0  0  0  0  0  0
    9.9920   -0.3420   22.9830 C   0  0  0  0  0  0  0  0  0  0  0  0
    9.0120   -0.7340   22.0680 C   0  0  0  0  0  0  0  0  0  0  0  0
    8.4820    0.2730   21.2430 C   0  0  0  0  0  0  0  0  0  0  0  0
    9.8630    6.7420   22.8110 C   0  0  0  0  0  0  0  0  0  0  0  0
    9.1580    7.8020   23.3550 C   0  0  0  0  0  0  0  0  0  0  0  0
    9.6680    8.5170   24.4480 C   0  0  0  0  0  0  0  0  0  0  0  0
   10.9090    8.2040   25.0600 C   0  0  0  0  0  0  0  0  0  0  0  0
   11.6390    7.1350   24.5350 C   0  0  0  0  0  0  0  0  0  0  0  0
   11.0950    6.3570   23.3410 C   0  0  0  0  0  0  0  0  0  0  0  0
    8.9320    9.5860   24.9510 C   0  0  0  0  0  0  0  0  0  0  0  0
    9.4670   10.3830   26.1280 C   0  0  0  0  0  0  0  0  0  0  0  0
   10.6950   10.0120   26.6790 C   0  0  0  0  0  0  0  0  0  0  0  0
   11.3990    8.9430   26.1520 C   0  0  0  0  0  0  0  0  0  0  0  0
    6.5900   -5.0040   26.3160 C   0  0  0  0  0  0  0  0  0  0  0  0
    7.4620   -4.6970   25.2800 C   0  0  0  0  0  0  0  0  0  0  0  0
    8.8580   -4.8400   25.3550 C   0  0  0  0  0  0  0  0  0  0  0  0
    9.4250   -5.3070   26.5080 C   0  0  0  0  0  0  0  0  0  0  0  0
    8.6300   -5.6890   27.7340 C   0  0  0  0  0  0  0  0  0  0  0  0
    7.1290   -5.5340   27.6480 C   0  0  0  0  0  0  0  0  0  0  0  0
    6.4910   -3.9450   21.2950 N   0  0  0  0  0  0  0  0  0  0  0  0
    6.5380   -5.2740   21.8890 C   0  0  0  0  0  0  0  0  0  0  0  0
    6.0900   -5.1380   23.3310 C   0  0  0  0  0  0  0  0  0  0  0  0
    6.9900   -4.2110   24.0680 N   0  0  0  0  0  0  0  0  0  0  0  0
    7.6760   -3.1230   23.3710 C   0  0  2  0  0  0  0  0  0  0  0  0
    7.2210   -2.8660   21.9540 C   0  0  0  0  0  0  0  0  0  0  0  0
  1  2  1  0
  3  5  1  0
  4  5  2  0
  5  6  1  0
  7  8  2  0
  7  9  1  0
 10 11  2  0
 11 12  1  0
  1 13  1  0
  3 15  1  0
 14 15  2  0
 15 16  1  0
  2 17  1  0
 16 17  2  0
 17 18  1  0
 14 19  1  0
 18 19  2  0
 20 21  2  0
 21 22  1  0
 22 23  2  0
 23 24  1  0
  6 25  1  0
 20 25  1  0
 24 25  2  0
 22 26  1  0
 26 27  2  0
 27 28  1  0
 23 29  1  0
 28 29  2  0
  7 30  1  0
 30 31  2  0
 31 32  1  0
 32 33  2  0
 33 34  1  0
 30 35  1  0
 34 35  2  0
 11 36  1  0
 36 37  1  0
 37 38  1  0
 31 39  1  0
 38 39  1  0
 40 13  1  6
 39 40  1  0
 36 41  1  0
 40 41  1  0
M  CHG  2   7   1   9  -1
M  END
