x2608-x3298
     RDKit          3D

 30 32  0  0  0  0  0  0  0  0999 V2000
    7.0420    2.0820   22.1660 N   0  0  0  0  0  0  0  0  0  0  0  0
    7.3970   -0.2340   21.5330 C   0  0  1  0  0  0  0  0  0  0  0  0
    6.5900   -0.7790   22.2950 O   0  0  0  0  0  0  0  0  0  0  0  0
    7.9100    1.1610   21.6210 C   0  0  0  0  0  0  0  0  0  0  0  0
    8.8450    1.2980   23.7870 N   0  0  0  0  0  0  0  0  0  0  0  0
    8.9950    1.5560   21.1960 O   0  0  0  0  0  0  0  0  0  0  0  0
   10.9710    1.9620   24.6070 O   0  0  0  0  0  0  0  0  0  0  0  0
    9.8640   -0.0800   25.6480 O   0  0  0  0  0  0  0  0  0  0  0  0
   13.4840   -2.3450   20.8110 F   0  0  0  0  0  0  0  0  0  0  0  0
   10.2190    0.7570   24.5070 S   0  0  0  0  0  0  0  0  0  0  0  0
    8.5910   -1.0620   21.3120 N   0  0  0  0  0  0  0  0  0  0  0  0
   12.7590    1.5910   23.2400 C   0  0  0  0  0  0  0  0  0  0  0  0
    6.2870    0.1980   17.6570 N   0  0  0  0  0  0  0  0  0  0  0  0
    6.9750   -0.1660   18.7650 C   0  0  0  0  0  0  0  0  0  0  0  0
    6.6050    0.1180   20.2360 C   0  0  0  0  0  0  0  0  0  0  0  0
    5.2870    0.8850   20.3560 C   0  0  0  0  0  0  0  0  0  0  0  0
    4.5610    1.2650   19.1390 C   0  0  0  0  0  0  0  0  0  0  0  0
    5.1400    0.8840   17.8170 C   0  0  0  0  0  0  0  0  0  0  0  0
    7.7640    4.5150   22.4260 C   0  0  0  0  0  0  0  0  0  0  0  0
    8.7770    5.4540   23.0990 C   0  0  0  0  0  0  0  0  0  0  0  0
    9.7570    4.9180   23.9490 C   0  0  0  0  0  0  0  0  0  0  0  0
    9.7660    3.5520   24.1560 C   0  0  0  0  0  0  0  0  0  0  0  0
    8.7700    2.6200   23.5150 C   0  0  0  0  0  0  0  0  0  0  0  0
    7.8410    3.1510   22.6850 C   0  0  0  0  0  0  0  0  0  0  0  0
   12.3020    0.3030   22.9040 C   0  0  0  0  0  0  0  0  0  0  0  0
   13.0490   -0.4340   22.0790 C   0  0  0  0  0  0  0  0  0  0  0  0
   12.7130   -1.6750   21.6380 C   0  0  0  0  0  0  0  0  0  0  0  0
   11.5120   -2.1410   22.1170 C   0  0  0  0  0  0  0  0  0  0  0  0
   10.6810   -1.4730   22.9830 C   0  0  0  0  0  0  0  0  0  0  0  0
   11.1220   -0.2150   23.3820 C   0  0  0  0  0  0  0  0  0  0  0  0
  2  3  1  0
  1  4  1  0
  2  4  1  0
  4  6  2  0
 10  5  1  0
  7 10  2  0
  8 10  2  0
  2 11  1  6
 13 14  2  0
  2 15  1  0
 14 15  1  0
 15 16  2  0
 16 17  1  0
 13 18  1  0
 17 18  2  0
 19 20  2  0
 20 21  1  0
 21 22  2  0
  5 23  1  0
 22 23  1  0
  1 24  1  0
 19 24  1  0
 23 24  2  0
 12 25  1  0
 25 26  2  0
  9 27  1  0
 26 27  1  0
 27 28  2  0
 28 29  1  0
 10 30  1  0
 25 30  1  0
 29 30  2  0
M  END
