x2608-x1351
     RDKit          3D

 35 38  0  0  0  0  0  0  0  0999 V2000
    6.9850   -3.2460   19.1870 C   0  0  0  0  0  0  0  0  0  0  0  0
    5.1110   -4.5850   19.8310 O   0  0  0  0  0  0  0  0  0  0  0  0
    6.1160   -4.0200   20.1620 C   0  0  0  0  0  0  0  0  0  0  0  0
    5.9740   -2.9410   25.4790 N   0  0  0  0  0  0  0  0  0  0  0  0
    7.8240   -2.8780   26.8950 O   0  0  0  0  0  0  0  0  0  0  0  0
    6.8160   -2.3240   26.4940 C   0  0  0  0  0  0  0  0  0  0  0  0
    8.8880   -1.1460   22.2400 N   0  0  0  0  0  0  0  0  0  0  0  0
   13.0100    1.7690   22.9200 C   0  0  0  0  0  0  0  0  0  0  0  0
    8.2910    0.7860   21.0460 O   0  0  0  0  0  0  0  0  0  0  0  0
    6.9160   -0.8490   20.9440 N   0  0  0  0  0  0  0  0  0  0  0  0
    8.0870   -0.3780   21.4340 C   0  0  0  0  0  0  0  0  0  0  0  0
    6.3330   -1.7500   21.6230 C   0  0  0  0  0  0  0  0  0  0  0  0
    6.5930   -4.0730   21.5150 N   0  0  0  0  0  0  0  0  0  0  0  0
    7.1850   -2.9580   21.9760 C   0  0  2  0  0  0  0  0  0  0  0  0
    7.5050   -2.9340   23.4540 C   0  0  0  0  0  0  0  0  0  0  0  0
    6.5460   -3.6800   24.3470 C   0  0  2  0  0  0  0  0  0  0  0  0
    5.5050   -4.4680   23.5720 C   0  0  0  0  0  0  0  0  0  0  0  0
    6.0860   -4.9690   22.4010 C   0  0  0  0  0  0  0  0  0  0  0  0
    7.1010   -0.6080   28.1510 C   0  0  0  0  0  0  0  0  0  0  0  0
    6.7460    0.7510   28.7320 C   0  0  0  0  0  0  0  0  0  0  0  0
    5.7700    1.5330   28.0970 C   0  0  0  0  0  0  0  0  0  0  0  0
    5.1630    1.0240   26.9500 C   0  0  0  0  0  0  0  0  0  0  0  0
    5.5010   -0.2350   26.4240 C   0  0  0  0  0  0  0  0  0  0  0  0
    6.4670   -1.0650   27.0100 C   0  0  0  0  0  0  0  0  0  0  0  0
   12.0520    0.6600   22.7560 C   0  0  0  0  0  0  0  0  0  0  0  0
   12.4470   -0.6520   22.7040 C   0  0  0  0  0  0  0  0  0  0  0  0
   11.3560   -1.4770   22.5190 C   0  0  0  0  0  0  0  0  0  0  0  0
   10.1850   -0.7560   22.4420 C   0  0  0  0  0  0  0  0  0  0  0  0
   10.3770    0.9110   22.6080 S   0  0  0  0  0  0  0  0  0  0  0  0
    6.0490    0.6870   17.7050 N   0  0  0  0  0  0  0  0  0  0  0  0
    6.7140   -0.0690   18.6390 C   0  0  0  0  0  0  0  0  0  0  0  0
    6.2130   -0.0780   19.9390 C   0  0  0  0  0  0  0  0  0  0  0  0
    5.0750    0.6240   20.3420 C   0  0  0  0  0  0  0  0  0  0  0  0
    4.4360    1.3770   19.3700 C   0  0  0  0  0  0  0  0  0  0  0  0
    4.9510    1.3870   18.0840 C   0  0  0  0  0  0  0  0  0  0  0  0
  1  3  1  0
  2  3  2  0
  4  6  1  0
  5  6  2  0
  7 11  1  0
  9 11  2  0
 10 11  1  0
 10 12  1  0
  3 13  1  0
 14 12  1  1
 13 14  1  0
 14 15  1  0
 16  4  1  1
 15 16  1  0
 16 17  1  0
 13 18  1  0
 17 18  1  0
 19 20  2  0
 20 21  1  0
 21 22  2  0
 22 23  1  0
  6 24  1  0
 19 24  1  0
 23 24  2  0
  8 25  1  0
 25 26  2  0
 26 27  1  0
  7 28  1  0
 27 28  2  0
 25 29  1  0
 28 29  1  0
 30 31  2  0
 10 32  1  0
 31 32  1  0
 32 33  2  0
 33 34  1  0
 30 35  1  0
 34 35  2  0
M  END
