x2608-x0354
     RDKit          3D

 32 34  0  0  0  0  0  0  0  0999 V2000
   13.2580   -1.4520   22.5240 C   0  0  0  0  0  0  0  0  0  0  0  0
    7.6460   -2.0150   25.2790 O   0  0  0  0  0  0  0  0  0  0  0  0
    7.4930   -0.5410   27.2750 O   0  0  0  0  0  0  0  0  0  0  0  0
    8.5840   -1.2480   25.4950 C   0  0  0  0  0  0  0  0  0  0  0  0
    8.2480   -0.1670   26.3700 C   0  0  0  0  0  0  0  0  0  0  0  0
    5.7010    3.6330   30.9280 C   0  0  0  0  0  0  0  0  0  0  0  0
   12.1690   -1.4420   23.3790 N   0  0  0  0  0  0  0  0  0  0  0  0
   11.3310   -2.5150   23.3840 C   0  0  1  0  0  0  0  0  0  0  0  0
   10.5210   -2.5600   24.6830 C   0  0  0  0  0  0  0  0  0  0  0  0
    9.8800   -1.3690   25.0050 N   0  0  0  0  0  0  0  0  0  0  0  0
   10.5140   -0.4210   25.0040 C   0  0  0  0  0  0  0  0  0  0  0  0
   11.4100   -0.2950   23.7970 C   0  0  1  0  0  0  0  0  0  0  0  0
    7.7710    1.5860   28.2210 C   0  0  0  0  0  0  0  0  0  0  0  0
    7.2900    2.6840   29.1900 C   0  0  0  0  0  0  0  0  0  0  0  0
    6.1420    2.5540   30.0040 C   0  0  0  0  0  0  0  0  0  0  0  0
    5.4350    1.3730   29.9090 C   0  0  0  0  0  0  0  0  0  0  0  0
    5.9070    0.2830   28.9530 C   0  0  0  0  0  0  0  0  0  0  0  0
    7.0410    0.4130   28.1480 C   0  0  0  0  0  0  0  0  0  0  0  0
   12.8960    1.2940   22.8380 C   0  0  0  0  0  0  0  0  0  0  0  0
   12.3260    0.8760   23.9980 C   0  0  0  0  0  0  0  0  0  0  0  0
    8.6240   -0.9070   22.2160 N   0  0  0  0  0  0  0  0  0  0  0  0
    8.6270    1.2000   21.1010 O   0  0  0  0  0  0  0  0  0  0  0  0
    6.9580   -0.5520   20.8750 N   0  0  0  0  0  0  0  0  0  0  0  0
    8.0820   -0.0350   21.3790 C   0  0  0  0  0  0  0  0  0  0  0  0
    6.0640    0.7880   17.6080 N   0  0  0  0  0  0  0  0  0  0  0  0
    6.6680    0.1270   18.5850 C   0  0  0  0  0  0  0  0  0  0  0  0
    6.2310    0.1600   19.8630 C   0  0  0  0  0  0  0  0  0  0  0  0
    5.1070    0.8770   20.2400 C   0  0  0  0  0  0  0  0  0  0  0  0
    4.4500    1.5860   19.2500 C   0  0  0  0  0  0  0  0  0  0  0  0
    4.9500    1.5360   17.9450 C   0  0  0  0  0  0  0  0  0  0  0  0
   10.4010   -2.3900   22.2510 C   0  0  0  0  0  0  0  0  0  0  0  0
   10.0230   -1.0850   22.0550 C   0  0  0  0  0  0  0  0  0  0  0  0
  2  4  2  0
  3  5  1  0
  4  5  1  0
  1  7  1  0
  7  8  1  0
  8  9  1  0
  4 10  1  0
  9 10  1  0
 10 11  1  0
  7 12  1  0
 11 12  1  0
 13 14  2  0
  6 15  1  0
 14 15  1  0
 15 16  2  0
 16 17  1  0
  3 18  1  0
 13 18  1  0
 17 18  2  0
 12 20  1  1
 19 20  1  0
 21 24  1  0
 22 24  2  0
 23 24  1  0
 25 26  2  0
 23 27  1  0
 26 27  1  0
 27 28  2  0
 28 29  1  0
 25 30  1  0
 29 30  2  0
  8 31  1  6
 21 32  1  0
 31 32  1  0
M  END
