x2608-x3110-x2052-x0820
     RDKit          3D

 58 65  0  0  0  0  0  0  0  0999 V2000
    8.0480    1.1460   23.1710 N   0  0  0  0  0  0  0  0  0  0  0  0
   13.2780    5.0810   22.9170 C   0  0  0  0  0  0  0  0  0  0  0  0
   11.9620    3.1120   23.0950 N   0  0  0  0  0  0  0  0  0  0  0  0
   12.9110    3.7250   22.3000 C   0  0  0  0  0  0  0  0  0  0  0  0
    6.9030   -1.7890   22.0050 S   0  0  0  0  0  0  0  0  0  0  0  0
   10.7950    4.8770   24.3530 O   0  0  0  0  0  0  0  0  0  0  0  0
   10.8020    3.7760   23.5700 C   0  0  0  0  0  0  0  0  0  0  0  0
    8.8120    1.7070   20.9170 O   0  0  0  0  0  0  0  0  0  0  0  0
    9.4480    3.1980   23.1610 C   0  0  0  0  0  0  0  0  0  0  0  0
    5.0970   -3.5770   19.9890 O   0  0  0  0  0  0  0  0  0  0  0  0
    9.0560    1.8460   23.8230 C   0  0  0  0  0  0  0  0  0  0  0  0
    7.9820    0.9840   21.7920 C   0  0  0  0  0  0  0  0  0  0  0  0
    6.9180   -0.0240   21.3050 C   0  0  1  0  0  0  0  0  0  0  0  0
    5.7570   -2.7600   20.6930 C   0  0  0  0  0  0  0  0  0  0  0  0
    6.5490   -3.6070   21.6220 C   0  0  1  0  0  0  0  0  0  0  0  0
    7.8100   -4.5240   21.1890 C   0  0  0  0  0  0  0  0  0  0  0  0
   12.6520   -2.0240   24.2840 C   0  0  0  0  0  0  0  0  0  0  0  0
   12.7990   -0.6440   24.9360 C   0  0  0  0  0  0  0  0  0  0  0  0
   13.5680   -2.1600   23.1240 C   0  0  0  0  0  0  0  0  0  0  0  0
   12.9930   -3.0810   25.3480 C   0  0  0  0  0  0  0  0  0  0  0  0
    6.1700   -3.0090   22.7680 C   0  0  1  0  0  0  0  0  0  0  0  0
    5.4390   -1.8760   25.6030 C   0  0  0  0  0  0  0  0  0  0  0  0
    4.1560   -1.9490   25.9700 O   0  0  0  0  0  0  0  0  0  0  0  0
    6.2230   -1.6310   26.6570 N   0  0  0  0  0  0  0  0  0  0  0  0
    5.3370    2.4770   30.6520 O   0  0  0  0  0  0  0  0  0  0  0  0
    6.1920    3.3560   30.7260 C   0  0  0  0  0  0  0  0  0  0  0  0
    6.2650    0.4030   17.6560 N   0  0  0  0  0  0  0  0  0  0  0  0
    5.2560    1.2960   17.7330 C   0  0  0  0  0  0  0  0  0  0  0  0
    4.7420    1.7750   18.9100 C   0  0  0  0  0  0  0  0  0  0  0  0
    5.3590    1.2670   20.0230 C   0  0  0  0  0  0  0  0  0  0  0  0
    6.4060    0.3530   19.9520 C   0  0  0  0  0  0  0  0  0  0  0  0
    6.8840   -0.1110   18.7450 C   0  0  0  0  0  0  0  0  0  0  0  0
    9.7210   -1.4560   21.9230 C   0  0  0  0  0  0  0  0  0  0  0  0
   11.0030   -1.5220   22.4630 C   0  0  0  0  0  0  0  0  0  0  0  0
   11.2630   -2.0220   23.7650 C   0  0  0  0  0  0  0  0  0  0  0  0
   10.2530   -2.4810   24.5470 C   0  0  0  0  0  0  0  0  0  0  0  0
    8.8470   -2.4340   24.0240 C   0  0  0  0  0  0  0  0  0  0  0  0
    8.6810   -1.8710   22.6300 C   0  0  0  0  0  0  0  0  0  0  0  0
    6.7530   -3.8370   25.3330 C   0  0  1  0  0  0  0  0  0  0  0  0
    6.0590   -4.3830   26.5960 C   0  0  0  0  0  0  0  0  0  0  0  0
    4.6540   -4.9530   26.6610 C   0  0  0  0  0  0  0  0  0  0  0  0
    3.9600   -4.9320   25.2800 C   0  0  0  0  0  0  0  0  0  0  0  0
    4.5880   -4.1530   24.1350 C   0  0  0  0  0  0  0  0  0  0  0  0
    6.8120   -4.3670   27.8540 C   0  0  0  0  0  0  0  0  0  0  0  0
    8.3090   -4.5980   27.7910 C   0  0  0  0  0  0  0  0  0  0  0  0
    8.9370   -4.8340   26.4100 C   0  0  0  0  0  0  0  0  0  0  0  0
    8.0920   -4.4330   25.1710 C   0  0  0  0  0  0  0  0  0  0  0  0
    5.9460   -1.1520   23.3380 C   0  0  0  0  0  0  0  0  0  0  0  0
    5.4680   -2.0110   24.2790 C   0  0  1  0  0  0  0  0  0  0  0  0
    5.8280   -3.3930   24.2370 C   0  0  2  0  0  0  0  0  0  0  0  0
    6.0920    1.8660   28.2910 N   0  0  0  0  0  0  0  0  0  0  0  0
    6.3120    0.8180   27.2370 C   0  0  0  0  0  0  0  0  0  0  0  0
    6.0100   -0.5360   27.5850 C   0  0  0  0  0  0  0  0  0  0  0  0
    5.5010   -0.8440   28.8810 C   0  0  0  0  0  0  0  0  0  0  0  0
    5.2960    0.1810   29.8440 C   0  0  0  0  0  0  0  0  0  0  0  0
    5.5640    1.5360   29.6350 C   0  0  0  0  0  0  0  0  0  0  0  0
   13.2140    0.9510   22.8570 C   0  0  0  0  0  0  0  0  0  0  0  0
   11.8870    1.6560   23.1710 C   0  0  0  0  0  0  0  0  0  0  0  0
  2  4  1  0
  3  4  1  0
  3  7  1  0
  6  7  2  0
  7  9  1  0
  1 11  1  0
  9 11  1  0
  1 12  1  0
  8 12  2  0
  5 13  1  0
 13 12  1  6
  5 14  1  0
 10 14  2  0
  5 15  1  0
 14 15  1  0
 15 16  1  1
 17 18  1  0
 17 19  1  0
 17 20  1  0
 21  5  1  1
 15 21  1  0
 22 23  2  0
 22 24  1  0
 25 26  1  0
 27 28  2  0
 28 29  1  0
 29 30  2  0
 13 31  1  0
 30 31  1  0
 27 32  1  0
 31 32  2  0
 33 34  2  0
 17 35  1  0
 34 35  1  0
 35 36  2  0
 36 37  1  0
  5 38  1  0
 33 38  1  0
 37 38  2  0
 39 40  1  0
 40 41  2  0
 41 42  1  0
 42 43  2  0
 40 44  1  0
 44 45  2  0
 45 46  1  0
 39 47  1  6
 46 47  2  0
  5 48  1  0
 49 22  1  1
 48 49  1  0
 21 50  1  0
 39 50  1  0
 50 43  1  6
 49 50  1  0
 51 52  2  0
 24 53  1  0
 52 53  1  0
 53 54  2  0
 54 55  1  0
 25 56  1  0
 51 56  1  0
 55 56  2  0
  3 58  1  0
 57 58  1  0
M  END
