x2608-x1249
     RDKit          3D

 29 31  0  0  0  0  0  0  0  0999 V2000
    8.9670    1.7230   24.3410 N   0  0  0  0  0  0  0  0  0  0  0  0
    7.6950    2.1750   23.8800 C   0  0  0  0  0  0  0  0  0  0  0  0
    7.5710    3.3290   23.4880 O   0  0  0  0  0  0  0  0  0  0  0  0
    9.0320    0.3890   24.4760 C   0  0  0  0  0  0  0  0  0  0  0  0
   13.8670   -1.2580   20.4970 N   0  0  0  0  0  0  0  0  0  0  0  0
   13.0500   -2.1240   21.2880 C   0  0  0  0  0  0  0  0  0  0  0  0
    8.4800   -1.5210   22.7900 N   0  0  0  0  0  0  0  0  0  0  0  0
    8.5130    0.3240   21.3120 O   0  0  0  0  0  0  0  0  0  0  0  0
    6.8400   -1.0850   20.9470 N   0  0  0  0  0  0  0  0  0  0  0  0
    7.9450   -0.7210   21.6520 C   0  0  0  0  0  0  0  0  0  0  0  0
   12.7700    0.8520   23.6660 C   0  0  0  0  0  0  0  0  0  0  0  0
    3.7710    1.2460   24.0090 O   0  0  0  0  0  0  0  0  0  0  0  0
    4.4800    1.6620   22.8770 C   0  0  0  0  0  0  0  0  0  0  0  0
    5.8660    1.1060   22.7250 C   0  0  0  0  0  0  0  0  0  0  0  0
    6.6180    1.2850   23.8710 N   0  0  0  0  0  0  0  0  0  0  0  0
    5.8700    1.1230   25.1610 C   0  0  0  0  0  0  0  0  0  0  0  0
    4.6240    0.3770   24.6330 C   0  0  0  0  0  0  0  0  0  0  0  0
   11.4710    0.4880   23.7590 C   0  0  0  0  0  0  0  0  0  0  0  0
   12.3570   -0.2830   22.9040 C   0  0  0  0  0  0  0  0  0  0  0  0
   12.0850   -1.3620   22.1200 C   0  0  0  0  0  0  0  0  0  0  0  0
   10.7170   -1.8060   22.0780 C   0  0  0  0  0  0  0  0  0  0  0  0
    9.7960   -1.1900   22.8070 C   0  0  0  0  0  0  0  0  0  0  0  0
   10.1800   -0.1400   23.6170 C   0  0  0  0  0  0  0  0  0  0  0  0
    6.2140    0.7010   17.7990 N   0  0  0  0  0  0  0  0  0  0  0  0
    6.7910   -0.0890   18.7560 C   0  0  0  0  0  0  0  0  0  0  0  0
    6.2230   -0.3040   20.0260 C   0  0  0  0  0  0  0  0  0  0  0  0
    5.0010    0.3300   20.2830 C   0  0  0  0  0  0  0  0  0  0  0  0
    4.4230    1.1260   19.3130 C   0  0  0  0  0  0  0  0  0  0  0  0
    5.0470    1.3000   18.0820 C   0  0  0  0  0  0  0  0  0  0  0  0
  1  2  1  0
  2  3  2  0
  1  4  1  0
  5  6  3  0
  7 10  1  0
  8 10  2  0
  9 10  1  0
 12 13  1  0
 13 14  1  0
  2 15  1  0
 14 15  1  0
 15 16  1  0
 12 17  1  0
 16 17  1  0
 11 18  1  0
 18 19  2  0
  6 20  1  0
 19 20  1  0
 20 21  2  0
  7 22  1  0
 21 22  1  0
  4 23  1  0
 18 23  1  0
 22 23  2  0
 24 25  2  0
  9 26  1  0
 25 26  1  0
 26 27  2  0
 27 28  1  0
 24 29  1  0
 28 29  2  0
M  END
