x2608-x0708
     RDKit          3D

 27 29  0  0  0  0  0  0  0  0999 V2000
    6.5100   -4.8750   20.9660 N   0  0  0  0  0  0  0  0  0  0  0  0
    7.2400   -3.1430   19.2160 C   0  0  0  0  0  0  0  0  0  0  0  0
    5.0470   -3.8860   19.4820 O   0  0  0  0  0  0  0  0  0  0  0  0
    6.1790   -3.9820   19.9030 C   0  0  0  0  0  0  0  0  0  0  0  0
    7.4330   -4.5000   21.9350 N   0  0  0  0  0  0  0  0  0  0  0  0
    6.0200   -3.1170   23.1760 O   0  0  0  0  0  0  0  0  0  0  0  0
    7.1140   -3.3080   22.6780 C   0  0  0  0  0  0  0  0  0  0  0  0
    9.2750   -1.0120   22.9240 N   0  0  0  0  0  0  0  0  0  0  0  0
    8.8690    0.7980   21.3740 O   0  0  0  0  0  0  0  0  0  0  0  0
    7.3660   -0.8590   21.1800 N   0  0  0  0  0  0  0  0  0  0  0  0
    8.4990   -0.3070   21.7730 C   0  0  0  0  0  0  0  0  0  0  0  0
   13.3590    1.2410   22.9060 C   0  0  0  0  0  0  0  0  0  0  0  0
    8.2560   -2.2900   22.7840 C   0  0  0  0  0  0  0  0  0  0  0  0
    9.6170   -2.3420   22.3630 C   0  0  0  0  0  0  0  0  0  0  0  0
   10.7020   -1.4120   22.4770 C   0  0  0  0  0  0  0  0  0  0  0  0
    9.9590   -0.3320   23.2030 C   0  0  0  0  0  0  0  0  0  0  0  0
    8.2400   -0.7130   23.5300 S   0  0  0  0  0  0  0  0  0  0  0  0
   12.2000   -1.2800   22.1180 C   0  0  0  0  0  0  0  0  0  0  0  0
   12.9930   -0.1060   22.4160 C   0  0  0  0  0  0  0  0  0  0  0  0
   12.1230    0.7700   23.0820 C   0  0  0  0  0  0  0  0  0  0  0  0
   10.7090    0.8290   23.5350 C   0  0  0  0  0  0  0  0  0  0  0  0
    6.1810    0.5180   17.8990 N   0  0  0  0  0  0  0  0  0  0  0  0
    6.9950   -0.2320   18.8940 C   0  0  0  0  0  0  0  0  0  0  0  0
    6.6340   -0.1670   20.2090 C   0  0  0  0  0  0  0  0  0  0  0  0
    5.5130    0.5890   20.5940 C   0  0  0  0  0  0  0  0  0  0  0  0
    4.7120    1.3190   19.6500 C   0  0  0  0  0  0  0  0  0  0  0  0
    5.1210    1.2310   18.3010 C   0  0  0  0  0  0  0  0  0  0  0  0
  1  4  1  0
  2  4  1  0
  3  4  2  0
  1  5  1  0
  5  7  1  0
  6  7  2  0
  8 11  1  0
  9 11  2  0
 10 11  1  0
  7 13  1  0
  8 14  1  0
 13 14  2  0
 14 15  1  0
 15 16  2  0
 13 17  1  0
 16 17  1  0
 15 18  1  0
 12 19  1  0
 18 19  2  0
 19 20  1  0
 16 21  1  0
 20 21  2  0
 22 23  2  0
 10 24  1  0
 23 24  1  0
 24 25  2  0
 25 26  1  0
 22 27  1  0
 26 27  2  0
M  END
