x2608-x3080
     RDKit          3D

 30 33  0  0  0  0  0  0  0  0999 V2000
   10.5080    0.0600   23.9890 C   0  0  0  0  0  0  0  0  0  0  0  0
    7.7390   -2.1250   22.2540 O   0  0  0  0  0  0  0  0  0  0  0  0
    6.5670   -0.1960   22.0810 N   0  0  0  0  0  0  0  0  0  0  0  0
    7.4560   -2.1030   23.2320 O   0  0  0  0  0  0  0  0  0  0  0  0
    7.6700   -0.9240   22.4130 C   0  0  0  0  0  0  0  0  0  0  0  0
    8.0560   -0.5420   25.0190 O   0  0  0  0  0  0  0  0  0  0  0  0
    4.5110    1.6910   21.8740 C   0  0  0  0  0  0  0  0  0  0  0  0
    8.5010   -1.3850   23.9190 S   0  0  0  0  0  0  0  0  0  0  0  0
   12.5040    2.1880   23.0280 C   0  0  0  0  0  0  0  0  0  0  0  0
    6.5220    0.2380   18.1150 N   0  0  0  0  0  0  0  0  0  0  0  0
    5.5050    1.1690   17.9730 C   0  0  0  0  0  0  0  0  0  0  0  0
    4.7290    1.7550   19.1530 C   0  0  0  0  0  0  0  0  0  0  0  0
    5.0680    1.3140   20.5480 C   0  0  0  0  0  0  0  0  0  0  0  0
    6.1760    0.2930   20.7430 C   0  0  0  0  0  0  0  0  0  0  0  0
    6.8860   -0.2230   19.4760 C   0  0  0  0  0  0  0  0  0  0  0  0
   11.6680   -1.7130   24.3950 N   0  0  0  0  0  0  0  0  0  0  0  0
   10.8880   -2.6500   24.9860 C   0  0  0  0  0  0  0  0  0  0  0  0
   11.3730   -3.7090   25.7890 C   0  0  0  0  0  0  0  0  0  0  0  0
   12.7350   -3.8070   26.0170 C   0  0  0  0  0  0  0  0  0  0  0  0
   13.6070   -2.7620   25.3740 C   0  0  0  0  0  0  0  0  0  0  0  0
   13.0200   -1.7840   24.6010 C   0  0  0  0  0  0  0  0  0  0  0  0
    8.5220   -3.4790   25.3480 C   0  0  0  0  0  0  0  0  0  0  0  0
    9.0890   -4.4710   26.0990 C   0  0  0  0  0  0  0  0  0  0  0  0
   10.4320   -4.6010   26.3260 C   0  0  0  0  0  0  0  0  0  0  0  0
    9.3850   -2.5570   24.7850 C   0  0  0  0  0  0  0  0  0  0  0  0
   11.3990    1.2430   23.2570 C   0  0  0  0  0  0  0  0  0  0  0  0
   11.2360    0.3040   24.3120 C   0  0  0  0  0  0  0  0  0  0  0  0
   10.0740   -0.5140   24.2980 C   0  0  0  0  0  0  0  0  0  0  0  0
    9.1600   -0.1260   22.9220 S   0  0  0  0  0  0  0  0  0  0  0  0
   10.1720    1.2430   22.1440 S   0  0  0  0  0  0  0  0  0  0  0  0
  2  5  2  0
  3  5  1  0
  4  8  2  0
  6  8  2  0
 10 11  2  0
 11 12  1  0
  7 13  1  0
 12 13  2  0
  3 14  1  0
 13 14  1  0
 10 15  1  0
 14 15  2  0
 16 17  2  0
 17 18  1  0
 18 19  2  0
 19 20  1  0
 16 21  1  0
 20 21  2  0
 22 23  1  0
 18 24  1  0
 23 24  2  0
  8 25  1  0
 17 25  1  0
 22 25  2  0
  9 26  1  0
 26 27  2  0
 27 28  1  0
  1 29  1  0
  5 29  1  0
  8 29  1  0
 28 29  2  0
 26 30  1  0
 29 30  1  0
M  END
