x2600-x1308
     RDKit          3D

 39 42  0  0  0  0  0  0  0  0999 V2000
    7.2270   -3.3640   19.7400 C   0  0  0  0  0  0  0  0  0  0  0  0
    5.3930   -4.8090   20.0000 O   0  0  0  0  0  0  0  0  0  0  0  0
    0.6000   -1.2860   26.3580 Cl  0  0  0  0  0  0  0  0  0  0  0  0
    6.4010   -4.3590   20.5470 C   0  0  0  0  0  0  0  0  0  0  0  0
    6.4540   -5.0990   26.9090 O   0  0  0  0  0  0  0  0  0  0  0  0
    4.7990   -6.8740   26.0930 O   0  0  0  0  0  0  0  0  0  0  0  0
    5.4440   -5.4240   25.9310 S   0  0  0  0  0  0  0  0  0  0  0  0
   13.7370   -3.3460   20.5480 N   0  0  0  0  0  0  0  0  0  0  0  0
    8.0000    0.0280   21.8560 C   0  0  0  0  0  0  0  0  0  0  0  0
    8.5800    1.1190   21.8840 O   0  0  0  0  0  0  0  0  0  0  0  0
    8.7100   -1.2380   22.2600 C   0  0  2  0  0  0  0  0  0  0  0  0
    6.6680   -0.2070   21.4320 N   0  0  0  0  0  0  0  0  0  0  0  0
   13.2290   -2.2950   21.3900 C   0  0  0  0  0  0  0  0  0  0  0  0
    6.6290   -2.4740   22.4790 C   0  0  0  0  0  0  0  0  0  0  0  0
    7.9010   -2.3020   23.0740 C   0  0  0  0  0  0  0  0  0  0  0  0
    6.7750   -4.7980   21.8210 N   0  0  0  0  0  0  0  0  0  0  0  0
    7.1930   -3.9060   22.7920 C   0  0  2  0  0  0  0  0  0  0  0  0
    6.8130   -4.0970   24.1370 C   0  0  0  0  0  0  0  0  0  0  0  0
    6.0890   -5.2270   24.3780 N   0  0  0  0  0  0  0  0  0  0  0  0
    5.3170   -5.6710   23.3230 C   0  0  0  0  0  0  0  0  0  0  0  0
    6.2360   -5.9260   22.3180 C   0  0  0  0  0  0  0  0  0  0  0  0
    4.3520   -2.9040   26.3970 C   0  0  0  0  0  0  0  0  0  0  0  0
    3.2340   -1.9420   26.4960 C   0  0  0  0  0  0  0  0  0  0  0  0
    1.9260   -2.3760   26.2360 C   0  0  0  0  0  0  0  0  0  0  0  0
    1.7260   -3.7120   25.8820 C   0  0  0  0  0  0  0  0  0  0  0  0
    2.7950   -4.5950   25.7960 C   0  0  0  0  0  0  0  0  0  0  0  0
    4.1220   -4.2430   26.0460 C   0  0  0  0  0  0  0  0  0  0  0  0
    6.3320    0.6550   17.7040 N   0  0  0  0  0  0  0  0  0  0  0  0
    6.7830    0.1320   18.8610 C   0  0  0  0  0  0  0  0  0  0  0  0
    6.2040    0.3060   20.2400 C   0  0  0  0  0  0  0  0  0  0  0  0
    4.9770    1.1660   20.2220 C   0  0  0  0  0  0  0  0  0  0  0  0
    4.4040    1.7860   18.9750 C   0  0  0  0  0  0  0  0  0  0  0  0
    5.2280    1.4270   17.7520 C   0  0  0  0  0  0  0  0  0  0  0  0
   10.5020    0.1820   23.5360 C   0  0  0  0  0  0  0  0  0  0  0  0
   11.8270    0.4990   23.8160 C   0  0  0  0  0  0  0  0  0  0  0  0
   12.8980   -0.3050   23.1180 C   0  0  0  0  0  0  0  0  0  0  0  0
   12.4990   -1.4050   22.1620 C   0  0  0  0  0  0  0  0  0  0  0  0
   11.0530   -1.5920   21.9940 C   0  0  0  0  0  0  0  0  0  0  0  0
   10.1240   -0.8540   22.6290 C   0  0  0  0  0  0  0  0  0  0  0  0
  1  4  1  0
  2  4  2  0
  5  7  2  0
  6  7  2  0
  9 10  2  0
  9 11  1  0
  9 12  1  0
  8 13  3  0
 11 15  1  1
 14 15  1  0
  4 16  1  0
 17 14  1  6
 16 17  1  0
 17 18  1  0
  7 19  1  0
 18 19  1  0
 19 20  1  0
 16 21  1  0
 20 21  1  0
 22 23  2  0
  3 24  1  0
 23 24  1  0
 24 25  2  0
 25 26  1  0
  7 27  1  0
 22 27  1  0
 26 27  2  0
 28 29  2  0
 12 30  1  0
 29 30  1  0
 30 31  2  0
 31 32  1  0
 28 33  1  0
 32 33  2  0
 34 35  2  0
 35 36  1  0
 13 37  1  0
 36 37  2  0
 37 38  1  0
 11 39  1  0
 34 39  1  0
 38 39  2  0
M  END
