x2608-x2562
     RDKit          3D

 22 24  0  0  0  0  0  0  0  0999 V2000
    8.3590    0.1020   21.4470 C   0  0  0  0  0  0  0  0  0  0  0  0
    8.5910    1.2930   21.1190 O   0  0  0  0  0  0  0  0  0  0  0  0
    7.1400   -0.7230   21.2030 C   0  0  0  0  0  0  0  0  0  0  0  0
   12.1440    3.0430   23.3300 O   0  0  0  0  0  0  0  0  0  0  0  0
    9.3050   -0.6340   22.1380 N   0  0  0  0  0  0  0  0  0  0  0  0
   12.9130    6.9340   23.1880 O   0  0  0  0  0  0  0  0  0  0  0  0
    4.5150    1.7080   19.3420 N   0  0  0  0  0  0  0  0  0  0  0  0
    5.0300    1.5400   17.9670 C   0  0  0  0  0  0  0  0  0  0  0  0
    6.1600    0.6650   17.5990 N   0  0  0  0  0  0  0  0  0  0  0  0
    6.8500   -0.0830   18.6160 C   0  0  0  0  0  0  0  0  0  0  0  0
    6.4500    0.0010   20.0690 C   0  0  0  0  0  0  0  0  0  0  0  0
    5.2600    0.9240   20.3230 C   0  0  0  0  0  0  0  0  0  0  0  0
   11.6970    5.1370   22.3270 N   0  0  0  0  0  0  0  0  0  0  0  0
   12.9020    5.8400   22.2890 C   0  0  2  0  0  0  0  0  0  0  0  0
   13.8110    4.7170   22.4980 C   0  0  0  0  0  0  0  0  0  0  0  0
   12.5300    4.0160   22.3450 C   0  0  1  0  0  0  0  0  0  0  0  0
   11.7390   -1.0830   22.3120 C   0  0  0  0  0  0  0  0  0  0  0  0
   13.0300   -0.6270   22.5540 C   0  0  0  0  0  0  0  0  0  0  0  0
   13.1970    0.6950   22.8750 C   0  0  0  0  0  0  0  0  0  0  0  0
   12.0320    1.6540   22.9840 C   0  0  0  0  0  0  0  0  0  0  0  0
   10.7700    1.1460   22.7340 C   0  0  0  0  0  0  0  0  0  0  0  0
   10.6590   -0.1940   22.4040 C   0  0  0  0  0  0  0  0  0  0  0  0
  1  2  2  0
  1  3  1  0
  1  5  1  0
  7  8  2  0
  8  9  1  0
  9 10  2  0
  3 11  1  0
 10 11  1  0
  7 12  1  0
 11 12  2  0
 14  6  1  1
 13 14  1  0
 14 15  1  0
 16  4  1  1
 13 16  1  0
 15 16  1  0
 17 18  2  0
 18 19  1  0
  4 20  1  0
 19 20  2  0
 20 21  1  0
  5 22  1  0
 17 22  1  0
 21 22  2  0
M  END
