x2608-x1311
     RDKit          3D

 36 39  0  0  0  0  0  0  0  0999 V2000
    5.7360   -4.7630   20.0260 O   0  0  0  0  0  0  0  0  0  0  0  0
    6.5720   -4.5990   20.9300 C   0  0  0  0  0  0  0  0  0  0  0  0
    8.1000   -4.3660   20.7710 C   0  0  0  0  0  0  0  0  0  0  0  0
    6.1680   -4.5680   22.4240 C   0  0  2  0  0  0  0  0  0  0  0  0
    4.1000   -7.6650   25.1300 O   0  0  0  0  0  0  0  0  0  0  0  0
    2.2250   -5.9870   24.7200 O   0  0  0  0  0  0  0  0  0  0  0  0
    8.7500   -0.7950   22.2450 N   0  0  0  0  0  0  0  0  0  0  0  0
   13.0680    1.6220   22.9520 C   0  0  0  0  0  0  0  0  0  0  0  0
    8.6690    1.3680   21.0270 O   0  0  0  0  0  0  0  0  0  0  0  0
    6.8940   -0.3500   20.9300 N   0  0  0  0  0  0  0  0  0  0  0  0
    8.0960    0.0840   21.3990 C   0  0  0  0  0  0  0  0  0  0  0  0
    5.5010   -3.2430   22.7830 C   0  0  0  0  0  0  0  0  0  0  0  0
    6.3940   -2.1000   22.4890 C   0  0  0  0  0  0  0  0  0  0  0  0
    6.7590   -1.7690   21.0760 C   0  0  0  0  0  0  0  0  0  0  0  0
    8.1650   -5.8330   23.1440 C   0  0  0  0  0  0  0  0  0  0  0  0
    9.3220   -6.0020   24.1050 C   0  0  0  0  0  0  0  0  0  0  0  0
    9.5910   -5.1210   25.1430 C   0  0  0  0  0  0  0  0  0  0  0  0
    8.7360   -4.0560   25.2550 C   0  0  0  0  0  0  0  0  0  0  0  0
    7.5680   -3.8280   24.3400 C   0  0  0  0  0  0  0  0  0  0  0  0
    7.3380   -4.7410   23.3240 C   0  0  0  0  0  0  0  0  0  0  0  0
    4.6340   -6.4020   22.1350 C   0  0  0  0  0  0  0  0  0  0  0  0
    5.3610   -5.6890   22.9790 C   0  0  2  0  0  0  0  0  0  0  0  0
    4.6520   -5.3330   24.1320 C   0  0  0  0  0  0  0  0  0  0  0  0
    3.5050   -6.5730   24.3830 S   0  0  0  0  0  0  0  0  0  0  0  0
    3.5130   -6.9570   22.7460 C   0  0  0  0  0  0  0  0  0  0  0  0
   12.0790    0.6110   22.7890 C   0  0  0  0  0  0  0  0  0  0  0  0
   12.2760   -0.7570   22.7310 C   0  0  0  0  0  0  0  0  0  0  0  0
   11.0990   -1.4350   22.5380 C   0  0  0  0  0  0  0  0  0  0  0  0
   10.0150   -0.5750   22.4520 C   0  0  0  0  0  0  0  0  0  0  0  0
   10.4510    1.0450   22.6340 S   0  0  0  0  0  0  0  0  0  0  0  0
    6.0930    0.8040   17.5510 N   0  0  0  0  0  0  0  0  0  0  0  0
    6.7330    0.1290   18.6540 C   0  0  0  0  0  0  0  0  0  0  0  0
    6.2210    0.2980   19.9280 C   0  0  0  0  0  0  0  0  0  0  0  0
    5.0980    1.0850   20.1800 C   0  0  0  0  0  0  0  0  0  0  0  0
    4.4680    1.7460   19.1410 C   0  0  0  0  0  0  0  0  0  0  0  0
    4.9850    1.5960   17.8660 C   0  0  0  0  0  0  0  0  0  0  0  0
  1  2  2  0
  2  3  1  0
  4  2  1  0
  7 11  1  0
  9 11  2  0
 10 11  1  0
  4 12  1  1
 12 13  1  0
 10 14  1  0
 13 14  1  0
 15 16  2  0
 16 17  1  0
 17 18  2  0
 18 19  1  0
  4 20  1  0
 15 20  1  0
 19 20  2  0
  4 22  1  0
 22 21  1  6
 22 23  1  0
 24  5  1  0
  6 24  1  0
 23 24  1  0
 21 25  2  0
 24 25  1  0
  8 26  1  0
 26 27  2  0
 27 28  1  0
  7 29  1  0
 28 29  2  0
 26 30  1  0
 29 30  1  0
 31 32  2  0
 10 33  1  0
 32 33  1  0
 33 34  2  0
 34 35  1  0
 31 36  1  0
 35 36  2  0
M  END
