x2600-x3117
     RDKit          3D

 34 36  0  0  0  0  0  0  0  0999 V2000
    6.8950   -1.6030   21.7610 N   0  0  0  0  0  0  0  0  0  0  0  0
    6.6940   -4.8470   20.4380 C   0  0  0  0  0  0  0  0  0  0  0  0
    4.7860   -2.9750   21.2400 O   0  0  0  0  0  0  0  0  0  0  0  0
    6.7720   -4.0950   21.7620 C   0  0  0  0  0  0  0  0  0  0  0  0
    7.4750    1.8550   22.7890 N   0  0  0  0  0  0  0  0  0  0  0  0
    8.9320    0.4250   21.3300 O   0  0  0  0  0  0  0  0  0  0  0  0
    6.0450   -2.7980   21.5620 C   0  0  0  0  0  0  0  0  0  0  0  0
    6.5030   -0.1700   21.6110 C   0  0  1  0  0  0  0  0  0  0  0  0
    7.6490    0.6710   21.8950 C   0  0  0  0  0  0  0  0  0  0  0  0
   11.9150   -1.7880   24.7520 C   0  0  0  0  0  0  0  0  0  0  0  0
   12.7110   -0.6870   24.9940 C   0  0  0  0  0  0  0  0  0  0  0  0
   13.0800   -1.4790   23.8270 C   0  0  0  0  0  0  0  0  0  0  0  0
   12.2290   -3.1460   25.3400 C   0  0  0  0  0  0  0  0  0  0  0  0
    6.3050    0.3720   17.8360 N   0  0  0  0  0  0  0  0  0  0  0  0
    5.2220    1.1370   17.8290 C   0  0  0  0  0  0  0  0  0  0  0  0
    4.4940    1.5130   18.9460 C   0  0  0  0  0  0  0  0  0  0  0  0
    4.7780    1.1550   20.2790 C   0  0  0  0  0  0  0  0  0  0  0  0
    6.0050    0.2950   20.3220 C   0  0  0  0  0  0  0  0  0  0  0  0
    6.6960   -0.0580   19.1610 C   0  0  0  0  0  0  0  0  0  0  0  0
    9.8280    5.0200   24.1420 O   0  0  0  0  0  0  0  0  0  0  0  0
   10.4210    3.7970   23.7240 C   0  0  0  0  0  0  0  0  0  0  0  0
    9.4590    2.7960   23.7440 C   0  0  0  0  0  0  0  0  0  0  0  0
    8.4230    2.9660   22.8190 C   0  0  0  0  0  0  0  0  0  0  0  0
    7.8380    4.2470   22.9850 C   0  0  0  0  0  0  0  0  0  0  0  0
    8.8470    5.3950   23.1830 C   0  0  0  0  0  0  0  0  0  0  0  0
    9.3020   -2.1040   21.8600 C   0  0  0  0  0  0  0  0  0  0  0  0
   10.6250   -2.1670   22.5790 C   0  0  0  0  0  0  0  0  0  0  0  0
   10.6710   -1.7230   24.0450 C   0  0  0  0  0  0  0  0  0  0  0  0
    9.4300   -1.2750   24.6000 C   0  0  0  0  0  0  0  0  0  0  0  0
    8.2510   -1.2410   23.8900 C   0  0  0  0  0  0  0  0  0  0  0  0
    8.1470   -1.6680   22.4540 C   0  0  0  0  0  0  0  0  0  0  0  0
   13.8400   -1.2300   20.4350 N   0  0  0  0  0  0  0  0  0  0  0  0
   13.4410   -1.7180   21.3710 C   0  0  0  0  0  0  0  0  0  0  0  0
   13.1000   -2.4130   22.6470 C   0  0  0  0  0  0  0  0  0  0  0  0
  2  4  1  0
  1  7  1  0
  3  7  2  0
  4  7  1  0
  1  8  1  0
  5  9  1  0
  6  9  2  0
  8  9  1  6
 10 11  1  0
 10 12  1  0
 10 13  1  0
 14 15  2  0
 15 16  1  0
 16 17  2  0
  8 18  1  0
 17 18  1  0
 14 19  1  0
 18 19  2  0
 20 21  1  0
 21 22  1  0
  5 23  1  0
 22 23  1  0
 23 24  1  0
 20 25  1  0
 24 25  1  0
 26 27  2  0
 10 28  1  0
 27 28  1  0
 28 29  2  0
 29 30  1  0
  1 31  1  0
 26 31  1  0
 30 31  2  0
 32 33  3  0
 12 34  1  0
 33 34  1  0
M  END
