x2600-x1493
     RDKit          3D

 32 34  0  0  0  0  0  0  0  0999 V2000
   13.9120   -1.2910   20.4240 N   0  0  0  0  0  0  0  0  0  0  0  0
    8.1300   -0.1050   21.6960 C   0  0  0  0  0  0  0  0  0  0  0  0
    8.6800    0.9830   21.5050 O   0  0  0  0  0  0  0  0  0  0  0  0
    8.7180   -1.1880   22.5750 C   0  0  2  0  0  0  0  0  0  0  0  0
    6.8670   -0.4850   21.1020 N   0  0  0  0  0  0  0  0  0  0  0  0
   13.3850   -2.0050   21.5430 C   0  0  0  0  0  0  0  0  0  0  0  0
    4.9820   -5.9750   26.0660 C   0  0  0  0  0  0  0  0  0  0  0  0
    7.3600   -5.4210   26.2150 O   0  0  0  0  0  0  0  0  0  0  0  0
    6.1270   -5.3910   25.5000 C   0  0  0  0  0  0  0  0  0  0  0  0
    5.3590   -4.7450   19.9780 O   0  0  0  0  0  0  0  0  0  0  0  0
    6.4480   -4.4750   20.4750 C   0  0  0  0  0  0  0  0  0  0  0  0
    7.3150   -3.4020   19.8240 C   0  0  0  0  0  0  0  0  0  0  0  0
    7.8760   -1.7250   23.7400 C   0  0  0  0  0  0  0  0  0  0  0  0
    6.8270   -2.5990   23.4120 C   0  0  0  0  0  0  0  0  0  0  0  0
    6.4270    0.6240   17.6910 N   0  0  0  0  0  0  0  0  0  0  0  0
    6.8660    0.0450   18.8070 C   0  0  0  0  0  0  0  0  0  0  0  0
    6.2970    0.1440   20.0800 C   0  0  0  0  0  0  0  0  0  0  0  0
    5.1260    0.8990   20.3310 C   0  0  0  0  0  0  0  0  0  0  0  0
    4.5990    1.5600   19.1070 C   0  0  0  0  0  0  0  0  0  0  0  0
    5.2320    1.4130   17.8860 C   0  0  0  0  0  0  0  0  0  0  0  0
   10.5220    0.3010   23.8710 C   0  0  0  0  0  0  0  0  0  0  0  0
   11.8910    0.4810   23.9490 C   0  0  0  0  0  0  0  0  0  0  0  0
   12.8510   -0.2210   23.2350 C   0  0  0  0  0  0  0  0  0  0  0  0
   12.4810   -1.2230   22.3330 C   0  0  0  0  0  0  0  0  0  0  0  0
   11.0330   -1.5010   22.1650 C   0  0  0  0  0  0  0  0  0  0  0  0
   10.1110   -0.6870   22.9750 C   0  0  0  0  0  0  0  0  0  0  0  0
    6.0180   -4.8170   24.2370 N   0  0  0  0  0  0  0  0  0  0  0  0
    7.1890   -4.0740   23.7380 C   0  0  1  0  0  0  0  0  0  0  0  0
    7.7990   -4.6320   22.5030 C   0  0  0  0  0  0  0  0  0  0  0  0
    6.8960   -5.1870   21.6060 N   0  0  0  0  0  0  0  0  0  0  0  0
    6.0080   -6.0290   22.1780 C   0  0  0  0  0  0  0  0  0  0  0  0
    5.3160   -5.4070   23.2220 C   0  0  0  0  0  0  0  0  0  0  0  0
  2  3  2  0
  2  4  1  0
  2  5  1  0
  1  6  3  0
  7  9  1  0
  8  9  2  0
 10 11  2  0
 11 12  1  0
  4 13  1  1
 13 14  1  0
 15 16  2  0
  5 17  1  0
 16 17  1  0
 17 18  2  0
 18 19  1  0
 15 20  1  0
 19 20  2  0
 21 22  2  0
 22 23  1  0
  6 24  1  0
 23 24  2  0
 24 25  1  0
  4 26  1  0
 21 26  1  0
 25 26  2  0
  9 27  1  0
 28 14  1  6
 27 28  1  0
 28 29  1  0
 11 30  1  0
 29 30  1  0
 30 31  1  0
 27 32  1  0
 31 32  1  0
M  END
