x2608-x0387
     RDKit          3D

 24 26  0  0  0  0  0  0  0  0999 V2000
    8.3190   -0.7080   22.6550 N   0  0  0  0  0  0  0  0  0  0  0  0
   12.9460    1.5800   22.9550 C   0  0  0  0  0  0  0  0  0  0  0  0
    8.2940    0.7720   20.9300 O   0  0  0  0  0  0  0  0  0  0  0  0
    6.5960   -0.6950   21.1130 N   0  0  0  0  0  0  0  0  0  0  0  0
    7.7810   -0.1640   21.5430 C   0  0  0  0  0  0  0  0  0  0  0  0
    8.6370   -4.2910   27.4020 O   0  0  0  0  0  0  0  0  0  0  0  0
    9.9470   -2.8800   23.4610 C   0  0  0  0  0  0  0  0  0  0  0  0
   11.8350    0.6460   22.9700 C   0  0  0  0  0  0  0  0  0  0  0  0
   11.9240   -0.8700   23.3310 C   0  0  0  0  0  0  0  0  0  0  0  0
   10.5220   -1.4960   23.2330 C   0  0  0  0  0  0  0  0  0  0  0  0
    9.6870   -0.3260   22.8170 C   0  0  0  0  0  0  0  0  0  0  0  0
   10.2310    1.2370   22.5620 S   0  0  0  0  0  0  0  0  0  0  0  0
    6.1620    0.8910   17.6250 N   0  0  0  0  0  0  0  0  0  0  0  0
    6.6540    0.1440   18.7730 C   0  0  0  0  0  0  0  0  0  0  0  0
    5.9290    0.0620   20.0940 C   0  0  0  0  0  0  0  0  0  0  0  0
    4.7170    0.7370   20.1960 C   0  0  0  0  0  0  0  0  0  0  0  0
    4.2510    1.4530   19.0920 C   0  0  0  0  0  0  0  0  0  0  0  0
    4.9920    1.4840   17.9110 C   0  0  0  0  0  0  0  0  0  0  0  0
    8.8990   -4.7540   26.2810 C   0  0  1  0  0  0  0  0  0  0  0  0
    8.4150   -4.0920   25.1390 C   0  0  0  0  0  0  0  0  0  0  0  0
    9.1260   -2.9280   24.7240 C   0  0  1  0  0  0  0  0  0  0  0  0
   10.0450   -2.6310   25.6020 N   0  0  0  0  0  0  0  0  0  0  0  0
   10.9380   -3.7730   25.6240 C   0  0  0  0  0  0  0  0  0  0  0  0
   10.4010   -4.8880   26.2140 C   0  0  0  0  0  0  0  0  0  0  0  0
  1  5  1  0
  3  5  2  0
  4  5  1  0
  2  8  1  0
  8  9  2  0
  7 10  1  0
  9 10  1  0
  1 11  1  0
 10 11  2  0
  8 12  1  0
 11 12  1  0
 13 14  2  0
  4 15  1  0
 14 15  1  0
 15 16  2  0
 16 17  1  0
 13 18  1  0
 17 18  2  0
 19  6  1  1
 19 20  1  0
 21  7  1  6
 20 21  1  0
 21 22  1  0
 22 23  1  0
 19 24  1  0
 23 24  1  0
M  END
