x2608-x2694
     RDKit          3D

 35 37  0  0  0  0  0  0  0  0999 V2000
    6.1400   -1.0680   22.3510 N   0  0  0  0  0  0  0  0  0  0  0  0
    6.7200   -4.0730   20.0830 C   0  0  0  0  0  0  0  0  0  0  0  0
    4.6500   -2.9910   21.5650 O   0  0  0  0  0  0  0  0  0  0  0  0
    6.9720   -3.2560   21.3310 C   0  0  0  0  0  0  0  0  0  0  0  0
    7.4850    2.0900   23.0490 N   0  0  0  0  0  0  0  0  0  0  0  0
    8.6500    1.6350   21.1750 O   0  0  0  0  0  0  0  0  0  0  0  0
    5.8110   -2.4000   21.7750 C   0  0  0  0  0  0  0  0  0  0  0  0
   10.8710    6.6140   23.8350 O   0  0  0  0  0  0  0  0  0  0  0  0
    7.2700   -0.2540   21.7180 C   0  0  2  0  0  0  0  0  0  0  0  0
    7.8160    1.2290   22.0050 C   0  0  0  0  0  0  0  0  0  0  0  0
   10.0800    1.8660   24.2230 C   0  0  0  0  0  0  0  0  0  0  0  0
   11.8130    6.4600   24.9000 C   0  0  0  0  0  0  0  0  0  0  0  0
   12.2470   -1.6290   22.9720 C   0  0  0  0  0  0  0  0  0  0  0  0
   13.0140   -0.3460   23.2680 C   0  0  0  0  0  0  0  0  0  0  0  0
   12.8380   -2.2410   21.6910 C   0  0  0  0  0  0  0  0  0  0  0  0
   12.5370   -2.5550   24.1770 C   0  0  0  0  0  0  0  0  0  0  0  0
    6.6440    0.0280   17.9140 N   0  0  0  0  0  0  0  0  0  0  0  0
    5.6730    0.9340   17.8900 C   0  0  0  0  0  0  0  0  0  0  0  0
    5.1400    1.5330   19.1360 C   0  0  0  0  0  0  0  0  0  0  0  0
    5.6790    1.1300   20.3430 C   0  0  0  0  0  0  0  0  0  0  0  0
    6.7100    0.1670   20.3440 C   0  0  0  0  0  0  0  0  0  0  0  0
    7.1400   -0.3400   19.1240 C   0  0  0  0  0  0  0  0  0  0  0  0
    8.5770   -1.3800   23.6640 N   0  0  0  0  0  0  0  0  0  0  0  0
    9.9600   -1.7220   23.9460 O   0  0  0  0  0  0  0  0  0  0  0  0
   10.7480   -1.3690   22.8450 C   0  0  0  0  0  0  0  0  0  0  0  0
    9.8850   -0.8300   21.8770 C   0  0  0  0  0  0  0  0  0  0  0  0
    8.5870   -0.7890   22.3040 C   0  0  0  0  0  0  0  0  0  0  0  0
    9.5480    3.2190   23.7800 C   0  0  0  0  0  0  0  0  0  0  0  0
   10.3830    4.3340   23.9610 C   0  0  0  0  0  0  0  0  0  0  0  0
    9.9670    5.6000   23.5950 C   0  0  0  0  0  0  0  0  0  0  0  0
    8.6940    5.7410   23.0250 C   0  0  0  0  0  0  0  0  0  0  0  0
    7.8450    4.6290   22.8270 C   0  0  0  0  0  0  0  0  0  0  0  0
    8.2680    3.3380   23.2100 C   0  0  0  0  0  0  0  0  0  0  0  0
   12.7980    2.0940   22.8580 C   0  0  0  0  0  0  0  0  0  0  0  0
   12.2320    0.9330   23.3740 C   0  0  0  0  0  0  0  0  0  0  0  0
  2  4  1  0
  1  7  1  0
  3  7  2  0
  4  7  1  0
  9  1  1  1
  5 10  1  0
  6 10  2  0
  9 10  1  0
  8 12  1  0
 13 14  1  0
 13 15  1  0
 13 16  1  0
 17 18  2  0
 18 19  1  0
 19 20  2  0
  9 21  1  0
 20 21  1  0
 17 22  1  0
 21 22  2  0
 23 24  1  0
 13 25  1  0
 24 25  1  0
 25 26  2  0
  9 27  1  0
 23 27  2  0
 26 27  1  0
 11 28  1  0
 28 29  2  0
  8 30  1  0
 29 30  1  0
 30 31  2  0
 31 32  1  0
  5 33  1  0
 28 33  1  0
 32 33  2  0
 14 35  1  0
 34 35  1  0
M  END
