x2600-x2964
     RDKit          3D

 19 20  0  0  0  0  0  0  0  0999 V2000
   14.2180   -1.1020   20.0450 N   0  0  0  0  0  0  0  0  0  0  0  0
    8.3910   -0.0890   21.8190 C   0  0  0  0  0  0  0  0  0  0  0  0
    8.9970    0.9230   21.4660 O   0  0  0  0  0  0  0  0  0  0  0  0
    8.7930   -0.9720   22.9920 C   0  0  0  0  0  0  0  0  0  0  0  0
    7.1860   -0.5810   21.1640 N   0  0  0  0  0  0  0  0  0  0  0  0
   13.4310   -1.2980   21.2000 C   0  0  0  0  0  0  0  0  0  0  0  0
    3.3450    2.1590   19.0940 N   0  0  0  0  0  0  0  0  0  0  0  0
    6.3740    0.5840   17.7260 N   0  0  0  0  0  0  0  0  0  0  0  0
    6.9620    0.0050   18.7870 C   0  0  0  0  0  0  0  0  0  0  0  0
    6.4600    0.0680   20.0730 C   0  0  0  0  0  0  0  0  0  0  0  0
    5.1550    0.8250   20.2950 C   0  0  0  0  0  0  0  0  0  0  0  0
    4.5830    1.3950   19.1640 C   0  0  0  0  0  0  0  0  0  0  0  0
    5.2100    1.2600   17.9260 C   0  0  0  0  0  0  0  0  0  0  0  0
   10.7860   -1.2980   24.4390 C   0  0  0  0  0  0  0  0  0  0  0  0
   12.1420   -1.4510   24.6040 C   0  0  0  0  0  0  0  0  0  0  0  0
   13.0220   -1.4520   23.5680 C   0  0  0  0  0  0  0  0  0  0  0  0
   12.5870   -1.3050   22.2730 C   0  0  0  0  0  0  0  0  0  0  0  0
   11.1230   -1.1470   22.1250 C   0  0  0  0  0  0  0  0  0  0  0  0
   10.2690   -1.1420   23.1910 C   0  0  0  0  0  0  0  0  0  0  0  0
  2  3  2  0
  2  4  1  0
  2  5  1  0
  1  6  3  0
  8  9  2  0
  5 10  1  0
  9 10  1  0
 10 11  2  0
  7 12  1  0
 11 12  1  0
  8 13  1  0
 12 13  2  0
 14 15  2  0
 15 16  1  0
  6 17  1  0
 16 17  2  0
 17 18  1  0
  4 19  1  0
 14 19  1  0
 18 19  2  0
M  END
