x2600-x1374
     RDKit          3D

 39 42  0  0  0  0  0  0  0  0999 V2000
   10.6070   -4.2360   25.9090 C   0  0  0  0  0  0  0  0  0  0  0  0
    6.2820   -4.4440   21.9620 N   0  0  0  0  0  0  0  0  0  0  0  0
    6.2410   -4.5170   20.5600 C   0  0  0  0  0  0  0  0  0  0  0  0
    5.5090   -5.3240   20.0200 O   0  0  0  0  0  0  0  0  0  0  0  0
    7.0990   -3.5140   19.7290 C   0  0  0  0  0  0  0  0  0  0  0  0
    2.5480   -6.8020   23.3810 O   0  0  0  0  0  0  0  0  0  0  0  0
    4.2030   -7.9650   24.9090 O   0  0  0  0  0  0  0  0  0  0  0  0
   13.9590   -1.5850   20.4370 N   0  0  0  0  0  0  0  0  0  0  0  0
    8.3580    0.5460   21.8860 C   0  0  0  0  0  0  0  0  0  0  0  0
    9.0620    1.4100   21.3190 O   0  0  0  0  0  0  0  0  0  0  0  0
    8.6450    0.0690   23.1810 C   0  0  0  0  0  0  0  0  0  0  0  0
    7.1610   -0.0420   21.3070 N   0  0  0  0  0  0  0  0  0  0  0  0
   13.1450   -1.3570   21.5570 C   0  0  0  0  0  0  0  0  0  0  0  0
    6.7360   -3.1710   22.4790 C   0  0  2  0  0  0  0  0  0  0  0  0
    6.7790   -2.1950   21.5190 C   0  0  0  0  0  0  0  0  0  0  0  0
    6.4610   -0.9460   21.9470 C   0  0  0  0  0  0  0  0  0  0  0  0
    9.4990   -4.4030   24.8910 C   0  0  0  0  0  0  0  0  0  0  0  0
    8.8370   -3.3090   24.3590 C   0  0  0  0  0  0  0  0  0  0  0  0
    7.7700   -3.0830   23.4140 C   0  0  0  0  0  0  0  0  0  0  0  0
    7.5590   -4.5790   23.1230 C   0  0  0  0  0  0  0  0  0  0  0  0
    8.1730   -5.7360   23.6040 C   0  0  0  0  0  0  0  0  0  0  0  0
    9.1590   -5.7790   24.4970 C   0  0  0  0  0  0  0  0  0  0  0  0
    4.8710   -4.4250   23.9160 C   0  0  0  0  0  0  0  0  0  0  0  0
    5.0920   -5.0140   22.6920 C   0  0  2  0  0  0  0  0  0  0  0  0
    5.0570   -6.4090   22.7670 C   0  0  0  0  0  0  0  0  0  0  0  0
    3.8620   -6.7230   23.9830 S   0  0  0  0  0  0  0  0  0  0  0  0
    4.1870   -5.2390   24.7700 C   0  0  0  0  0  0  0  0  0  0  0  0
    6.2470    0.5830   17.6010 N   0  0  0  0  0  0  0  0  0  0  0  0
    6.9680    0.0200   18.7110 C   0  0  0  0  0  0  0  0  0  0  0  0
    6.5510    0.4200   20.0940 C   0  0  0  0  0  0  0  0  0  0  0  0
    5.3830    1.3860   20.2580 C   0  0  0  0  0  0  0  0  0  0  0  0
    4.7450    1.8710   19.0650 C   0  0  0  0  0  0  0  0  0  0  0  0
    5.2400    1.4270   17.8590 C   0  0  0  0  0  0  0  0  0  0  0  0
   10.6430   -0.1000   24.6700 C   0  0  0  0  0  0  0  0  0  0  0  0
   12.1050   -0.3930   24.9820 C   0  0  0  0  0  0  0  0  0  0  0  0
   12.9030   -0.8370   23.8110 C   0  0  0  0  0  0  0  0  0  0  0  0
   12.3450   -0.9620   22.5870 C   0  0  0  0  0  0  0  0  0  0  0  0
   10.8920   -0.6690   22.3370 C   0  0  0  0  0  0  0  0  0  0  0  0
   10.0980   -0.2440   23.3890 C   0  0  0  0  0  0  0  0  0  0  0  0
  2  3  1  0
  3  4  2  0
  3  5  1  0
  9 10  2  0
  9 11  1  0
  9 12  1  0
  8 13  3  0
  2 14  1  0
 14 15  1  6
 12 16  1  0
 15 16  1  0
  1 17  1  0
 17 18  2  0
 14 19  1  0
 18 19  1  0
 19 20  2  0
 20 21  1  0
 17 22  1  0
 21 22  2  0
 24  2  1  1
 23 24  1  0
 24 25  1  0
 26  6  1  0
  7 26  1  0
 25 26  1  0
 23 27  2  0
 26 27  1  0
 28 29  2  0
 12 30  1  0
 29 30  1  0
 30 31  2  0
 31 32  1  0
 28 33  1  0
 32 33  2  0
 34 35  2  0
 35 36  1  0
 13 37  1  0
 36 37  2  0
 37 38  1  0
 11 39  1  0
 34 39  1  0
 38 39  2  0
M  END
