x2608-x2119
     RDKit          3D

 23 25  0  0  0  0  0  0  0  0999 V2000
    8.7890   -1.1810   22.5140 N   0  0  0  0  0  0  0  0  0  0  0  0
   12.9200    2.2430   22.7790 C   0  0  0  0  0  0  0  0  0  0  0  0
    8.5280    0.6640   21.2170 O   0  0  0  0  0  0  0  0  0  0  0  0
    7.1350   -1.0530   20.8260 N   0  0  0  0  0  0  0  0  0  0  0  0
    8.1690   -0.4750   21.5090 C   0  0  0  0  0  0  0  0  0  0  0  0
    5.7720   -5.2480   20.0220 N   0  0  0  0  0  0  0  0  0  0  0  0
    6.4780   -4.1730   20.0890 C   0  0  0  0  0  0  0  0  0  0  0  0
   12.0480    0.9830   22.8700 C   0  0  0  0  0  0  0  0  0  0  0  0
   12.5100   -0.4570   23.2200 C   0  0  0  0  0  0  0  0  0  0  0  0
   11.3090   -1.3840   23.1290 C   0  0  0  0  0  0  0  0  0  0  0  0
   10.0860   -0.5970   22.7360 C   0  0  0  0  0  0  0  0  0  0  0  0
   10.3800    1.0830   22.5450 S   0  0  0  0  0  0  0  0  0  0  0  0
    6.0930    0.8290   17.6730 N   0  0  0  0  0  0  0  0  0  0  0  0
    6.7890    0.0460   18.5160 C   0  0  0  0  0  0  0  0  0  0  0  0
    6.3560   -0.2170   19.9230 C   0  0  0  0  0  0  0  0  0  0  0  0
    5.0690    0.4300   20.4070 C   0  0  0  0  0  0  0  0  0  0  0  0
    4.3650    1.2400   19.5120 C   0  0  0  0  0  0  0  0  0  0  0  0
    4.8670    1.4160   18.2360 C   0  0  0  0  0  0  0  0  0  0  0  0
    6.1720   -3.3190   21.2120 C   0  0  0  0  0  0  0  0  0  0  0  0
    5.3750   -3.8650   22.3370 N   0  0  0  0  0  0  0  0  0  0  0  0
    5.2510   -2.7370   23.2960 C   0  0  0  0  0  0  0  0  0  0  0  0
    5.9060   -1.6490   22.7810 C   0  0  0  0  0  0  0  0  0  0  0  0
    6.4500   -1.9960   21.5360 N   0  0  0  0  0  0  0  0  0  0  0  0
  1  5  1  0
  3  5  2  0
  4  5  1  0
  6  7  2  3
  2  8  1  0
  8  9  2  0
  9 10  1  0
  1 11  1  0
 10 11  2  0
  8 12  1  0
 11 12  1  0
 13 14  2  0
  4 15  1  0
 14 15  1  0
 15 16  2  0
 16 17  1  0
 13 18  1  0
 17 18  2  0
  7 19  1  0
 19 20  2  0
 20 21  1  0
 21 22  2  0
  4 23  1  0
 19 23  1  0
 22 23  1  0
M  END
