x2600-x3077
     RDKit          3D

 29 33  0  0  0  0  0  0  0  0999 V2000
    7.1100   -3.1460   19.0390 C   0  0  0  0  0  0  0  0  0  0  0  0
    5.4280   -4.5740   19.9260 O   0  0  0  0  0  0  0  0  0  0  0  0
   13.3470   -2.0970   21.8890 N   0  0  0  0  0  0  0  0  0  0  0  0
    6.3460   -3.7840   20.1790 C   0  0  0  0  0  0  0  0  0  0  0  0
    8.9310   -1.4850   24.2720 C   0  0  0  0  0  0  0  0  0  0  0  0
   13.6880   -1.5400   20.6850 N   0  0  0  0  0  0  0  0  0  0  0  0
    8.7130   -0.5850   21.6080 C   0  0  0  0  0  0  0  0  0  0  0  0
    9.6780    0.4480   21.4320 O   0  0  0  0  0  0  0  0  0  0  0  0
    9.1120   -1.8570   22.0210 C   0  0  0  0  0  0  0  0  0  0  0  0
    7.2960   -0.5600   21.5170 N   0  0  0  0  0  0  0  0  0  0  0  0
    6.7800   -3.5130   21.4750 N   0  0  0  0  0  0  0  0  0  0  0  0
    7.7670   -4.0640   22.1560 C   0  0  0  0  0  0  0  0  0  0  0  0
    7.6800   -3.3180   23.3250 C   0  0  2  0  0  0  0  0  0  0  0  0
    6.3640   -3.0700   23.6300 C   0  0  0  0  0  0  0  0  0  0  0  0
    6.0650   -2.6090   22.4030 C   0  0  1  0  0  0  0  0  0  0  0  0
    8.1790   -2.0420   23.0550 C   0  0  1  0  0  0  0  0  0  0  0  0
    6.9880   -1.3530   22.5990 C   0  0  1  0  0  0  0  0  0  0  0  0
   10.7210    0.4050   24.2050 C   0  0  0  0  0  0  0  0  0  0  0  0
   12.0540    0.8630   23.7380 C   0  0  0  0  0  0  0  0  0  0  0  0
   12.8370   -0.0180   22.9950 C   0  0  0  0  0  0  0  0  0  0  0  0
   12.4270   -1.3000   22.6760 C   0  0  0  0  0  0  0  0  0  0  0  0
   11.1900   -1.6990   23.1220 C   0  0  0  0  0  0  0  0  0  0  0  0
   10.3130   -0.9010   23.8700 C   0  0  0  0  0  0  0  0  0  0  0  0
    6.2590    0.4430   17.8430 N   0  0  0  0  0  0  0  0  0  0  0  0
    6.9290   -0.0970   18.8970 C   0  0  0  0  0  0  0  0  0  0  0  0
    6.5510   -0.0030   20.3710 C   0  0  0  0  0  0  0  0  0  0  0  0
    5.2780    0.7760   20.6020 C   0  0  0  0  0  0  0  0  0  0  0  0
    4.5230    1.3790   19.4280 C   0  0  0  0  0  0  0  0  0  0  0  0
    5.1330    1.1420   18.0540 C   0  0  0  0  0  0  0  0  0  0  0  0
  1  4  1  0
  2  4  2  0
  3  6  1  0
  7  8  2  0
  7  9  1  0
  7 10  1  0
  4 11  1  0
 11 12  1  0
 13 12  1  6
 13 14  1  0
 15 11  1  6
 14 15  1  0
 16  5  1  1
  9 16  1  0
 13 16  1  0
 17 10  1  6
 15 17  1  0
 16 17  1  0
 18 19  2  0
 19 20  1  0
  3 21  1  0
 20 21  2  0
 21 22  1  0
  5 23  1  0
 18 23  1  0
 22 23  2  0
 24 25  2  0
 10 26  1  0
 25 26  1  0
 26 27  2  0
 27 28  1  0
 24 29  1  0
 28 29  2  0
M  END
