x2600-x0354
     RDKit          3D

 31 33  0  0  0  0  0  0  0  0999 V2000
   13.6990   -3.3670   20.5590 N   0  0  0  0  0  0  0  0  0  0  0  0
    8.3480    0.3020   21.6090 C   0  0  0  0  0  0  0  0  0  0  0  0
    8.8720    1.3660   21.2300 O   0  0  0  0  0  0  0  0  0  0  0  0
    8.8650   -0.5280   22.7420 C   0  0  1  0  0  0  0  0  0  0  0  0
    7.1690   -0.2910   21.0380 N   0  0  0  0  0  0  0  0  0  0  0  0
   13.1650   -2.2860   21.3430 C   0  0  0  0  0  0  0  0  0  0  0  0
    6.2490    0.6470   17.6190 N   0  0  0  0  0  0  0  0  0  0  0  0
    6.8700    0.1070   18.6770 C   0  0  0  0  0  0  0  0  0  0  0  0
    6.4310    0.3030   19.9580 C   0  0  0  0  0  0  0  0  0  0  0  0
    5.1950    1.1440   20.2100 C   0  0  0  0  0  0  0  0  0  0  0  0
    4.5850    1.6810   19.0910 C   0  0  0  0  0  0  0  0  0  0  0  0
    5.1460    1.4120   17.8390 C   0  0  0  0  0  0  0  0  0  0  0  0
   10.9330    0.5810   23.5510 C   0  0  0  0  0  0  0  0  0  0  0  0
   12.2860    0.6530   23.5750 C   0  0  0  0  0  0  0  0  0  0  0  0
   13.0380   -0.2660   22.8650 C   0  0  0  0  0  0  0  0  0  0  0  0
   12.5050   -1.3110   22.0930 C   0  0  0  0  0  0  0  0  0  0  0  0
   11.0460   -1.3350   22.1070 C   0  0  0  0  0  0  0  0  0  0  0  0
   10.3280   -0.4090   22.8170 C   0  0  0  0  0  0  0  0  0  0  0  0
    8.2820   -2.6350   25.9420 O   0  0  0  0  0  0  0  0  0  0  0  0
    7.1720   -0.5520   27.5980 O   0  0  0  0  0  0  0  0  0  0  0  0
    8.7170   -1.3000   26.1990 C   0  0  0  0  0  0  0  0  0  0  0  0
    8.5350   -0.8700   27.4900 C   0  0  0  0  0  0  0  0  0  0  0  0
    6.0180    3.9920   30.8590 C   0  0  0  0  0  0  0  0  0  0  0  0
    7.6210    1.5830   28.3870 C   0  0  0  0  0  0  0  0  0  0  0  0
    7.3470    2.8090   29.2390 C   0  0  0  0  0  0  0  0  0  0  0  0
    6.1250    2.6860   30.0970 C   0  0  0  0  0  0  0  0  0  0  0  0
    5.2110    1.4880   30.1600 C   0  0  0  0  0  0  0  0  0  0  0  0
    5.6030    0.3220   29.2530 C   0  0  0  0  0  0  0  0  0  0  0  0
    6.7830    0.4530   28.4270 C   0  0  0  0  0  0  0  0  0  0  0  0
    8.2510   -0.2650   24.0970 C   0  0  0  0  0  0  0  0  0  0  0  0
    9.2850   -0.3870   25.1780 C   0  0  0  0  0  0  0  0  0  0  0  0
  2  3  2  0
  2  4  1  0
  2  5  1  0
  1  6  3  0
  7  8  2  0
  5  9  1  0
  8  9  1  0
  9 10  2  0
 10 11  1  0
  7 12  1  0
 11 12  2  0
 13 14  2  0
 14 15  1  0
  6 16  1  0
 15 16  2  0
 16 17  1  0
  4 18  1  0
 13 18  1  0
 17 18  2  0
 19 21  2  0
 20 22  1  0
 21 22  1  0
 24 25  2  0
 23 26  1  0
 25 26  1  0
 26 27  2  0
 27 28  1  0
 20 29  1  0
 24 29  1  0
 28 29  2  0
  4 30  1  1
 21 31  1  0
 30 31  1  0
M  END
