x2608-x2764
     RDKit          3D

 24 26  0  0  0  0  0  0  0  0999 V2000
    8.3460   -1.6950   21.0880 N   0  0  0  0  0  0  0  0  0  0  0  0
    7.1930   -1.0020   21.2920 C   0  0  1  0  0  0  0  0  0  0  0  0
    6.4100   -1.3280   22.4280 O   0  0  0  0  0  0  0  0  0  0  0  0
    8.7360   -2.6010   22.0580 C   0  0  0  0  0  0  0  0  0  0  0  0
    6.1900    1.5420   21.7660 O   0  0  0  0  0  0  0  0  0  0  0  0
    8.1390    4.3310   22.5610 N   0  0  0  0  0  0  0  0  0  0  0  0
    7.2840    2.1060   21.9320 C   0  0  0  0  0  0  0  0  0  0  0  0
    7.0410    3.5630   22.2940 C   0  0  0  0  0  0  0  0  0  0  0  0
    9.3390    0.9050   21.8040 O   0  0  0  0  0  0  0  0  0  0  0  0
    8.5790   -0.2690   21.4860 C   0  0  0  0  0  0  0  0  0  0  0  0
   12.1540   -1.2060   23.1280 N   0  0  0  0  0  0  0  0  0  0  0  0
   11.3090   -1.7580   22.0460 C   0  0  0  0  0  0  0  0  0  0  0  0
    9.9950   -2.0710   22.6280 C   0  0  0  0  0  0  0  0  0  0  0  0
   10.2160   -1.6890   24.0480 C   0  0  0  0  0  0  0  0  0  0  0  0
   11.7090   -1.0180   24.6330 S   0  0  0  0  0  0  0  0  0  0  0  0
    6.3090   -0.6370   18.9120 C   0  0  0  0  0  0  0  0  0  0  0  0
    5.6580    0.2060   18.0180 C   0  0  0  0  0  0  0  0  0  0  0  0
    5.2140    1.4460   18.3860 C   0  0  0  0  0  0  0  0  0  0  0  0
    5.4070    1.8800   19.6640 C   0  0  0  0  0  0  0  0  0  0  0  0
    6.0410    1.1010   20.6090 C   0  0  0  0  0  0  0  0  0  0  0  0
    6.5010   -0.1790   20.2340 C   0  0  0  0  0  0  0  0  0  0  0  0
   12.7360    0.9300   23.2900 C   0  0  0  0  0  0  0  0  0  0  0  0
   13.1230   -0.6220   23.9090 C   0  0  0  0  0  0  0  0  0  0  0  0
   12.9280   -0.4160   22.5330 C   0  0  0  0  0  0  0  0  0  0  0  0
  1  2  1  0
  2  3  1  1
  1  4  1  0
  5  7  1  0
  6  8  3  0
  7  8  1  0
  1 10  1  0
  2 10  1  0
  9 10  2  0
 11 12  1  0
  4 13  1  0
 12 13  2  0
 13 14  1  0
 11 15  1  0
 14 15  2  0
 16 17  2  0
 17 18  1  0
 18 19  2  0
  5 20  1  0
 19 20  1  0
  2 21  1  0
 16 21  1  0
 20 21  2  0
 15 23  1  0
 22 24  1  0
 23 24  1  0
M  END
