x2608-x1386
     RDKit          3D

 26 29  0  0  0  0  0  0  0  0999 V2000
   13.3950    0.7810   22.8290 C   0  0  0  0  0  0  0  0  0  0  0  0
    7.5550    0.6800   22.4920 O   0  0  0  0  0  0  0  0  0  0  0  0
    7.8110   -0.3720   21.9230 C   0  0  0  0  0  0  0  0  0  0  0  0
    7.2830   -3.0250   18.7410 C   0  0  0  0  0  0  0  0  0  0  0  0
    5.4780   -4.1770   19.7770 O   0  0  0  0  0  0  0  0  0  0  0  0
    6.3350   -3.3030   19.8940 C   0  0  0  0  0  0  0  0  0  0  0  0
    9.5660   -2.5180   23.6560 C   0  0  0  0  0  0  0  0  0  0  0  0
   12.0530    0.3200   22.9600 C   0  0  0  0  0  0  0  0  0  0  0  0
   11.7820   -1.0950   23.2950 C   0  0  0  0  0  0  0  0  0  0  0  0
   10.3410   -1.2640   23.3580 C   0  0  0  0  0  0  0  0  0  0  0  0
    9.5540   -0.0250   23.0870 C   0  0  0  0  0  0  0  0  0  0  0  0
   10.6270    1.2960   22.7600 S   0  0  0  0  0  0  0  0  0  0  0  0
    6.5150   -2.5180   21.0430 N   0  0  0  0  0  0  0  0  0  0  0  0
    7.5260   -1.4810   20.9040 C   0  0  2  0  0  0  0  0  0  0  0  0
    8.6420   -1.6080   21.6280 C   0  0  2  0  0  0  0  0  0  0  0  0
    8.6990   -2.7520   22.6190 N   0  0  0  0  0  0  0  0  0  0  0  0
    7.4540   -3.3030   23.1900 C   0  0  0  0  0  0  0  0  0  0  0  0
    6.2020   -2.9200   22.4090 C   0  0  0  0  0  0  0  0  0  0  0  0
    5.4360    0.9950   17.6100 N   0  0  0  0  0  0  0  0  0  0  0  0
    5.9260   -0.1570   18.1870 C   0  0  0  0  0  0  0  0  0  0  0  0
    5.4110    0.0740   19.4920 C   0  0  0  0  0  0  0  0  0  0  0  0
    4.6660    1.0570   20.0950 C   0  0  0  0  0  0  0  0  0  0  0  0
    4.2630    2.1180   19.3810 C   0  0  0  0  0  0  0  0  0  0  0  0
    4.7040    2.0030   18.1180 C   0  0  0  0  0  0  0  0  0  0  0  0
    7.4970   -0.8770   19.5190 C   0  0  0  0  0  0  0  0  0  0  0  0
    6.2610   -1.1570   19.0090 C   0  0  0  0  0  0  0  0  0  0  0  0
  2  3  2  0
  4  6  1  0
  5  6  2  0
  1  8  1  0
  8  9  2  0
  7 10  1  0
  9 10  1  0
 10 11  2  0
  8 12  1  0
 11 12  1  0
  6 13  1  0
  3 14  1  0
 13 14  1  0
 15  3  1  1
 14 15  1  0
  7 16  1  0
 15 16  1  0
 16 17  1  0
 13 18  1  0
 17 18  1  0
 19 20  2  0
 20 21  1  0
 21 22  2  0
 22 23  1  0
 19 24  1  0
 23 24  2  0
 14 25  1  6
 20 26  1  0
 25 26  1  0
M  END
