x2608-x0072
     RDKit          3D

 23 24  0  0  0  0  0  0  0  0999 V2000
    6.7270   -4.6620   25.8910 C   0  0  0  0  0  0  0  0  0  0  0  0
    8.4690   -4.3150   25.9330 S   0  0  0  0  0  0  0  0  0  0  0  0
    9.1200   -5.5700   25.6530 O   0  0  0  0  0  0  0  0  0  0  0  0
    8.7090   -3.7970   27.2520 O   0  0  0  0  0  0  0  0  0  0  0  0
    8.6190   -2.9140   24.8910 N   0  0  0  0  0  0  0  0  0  0  0  0
    8.0990   -2.8930   23.6110 C   0  0  0  0  0  0  0  0  0  0  0  0
    8.7580   -2.2800   22.4850 C   0  0  1  0  0  0  0  0  0  0  0  0
   13.2590    1.2690   23.0170 C   0  0  0  0  0  0  0  0  0  0  0  0
    8.5970   -0.0100   21.5240 O   0  0  0  0  0  0  0  0  0  0  0  0
    6.8000   -1.3490   21.0220 N   0  0  0  0  0  0  0  0  0  0  0  0
    8.0320   -1.1190   21.6420 C   0  0  0  0  0  0  0  0  0  0  0  0
   10.0230   -1.4320   22.6800 C   0  0  0  0  0  0  0  0  0  0  0  0
   11.3510   -1.8510   22.1110 C   0  0  0  0  0  0  0  0  0  0  0  0
   12.5600   -0.9820   22.2090 C   0  0  0  0  0  0  0  0  0  0  0  0
   12.3470    0.3430   22.9010 C   0  0  0  0  0  0  0  0  0  0  0  0
   11.0250    0.6940   23.4960 C   0  0  0  0  0  0  0  0  0  0  0  0
    9.9240   -0.1160   23.4120 C   0  0  0  0  0  0  0  0  0  0  0  0
    6.1470    0.4910   17.8320 N   0  0  0  0  0  0  0  0  0  0  0  0
    6.6710   -0.3180   18.7780 C   0  0  0  0  0  0  0  0  0  0  0  0
    6.1310   -0.4740   20.2020 C   0  0  0  0  0  0  0  0  0  0  0  0
    5.0030    0.3070   20.5030 C   0  0  0  0  0  0  0  0  0  0  0  0
    4.4810    1.1290   19.5240 C   0  0  0  0  0  0  0  0  0  0  0  0
    5.0680    1.1790   18.2680 C   0  0  0  0  0  0  0  0  0  0  0  0
  1  2  1  0
  2  3  2  0
  2  4  2  0
  2  5  1  0
  5  6  1  0
  7  6  1  1
  7 11  1  0
  9 11  2  0
 10 11  1  0
  7 12  1  0
 12 13  2  0
 13 14  1  0
  8 15  1  0
 14 15  2  0
 15 16  1  0
 12 17  1  0
 16 17  2  0
 18 19  2  0
 10 20  1  0
 19 20  1  0
 20 21  2  0
 21 22  1  0
 18 23  1  0
 22 23  2  0
M  END
