x2608-x0786
     RDKit          3D

 36 39  0  0  0  0  0  0  0  0999 V2000
    6.1650   -3.6830   21.9360 N   0  0  0  0  0  0  0  0  0  0  0  0
    7.6550   -4.7930   20.5300 C   0  0  0  0  0  0  0  0  0  0  0  0
    5.3550   -4.7110   19.9900 O   0  0  0  0  0  0  0  0  0  0  0  0
    6.2580   -4.4180   20.7740 C   0  0  0  0  0  0  0  0  0  0  0  0
    3.6350   -8.1870   24.8890 O   0  0  0  0  0  0  0  0  0  0  0  0
    3.2310   -7.1590   24.3900 C   0  0  0  0  0  0  0  0  0  0  0  0
    8.7640   -1.0090   22.3530 N   0  0  0  0  0  0  0  0  0  0  0  0
   13.0350    1.7200   22.9100 C   0  0  0  0  0  0  0  0  0  0  0  0
    8.3160    0.9400   21.0840 O   0  0  0  0  0  0  0  0  0  0  0  0
    6.9040   -0.6600   20.8860 N   0  0  0  0  0  0  0  0  0  0  0  0
    8.0540   -0.2110   21.4640 C   0  0  0  0  0  0  0  0  0  0  0  0
    7.0610   -2.7120   22.1980 C   0  0  0  0  0  0  0  0  0  0  0  0
    6.2490   -1.5180   21.8430 C   0  0  0  0  0  0  0  0  0  0  0  0
    5.5580   -4.1820   23.1080 C   0  0  0  0  0  0  0  0  0  0  0  0
    4.7220   -5.4350   23.0990 C   0  0  0  0  0  0  0  0  0  0  0  0
    4.0800   -5.9160   24.3920 C   0  0  0  0  0  0  0  0  0  0  0  0
    4.2600   -5.2100   25.6040 C   0  0  0  0  0  0  0  0  0  0  0  0
    5.0170   -4.0660   25.6670 C   0  0  0  0  0  0  0  0  0  0  0  0
    5.6940   -3.4960   24.4580 C   0  0  0  0  0  0  0  0  0  0  0  0
    1.4100   -5.6360   23.3890 C   0  0  0  0  0  0  0  0  0  0  0  0
    0.4620   -5.1790   24.2820 C   0  0  0  0  0  0  0  0  0  0  0  0
   -0.9590   -6.1150   24.2500 S   0  0  0  0  0  0  0  0  0  0  0  0
   -0.1210   -7.4710   24.8740 C   0  0  0  0  0  0  0  0  0  0  0  0
    0.9010   -7.9980   24.0570 C   0  0  0  0  0  0  0  0  0  0  0  0
    1.9260   -6.9960   23.7560 N   0  0  0  0  0  0  0  0  0  0  0  0
   12.0230    0.6380   22.8590 C   0  0  0  0  0  0  0  0  0  0  0  0
   12.3280   -0.6880   23.0710 C   0  0  0  0  0  0  0  0  0  0  0  0
   11.1950   -1.4750   22.9300 C   0  0  0  0  0  0  0  0  0  0  0  0
   10.0840   -0.7030   22.6180 C   0  0  0  0  0  0  0  0  0  0  0  0
   10.3960    0.9490   22.5280 S   0  0  0  0  0  0  0  0  0  0  0  0
    6.0670    0.8020   17.6250 N   0  0  0  0  0  0  0  0  0  0  0  0
    6.7210    0.0590   18.5730 C   0  0  0  0  0  0  0  0  0  0  0  0
    6.2260    0.1000   19.8680 C   0  0  0  0  0  0  0  0  0  0  0  0
    5.1080    0.8340   20.2650 C   0  0  0  0  0  0  0  0  0  0  0  0
    4.4750    1.5740   19.2800 C   0  0  0  0  0  0  0  0  0  0  0  0
    4.9840    1.5350   17.9920 C   0  0  0  0  0  0  0  0  0  0  0  0
  1  4  1  0
  2  4  1  0
  3  4  2  0
  5  6  2  0
  7 11  1  0
  9 11  2  0
 10 11  1  0
  1 12  1  0
 10 13  1  0
 12 13  1  0
  1 14  1  0
 14 15  2  0
  6 16  1  0
 15 16  1  0
 16 17  2  0
 17 18  1  0
 14 19  1  0
 18 19  2  0
 20 21  1  0
 21 22  1  0
 22 23  1  0
 23 24  1  0
  6 25  1  0
 20 25  1  0
 24 25  1  0
  8 26  1  0
 26 27  2  0
 27 28  1  0
  7 29  1  0
 28 29  2  0
 26 30  1  0
 29 30  1  0
 31 32  2  0
 10 33  1  0
 32 33  1  0
 33 34  2  0
 34 35  1  0
 31 36  1  0
 35 36  2  0
M  END
