x2608-x0731
     RDKit          3D

 37 40  0  0  0  0  0  0  0  0999 V2000
    0.8360   -0.9680   25.9250 C   0  0  0  0  0  0  0  0  0  0  0  0
    6.4340   -4.9290   26.8560 O   0  0  0  0  0  0  0  0  0  0  0  0
    4.7700   -6.6100   26.0040 O   0  0  0  0  0  0  0  0  0  0  0  0
    5.2680   -5.1140   19.9840 O   0  0  0  0  0  0  0  0  0  0  0  0
    6.2470   -4.5560   20.3990 C   0  0  0  0  0  0  0  0  0  0  0  0
    6.9520   -3.4670   19.5730 C   0  0  0  0  0  0  0  0  0  0  0  0
    5.4640   -5.3460   25.8690 S   0  0  0  0  0  0  0  0  0  0  0  0
    8.7130   -1.1390   22.3450 N   0  0  0  0  0  0  0  0  0  0  0  0
   13.0210    1.6420   22.9420 C   0  0  0  0  0  0  0  0  0  0  0  0
    8.4830    0.9630   21.0880 O   0  0  0  0  0  0  0  0  0  0  0  0
    6.6760   -0.6560   21.1930 N   0  0  0  0  0  0  0  0  0  0  0  0
    7.9540   -0.2970   21.5470 C   0  0  0  0  0  0  0  0  0  0  0  0
    6.4710   -2.5890   22.3260 C   0  0  0  0  0  0  0  0  0  0  0  0
    6.9230   -1.7800   21.1240 C   0  0  0  0  0  0  0  0  0  0  0  0
    1.9420   -1.9740   25.9110 C   0  0  0  0  0  0  0  0  0  0  0  0
    1.8020   -3.3850   25.3560 C   0  0  0  0  0  0  0  0  0  0  0  0
    2.9500   -4.3930   25.3650 C   0  0  0  0  0  0  0  0  0  0  0  0
    4.2120   -4.0620   25.8950 C   0  0  0  0  0  0  0  0  0  0  0  0
    4.4050   -2.7920   26.4040 C   0  0  0  0  0  0  0  0  0  0  0  0
    3.3470   -1.6900   26.4570 C   0  0  0  0  0  0  0  0  0  0  0  0
    6.7700   -4.9370   21.6340 N   0  0  0  0  0  0  0  0  0  0  0  0
    7.1380   -3.9880   22.5760 C   0  0  2  0  0  0  0  0  0  0  0  0
    6.7390   -4.1240   23.9080 C   0  0  0  0  0  0  0  0  0  0  0  0
    6.1610   -5.3080   24.3120 N   0  0  0  0  0  0  0  0  0  0  0  0
    5.5710   -5.9620   23.2820 C   0  0  0  0  0  0  0  0  0  0  0  0
    6.2670   -6.0880   22.1030 C   0  0  0  0  0  0  0  0  0  0  0  0
   12.0060    0.5650   22.8310 C   0  0  0  0  0  0  0  0  0  0  0  0
   12.3150   -0.7680   22.8940 C   0  0  0  0  0  0  0  0  0  0  0  0
   11.1740   -1.5370   22.7330 C   0  0  0  0  0  0  0  0  0  0  0  0
   10.0290   -0.7650   22.5580 C   0  0  0  0  0  0  0  0  0  0  0  0
   10.3660    0.8930   22.6090 S   0  0  0  0  0  0  0  0  0  0  0  0
    6.1490    0.6010   17.7940 N   0  0  0  0  0  0  0  0  0  0  0  0
    6.7180   -0.0580   18.8620 C   0  0  0  0  0  0  0  0  0  0  0  0
    6.0600   -0.0090   20.1070 C   0  0  0  0  0  0  0  0  0  0  0  0
    4.8490    0.6710   20.2830 C   0  0  0  0  0  0  0  0  0  0  0  0
    4.3130    1.3190   19.1810 C   0  0  0  0  0  0  0  0  0  0  0  0
    4.9900    1.2620   17.9800 C   0  0  0  0  0  0  0  0  0  0  0  0
  4  5  2  0
  5  6  1  0
  2  7  2  0
  3  7  2  0
  8 12  1  0
 10 12  2  0
 11 12  1  0
 11 14  1  0
 13 14  1  0
  1 15  1  0
 15 16  2  0
 16 17  1  0
  7 18  1  0
 17 18  2  0
 18 19  1  0
 15 20  1  0
 19 20  2  0
  5 21  1  0
 22 13  1  6
 21 22  1  0
 22 23  1  0
  7 24  1  0
 23 24  1  0
 24 25  1  0
 21 26  1  0
 25 26  1  0
  9 27  1  0
 27 28  2  0
 28 29  1  0
  8 30  1  0
 29 30  2  0
 27 31  1  0
 30 31  1  0
 32 33  2  0
 11 34  1  0
 33 34  1  0
 34 35  2  0
 35 36  1  0
 32 37  1  0
 36 37  2  0
M  END
