x2608-x0830
     RDKit          3D

 30 34  0  0  0  0  0  0  0  0999 V2000
    7.7510   -3.6380   19.6190 C   0  0  0  0  0  0  0  0  0  0  0  0
    5.5300   -3.2420   19.2860 O   0  0  0  0  0  0  0  0  0  0  0  0
    6.5270   -2.9490   19.9860 C   0  0  0  0  0  0  0  0  0  0  0  0
    9.8990   -2.7340   23.4360 C   0  0  0  0  0  0  0  0  0  0  0  0
    7.9600    0.6500   22.7090 O   0  0  0  0  0  0  0  0  0  0  0  0
    8.2420   -0.3730   22.1100 C   0  0  0  0  0  0  0  0  0  0  0  0
   13.1880    1.9020   22.7130 C   0  0  0  0  0  0  0  0  0  0  0  0
    6.6640   -2.1220   21.1150 N   0  0  0  0  0  0  0  0  0  0  0  0
    6.6400   -2.6810   22.4120 C   0  0  0  0  0  0  0  0  0  0  0  0
    8.0470   -3.2670   22.7540 C   0  0  0  0  0  0  0  0  0  0  0  0
    8.8630   -2.4440   22.9460 N   0  0  0  0  0  0  0  0  0  0  0  0
    8.9900   -1.5570   21.7870 C   0  0  1  0  0  0  0  0  0  0  0  0
    7.7860   -1.1670   20.9980 C   0  0  2  0  0  0  0  0  0  0  0  0
   12.0200   -1.7320   22.5740 C   0  0  0  0  0  0  0  0  0  0  0  0
   12.8890   -0.6450   22.3520 C   0  0  0  0  0  0  0  0  0  0  0  0
   12.4930    0.5700   22.8350 C   0  0  0  0  0  0  0  0  0  0  0  0
   11.2400    0.6720   23.5600 C   0  0  0  0  0  0  0  0  0  0  0  0
   10.4040   -0.3710   23.7980 C   0  0  0  0  0  0  0  0  0  0  0  0
   10.7950   -1.5920   23.2760 C   0  0  0  0  0  0  0  0  0  0  0  0
   10.8520    2.0410   24.0610 C   0  0  0  0  0  0  0  0  0  0  0  0
    9.6710    2.1960   24.7540 C   0  0  0  0  0  0  0  0  0  0  0  0
    8.8830    1.0730   24.9770 C   0  0  0  0  0  0  0  0  0  0  0  0
    9.2210   -0.1990   24.5150 C   0  0  0  0  0  0  0  0  0  0  0  0
    6.2370    0.5010   17.9360 N   0  0  0  0  0  0  0  0  0  0  0  0
    7.0500    0.2120   19.0590 C   0  0  0  0  0  0  0  0  0  0  0  0
    6.1430    0.6810   20.0610 C   0  0  0  0  0  0  0  0  0  0  0  0
    4.8950    1.2390   20.0740 C   0  0  0  0  0  0  0  0  0  0  0  0
    4.2530    1.4700   18.9440 C   0  0  0  0  0  0  0  0  0  0  0  0
    4.9390    1.0990   17.8440 C   0  0  0  0  0  0  0  0  0  0  0  0
    7.4690    0.1350   20.3620 C   0  0  0  0  0  0  0  0  0  0  0  0
  1  3  1  0
  2  3  2  0
  5  6  2  0
  3  8  1  0
  8  9  1  0
  9 10  1  0
  4 11  1  0
 10 11  1  0
 12  6  1  1
 11 12  1  0
  6 13  1  0
  8 13  1  0
 12 13  1  0
 14 15  2  0
  7 16  1  0
 15 16  1  0
 16 17  2  0
 17 18  1  0
  4 19  1  0
 14 19  1  0
 18 19  2  0
 17 20  1  0
 20 21  2  0
 21 22  1  0
 18 23  1  0
 22 23  2  0
 24 25  2  0
 25 26  1  0
 26 27  2  0
 27 28  1  0
 24 29  1  0
 28 29  2  0
 13 30  1  6
 25 30  1  0
M  END
