x2600-x2608
     RDKit          3D

 19 20  0  0  0  0  0  0  0  0999 V2000
   13.7450   -3.6510   20.5960 N   0  0  0  0  0  0  0  0  0  0  0  0
    7.9440   -0.0500   21.7240 C   0  0  0  0  0  0  0  0  0  0  0  0
    8.4110    1.0010   21.2830 O   0  0  0  0  0  0  0  0  0  0  0  0
    8.5990   -0.8380   22.8270 C   0  0  0  0  0  0  0  0  0  0  0  0
    6.7200   -0.6710   21.2580 N   0  0  0  0  0  0  0  0  0  0  0  0
   13.0550   -2.6290   21.3300 C   0  0  0  0  0  0  0  0  0  0  0  0
   12.7290    1.9240   23.1560 C   0  0  0  0  0  0  0  0  0  0  0  0
    6.3700    0.6490   17.6560 N   0  0  0  0  0  0  0  0  0  0  0  0
    6.9000   -0.0840   18.7910 C   0  0  0  0  0  0  0  0  0  0  0  0
    6.1870    0.0570   20.1120 C   0  0  0  0  0  0  0  0  0  0  0  0
    5.0630    0.8500   20.2490 C   0  0  0  0  0  0  0  0  0  0  0  0
    4.6010    1.5250   19.1170 C   0  0  0  0  0  0  0  0  0  0  0  0
    5.2730    1.3890   17.9000 C   0  0  0  0  0  0  0  0  0  0  0  0
   10.7770    0.5480   23.0070 C   0  0  0  0  0  0  0  0  0  0  0  0
   12.1270    0.6650   22.8190 C   0  0  0  0  0  0  0  0  0  0  0  0
   12.9520   -0.3110   22.3200 C   0  0  0  0  0  0  0  0  0  0  0  0
   12.2110   -1.5250   21.9610 C   0  0  0  0  0  0  0  0  0  0  0  0
   10.8450   -1.7020   22.1270 C   0  0  0  0  0  0  0  0  0  0  0  0
   10.0620   -0.7190   22.6450 C   0  0  0  0  0  0  0  0  0  0  0  0
  2  3  2  0
  2  4  1  0
  2  5  1  0
  1  6  3  0
  8  9  2  0
  5 10  1  0
  9 10  1  0
 10 11  2  0
 11 12  1  0
  8 13  1  0
 12 13  2  0
  7 15  1  0
 14 15  2  0
 15 16  1  0
  6 17  1  0
 16 17  2  0
 17 18  1  0
  4 19  1  0
 14 19  1  0
 18 19  2  0
M  END
