x2608-x2052
     RDKit          3D

 36 39  0  0  0  0  0  0  0  0999 V2000
    5.6440   -1.8040   25.4020 C   0  0  0  0  0  0  0  0  0  0  0  0
    4.4270   -1.9030   25.5620 O   0  0  0  0  0  0  0  0  0  0  0  0
    6.5660   -1.2510   26.2930 N   0  0  0  0  0  0  0  0  0  0  0  0
    5.6740   -4.5330   20.0240 O   0  0  0  0  0  0  0  0  0  0  0  0
    5.4690    2.2320   30.5230 O   0  0  0  0  0  0  0  0  0  0  0  0
    6.6170   -3.7600   20.3160 C   0  0  0  0  0  0  0  0  0  0  0  0
    7.3650   -3.0920   19.1750 C   0  0  0  0  0  0  0  0  0  0  0  0
    6.0930    3.2890   30.5520 C   0  0  0  0  0  0  0  0  0  0  0  0
    8.4090   -1.5810   21.7670 N   0  0  0  0  0  0  0  0  0  0  0  0
   13.2510    0.1180   23.0570 C   0  0  0  0  0  0  0  0  0  0  0  0
    8.6180    0.6290   21.1210 O   0  0  0  0  0  0  0  0  0  0  0  0
    6.6660   -0.2430   21.0090 N   0  0  0  0  0  0  0  0  0  0  0  0
    7.8900   -0.3380   21.2650 C   0  0  0  0  0  0  0  0  0  0  0  0
    7.1630   -3.4740   21.7140 N   0  0  0  0  0  0  0  0  0  0  0  0
    7.5230   -2.2130   22.1710 C   0  0  1  0  0  0  0  0  0  0  0  0
    7.4040   -1.8620   23.6140 C   0  0  0  0  0  0  0  0  0  0  0  0
    6.0750   -2.3350   24.0750 C   0  0  1  0  0  0  0  0  0  0  0  0
    5.9670   -3.8360   23.7970 C   0  0  0  0  0  0  0  0  0  0  0  0
    6.8550   -4.2980   22.7710 C   0  0  0  0  0  0  0  0  0  0  0  0
    6.4620    1.9870   28.3650 N   0  0  0  0  0  0  0  0  0  0  0  0
    6.7020    1.1080   27.3700 C   0  0  0  0  0  0  0  0  0  0  0  0
    6.2710   -0.3370   27.4110 C   0  0  0  0  0  0  0  0  0  0  0  0
    5.5840   -0.8270   28.5140 C   0  0  0  0  0  0  0  0  0  0  0  0
    5.3480    0.0970   29.5240 C   0  0  0  0  0  0  0  0  0  0  0  0
    5.7760    1.4430   29.4410 C   0  0  0  0  0  0  0  0  0  0  0  0
   11.9550   -0.6380   22.9090 C   0  0  0  0  0  0  0  0  0  0  0  0
   11.7080   -1.8970   23.3850 C   0  0  0  0  0  0  0  0  0  0  0  0
   10.4470   -2.3550   23.0570 C   0  0  0  0  0  0  0  0  0  0  0  0
    9.6620   -1.4700   22.3080 C   0  0  0  0  0  0  0  0  0  0  0  0
   10.5640   -0.0500   22.1060 S   0  0  0  0  0  0  0  0  0  0  0  0
    6.1480    0.7810   17.6800 N   0  0  0  0  0  0  0  0  0  0  0  0
    6.7820    0.1170   18.6820 C   0  0  0  0  0  0  0  0  0  0  0  0
    6.0900    0.3720   19.8580 C   0  0  0  0  0  0  0  0  0  0  0  0
    4.9530    1.1230   20.0820 C   0  0  0  0  0  0  0  0  0  0  0  0
    4.3750    1.7550   19.0250 C   0  0  0  0  0  0  0  0  0  0  0  0
    5.0240    1.5570   17.8230 C   0  0  0  0  0  0  0  0  0  0  0  0
  1  2  2  0
  1  3  1  0
  4  6  2  0
  6  7  1  0
  5  8  1  0
  9 13  1  0
 11 13  2  0
 12 13  1  0
  6 14  1  0
 15  9  1  1
 14 15  1  0
 15 16  1  0
 17  1  1  1
 16 17  1  0
 17 18  1  0
 14 19  1  0
 18 19  1  0
 20 21  2  0
  3 22  1  0
 21 22  1  0
 22 23  2  0
 23 24  1  0
  5 25  1  0
 20 25  1  0
 24 25  2  0
 10 26  1  0
 26 27  2  0
 27 28  1  0
  9 29  1  0
 28 29  2  0
 26 30  1  0
 29 30  1  0
 31 32  2  0
 12 33  1  0
 32 33  1  0
 33 34  2  0
 34 35  1  0
 31 36  1  0
 35 36  2  0
M  END
