x2608-x2643
     RDKit          3D

 16 17  0  0  0  0  0  0  0  0999 V2000
    8.8000   -1.2590   22.4480 N   0  0  0  0  0  0  0  0  0  0  0  0
   12.8630    2.1960   22.8050 C   0  0  0  0  0  0  0  0  0  0  0  0
    8.4750    0.6090   21.1610 O   0  0  0  0  0  0  0  0  0  0  0  0
    6.9090   -0.9990   21.0690 N   0  0  0  0  0  0  0  0  0  0  0  0
    8.0900   -0.4940   21.5460 C   0  0  0  0  0  0  0  0  0  0  0  0
   11.9830    0.9190   22.8580 C   0  0  0  0  0  0  0  0  0  0  0  0
   12.4690   -0.4940   23.2000 C   0  0  0  0  0  0  0  0  0  0  0  0
   11.3440   -1.5280   23.1120 C   0  0  0  0  0  0  0  0  0  0  0  0
   10.0560   -0.7670   22.6930 C   0  0  0  0  0  0  0  0  0  0  0  0
   10.1950    0.9470   22.4840 S   0  0  0  0  0  0  0  0  0  0  0  0
    6.1110    0.7180   17.6910 N   0  0  0  0  0  0  0  0  0  0  0  0
    6.7670   -0.1100   18.7210 C   0  0  0  0  0  0  0  0  0  0  0  0
    6.1780   -0.1810   20.1030 C   0  0  0  0  0  0  0  0  0  0  0  0
    4.9210    0.5970   20.3680 C   0  0  0  0  0  0  0  0  0  0  0  0
    4.3500    1.4070   19.2250 C   0  0  0  0  0  0  0  0  0  0  0  0
    4.9770    1.4230   17.9650 C   0  0  0  0  0  0  0  0  0  0  0  0
  1  5  1  0
  3  5  2  0
  4  5  1  0
  2  6  1  0
  6  7  2  0
  7  8  1  0
  1  9  1  0
  8  9  2  0
  6 10  1  0
  9 10  1  0
 11 12  2  0
  4 13  1  0
 12 13  1  0
 13 14  2  0
 14 15  1  0
 11 16  1  0
 15 16  2  0
M  END
