x2600-x2694
     RDKit          3D

 34 36  0  0  0  0  0  0  0  0999 V2000
    7.0150   -1.5150   21.8020 N   0  0  0  0  0  0  0  0  0  0  0  0
    6.7730   -4.7400   20.3970 C   0  0  0  0  0  0  0  0  0  0  0  0
    4.8310   -2.9880   21.2160 O   0  0  0  0  0  0  0  0  0  0  0  0
    6.8900   -4.0070   21.7240 C   0  0  0  0  0  0  0  0  0  0  0  0
    7.4720    2.0730   22.7530 N   0  0  0  0  0  0  0  0  0  0  0  0
    9.0620    0.6260   21.4720 O   0  0  0  0  0  0  0  0  0  0  0  0
    6.1270   -2.7340   21.5530 C   0  0  0  0  0  0  0  0  0  0  0  0
   10.8980    6.7260   23.7710 O   0  0  0  0  0  0  0  0  0  0  0  0
    6.6300   -0.0570   21.6500 C   0  0  1  0  0  0  0  0  0  0  0  0
    7.7370    0.8370   21.9510 C   0  0  0  0  0  0  0  0  0  0  0  0
   10.2270    1.6640   24.0520 C   0  0  0  0  0  0  0  0  0  0  0  0
   11.8950    6.6440   24.7910 C   0  0  0  0  0  0  0  0  0  0  0  0
   12.1760   -1.4670   23.3180 C   0  0  0  0  0  0  0  0  0  0  0  0
   12.6100   -0.1720   23.6070 C   0  0  0  0  0  0  0  0  0  0  0  0
   12.7820   -1.7240   22.1140 C   0  0  0  0  0  0  0  0  0  0  0  0
   12.6250   -2.4120   24.2920 C   0  0  0  0  0  0  0  0  0  0  0  0
   13.3890   -1.9230   20.9290 N   0  0  0  0  0  0  0  0  0  0  0  0
    6.3900    0.4500   17.8110 N   0  0  0  0  0  0  0  0  0  0  0  0
    5.2240    1.3340   17.7520 C   0  0  0  0  0  0  0  0  0  0  0  0
    4.5530    1.7010   19.0100 C   0  0  0  0  0  0  0  0  0  0  0  0
    5.0700    1.1970   20.2080 C   0  0  0  0  0  0  0  0  0  0  0  0
    6.1860    0.3640   20.2700 C   0  0  0  0  0  0  0  0  0  0  0  0
    6.8390   -0.0160   19.1180 C   0  0  0  0  0  0  0  0  0  0  0  0
    8.4850   -1.7550   23.9300 N   0  0  0  0  0  0  0  0  0  0  0  0
    9.8660   -1.7260   24.2410 O   0  0  0  0  0  0  0  0  0  0  0  0
   10.6630   -1.5280   23.1380 C   0  0  0  0  0  0  0  0  0  0  0  0
    9.7280   -1.4360   22.1160 C   0  0  0  0  0  0  0  0  0  0  0  0
    8.2970   -1.5750   22.5850 C   0  0  0  0  0  0  0  0  0  0  0  0
    9.6130    3.0130   23.6040 C   0  0  0  0  0  0  0  0  0  0  0  0
   10.5460    4.1680   23.8860 C   0  0  0  0  0  0  0  0  0  0  0  0
   10.1560    5.5960   23.5500 C   0  0  0  0  0  0  0  0  0  0  0  0
    8.8540    5.7460   22.9330 C   0  0  0  0  0  0  0  0  0  0  0  0
    8.0220    4.6440   22.6820 C   0  0  0  0  0  0  0  0  0  0  0  0
    8.3720    3.1940   23.0200 C   0  0  0  0  0  0  0  0  0  0  0  0
  2  4  1  0
  1  7  1  0
  3  7  2  0
  4  7  1  0
  1  9  1  0
  5 10  1  0
  6 10  2  0
  9 10  1  6
  8 12  1  0
 13 14  1  0
 13 15  1  0
 13 16  1  0
 15 17  3  0
 18 19  2  0
 19 20  1  0
 20 21  2  0
  9 22  1  0
 21 22  1  0
 18 23  1  0
 22 23  2  0
 24 25  1  0
 13 26  1  0
 25 26  1  0
 26 27  2  0
  1 28  1  0
 24 28  2  0
 27 28  1  0
 11 29  1  0
 29 30  2  0
  8 31  1  0
 30 31  1  0
 31 32  2  0
 32 33  1  0
  5 34  1  0
 29 34  1  0
 33 34  2  0
M  END
