x2608-x1402
     RDKit          3D

 37 40  0  0  0  0  0  0  0  0999 V2000
    7.1300   -3.4970   19.7290 C   0  0  0  0  0  0  0  0  0  0  0  0
    5.5090   -5.2480   19.9570 O   0  0  0  0  0  0  0  0  0  0  0  0
    0.8160   -1.2920   26.1280 Cl  0  0  0  0  0  0  0  0  0  0  0  0
    6.3040   -4.5390   20.5040 C   0  0  0  0  0  0  0  0  0  0  0  0
    4.0060   -6.4990   26.0590 O   0  0  0  0  0  0  0  0  0  0  0  0
    5.9800   -5.2760   26.9490 O   0  0  0  0  0  0  0  0  0  0  0  0
    4.9480   -5.4040   25.9610 S   0  0  0  0  0  0  0  0  0  0  0  0
    6.2720   -4.7170   22.0070 C   0  0  0  0  0  0  0  0  0  0  0  0
    7.5740   -4.9090   22.7660 C   0  0  0  0  0  0  0  0  0  0  0  0
    6.9890   -5.1620   24.1870 C   0  0  0  0  0  0  0  0  0  0  0  0
    5.6480   -5.5560   24.3870 N   0  0  0  0  0  0  0  0  0  0  0  0
    4.8990   -6.3090   23.4990 C   0  0  0  0  0  0  0  0  0  0  0  0
    5.4350   -5.9150   22.1660 C   0  0  0  0  0  0  0  0  0  0  0  0
    2.3570   -3.8820   26.0220 S   0  0  0  0  0  0  0  0  0  0  0  0
    4.0890   -3.9430   25.9880 C   0  0  0  0  0  0  0  0  0  0  0  0
    4.6760   -2.5580   25.9960 C   0  0  0  0  0  0  0  0  0  0  0  0
    3.5560   -1.5680   26.0390 C   0  0  0  0  0  0  0  0  0  0  0  0
    2.2920   -2.1670   26.0620 C   0  0  0  0  0  0  0  0  0  0  0  0
    8.7360   -1.0050   22.2890 N   0  0  0  0  0  0  0  0  0  0  0  0
   12.9970    1.5820   22.9700 C   0  0  0  0  0  0  0  0  0  0  0  0
    8.5510    0.9350   21.1070 O   0  0  0  0  0  0  0  0  0  0  0  0
    6.7100   -0.5030   21.1760 N   0  0  0  0  0  0  0  0  0  0  0  0
    8.0660   -0.1240   21.5080 C   0  0  0  0  0  0  0  0  0  0  0  0
    6.1770   -2.2450   22.6270 C   0  0  0  0  0  0  0  0  0  0  0  0
    6.5870   -1.8160   21.3920 C   0  0  0  0  0  0  0  0  0  0  0  0
   11.9830    0.5820   22.8570 C   0  0  0  0  0  0  0  0  0  0  0  0
   12.2430   -0.7720   22.9930 C   0  0  0  0  0  0  0  0  0  0  0  0
   11.1140   -1.5370   22.8180 C   0  0  0  0  0  0  0  0  0  0  0  0
   10.0120   -0.7280   22.5490 C   0  0  0  0  0  0  0  0  0  0  0  0
   10.3600    0.9320   22.5430 S   0  0  0  0  0  0  0  0  0  0  0  0
    6.1520    0.6110   17.7810 N   0  0  0  0  0  0  0  0  0  0  0  0
    6.7430   -0.0180   18.8170 C   0  0  0  0  0  0  0  0  0  0  0  0
    6.1680    0.0700   20.0920 C   0  0  0  0  0  0  0  0  0  0  0  0
    4.9940    0.7820   20.2990 C   0  0  0  0  0  0  0  0  0  0  0  0
    4.4050    1.4180   19.2210 C   0  0  0  0  0  0  0  0  0  0  0  0
    5.0180    1.3120   17.9870 C   0  0  0  0  0  0  0  0  0  0  0  0
    5.4760   -3.5860   22.5150 C   0  0  0  0  0  0  0  0  0  0  0  0
  1  4  1  0
  2  4  2  0
  5  7  2  0
  6  7  2  0
  8  4  1  0
  8  9  1  0
  9 10  1  0
  7 11  1  0
 10 11  1  0
 11 12  1  0
  8 13  1  0
 12 13  1  0
  7 15  1  0
 14 15  1  0
 15 16  2  0
 16 17  1  0
  3 18  1  0
 14 18  1  0
 17 18  2  0
 19 23  1  0
 21 23  2  0
 22 23  1  0
 22 25  1  0
 24 25  1  0
 20 26  1  0
 26 27  2  0
 27 28  1  0
 19 29  1  0
 28 29  2  0
 26 30  1  0
 29 30  1  0
 31 32  2  0
 22 33  1  0
 32 33  1  0
 33 34  2  0
 34 35  1  0
 31 36  1  0
 35 36  2  0
  8 37  1  0
 24 37  1  0
M  END
