x2608-x0434
     RDKit          3D

 16 17  0  0  0  0  0  0  0  0999 V2000
    8.7740   -1.1740   22.5270 N   0  0  0  0  0  0  0  0  0  0  0  0
   12.8820    2.2290   22.7770 C   0  0  0  0  0  0  0  0  0  0  0  0
    8.4690    0.6350   21.1620 O   0  0  0  0  0  0  0  0  0  0  0  0
    6.9310   -1.0030   21.0600 N   0  0  0  0  0  0  0  0  0  0  0  0
    8.0870   -0.4630   21.5660 C   0  0  0  0  0  0  0  0  0  0  0  0
   11.9960    0.9560   22.8570 C   0  0  0  0  0  0  0  0  0  0  0  0
   12.4680   -0.4590   23.2080 C   0  0  0  0  0  0  0  0  0  0  0  0
   11.3240   -1.4780   23.1490 C   0  0  0  0  0  0  0  0  0  0  0  0
   10.0410   -0.7010   22.7420 C   0  0  0  0  0  0  0  0  0  0  0  0
   10.2000    1.0050   22.5050 S   0  0  0  0  0  0  0  0  0  0  0  0
    6.0870    0.7000   17.6890 N   0  0  0  0  0  0  0  0  0  0  0  0
    6.7570   -0.1250   18.7130 C   0  0  0  0  0  0  0  0  0  0  0  0
    6.1920   -0.1880   20.1040 C   0  0  0  0  0  0  0  0  0  0  0  0
    4.9430    0.5980   20.3890 C   0  0  0  0  0  0  0  0  0  0  0  0
    4.3530    1.4060   19.2550 C   0  0  0  0  0  0  0  0  0  0  0  0
    4.9620    1.4120   17.9820 C   0  0  0  0  0  0  0  0  0  0  0  0
  1  5  1  0
  3  5  2  0
  4  5  1  0
  2  6  1  0
  6  7  2  0
  7  8  1  0
  1  9  1  0
  8  9  2  0
  6 10  1  0
  9 10  1  0
 11 12  2  0
  4 13  1  0
 12 13  1  0
 13 14  2  0
 14 15  1  0
 11 16  1  0
 15 16  2  0
M  END
