x2600-x0995
     RDKit          3D

 19 20  0  0  0  0  0  0  0  0999 V2000
   14.0130   -1.4900   20.3880 N   0  0  0  0  0  0  0  0  0  0  0  0
    8.3070    0.3770   21.7310 C   0  0  0  0  0  0  0  0  0  0  0  0
    8.9540    1.3250   21.2510 O   0  0  0  0  0  0  0  0  0  0  0  0
    8.6270   -0.2800   23.0760 C   0  0  0  0  0  0  0  0  0  0  0  0
    7.1430   -0.2280   21.0850 N   0  0  0  0  0  0  0  0  0  0  0  0
   13.2180   -1.3190   21.5180 C   0  0  0  0  0  0  0  0  0  0  0  0
    3.9120    1.9420   20.4670 N   0  0  0  0  0  0  0  0  0  0  0  0
    6.3630    0.5520   17.6530 N   0  0  0  0  0  0  0  0  0  0  0  0
    6.8750    0.1150   18.7590 C   0  0  0  0  0  0  0  0  0  0  0  0
    6.3530    0.3670   20.0020 C   0  0  0  0  0  0  0  0  0  0  0  0
    5.0710    1.1820   20.4060 C   0  0  0  0  0  0  0  0  0  0  0  0
    4.6930    1.5480   19.0750 C   0  0  0  0  0  0  0  0  0  0  0  0
    5.2780    1.2650   17.8500 C   0  0  0  0  0  0  0  0  0  0  0  0
   10.5940   -0.2420   24.6320 C   0  0  0  0  0  0  0  0  0  0  0  0
   11.9470   -0.4080   24.8340 C   0  0  0  0  0  0  0  0  0  0  0  0
   12.8180   -0.7620   23.8340 C   0  0  0  0  0  0  0  0  0  0  0  0
   12.3850   -0.9790   22.5440 C   0  0  0  0  0  0  0  0  0  0  0  0
   10.9380   -0.8040   22.3450 C   0  0  0  0  0  0  0  0  0  0  0  0
   10.0910   -0.4440   23.3660 C   0  0  0  0  0  0  0  0  0  0  0  0
  2  3  2  0
  2  4  1  0
  2  5  1  0
  1  6  3  0
  8  9  2  0
  5 10  1  0
  9 10  1  0
  7 11  1  0
 10 11  2  0
 11 12  1  0
  8 13  1  0
 12 13  2  0
 14 15  2  0
 15 16  1  0
  6 17  1  0
 16 17  2  0
 17 18  1  0
  4 19  1  0
 14 19  1  0
 18 19  2  0
M  END
