x2600-x1385
     RDKit          3D

 34 38  0  0  0  0  0  0  0  0999 V2000
   13.9910   -1.7250   20.4550 N   0  0  0  0  0  0  0  0  0  0  0  0
    8.0950   -0.6420   21.7530 C   0  0  1  0  0  0  0  0  0  0  0  0
    8.9570   -0.0780   21.1020 O   0  0  0  0  0  0  0  0  0  0  0  0
    8.5700   -0.9950   23.1510 C   0  0  2  0  0  0  0  0  0  0  0  0
    6.7980   -0.0210   21.6570 N   0  0  0  0  0  0  0  0  0  0  0  0
   13.1460   -1.3860   21.4750 C   0  0  0  0  0  0  0  0  0  0  0  0
    7.4320   -3.0260   18.6750 C   0  0  0  0  0  0  0  0  0  0  0  0
    5.4880   -4.0330   19.6780 O   0  0  0  0  0  0  0  0  0  0  0  0
    6.4600   -3.2730   19.8350 C   0  0  0  0  0  0  0  0  0  0  0  0
    9.6460   -3.1420   24.1400 C   0  0  0  0  0  0  0  0  0  0  0  0
    7.0640   -5.7590   28.5700 Br  0  0  0  0  0  0  0  0  0  0  0  0
    6.3380    0.5130   17.8890 N   0  0  0  0  0  0  0  0  0  0  0  0
    6.9230    0.0250   19.1420 C   0  0  0  0  0  0  0  0  0  0  0  0
    6.2920    0.3940   20.3410 C   0  0  0  0  0  0  0  0  0  0  0  0
    5.1490    1.1790   20.3750 C   0  0  0  0  0  0  0  0  0  0  0  0
    4.6190    1.6200   19.1640 C   0  0  0  0  0  0  0  0  0  0  0  0
    5.2360    1.2710   17.9680 C   0  0  0  0  0  0  0  0  0  0  0  0
   10.5210    0.3480   24.1850 C   0  0  0  0  0  0  0  0  0  0  0  0
   11.9460    0.6700   24.1640 C   0  0  0  0  0  0  0  0  0  0  0  0
   12.7100    0.0450   23.2520 C   0  0  0  0  0  0  0  0  0  0  0  0
   12.1660   -0.8310   22.4000 C   0  0  0  0  0  0  0  0  0  0  0  0
   10.8530   -1.1480   22.3810 C   0  0  0  0  0  0  0  0  0  0  0  0
    9.9920   -0.5560   23.2840 C   0  0  0  0  0  0  0  0  0  0  0  0
    6.7090   -2.6700   21.0740 N   0  0  0  0  0  0  0  0  0  0  0  0
    6.4240   -3.3960   22.3330 C   0  0  0  0  0  0  0  0  0  0  0  0
    7.1250   -2.8490   23.5950 C   0  0  0  0  0  0  0  0  0  0  0  0
    8.5530   -2.5230   23.2240 C   0  0  1  0  0  0  0  0  0  0  0  0
    8.9430   -2.8230   21.8240 C   0  0  0  0  0  0  0  0  0  0  0  0
    7.9860   -1.9790   21.0370 C   0  0  2  0  0  0  0  0  0  0  0  0
    9.7690   -5.4080   25.3620 C   0  0  0  0  0  0  0  0  0  0  0  0
    9.2550   -4.1430   25.1770 C   0  0  0  0  0  0  0  0  0  0  0  0
    8.0230   -3.7570   26.3320 S   0  0  0  0  0  0  0  0  0  0  0  0
    8.1400   -5.2490   27.0890 C   0  0  0  0  0  0  0  0  0  0  0  0
    9.1890   -6.1060   26.4360 C   0  0  0  0  0  0  0  0  0  0  0  0
  2  3  1  6
  2  4  1  0
  2  5  1  0
  1  6  3  0
  7  9  1  0
  8  9  2  0
 12 13  2  0
  5 14  1  0
 13 14  1  0
 14 15  2  0
 15 16  1  0
 12 17  1  0
 16 17  2  0
 18 19  2  0
 19 20  1  0
  6 21  1  0
 20 21  2  0
 21 22  1  0
  4 23  1  6
 18 23  1  0
 22 23  2  0
  9 24  1  0
 24 25  1  0
 25 26  1  0
  4 27  1  0
 27 10  1  1
 26 27  1  0
 27 28  1  0
  2 29  1  0
 29 24  1  1
 28 29  1  0
 10 31  1  0
 30 31  2  0
 31 32  1  0
 11 33  1  0
 32 33  1  0
 30 34  1  0
 33 34  2  0
M  END
