x2608-x0759
     RDKit          3D

 25 27  0  0  0  0  0  0  0  0999 V2000
    8.5360   -1.1150   21.7600 N   0  0  0  0  0  0  0  0  0  0  0  0
   12.9190    1.3180   23.1220 C   0  0  0  0  0  0  0  0  0  0  0  0
    7.8740    0.7360   20.7550 O   0  0  0  0  0  0  0  0  0  0  0  0
    6.4710   -0.9940   20.6580 N   0  0  0  0  0  0  0  0  0  0  0  0
    7.6380   -0.4400   21.0530 C   0  0  0  0  0  0  0  0  0  0  0  0
    5.6240   -4.0720   19.8360 O   0  0  0  0  0  0  0  0  0  0  0  0
    6.6710   -3.4480   20.1950 C   0  0  0  0  0  0  0  0  0  0  0  0
    7.5330   -2.9960   19.0770 C   0  0  0  0  0  0  0  0  0  0  0  0
   11.9450    0.2450   22.9230 C   0  0  0  0  0  0  0  0  0  0  0  0
   12.1980   -1.2470   23.1600 C   0  0  0  0  0  0  0  0  0  0  0  0
   10.8890   -1.9820   22.7580 C   0  0  0  0  0  0  0  0  0  0  0  0
    9.8340   -0.9750   22.2770 C   0  0  0  0  0  0  0  0  0  0  0  0
   10.3420    0.6650   22.3560 S   0  0  0  0  0  0  0  0  0  0  0  0
    6.0480    1.0310   17.5420 N   0  0  0  0  0  0  0  0  0  0  0  0
    6.5680    0.0910   18.5440 C   0  0  0  0  0  0  0  0  0  0  0  0
    5.8620   -0.0890   19.7110 C   0  0  0  0  0  0  0  0  0  0  0  0
    4.6850    0.5840   19.9360 C   0  0  0  0  0  0  0  0  0  0  0  0
    4.1950    1.4580   19.0070 C   0  0  0  0  0  0  0  0  0  0  0  0
    4.8910    1.6640   17.8350 C   0  0  0  0  0  0  0  0  0  0  0  0
    7.0720   -3.3030   21.5640 N   0  0  0  0  0  0  0  0  0  0  0  0
    7.5900   -2.1880   22.3020 C   0  0  1  0  0  0  0  0  0  0  0  0
    8.2200   -2.5600   23.4820 C   0  0  0  0  0  0  0  0  0  0  0  0
    8.4350   -3.9610   23.4270 O   0  0  0  0  0  0  0  0  0  0  0  0
    7.3010   -4.7110   23.5190 C   0  0  0  0  0  0  0  0  0  0  0  0
    6.4560   -4.2410   22.5120 C   0  0  0  0  0  0  0  0  0  0  0  0
  1  5  1  0
  3  5  2  0
  4  5  1  0
  6  7  2  0
  7  8  1  0
  2  9  1  0
  9 10  2  0
 10 11  1  0
  1 12  1  0
 11 12  2  0
  9 13  1  0
 12 13  1  0
 14 15  2  0
  4 16  1  0
 15 16  1  0
 16 17  2  0
 17 18  1  0
 14 19  1  0
 18 19  2  0
  7 20  1  0
 21  1  1  6
 20 21  1  0
 21 22  1  0
 22 23  1  0
 23 24  1  0
 20 25  1  0
 24 25  1  0
M  END
