x2608-x3117
     RDKit          3D

 34 36  0  0  0  0  0  0  0  0999 V2000
    6.8600   -1.6370   21.9610 N   0  0  0  0  0  0  0  0  0  0  0  0
    6.7180   -4.8710   20.4570 C   0  0  0  0  0  0  0  0  0  0  0  0
    4.8100   -3.0230   21.3010 O   0  0  0  0  0  0  0  0  0  0  0  0
    6.8450   -4.1330   21.8020 C   0  0  0  0  0  0  0  0  0  0  0  0
    7.5840    1.8850   22.8600 N   0  0  0  0  0  0  0  0  0  0  0  0
    8.8450    0.4870   21.4610 O   0  0  0  0  0  0  0  0  0  0  0  0
    6.0640   -2.8520   21.6630 C   0  0  0  0  0  0  0  0  0  0  0  0
    6.4560   -0.2100   21.7130 C   0  0  1  0  0  0  0  0  0  0  0  0
    7.7490    0.6960   21.9740 C   0  0  0  0  0  0  0  0  0  0  0  0
   12.2720   -1.9420   24.0530 C   0  0  0  0  0  0  0  0  0  0  0  0
   12.5400   -0.5690   24.5910 C   0  0  0  0  0  0  0  0  0  0  0  0
   13.2710   -2.1530   22.9040 C   0  0  0  0  0  0  0  0  0  0  0  0
   12.6770   -2.9850   25.0710 C   0  0  0  0  0  0  0  0  0  0  0  0
    6.3500    0.2990   17.8800 N   0  0  0  0  0  0  0  0  0  0  0  0
    5.1930    1.1580   17.8430 C   0  0  0  0  0  0  0  0  0  0  0  0
    4.4750    1.5400   18.9410 C   0  0  0  0  0  0  0  0  0  0  0  0
    4.8880    1.0830   20.1740 C   0  0  0  0  0  0  0  0  0  0  0  0
    6.0010    0.2630   20.2720 C   0  0  0  0  0  0  0  0  0  0  0  0
    6.7250   -0.1320   19.1430 C   0  0  0  0  0  0  0  0  0  0  0  0
    9.6600    5.0560   24.0890 O   0  0  0  0  0  0  0  0  0  0  0  0
   10.3390    3.8400   23.8060 C   0  0  0  0  0  0  0  0  0  0  0  0
    9.4410    2.8100   24.0410 C   0  0  0  0  0  0  0  0  0  0  0  0
    8.5310    2.9710   22.9830 C   0  0  0  0  0  0  0  0  0  0  0  0
    7.7970    4.2900   23.0570 C   0  0  0  0  0  0  0  0  0  0  0  0
    8.7030    5.2990   23.1550 C   0  0  0  0  0  0  0  0  0  0  0  0
    9.2680   -2.0870   21.6850 C   0  0  0  0  0  0  0  0  0  0  0  0
   10.5790   -2.1590   22.2170 C   0  0  0  0  0  0  0  0  0  0  0  0
   10.8390   -1.8850   23.5460 C   0  0  0  0  0  0  0  0  0  0  0  0
    9.7910   -1.5370   24.3860 C   0  0  0  0  0  0  0  0  0  0  0  0
    8.4960   -1.4690   23.8590 C   0  0  0  0  0  0  0  0  0  0  0  0
    8.1940   -1.7320   22.5080 C   0  0  0  0  0  0  0  0  0  0  0  0
   12.7400    2.7240   22.7680 C   0  0  0  0  0  0  0  0  0  0  0  0
   12.7960    0.3640   23.4030 C   0  0  0  0  0  0  0  0  0  0  0  0
   11.9480    1.5960   23.3950 C   0  0  0  0  0  0  0  0  0  0  0  0
  2  4  1  0
  1  7  1  0
  3  7  2  0
  4  7  1  0
  1  8  1  0
  5  9  1  0
  6  9  2  0
  8  9  1  6
 10 11  1  0
 10 12  1  0
 10 13  1  0
 14 15  2  0
 15 16  1  0
 16 17  2  0
  8 18  1  0
 17 18  1  0
 14 19  1  0
 18 19  2  0
 20 21  1  0
 21 22  1  0
  5 23  1  0
 22 23  1  0
 23 24  1  0
 20 25  1  0
 24 25  1  0
 26 27  2  0
 10 28  1  0
 27 28  1  0
 28 29  2  0
 29 30  1  0
  1 31  1  0
 26 31  1  0
 30 31  2  0
 11 33  1  0
 32 34  1  0
 33 34  1  0
M  END
