x2608-x2540
     RDKit          3D

 30 31  0  0  0  0  0  0  0  0999 V2000
    6.0330   -0.9970   22.2650 N   0  0  0  0  0  0  0  0  0  0  0  0
    6.6810   -3.7030   19.7700 C   0  0  0  0  0  0  0  0  0  0  0  0
    4.6000   -2.9920   21.6370 O   0  0  0  0  0  0  0  0  0  0  0  0
    6.8930   -3.1160   21.1520 C   0  0  0  0  0  0  0  0  0  0  0  0
    7.5590    1.7490   23.2650 N   0  0  0  0  0  0  0  0  0  0  0  0
    8.2060    1.9200   21.0910 O   0  0  0  0  0  0  0  0  0  0  0  0
    5.7320   -2.3390   21.7240 C   0  0  0  0  0  0  0  0  0  0  0  0
    7.2330   -0.2420   21.6970 C   0  0  2  0  0  0  0  0  0  0  0  0
    7.6890    1.2430   22.0020 C   0  0  0  0  0  0  0  0  0  0  0  0
    8.5500    2.8050   23.5370 C   0  0  0  0  0  0  0  0  0  0  0  0
    8.4620    3.1230   24.9890 C   0  0  0  0  0  0  0  0  0  0  0  0
    8.2270    4.1130   22.7820 C   0  0  0  0  0  0  0  0  0  0  0  0
    9.8800    2.4500   23.1530 C   0  0  0  0  0  0  0  0  0  0  0  0
   12.0970   -1.4240   23.3170 C   0  0  0  0  0  0  0  0  0  0  0  0
   12.7650   -1.7650   22.1280 C   0  0  0  0  0  0  0  0  0  0  0  0
   12.4380   -0.1210   23.9810 C   0  0  0  0  0  0  0  0  0  0  0  0
   12.3790   -2.4160   24.3080 C   0  0  0  0  0  0  0  0  0  0  0  0
    6.6020   -0.0100   17.9020 N   0  0  0  0  0  0  0  0  0  0  0  0
    5.6060    0.9370   17.8750 C   0  0  0  0  0  0  0  0  0  0  0  0
    5.1600    1.4790   19.0330 C   0  0  0  0  0  0  0  0  0  0  0  0
    5.7280    1.0580   20.2230 C   0  0  0  0  0  0  0  0  0  0  0  0
    6.7570    0.0810   20.2810 C   0  0  0  0  0  0  0  0  0  0  0  0
    7.1490   -0.4160   19.0730 C   0  0  0  0  0  0  0  0  0  0  0  0
    9.7430   -2.3240   23.6520 O   0  0  0  0  0  0  0  0  0  0  0  0
    8.4240   -2.0560   23.2350 N   0  0  0  0  0  0  0  0  0  0  0  0
    8.4810   -0.8870   22.3050 C   0  0  0  0  0  0  0  0  0  0  0  0
    9.8320   -0.5670   22.2360 C   0  0  0  0  0  0  0  0  0  0  0  0
   10.5760   -1.4190   23.0480 C   0  0  0  0  0  0  0  0  0  0  0  0
   12.4730    2.1660   23.0600 C   0  0  0  0  0  0  0  0  0  0  0  0
   12.9170    0.8540   22.9610 C   0  0  0  0  0  0  0  0  0  0  0  0
  2  4  1  0
  1  7  1  0
  3  7  2  0
  4  7  1  0
  8  1  1  1
  5  9  1  0
  6  9  2  0
  8  9  1  0
 10  5  1  0
 10 11  1  0
 10 12  1  0
 10 13  1  0
 14 15  1  0
 14 16  1  0
 14 17  1  0
 18 19  2  0
 19 20  1  0
 20 21  2  0
  8 22  1  0
 21 22  1  0
 18 23  1  0
 22 23  2  0
 24 25  1  0
  8 26  1  0
 25 26  2  0
 26 27  1  0
 14 28  1  0
 24 28  1  0
 27 28  2  0
 16 30  1  0
 29 30  1  0
M  END
