x2600-x2563
     RDKit          3D

 21 24  0  0  0  0  0  0  0  0999 V2000
   13.9940   -1.5520   20.4160 N   0  0  0  0  0  0  0  0  0  0  0  0
    8.5130    0.4010   21.6400 C   0  0  0  0  0  0  0  0  0  0  0  0
    8.8580    1.5300   21.2490 O   0  0  0  0  0  0  0  0  0  0  0  0
    8.6900   -0.0840   23.0770 C   0  0  0  0  0  0  0  0  0  0  0  0
    7.9170   -0.6060   20.7820 N   0  0  0  0  0  0  0  0  0  0  0  0
   13.2100   -1.3510   21.5460 C   0  0  0  0  0  0  0  0  0  0  0  0
    4.7790    0.4700   18.6220 C   0  0  1  0  0  0  0  0  0  0  0  0
    5.9630   -0.4970   18.8040 C   0  0  0  0  0  0  0  0  0  0  0  0
    6.7330   -0.1190   20.0820 C   0  0  0  0  0  0  0  0  0  0  0  0
    5.8540    0.7390   20.2830 C   0  0  0  0  0  0  0  0  0  0  0  0
    5.1580    1.6390   17.9710 C   0  0  0  0  0  0  0  0  0  0  0  0
   10.6650   -0.1680   24.6420 C   0  0  0  0  0  0  0  0  0  0  0  0
   11.9980   -0.3970   24.8780 C   0  0  0  0  0  0  0  0  0  0  0  0
   12.8180   -0.7860   23.8590 C   0  0  0  0  0  0  0  0  0  0  0  0
   12.3880   -0.9780   22.5670 C   0  0  0  0  0  0  0  0  0  0  0  0
   10.9470   -0.7340   22.3450 C   0  0  0  0  0  0  0  0  0  0  0  0
   10.1320   -0.3320   23.3840 C   0  0  0  0  0  0  0  0  0  0  0  0
    3.7120    1.0790   19.7240 C   0  0  0  0  0  0  0  0  0  0  0  0
    3.8910    1.1360   21.1480 C   0  0  0  0  0  0  0  0  0  0  0  0
    5.0000    0.4850   21.3330 C   0  0  0  0  0  0  0  0  0  0  0  0
    5.7620    1.7000   19.1340 C   0  0  0  0  0  0  0  0  0  0  0  0
  2  3  2  0
  2  4  1  0
  2  5  1  0
  1  6  3  0
  7  8  1  1
  5  9  1  0
  8  9  2  0
  9 10  1  0
  7 11  1  0
 12 13  2  0
 13 14  1  0
  6 15  1  0
 14 15  2  0
 15 16  1  0
  4 17  1  0
 12 17  1  0
 16 17  2  0
  7 18  1  0
 18 19  2  0
 10 20  2  0
 19 20  1  0
  7 21  1  0
 10 21  1  0
 11 21  2  0
M  END
