x2608-x2649
     RDKit          3D

 20 21  0  0  0  0  0  0  0  0999 V2000
    6.6370   -0.8520   20.9310 N   0  0  0  0  0  0  0  0  0  0  0  0
    7.5580   -1.3650   23.7750 C   0  0  0  0  0  0  0  0  0  0  0  0
    8.3650    0.6620   21.3650 O   0  0  0  0  0  0  0  0  0  0  0  0
   13.1850   -2.3690   21.5420 Cl  0  0  0  0  0  0  0  0  0  0  0  0
    8.2920   -1.4350   22.4690 C   0  0  1  0  0  0  0  0  0  0  0  0
    7.8290   -0.4500   21.5950 C   0  0  0  0  0  0  0  0  0  0  0  0
    4.8420    1.0080   21.8850 C   0  0  0  0  0  0  0  0  0  0  0  0
   13.5270    0.5180   22.8120 C   0  0  0  0  0  0  0  0  0  0  0  0
    6.1080    0.5850   17.5090 N   0  0  0  0  0  0  0  0  0  0  0  0
    5.1420    1.6390   17.7310 C   0  0  0  0  0  0  0  0  0  0  0  0
    4.6530    1.8650   19.1320 C   0  0  0  0  0  0  0  0  0  0  0  0
    5.0280    1.1300   20.4120 C   0  0  0  0  0  0  0  0  0  0  0  0
    6.0300    0.0680   19.9890 C   0  0  0  0  0  0  0  0  0  0  0  0
    6.5060   -0.1360   18.5740 C   0  0  0  0  0  0  0  0  0  0  0  0
    9.9220    0.4310   23.1560 C   0  0  0  0  0  0  0  0  0  0  0  0
   11.1860    0.8230   23.1870 C   0  0  0  0  0  0  0  0  0  0  0  0
   12.2130   -0.0650   22.6900 C   0  0  0  0  0  0  0  0  0  0  0  0
   12.0130   -1.3160   22.1570 C   0  0  0  0  0  0  0  0  0  0  0  0
   10.7320   -1.7160   22.1200 C   0  0  0  0  0  0  0  0  0  0  0  0
    9.6650   -0.9610   22.5700 C   0  0  0  0  0  0  0  0  0  0  0  0
  5  2  1  1
  1  6  1  0
  3  6  2  0
  5  6  1  0
  9 10  2  0
 10 11  1  0
  7 12  1  0
 11 12  2  0
  1 13  1  0
 12 13  1  0
  9 14  1  0
 13 14  2  0
 15 16  2  0
  8 17  1  0
 16 17  1  0
  4 18  1  0
 17 18  2  0
 18 19  1  0
  5 20  1  0
 15 20  1  0
 19 20  2  0
M  END
