x2600-x2908
     RDKit          3D

 19 20  0  0  0  0  0  0  0  0999 V2000
   13.9990   -1.5320   20.4010 N   0  0  0  0  0  0  0  0  0  0  0  0
    8.2800    0.3330   21.7310 C   0  0  0  0  0  0  0  0  0  0  0  0
    8.8130    1.3300   21.1960 O   0  0  0  0  0  0  0  0  0  0  0  0
    8.6120   -0.1440   23.1360 C   0  0  0  0  0  0  0  0  0  0  0  0
    7.2640   -0.5220   21.1290 N   0  0  0  0  0  0  0  0  0  0  0  0
   13.1770   -1.3650   21.5100 C   0  0  0  0  0  0  0  0  0  0  0  0
    4.9470    1.2270   21.7240 C   0  0  0  0  0  0  0  0  0  0  0  0
    6.2390    0.6140   17.5870 N   0  0  0  0  0  0  0  0  0  0  0  0
    6.9760   -0.0720   18.6480 C   0  0  0  0  0  0  0  0  0  0  0  0
    6.5310    0.1480   20.0600 C   0  0  0  0  0  0  0  0  0  0  0  0
    5.4550    0.9670   20.3010 C   0  0  0  0  0  0  0  0  0  0  0  0
    4.7720    1.6030   19.2760 C   0  0  0  0  0  0  0  0  0  0  0  0
    5.2050    1.3940   17.9630 C   0  0  0  0  0  0  0  0  0  0  0  0
   10.7490   -0.2170   24.7250 C   0  0  0  0  0  0  0  0  0  0  0  0
   12.1110   -0.4400   24.9230 C   0  0  0  0  0  0  0  0  0  0  0  0
   12.9480   -0.8240   23.8960 C   0  0  0  0  0  0  0  0  0  0  0  0
   12.2540   -0.9680   22.6180 C   0  0  0  0  0  0  0  0  0  0  0  0
   10.9080   -0.7660   22.3730 C   0  0  0  0  0  0  0  0  0  0  0  0
   10.0720   -0.3830   23.3670 C   0  0  0  0  0  0  0  0  0  0  0  0
  2  3  2  0
  2  4  1  0
  2  5  1  0
  1  6  3  0
  8  9  2  0
  5 10  1  0
  9 10  1  0
  7 11  1  0
 10 11  2  0
 11 12  1  0
  8 13  1  0
 12 13  2  0
 14 15  2  0
 15 16  1  0
  6 17  1  0
 16 17  2  0
 17 18  1  0
  4 19  1  0
 14 19  1  0
 18 19  2  0
M  END
