x2600-x0692
     RDKit          3D

 29 32  0  0  0  0  0  0  0  0999 V2000
   13.6070   -2.8310   20.6970 N   0  0  0  0  0  0  0  0  0  0  0  0
    7.6110   -0.3020   22.2510 C   0  0  0  0  0  0  0  0  0  0  0  0
    7.1810    0.8440   22.2110 O   0  0  0  0  0  0  0  0  0  0  0  0
    8.5290   -0.8230   23.3150 C   0  0  2  0  0  0  0  0  0  0  0  0
   12.9670   -1.8810   21.5460 C   0  0  0  0  0  0  0  0  0  0  0  0
    9.8360    1.5280   24.5450 C   0  0  0  0  0  0  0  0  0  0  0  0
    5.3900   -4.1680   19.8080 O   0  0  0  0  0  0  0  0  0  0  0  0
    9.5520   -2.9580   23.6940 C   0  0  0  0  0  0  0  0  0  0  0  0
    6.2050   -3.2290   19.9480 C   0  0  0  0  0  0  0  0  0  0  0  0
    7.2090   -2.9660   18.7990 C   0  0  0  0  0  0  0  0  0  0  0  0
   10.6120    0.6610   23.8030 C   0  0  0  0  0  0  0  0  0  0  0  0
   11.9680    0.9240   23.6690 C   0  0  0  0  0  0  0  0  0  0  0  0
   12.7510    0.0780   22.9270 C   0  0  0  0  0  0  0  0  0  0  0  0
   12.1780   -1.0230   22.3170 C   0  0  0  0  0  0  0  0  0  0  0  0
   10.8470   -1.3880   22.3770 C   0  0  0  0  0  0  0  0  0  0  0  0
   10.0270   -0.4630   23.1910 C   0  0  0  0  0  0  0  0  0  0  0  0
    6.2910   -2.3730   21.1230 N   0  0  0  0  0  0  0  0  0  0  0  0
    7.4100   -1.4400   21.1870 C   0  0  2  0  0  0  0  0  0  0  0  0
    8.4980   -2.2070   21.6700 C   0  0  0  0  0  0  0  0  0  0  0  0
    8.3620   -2.2490   23.0280 C   0  0  2  0  0  0  0  0  0  0  0  0
    7.1240   -2.7840   23.4200 C   0  0  0  0  0  0  0  0  0  0  0  0
    6.2000   -3.1270   22.3810 C   0  0  0  0  0  0  0  0  0  0  0  0
    6.0400    0.2860   17.9310 N   0  0  0  0  0  0  0  0  0  0  0  0
    7.0080   -0.3200   18.8750 C   0  0  0  0  0  0  0  0  0  0  0  0
    6.5050    0.4900   20.0840 C   0  0  0  0  0  0  0  0  0  0  0  0
    5.4260    1.5300   20.2900 C   0  0  0  0  0  0  0  0  0  0  0  0
    4.6040    1.9560   19.1500 C   0  0  0  0  0  0  0  0  0  0  0  0
    4.9840    1.2830   18.0000 C   0  0  0  0  0  0  0  0  0  0  0  0
    7.7630   -0.6660   19.9880 C   0  0  0  0  0  0  0  0  0  0  0  0
  2  3  2  0
  2  4  1  0
  1  5  3  0
  7  9  2  0
  9 10  1  0
  6 11  1  0
 11 12  2  0
 12 13  1  0
  5 14  1  0
 13 14  2  0
 14 15  1  0
  4 16  1  6
 11 16  1  0
 15 16  2  0
  9 17  1  0
  2 18  1  0
 17 18  1  0
 18 19  1  0
  4 20  1  0
 20  8  1  1
 19 20  1  0
 20 21  1  0
 17 22  1  0
 21 22  1  0
 23 24  2  0
 24 25  1  0
 25 26  2  0
 26 27  1  0
 23 28  1  0
 27 28  2  0
 18 29  1  6
 24 29  1  0
M  END
