x2608-x0770
     RDKit          3D

 28 31  0  0  0  0  0  0  0  0999 V2000
    7.3280   -3.0250   18.7620 C   0  0  0  0  0  0  0  0  0  0  0  0
    5.4230   -4.0610   19.7160 O   0  0  0  0  0  0  0  0  0  0  0  0
   13.3650   -1.5760   21.3560 Cl  0  0  0  0  0  0  0  0  0  0  0  0
    6.4090   -3.3420   19.8850 C   0  0  0  0  0  0  0  0  0  0  0  0
    9.1850   -2.5490   24.0860 C   0  0  0  0  0  0  0  0  0  0  0  0
    9.3890   -0.0210   21.4210 O   0  0  0  0  0  0  0  0  0  0  0  0
    8.6020   -0.9490   21.5890 C   0  0  0  0  0  0  0  0  0  0  0  0
   13.0990    1.4120   22.8740 C   0  0  0  0  0  0  0  0  0  0  0  0
    6.7970   -2.8270   21.1090 N   0  0  0  0  0  0  0  0  0  0  0  0
    7.3050   -1.5550   21.3440 C   0  0  2  0  0  0  0  0  0  0  0  0
    8.5520   -2.1100   22.2620 C   0  0  2  0  0  0  0  0  0  0  0  0
    8.2640   -2.2720   23.4080 N   0  0  0  0  0  0  0  0  0  0  0  0
    7.2390   -3.3150   23.5520 C   0  0  0  0  0  0  0  0  0  0  0  0
    6.4150   -3.5760   22.3100 C   0  0  0  0  0  0  0  0  0  0  0  0
   10.2420   -0.3750   24.3720 C   0  0  0  0  0  0  0  0  0  0  0  0
   11.2070    0.5620   24.0540 C   0  0  0  0  0  0  0  0  0  0  0  0
   12.1550    0.2770   23.1550 C   0  0  0  0  0  0  0  0  0  0  0  0
   12.2090   -1.0830   22.4940 C   0  0  0  0  0  0  0  0  0  0  0  0
   11.2160   -1.9590   22.8560 C   0  0  0  0  0  0  0  0  0  0  0  0
   10.2410   -1.6240   23.7630 C   0  0  0  0  0  0  0  0  0  0  0  0
    6.1460    0.8430   17.7030 N   0  0  0  0  0  0  0  0  0  0  0  0
    6.4910   -0.1160   18.5260 C   0  0  0  0  0  0  0  0  0  0  0  0
    5.7880   -0.3020   19.7340 C   0  0  0  0  0  0  0  0  0  0  0  0
    4.6810    0.3690   20.3420 C   0  0  0  0  0  0  0  0  0  0  0  0
    4.4290    1.3540   19.3600 C   0  0  0  0  0  0  0  0  0  0  0  0
    5.1000    1.5570   18.1610 C   0  0  0  0  0  0  0  0  0  0  0  0
    6.3270   -0.5390   21.7680 C   0  0  0  0  0  0  0  0  0  0  0  0
    5.0780   -0.6820   21.2160 C   0  0  0  0  0  0  0  0  0  0  0  0
  1  4  1  0
  2  4  2  0
  6  7  2  0
  4  9  1  0
  7 10  1  0
  9 10  1  0
 11  7  1  1
 10 11  1  0
  5 12  1  0
 11 12  1  0
 12 13  1  0
  9 14  1  0
 13 14  1  0
 15 16  2  0
  8 17  1  0
 16 17  1  0
  3 18  1  0
 17 18  2  0
 18 19  1  0
  5 20  1  0
 15 20  1  0
 19 20  2  0
 21 22  2  0
 22 23  1  0
 23 24  2  0
 24 25  1  0
 21 26  1  0
 25 26  2  0
 10 27  1  1
 24 28  1  0
 27 28  1  0
M  END
