x2608-x1336
     RDKit          3D

 36 40  0  0  0  0  0  0  0  0999 V2000
    5.9960   -5.5350   29.0410 C   0  0  0  0  0  0  0  0  0  0  0  0
    8.6930   -1.0420   25.3370 O   0  0  0  0  0  0  0  0  0  0  0  0
    6.2140   -1.4360   25.5260 O   0  0  0  0  0  0  0  0  0  0  0  0
    5.3340   -4.2030   19.7440 O   0  0  0  0  0  0  0  0  0  0  0  0
   10.1280   -3.7590   25.3130 C   0  0  0  0  0  0  0  0  0  0  0  0
    6.2820   -3.4480   19.9730 C   0  0  0  0  0  0  0  0  0  0  0  0
    7.2680   -3.0700   18.8960 C   0  0  0  0  0  0  0  0  0  0  0  0
    7.5500   -1.9150   25.2490 S   0  0  0  0  0  0  0  0  0  0  0  0
    8.4920   -0.5110   22.6590 N   0  0  0  0  0  0  0  0  0  0  0  0
   13.0600    1.6070   22.9280 C   0  0  0  0  0  0  0  0  0  0  0  0
    8.6660    1.4430   20.9890 O   0  0  0  0  0  0  0  0  0  0  0  0
    7.3920   -0.7800   20.6940 N   0  0  0  0  0  0  0  0  0  0  0  0
    8.2220    0.1420   21.4200 C   0  0  0  0  0  0  0  0  0  0  0  0
    7.0120   -5.0260   28.0680 C   0  0  0  0  0  0  0  0  0  0  0  0
    6.7030   -3.7870   27.2380 C   0  0  0  0  0  0  0  0  0  0  0  0
    7.8090   -3.3280   26.2480 C   0  0  0  0  0  0  0  0  0  0  0  0
    8.9870   -4.0940   26.2130 C   0  0  0  0  0  0  0  0  0  0  0  0
    9.2190   -5.2180   26.9920 C   0  0  0  0  0  0  0  0  0  0  0  0
    8.3300   -5.7360   27.9070 C   0  0  0  0  0  0  0  0  0  0  0  0
    6.4860   -2.9680   21.2340 N   0  0  0  0  0  0  0  0  0  0  0  0
    6.5440   -4.0110   22.1000 C   0  0  0  0  0  0  0  0  0  0  0  0
    6.6130   -3.7240   23.4760 C   0  0  0  0  0  0  0  0  0  0  0  0
    7.5720   -2.5860   23.7110 N   0  0  0  0  0  0  0  0  0  0  0  0
    7.4300   -1.5360   22.7000 C   0  0  2  0  0  0  0  0  0  0  0  0
    7.4370   -2.0600   21.4440 C   0  0  2  0  0  0  0  0  0  0  0  0
   11.9650    0.6170   22.9800 C   0  0  0  0  0  0  0  0  0  0  0  0
   12.1170   -0.8260   23.2940 C   0  0  0  0  0  0  0  0  0  0  0  0
   10.8780   -1.3450   23.2100 C   0  0  0  0  0  0  0  0  0  0  0  0
    9.8590   -0.4410   22.8760 C   0  0  0  0  0  0  0  0  0  0  0  0
   10.4160    1.1570   22.6560 S   0  0  0  0  0  0  0  0  0  0  0  0
    5.9900    0.7480   17.7080 N   0  0  0  0  0  0  0  0  0  0  0  0
    6.8570    0.0280   18.6160 C   0  0  0  0  0  0  0  0  0  0  0  0
    6.3780   -0.0980   19.9090 C   0  0  0  0  0  0  0  0  0  0  0  0
    5.1590    0.3770   20.3750 C   0  0  0  0  0  0  0  0  0  0  0  0
    4.3470    1.0610   19.4870 C   0  0  0  0  0  0  0  0  0  0  0  0
    4.8280    1.2150   18.1820 C   0  0  0  0  0  0  0  0  0  0  0  0
  4  6  2  0
  6  7  1  0
  2  8  2  0
  3  8  2  0
  9 13  1  0
 11 13  2  0
 12 13  1  0
  1 14  1  0
 14 15  2  0
  8 16  1  0
 15 16  1  0
  5 17  1  0
 16 17  2  0
 17 18  1  0
 14 19  1  0
 18 19  2  0
  6 20  1  0
 20 21  1  0
 21 22  1  0
  8 23  1  0
 22 23  1  0
 24  9  1  6
 23 24  1  0
 25 12  1  6
 20 25  1  0
 24 25  1  0
 10 26  1  0
 26 27  2  0
 27 28  1  0
  9 29  1  0
 28 29  2  0
 26 30  1  0
 29 30  1  0
 31 32  2  0
 12 33  1  0
 32 33  1  0
 33 34  2  0
 34 35  1  0
 31 36  1  0
 35 36  2  0
M  END
