x2608-x0305
     RDKit          3D

 24 25  0  0  0  0  0  0  0  0999 V2000
    8.3330   -1.4390   22.4300 N   0  0  0  0  0  0  0  0  0  0  0  0
   12.3150    2.2080   22.9630 C   0  0  0  0  0  0  0  0  0  0  0  0
    7.0130    0.3960   22.7730 O   0  0  0  0  0  0  0  0  0  0  0  0
    6.4100   -1.1140   21.1700 N   0  0  0  0  0  0  0  0  0  0  0  0
    7.2360   -0.6500   22.1710 C   0  0  0  0  0  0  0  0  0  0  0  0
   11.2940    1.0180   22.8220 C   0  0  0  0  0  0  0  0  0  0  0  0
   11.5530   -0.4240   22.6720 C   0  0  0  0  0  0  0  0  0  0  0  0
   10.9240   -1.8030   22.5020 C   0  0  0  0  0  0  0  0  0  0  0  0
    9.5980   -0.8400   22.5570 C   0  0  0  0  0  0  0  0  0  0  0  0
    9.5040    0.9580   22.7480 S   0  0  0  0  0  0  0  0  0  0  0  0
    6.2170    0.6690   17.7170 N   0  0  0  0  0  0  0  0  0  0  0  0
    6.6700   -0.2070   18.8170 C   0  0  0  0  0  0  0  0  0  0  0  0
    5.9070   -0.2410   20.1100 C   0  0  0  0  0  0  0  0  0  0  0  0
    4.6900    0.6380   20.2120 C   0  0  0  0  0  0  0  0  0  0  0  0
    4.3370    1.4880   19.0060 C   0  0  0  0  0  0  0  0  0  0  0  0
    5.1100    1.4670   17.8270 C   0  0  0  0  0  0  0  0  0  0  0  0
   12.8110   -2.4160   21.0850 C   0  0  0  0  0  0  0  0  0  0  0  0
   13.6810   -1.4380   20.7230 N   0  0  0  0  0  0  0  0  0  0  0  0
   12.4000   -2.1730   22.5090 C   0  0  0  0  0  0  0  0  0  0  0  0
    9.2550    0.0640   27.2120 C   0  0  0  0  0  0  0  0  0  0  0  0
    9.1090   -0.6180   26.0230 C   0  0  0  0  0  0  0  0  0  0  0  0
    9.9220   -0.2130   25.0470 N   0  0  0  0  0  0  0  0  0  0  0  0
   10.0550   -0.4590   22.6940 C   0  0  0  0  0  0  0  0  0  0  0  0
    9.3910   -0.8070   23.9390 C   0  0  0  0  0  0  0  0  0  0  0  0
  1  5  1  0
  3  5  2  0
  4  5  1  0
  2  6  1  0
  6  7  2  0
  7  8  1  0
  1  9  1  0
  8  9  2  0
  6 10  1  0
  9 10  1  0
 11 12  2  0
  4 13  1  0
 12 13  1  0
 13 14  2  0
 14 15  1  0
 11 16  1  0
 15 16  2  0
 17 18  3  0
  8 19  1  0
 17 19  1  0
 20 21  1  0
 21 22  1  0
  7 23  1  0
 22 24  1  0
 23 24  1  0
M  END
