x2608-x1412
     RDKit          3D

 32 35  0  0  0  0  0  0  0  0999 V2000
    7.4940   -2.9220   18.8610 C   0  0  0  0  0  0  0  0  0  0  0  0
    5.5850   -3.9540   19.7180 O   0  0  0  0  0  0  0  0  0  0  0  0
    6.6160   -3.3130   20.0010 C   0  0  0  0  0  0  0  0  0  0  0  0
    8.1330   -1.8030   25.2120 O   0  0  0  0  0  0  0  0  0  0  0  0
    8.3940   -2.9690   24.9560 C   0  0  0  0  0  0  0  0  0  0  0  0
    8.5220   -1.1660   21.3840 N   0  0  0  0  0  0  0  0  0  0  0  0
   12.9280    1.2530   23.2420 C   0  0  0  0  0  0  0  0  0  0  0  0
    8.2460    1.0180   20.9580 O   0  0  0  0  0  0  0  0  0  0  0  0
    6.5260   -0.4930   20.6580 N   0  0  0  0  0  0  0  0  0  0  0  0
    7.7840   -0.1380   20.9930 C   0  0  0  0  0  0  0  0  0  0  0  0
    6.9800   -3.0870   21.3760 N   0  0  0  0  0  0  0  0  0  0  0  0
    7.8120   -2.1940   21.9460 C   0  0  1  0  0  0  0  0  0  0  0  0
    8.9810   -2.7420   22.6560 C   0  0  0  0  0  0  0  0  0  0  0  0
    8.6270   -3.5090   23.6390 N   0  0  0  0  0  0  0  0  0  0  0  0
    7.7290   -4.4350   23.2850 C   0  0  0  0  0  0  0  0  0  0  0  0
    6.6970   -4.0680   22.2400 C   0  0  0  0  0  0  0  0  0  0  0  0
    9.3260   -5.1700   25.6020 C   0  0  0  0  0  0  0  0  0  0  0  0
    8.5260   -4.0460   25.9290 C   0  0  0  0  0  0  0  0  0  0  0  0
    7.7260   -4.0400   27.5390 S   0  0  0  0  0  0  0  0  0  0  0  0
    8.5010   -5.6140   27.7720 C   0  0  0  0  0  0  0  0  0  0  0  0
    9.3450   -6.1090   26.6360 C   0  0  0  0  0  0  0  0  0  0  0  0
   11.8950    0.3100   22.7560 C   0  0  0  0  0  0  0  0  0  0  0  0
   12.0930   -1.0120   22.4850 C   0  0  0  0  0  0  0  0  0  0  0  0
   10.9770   -1.6310   22.0180 C   0  0  0  0  0  0  0  0  0  0  0  0
    9.8560   -0.8150   21.9030 C   0  0  0  0  0  0  0  0  0  0  0  0
   10.2660    0.7720   22.4520 S   0  0  0  0  0  0  0  0  0  0  0  0
    6.1100    1.0200   17.5560 N   0  0  0  0  0  0  0  0  0  0  0  0
    6.5520    0.3170   18.5650 C   0  0  0  0  0  0  0  0  0  0  0  0
    5.9260    0.2120   19.7600 C   0  0  0  0  0  0  0  0  0  0  0  0
    4.7230    0.8630   19.9750 C   0  0  0  0  0  0  0  0  0  0  0  0
    4.2180    1.6210   18.9350 C   0  0  0  0  0  0  0  0  0  0  0  0
    4.9290    1.6940   17.7360 C   0  0  0  0  0  0  0  0  0  0  0  0
  1  3  1  0
  2  3  2  0
  4  5  2  0
  6 10  1  0
  8 10  2  0
  9 10  1  0
  3 11  1  0
 12  6  1  6
 11 12  1  0
 12 13  1  0
  5 14  1  0
 13 14  1  0
 14 15  1  0
 11 16  1  0
 15 16  1  0
  5 18  1  0
 17 18  2  0
 18 19  1  0
 19 20  1  0
 17 21  1  0
 20 21  2  0
  7 22  1  0
 22 23  2  0
 23 24  1  0
  6 25  1  0
 24 25  2  0
 22 26  1  0
 25 26  1  0
 27 28  2  0
  9 29  1  0
 28 29  1  0
 29 30  2  0
 30 31  1  0
 27 32  1  0
 31 32  2  0
M  END
