x2600-x1380
     RDKit          3D

 36 39  0  0  0  0  0  0  0  0999 V2000
   13.7360   -2.3630   20.6340 N   0  0  0  0  0  0  0  0  0  0  0  0
    8.1060   -0.0340   21.7260 C   0  0  0  0  0  0  0  0  0  0  0  0
    8.6240    1.0660   21.5120 O   0  0  0  0  0  0  0  0  0  0  0  0
    8.7200   -1.0810   22.6170 C   0  0  2  0  0  0  0  0  0  0  0  0
    6.8640   -0.4680   21.1310 N   0  0  0  0  0  0  0  0  0  0  0  0
   13.1430   -1.5690   21.5970 C   0  0  0  0  0  0  0  0  0  0  0  0
    7.1640   -3.2880   19.3600 C   0  0  0  0  0  0  0  0  0  0  0  0
    5.3390   -4.6910   19.9510 O   0  0  0  0  0  0  0  0  0  0  0  0
    6.3690   -4.1400   20.3400 C   0  0  0  0  0  0  0  0  0  0  0  0
    4.8510   -2.3510   25.6050 O   0  0  0  0  0  0  0  0  0  0  0  0
    5.7700   -3.1380   25.4060 C   0  0  0  0  0  0  0  0  0  0  0  0
    7.8740   -1.5610   23.6330 C   0  0  0  0  0  0  0  0  0  0  0  0
    6.3560    0.6600   17.7090 N   0  0  0  0  0  0  0  0  0  0  0  0
    6.8180    0.0790   18.8270 C   0  0  0  0  0  0  0  0  0  0  0  0
    6.2420    0.1850   20.0750 C   0  0  0  0  0  0  0  0  0  0  0  0
    5.0860    0.9410   20.1930 C   0  0  0  0  0  0  0  0  0  0  0  0
    4.5750    1.5560   19.0540 C   0  0  0  0  0  0  0  0  0  0  0  0
    5.2350    1.3950   17.8420 C   0  0  0  0  0  0  0  0  0  0  0  0
   10.4040    0.4460   23.8520 C   0  0  0  0  0  0  0  0  0  0  0  0
   11.7690    0.7860   23.9800 C   0  0  0  0  0  0  0  0  0  0  0  0
   12.7570    0.1430   23.2520 C   0  0  0  0  0  0  0  0  0  0  0  0
   12.3490   -0.8340   22.4030 C   0  0  0  0  0  0  0  0  0  0  0  0
   11.0630   -1.1720   22.2620 C   0  0  0  0  0  0  0  0  0  0  0  0
   10.0850   -0.5670   22.9500 C   0  0  0  0  0  0  0  0  0  0  0  0
    6.8380   -4.3400   21.6450 N   0  0  0  0  0  0  0  0  0  0  0  0
    6.5570   -5.5090   22.4550 C   0  0  0  0  0  0  0  0  0  0  0  0
    6.0670   -5.0060   23.7830 C   0  0  0  0  0  0  0  0  0  0  0  0
    6.1450   -3.4920   23.9410 C   0  0  2  0  0  0  0  0  0  0  0  0
    7.5820   -3.1020   23.5690 C   0  0  1  0  0  0  0  0  0  0  0  0
    7.7180   -3.4420   22.1720 C   0  0  0  0  0  0  0  0  0  0  0  0
    7.8600   -3.9530   26.4980 C   0  0  0  0  0  0  0  0  0  0  0  0
    8.0620   -5.2930   27.1880 C   0  0  0  0  0  0  0  0  0  0  0  0
    7.4040   -5.3420   28.5500 C   0  0  0  0  0  0  0  0  0  0  0  0
    5.9860   -4.7910   28.4900 C   0  0  0  0  0  0  0  0  0  0  0  0
    5.9110   -3.5380   27.8930 C   0  0  0  0  0  0  0  0  0  0  0  0
    6.4180   -3.6990   26.5310 N   0  0  0  0  0  0  0  0  0  0  0  0
  2  3  2  0
  2  4  1  0
  2  5  1  0
  1  6  3  0
  7  9  1  0
  8  9  2  0
 10 11  2  0
  4 12  1  1
 13 14  2  0
  5 15  1  0
 14 15  1  0
 15 16  2  0
 16 17  1  0
 13 18  1  0
 17 18  2  0
 19 20  2  0
 20 21  1  0
  6 22  1  0
 21 22  2  0
 22 23  1  0
  4 24  1  0
 19 24  1  0
 23 24  2  0
  9 25  1  0
 25 26  1  0
 26 27  1  0
 28 11  1  1
 27 28  1  0
 29 12  1  6
 28 29  1  0
 25 30  1  0
 29 30  1  0
 31 32  1  0
 32 33  1  0
 33 34  1  0
 34 35  1  0
 11 36  1  0
 31 36  1  0
 35 36  1  0
M  END
