x2600-x3305
     RDKit          3D

 29 31  0  0  0  0  0  0  0  0999 V2000
    3.4890   -7.0650   23.7800 C   0  0  0  0  0  0  0  0  0  0  0  0
    5.4960   -2.9500   21.1670 O   0  0  0  0  0  0  0  0  0  0  0  0
    6.6480   -2.3280   23.1110 N   0  0  0  0  0  0  0  0  0  0  0  0
    7.4210   -1.5560   20.9010 N   0  0  0  0  0  0  0  0  0  0  0  0
    6.9960   -3.5000   23.9130 C   0  0  0  0  0  0  0  0  0  0  0  0
    6.4270   -2.3400   21.6710 C   0  0  0  0  0  0  0  0  0  0  0  0
    8.2570   -0.7800   21.6540 C   0  0  0  0  0  0  0  0  0  0  0  0
    8.8370   -1.5230   22.7000 C   0  0  0  0  0  0  0  0  0  0  0  0
    7.0430   -1.2630   19.5110 C   0  0  0  0  0  0  0  0  0  0  0  0
    8.5640    0.6200   21.4490 O   0  0  0  0  0  0  0  0  0  0  0  0
   14.2300   -1.3560   20.1740 N   0  0  0  0  0  0  0  0  0  0  0  0
   13.5220   -1.1610   21.3510 C   0  0  0  0  0  0  0  0  0  0  0  0
    4.6670   -6.2630   23.5670 N   0  0  0  0  0  0  0  0  0  0  0  0
    5.0020   -5.0810   24.1180 C   0  0  0  0  0  0  0  0  0  0  0  0
    6.2270   -4.7370   23.5860 C   0  0  0  0  0  0  0  0  0  0  0  0
    6.6080   -5.7240   22.7170 N   0  0  0  0  0  0  0  0  0  0  0  0
    5.6420   -6.6560   22.7140 N   0  0  0  0  0  0  0  0  0  0  0  0
    5.7290    1.5450   17.7030 N   0  0  0  0  0  0  0  0  0  0  0  0
    6.4230    0.5350   18.2050 C   0  0  0  0  0  0  0  0  0  0  0  0
    6.1320   -0.2560   19.2780 C   0  0  0  0  0  0  0  0  0  0  0  0
    4.9890   -0.0530   20.0500 C   0  0  0  0  0  0  0  0  0  0  0  0
    4.2130    1.0930   19.5100 C   0  0  0  0  0  0  0  0  0  0  0  0
    4.6300    1.8030   18.3850 C   0  0  0  0  0  0  0  0  0  0  0  0
   10.3760    0.0750   23.9150 C   0  0  0  0  0  0  0  0  0  0  0  0
   11.6510    0.6020   24.0090 C   0  0  0  0  0  0  0  0  0  0  0  0
   12.7350    0.2600   23.2480 C   0  0  0  0  0  0  0  0  0  0  0  0
   12.5670   -0.6970   22.2870 C   0  0  0  0  0  0  0  0  0  0  0  0
   11.2590   -1.3390   22.0930 C   0  0  0  0  0  0  0  0  0  0  0  0
   10.1590   -0.9050   22.9440 C   0  0  0  0  0  0  0  0  0  0  0  0
  3  5  1  0
  2  6  2  0
  3  6  1  0
  4  6  1  0
  4  7  1  0
  7  8  1  0
  4  9  1  0
  7 10  2  0
 11 12  3  0
  1 13  1  0
 13 14  1  0
  5 15  1  0
 14 15  2  0
 15 16  1  0
 13 17  1  0
 16 17  2  0
 18 19  2  0
  9 20  1  0
 19 20  1  0
 20 21  2  0
 21 22  1  0
 18 23  1  0
 22 23  2  0
 24 25  2  0
 25 26  1  0
 12 27  1  0
 26 27  2  0
 27 28  1  0
  8 29  1  0
 24 29  1  0
 28 29  2  0
M  END
