x2608-x0107
     RDKit          3D

 17 18  0  0  0  0  0  0  0  0999 V2000
    8.7100   -1.1820   22.5300 N   0  0  0  0  0  0  0  0  0  0  0  0
   12.9420    2.1390   22.8030 C   0  0  0  0  0  0  0  0  0  0  0  0
    8.4810    0.6760   21.2400 O   0  0  0  0  0  0  0  0  0  0  0  0
    6.9860   -0.9790   20.9240 N   0  0  0  0  0  0  0  0  0  0  0  0
    8.0780   -0.4460   21.5490 C   0  0  0  0  0  0  0  0  0  0  0  0
    4.9530    0.9970   21.9720 C   0  0  0  0  0  0  0  0  0  0  0  0
   12.0400    0.9110   22.8820 C   0  0  0  0  0  0  0  0  0  0  0  0
   12.4760   -0.5390   23.2300 C   0  0  0  0  0  0  0  0  0  0  0  0
   11.2380   -1.3960   23.1260 C   0  0  0  0  0  0  0  0  0  0  0  0
   10.0180   -0.6170   22.7410 C   0  0  0  0  0  0  0  0  0  0  0  0
   10.3650    1.0520   22.5520 S   0  0  0  0  0  0  0  0  0  0  0  0
    5.8790    0.4580   17.6850 N   0  0  0  0  0  0  0  0  0  0  0  0
    6.4250   -0.1890   18.4800 C   0  0  0  0  0  0  0  0  0  0  0  0
    6.2540   -0.1600   19.9670 C   0  0  0  0  0  0  0  0  0  0  0  0
    5.2480    0.8240   20.4910 C   0  0  0  0  0  0  0  0  0  0  0  0
    4.6170    1.5720   19.4910 C   0  0  0  0  0  0  0  0  0  0  0  0
    4.9770    1.3380   18.1740 C   0  0  0  0  0  0  0  0  0  0  0  0
  1  5  1  0
  3  5  2  0
  4  5  1  0
  2  7  1  0
  7  8  2  0
  8  9  1  0
  1 10  1  0
  9 10  2  0
  7 11  1  0
 10 11  1  0
 12 13  2  0
  4 14  1  0
 13 14  1  0
  6 15  1  0
 14 15  2  0
 15 16  1  0
 12 17  1  0
 16 17  2  0
M  END
