x2600-x1351
     RDKit          3D

 37 40  0  0  0  0  0  0  0  0999 V2000
    7.0730   -3.1860   19.1600 C   0  0  0  0  0  0  0  0  0  0  0  0
    5.1890   -4.4880   19.8320 O   0  0  0  0  0  0  0  0  0  0  0  0
    6.1950   -3.8840   20.1830 C   0  0  0  0  0  0  0  0  0  0  0  0
    6.0770   -2.6300   25.0250 N   0  0  0  0  0  0  0  0  0  0  0  0
    7.8290   -2.8840   26.5850 O   0  0  0  0  0  0  0  0  0  0  0  0
    6.8730   -2.2310   26.1810 C   0  0  0  0  0  0  0  0  0  0  0  0
   13.6090   -3.3820   20.5940 N   0  0  0  0  0  0  0  0  0  0  0  0
    8.2090    0.1470   21.8010 C   0  0  0  0  0  0  0  0  0  0  0  0
    8.7500    1.1640   21.2870 O   0  0  0  0  0  0  0  0  0  0  0  0
    8.6550   -0.3110   23.0420 C   0  0  0  0  0  0  0  0  0  0  0  0
    7.1220   -0.6210   21.2120 N   0  0  0  0  0  0  0  0  0  0  0  0
   13.0200   -2.2930   21.3600 C   0  0  0  0  0  0  0  0  0  0  0  0
    6.4070   -1.6830   21.9560 C   0  0  0  0  0  0  0  0  0  0  0  0
    6.5780   -3.8730   21.5110 N   0  0  0  0  0  0  0  0  0  0  0  0
    7.2530   -2.8070   22.0600 C   0  0  2  0  0  0  0  0  0  0  0  0
    7.5890   -3.1950   23.3830 C   0  0  0  0  0  0  0  0  0  0  0  0
    6.5500   -3.7190   24.1870 C   0  0  2  0  0  0  0  0  0  0  0  0
    5.4680   -4.2540   23.5110 C   0  0  0  0  0  0  0  0  0  0  0  0
    5.8930   -4.8440   22.3540 C   0  0  0  0  0  0  0  0  0  0  0  0
    7.0840   -0.6600   28.1030 C   0  0  0  0  0  0  0  0  0  0  0  0
    6.6930    0.5360   28.7510 C   0  0  0  0  0  0  0  0  0  0  0  0
    5.7360    1.3950   28.2080 C   0  0  0  0  0  0  0  0  0  0  0  0
    5.1540    1.0650   27.0020 C   0  0  0  0  0  0  0  0  0  0  0  0
    5.5170   -0.0960   26.3510 C   0  0  0  0  0  0  0  0  0  0  0  0
    6.4720   -0.9770   26.8690 C   0  0  0  0  0  0  0  0  0  0  0  0
    6.3300    0.6100   17.6940 N   0  0  0  0  0  0  0  0  0  0  0  0
    6.9010    0.0040   18.7370 C   0  0  0  0  0  0  0  0  0  0  0  0
    6.4190    0.0520   20.1370 C   0  0  0  0  0  0  0  0  0  0  0  0
    5.1660    0.8380   20.4470 C   0  0  0  0  0  0  0  0  0  0  0  0
    4.5700    1.5000   19.2000 C   0  0  0  0  0  0  0  0  0  0  0  0
    5.2120    1.3310   17.9180 C   0  0  0  0  0  0  0  0  0  0  0  0
   10.7830    0.7980   23.6960 C   0  0  0  0  0  0  0  0  0  0  0  0
   12.2680    0.8790   23.6380 C   0  0  0  0  0  0  0  0  0  0  0  0
   13.0630   -0.1280   22.8720 C   0  0  0  0  0  0  0  0  0  0  0  0
   12.3130   -1.2220   22.1660 C   0  0  0  0  0  0  0  0  0  0  0  0
   10.9320   -1.2730   22.2300 C   0  0  0  0  0  0  0  0  0  0  0  0
   10.1390   -0.2350   23.0130 C   0  0  0  0  0  0  0  0  0  0  0  0
  1  3  1  0
  2  3  2  0
  4  6  1  0
  5  6  2  0
  8  9  2  0
  8 10  1  0
  8 11  1  0
  7 12  3  0
 11 13  1  0
  3 14  1  0
 15 13  1  1
 14 15  1  0
 15 16  1  0
 17  4  1  1
 16 17  1  0
 17 18  1  0
 14 19  1  0
 18 19  1  0
 20 21  2  0
 21 22  1  0
 22 23  2  0
 23 24  1  0
  6 25  1  0
 20 25  1  0
 24 25  2  0
 26 27  2  0
 11 28  1  0
 27 28  1  0
 28 29  2  0
 29 30  1  0
 26 31  1  0
 30 31  2  0
 32 33  2  0
 33 34  1  0
 12 35  1  0
 34 35  2  0
 35 36  1  0
 10 37  1  0
 32 37  1  0
 36 37  2  0
M  END
