x2600-x1402
     RDKit          3D

 39 42  0  0  0  0  0  0  0  0999 V2000
    7.6300   -3.6120   20.1640 C   0  0  0  0  0  0  0  0  0  0  0  0
    5.4340   -4.5720   19.9100 O   0  0  0  0  0  0  0  0  0  0  0  0
    0.7860   -1.3050   26.1010 Cl  0  0  0  0  0  0  0  0  0  0  0  0
    6.4920   -4.5730   20.5400 C   0  0  0  0  0  0  0  0  0  0  0  0
    3.8290   -6.4310   26.0450 O   0  0  0  0  0  0  0  0  0  0  0  0
    5.9570   -5.4360   27.0250 O   0  0  0  0  0  0  0  0  0  0  0  0
    4.8710   -5.4470   25.8650 S   0  0  0  0  0  0  0  0  0  0  0  0
    6.6860   -5.3880   21.6260 N   0  0  0  0  0  0  0  0  0  0  0  0
    7.2330   -4.6250   22.7280 C   0  0  2  0  0  0  0  0  0  0  0  0
    6.9880   -5.1830   24.1160 C   0  0  0  0  0  0  0  0  0  0  0  0
    5.6290   -5.6880   24.3670 N   0  0  0  0  0  0  0  0  0  0  0  0
    4.8430   -5.9740   23.1660 C   0  0  0  0  0  0  0  0  0  0  0  0
    5.7320   -6.4140   22.0070 C   0  0  0  0  0  0  0  0  0  0  0  0
    2.3530   -3.8490   25.9600 S   0  0  0  0  0  0  0  0  0  0  0  0
    4.0760   -3.8660   25.9210 C   0  0  0  0  0  0  0  0  0  0  0  0
    4.5430   -2.5610   25.9480 C   0  0  0  0  0  0  0  0  0  0  0  0
    3.5650   -1.6020   26.0030 C   0  0  0  0  0  0  0  0  0  0  0  0
    2.2860   -2.1300   26.0220 C   0  0  0  0  0  0  0  0  0  0  0  0
   13.7150   -1.9480   20.6510 N   0  0  0  0  0  0  0  0  0  0  0  0
    8.3620    0.5480   21.8170 C   0  0  0  0  0  0  0  0  0  0  0  0
    8.9840    1.4630   21.2490 O   0  0  0  0  0  0  0  0  0  0  0  0
    8.6090    0.1570   23.1420 C   0  0  0  0  0  0  0  0  0  0  0  0
    7.3290   -0.1910   21.2310 N   0  0  0  0  0  0  0  0  0  0  0  0
   13.1030   -1.5860   21.4960 C   0  0  0  0  0  0  0  0  0  0  0  0
    7.3680   -2.1000   22.5950 C   0  0  0  0  0  0  0  0  0  0  0  0
    7.4160   -1.4720   21.3570 C   0  0  0  0  0  0  0  0  0  0  0  0
    6.2450    0.5390   17.6700 N   0  0  0  0  0  0  0  0  0  0  0  0
    6.9370    0.0210   18.8420 C   0  0  0  0  0  0  0  0  0  0  0  0
    6.5810    0.3500   20.1490 C   0  0  0  0  0  0  0  0  0  0  0  0
    5.5020    1.2060   20.4100 C   0  0  0  0  0  0  0  0  0  0  0  0
    4.7420    1.7730   19.2380 C   0  0  0  0  0  0  0  0  0  0  0  0
    5.2180    1.3640   17.8830 C   0  0  0  0  0  0  0  0  0  0  0  0
   10.6760    0.0210   24.5640 C   0  0  0  0  0  0  0  0  0  0  0  0
   12.1490   -0.3220   24.7750 C   0  0  0  0  0  0  0  0  0  0  0  0
   12.9190   -0.8570   23.7200 C   0  0  0  0  0  0  0  0  0  0  0  0
   12.3300   -1.0680   22.5120 C   0  0  0  0  0  0  0  0  0  0  0  0
   10.8860   -0.7630   22.2320 C   0  0  0  0  0  0  0  0  0  0  0  0
   10.0600   -0.1880   23.3350 C   0  0  0  0  0  0  0  0  0  0  0  0
    6.4580   -3.3070   22.6970 C   0  0  0  0  0  0  0  0  0  0  0  0
  1  4  1  0
  2  4  2  0
  5  7  2  0
  6  7  2  0
  4  8  1  0
  8  9  1  0
  9 10  1  0
  7 11  1  0
 10 11  1  0
 11 12  1  0
  8 13  1  0
 12 13  1  0
  7 15  1  0
 14 15  1  0
 15 16  2  0
 16 17  1  0
  3 18  1  0
 14 18  1  0
 17 18  2  0
 20 21  2  0
 20 22  1  0
 20 23  1  0
 19 24  3  0
 23 26  1  0
 25 26  1  0
 27 28  2  0
 23 29  1  0
 28 29  1  0
 29 30  2  0
 30 31  1  0
 27 32  1  0
 31 32  2  0
 33 34  2  0
 34 35  1  0
 24 36  1  0
 35 36  2  0
 36 37  1  0
 22 38  1  0
 33 38  1  0
 37 38  2  0
  9 39  1  1
 25 39  1  0
M  END
