x2608-x1308
     RDKit          3D

 37 40  0  0  0  0  0  0  0  0999 V2000
    7.8470   -3.5280   20.2270 C   0  0  0  0  0  0  0  0  0  0  0  0
    5.6800   -4.7390   19.9220 O   0  0  0  0  0  0  0  0  0  0  0  0
    0.8140   -1.2790   26.4020 Cl  0  0  0  0  0  0  0  0  0  0  0  0
    6.5410   -4.2660   20.6330 C   0  0  0  0  0  0  0  0  0  0  0  0
    6.4170   -5.0090   26.9600 O   0  0  0  0  0  0  0  0  0  0  0  0
    4.8130   -6.8160   26.2900 O   0  0  0  0  0  0  0  0  0  0  0  0
    5.3510   -5.4890   26.1110 S   0  0  0  0  0  0  0  0  0  0  0  0
    8.8190   -1.1420   22.2150 N   0  0  0  0  0  0  0  0  0  0  0  0
   12.9690    1.5450   22.9870 C   0  0  0  0  0  0  0  0  0  0  0  0
    8.3650    0.9220   21.1190 O   0  0  0  0  0  0  0  0  0  0  0  0
    6.8420   -0.7670   21.0200 N   0  0  0  0  0  0  0  0  0  0  0  0
    8.0210   -0.2270   21.4120 C   0  0  0  0  0  0  0  0  0  0  0  0
    5.6640   -3.0090   22.5160 C   0  0  0  0  0  0  0  0  0  0  0  0
    6.3360   -2.0130   21.5700 C   0  0  0  0  0  0  0  0  0  0  0  0
    6.1760   -4.4050   22.1020 C   0  0  0  0  0  0  0  0  0  0  0  0
    7.4370   -4.7760   22.9040 C   0  0  0  0  0  0  0  0  0  0  0  0
    6.9660   -4.5270   24.3630 C   0  0  0  0  0  0  0  0  0  0  0  0
    5.9320   -5.3800   24.5310 N   0  0  0  0  0  0  0  0  0  0  0  0
    5.2810   -6.1690   23.4930 C   0  0  0  0  0  0  0  0  0  0  0  0
    5.1710   -5.5490   22.2880 C   0  0  0  0  0  0  0  0  0  0  0  0
    4.3440   -3.0670   26.5210 C   0  0  0  0  0  0  0  0  0  0  0  0
    3.3580   -2.1100   26.5960 C   0  0  0  0  0  0  0  0  0  0  0  0
    2.0560   -2.4610   26.2920 C   0  0  0  0  0  0  0  0  0  0  0  0
    1.7470   -3.7630   25.9000 C   0  0  0  0  0  0  0  0  0  0  0  0
    2.7290   -4.7540   25.8150 C   0  0  0  0  0  0  0  0  0  0  0  0
    4.0480   -4.3720   26.1430 C   0  0  0  0  0  0  0  0  0  0  0  0
   12.1740    0.5300   22.8550 C   0  0  0  0  0  0  0  0  0  0  0  0
   12.3690   -0.7790   22.8740 C   0  0  0  0  0  0  0  0  0  0  0  0
   11.2710   -1.5480   22.6680 C   0  0  0  0  0  0  0  0  0  0  0  0
   10.1280   -0.7920   22.4780 C   0  0  0  0  0  0  0  0  0  0  0  0
   10.5080    0.8680   22.5950 S   0  0  0  0  0  0  0  0  0  0  0  0
    6.2320    0.6490   17.7670 N   0  0  0  0  0  0  0  0  0  0  0  0
    6.7250   -0.0030   18.8070 C   0  0  0  0  0  0  0  0  0  0  0  0
    6.1370   -0.0350   20.0500 C   0  0  0  0  0  0  0  0  0  0  0  0
    4.9230    0.6320   20.3230 C   0  0  0  0  0  0  0  0  0  0  0  0
    4.2170    1.3960   19.3440 C   0  0  0  0  0  0  0  0  0  0  0  0
    4.9800    1.3650   18.0070 C   0  0  0  0  0  0  0  0  0  0  0  0
  1  4  1  0
  2  4  2  0
  5  7  2  0
  6  7  2  0
  8 12  1  0
 10 12  2  0
 11 12  1  0
 11 14  1  0
 13 14  1  0
 15  4  1  0
 13 15  1  0
 15 16  1  0
 16 17  1  0
  7 18  1  0
 17 18  1  0
 18 19  1  0
 15 20  1  0
 19 20  1  0
 21 22  2  0
  3 23  1  0
 22 23  1  0
 23 24  2  0
 24 25  1  0
  7 26  1  0
 21 26  1  0
 25 26  2  0
  9 27  1  0
 27 28  2  0
 28 29  1  0
  8 30  1  0
 29 30  2  0
 27 31  1  0
 30 31  1  0
 32 33  2  0
 11 34  1  0
 33 34  1  0
 34 35  2  0
 35 36  1  0
 32 37  1  0
 36 37  2  0
M  END
