x2600-x1425
     RDKit          3D

 36 39  0  0  0  0  0  0  0  0999 V2000
   13.6730   -3.4250   20.6110 N   0  0  0  0  0  0  0  0  0  0  0  0
    8.1370   -0.0600   21.6680 C   0  0  0  0  0  0  0  0  0  0  0  0
    8.5780    1.0290   21.2870 O   0  0  0  0  0  0  0  0  0  0  0  0
    8.7670   -0.8170   22.7950 C   0  0  0  0  0  0  0  0  0  0  0  0
    6.9780   -0.6990   21.0720 N   0  0  0  0  0  0  0  0  0  0  0  0
   13.1230   -2.3500   21.3970 C   0  0  0  0  0  0  0  0  0  0  0  0
    1.2490   -2.3630   28.3270 C   0  0  0  0  0  0  0  0  0  0  0  0
    2.6810   -2.2420   28.3590 O   0  0  0  0  0  0  0  0  0  0  0  0
    5.1290   -4.4280   19.7890 O   0  0  0  0  0  0  0  0  0  0  0  0
    6.1790   -3.8940   20.1130 C   0  0  0  0  0  0  0  0  0  0  0  0
    7.0830   -3.1770   19.1210 C   0  0  0  0  0  0  0  0  0  0  0  0
    6.3720   -1.5940   21.5630 C   0  0  0  0  0  0  0  0  0  0  0  0
    6.3450    0.6080   17.7190 N   0  0  0  0  0  0  0  0  0  0  0  0
    6.8470   -0.0250   18.7950 C   0  0  0  0  0  0  0  0  0  0  0  0
    6.3020    0.0050   20.0620 C   0  0  0  0  0  0  0  0  0  0  0  0
    5.1300    0.7390   20.2460 C   0  0  0  0  0  0  0  0  0  0  0  0
    4.5800    1.4070   19.1460 C   0  0  0  0  0  0  0  0  0  0  0  0
    5.2190    1.3140   17.9170 C   0  0  0  0  0  0  0  0  0  0  0  0
   10.7900    0.5520   23.2660 C   0  0  0  0  0  0  0  0  0  0  0  0
   12.1760    0.7360   23.2060 C   0  0  0  0  0  0  0  0  0  0  0  0
   13.0040   -0.1910   22.6120 C   0  0  0  0  0  0  0  0  0  0  0  0
   12.4390   -1.3300   22.0610 C   0  0  0  0  0  0  0  0  0  0  0  0
   11.0820   -1.4910   22.1460 C   0  0  0  0  0  0  0  0  0  0  0  0
   10.2410   -0.5850   22.7350 C   0  0  0  0  0  0  0  0  0  0  0  0
    3.3410   -2.6290   27.2290 C   0  0  0  0  0  0  0  0  0  0  0  0
    4.7230   -2.0990   27.0690 C   0  0  0  0  0  0  0  0  0  0  0  0
    5.6060   -2.4090   25.9000 C   0  0  0  0  0  0  0  0  0  0  0  0
    4.9620   -3.3330   24.8600 C   0  0  0  0  0  0  0  0  0  0  0  0
    3.6010   -3.8170   25.0800 C   0  0  0  0  0  0  0  0  0  0  0  0
    2.8630   -3.4620   26.2150 C   0  0  0  0  0  0  0  0  0  0  0  0
    6.5910   -3.9830   21.4290 N   0  0  0  0  0  0  0  0  0  0  0  0
    7.1610   -2.8920   21.9890 C   0  0  2  0  0  0  0  0  0  0  0  0
    6.9740   -3.0080   23.4890 C   0  0  0  0  0  0  0  0  0  0  0  0
    5.6890   -3.6810   23.7360 N   0  0  0  0  0  0  0  0  0  0  0  0
    5.5460   -5.0490   23.2150 C   0  0  0  0  0  0  0  0  0  0  0  0
    6.5020   -5.2220   22.2200 C   0  0  0  0  0  0  0  0  0  0  0  0
  2  3  2  0
  2  4  1  0
  2  5  1  0
  1  6  3  0
  7  8  1  0
  9 10  2  0
 10 11  1  0
  5 12  1  0
 13 14  2  0
  5 15  1  0
 14 15  1  0
 15 16  2  0
 16 17  1  0
 13 18  1  0
 17 18  2  0
 19 20  2  0
 20 21  1  0
  6 22  1  0
 21 22  2  0
 22 23  1  0
  4 24  1  0
 19 24  1  0
 23 24  2  0
  8 25  1  0
 25 26  2  0
 26 27  1  0
 27 28  2  0
 28 29  1  0
 25 30  1  0
 29 30  2  0
 10 31  1  0
 32 12  1  6
 31 32  1  0
 32 33  1  0
 28 34  1  0
 33 34  1  0
 34 35  1  0
 31 36  1  0
 35 36  1  0
M  END
