x2608-x1478
     RDKit          3D

 28 30  0  0  0  0  0  0  0  0999 V2000
    8.9420   -0.4330   22.7520 N   0  0  0  0  0  0  0  0  0  0  0  0
   13.0870    2.7870   22.6730 C   0  0  0  0  0  0  0  0  0  0  0  0
    8.6500    1.3170   21.2710 O   0  0  0  0  0  0  0  0  0  0  0  0
    7.3310   -0.5350   21.1820 N   0  0  0  0  0  0  0  0  0  0  0  0
    8.3130    0.1980   21.7100 C   0  0  0  0  0  0  0  0  0  0  0  0
    6.5230   -2.7110   21.1050 N   0  0  0  0  0  0  0  0  0  0  0  0
    7.4080   -3.0350   18.7860 C   0  0  0  0  0  0  0  0  0  0  0  0
    5.5760   -4.2190   19.7570 O   0  0  0  0  0  0  0  0  0  0  0  0
    6.3810   -5.8510   21.8460 Cl  0  0  0  0  0  0  0  0  0  0  0  0
    6.4380   -3.3740   19.9050 C   0  0  0  0  0  0  0  0  0  0  0  0
    7.5880   -1.8910   21.2040 C   0  0  0  0  0  0  0  0  0  0  0  0
   12.3200    1.5260   22.8670 C   0  0  0  0  0  0  0  0  0  0  0  0
   12.7420    0.1120   23.2070 C   0  0  0  0  0  0  0  0  0  0  0  0
   11.5660   -0.8060   23.2300 C   0  0  0  0  0  0  0  0  0  0  0  0
   10.3050   -0.0480   22.9060 C   0  0  0  0  0  0  0  0  0  0  0  0
   10.6240    1.6200   22.6550 S   0  0  0  0  0  0  0  0  0  0  0  0
    6.0580    0.4770   17.7660 N   0  0  0  0  0  0  0  0  0  0  0  0
    6.8510   -0.0670   18.8530 C   0  0  0  0  0  0  0  0  0  0  0  0
    6.5090   -0.0520   20.2280 C   0  0  0  0  0  0  0  0  0  0  0  0
    5.2920    0.5190   20.5730 C   0  0  0  0  0  0  0  0  0  0  0  0
    4.4730    1.0830   19.4390 C   0  0  0  0  0  0  0  0  0  0  0  0
    4.9150    1.0290   18.1390 C   0  0  0  0  0  0  0  0  0  0  0  0
    5.0730   -4.7010   23.8150 N   0  0  0  0  0  0  0  0  0  0  0  0
    5.7590   -4.4740   22.6530 C   0  0  0  0  0  0  0  0  0  0  0  0
    5.9010   -3.1520   22.2140 C   0  0  0  0  0  0  0  0  0  0  0  0
    5.3970   -2.0170   22.8780 C   0  0  0  0  0  0  0  0  0  0  0  0
    4.7130   -2.3260   24.0510 C   0  0  0  0  0  0  0  0  0  0  0  0
    4.5770   -3.6340   24.4690 C   0  0  0  0  0  0  0  0  0  0  0  0
  1  5  1  0
  3  5  2  0
  4  5  1  0
  6 10  1  0
  7 10  1  0
  8 10  2  0
  4 11  1  0
  6 11  1  0
  2 12  1  0
 12 13  2  0
 13 14  1  0
  1 15  1  0
 14 15  2  0
 12 16  1  0
 15 16  1  0
 17 18  2  0
  4 19  1  0
 18 19  1  0
 19 20  2  0
 20 21  1  0
 17 22  1  0
 21 22  2  0
  9 24  1  0
 23 24  2  0
  6 25  1  0
 24 25  1  0
 25 26  2  0
 26 27  1  0
 23 28  1  0
 27 28  2  0
M  END
