x2608-x0426
     RDKit          3D

 28 30  0  0  0  0  0  0  0  0999 V2000
    2.4000    1.7270   23.7010 C   0  0  0  0  0  0  0  0  0  0  0  0
    2.3700    0.4930   23.6660 O   0  0  0  0  0  0  0  0  0  0  0  0
    3.4050    2.4840   23.0720 N   0  0  0  0  0  0  0  0  0  0  0  0
    4.2940    1.7270   22.3180 C   0  0  0  0  0  0  0  0  0  0  0  0
    3.8140    0.9700   21.2210 C   0  0  0  0  0  0  0  0  0  0  0  0
    2.8490    4.3480   25.2120 F   0  0  0  0  0  0  0  0  0  0  0  0
    8.6590   -1.1620   22.4880 N   0  0  0  0  0  0  0  0  0  0  0  0
   12.9640    1.6300   22.9360 C   0  0  0  0  0  0  0  0  0  0  0  0
    8.4370    0.6760   21.1340 O   0  0  0  0  0  0  0  0  0  0  0  0
    6.6470   -0.7000   21.3350 N   0  0  0  0  0  0  0  0  0  0  0  0
    7.9470   -0.3410   21.6260 C   0  0  0  0  0  0  0  0  0  0  0  0
    1.6190    3.8130   25.1780 C   0  0  0  0  0  0  0  0  0  0  0  0
    1.3430    2.5080   24.4390 C   0  0  0  0  0  0  0  0  0  0  0  0
   -0.0900    1.9960   24.4700 C   0  0  0  0  0  0  0  0  0  0  0  0
   -1.1590    2.7720   25.2070 C   0  0  0  0  0  0  0  0  0  0  0  0
   -0.8260    4.0680   25.9270 C   0  0  0  0  0  0  0  0  0  0  0  0
    0.4930    4.5620   25.9130 C   0  0  0  0  0  0  0  0  0  0  0  0
    6.1010   -0.0570   20.3130 C   0  0  0  0  0  0  0  0  0  0  0  0
    6.6970    0.0600   18.8780 C   0  0  0  0  0  0  0  0  0  0  0  0
    6.2880    0.7110   17.6660 N   0  0  0  0  0  0  0  0  0  0  0  0
    5.1750    1.3410   17.7960 C   0  0  0  0  0  0  0  0  0  0  0  0
    4.4650    1.3820   18.9110 C   0  0  0  0  0  0  0  0  0  0  0  0
    4.8270    0.7650   20.0940 C   0  0  0  0  0  0  0  0  0  0  0  0
   11.9640    0.5470   22.9130 C   0  0  0  0  0  0  0  0  0  0  0  0
   12.1690   -0.7880   23.1480 C   0  0  0  0  0  0  0  0  0  0  0  0
   11.0670   -1.5950   23.0480 C   0  0  0  0  0  0  0  0  0  0  0  0
    9.9330   -0.8170   22.7090 C   0  0  0  0  0  0  0  0  0  0  0  0
   10.3300    0.8470   22.5640 S   0  0  0  0  0  0  0  0  0  0  0  0
  1  2  2  0
  1  3  1  0
  3  4  1  0
  4  5  1  0
  7 11  1  0
  9 11  2  0
 10 11  1  0
  6 12  1  0
  1 13  1  0
 12 13  2  0
 13 14  1  0
 14 15  2  0
 15 16  1  0
 12 17  1  0
 16 17  2  0
 10 18  1  0
 18 19  2  0
 19 20  1  0
 20 21  2  0
 21 22  1  0
  5 23  1  0
 18 23  1  0
 22 23  2  0
  8 24  1  0
 24 25  2  0
 25 26  1  0
  7 27  1  0
 26 27  2  0
 24 28  1  0
 27 28  1  0
M  END
