x2608-x3110-x3113-x1458
     RDKit          3D

 47 50  0  0  0  0  0  0  0  0999 V2000
    7.9810    1.1410   23.2380 N   0  0  0  0  0  0  0  0  0  0  0  0
   13.5270    5.4260   22.2770 C   0  0  0  0  0  0  0  0  0  0  0  0
   11.7990    3.7390   22.4050 N   0  0  0  0  0  0  0  0  0  0  0  0
   12.1490    4.9100   21.7850 C   0  0  0  0  0  0  0  0  0  0  0  0
    6.9930   -1.6890   21.8320 C   0  0  2  0  0  0  0  0  0  0  0  0
   10.8760    4.6980   24.1930 O   0  0  0  0  0  0  0  0  0  0  0  0
   10.8900    3.7450   23.4340 C   0  0  0  0  0  0  0  0  0  0  0  0
    8.4640    1.4020   21.0380 O   0  0  0  0  0  0  0  0  0  0  0  0
    9.9360    2.5570   23.5390 C   0  0  0  0  0  0  0  0  0  0  0  0
    4.9980   -3.1370   20.7730 O   0  0  0  0  0  0  0  0  0  0  0  0
    8.4320    2.3890   23.6230 C   0  0  0  0  0  0  0  0  0  0  0  0
    7.7700    0.8480   21.9220 C   0  0  0  0  0  0  0  0  0  0  0  0
    6.6240   -0.1700   21.5760 C   0  0  1  0  0  0  0  0  0  0  0  0
    6.1880   -2.9790   21.3110 C   0  0  0  0  0  0  0  0  0  0  0  0
    8.2920   -4.6140   21.0300 C   0  0  0  0  0  0  0  0  0  0  0  0
   12.3840   -1.8150   24.2050 C   0  0  0  0  0  0  0  0  0  0  0  0
   12.5130   -0.5910   24.9930 C   0  0  0  0  0  0  0  0  0  0  0  0
   13.4140   -1.7980   23.1140 C   0  0  0  0  0  0  0  0  0  0  0  0
   12.7670   -2.9920   25.1110 C   0  0  0  0  0  0  0  0  0  0  0  0
    6.7550   -3.4110   26.4960 N   0  0  0  0  0  0  0  0  0  0  0  0
    8.8910   -4.5270   27.1290 C   0  0  0  0  0  0  0  0  0  0  0  0
    4.7460   -3.6950   25.5130 O   0  0  0  0  0  0  0  0  0  0  0  0
    7.4280   -4.2600   27.5260 C   0  0  0  0  0  0  0  0  0  0  0  0
    6.7650   -5.6400   27.5600 C   0  0  0  0  0  0  0  0  0  0  0  0
    6.6500   -2.1110   26.8120 C   0  0  0  0  0  0  0  0  0  0  0  0
    5.9490   -3.9650   25.5680 C   0  0  0  0  0  0  0  0  0  0  0  0
    6.5100   -2.2770   23.0930 C   0  0  0  0  0  0  0  0  0  0  0  0
    6.3540    0.4310   17.7960 N   0  0  0  0  0  0  0  0  0  0  0  0
    5.2540    1.2410   17.7970 C   0  0  0  0  0  0  0  0  0  0  0  0
    4.5730    1.6000   18.9280 C   0  0  0  0  0  0  0  0  0  0  0  0
    5.0230    1.1250   20.1550 C   0  0  0  0  0  0  0  0  0  0  0  0
    6.1570    0.2970   20.1920 C   0  0  0  0  0  0  0  0  0  0  0  0
    6.7730   -0.0170   18.9850 C   0  0  0  0  0  0  0  0  0  0  0  0
    9.5480   -1.4360   21.6870 C   0  0  0  0  0  0  0  0  0  0  0  0
   10.8460   -1.4630   22.2140 C   0  0  0  0  0  0  0  0  0  0  0  0
   10.9760   -1.8010   23.6030 C   0  0  0  0  0  0  0  0  0  0  0  0
    9.8640   -2.0950   24.4020 C   0  0  0  0  0  0  0  0  0  0  0  0
    8.6380   -2.0360   23.7480 C   0  0  0  0  0  0  0  0  0  0  0  0
    8.4300   -1.7200   22.4110 C   0  0  0  0  0  0  0  0  0  0  0  0
    6.9980   -4.1910   21.7090 C   0  0  1  0  0  0  0  0  0  0  0  0
    7.5030   -3.4660   22.9850 C   0  0  2  0  0  0  0  0  0  0  0  0
    7.6480   -4.3360   24.0660 C   0  0  0  0  0  0  0  0  0  0  0  0
    6.5130   -4.9300   24.5430 C   0  0  2  0  0  0  0  0  0  0  0  0
    5.5150   -5.2710   23.4470 C   0  0  0  0  0  0  0  0  0  0  0  0
    6.0430   -5.3340   22.0210 C   0  0  0  0  0  0  0  0  0  0  0  0
   12.7660    1.5610   23.0190 C   0  0  0  0  0  0  0  0  0  0  0  0
   12.9870    3.0410   22.7070 C   0  0  0  0  0  0  0  0  0  0  0  0
  2  4  1  0
  3  4  1  0
  3  7  1  0
  6  7  2  0
  7  9  1  0
  1 11  1  0
  9 11  1  0
  1 12  1  0
  8 12  2  0
  5 13  1  0
 13 12  1  6
  5 14  1  0
 10 14  2  0
 16 17  1  0
 16 18  1  0
 16 19  1  0
 20 23  1  0
 21 23  1  0
 23 24  1  0
 20 25  1  0
 20 26  1  0
 22 26  2  0
  5 27  1  0
 28 29  2  0
 29 30  1  0
 30 31  2  0
 13 32  1  0
 31 32  1  0
 28 33  1  0
 32 33  2  0
 34 35  2  0
 16 36  1  0
 35 36  1  0
 36 37  2  0
 37 38  1  0
  5 39  1  1
 34 39  1  0
 38 39  2  0
 14 40  1  0
 40 15  1  6
 41 27  1  1
 40 41  1  0
 41 42  1  0
 43 26  1  1
 42 43  1  0
 43 44  1  0
 40 45  1  0
 44 45  1  0
  3 47  1  0
 46 47  1  0
M  END
