x2600-x2097
     RDKit          3D

 26 28  0  0  0  0  0  0  0  0999 V2000
   13.7150   -2.9910   20.5920 N   0  0  0  0  0  0  0  0  0  0  0  0
    8.1100    0.7070   21.5890 C   0  0  0  0  0  0  0  0  0  0  0  0
    8.7180    1.7400   21.2860 O   0  0  0  0  0  0  0  0  0  0  0  0
    8.7460   -0.5630   21.9830 C   0  0  1  0  0  0  0  0  0  0  0  0
    6.6830    0.5120   21.5910 N   0  0  0  0  0  0  0  0  0  0  0  0
   13.1410   -2.1030   21.5260 C   0  0  0  0  0  0  0  0  0  0  0  0
    5.3660   -5.0870   19.9800 N   0  0  0  0  0  0  0  0  0  0  0  0
    6.5450   -4.6710   20.0580 C   0  0  0  0  0  0  0  0  0  0  0  0
    6.3760    0.5060   17.8190 N   0  0  0  0  0  0  0  0  0  0  0  0
    6.8550    0.2120   19.0380 C   0  0  0  0  0  0  0  0  0  0  0  0
    6.1700    0.7980   20.2660 C   0  0  0  0  0  0  0  0  0  0  0  0
    5.0620    1.6130   20.1880 C   0  0  0  0  0  0  0  0  0  0  0  0
    4.5660    1.9110   18.9290 C   0  0  0  0  0  0  0  0  0  0  0  0
    5.1910    1.3910   17.8020 C   0  0  0  0  0  0  0  0  0  0  0  0
   10.5900    0.4460   23.7430 C   0  0  0  0  0  0  0  0  0  0  0  0
   11.9450    0.3930   24.0720 C   0  0  0  0  0  0  0  0  0  0  0  0
   12.9190   -0.3950   23.4530 C   0  0  0  0  0  0  0  0  0  0  0  0
   12.3140   -1.1820   22.3750 C   0  0  0  0  0  0  0  0  0  0  0  0
   11.0140   -1.1700   22.0190 C   0  0  0  0  0  0  0  0  0  0  0  0
   10.0860   -0.4260   22.5940 C   0  0  0  0  0  0  0  0  0  0  0  0
    6.6690   -3.7140   21.2230 C   0  0  0  0  0  0  0  0  0  0  0  0
    7.6320   -2.6520   21.1000 N   0  0  0  0  0  0  0  0  0  0  0  0
    7.7360   -1.6740   22.2250 C   0  0  0  0  0  0  0  0  0  0  0  0
    6.9020   -1.8410   23.3450 C   0  0  0  0  0  0  0  0  0  0  0  0
    5.9490   -3.0310   23.2910 C   0  0  0  0  0  0  0  0  0  0  0  0
    5.8550   -3.9060   22.2770 N   0  0  0  0  0  0  0  0  0  0  0  0
  2  3  2  0
  4  2  1  1
  2  5  1  0
  1  6  3  0
  7  8  2  3
  9 10  2  0
  5 11  1  0
 10 11  1  0
 11 12  2  0
 12 13  1  0
  9 14  1  0
 13 14  2  0
 15 16  2  0
 16 17  1  0
  6 18  1  0
 17 18  2  0
 18 19  1  0
  4 20  1  0
 15 20  1  0
 19 20  2  0
  8 21  1  0
 21 22  2  0
  4 23  1  0
 22 23  1  0
 23 24  2  0
 24 25  1  0
 21 26  1  0
 25 26  2  0
M  END
