x2608-x0705
     RDKit          3D

 34 37  0  0  0  0  0  0  0  0999 V2000
    1.2190   -2.7690   27.8540 C   0  0  0  0  0  0  0  0  0  0  0  0
    7.5930   -1.5520   26.0400 O   0  0  0  0  0  0  0  0  0  0  0  0
    5.7700   -3.6250   19.5420 O   0  0  0  0  0  0  0  0  0  0  0  0
    6.5660   -1.7770   25.4550 C   0  0  0  0  0  0  0  0  0  0  0  0
    6.6060   -3.6860   20.4460 C   0  0  0  0  0  0  0  0  0  0  0  0
    7.7950   -4.5810   20.4600 C   0  0  0  0  0  0  0  0  0  0  0  0
    8.4660   -0.6240   22.7940 N   0  0  0  0  0  0  0  0  0  0  0  0
   13.0550    1.7240   22.8620 C   0  0  0  0  0  0  0  0  0  0  0  0
    8.5370    1.1650   21.0820 O   0  0  0  0  0  0  0  0  0  0  0  0
    6.8480   -0.7610   21.0300 N   0  0  0  0  0  0  0  0  0  0  0  0
    7.9670   -0.0450   21.6210 C   0  0  0  0  0  0  0  0  0  0  0  0
    2.5450   -2.4860   27.2230 C   0  0  0  0  0  0  0  0  0  0  0  0
    2.6840   -1.3950   26.1850 C   0  0  0  0  0  0  0  0  0  0  0  0
    4.0170   -1.1100   25.5520 C   0  0  0  0  0  0  0  0  0  0  0  0
    5.1940   -1.9640   26.0050 C   0  0  0  0  0  0  0  0  0  0  0  0
    4.9700   -2.9660   26.9850 C   0  0  0  0  0  0  0  0  0  0  0  0
    3.7100   -3.1980   27.5500 C   0  0  0  0  0  0  0  0  0  0  0  0
    6.5490   -2.9520   21.5830 N   0  0  0  0  0  0  0  0  0  0  0  0
    5.4750   -3.1020   22.5030 C   0  0  0  0  0  0  0  0  0  0  0  0
    5.3450   -2.0950   23.4270 C   0  0  0  0  0  0  0  0  0  0  0  0
    6.6940   -1.8420   24.0720 N   0  0  0  0  0  0  0  0  0  0  0  0
    7.8300   -1.8960   23.2520 C   0  0  1  0  0  0  0  0  0  0  0  0
    7.7290   -2.7780   22.1960 C   0  0  0  0  0  0  0  0  0  0  0  0
   12.0220    0.6670   22.9840 C   0  0  0  0  0  0  0  0  0  0  0  0
   12.1310   -0.6770   23.3170 C   0  0  0  0  0  0  0  0  0  0  0  0
   10.8980   -1.2830   23.2930 C   0  0  0  0  0  0  0  0  0  0  0  0
    9.8350   -0.4270   22.9480 C   0  0  0  0  0  0  0  0  0  0  0  0
   10.4190    1.1380   22.6710 S   0  0  0  0  0  0  0  0  0  0  0  0
    6.1260    0.6730   17.7300 N   0  0  0  0  0  0  0  0  0  0  0  0
    6.6870   -0.0130   18.7340 C   0  0  0  0  0  0  0  0  0  0  0  0
    6.1910   -0.0360   20.0230 C   0  0  0  0  0  0  0  0  0  0  0  0
    5.0290    0.6900   20.3010 C   0  0  0  0  0  0  0  0  0  0  0  0
    4.4090    1.4220   19.2890 C   0  0  0  0  0  0  0  0  0  0  0  0
    5.0020    1.3820   18.0240 C   0  0  0  0  0  0  0  0  0  0  0  0
  2  4  2  0
  3  5  2  0
  5  6  1  0
  7 11  1  0
  9 11  2  0
 10 11  1  0
  1 12  1  0
 12 13  2  0
 13 14  1  0
  4 15  1  0
 14 15  2  0
 15 16  1  0
 12 17  1  0
 16 17  2  0
  5 18  1  0
 18 19  1  0
 19 20  1  0
  4 21  1  0
 20 21  1  0
 22  7  1  6
 21 22  1  0
 18 23  1  0
 22 23  1  0
  8 24  1  0
 24 25  2  0
 25 26  1  0
  7 27  1  0
 26 27  2  0
 24 28  1  0
 27 28  1  0
 29 30  2  0
 10 31  1  0
 30 31  1  0
 31 32  2  0
 32 33  1  0
 29 34  1  0
 33 34  2  0
M  END
