x2600-x0770
     RDKit          3D

 28 31  0  0  0  0  0  0  0  0999 V2000
   14.0460   -1.6380   20.4010 N   0  0  0  0  0  0  0  0  0  0  0  0
    8.0690   -0.6090   21.7100 C   0  0  1  0  0  0  0  0  0  0  0  0
    8.8680    0.0160   21.0470 O   0  0  0  0  0  0  0  0  0  0  0  0
    8.7270   -1.0980   22.9510 C   0  0  2  0  0  0  0  0  0  0  0  0
    6.8000    0.0560   21.7510 N   0  0  0  0  0  0  0  0  0  0  0  0
   13.2470   -1.3230   21.4680 C   0  0  0  0  0  0  0  0  0  0  0  0
    7.3250   -3.0700   18.6880 C   0  0  0  0  0  0  0  0  0  0  0  0
    5.4470   -4.1550   19.7480 O   0  0  0  0  0  0  0  0  0  0  0  0
    6.3530   -3.3070   19.8460 C   0  0  0  0  0  0  0  0  0  0  0  0
    9.0220   -3.2230   24.4550 C   0  0  0  0  0  0  0  0  0  0  0  0
    6.3160    0.4810   17.9730 N   0  0  0  0  0  0  0  0  0  0  0  0
    6.8980    0.0410   19.2450 C   0  0  0  0  0  0  0  0  0  0  0  0
    6.2640    0.4450   20.4330 C   0  0  0  0  0  0  0  0  0  0  0  0
    5.1190    1.2230   20.4470 C   0  0  0  0  0  0  0  0  0  0  0  0
    4.5900    1.6210   19.2170 C   0  0  0  0  0  0  0  0  0  0  0  0
    5.2100    1.2370   18.0300 C   0  0  0  0  0  0  0  0  0  0  0  0
   10.5230    0.3830   24.1360 C   0  0  0  0  0  0  0  0  0  0  0  0
   11.9480    0.7290   24.1220 C   0  0  0  0  0  0  0  0  0  0  0  0
   12.7680    0.1300   23.2420 C   0  0  0  0  0  0  0  0  0  0  0  0
   12.2750   -0.7670   22.3910 C   0  0  0  0  0  0  0  0  0  0  0  0
   10.9770   -1.1090   22.3630 C   0  0  0  0  0  0  0  0  0  0  0  0
   10.0690   -0.5450   23.2270 C   0  0  0  0  0  0  0  0  0  0  0  0
    6.5910   -2.5430   20.9830 N   0  0  0  0  0  0  0  0  0  0  0  0
    7.9220   -1.9860   21.0860 C   0  0  2  0  0  0  0  0  0  0  0  0
    8.7000   -2.9270   22.0040 C   0  0  0  0  0  0  0  0  0  0  0  0
    8.2400   -2.4660   23.3500 C   0  0  2  0  0  0  0  0  0  0  0  0
    6.7410   -2.5570   23.5330 C   0  0  0  0  0  0  0  0  0  0  0  0
    6.0630   -3.0860   22.2490 C   0  0  0  0  0  0  0  0  0  0  0  0
  2  3  1  6
  2  4  1  0
  2  5  1  0
  1  6  3  0
  7  9  1  0
  8  9  2  0
 11 12  2  0
  5 13  1  0
 12 13  1  0
 13 14  2  0
 14 15  1  0
 11 16  1  0
 15 16  2  0
 17 18  2  0
 18 19  1  0
  6 20  1  0
 19 20  2  0
 20 21  1  0
  4 22  1  6
 17 22  1  0
 21 22  2  0
  9 23  1  0
  2 24  1  0
 24 23  1  1
 24 25  1  0
  4 26  1  0
 26 10  1  1
 25 26  1  0
 26 27  1  0
 23 28  1  0
 27 28  1  0
M  END
