x2643-x1418
     RDKit          3D

 25 28  0  0  0  0  0  0  0  0999 V2000
    7.5590    0.6430   22.1790 O   0  0  0  0  0  0  0  0  0  0  0  0
   12.9710    1.3710   22.9910 Cl  0  0  0  0  0  0  0  0  0  0  0  0
    7.9070   -0.4410   21.7500 C   0  0  0  0  0  0  0  0  0  0  0  0
    7.2930   -3.0640   18.7220 C   0  0  0  0  0  0  0  0  0  0  0  0
    5.4700   -4.2220   19.7760 O   0  0  0  0  0  0  0  0  0  0  0  0
    6.2860   -3.2970   19.8630 C   0  0  0  0  0  0  0  0  0  0  0  0
    9.4190   -2.7620   23.5470 C   0  0  0  0  0  0  0  0  0  0  0  0
   11.7200    0.3410   23.4030 C   0  0  0  0  0  0  0  0  0  0  0  0
   10.6960    0.5880   24.2990 C   0  0  0  0  0  0  0  0  0  0  0  0
    9.8310   -0.4490   24.4170 C   0  0  0  0  0  0  0  0  0  0  0  0
   10.1980   -1.4990   23.6010 C   0  0  0  0  0  0  0  0  0  0  0  0
   11.6240   -1.1870   22.6890 S   0  0  0  0  0  0  0  0  0  0  0  0
    6.3620   -2.4410   20.9590 N   0  0  0  0  0  0  0  0  0  0  0  0
    6.2860   -2.9240   22.2310 C   0  0  0  0  0  0  0  0  0  0  0  0
    7.5220   -3.7330   22.5810 C   0  0  0  0  0  0  0  0  0  0  0  0
    8.7260   -2.9310   22.3820 N   0  0  0  0  0  0  0  0  0  0  0  0
    8.6570   -1.7140   21.4910 C   0  0  1  0  0  0  0  0  0  0  0  0
    7.4000   -1.5100   20.6900 C   0  0  2  0  0  0  0  0  0  0  0  0
    6.3330    0.4810   17.9380 N   0  0  0  0  0  0  0  0  0  0  0  0
    6.3700   -0.1430   19.1390 C   0  0  0  0  0  0  0  0  0  0  0  0
    5.5390    0.1120   20.2040 C   0  0  0  0  0  0  0  0  0  0  0  0
    4.5310    1.1300   20.0320 C   0  0  0  0  0  0  0  0  0  0  0  0
    4.4950    1.7640   18.7940 C   0  0  0  0  0  0  0  0  0  0  0  0
    5.3900    1.4220   17.7990 C   0  0  0  0  0  0  0  0  0  0  0  0
    7.3200   -1.1410   19.3120 C   0  0  0  0  0  0  0  0  0  0  0  0
  1  3  2  0
  4  6  1  0
  5  6  2  0
  2  8  1  0
  8  9  2  0
  9 10  1  0
  7 11  1  0
 10 11  2  0
  8 12  1  0
 11 12  1  0
  6 13  1  0
 13 14  1  0
 14 15  1  0
  7 16  1  0
 15 16  1  0
 17  3  1  1
 16 17  1  0
  3 18  1  0
 13 18  1  0
 17 18  1  0
 19 20  2  0
 20 21  1  0
 21 22  2  0
 22 23  1  0
 19 24  1  0
 23 24  2  0
 18 25  1  6
 20 25  1  0
M  END
