x2649-x2754-x2646
     RDKit          3D

 45 48  0  0  0  0  0  0  0  0999 V2000
    4.3750   -3.3810   25.2180 C   0  0  0  0  0  0  0  0  0  0  0  0
    3.1520   -3.4280   25.3010 O   0  0  0  0  0  0  0  0  0  0  0  0
    5.2380   -2.9570   26.2740 N   0  0  0  0  0  0  0  0  0  0  0  0
    5.2590   -4.7970   19.9680 O   0  0  0  0  0  0  0  0  0  0  0  0
    6.2590   -4.3230   20.5060 C   0  0  0  0  0  0  0  0  0  0  0  0
    7.1200   -3.3500   19.7300 C   0  0  0  0  0  0  0  0  0  0  0  0
    4.7000   -2.0470   27.3410 C   0  0  0  0  0  0  0  0  0  0  0  0
    6.9590   -0.2180   20.8890 N   0  0  0  0  0  0  0  0  0  0  0  0
    8.2410   -1.6600   23.0000 C   0  0  0  0  0  0  0  0  0  0  0  0
    8.9370    1.2800   20.9390 O   0  0  0  0  0  0  0  0  0  0  0  0
   13.3530   -2.1690   22.4040 C   0  0  0  0  0  0  0  0  0  0  0  0
    9.0280   -0.9480   21.9290 C   0  0  1  0  0  0  0  0  0  0  0  0
    8.2540    0.0480   21.1920 C   0  0  0  0  0  0  0  0  0  0  0  0
    4.9700    1.7760   21.4430 C   0  0  0  0  0  0  0  0  0  0  0  0
    8.3650   -3.1120   22.7310 C   0  0  0  0  0  0  0  0  0  0  0  0
   13.5720   -1.7100   20.7850 Cl  0  0  0  0  0  0  0  0  0  0  0  0
    6.6840   -4.6950   21.8190 N   0  0  0  0  0  0  0  0  0  0  0  0
    7.0880   -3.7490   22.9030 C   0  0  2  0  0  0  0  0  0  0  0  0
    5.9400   -2.8330   23.2350 C   0  0  0  0  0  0  0  0  0  0  0  0
    4.9900   -3.7600   23.8260 C   0  0  1  0  0  0  0  0  0  0  0  0
    5.4430   -5.2400   23.7260 C   0  0  0  0  0  0  0  0  0  0  0  0
    5.9340   -5.6670   22.3670 C   0  0  0  0  0  0  0  0  0  0  0  0
    6.7800   -4.8960   26.7550 C   0  0  0  0  0  0  0  0  0  0  0  0
    8.0100   -5.4000   27.1340 C   0  0  0  0  0  0  0  0  0  0  0  0
    9.0300   -4.5170   27.4230 C   0  0  0  0  0  0  0  0  0  0  0  0
    8.7700   -3.0860   27.3130 C   0  0  0  0  0  0  0  0  0  0  0  0
    7.5370   -2.6050   26.9290 C   0  0  0  0  0  0  0  0  0  0  0  0
    6.5320   -3.5180   26.6510 C   0  0  0  0  0  0  0  0  0  0  0  0
    6.1180    0.6420   17.5080 N   0  0  0  0  0  0  0  0  0  0  0  0
    5.1790    1.5950   17.6340 C   0  0  0  0  0  0  0  0  0  0  0  0
    4.8350    1.9250   18.9050 C   0  0  0  0  0  0  0  0  0  0  0  0
    5.3790    1.3650   20.0460 C   0  0  0  0  0  0  0  0  0  0  0  0
    6.3170    0.4200   19.8420 C   0  0  0  0  0  0  0  0  0  0  0  0
    6.6540    0.0870   18.5940 C   0  0  0  0  0  0  0  0  0  0  0  0
   10.5550    0.6680   23.1900 C   0  0  0  0  0  0  0  0  0  0  0  0
   11.8210    0.9210   23.6440 C   0  0  0  0  0  0  0  0  0  0  0  0
   12.7660   -0.0140   23.3870 C   0  0  0  0  0  0  0  0  0  0  0  0
   12.4240   -1.1440   22.7120 C   0  0  0  0  0  0  0  0  0  0  0  0
   11.2540   -1.4020   22.2750 C   0  0  0  0  0  0  0  0  0  0  0  0
   10.2960   -0.5080   22.4980 C   0  0  0  0  0  0  0  0  0  0  0  0
    4.1300    0.7140   22.0990 C   0  0  0  0  0  0  0  0  0  0  0  0
    8.0560    1.7720   22.4960 O   0  0  0  0  0  0  0  0  0  0  0  0
    6.4560    0.0340   22.1470 N   0  0  0  0  0  0  0  0  0  0  0  0
    7.5280    0.7340   22.8820 C   0  0  0  0  0  0  0  0  0  0  0  0
    7.9200    0.1110   24.0780 C   0  0  0  0  0  0  0  0  0  0  0  0
  1  2  2  0
  1  3  1  0
  4  5  2  0
  5  6  1  0
  3  7  1  0
 12  9  1  1
  8 13  1  0
 10 13  2  0
 12 13  1  0
  9 15  1  0
 11 16  1  0
  5 17  1  0
 18 15  1  6
 17 18  1  0
 18 19  1  0
 20  1  1  1
 19 20  1  0
 20 21  1  0
 17 22  1  0
 21 22  1  0
 23 24  2  0
 24 25  1  0
 25 26  2  0
 26 27  1  0
  3 28  1  0
 23 28  1  0
 27 28  2  0
 29 30  2  0
 30 31  1  0
 14 32  1  0
 31 32  2  0
  8 33  1  0
 32 33  1  0
 29 34  1  0
 33 34  2  0
 35 36  2  0
 36 37  1  0
 11 38  1  0
 37 38  2  0
 38 39  1  0
 12 40  1  0
 35 40  1  0
 39 40  2  0
 14 41  1  0
  8 43  1  0
 42 44  2  0
 43 44  1  0
 44 45  1  0
M  END
