x2646-x2119
     RDKit          3D

 25 27  0  0  0  0  0  0  0  0999 V2000
    4.7410    1.3650   21.8220 C   0  0  0  0  0  0  0  0  0  0  0  0
    8.5630    1.0650   21.3470 O   0  0  0  0  0  0  0  0  0  0  0  0
   13.1860   -2.3020   21.1840 Cl  0  0  0  0  0  0  0  0  0  0  0  0
    6.9980   -0.5050   21.2200 N   0  0  0  0  0  0  0  0  0  0  0  0
    8.0980    0.0080   21.7960 C   0  0  0  0  0  0  0  0  0  0  0  0
    8.7590   -0.6940   22.9460 C   0  0  0  0  0  0  0  0  0  0  0  0
    5.8670   -5.4910   20.0440 N   0  0  0  0  0  0  0  0  0  0  0  0
    6.4240   -4.3350   20.0230 C   0  0  0  0  0  0  0  0  0  0  0  0
    6.3460    0.5930   17.6360 N   0  0  0  0  0  0  0  0  0  0  0  0
    6.8540   -0.0140   18.7250 C   0  0  0  0  0  0  0  0  0  0  0  0
    6.4230    0.1460   20.1580 C   0  0  0  0  0  0  0  0  0  0  0  0
    5.2650    1.1080   20.4430 C   0  0  0  0  0  0  0  0  0  0  0  0
    4.6360    1.8310   19.2270 C   0  0  0  0  0  0  0  0  0  0  0  0
    5.2300    1.5240   17.8540 C   0  0  0  0  0  0  0  0  0  0  0  0
   10.7790    0.2750   23.9210 C   0  0  0  0  0  0  0  0  0  0  0  0
   12.1640    0.3500   23.9540 C   0  0  0  0  0  0  0  0  0  0  0  0
   12.9260   -0.4470   23.1050 C   0  0  0  0  0  0  0  0  0  0  0  0
   12.2860   -1.3160   22.2340 C   0  0  0  0  0  0  0  0  0  0  0  0
   10.9240   -1.4030   22.1890 C   0  0  0  0  0  0  0  0  0  0  0  0
   10.1810   -0.6070   23.0270 C   0  0  0  0  0  0  0  0  0  0  0  0
    6.0760   -3.3760   21.1340 C   0  0  0  0  0  0  0  0  0  0  0  0
    5.3290   -3.6430   22.1850 N   0  0  0  0  0  0  0  0  0  0  0  0
    5.3830   -2.4610   22.7610 C   0  0  0  0  0  0  0  0  0  0  0  0
    6.1970   -1.2620   22.1040 C   0  0  0  0  0  0  0  0  0  0  0  0
    6.5360   -2.1750   21.0620 N   0  0  0  0  0  0  0  0  0  0  0  0
  2  5  2  0
  4  5  1  0
  5  6  1  0
  7  8  2  3
  9 10  2  0
  4 11  1  0
 10 11  1  0
  1 12  1  0
 11 12  2  0
 12 13  1  0
  9 14  1  0
 13 14  2  0
 15 16  2  0
 16 17  1  0
  3 18  1  0
 17 18  2  0
 18 19  1  0
  6 20  1  0
 15 20  1  0
 19 20  2  0
  8 21  1  0
 21 22  2  0
 22 23  1  0
  4 24  1  0
 23 24  2  0
 21 25  1  0
 24 25  1  0
M  END
