x2646-x0736
     RDKit          3D

 34 38  0  0  0  0  0  0  0  0999 V2000
    4.4290    1.5080   21.5510 C   0  0  0  0  0  0  0  0  0  0  0  0
    8.4680    1.0150   21.3240 O   0  0  0  0  0  0  0  0  0  0  0  0
   13.4190   -2.0940   21.1300 Cl  0  0  0  0  0  0  0  0  0  0  0  0
    6.8340   -0.5210   21.2250 N   0  0  0  0  0  0  0  0  0  0  0  0
    8.0700   -0.1430   21.5230 C   0  0  0  0  0  0  0  0  0  0  0  0
    8.9140   -1.2080   22.0600 C   0  0  1  0  0  0  0  0  0  0  0  0
    7.1120   -2.9700   19.0000 C   0  0  0  0  0  0  0  0  0  0  0  0
    5.2060   -4.2020   19.7140 O   0  0  0  0  0  0  0  0  0  0  0  0
    6.0880   -3.4160   20.0260 C   0  0  0  0  0  0  0  0  0  0  0  0
    5.9550   -2.2460   24.9270 O   0  0  0  0  0  0  0  0  0  0  0  0
    7.1680   -2.1860   24.7760 C   0  0  0  0  0  0  0  0  0  0  0  0
    6.1970    0.5720   17.5940 N   0  0  0  0  0  0  0  0  0  0  0  0
    6.8050   -0.1550   18.7310 C   0  0  0  0  0  0  0  0  0  0  0  0
    6.2130    0.1490   20.1060 C   0  0  0  0  0  0  0  0  0  0  0  0
    5.0720    1.1310   20.2540 C   0  0  0  0  0  0  0  0  0  0  0  0
    4.5340    1.8090   18.9920 C   0  0  0  0  0  0  0  0  0  0  0  0
    5.1260    1.4920   17.7730 C   0  0  0  0  0  0  0  0  0  0  0  0
   10.6590    0.1770   23.7690 C   0  0  0  0  0  0  0  0  0  0  0  0
   12.0350    0.3610   23.9780 C   0  0  0  0  0  0  0  0  0  0  0  0
   12.9800   -0.3150   23.1960 C   0  0  0  0  0  0  0  0  0  0  0  0
   12.5490   -1.1800   22.2070 C   0  0  0  0  0  0  0  0  0  0  0  0
   11.2930   -1.3790   21.9840 C   0  0  0  0  0  0  0  0  0  0  0  0
   10.3030   -0.6970   22.7520 C   0  0  0  0  0  0  0  0  0  0  0  0
    6.1130   -3.0050   21.3610 N   0  0  0  0  0  0  0  0  0  0  0  0
    6.6840   -1.7690   21.9380 C   0  0  1  0  0  0  0  0  0  0  0  0
    7.8860   -2.1850   22.4410 C   0  0  2  0  0  0  0  0  0  0  0  0
    7.7460   -2.8870   23.7090 N   0  0  0  0  0  0  0  0  0  0  0  0
    7.1380   -4.0530   23.3760 C   0  0  0  0  0  0  0  0  0  0  0  0
    6.2050   -4.1540   22.3000 C   0  0  0  0  0  0  0  0  0  0  0  0
    8.4620   -0.2160   25.2710 O   0  0  0  0  0  0  0  0  0  0  0  0
    7.9660   -1.4240   25.6900 C   0  0  0  0  0  0  0  0  0  0  0  0
    8.3840   -1.6150   27.0020 C   0  0  0  0  0  0  0  0  0  0  0  0
    9.1190   -0.5450   27.3750 C   0  0  0  0  0  0  0  0  0  0  0  0
    9.1640    0.3110   26.3100 C   0  0  0  0  0  0  0  0  0  0  0  0
  2  5  2  0
  4  5  1  0
  5  6  1  0
  7  9  1  0
  8  9  2  0
 10 11  2  0
 12 13  2  0
  4 14  1  0
 13 14  1  0
  1 15  1  0
 14 15  2  0
 15 16  1  0
 12 17  1  0
 16 17  2  0
 18 19  2  0
 19 20  1  0
  3 21  1  0
 20 21  2  0
 21 22  1  0
  6 23  1  1
 18 23  1  0
 22 23  2  0
  9 24  1  0
 25  4  1  6
 24 25  1  0
  6 26  1  0
 25 26  1  0
 11 27  1  0
 26 27  1  1
 27 28  1  0
 24 29  1  0
 28 29  1  0
 11 31  1  0
 30 31  1  0
 31 32  2  0
 32 33  1  0
 30 34  1  0
 33 34  2  0
M  END
