x2643-x0978
     RDKit          3D

 33 34  0  0  0  0  0  0  0  0999 V2000
    2.1890   -5.6430   23.0820 N   0  0  0  0  0  0  0  0  0  0  0  0
    2.1650   -7.9530   24.5380 C   0  0  0  0  0  0  0  0  0  0  0  0
    4.4750   -7.7750   24.7540 O   0  0  0  0  0  0  0  0  0  0  0  0
    3.3450   -7.0160   24.3520 C   0  0  1  0  0  0  0  0  0  0  0  0
    5.5210   -6.0560   21.7560 N   0  0  0  0  0  0  0  0  0  0  0  0
    0.7920   -7.2700   21.9620 O   0  0  0  0  0  0  0  0  0  0  0  0
    3.2930   -6.4770   23.1590 C   0  0  2  0  0  0  0  0  0  0  0  0
    4.8090   -4.5380   23.3600 O   0  0  0  0  0  0  0  0  0  0  0  0
    0.8710   -6.2040   22.5620 C   0  0  0  0  0  0  0  0  0  0  0  0
   -0.3590   -5.3520   22.8270 C   0  0  0  0  0  0  0  0  0  0  0  0
    4.5990   -5.6020   22.7880 C   0  0  0  0  0  0  0  0  0  0  0  0
    6.8780   -5.3460   21.5640 C   0  0  1  0  0  0  0  0  0  0  0  0
    6.8000   -4.3770   20.3470 C   0  0  0  0  0  0  0  0  0  0  0  0
    5.4540   -4.3220   19.8820 C   0  0  0  0  0  0  0  0  0  0  0  0
    6.6060   -0.9920   20.8070 N   0  0  0  0  0  0  0  0  0  0  0  0
    8.3440    0.3190   21.1410 O   0  0  0  0  0  0  0  0  0  0  0  0
   13.4590    0.4150   23.0150 Cl  0  0  0  0  0  0  0  0  0  0  0  0
    8.5550   -1.7330   22.0120 C   0  0  2  0  0  0  0  0  0  0  0  0
    7.8100   -0.7810   21.3080 C   0  0  0  0  0  0  0  0  0  0  0  0
    7.2280   -4.6200   22.7030 C   0  0  0  0  0  0  0  0  0  0  0  0
    6.8800   -3.2820   22.6700 C   0  0  0  0  0  0  0  0  0  0  0  0
    7.9290   -2.4310   23.0310 C   0  0  0  0  0  0  0  0  0  0  0  0
   11.8780    0.0130   22.8250 C   0  0  0  0  0  0  0  0  0  0  0  0
   10.8490    0.8490   23.0340 C   0  0  0  0  0  0  0  0  0  0  0  0
    9.6960    0.2760   22.7920 C   0  0  0  0  0  0  0  0  0  0  0  0
    9.6590   -1.0500   22.3500 C   0  0  0  0  0  0  0  0  0  0  0  0
   11.3100   -1.6070   22.2860 S   0  0  0  0  0  0  0  0  0  0  0  0
    6.3660    0.7860   17.5770 N   0  0  0  0  0  0  0  0  0  0  0  0
    6.8590   -0.0890   18.6350 C   0  0  0  0  0  0  0  0  0  0  0  0
    6.1650   -0.2090   19.8180 C   0  0  0  0  0  0  0  0  0  0  0  0
    4.9900    0.5040   19.9940 C   0  0  0  0  0  0  0  0  0  0  0  0
    4.4640    1.3560   19.0280 C   0  0  0  0  0  0  0  0  0  0  0  0
    5.1210    1.5300   17.8060 C   0  0  0  0  0  0  0  0  0  0  0  0
  4  2  1  6
  3  4  1  0
  7  1  1  1
  4  7  1  0
  1  9  1  0
  6  9  2  0
  9 10  1  0
  5 11  1  0
  7 11  1  0
  8 11  2  0
  5 12  1  0
 12 13  1  6
 13 14  2  3
 15 19  1  0
 16 19  2  0
 18 19  1  0
 12 20  1  0
 20 21  1  0
 18 22  1  1
 21 22  1  0
 17 23  1  0
 23 24  2  0
 24 25  1  0
 18 26  1  0
 25 26  2  0
 23 27  1  0
 26 27  1  0
 28 29  2  0
 15 30  1  0
 29 30  1  0
 30 31  2  0
 31 32  1  0
 28 33  1  0
 32 33  2  0
M  END
