x2643-x3077
     RDKit          3D

 28 31  0  0  0  0  0  0  0  0999 V2000
    7.0170   -3.2030   19.2220 C   0  0  0  0  0  0  0  0  0  0  0  0
    5.3920   -4.7440   19.9840 O   0  0  0  0  0  0  0  0  0  0  0  0
   13.2840   -1.8600   21.2120 Cl  0  0  0  0  0  0  0  0  0  0  0  0
    6.2640   -3.9340   20.3040 C   0  0  0  0  0  0  0  0  0  0  0  0
    9.2440   -2.1940   24.2230 C   0  0  0  0  0  0  0  0  0  0  0  0
   12.8240    1.7610   23.0760 Cl  0  0  0  0  0  0  0  0  0  0  0  0
    7.0160   -1.1740   20.3800 N   0  0  0  0  0  0  0  0  0  0  0  0
    8.6560    0.0030   21.6620 O   0  0  0  0  0  0  0  0  0  0  0  0
    7.7790   -0.8650   21.6170 C   0  0  0  0  0  0  0  0  0  0  0  0
    6.6270   -3.7360   21.6590 N   0  0  0  0  0  0  0  0  0  0  0  0
    7.6230   -4.3880   22.3080 C   0  0  0  0  0  0  0  0  0  0  0  0
    7.6710   -3.8140   23.5710 C   0  0  2  0  0  0  0  0  0  0  0  0
    6.2040   -3.3380   23.7410 C   0  0  0  0  0  0  0  0  0  0  0  0
    6.2310   -2.6890   22.5450 C   0  0  1  0  0  0  0  0  0  0  0  0
    8.3280   -2.6000   23.3040 N   0  0  0  0  0  0  0  0  0  0  0  0
    7.3750   -1.6940   22.8260 C   0  0  1  0  0  0  0  0  0  0  0  0
   10.5510   -0.0220   24.1440 C   0  0  0  0  0  0  0  0  0  0  0  0
   11.5290    0.9430   23.7690 C   0  0  0  0  0  0  0  0  0  0  0  0
   12.3620    0.0770   22.7600 C   0  0  0  0  0  0  0  0  0  0  0  0
   12.1990   -1.2120   22.3470 C   0  0  0  0  0  0  0  0  0  0  0  0
   11.1960   -1.9770   22.8060 C   0  0  0  0  0  0  0  0  0  0  0  0
   10.3720   -1.3810   23.7030 C   0  0  0  0  0  0  0  0  0  0  0  0
    6.3350    1.0240   17.5380 N   0  0  0  0  0  0  0  0  0  0  0  0
    6.8210    0.1550   18.4380 C   0  0  0  0  0  0  0  0  0  0  0  0
    6.3040   -0.2050   19.6320 C   0  0  0  0  0  0  0  0  0  0  0  0
    5.1010    0.4040   19.9990 C   0  0  0  0  0  0  0  0  0  0  0  0
    4.5280    1.3280   19.1080 C   0  0  0  0  0  0  0  0  0  0  0  0
    5.1790    1.5910   17.9150 C   0  0  0  0  0  0  0  0  0  0  0  0
  1  4  1  0
  2  4  2  0
  7  9  1  0
  8  9  2  0
  4 10  1  0
 10 11  1  0
 12 11  1  6
 12 13  1  0
 14 10  1  6
 13 14  1  0
  5 15  1  0
 12 15  1  0
 16  9  1  6
 14 16  1  0
 15 16  1  0
  6 18  1  0
 17 18  2  0
 18 19  1  0
  3 20  1  0
 19 20  2  0
 20 21  1  0
  5 22  1  0
 17 22  1  0
 21 22  2  0
 23 24  2  0
  7 25  1  0
 24 25  1  0
 25 26  2  0
 26 27  1  0
 23 28  1  0
 27 28  2  0
M  END
