x2649-x3080
     RDKit          3D

 30 33  0  0  0  0  0  0  0  0999 V2000
    8.6260    1.1280   21.5980 O   0  0  0  0  0  0  0  0  0  0  0  0
    7.3680   -0.7540   21.0960 N   0  0  0  0  0  0  0  0  0  0  0  0
    6.8650   -1.3130   24.2930 O   0  0  0  0  0  0  0  0  0  0  0  0
    8.4420   -0.0850   21.6940 C   0  0  0  0  0  0  0  0  0  0  0  0
    8.4160    0.0830   25.8170 O   0  0  0  0  0  0  0  0  0  0  0  0
    5.1170    0.9480   22.0230 C   0  0  0  0  0  0  0  0  0  0  0  0
    8.1470   -0.9770   24.8630 S   0  0  0  0  0  0  0  0  0  0  0  0
   13.0890   -2.1250   21.1280 Cl  0  0  0  0  0  0  0  0  0  0  0  0
    6.1630    0.4500   17.7550 N   0  0  0  0  0  0  0  0  0  0  0  0
    5.1530    1.2240   18.1970 C   0  0  0  0  0  0  0  0  0  0  0  0
    4.7910    1.4070   19.5170 C   0  0  0  0  0  0  0  0  0  0  0  0
    5.4990    0.7620   20.5430 C   0  0  0  0  0  0  0  0  0  0  0  0
    6.5650   -0.0500   20.1010 C   0  0  0  0  0  0  0  0  0  0  0  0
    6.8410   -0.1680   18.7420 C   0  0  0  0  0  0  0  0  0  0  0  0
   11.3860   -1.3760   24.9230 N   0  0  0  0  0  0  0  0  0  0  0  0
   10.4710   -2.3320   25.3530 C   0  0  0  0  0  0  0  0  0  0  0  0
   10.8730   -3.6050   25.8680 C   0  0  0  0  0  0  0  0  0  0  0  0
   12.2560   -3.8250   25.9190 C   0  0  0  0  0  0  0  0  0  0  0  0
   13.2190   -2.8980   25.4930 C   0  0  0  0  0  0  0  0  0  0  0  0
   12.8430   -1.6700   24.9890 C   0  0  0  0  0  0  0  0  0  0  0  0
    7.9700   -3.5790   25.9630 C   0  0  0  0  0  0  0  0  0  0  0  0
    8.6660   -4.6580   26.3860 C   0  0  0  0  0  0  0  0  0  0  0  0
   10.0270   -4.6570   26.3350 C   0  0  0  0  0  0  0  0  0  0  0  0
    8.9010   -2.4650   25.4660 C   0  0  0  0  0  0  0  0  0  0  0  0
    9.4370   -1.2380   23.8240 C   0  0  0  0  0  0  0  0  0  0  0  0
   10.6820   -1.9980   24.3670 C   0  0  0  0  0  0  0  0  0  0  0  0
   11.8690   -2.2780   23.4670 C   0  0  0  0  0  0  0  0  0  0  0  0
   11.7880   -1.8400   22.1840 C   0  0  0  0  0  0  0  0  0  0  0  0
   10.6240   -1.1600   21.7610 C   0  0  0  0  0  0  0  0  0  0  0  0
    9.4960   -0.8500   22.5040 C   0  0  0  0  0  0  0  0  0  0  0  0
  1  4  2  0
  2  4  1  0
  3  7  2  0
  5  7  2  0
  9 10  2  0
 10 11  1  0
  6 12  1  0
 11 12  2  0
  2 13  1  0
 12 13  1  0
  9 14  1  0
 13 14  2  0
 15 16  2  0
 16 17  1  0
 17 18  2  0
 18 19  1  0
 15 20  1  0
 19 20  2  0
 21 22  1  0
 17 23  1  0
 22 23  2  0
  7 24  1  0
 16 24  1  0
 21 24  2  0
  7 25  1  0
 25 26  2  0
 26 27  1  0
  8 28  1  0
 27 28  2  0
 28 29  1  0
  4 30  1  0
 25 30  1  0
 29 30  2  0
M  END
