x2643-x0387
     RDKit          3D

 24 26  0  0  0  0  0  0  0  0999 V2000
    6.7330   -1.1660   20.8900 N   0  0  0  0  0  0  0  0  0  0  0  0
    8.6280    0.3840   21.2810 O   0  0  0  0  0  0  0  0  0  0  0  0
   13.3570    0.4300   22.9500 Cl  0  0  0  0  0  0  0  0  0  0  0  0
    8.5710   -1.9020   22.4010 C   0  0  0  0  0  0  0  0  0  0  0  0
    7.9420   -0.8670   21.4800 C   0  0  0  0  0  0  0  0  0  0  0  0
    8.6280   -4.4850   27.3730 O   0  0  0  0  0  0  0  0  0  0  0  0
    8.4070   -1.6310   24.4650 C   0  0  0  0  0  0  0  0  0  0  0  0
   11.8520   -0.2390   23.2410 C   0  0  0  0  0  0  0  0  0  0  0  0
   11.0540   -0.3470   24.4680 C   0  0  0  0  0  0  0  0  0  0  0  0
    9.7910   -0.9170   24.6500 C   0  0  0  0  0  0  0  0  0  0  0  0
    9.7210   -1.2750   23.0960 C   0  0  0  0  0  0  0  0  0  0  0  0
   10.9900   -0.9370   22.0370 S   0  0  0  0  0  0  0  0  0  0  0  0
    6.4130    0.7840   17.6020 N   0  0  0  0  0  0  0  0  0  0  0  0
    6.8980   -0.0770   18.6130 C   0  0  0  0  0  0  0  0  0  0  0  0
    6.1550   -0.2630   19.9080 C   0  0  0  0  0  0  0  0  0  0  0  0
    4.9630    0.3990   20.1660 C   0  0  0  0  0  0  0  0  0  0  0  0
    4.4400    1.2650   19.1950 C   0  0  0  0  0  0  0  0  0  0  0  0
    5.1960    1.4680   17.8590 C   0  0  0  0  0  0  0  0  0  0  0  0
    8.7840   -4.9110   26.2270 C   0  0  1  0  0  0  0  0  0  0  0  0
    8.2530   -4.1490   25.1400 C   0  0  0  0  0  0  0  0  0  0  0  0
    8.5040   -2.7830   25.4300 C   0  0  1  0  0  0  0  0  0  0  0  0
    9.9670   -2.6890   25.6220 N   0  0  0  0  0  0  0  0  0  0  0  0
   10.6530   -3.7760   25.3190 C   0  0  0  0  0  0  0  0  0  0  0  0
   10.2530   -4.8840   25.9930 C   0  0  0  0  0  0  0  0  0  0  0  0
  1  5  1  0
  2  5  2  0
  4  5  1  0
  3  8  1  0
  8  9  2  0
  7 10  1  0
  9 10  1  0
  4 11  1  0
 10 11  2  0
  8 12  1  0
 11 12  1  0
 13 14  2  0
  1 15  1  0
 14 15  1  0
 15 16  2  0
 16 17  1  0
 13 18  1  0
 17 18  2  0
 19  6  1  1
 19 20  1  0
 21  7  1  6
 20 21  1  0
 21 22  1  0
 22 23  1  0
 19 24  1  0
 23 24  1  0
M  END
