x2643-x3110
     RDKit          3D

 34 35  0  0  0  0  0  0  0  0999 V2000
    8.0050    1.0950   23.1100 N   0  0  0  0  0  0  0  0  0  0  0  0
   13.3910    5.1490   22.9010 C   0  0  0  0  0  0  0  0  0  0  0  0
   11.9140    3.3060   22.4630 O   0  0  0  0  0  0  0  0  0  0  0  0
   12.3740    4.5640   21.9520 C   0  0  0  0  0  0  0  0  0  0  0  0
    6.9860   -1.6760   21.5250 N   0  0  0  0  0  0  0  0  0  0  0  0
   10.7910    4.3800   24.1340 O   0  0  0  0  0  0  0  0  0  0  0  0
   10.9870    3.3900   23.4450 C   0  0  0  0  0  0  0  0  0  0  0  0
    8.6210    1.3520   20.9560 O   0  0  0  0  0  0  0  0  0  0  0  0
   10.2230    2.0970   23.5860 C   0  0  0  0  0  0  0  0  0  0  0  0
    4.7830   -2.9440   21.1640 O   0  0  0  0  0  0  0  0  0  0  0  0
    8.7140    2.2900   23.5580 C   0  0  0  0  0  0  0  0  0  0  0  0
    7.8580    0.8020   21.7600 C   0  0  0  0  0  0  0  0  0  0  0  0
    6.6510   -0.1780   21.4000 C   0  0  1  0  0  0  0  0  0  0  0  0
    6.0760   -2.8460   21.2700 C   0  0  0  0  0  0  0  0  0  0  0  0
    6.7060   -4.2040   21.1120 C   0  0  0  0  0  0  0  0  0  0  0  0
    8.1850   -4.1630   20.8390 C   0  0  0  0  0  0  0  0  0  0  0  0
   12.0570   -2.1170   24.2570 C   0  0  0  0  0  0  0  0  0  0  0  0
   12.2220   -0.7930   25.0020 C   0  0  0  0  0  0  0  0  0  0  0  0
   13.3210   -2.2940   23.3870 C   0  0  0  0  0  0  0  0  0  0  0  0
   11.9350   -3.2730   25.2510 C   0  0  0  0  0  0  0  0  0  0  0  0
    6.6180    0.2780   18.1920 N   0  0  0  0  0  0  0  0  0  0  0  0
    5.4230    0.8890   17.8780 C   0  0  0  0  0  0  0  0  0  0  0  0
    4.4300    1.2040   18.8010 C   0  0  0  0  0  0  0  0  0  0  0  0
    4.5420    0.9440   20.1320 C   0  0  0  0  0  0  0  0  0  0  0  0
    5.7500    0.3510   20.4390 C   0  0  0  0  0  0  0  0  0  0  0  0
    6.7860    0.0060   19.5310 C   0  0  0  0  0  0  0  0  0  0  0  0
    9.4070   -1.4080   21.6370 C   0  0  0  0  0  0  0  0  0  0  0  0
   10.6700   -1.4950   22.2490 C   0  0  0  0  0  0  0  0  0  0  0  0
   10.7240   -2.0110   23.5250 C   0  0  0  0  0  0  0  0  0  0  0  0
    9.5900   -2.4450   24.2090 C   0  0  0  0  0  0  0  0  0  0  0  0
    8.3270   -2.3580   23.5780 C   0  0  0  0  0  0  0  0  0  0  0  0
    8.2240   -1.8320   22.2720 C   0  0  0  0  0  0  0  0  0  0  0  0
   13.2890    0.1830   22.7430 Cl  0  0  0  0  0  0  0  0  0  0  0  0
   12.2060    0.3650   24.0300 C   0  0  0  0  0  0  0  0  0  0  0  0
  2  4  1  0
  3  4  1  0
  3  7  1  0
  6  7  2  0
  7  9  1  0
  1 11  1  0
  9 11  1  0
  1 12  1  0
  8 12  2  0
  5 13  1  0
 13 12  1  6
  5 14  1  0
 10 14  2  0
 14 15  1  0
 15 16  1  0
 17 18  1  0
 17 19  1  0
 17 20  1  0
 21 22  2  0
 22 23  1  0
 23 24  2  0
 13 25  1  0
 24 25  1  0
 21 26  1  0
 25 26  2  0
 27 28  2  0
 17 29  1  0
 28 29  1  0
 29 30  2  0
 30 31  1  0
  5 32  1  0
 27 32  1  0
 31 32  2  0
 18 34  1  0
 33 34  1  0
M  END
