x2649-x2562
     RDKit          3D

 27 29  0  0  0  0  0  0  0  0999 V2000
    6.6380   -0.8220   21.1010 N   0  0  0  0  0  0  0  0  0  0  0  0
    7.7650   -1.5640   24.0360 C   0  0  0  0  0  0  0  0  0  0  0  0
    8.5090    0.5400   21.5070 O   0  0  0  0  0  0  0  0  0  0  0  0
   13.2270   -2.2860   21.3050 Cl  0  0  0  0  0  0  0  0  0  0  0  0
    8.4440   -1.5610   22.6750 C   0  0  1  0  0  0  0  0  0  0  0  0
    7.8910   -0.5040   21.7270 C   0  0  0  0  0  0  0  0  0  0  0  0
    5.0300    0.6970   21.3960 C   0  0  0  0  0  0  0  0  0  0  0  0
    6.1680    0.6170   17.5970 N   0  0  0  0  0  0  0  0  0  0  0  0
    5.1500    1.5870   17.7670 C   0  0  0  0  0  0  0  0  0  0  0  0
    4.5950    1.7800   19.0460 C   0  0  0  0  0  0  0  0  0  0  0  0
    5.0970    1.0040   20.0330 C   0  0  0  0  0  0  0  0  0  0  0  0
    6.1900   -0.0600   19.9330 C   0  0  0  0  0  0  0  0  0  0  0  0
    6.7210   -0.2380   18.6770 C   0  0  0  0  0  0  0  0  0  0  0  0
   10.1390    0.0040   23.2880 C   0  0  0  0  0  0  0  0  0  0  0  0
   11.4270    0.4570   23.2690 C   0  0  0  0  0  0  0  0  0  0  0  0
   12.6050   -0.0780   22.7020 C   0  0  0  0  0  0  0  0  0  0  0  0
   12.1390   -1.2900   22.1210 C   0  0  0  0  0  0  0  0  0  0  0  0
   10.8760   -1.7910   22.1000 C   0  0  0  0  0  0  0  0  0  0  0  0
    9.8660   -1.1510   22.6720 C   0  0  0  0  0  0  0  0  0  0  0  0
   12.1300    3.1020   22.0770 O   0  0  0  0  0  0  0  0  0  0  0  0
   13.4100    7.1840   22.6540 O   0  0  0  0  0  0  0  0  0  0  0  0
   11.9960    5.4600   21.9240 N   0  0  0  0  0  0  0  0  0  0  0  0
   12.8220    5.9250   22.9110 C   0  0  1  0  0  0  0  0  0  0  0  0
   13.7120    4.8990   22.8330 C   0  0  0  0  0  0  0  0  0  0  0  0
   12.7580    4.3510   21.7500 C   0  0  1  0  0  0  0  0  0  0  0  0
   12.4400    1.2050   23.4460 C   0  0  0  0  0  0  0  0  0  0  0  0
   12.9570    2.3870   22.9420 C   0  0  0  0  0  0  0  0  0  0  0  0
  5  2  1  1
  1  6  1  0
  3  6  2  0
  5  6  1  0
  8  9  2  0
  9 10  1  0
  7 11  1  0
 10 11  2  0
  1 12  1  0
 11 12  1  0
  8 13  1  0
 12 13  2  0
 14 15  2  0
 15 16  1  0
  4 17  1  0
 16 17  2  0
 17 18  1  0
  5 19  1  0
 14 19  1  0
 18 19  2  0
 23 21  1  6
 22 23  1  0
 23 24  1  0
 25 20  1  1
 22 25  1  0
 24 25  1  0
 16 26  1  0
 20 27  1  0
 26 27  1  0
M  END
