x2646-x1311
     RDKit          3D

 38 41  0  0  0  0  0  0  0  0999 V2000
    5.8380   -4.6420   20.0060 O   0  0  0  0  0  0  0  0  0  0  0  0
    6.7420   -4.4560   20.8610 C   0  0  0  0  0  0  0  0  0  0  0  0
    8.1740   -3.9910   20.5180 C   0  0  0  0  0  0  0  0  0  0  0  0
    6.5320   -4.6580   22.4000 C   0  0  2  0  0  0  0  0  0  0  0  0
    4.0640   -7.4900   25.2200 O   0  0  0  0  0  0  0  0  0  0  0  0
    1.7840   -6.1580   24.7460 O   0  0  0  0  0  0  0  0  0  0  0  0
    4.4990    0.9770   21.4940 C   0  0  0  0  0  0  0  0  0  0  0  0
    8.6100    0.8400   21.3770 O   0  0  0  0  0  0  0  0  0  0  0  0
   13.4630   -1.6000   21.2010 Cl  0  0  0  0  0  0  0  0  0  0  0  0
    6.8970   -0.6410   21.1070 N   0  0  0  0  0  0  0  0  0  0  0  0
    8.0640   -0.2110   21.7300 C   0  0  0  0  0  0  0  0  0  0  0  0
    8.6970   -1.0170   22.8560 C   0  0  0  0  0  0  0  0  0  0  0  0
    5.3370   -3.7530   22.7860 C   0  0  0  0  0  0  0  0  0  0  0  0
    5.5450   -2.2840   22.3350 C   0  0  0  0  0  0  0  0  0  0  0  0
    6.5620   -1.9930   21.2380 C   0  0  0  0  0  0  0  0  0  0  0  0
    8.3460   -5.8750   23.2410 C   0  0  0  0  0  0  0  0  0  0  0  0
    9.3900   -6.0210   24.0860 C   0  0  0  0  0  0  0  0  0  0  0  0
    9.7090   -4.9930   24.9300 C   0  0  0  0  0  0  0  0  0  0  0  0
    9.0060   -3.7880   24.9510 C   0  0  0  0  0  0  0  0  0  0  0  0
    7.9420   -3.6490   24.0870 C   0  0  0  0  0  0  0  0  0  0  0  0
    7.6310   -4.7070   23.2500 C   0  0  0  0  0  0  0  0  0  0  0  0
    4.4430   -6.3650   22.1980 C   0  0  0  0  0  0  0  0  0  0  0  0
    5.1600   -5.4130   23.0280 C   0  0  2  0  0  0  0  0  0  0  0  0
    4.1350   -4.9370   24.0730 C   0  0  0  0  0  0  0  0  0  0  0  0
    3.2700   -6.4680   24.2810 S   0  0  0  0  0  0  0  0  0  0  0  0
    3.3710   -6.9890   22.7230 C   0  0  0  0  0  0  0  0  0  0  0  0
    6.3740    0.6700   17.6560 N   0  0  0  0  0  0  0  0  0  0  0  0
    6.9270   -0.0340   18.7470 C   0  0  0  0  0  0  0  0  0  0  0  0
    6.3600    0.0390   20.0070 C   0  0  0  0  0  0  0  0  0  0  0  0
    5.2050    0.8260   20.1820 C   0  0  0  0  0  0  0  0  0  0  0  0
    4.6650    1.5170   19.0850 C   0  0  0  0  0  0  0  0  0  0  0  0
    5.2780    1.4110   17.8620 C   0  0  0  0  0  0  0  0  0  0  0  0
   10.5640    0.3080   23.9070 C   0  0  0  0  0  0  0  0  0  0  0  0
   11.9070    0.6460   23.9690 C   0  0  0  0  0  0  0  0  0  0  0  0
   12.8190    0.0520   23.1340 C   0  0  0  0  0  0  0  0  0  0  0  0
   12.3760   -0.8810   22.2420 C   0  0  0  0  0  0  0  0  0  0  0  0
   11.0550   -1.2460   22.1490 C   0  0  0  0  0  0  0  0  0  0  0  0
   10.1320   -0.6420   22.9850 C   0  0  0  0  0  0  0  0  0  0  0  0
  1  2  2  0
  2  3  1  0
  4  2  1  0
  8 11  2  0
 10 11  1  0
 11 12  1  0
  4 13  1  1
 13 14  1  0
 10 15  1  0
 14 15  1  0
 16 17  2  0
 17 18  1  0
 18 19  2  0
 19 20  1  0
  4 21  1  0
 16 21  1  0
 20 21  2  0
  4 23  1  0
 23 22  1  6
 23 24  1  0
 25  5  1  0
  6 25  1  0
 24 25  1  0
 22 26  2  0
 25 26  1  0
 27 28  2  0
 10 29  1  0
 28 29  1  0
  7 30  1  0
 29 30  2  0
 30 31  1  0
 27 32  1  0
 31 32  2  0
 33 34  2  0
 34 35  1  0
  9 36  1  0
 35 36  2  0
 36 37  1  0
 12 38  1  0
 33 38  1  0
 37 38  2  0
M  END
