x2646-x0692
     RDKit          3D

 29 32  0  0  0  0  0  0  0  0999 V2000
    4.4150    1.0970   21.7190 C   0  0  0  0  0  0  0  0  0  0  0  0
    6.2040    0.5420   17.8730 N   0  0  0  0  0  0  0  0  0  0  0  0
    6.9810   -0.1650   18.7840 C   0  0  0  0  0  0  0  0  0  0  0  0
    6.1820    0.1660   20.0450 C   0  0  0  0  0  0  0  0  0  0  0  0
    4.9550    0.9750   20.3350 C   0  0  0  0  0  0  0  0  0  0  0  0
    4.3050    1.6540   19.1580 C   0  0  0  0  0  0  0  0  0  0  0  0
    5.0840    1.3260   17.9390 C   0  0  0  0  0  0  0  0  0  0  0  0
    6.7880    0.6830   22.0210 O   0  0  0  0  0  0  0  0  0  0  0  0
   13.4030   -2.1260   22.2930 Cl  0  0  0  0  0  0  0  0  0  0  0  0
    7.3440   -0.3960   21.9400 C   0  0  0  0  0  0  0  0  0  0  0  0
    8.4580   -0.9250   22.7650 C   0  0  2  0  0  0  0  0  0  0  0  0
   11.7170    2.6050   23.4320 C   0  0  0  0  0  0  0  0  0  0  0  0
    5.3760   -4.1720   19.7670 O   0  0  0  0  0  0  0  0  0  0  0  0
    9.0620   -3.1620   23.7230 C   0  0  0  0  0  0  0  0  0  0  0  0
    6.1430   -3.2000   19.8530 C   0  0  0  0  0  0  0  0  0  0  0  0
    7.2150   -3.0150   18.7280 C   0  0  0  0  0  0  0  0  0  0  0  0
   10.1860    0.8850   23.1530 C   0  0  0  0  0  0  0  0  0  0  0  0
   11.5210    1.2690   23.1720 C   0  0  0  0  0  0  0  0  0  0  0  0
   12.5850    0.3840   22.9240 C   0  0  0  0  0  0  0  0  0  0  0  0
   12.2980   -0.9380   22.6300 C   0  0  0  0  0  0  0  0  0  0  0  0
   10.9270   -1.4030   22.5830 C   0  0  0  0  0  0  0  0  0  0  0  0
    9.8500   -0.4120   22.8640 C   0  0  0  0  0  0  0  0  0  0  0  0
    6.0890   -2.2480   20.9380 N   0  0  0  0  0  0  0  0  0  0  0  0
    7.2490   -1.5940   20.9980 C   0  0  2  0  0  0  0  0  0  0  0  0
    8.1960   -2.4930   21.5600 C   0  0  0  0  0  0  0  0  0  0  0  0
    8.0730   -2.3750   22.9210 C   0  0  2  0  0  0  0  0  0  0  0  0
    6.7250   -2.5980   23.2900 C   0  0  0  0  0  0  0  0  0  0  0  0
    5.8550   -2.8380   22.1530 C   0  0  0  0  0  0  0  0  0  0  0  0
    7.6950   -0.8650   19.9280 C   0  0  0  0  0  0  0  0  0  0  0  0
  2  3  2  0
  3  4  1  0
  1  5  1  0
  4  5  2  0
  5  6  1  0
  2  7  1  0
  6  7  2  0
  8 10  2  0
 10 11  1  0
 13 15  2  0
 15 16  1  0
 12 18  1  0
 17 18  2  0
 18 19  1  0
  9 20  1  0
 19 20  2  0
 20 21  1  0
 11 22  1  6
 17 22  1  0
 21 22  2  0
 15 23  1  0
 10 24  1  0
 23 24  1  0
 24 25  1  0
 11 26  1  0
 26 14  1  1
 25 26  1  0
 26 27  1  0
 23 28  1  0
 27 28  1  0
  3 29  1  0
 24 29  1  6
M  END
