x2649-x2754
     RDKit          3D

 39 42  0  0  0  0  0  0  0  0999 V2000
    4.6120   -3.2810   25.3780 C   0  0  0  0  0  0  0  0  0  0  0  0
    3.2090   -3.3970   25.5610 O   0  0  0  0  0  0  0  0  0  0  0  0
    5.5790   -2.8530   26.2980 N   0  0  0  0  0  0  0  0  0  0  0  0
    5.3510   -4.9070   20.0050 O   0  0  0  0  0  0  0  0  0  0  0  0
    6.2390   -4.1860   20.4540 C   0  0  0  0  0  0  0  0  0  0  0  0
    6.9710   -3.2770   19.4800 C   0  0  0  0  0  0  0  0  0  0  0  0
    4.9540   -2.0500   27.3970 C   0  0  0  0  0  0  0  0  0  0  0  0
    6.8280   -0.3650   21.1240 N   0  0  0  0  0  0  0  0  0  0  0  0
    8.1150   -1.5790   23.6120 C   0  0  0  0  0  0  0  0  0  0  0  0
    8.9830    0.9590   21.5690 O   0  0  0  0  0  0  0  0  0  0  0  0
   13.3170   -2.2440   21.1360 Cl  0  0  0  0  0  0  0  0  0  0  0  0
    8.7260   -1.1600   22.4580 C   0  0  1  0  0  0  0  0  0  0  0  0
    8.1340   -0.1760   21.6920 C   0  0  0  0  0  0  0  0  0  0  0  0
    4.6860    1.3870   21.5360 C   0  0  0  0  0  0  0  0  0  0  0  0
    7.7910   -3.0450   23.4700 C   0  0  0  0  0  0  0  0  0  0  0  0
    6.6220   -4.2310   21.8170 N   0  0  0  0  0  0  0  0  0  0  0  0
    6.7990   -3.0650   22.4990 C   0  0  1  0  0  0  0  0  0  0  0  0
    5.5410   -2.6250   23.2300 C   0  0  0  0  0  0  0  0  0  0  0  0
    4.9550   -3.6820   23.9190 C   0  0  1  0  0  0  0  0  0  0  0  0
    5.6090   -4.9200   23.8450 C   0  0  0  0  0  0  0  0  0  0  0  0
    6.2320   -5.2410   22.6170 C   0  0  0  0  0  0  0  0  0  0  0  0
    6.9420   -4.7070   27.2710 C   0  0  0  0  0  0  0  0  0  0  0  0
    8.1880   -5.2700   27.5020 C   0  0  0  0  0  0  0  0  0  0  0  0
    9.3790   -4.7050   27.0670 C   0  0  0  0  0  0  0  0  0  0  0  0
    9.3300   -3.5030   26.3560 C   0  0  0  0  0  0  0  0  0  0  0  0
    8.0610   -2.9230   26.1210 C   0  0  0  0  0  0  0  0  0  0  0  0
    6.8620   -3.5010   26.5630 C   0  0  0  0  0  0  0  0  0  0  0  0
    6.2500    0.6730   17.5580 N   0  0  0  0  0  0  0  0  0  0  0  0
    5.2240    1.5050   17.8200 C   0  0  0  0  0  0  0  0  0  0  0  0
    4.7100    1.7430   19.0780 C   0  0  0  0  0  0  0  0  0  0  0  0
    5.2560    1.1100   20.1790 C   0  0  0  0  0  0  0  0  0  0  0  0
    6.3160    0.2420   19.9860 C   0  0  0  0  0  0  0  0  0  0  0  0
    6.8470   -0.0140   18.7130 C   0  0  0  0  0  0  0  0  0  0  0  0
   10.5510    0.1810   23.6490 C   0  0  0  0  0  0  0  0  0  0  0  0
   11.9500    0.4080   23.7820 C   0  0  0  0  0  0  0  0  0  0  0  0
   12.8440   -0.3370   23.0080 C   0  0  0  0  0  0  0  0  0  0  0  0
   12.3570   -1.2980   22.1160 C   0  0  0  0  0  0  0  0  0  0  0  0
   11.0350   -1.4610   22.0410 C   0  0  0  0  0  0  0  0  0  0  0  0
   10.1210   -0.7830   22.7430 C   0  0  0  0  0  0  0  0  0  0  0  0
  1  2  2  0
  1  3  1  0
  4  5  2  0
  5  6  1  0
  3  7  1  0
 12  9  1  1
  8 13  1  0
 10 13  2  0
 12 13  1  0
  9 15  1  0
  5 16  1  0
 17 15  1  1
 16 17  1  0
 17 18  1  0
 19  1  1  1
 18 19  1  0
 19 20  1  0
 16 21  1  0
 20 21  1  0
 22 23  2  0
 23 24  1  0
 24 25  2  0
 25 26  1  0
  3 27  1  0
 22 27  1  0
 26 27  2  0
 28 29  2  0
 29 30  1  0
 14 31  1  0
 30 31  2  0
  8 32  1  0
 31 32  1  0
 28 33  1  0
 32 33  2  0
 34 35  2  0
 35 36  1  0
 11 37  1  0
 36 37  2  0
 37 38  1  0
 12 39  1  0
 34 39  1  0
 38 39  2  0
M  END
