x2649-x2779
     RDKit          3D

 29 32  0  0  0  0  0  0  0  0999 V2000
    8.2590   -2.0150   23.8890 C   0  0  0  0  0  0  0  0  0  0  0  0
    7.0750    0.6330   22.2010 O   0  0  0  0  0  0  0  0  0  0  0  0
   13.0350   -2.0820   21.1250 Cl  0  0  0  0  0  0  0  0  0  0  0  0
    8.5930   -0.6950   23.4280 C   0  0  2  0  0  0  0  0  0  0  0  0
    7.6750   -0.4190   22.2670 C   0  0  0  0  0  0  0  0  0  0  0  0
    7.3820   -2.9500   18.7310 C   0  0  0  0  0  0  0  0  0  0  0  0
    5.5330   -4.0490   19.7280 O   0  0  0  0  0  0  0  0  0  0  0  0
    6.4150   -3.1780   19.8980 C   0  0  0  0  0  0  0  0  0  0  0  0
    9.9900   -3.2540   23.3930 C   0  0  0  0  0  0  0  0  0  0  0  0
   10.7230    0.4220   24.0650 C   0  0  0  0  0  0  0  0  0  0  0  0
   12.2140    0.6020   23.8950 C   0  0  0  0  0  0  0  0  0  0  0  0
   12.9190   -0.1480   23.0070 C   0  0  0  0  0  0  0  0  0  0  0  0
   12.2600   -1.0860   22.2490 C   0  0  0  0  0  0  0  0  0  0  0  0
   10.8660   -1.3330   22.3090 C   0  0  0  0  0  0  0  0  0  0  0  0
   10.0590   -0.5900   23.2110 C   0  0  0  0  0  0  0  0  0  0  0  0
    6.5300   -2.4730   21.1270 N   0  0  0  0  0  0  0  0  0  0  0  0
    7.6370   -1.4450   21.1430 C   0  0  2  0  0  0  0  0  0  0  0  0
    8.8530   -2.0470   21.5480 C   0  0  0  0  0  0  0  0  0  0  0  0
    8.6790   -2.8210   22.7650 C   0  0  2  0  0  0  0  0  0  0  0  0
    7.7330   -3.8180   22.6000 C   0  0  0  0  0  0  0  0  0  0  0  0
    6.4850   -3.2870   22.2690 C   0  0  0  0  0  0  0  0  0  0  0  0
    5.2490    1.4510   21.4730 C   0  0  0  0  0  0  0  0  0  0  0  0
    6.2580    0.0640   17.7710 N   0  0  0  0  0  0  0  0  0  0  0  0
    5.1980    0.8750   17.9410 C   0  0  0  0  0  0  0  0  0  0  0  0
    4.8250    1.3560   19.1380 C   0  0  0  0  0  0  0  0  0  0  0  0
    5.5910    0.9940   20.2220 C   0  0  0  0  0  0  0  0  0  0  0  0
    6.7330    0.1390   19.9920 C   0  0  0  0  0  0  0  0  0  0  0  0
    7.1390   -0.3950   18.7310 C   0  0  0  0  0  0  0  0  0  0  0  0
    7.4890   -0.3340   20.2210 C   0  0  0  0  0  0  0  0  0  0  0  0
  1  4  1  0
  2  5  2  0
  4  5  1  0
  6  8  1  0
  7  8  2  0
 10 11  2  0
 11 12  1  0
  3 13  1  0
 12 13  2  0
 13 14  1  0
  4 15  1  6
 10 15  1  0
 14 15  2  0
  8 16  1  0
  5 17  1  0
 16 17  1  0
 17 18  1  0
  1 19  1  0
 19  9  1  1
 18 19  1  0
 19 20  1  0
 16 21  1  0
 20 21  1  0
 23 24  2  0
 24 25  1  0
 22 26  1  0
 25 26  2  0
 26 27  1  0
 23 28  1  0
 27 28  2  0
 17 29  1  6
 28 29  1  0
M  END
