x2643-x0305
     RDKit          3D

 21 22  0  0  0  0  0  0  0  0999 V2000
    6.7560   -1.1460   20.9790 N   0  0  0  0  0  0  0  0  0  0  0  0
    8.6530    0.4340   21.3070 O   0  0  0  0  0  0  0  0  0  0  0  0
   13.3870   -0.2670   23.3910 Cl  0  0  0  0  0  0  0  0  0  0  0  0
    8.7590   -1.9770   22.1770 C   0  0  0  0  0  0  0  0  0  0  0  0
    8.0260   -0.8520   21.4530 C   0  0  0  0  0  0  0  0  0  0  0  0
    8.4500    0.5800   27.1860 C   0  0  0  0  0  0  0  0  0  0  0  0
    9.1530   -0.1490   26.0760 C   0  0  0  0  0  0  0  0  0  0  0  0
    9.5100    0.6780   25.0450 N   0  0  0  0  0  0  0  0  0  0  0  0
   11.8800   -1.7250   21.4720 C   0  0  0  0  0  0  0  0  0  0  0  0
   13.0240   -1.9090   21.2640 N   0  0  0  0  0  0  0  0  0  0  0  0
   11.7840   -0.5400   23.5240 C   0  0  0  0  0  0  0  0  0  0  0  0
   10.8210    0.3200   24.4560 C   0  0  0  0  0  0  0  0  0  0  0  0
    9.7030   -0.3220   23.8720 C   0  0  0  0  0  0  0  0  0  0  0  0
    9.9480   -1.4050   22.8570 C   0  0  0  0  0  0  0  0  0  0  0  0
   11.2560   -1.6840   22.7370 C   0  0  1  0  0  0  0  0  0  0  0  0
    6.4320    0.7520   17.6200 N   0  0  0  0  0  0  0  0  0  0  0  0
    6.9870   -0.1470   18.6320 C   0  0  0  0  0  0  0  0  0  0  0  0
    6.2160   -0.2410   19.9260 C   0  0  0  0  0  0  0  0  0  0  0  0
    5.0600    0.4680   20.1470 C   0  0  0  0  0  0  0  0  0  0  0  0
    4.4950    1.3440   19.1890 C   0  0  0  0  0  0  0  0  0  0  0  0
    5.1370    1.5150   17.9340 C   0  0  0  0  0  0  0  0  0  0  0  0
  1  5  1  0
  2  5  2  0
  4  5  1  0
  6  7  1  0
  7  8  1  0
  9 10  3  0
  3 11  1  0
  8 12  1  0
 11 12  2  0
 12 13  1  0
  4 14  1  0
 13 14  2  0
 15  9  1  6
 11 15  1  0
 14 15  1  0
 16 17  2  0
  1 18  1  0
 17 18  1  0
 18 19  2  0
 19 20  1  0
 16 21  1  0
 20 21  2  0
M  END
