x2646-x1336
     RDKit          3D

 38 42  0  0  0  0  0  0  0  0999 V2000
    6.1480   -5.3550   29.0010 C   0  0  0  0  0  0  0  0  0  0  0  0
    8.4780   -0.9600   24.7330 O   0  0  0  0  0  0  0  0  0  0  0  0
    6.1810   -0.8680   25.9660 O   0  0  0  0  0  0  0  0  0  0  0  0
    5.7900   -4.4640   19.9630 O   0  0  0  0  0  0  0  0  0  0  0  0
    9.9770   -3.5110   24.9300 C   0  0  0  0  0  0  0  0  0  0  0  0
    6.8200   -3.7650   20.1390 C   0  0  0  0  0  0  0  0  0  0  0  0
    7.4990   -3.1520   18.9310 C   0  0  0  0  0  0  0  0  0  0  0  0
    7.2570   -1.6250   25.0740 S   0  0  0  0  0  0  0  0  0  0  0  0
    4.1100    1.3290   21.6340 C   0  0  0  0  0  0  0  0  0  0  0  0
    8.5780    1.3140   21.9070 O   0  0  0  0  0  0  0  0  0  0  0  0
   13.3580   -2.1880   21.2120 Cl  0  0  0  0  0  0  0  0  0  0  0  0
    6.7230   -0.0790   21.8530 N   0  0  0  0  0  0  0  0  0  0  0  0
    8.0540    0.2080   21.8540 C   0  0  0  0  0  0  0  0  0  0  0  0
    8.8410   -1.0560   21.7160 C   0  0  2  0  0  0  0  0  0  0  0  0
    7.0840   -4.8480   27.9460 C   0  0  0  0  0  0  0  0  0  0  0  0
    6.7440   -3.6220   27.1080 C   0  0  0  0  0  0  0  0  0  0  0  0
    7.7080   -3.1000   26.0310 C   0  0  0  0  0  0  0  0  0  0  0  0
    8.9020   -3.8590   25.9140 C   0  0  0  0  0  0  0  0  0  0  0  0
    9.1830   -5.0020   26.7150 C   0  0  0  0  0  0  0  0  0  0  0  0
    8.2960   -5.4780   27.7010 C   0  0  0  0  0  0  0  0  0  0  0  0
    7.4910   -3.5050   21.3720 N   0  0  0  0  0  0  0  0  0  0  0  0
    7.1250   -4.2090   22.6160 C   0  0  0  0  0  0  0  0  0  0  0  0
    6.1810   -3.5700   23.4520 C   0  0  0  0  0  0  0  0  0  0  0  0
    6.3920   -2.0990   23.6430 N   0  0  0  0  0  0  0  0  0  0  0  0
    6.5830   -1.4920   22.2760 C   0  0  2  0  0  0  0  0  0  0  0  0
    7.6430   -2.0550   21.4910 C   0  0  1  0  0  0  0  0  0  0  0  0
    6.4230    0.3970   18.1160 N   0  0  0  0  0  0  0  0  0  0  0  0
    6.8480    0.0480   19.3600 C   0  0  0  0  0  0  0  0  0  0  0  0
    6.1620    0.3160   20.5710 C   0  0  0  0  0  0  0  0  0  0  0  0
    4.9520    0.9830   20.4500 C   0  0  0  0  0  0  0  0  0  0  0  0
    4.4770    1.3620   19.1840 C   0  0  0  0  0  0  0  0  0  0  0  0
    5.2550    1.0460   18.0570 C   0  0  0  0  0  0  0  0  0  0  0  0
   10.3960   -0.3470   23.8080 C   0  0  0  0  0  0  0  0  0  0  0  0
   11.7100   -0.3420   24.2980 C   0  0  0  0  0  0  0  0  0  0  0  0
   12.7200   -0.9080   23.5380 C   0  0  0  0  0  0  0  0  0  0  0  0
   12.3650   -1.4630   22.3300 C   0  0  0  0  0  0  0  0  0  0  0  0
   11.1220   -1.4730   21.8890 C   0  0  0  0  0  0  0  0  0  0  0  0
   10.1070   -0.9380   22.5460 C   0  0  0  0  0  0  0  0  0  0  0  0
  4  6  2  0
  6  7  1  0
  2  8  2  0
  3  8  2  0
 10 13  2  0
 12 13  1  0
 13 14  1  0
  1 15  1  0
 15 16  2  0
  8 17  1  0
 16 17  1  0
  5 18  1  0
 17 18  2  0
 18 19  1  0
 15 20  1  0
 19 20  2  0
  6 21  1  0
 21 22  1  0
 22 23  1  0
  8 24  1  0
 23 24  1  0
 25 12  1  1
 24 25  1  0
 14 26  1  0
 26 21  1  1
 25 26  1  0
 27 28  2  0
 12 29  1  0
 28 29  1  0
  9 30  1  0
 29 30  2  0
 30 31  1  0
 27 32  1  0
 31 32  2  0
 33 34  2  0
 34 35  1  0
 11 36  1  0
 35 36  2  0
 36 37  1  0
 14 38  1  1
 33 38  1  0
 37 38  2  0
M  END
