x2643-x0731
     RDKit          3D

 37 40  0  0  0  0  0  0  0  0999 V2000
    1.0160   -1.0120   26.0170 C   0  0  0  0  0  0  0  0  0  0  0  0
    6.3350   -4.9050   26.6900 O   0  0  0  0  0  0  0  0  0  0  0  0
    4.4870   -6.6800   26.1500 O   0  0  0  0  0  0  0  0  0  0  0  0
    5.2890   -5.1930   19.9880 O   0  0  0  0  0  0  0  0  0  0  0  0
    6.2450   -4.6540   20.4920 C   0  0  0  0  0  0  0  0  0  0  0  0
    6.9360   -3.4930   19.7620 C   0  0  0  0  0  0  0  0  0  0  0  0
    5.2480   -5.3200   25.8300 S   0  0  0  0  0  0  0  0  0  0  0  0
    6.7140   -0.9880   20.9030 N   0  0  0  0  0  0  0  0  0  0  0  0
    8.5280    0.4040   21.1420 O   0  0  0  0  0  0  0  0  0  0  0  0
   13.4540    0.0510   22.9110 Cl  0  0  0  0  0  0  0  0  0  0  0  0
    8.0720   -0.7980   22.9630 C   0  0  1  0  0  0  0  0  0  0  0  0
    7.7850   -0.4480   21.6360 C   0  0  0  0  0  0  0  0  0  0  0  0
    7.6850   -3.1060   22.2530 C   0  0  0  0  0  0  0  0  0  0  0  0
    7.9010   -2.2330   23.2830 C   0  0  0  0  0  0  0  0  0  0  0  0
    2.0810   -2.0290   25.9820 C   0  0  0  0  0  0  0  0  0  0  0  0
    1.7480   -3.2720   25.4020 C   0  0  0  0  0  0  0  0  0  0  0  0
    2.8080   -4.3930   25.3380 C   0  0  0  0  0  0  0  0  0  0  0  0
    4.0690   -4.0900   25.8800 C   0  0  0  0  0  0  0  0  0  0  0  0
    4.3310   -2.7120   26.4780 C   0  0  0  0  0  0  0  0  0  0  0  0
    3.3480   -1.7400   26.5100 C   0  0  0  0  0  0  0  0  0  0  0  0
    6.6900   -5.1450   21.7210 N   0  0  0  0  0  0  0  0  0  0  0  0
    7.4070   -4.3790   22.7430 C   0  0  2  0  0  0  0  0  0  0  0  0
    6.6480   -4.3140   23.9550 C   0  0  0  0  0  0  0  0  0  0  0  0
    5.9730   -5.4240   24.2990 N   0  0  0  0  0  0  0  0  0  0  0  0
    5.3890   -6.1580   23.3350 C   0  0  0  0  0  0  0  0  0  0  0  0
    6.1830   -6.4240   22.2170 C   0  0  0  0  0  0  0  0  0  0  0  0
   11.8220    0.0610   23.1990 C   0  0  0  0  0  0  0  0  0  0  0  0
   11.1150    0.8780   24.0350 C   0  0  0  0  0  0  0  0  0  0  0  0
    9.7880    0.6550   24.0460 C   0  0  0  0  0  0  0  0  0  0  0  0
    9.4940   -0.3750   23.1660 C   0  0  0  0  0  0  0  0  0  0  0  0
   10.8520   -1.0480   22.3750 S   0  0  0  0  0  0  0  0  0  0  0  0
    6.2990    0.7850   17.6290 N   0  0  0  0  0  0  0  0  0  0  0  0
    6.8570   -0.0690   18.6870 C   0  0  0  0  0  0  0  0  0  0  0  0
    6.1630   -0.1640   19.8920 C   0  0  0  0  0  0  0  0  0  0  0  0
    4.9770    0.5400   20.0490 C   0  0  0  0  0  0  0  0  0  0  0  0
    4.5590    1.3040   18.9830 C   0  0  0  0  0  0  0  0  0  0  0  0
    5.3000    1.3570   17.8160 C   0  0  0  0  0  0  0  0  0  0  0  0
  4  5  2  0
  5  6  1  0
  2  7  2  0
  3  7  2  0
  8 12  1  0
  9 12  2  0
 11 12  1  0
 11 14  1  6
 13 14  1  0
  1 15  1  0
 15 16  2  0
 16 17  1  0
  7 18  1  0
 17 18  2  0
 18 19  1  0
 15 20  1  0
 19 20  2  0
  5 21  1  0
 22 13  1  6
 21 22  1  0
 22 23  1  0
  7 24  1  0
 23 24  1  0
 24 25  1  0
 21 26  1  0
 25 26  1  0
 10 27  1  0
 27 28  2  0
 28 29  1  0
 11 30  1  0
 29 30  2  0
 27 31  1  0
 30 31  1  0
 32 33  2  0
  8 34  1  0
 33 34  1  0
 34 35  2  0
 35 36  1  0
 32 37  1  0
 36 37  2  0
M  END
