x2649-x3117
     RDKit          3D

 34 36  0  0  0  0  0  0  0  0999 V2000
    6.9070   -1.5660   21.8720 N   0  0  0  0  0  0  0  0  0  0  0  0
    6.8210   -4.9870   20.7010 C   0  0  0  0  0  0  0  0  0  0  0  0
    4.8500   -3.0500   21.2480 O   0  0  0  0  0  0  0  0  0  0  0  0
    6.8940   -4.0620   21.9160 C   0  0  0  0  0  0  0  0  0  0  0  0
    7.5760    1.7900   23.0850 N   0  0  0  0  0  0  0  0  0  0  0  0
    8.7900    0.7970   21.3670 O   0  0  0  0  0  0  0  0  0  0  0  0
    6.1070   -2.8100   21.6410 C   0  0  0  0  0  0  0  0  0  0  0  0
    6.6190   -0.0910   21.6180 C   0  0  1  0  0  0  0  0  0  0  0  0
    7.7140    0.7900   21.9720 C   0  0  0  0  0  0  0  0  0  0  0  0
   12.1400   -1.7560   24.4750 C   0  0  0  0  0  0  0  0  0  0  0  0
   12.3610   -0.6160   25.2170 C   0  0  0  0  0  0  0  0  0  0  0  0
   13.3370   -1.8610   23.5840 C   0  0  0  0  0  0  0  0  0  0  0  0
   12.0990   -3.0260   25.3060 C   0  0  0  0  0  0  0  0  0  0  0  0
    4.2530    1.7520   21.3890 C   0  0  0  0  0  0  0  0  0  0  0  0
    6.2830    0.2420   17.8350 N   0  0  0  0  0  0  0  0  0  0  0  0
    5.2410    1.0740   17.8020 C   0  0  0  0  0  0  0  0  0  0  0  0
    4.5980    1.5460   18.9170 C   0  0  0  0  0  0  0  0  0  0  0  0
    5.0040    1.1870   20.1750 C   0  0  0  0  0  0  0  0  0  0  0  0
    6.0900    0.3280   20.2790 C   0  0  0  0  0  0  0  0  0  0  0  0
    6.6730   -0.1040   19.0810 C   0  0  0  0  0  0  0  0  0  0  0  0
    9.7110    4.9170   24.0960 O   0  0  0  0  0  0  0  0  0  0  0  0
   10.4830    3.8300   23.5960 C   0  0  0  0  0  0  0  0  0  0  0  0
    9.7230    2.6420   23.5910 C   0  0  0  0  0  0  0  0  0  0  0  0
    8.3570    2.8920   23.3540 C   0  0  0  0  0  0  0  0  0  0  0  0
    8.1940    4.0670   22.5830 C   0  0  0  0  0  0  0  0  0  0  0  0
    8.7240    5.2670   23.1170 C   0  0  0  0  0  0  0  0  0  0  0  0
    9.3840   -2.0660   21.7990 C   0  0  0  0  0  0  0  0  0  0  0  0
   10.6340   -2.0970   22.4360 C   0  0  0  0  0  0  0  0  0  0  0  0
   10.7830   -1.7270   23.7700 C   0  0  0  0  0  0  0  0  0  0  0  0
    9.6650   -1.3260   24.4720 C   0  0  0  0  0  0  0  0  0  0  0  0
    8.4000   -1.2780   23.8730 C   0  0  0  0  0  0  0  0  0  0  0  0
    8.2430   -1.6480   22.5110 C   0  0  0  0  0  0  0  0  0  0  0  0
   13.3650   -1.7040   20.9790 Cl  0  0  0  0  0  0  0  0  0  0  0  0
   13.0930   -2.6420   22.3430 C   0  0  0  0  0  0  0  0  0  0  0  0
  2  4  1  0
  1  7  1  0
  3  7  2  0
  4  7  1  0
  1  8  1  0
  5  9  1  0
  6  9  2  0
  8  9  1  6
 10 11  1  0
 10 12  1  0
 10 13  1  0
 15 16  2  0
 16 17  1  0
 14 18  1  0
 17 18  2  0
  8 19  1  0
 18 19  1  0
 15 20  1  0
 19 20  2  0
 21 22  1  0
 22 23  1  0
  5 24  1  0
 23 24  1  0
 24 25  1  0
 21 26  1  0
 25 26  1  0
 27 28  2  0
 10 29  1  0
 28 29  1  0
 29 30  2  0
 30 31  1  0
  1 32  1  0
 27 32  1  0
 31 32  2  0
 12 34  1  0
 33 34  1  0
M  END
