x2646-x2694
     RDKit          3D

 34 36  0  0  0  0  0  0  0  0999 V2000
    6.1430   -1.0590   22.3420 N   0  0  0  0  0  0  0  0  0  0  0  0
    6.7710   -3.9270   20.0650 C   0  0  0  0  0  0  0  0  0  0  0  0
    4.6900   -2.9930   21.4970 O   0  0  0  0  0  0  0  0  0  0  0  0
    7.0620   -3.2030   21.3610 C   0  0  0  0  0  0  0  0  0  0  0  0
    7.5840    2.0910   23.0610 N   0  0  0  0  0  0  0  0  0  0  0  0
    8.4140    1.6620   20.9760 O   0  0  0  0  0  0  0  0  0  0  0  0
    5.8420   -2.3990   21.7400 C   0  0  0  0  0  0  0  0  0  0  0  0
   10.8120    6.6950   23.8450 O   0  0  0  0  0  0  0  0  0  0  0  0
    7.3000   -0.2670   21.7980 C   0  0  2  0  0  0  0  0  0  0  0  0
    7.7740    1.2410   21.9530 C   0  0  0  0  0  0  0  0  0  0  0  0
   10.3540    1.8020   24.0340 C   0  0  0  0  0  0  0  0  0  0  0  0
   11.8640    6.6470   24.8110 C   0  0  0  0  0  0  0  0  0  0  0  0
   12.2150   -1.4540   23.0980 C   0  0  0  0  0  0  0  0  0  0  0  0
   12.7520   -0.0310   23.3040 C   0  0  0  0  0  0  0  0  0  0  0  0
   12.8120   -1.9670   21.7800 C   0  0  0  0  0  0  0  0  0  0  0  0
   12.5840   -2.3820   24.1000 C   0  0  0  0  0  0  0  0  0  0  0  0
    4.8500    1.3620   21.5660 C   0  0  0  0  0  0  0  0  0  0  0  0
    6.5700   -0.0080   17.8510 N   0  0  0  0  0  0  0  0  0  0  0  0
    5.3800    0.8290   17.9100 C   0  0  0  0  0  0  0  0  0  0  0  0
    4.9090    1.2140   19.1510 C   0  0  0  0  0  0  0  0  0  0  0  0
    5.5400    0.8360   20.3410 C   0  0  0  0  0  0  0  0  0  0  0  0
    6.7040    0.0410   20.4030 C   0  0  0  0  0  0  0  0  0  0  0  0
    7.2400   -0.4140   19.1090 C   0  0  0  0  0  0  0  0  0  0  0  0
    8.4690   -1.9710   23.3320 N   0  0  0  0  0  0  0  0  0  0  0  0
    9.8050   -2.2710   23.6860 O   0  0  0  0  0  0  0  0  0  0  0  0
   10.6590   -1.4660   22.9770 C   0  0  0  0  0  0  0  0  0  0  0  0
    9.8830   -0.6460   22.1490 C   0  0  0  0  0  0  0  0  0  0  0  0
    8.5580   -0.9710   22.4040 C   0  0  0  0  0  0  0  0  0  0  0  0
    9.7040    3.1540   23.7080 C   0  0  0  0  0  0  0  0  0  0  0  0
   10.5540    4.2550   23.9110 C   0  0  0  0  0  0  0  0  0  0  0  0
   10.0830    5.5430   23.6640 C   0  0  0  0  0  0  0  0  0  0  0  0
    8.7820    5.7100   23.2040 C   0  0  0  0  0  0  0  0  0  0  0  0
    7.9530    4.5900   22.9980 C   0  0  0  0  0  0  0  0  0  0  0  0
    8.3990    3.2800   23.2530 C   0  0  0  0  0  0  0  0  0  0  0  0
  2  4  1  0
  1  7  1  0
  3  7  2  0
  4  7  1  0
  9  1  1  1
  5 10  1  0
  6 10  2  0
  9 10  1  0
  8 12  1  0
 13 14  1  0
 13 15  1  0
 13 16  1  0
 18 19  2  0
 19 20  1  0
 17 21  1  0
 20 21  2  0
  9 22  1  0
 21 22  1  0
 18 23  1  0
 22 23  2  0
 24 25  1  0
 13 26  1  0
 25 26  1  0
 26 27  2  0
  9 28  1  0
 24 28  2  0
 27 28  1  0
 11 29  1  0
 29 30  2  0
  8 31  1  0
 30 31  1  0
 31 32  2  0
 32 33  1  0
  5 34  1  0
 29 34  1  0
 33 34  2  0
M  END
