x2646-x3115
     RDKit          3D

 32 33  0  0  0  0  0  0  0  0999 V2000
    6.9600   -1.8260   21.8620 N   0  0  0  0  0  0  0  0  0  0  0  0
    6.7170   -4.9850   20.4290 C   0  0  0  0  0  0  0  0  0  0  0  0
    4.8350   -3.0500   21.2520 O   0  0  0  0  0  0  0  0  0  0  0  0
    6.7450   -4.3080   21.7790 C   0  0  0  0  0  0  0  0  0  0  0  0
    7.3280    1.6280   22.9870 N   0  0  0  0  0  0  0  0  0  0  0  0
    8.7840    0.6490   21.4660 O   0  0  0  0  0  0  0  0  0  0  0  0
    6.0730   -2.9800   21.6090 C   0  0  0  0  0  0  0  0  0  0  0  0
    8.4710    5.1590   23.0490 O   0  0  0  0  0  0  0  0  0  0  0  0
    6.6140   -0.4030   21.6490 C   0  0  1  0  0  0  0  0  0  0  0  0
    7.6910    0.6610   22.0310 C   0  0  0  0  0  0  0  0  0  0  0  0
    8.1930    2.6820   23.2420 C   0  0  0  0  0  0  0  0  0  0  0  0
    7.8580    3.9890   22.4850 C   0  0  0  0  0  0  0  0  0  0  0  0
    8.2890    6.3390   22.2540 C   0  0  0  0  0  0  0  0  0  0  0  0
   12.2520   -1.8970   24.4280 C   0  0  0  0  0  0  0  0  0  0  0  0
   13.3330   -1.8810   23.4040 C   0  0  0  0  0  0  0  0  0  0  0  0
   12.6990   -3.0510   25.3330 C   0  0  0  0  0  0  0  0  0  0  0  0
   12.3410   -0.5840   25.1830 C   0  0  0  0  0  0  0  0  0  0  0  0
    4.0000    1.3400   21.3280 C   0  0  0  0  0  0  0  0  0  0  0  0
    6.3350    0.4200   17.8030 N   0  0  0  0  0  0  0  0  0  0  0  0
    5.1880    1.1990   17.7820 C   0  0  0  0  0  0  0  0  0  0  0  0
    4.4780    1.4530   18.9400 C   0  0  0  0  0  0  0  0  0  0  0  0
    4.8650    0.9690   20.1690 C   0  0  0  0  0  0  0  0  0  0  0  0
    6.0870    0.1300   20.3390 C   0  0  0  0  0  0  0  0  0  0  0  0
    6.8600   -0.1660   19.0510 C   0  0  0  0  0  0  0  0  0  0  0  0
    9.4060   -1.5470   21.8320 C   0  0  0  0  0  0  0  0  0  0  0  0
   10.6800   -1.5540   22.4130 C   0  0  0  0  0  0  0  0  0  0  0  0
   10.8490   -1.9210   23.7540 C   0  0  0  0  0  0  0  0  0  0  0  0
    9.6870   -2.2930   24.4710 C   0  0  0  0  0  0  0  0  0  0  0  0
    8.4090   -2.2770   23.8530 C   0  0  0  0  0  0  0  0  0  0  0  0
    8.2580   -1.8950   22.5240 C   0  0  0  0  0  0  0  0  0  0  0  0
   13.4220   -1.6600   20.9070 Cl  0  0  0  0  0  0  0  0  0  0  0  0
   13.0400   -2.6660   22.1830 C   0  0  0  0  0  0  0  0  0  0  0  0
  2  4  1  0
  1  7  1  0
  3  7  2  0
  4  7  1  0
  1  9  1  0
  5 10  1  0
  6 10  2  0
  9 10  1  6
  5 11  1  0
  8 12  1  0
 11 12  1  0
  8 13  1  0
 14 15  1  0
 14 16  1  0
 14 17  1  0
 19 20  2  0
 20 21  1  0
 18 22  1  0
 21 22  2  0
  9 23  1  0
 22 23  1  0
 19 24  1  0
 23 24  2  0
 25 26  2  0
 14 27  1  0
 26 27  1  0
 27 28  2  0
 28 29  1  0
  1 30  1  0
 25 30  1  0
 29 30  2  0
 15 32  1  0
 31 32  1  0
M  END
