x2649-x0820
     RDKit          3D

 34 37  0  0  0  0  0  0  0  0999 V2000
    6.7190   -1.1870   20.8940 N   0  0  0  0  0  0  0  0  0  0  0  0
    7.5630   -1.1590   23.9250 C   0  0  0  0  0  0  0  0  0  0  0  0
    8.8060   -0.1690   21.2640 O   0  0  0  0  0  0  0  0  0  0  0  0
   13.1700   -2.2250   21.1590 Cl  0  0  0  0  0  0  0  0  0  0  0  0
    8.1680   -1.7170   22.7940 C   0  0  2  0  0  0  0  0  0  0  0  0
    7.9540   -0.9920   21.6130 C   0  0  0  0  0  0  0  0  0  0  0  0
    4.7840    1.1520   21.7350 C   0  0  0  0  0  0  0  0  0  0  0  0
    7.4840   -4.1630   21.6380 N   0  0  0  0  0  0  0  0  0  0  0  0
    5.6720   -4.6810   20.0690 O   0  0  0  0  0  0  0  0  0  0  0  0
    7.8010   -3.2690   22.8510 C   0  0  2  0  0  0  0  0  0  0  0  0
    6.7290   -4.0730   20.4260 C   0  0  0  0  0  0  0  0  0  0  0  0
    7.3760   -3.2450   19.3580 C   0  0  0  0  0  0  0  0  0  0  0  0
    6.1240    0.5030   17.5870 N   0  0  0  0  0  0  0  0  0  0  0  0
    5.2550    1.5470   17.8400 C   0  0  0  0  0  0  0  0  0  0  0  0
    4.8160    1.7280   19.3090 C   0  0  0  0  0  0  0  0  0  0  0  0
    5.2470    0.9030   20.3320 C   0  0  0  0  0  0  0  0  0  0  0  0
    6.1880   -0.2210   19.9270 C   0  0  0  0  0  0  0  0  0  0  0  0
    6.5740   -0.3580   18.6100 C   0  0  0  0  0  0  0  0  0  0  0  0
   10.1910   -0.3690   23.8830 C   0  0  0  0  0  0  0  0  0  0  0  0
   11.5460    0.0000   23.9860 C   0  0  0  0  0  0  0  0  0  0  0  0
   12.4920   -0.5730   23.1460 C   0  0  0  0  0  0  0  0  0  0  0  0
   12.0580   -1.5090   22.2110 C   0  0  0  0  0  0  0  0  0  0  0  0
   10.7030   -1.8630   22.1240 C   0  0  0  0  0  0  0  0  0  0  0  0
    9.7080   -1.3220   22.9400 C   0  0  0  0  0  0  0  0  0  0  0  0
    6.7240   -3.6950   23.8640 C   0  0  0  0  0  0  0  0  0  0  0  0
    7.0980   -3.9930   25.2040 C   0  0  0  0  0  0  0  0  0  0  0  0
    6.0950   -4.3740   26.1330 C   0  0  0  0  0  0  0  0  0  0  0  0
    4.7520   -4.4680   25.7440 C   0  0  0  0  0  0  0  0  0  0  0  0
    4.4150   -4.1770   24.4180 C   0  0  0  0  0  0  0  0  0  0  0  0
    5.3750   -3.7940   23.4800 C   0  0  0  0  0  0  0  0  0  0  0  0
    6.4280   -4.6680   27.4660 C   0  0  0  0  0  0  0  0  0  0  0  0
    7.7560   -4.5950   27.9020 C   0  0  0  0  0  0  0  0  0  0  0  0
    8.7810   -4.2310   27.0220 C   0  0  0  0  0  0  0  0  0  0  0  0
    8.4490   -3.9330   25.6930 C   0  0  0  0  0  0  0  0  0  0  0  0
  5  2  1  1
  1  6  1  0
  3  6  2  0
  5  6  1  0
  5 10  1  0
 10  8  1  6
  8 11  1  0
  9 11  2  0
 11 12  1  0
 13 14  2  0
 14 15  1  0
  7 16  1  0
 15 16  2  0
  1 17  1  0
 16 17  1  0
 13 18  1  0
 17 18  2  0
 19 20  2  0
 20 21  1  0
  4 22  1  0
 21 22  2  0
 22 23  1  0
  5 24  1  0
 19 24  1  0
 23 24  2  0
 10 25  1  0
 25 26  2  0
 26 27  1  0
 27 28  2  0
 28 29  1  0
 25 30  1  0
 29 30  2  0
 27 31  1  0
 31 32  2  0
 32 33  1  0
 26 34  1  0
 33 34  2  0
M  END
