x2643-x2608
     RDKit          3D

 16 17  0  0  0  0  0  0  0  0999 V2000
    6.6310   -1.0560   20.8790 N   0  0  0  0  0  0  0  0  0  0  0  0
    8.3730    0.3770   21.2290 O   0  0  0  0  0  0  0  0  0  0  0  0
   13.4310    0.2240   23.0040 Cl  0  0  0  0  0  0  0  0  0  0  0  0
    8.3030   -1.5780   22.5500 C   0  0  0  0  0  0  0  0  0  0  0  0
    7.7740   -0.6660   21.4940 C   0  0  0  0  0  0  0  0  0  0  0  0
   11.8060   -0.0780   23.1880 C   0  0  0  0  0  0  0  0  0  0  0  0
   10.9500    0.5830   24.0540 C   0  0  0  0  0  0  0  0  0  0  0  0
    9.6840    0.0890   23.9100 C   0  0  0  0  0  0  0  0  0  0  0  0
    9.5450   -0.9140   22.9620 C   0  0  0  0  0  0  0  0  0  0  0  0
   11.0590   -1.2810   22.2460 S   0  0  0  0  0  0  0  0  0  0  0  0
    6.3750    0.7740   17.5840 N   0  0  0  0  0  0  0  0  0  0  0  0
    6.9050   -0.1330   18.6500 C   0  0  0  0  0  0  0  0  0  0  0  0
    6.1660   -0.2150   19.8140 C   0  0  0  0  0  0  0  0  0  0  0  0
    4.9850    0.4680   20.0590 C   0  0  0  0  0  0  0  0  0  0  0  0
    4.4060    1.3990   19.0130 C   0  0  0  0  0  0  0  0  0  0  0  0
    5.1220    1.5190   17.8210 C   0  0  0  0  0  0  0  0  0  0  0  0
  1  5  1  0
  2  5  2  0
  4  5  1  0
  3  6  1  0
  6  7  2  0
  7  8  1  0
  4  9  1  0
  8  9  2  0
  6 10  1  0
  9 10  1  0
 11 12  2  0
  1 13  1  0
 12 13  1  0
 13 14  2  0
 14 15  1  0
 11 16  1  0
 15 16  2  0
M  END
