x2643-x1375
     RDKit          3D

 36 39  0  0  0  0  0  0  0  0999 V2000
    5.7340   -4.6400   19.9910 O   0  0  0  0  0  0  0  0  0  0  0  0
    6.5710   -4.2900   20.8530 C   0  0  0  0  0  0  0  0  0  0  0  0
    8.0450   -3.9530   20.5770 C   0  0  0  0  0  0  0  0  0  0  0  0
    6.2130   -4.1530   22.2210 N   0  0  0  0  0  0  0  0  0  0  0  0
    2.4880   -6.6800   23.7710 O   0  0  0  0  0  0  0  0  0  0  0  0
    4.3890   -7.8410   24.9800 O   0  0  0  0  0  0  0  0  0  0  0  0
    9.5420   -5.4390   26.7570 F   0  0  0  0  0  0  0  0  0  0  0  0
    6.4240   -0.8520   20.8260 N   0  0  0  0  0  0  0  0  0  0  0  0
    7.9970    0.5490   21.2490 O   0  0  0  0  0  0  0  0  0  0  0  0
   13.4440    0.3320   23.0750 Cl  0  0  0  0  0  0  0  0  0  0  0  0
    8.6540   -1.6610   21.6310 C   0  0  2  0  0  0  0  0  0  0  0  0
    7.6650   -0.6360   21.2530 C   0  0  0  0  0  0  0  0  0  0  0  0
    6.9210   -3.0700   22.9340 C   0  0  2  0  0  0  0  0  0  0  0  0
    8.2110   -2.8520   22.4930 C   0  0  0  0  0  0  0  0  0  0  0  0
    7.4200   -3.2620   24.3640 C   0  0  0  0  0  0  0  0  0  0  0  0
    8.1190   -3.8610   25.4700 C   0  0  0  0  0  0  0  0  0  0  0  0
    8.9910   -5.1240   25.5950 C   0  0  0  0  0  0  0  0  0  0  0  0
    9.2100   -5.9320   24.5510 C   0  0  0  0  0  0  0  0  0  0  0  0
    8.5930   -5.4990   23.4660 C   0  0  0  0  0  0  0  0  0  0  0  0
    7.7690   -4.2440   23.3990 C   0  0  0  0  0  0  0  0  0  0  0  0
    4.8360   -4.2070   24.0400 C   0  0  0  0  0  0  0  0  0  0  0  0
    5.0350   -4.7100   22.7330 C   0  0  2  0  0  0  0  0  0  0  0  0
    4.9750   -6.1350   22.7480 C   0  0  0  0  0  0  0  0  0  0  0  0
    3.8800   -6.6060   24.1340 S   0  0  0  0  0  0  0  0  0  0  0  0
    4.1720   -5.1160   25.0340 C   0  0  0  0  0  0  0  0  0  0  0  0
   11.8710   -0.0090   22.7750 C   0  0  0  0  0  0  0  0  0  0  0  0
   10.8660    0.8730   23.0040 C   0  0  0  0  0  0  0  0  0  0  0  0
    9.6450    0.4030   22.6750 C   0  0  0  0  0  0  0  0  0  0  0  0
    9.7530   -0.8750   22.1530 C   0  0  0  0  0  0  0  0  0  0  0  0
   11.3680   -1.4900   22.1280 S   0  0  0  0  0  0  0  0  0  0  0  0
    6.3230    0.8640   17.5340 N   0  0  0  0  0  0  0  0  0  0  0  0
    6.7430    0.0450   18.6010 C   0  0  0  0  0  0  0  0  0  0  0  0
    6.0000   -0.0620   19.7700 C   0  0  0  0  0  0  0  0  0  0  0  0
    4.8020    0.6200   19.9600 C   0  0  0  0  0  0  0  0  0  0  0  0
    4.3830    1.4310   18.9110 C   0  0  0  0  0  0  0  0  0  0  0  0
    5.1210    1.5440   17.7520 C   0  0  0  0  0  0  0  0  0  0  0  0
  1  2  2  0
  2  3  1  0
  2  4  1  0
  8 12  1  0
  9 12  2  0
 11 12  1  0
  4 13  1  0
 11 14  1  1
 13 14  1  6
 13 15  1  0
 15 16  2  0
  7 17  1  0
 16 17  1  0
 17 18  2  0
 18 19  1  0
 15 20  1  0
 19 20  2  0
 22  4  1  1
 21 22  1  0
 22 23  1  0
 24  5  1  0
  6 24  1  0
 23 24  1  0
 21 25  2  0
 24 25  1  0
 10 26  1  0
 26 27  2  0
 27 28  1  0
 11 29  1  0
 28 29  2  0
 26 30  1  0
 29 30  1  0
 31 32  2  0
  8 33  1  0
 32 33  1  0
 33 34  2  0
 34 35  1  0
 31 36  1  0
 35 36  2  0
M  END
