x2643-x2912
     RDKit          3D

 21 22  0  0  0  0  0  0  0  0999 V2000
    6.6910   -0.6560   21.1670 N   0  0  0  0  0  0  0  0  0  0  0  0
    7.7780   -1.0260   24.2360 C   0  0  0  0  0  0  0  0  0  0  0  0
    8.5350    0.7060   21.4920 O   0  0  0  0  0  0  0  0  0  0  0  0
    8.4430   -1.2810   22.9160 C   0  0  1  0  0  0  0  0  0  0  0  0
    7.9130   -0.3130   21.8120 C   0  0  0  0  0  0  0  0  0  0  0  0
   13.6220   -3.1730   20.6010 N   0  0  0  0  0  0  0  0  0  0  0  0
    4.7520    1.3260   21.7240 C   0  0  0  0  0  0  0  0  0  0  0  0
   12.9050   -2.2980   21.3070 C   0  0  0  0  0  0  0  0  0  0  0  0
   13.3790    0.8850   23.0540 Cl  0  0  0  0  0  0  0  0  0  0  0  0
    6.1760    0.4520   17.6450 N   0  0  0  0  0  0  0  0  0  0  0  0
    5.2090    1.4240   17.9330 C   0  0  0  0  0  0  0  0  0  0  0  0
    4.7780    1.6740   19.2320 C   0  0  0  0  0  0  0  0  0  0  0  0
    5.2530    1.0000   20.3410 C   0  0  0  0  0  0  0  0  0  0  0  0
    6.2020    0.0300   20.0980 C   0  0  0  0  0  0  0  0  0  0  0  0
    6.6670   -0.2350   18.6830 C   0  0  0  0  0  0  0  0  0  0  0  0
   10.3800    0.1880   23.4140 C   0  0  0  0  0  0  0  0  0  0  0  0
   11.7790    0.7730   23.4110 C   0  0  0  0  0  0  0  0  0  0  0  0
   12.4060   -0.2240   22.6670 C   0  0  0  0  0  0  0  0  0  0  0  0
   12.0060   -1.3700   22.0840 C   0  0  0  0  0  0  0  0  0  0  0  0
   10.6810   -1.8010   22.1370 C   0  0  0  0  0  0  0  0  0  0  0  0
    9.8830   -0.9580   22.8290 C   0  0  0  0  0  0  0  0  0  0  0  0
  4  2  1  1
  1  5  1  0
  3  5  2  0
  4  5  1  0
  6  8  3  0
 10 11  2  0
 11 12  1  0
  7 13  1  0
 12 13  2  0
  1 14  1  0
 13 14  1  0
 10 15  1  0
 14 15  2  0
  9 17  1  0
 16 17  2  0
 17 18  1  0
  8 19  1  0
 18 19  2  0
 19 20  1  0
  4 21  1  0
 16 21  1  0
 20 21  2  0
M  END
