x2649-x0104
     RDKit          3D

 29 32  0  0  0  0  0  0  0  0999 V2000
    6.8980   -0.5360   21.0690 N   0  0  0  0  0  0  0  0  0  0  0  0
    8.1330   -1.6010   23.4510 C   0  0  0  0  0  0  0  0  0  0  0  0
    8.8000    0.8640   21.3320 O   0  0  0  0  0  0  0  0  0  0  0  0
   13.4720   -2.5700   22.8770 Cl  0  0  0  0  0  0  0  0  0  0  0  0
    8.7940   -1.1720   22.2900 C   0  0  1  0  0  0  0  0  0  0  0  0
    8.2130   -0.1930   21.5470 C   0  0  0  0  0  0  0  0  0  0  0  0
    4.7450    1.3020   21.6160 C   0  0  0  0  0  0  0  0  0  0  0  0
    6.1890    0.6820   17.5070 N   0  0  0  0  0  0  0  0  0  0  0  0
    5.0930    1.6250   17.8050 C   0  0  0  0  0  0  0  0  0  0  0  0
    4.7140    1.7330   19.1520 C   0  0  0  0  0  0  0  0  0  0  0  0
    5.2670    1.0510   20.2370 C   0  0  0  0  0  0  0  0  0  0  0  0
    6.2940    0.1710   19.9750 C   0  0  0  0  0  0  0  0  0  0  0  0
    6.8070   -0.0600   18.5770 C   0  0  0  0  0  0  0  0  0  0  0  0
   10.4960    0.5430   22.9550 C   0  0  1  0  0  0  0  0  0  0  0  0
   11.6300    0.6620   23.7670 C   0  0  2  0  0  0  0  0  0  0  0  0
   12.4780   -0.4300   23.9060 C   0  0  0  0  0  0  0  0  0  0  0  0
   12.4690   -1.2360   22.7650 C   0  0  2  0  0  0  0  0  0  0  0  0
   11.2200   -1.6690   22.4300 C   0  0  0  0  0  0  0  0  0  0  0  0
   10.2180   -0.7660   22.5500 C   0  0  0  0  0  0  0  0  0  0  0  0
    9.4810    1.1050   23.8160 C   0  0  0  0  0  0  0  0  0  0  0  0
   10.5850    1.1210   24.7880 N   0  0  0  0  0  0  0  0  0  0  0  0
   11.8940    1.4660   22.7870 C   0  0  2  0  0  0  0  0  0  0  0  0
    9.2540    6.4360   22.7510 C   0  0  0  0  0  0  0  0  0  0  0  0
   10.4560    6.0800   23.4010 C   0  0  0  0  0  0  0  0  0  0  0  0
   10.5960    6.1330   24.6180 O   0  0  0  0  0  0  0  0  0  0  0  0
   11.3970    5.6920   22.5180 N   0  0  0  0  0  0  0  0  0  0  0  0
   12.5250    5.0470   22.9890 C   0  0  0  0  0  0  0  0  0  0  0  0
   12.7620    3.7610   22.4890 C   0  0  0  0  0  0  0  0  0  0  0  0
   11.7640    2.8630   22.8910 C   0  0  0  0  0  0  0  0  0  0  0  0
  5  2  1  1
  1  6  1  0
  3  6  2  0
  5  6  1  0
  8  9  2  0
  9 10  1  0
  7 11  1  0
 10 11  2  0
  1 12  1  0
 11 12  1  0
  8 13  1  0
 12 13  2  0
 14 15  1  0
 15 16  1  1
 17  4  1  1
 16 17  1  0
 17 18  1  0
  5 19  1  0
 14 19  1  0
 18 19  2  0
 14 20  1  1
 15 21  1  0
 20 21  2  0
 14 22  1  0
 15 22  1  0
 23 24  1  0
 24 25  2  0
 24 26  1  0
 26 27  1  0
 27 28  1  0
 22 29  1  1
 28 29  1  0
M  END
