x2646-x0770
     RDKit          3D

 28 31  0  0  0  0  0  0  0  0999 V2000
    4.4130    1.0160   21.7650 C   0  0  0  0  0  0  0  0  0  0  0  0
    6.2000    0.5520   17.9050 N   0  0  0  0  0  0  0  0  0  0  0  0
    7.0010   -0.1330   18.8100 C   0  0  0  0  0  0  0  0  0  0  0  0
    6.2000    0.1590   20.0790 C   0  0  0  0  0  0  0  0  0  0  0  0
    4.9460    0.9240   20.3770 C   0  0  0  0  0  0  0  0  0  0  0  0
    4.2700    1.5870   19.2040 C   0  0  0  0  0  0  0  0  0  0  0  0
    5.0560    1.2960   17.9780 C   0  0  0  0  0  0  0  0  0  0  0  0
    7.1010    0.6410   22.3190 O   0  0  0  0  0  0  0  0  0  0  0  0
   13.2370   -1.9270   21.2580 Cl  0  0  0  0  0  0  0  0  0  0  0  0
    7.5590   -0.4900   22.3110 C   0  0  0  0  0  0  0  0  0  0  0  0
    8.5230   -1.0390   23.3910 C   0  0  2  0  0  0  0  0  0  0  0  0
    7.2900   -3.0540   18.8360 C   0  0  0  0  0  0  0  0  0  0  0  0
    5.4600   -4.2430   19.8190 O   0  0  0  0  0  0  0  0  0  0  0  0
    6.2830   -3.3230   19.9640 C   0  0  0  0  0  0  0  0  0  0  0  0
    9.6410   -3.2490   23.5070 C   0  0  0  0  0  0  0  0  0  0  0  0
   10.5520    0.4620   24.0360 C   0  0  0  0  0  0  0  0  0  0  0  0
   11.9160    0.7460   23.8650 C   0  0  0  0  0  0  0  0  0  0  0  0
   12.7850    0.0480   23.0330 C   0  0  0  0  0  0  0  0  0  0  0  0
   12.2720   -1.0120   22.3070 C   0  0  0  0  0  0  0  0  0  0  0  0
   10.9390   -1.3270   22.4400 C   0  0  0  0  0  0  0  0  0  0  0  0
    9.9710   -0.5900   23.3360 C   0  0  0  0  0  0  0  0  0  0  0  0
    6.3380   -2.5060   21.1440 N   0  0  0  0  0  0  0  0  0  0  0  0
    7.3680   -1.5400   21.1930 C   0  0  2  0  0  0  0  0  0  0  0  0
    8.5340   -2.1460   21.6570 C   0  0  0  0  0  0  0  0  0  0  0  0
    8.4120   -2.5110   22.9900 C   0  0  2  0  0  0  0  0  0  0  0  0
    7.2390   -3.2050   23.3470 C   0  0  0  0  0  0  0  0  0  0  0  0
    6.1600   -3.1410   22.4110 C   0  0  0  0  0  0  0  0  0  0  0  0
    7.7310   -0.8070   19.9410 C   0  0  0  0  0  0  0  0  0  0  0  0
  2  3  2  0
  3  4  1  0
  1  5  1  0
  4  5  2  0
  5  6  1  0
  2  7  1  0
  6  7  2  0
  8 10  2  0
 10 11  1  0
 12 14  1  0
 13 14  2  0
 16 17  2  0
 17 18  1  0
  9 19  1  0
 18 19  2  0
 19 20  1  0
 11 21  1  6
 16 21  1  0
 20 21  2  0
 14 22  1  0
 10 23  1  0
 22 23  1  0
 23 24  1  0
 11 25  1  0
 25 15  1  1
 24 25  1  0
 25 26  1  0
 22 27  1  0
 26 27  1  0
  3 28  1  0
 23 28  1  6
M  END
