x2646-x3110
     RDKit          3D

 35 36  0  0  0  0  0  0  0  0999 V2000
    8.0180    1.0610   23.2050 N   0  0  0  0  0  0  0  0  0  0  0  0
   13.3430    5.0710   22.8390 C   0  0  0  0  0  0  0  0  0  0  0  0
   12.0130    3.3030   22.4650 O   0  0  0  0  0  0  0  0  0  0  0  0
   12.2570    4.4280   22.0070 C   0  0  0  0  0  0  0  0  0  0  0  0
    7.0590   -1.7790   21.6560 N   0  0  0  0  0  0  0  0  0  0  0  0
   10.7890    4.2580   24.1330 O   0  0  0  0  0  0  0  0  0  0  0  0
   11.0590    3.3000   23.4310 C   0  0  0  0  0  0  0  0  0  0  0  0
    8.5050    1.3070   21.0130 O   0  0  0  0  0  0  0  0  0  0  0  0
   10.3770    1.9570   23.5250 C   0  0  0  0  0  0  0  0  0  0  0  0
    4.8900   -3.0490   21.0940 O   0  0  0  0  0  0  0  0  0  0  0  0
    8.8390    2.1480   23.5860 C   0  0  0  0  0  0  0  0  0  0  0  0
    7.8120    0.7350   21.8760 C   0  0  0  0  0  0  0  0  0  0  0  0
    6.6850   -0.3020   21.4870 C   0  0  1  0  0  0  0  0  0  0  0  0
    6.1670   -2.9560   21.4180 C   0  0  0  0  0  0  0  0  0  0  0  0
    6.8290   -4.3080   21.5890 C   0  0  0  0  0  0  0  0  0  0  0  0
    8.2420   -4.4040   20.9540 C   0  0  0  0  0  0  0  0  0  0  0  0
   12.1260   -1.6160   24.5020 C   0  0  0  0  0  0  0  0  0  0  0  0
   12.2210   -0.5090   25.2850 C   0  0  0  0  0  0  0  0  0  0  0  0
   13.2910   -1.4480   23.5910 C   0  0  0  0  0  0  0  0  0  0  0  0
   12.4510   -2.9120   25.2700 C   0  0  0  0  0  0  0  0  0  0  0  0
    4.3990    1.4510   21.5230 C   0  0  0  0  0  0  0  0  0  0  0  0
    6.3760    0.3890   17.7700 N   0  0  0  0  0  0  0  0  0  0  0  0
    5.2340    1.3010   17.7450 C   0  0  0  0  0  0  0  0  0  0  0  0
    4.4800    1.7220   18.9590 C   0  0  0  0  0  0  0  0  0  0  0  0
    5.0570    1.0960   20.2270 C   0  0  0  0  0  0  0  0  0  0  0  0
    6.1550    0.2390   20.1830 C   0  0  0  0  0  0  0  0  0  0  0  0
    6.7650   -0.0840   18.9690 C   0  0  0  0  0  0  0  0  0  0  0  0
    9.4650   -1.3620   21.7590 C   0  0  0  0  0  0  0  0  0  0  0  0
   10.7070   -1.3080   22.4080 C   0  0  0  0  0  0  0  0  0  0  0  0
   10.7970   -1.6960   23.7460 C   0  0  0  0  0  0  0  0  0  0  0  0
    9.6630   -2.1400   24.3880 C   0  0  0  0  0  0  0  0  0  0  0  0
    8.4280   -2.1930   23.7310 C   0  0  0  0  0  0  0  0  0  0  0  0
    8.3100   -1.7930   22.3920 C   0  0  0  0  0  0  0  0  0  0  0  0
   13.3900   -1.6860   20.9900 Cl  0  0  0  0  0  0  0  0  0  0  0  0
   13.1850   -2.4510   22.5400 C   0  0  0  0  0  0  0  0  0  0  0  0
  2  4  1  0
  3  4  1  0
  3  7  1  0
  6  7  2  0
  7  9  1  0
  1 11  1  0
  9 11  1  0
  1 12  1  0
  8 12  2  0
  5 13  1  0
 13 12  1  6
  5 14  1  0
 10 14  2  0
 14 15  1  0
 15 16  1  0
 17 18  1  0
 17 19  1  0
 17 20  1  0
 22 23  2  0
 23 24  1  0
 21 25  1  0
 24 25  2  0
 13 26  1  0
 25 26  1  0
 22 27  1  0
 26 27  2  0
 28 29  2  0
 17 30  1  0
 29 30  1  0
 30 31  2  0
 31 32  1  0
  5 33  1  0
 28 33  1  0
 32 33  2  0
 19 35  1  0
 34 35  1  0
M  END
