x2643-x0354
     RDKit          3D

 31 33  0  0  0  0  0  0  0  0999 V2000
   13.5780   -2.0070   23.3290 C   0  0  0  0  0  0  0  0  0  0  0  0
    7.4370   -2.3150   25.3280 O   0  0  0  0  0  0  0  0  0  0  0  0
    7.4000   -0.5880   27.3200 O   0  0  0  0  0  0  0  0  0  0  0  0
    8.4600   -1.3520   25.6180 C   0  0  0  0  0  0  0  0  0  0  0  0
    8.2080   -0.3360   26.4140 C   0  0  0  0  0  0  0  0  0  0  0  0
    5.5890    3.5640   30.9620 C   0  0  0  0  0  0  0  0  0  0  0  0
   12.5010    0.1330   22.8280 Cl  0  0  0  0  0  0  0  0  0  0  0  0
   12.2780   -1.4040   23.5520 C   0  0  1  0  0  0  0  0  0  0  0  0
   11.2960   -2.3630   23.3190 C   0  0  1  0  0  0  0  0  0  0  0  0
   10.2620   -2.6140   24.4550 C   0  0  0  0  0  0  0  0  0  0  0  0
    9.7340   -1.4670   25.1090 N   0  0  0  0  0  0  0  0  0  0  0  0
   10.7840   -0.5180   25.3450 C   0  0  0  0  0  0  0  0  0  0  0  0
   12.2020   -0.9700   24.9820 C   0  0  0  0  0  0  0  0  0  0  0  0
    7.7420    1.7230   28.2240 C   0  0  0  0  0  0  0  0  0  0  0  0
    7.3370    2.7370   29.0830 C   0  0  0  0  0  0  0  0  0  0  0  0
    6.1250    2.5200   29.9820 C   0  0  0  0  0  0  0  0  0  0  0  0
    5.4510    1.3220   29.9320 C   0  0  0  0  0  0  0  0  0  0  0  0
    5.8790    0.2940   29.0480 C   0  0  0  0  0  0  0  0  0  0  0  0
    7.0140    0.4730   28.1910 C   0  0  0  0  0  0  0  0  0  0  0  0
    6.5200   -0.9010   20.8950 N   0  0  0  0  0  0  0  0  0  0  0  0
    8.1470    0.7730   21.0390 O   0  0  0  0  0  0  0  0  0  0  0  0
    8.4750   -1.1980   22.3680 C   0  0  0  0  0  0  0  0  0  0  0  0
    7.7730   -0.4530   21.4870 C   0  0  0  0  0  0  0  0  0  0  0  0
    6.3050    0.8360   17.5540 N   0  0  0  0  0  0  0  0  0  0  0  0
    6.8370   -0.0400   18.6270 C   0  0  0  0  0  0  0  0  0  0  0  0
    6.1010   -0.1150   19.8260 C   0  0  0  0  0  0  0  0  0  0  0  0
    4.9260    0.6240   19.9330 C   0  0  0  0  0  0  0  0  0  0  0  0
    4.4580    1.4270   18.9200 C   0  0  0  0  0  0  0  0  0  0  0  0
    5.1590    1.5230   17.7430 C   0  0  0  0  0  0  0  0  0  0  0  0
   10.5730   -2.0750   22.0540 C   0  0  0  0  0  0  0  0  0  0  0  0
    9.9150   -0.8760   22.1170 C   0  0  0  0  0  0  0  0  0  0  0  0
  2  4  2  0
  3  5  1  0
  4  5  1  0
  8  1  1  1
  8  7  1  0
  8  9  1  0
  9 10  1  0
  4 11  1  0
 10 11  1  0
 11 12  1  0
  8 13  1  0
 12 13  1  0
 14 15  2  0
  6 16  1  0
 15 16  1  0
 16 17  2  0
 17 18  1  0
  3 19  1  0
 14 19  1  0
 18 19  2  0
 20 23  1  0
 21 23  2  0
 22 23  1  0
 24 25  2  0
 20 26  1  0
 25 26  1  0
 26 27  2  0
 27 28  1  0
 24 29  1  0
 28 29  2  0
  9 30  1  6
 22 31  1  0
 30 31  1  0
M  END
