x2643-x0769
     RDKit          3D

 37 40  0  0  0  0  0  0  0  0999 V2000
    5.9560   -5.0980   26.9160 O   0  0  0  0  0  0  0  0  0  0  0  0
    3.9890   -6.4610   26.2040 O   0  0  0  0  0  0  0  0  0  0  0  0
    5.6920   -5.2330   20.0030 O   0  0  0  0  0  0  0  0  0  0  0  0
    6.3950   -4.4100   20.5540 C   0  0  0  0  0  0  0  0  0  0  0  0
    7.1740   -3.3940   19.7510 C   0  0  0  0  0  0  0  0  0  0  0  0
    5.7020   -2.4510   26.2570 F   0  0  0  0  0  0  0  0  0  0  0  0
    4.8670   -5.3370   26.0100 S   0  0  0  0  0  0  0  0  0  0  0  0
    6.4940   -0.9170   20.8490 N   0  0  0  0  0  0  0  0  0  0  0  0
    8.5360    0.3310   21.2230 O   0  0  0  0  0  0  0  0  0  0  0  0
   13.3250    0.2580   23.1950 Cl  0  0  0  0  0  0  0  0  0  0  0  0
    8.4530   -1.8540   22.1340 C   0  0  2  0  0  0  0  0  0  0  0  0
    7.8790   -0.7020   21.3680 C   0  0  0  0  0  0  0  0  0  0  0  0
    6.2070   -2.9770   22.6350 C   0  0  0  0  0  0  0  0  0  0  0  0
    7.4340   -2.4830   23.1620 C   0  0  0  0  0  0  0  0  0  0  0  0
    4.3870   -2.6380   26.0940 C   0  0  0  0  0  0  0  0  0  0  0  0
    3.8270   -3.9120   25.9580 C   0  0  0  0  0  0  0  0  0  0  0  0
    2.3100   -4.0780   25.7730 C   0  0  0  0  0  0  0  0  0  0  0  0
    1.4630   -2.9570   25.7400 C   0  0  0  0  0  0  0  0  0  0  0  0
    2.0310   -1.6810   25.8800 C   0  0  0  0  0  0  0  0  0  0  0  0
    3.5560   -1.5190   26.0620 C   0  0  0  0  0  0  0  0  0  0  0  0
    6.3300   -4.4350   22.0800 C   0  0  0  0  0  0  0  0  0  0  0  0
    5.2370   -5.2960   22.2450 C   0  0  0  0  0  0  0  0  0  0  0  0
    4.5740   -4.9820   23.4120 C   0  0  0  0  0  0  0  0  0  0  0  0
    5.4800   -5.4900   24.4500 N   0  0  0  0  0  0  0  0  0  0  0  0
    6.9000   -5.1880   24.2040 C   0  0  0  0  0  0  0  0  0  0  0  0
    7.3520   -5.1100   22.8890 C   0  0  0  0  0  0  0  0  0  0  0  0
   11.7190   -0.1690   23.2410 C   0  0  0  0  0  0  0  0  0  0  0  0
   10.7590    0.3210   24.1310 C   0  0  0  0  0  0  0  0  0  0  0  0
    9.5340   -0.2290   23.8530 C   0  0  0  0  0  0  0  0  0  0  0  0
    9.5630   -1.1140   22.7690 C   0  0  0  0  0  0  0  0  0  0  0  0
   11.1380   -1.2770   22.1290 S   0  0  0  0  0  0  0  0  0  0  0  0
    6.4150    0.7570   17.6340 N   0  0  0  0  0  0  0  0  0  0  0  0
    6.8000   -0.0270   18.6610 C   0  0  0  0  0  0  0  0  0  0  0  0
    5.9980   -0.0450   19.8070 C   0  0  0  0  0  0  0  0  0  0  0  0
    4.8220    0.7110   19.9280 C   0  0  0  0  0  0  0  0  0  0  0  0
    4.4200    1.5200   18.8830 C   0  0  0  0  0  0  0  0  0  0  0  0
    5.2200    1.5270   17.7650 C   0  0  0  0  0  0  0  0  0  0  0  0
  3  4  2  0
  4  5  1  0
  1  7  2  0
  2  7  2  0
  8 12  1  0
  9 12  2  0
 11 12  1  0
 11 14  1  1
 13 14  1  0
  6 15  1  0
  7 16  1  0
 15 16  2  0
 16 17  1  0
 17 18  2  0
 18 19  1  0
 15 20  1  0
 19 20  2  0
 21  4  1  0
 13 21  1  0
 21 22  1  0
 22 23  1  0
  7 24  1  0
 23 24  1  0
 24 25  1  0
 21 26  1  0
 25 26  1  0
 10 27  1  0
 27 28  2  0
 28 29  1  0
 11 30  1  0
 29 30  2  0
 27 31  1  0
 30 31  1  0
 32 33  2  0
  8 34  1  0
 33 34  1  0
 34 35  2  0
 35 36  1  0
 32 37  1  0
 36 37  2  0
M  END
