x2649-x3305
     RDKit          3D

 29 31  0  0  0  0  0  0  0  0999 V2000
    3.3750   -7.1850   23.6710 C   0  0  0  0  0  0  0  0  0  0  0  0
    5.8190   -3.1040   21.3030 O   0  0  0  0  0  0  0  0  0  0  0  0
    7.3340   -2.8460   23.0800 N   0  0  0  0  0  0  0  0  0  0  0  0
    7.0750   -1.2110   21.4430 N   0  0  0  0  0  0  0  0  0  0  0  0
    6.6300   -3.3080   24.1310 C   0  0  0  0  0  0  0  0  0  0  0  0
    6.6720   -2.4130   21.8650 C   0  0  0  0  0  0  0  0  0  0  0  0
    8.2800   -0.8430   21.8620 C   0  0  0  0  0  0  0  0  0  0  0  0
    9.0540   -1.5830   22.7770 C   0  0  0  0  0  0  0  0  0  0  0  0
    7.0060   -1.1100   20.0990 C   0  0  0  0  0  0  0  0  0  0  0  0
    8.8390    0.3970   21.3830 O   0  0  0  0  0  0  0  0  0  0  0  0
   13.5000   -1.8740   21.0210 Cl  0  0  0  0  0  0  0  0  0  0  0  0
    5.0490    0.7150   21.5810 C   0  0  0  0  0  0  0  0  0  0  0  0
    4.4410   -6.3150   23.6050 N   0  0  0  0  0  0  0  0  0  0  0  0
    4.5720   -5.1170   24.1930 C   0  0  0  0  0  0  0  0  0  0  0  0
    5.9230   -4.5650   23.8060 C   0  0  0  0  0  0  0  0  0  0  0  0
    6.4620   -5.5500   22.9930 N   0  0  0  0  0  0  0  0  0  0  0  0
    5.5690   -6.5840   22.8820 N   0  0  0  0  0  0  0  0  0  0  0  0
    5.8930    1.0310   17.3720 N   0  0  0  0  0  0  0  0  0  0  0  0
    6.4840    0.1130   18.1440 C   0  0  0  0  0  0  0  0  0  0  0  0
    6.2550   -0.0740   19.5920 C   0  0  0  0  0  0  0  0  0  0  0  0
    5.3570    0.7670   20.2230 C   0  0  0  0  0  0  0  0  0  0  0  0
    4.7530    1.7050   19.4020 C   0  0  0  0  0  0  0  0  0  0  0  0
    5.0220    1.8150   18.0390 C   0  0  0  0  0  0  0  0  0  0  0  0
   10.6350    0.0670   23.7360 C   0  0  0  0  0  0  0  0  0  0  0  0
   11.9420    0.5750   23.7530 C   0  0  0  0  0  0  0  0  0  0  0  0
   12.9050    0.0090   22.9260 C   0  0  0  0  0  0  0  0  0  0  0  0
   12.5460   -1.0570   22.0970 C   0  0  0  0  0  0  0  0  0  0  0  0
   11.2830   -1.5400   22.0910 C   0  0  0  0  0  0  0  0  0  0  0  0
   10.3330   -1.0020   22.8830 C   0  0  0  0  0  0  0  0  0  0  0  0
  3  5  1  0
  2  6  2  0
  3  6  1  0
  4  6  1  0
  4  7  1  0
  7  8  1  0
  4  9  1  0
  7 10  2  0
  1 13  1  0
 13 14  1  0
  5 15  1  0
 14 15  2  0
 15 16  1  0
 13 17  1  0
 16 17  2  0
 18 19  2  0
  9 20  1  0
 19 20  1  0
 12 21  1  0
 20 21  2  0
 21 22  1  0
 18 23  1  0
 22 23  2  0
 24 25  2  0
 25 26  1  0
 11 27  1  0
 26 27  2  0
 27 28  1  0
  8 29  1  0
 24 29  1  0
 28 29  2  0
M  END
