x2643-x2908
     RDKit          3D

 19 20  0  0  0  0  0  0  0  0999 V2000
    4.6190    1.3810   21.5730 C   0  0  0  0  0  0  0  0  0  0  0  0
    8.4840    1.0710   21.3400 O   0  0  0  0  0  0  0  0  0  0  0  0
   13.1150   -2.6350   21.3470 Cl  0  0  0  0  0  0  0  0  0  0  0  0
    6.7960   -0.6810   21.0450 N   0  0  0  0  0  0  0  0  0  0  0  0
    8.4910   -1.1020   22.4920 N   0  0  0  0  0  0  0  0  0  0  0  0
    7.9200   -0.2230   21.6360 C   0  0  0  0  0  0  0  0  0  0  0  0
   13.4270    0.7520   23.0380 Cl  0  0  0  0  0  0  0  0  0  0  0  0
    6.1470    0.5500   17.4910 N   0  0  0  0  0  0  0  0  0  0  0  0
    6.6400   -0.1270   18.5340 C   0  0  0  0  0  0  0  0  0  0  0  0
    6.1980    0.0750   19.9260 C   0  0  0  0  0  0  0  0  0  0  0  0
    5.1290    1.0940   20.1990 C   0  0  0  0  0  0  0  0  0  0  0  0
    4.6120    1.7940   19.1180 C   0  0  0  0  0  0  0  0  0  0  0  0
    5.1920    1.4640   17.7200 C   0  0  0  0  0  0  0  0  0  0  0  0
   10.3330    0.2570   23.0890 C   0  0  0  0  0  0  0  0  0  0  0  0
   11.7970    0.7120   23.1830 C   0  0  0  0  0  0  0  0  0  0  0  0
   12.5110   -0.3620   22.5770 C   0  0  0  0  0  0  0  0  0  0  0  0
   12.0440   -1.5240   22.0270 C   0  0  0  0  0  0  0  0  0  0  0  0
   10.6100   -1.8010   22.0070 C   0  0  0  0  0  0  0  0  0  0  0  0
    9.8250   -0.8940   22.5360 C   0  0  0  0  0  0  0  0  0  0  0  0
  2  6  2  0
  4  6  1  0
  5  6  1  0
  8  9  2  0
  4 10  1  0
  9 10  1  0
  1 11  1  0
 10 11  2  0
 11 12  1  0
  8 13  1  0
 12 13  2  0
  7 15  1  0
 14 15  2  0
 15 16  1  0
  3 17  1  0
 16 17  2  0
 17 18  1  0
  5 19  1  0
 14 19  1  0
 18 19  2  0
M  END
