x2649-x2572
     RDKit          3D

 20 21  0  0  0  0  0  0  0  0999 V2000
    6.8780   -0.6490   21.0690 N   0  0  0  0  0  0  0  0  0  0  0  0
    7.9830   -1.3340   23.9100 C   0  0  0  0  0  0  0  0  0  0  0  0
    8.6730    0.8490   21.4600 O   0  0  0  0  0  0  0  0  0  0  0  0
   13.3840   -2.2790   22.0850 N   0  0  0  0  0  0  0  0  0  0  0  0
    8.7280   -1.2690   22.5890 C   0  0  1  0  0  0  0  0  0  0  0  0
    8.1220   -0.2320   21.6680 C   0  0  0  0  0  0  0  0  0  0  0  0
    5.1240    0.7340   21.4220 C   0  0  0  0  0  0  0  0  0  0  0  0
   13.4400   -2.4890   20.7870 N   0  0  0  0  0  0  0  0  0  0  0  0
    6.2360    0.6790   17.6190 N   0  0  0  0  0  0  0  0  0  0  0  0
    5.1510    1.5640   17.7770 C   0  0  0  0  0  0  0  0  0  0  0  0
    4.5640    1.7550   19.0640 C   0  0  0  0  0  0  0  0  0  0  0  0
    5.1410    1.0350   20.0570 C   0  0  0  0  0  0  0  0  0  0  0  0
    6.3080    0.0780   19.9350 C   0  0  0  0  0  0  0  0  0  0  0  0
    6.7650   -0.0130   18.6590 C   0  0  0  0  0  0  0  0  0  0  0  0
   10.5290    0.4080   23.1390 C   0  0  0  0  0  0  0  0  0  0  0  0
   11.8490    0.8560   23.2500 C   0  0  0  0  0  0  0  0  0  0  0  0
   12.8450   -0.0240   22.9100 C   0  0  0  0  0  0  0  0  0  0  0  0
   12.4790   -1.2820   22.4800 C   0  0  0  0  0  0  0  0  0  0  0  0
   11.1900   -1.7170   22.3700 C   0  0  0  0  0  0  0  0  0  0  0  0
   10.1770   -0.8760   22.6990 C   0  0  0  0  0  0  0  0  0  0  0  0
  5  2  1  1
  1  6  1  0
  3  6  2  0
  5  6  1  0
  4  8  1  0
  9 10  2  0
 10 11  1  0
  7 12  1  0
 11 12  2  0
  1 13  1  0
 12 13  1  0
  9 14  1  0
 13 14  2  0
 15 16  2  0
 16 17  1  0
  4 18  1  0
 17 18  2  0
 18 19  1  0
  5 20  1  0
 15 20  1  0
 19 20  2  0
M  END
