x2643-x0786
     RDKit          3D

 36 39  0  0  0  0  0  0  0  0999 V2000
    6.2830   -3.9290   22.0000 N   0  0  0  0  0  0  0  0  0  0  0  0
    7.2500   -5.2190   20.2050 C   0  0  0  0  0  0  0  0  0  0  0  0
    5.1660   -4.3520   19.8830 O   0  0  0  0  0  0  0  0  0  0  0  0
    6.0970   -4.4610   20.6890 C   0  0  0  0  0  0  0  0  0  0  0  0
    3.6340   -8.0650   24.7690 O   0  0  0  0  0  0  0  0  0  0  0  0
    3.1440   -7.0570   24.2760 C   0  0  0  0  0  0  0  0  0  0  0  0
    6.7500   -0.8420   20.7830 N   0  0  0  0  0  0  0  0  0  0  0  0
    8.4080    0.5700   21.3570 O   0  0  0  0  0  0  0  0  0  0  0  0
   13.4130    0.2400   23.1990 Cl  0  0  0  0  0  0  0  0  0  0  0  0
    8.5630   -1.6180   22.0210 C   0  0  2  0  0  0  0  0  0  0  0  0
    7.9200   -0.5660   21.3810 C   0  0  0  0  0  0  0  0  0  0  0  0
    7.5700   -3.5960   22.5240 C   0  0  0  0  0  0  0  0  0  0  0  0
    7.7000   -2.3100   22.9830 C   0  0  0  0  0  0  0  0  0  0  0  0
    5.5000   -4.3060   23.1130 C   0  0  0  0  0  0  0  0  0  0  0  0
    4.7650   -5.4820   23.0480 C   0  0  0  0  0  0  0  0  0  0  0  0
    3.9280   -5.8760   24.2670 C   0  0  0  0  0  0  0  0  0  0  0  0
    3.9720   -5.0040   25.3720 C   0  0  0  0  0  0  0  0  0  0  0  0
    4.8210   -3.7400   25.3210 C   0  0  0  0  0  0  0  0  0  0  0  0
    5.5520   -3.4320   24.2050 C   0  0  0  0  0  0  0  0  0  0  0  0
    1.4560   -5.7210   23.3250 C   0  0  0  0  0  0  0  0  0  0  0  0
    0.6840   -5.1030   24.3900 C   0  0  0  0  0  0  0  0  0  0  0  0
   -0.8090   -6.0170   24.3340 S   0  0  0  0  0  0  0  0  0  0  0  0
   -0.1420   -7.6130   24.7090 C   0  0  0  0  0  0  0  0  0  0  0  0
    1.0000   -7.9520   23.9650 C   0  0  0  0  0  0  0  0  0  0  0  0
    1.9160   -6.9930   23.7460 N   0  0  0  0  0  0  0  0  0  0  0  0
   11.8070   -0.0530   23.2390 C   0  0  0  0  0  0  0  0  0  0  0  0
   10.8150    0.5080   24.0180 C   0  0  0  0  0  0  0  0  0  0  0  0
    9.6150   -0.0080   23.6730 C   0  0  0  0  0  0  0  0  0  0  0  0
    9.7340   -0.9410   22.6400 C   0  0  0  0  0  0  0  0  0  0  0  0
   11.3100   -1.2130   22.1310 S   0  0  0  0  0  0  0  0  0  0  0  0
    6.2630    0.8800   17.5590 N   0  0  0  0  0  0  0  0  0  0  0  0
    6.8380    0.0520   18.6170 C   0  0  0  0  0  0  0  0  0  0  0  0
    6.1900   -0.0960   19.8330 C   0  0  0  0  0  0  0  0  0  0  0  0
    4.9830    0.5540   20.0060 C   0  0  0  0  0  0  0  0  0  0  0  0
    4.5300    1.3050   18.9400 C   0  0  0  0  0  0  0  0  0  0  0  0
    5.2430    1.4120   17.7490 C   0  0  0  0  0  0  0  0  0  0  0  0
  1  4  1  0
  2  4  1  0
  3  4  2  0
  5  6  2  0
  7 11  1  0
  8 11  2  0
 10 11  1  0
  1 12  1  0
 10 13  1  1
 12 13  1  0
  1 14  1  0
 14 15  2  0
  6 16  1  0
 15 16  1  0
 16 17  2  0
 17 18  1  0
 14 19  1  0
 18 19  2  0
 20 21  1  0
 21 22  1  0
 22 23  1  0
 23 24  1  0
  6 25  1  0
 20 25  1  0
 24 25  1  0
  9 26  1  0
 26 27  2  0
 27 28  1  0
 10 29  1  0
 28 29  2  0
 26 30  1  0
 29 30  1  0
 31 32  2  0
  7 33  1  0
 32 33  1  0
 33 34  2  0
 34 35  1  0
 31 36  1  0
 35 36  2  0
M  END
