x2649-x0830
     RDKit          3D

 31 35  0  0  0  0  0  0  0  0999 V2000
    7.0660   -2.3670   24.5170 C   0  0  0  0  0  0  0  0  0  0  0  0
    5.3100   -1.9810   21.8760 O   0  0  0  0  0  0  0  0  0  0  0  0
   13.1050   -2.0420   21.3410 Cl  0  0  0  0  0  0  0  0  0  0  0  0
    6.4920   -1.7640   22.0990 C   0  0  0  0  0  0  0  0  0  0  0  0
    7.2960   -4.4120   20.7600 C   0  0  0  0  0  0  0  0  0  0  0  0
    6.3760   -3.0120   19.0480 O   0  0  0  0  0  0  0  0  0  0  0  0
    7.1640   -3.0560   20.0510 C   0  0  0  0  0  0  0  0  0  0  0  0
    9.7190   -1.4580   24.5460 C   0  0  0  0  0  0  0  0  0  0  0  0
    9.9860    0.6610   23.6050 C   0  0  0  0  0  0  0  0  0  0  0  0
   11.2780    0.8770   23.3770 C   0  0  0  0  0  0  0  0  0  0  0  0
   12.4220    0.1400   22.7450 C   0  0  0  0  0  0  0  0  0  0  0  0
   12.0480   -1.0790   22.2590 C   0  0  0  0  0  0  0  0  0  0  0  0
   10.7300   -1.5080   22.5200 C   0  0  0  0  0  0  0  0  0  0  0  0
    9.7640   -0.7650   23.3150 C   0  0  1  0  0  0  0  0  0  0  0  0
    7.9880   -2.0030   20.6260 N   0  0  0  0  0  0  0  0  0  0  0  0
    8.9790   -2.7520   21.3590 C   0  0  0  0  0  0  0  0  0  0  0  0
    8.4100   -3.1870   22.5810 C   0  0  0  0  0  0  0  0  0  0  0  0
    7.6360   -2.1690   23.1240 C   0  0  2  0  0  0  0  0  0  0  0  0
    8.2910   -1.0160   22.8430 C   0  0  2  0  0  0  0  0  0  0  0  0
    7.6800   -0.9780   21.5690 C   0  0  2  0  0  0  0  0  0  0  0  0
    9.0660    1.6370   24.0530 C   0  0  0  0  0  0  0  0  0  0  0  0
    8.8810    0.1610   23.6790 C   0  0  0  0  0  0  0  0  0  0  0  0
   10.3060   -0.3020   23.2070 C   0  0  0  0  0  0  0  0  0  0  0  0
    3.8320    2.3100   21.3710 C   0  0  0  0  0  0  0  0  0  0  0  0
    6.3010    0.3340   18.2320 N   0  0  0  0  0  0  0  0  0  0  0  0
    5.1150    0.9420   17.9970 C   0  0  0  0  0  0  0  0  0  0  0  0
    4.3150    1.5640   18.9130 C   0  0  0  0  0  0  0  0  0  0  0  0
    4.6040    1.6690   20.2650 C   0  0  0  0  0  0  0  0  0  0  0  0
    5.9920    0.9120   20.2790 C   0  0  0  0  0  0  0  0  0  0  0  0
    6.9550    0.2210   19.4620 C   0  0  0  0  0  0  0  0  0  0  0  0
    7.3250    0.2870   20.7910 C   0  0  0  0  0  0  0  0  0  0  0  0
  2  4  2  0
  5  7  1  0
  6  7  2  0
  9 10  1  0
 10 11  2  0
  3 12  1  0
 11 12  1  0
 12 13  2  0
 14  8  1  1
  9 14  1  0
 13 14  1  0
  7 15  1  0
 15 16  1  0
 16 17  1  0
 18  1  1  1
  4 18  1  0
 17 18  1  0
 19 14  1  6
 18 19  1  0
  4 20  1  0
 15 20  1  0
 19 20  1  0
  9 21  2  0
 21 22  1  0
 10 23  1  0
 22 23  2  0
 25 26  2  0
 26 27  1  0
 24 28  1  0
 27 28  2  0
 28 29  1  0
 25 30  1  0
 29 30  2  0
 20 31  1  6
 30 31  1  0
M  END
