x2649-x2776
     RDKit          3D

 38 40  0  0  0  0  0  0  0  0999 V2000
    6.8380   -1.4660   21.7930 N   0  0  0  0  0  0  0  0  0  0  0  0
    6.7070   -4.8430   20.4960 C   0  0  0  0  0  0  0  0  0  0  0  0
    4.8050   -2.9440   21.0920 O   0  0  0  0  0  0  0  0  0  0  0  0
    6.7680   -3.9910   21.7670 C   0  0  0  0  0  0  0  0  0  0  0  0
    7.8510    1.7860   22.9970 N   0  0  0  0  0  0  0  0  0  0  0  0
    8.7320    1.1130   21.0100 O   0  0  0  0  0  0  0  0  0  0  0  0
    6.0320   -2.7060   21.5110 C   0  0  0  0  0  0  0  0  0  0  0  0
   10.8130    6.5450   23.7520 O   0  0  0  0  0  0  0  0  0  0  0  0
    6.6690    0.0300   21.4600 C   0  0  1  0  0  0  0  0  0  0  0  0
   12.1450   -2.8860   25.3850 O   0  0  0  0  0  0  0  0  0  0  0  0
    7.7820    0.9280   21.7770 C   0  0  0  0  0  0  0  0  0  0  0  0
   10.4880    1.6100   23.9170 C   0  0  0  0  0  0  0  0  0  0  0  0
   11.8180    6.4270   24.7610 C   0  0  0  0  0  0  0  0  0  0  0  0
   11.9320   -2.1460   24.2150 C   0  0  2  0  0  0  0  0  0  0  0  0
   12.4980   -0.7740   24.4150 C   0  0  0  0  0  0  0  0  0  0  0  0
   13.5360   -3.0820   25.5650 C   0  0  0  0  0  0  0  0  0  0  0  0
    4.3730    1.6280   21.3060 C   0  0  0  0  0  0  0  0  0  0  0  0
    6.3340    0.4940   17.7240 N   0  0  0  0  0  0  0  0  0  0  0  0
    5.1930    1.3100   17.7430 C   0  0  0  0  0  0  0  0  0  0  0  0
    4.5350    1.6850   18.8970 C   0  0  0  0  0  0  0  0  0  0  0  0
    5.0230    1.2480   20.1230 C   0  0  0  0  0  0  0  0  0  0  0  0
    6.1520    0.4510   20.1300 C   0  0  0  0  0  0  0  0  0  0  0  0
    6.7470    0.1100   18.9320 C   0  0  0  0  0  0  0  0  0  0  0  0
    9.8580    2.9460   23.6190 C   0  0  0  0  0  0  0  0  0  0  0  0
   10.5290    4.1810   23.7810 C   0  0  0  0  0  0  0  0  0  0  0  0
    9.9460    5.4220   23.5080 C   0  0  0  0  0  0  0  0  0  0  0  0
    8.6360    5.4530   23.0430 C   0  0  0  0  0  0  0  0  0  0  0  0
    7.9350    4.2440   22.8670 C   0  0  0  0  0  0  0  0  0  0  0  0
    8.5200    2.9840   23.1510 C   0  0  0  0  0  0  0  0  0  0  0  0
    9.1950   -2.0770   21.7590 C   0  0  0  0  0  0  0  0  0  0  0  0
   10.4080   -2.2360   22.3590 C   0  0  0  0  0  0  0  0  0  0  0  0
   10.5660   -1.9480   23.7020 C   0  0  0  0  0  0  0  0  0  0  0  0
    9.4720   -1.4860   24.4610 C   0  0  0  0  0  0  0  0  0  0  0  0
    8.2270   -1.3330   23.8190 C   0  0  0  0  0  0  0  0  0  0  0  0
    8.0930   -1.6300   22.4630 C   0  0  0  0  0  0  0  0  0  0  0  0
   13.0240   -2.3530   21.3550 Cl  0  0  0  0  0  0  0  0  0  0  0  0
   13.4100   -0.5390   23.2760 C   0  0  0  0  0  0  0  0  0  0  0  0
   12.9030   -0.8020   22.0530 C   0  0  0  0  0  0  0  0  0  0  0  0
  2  4  1  0
  1  7  1  0
  3  7  2  0
  4  7  1  0
  1  9  1  0
  5 11  1  0
  6 11  2  0
  9 11  1  6
  8 13  1  0
 10 14  1  0
 14 15  1  1
 10 16  1  0
 18 19  2  0
 19 20  1  0
 17 21  1  0
 20 21  2  0
  9 22  1  0
 21 22  1  0
 18 23  1  0
 22 23  2  0
 12 24  1  0
 24 25  2  0
  8 26  1  0
 25 26  1  0
 26 27  2  0
 27 28  1  0
  5 29  1  0
 24 29  1  0
 28 29  2  0
 30 31  2  0
 14 32  1  0
 31 32  1  0
 32 33  2  0
 33 34  1  0
  1 35  1  0
 30 35  1  0
 34 35  2  0
 15 37  1  0
 36 38  1  0
 37 38  1  0
M  END
