x2646-x0946
     RDKit          3D

 28 30  0  0  0  0  0  0  0  0999 V2000
    4.2490    0.9950   21.5710 C   0  0  0  0  0  0  0  0  0  0  0  0
    8.5470    0.8180   21.2480 O   0  0  0  0  0  0  0  0  0  0  0  0
   13.1790   -2.9030   21.5230 Cl  0  0  0  0  0  0  0  0  0  0  0  0
    6.9080   -0.6780   21.0100 N   0  0  0  0  0  0  0  0  0  0  0  0
    8.0500   -0.2600   21.5920 C   0  0  0  0  0  0  0  0  0  0  0  0
    8.6760   -1.1060   22.6360 C   0  0  0  0  0  0  0  0  0  0  0  0
    8.9230    5.7170   22.8000 N   0  0  0  0  0  0  0  0  0  0  0  0
    9.6410    5.5980   25.3590 O   0  0  0  0  0  0  0  0  0  0  0  0
   11.2720    6.7680   23.6250 O   0  0  0  0  0  0  0  0  0  0  0  0
   10.2280    5.5910   23.8820 S   0  0  0  0  0  0  0  0  0  0  0  0
    6.3570    0.7720   17.5710 N   0  0  0  0  0  0  0  0  0  0  0  0
    6.8330    0.0990   18.6400 C   0  0  0  0  0  0  0  0  0  0  0  0
    6.2550    0.0620   20.0630 C   0  0  0  0  0  0  0  0  0  0  0  0
    4.9900    0.8800   20.2780 C   0  0  0  0  0  0  0  0  0  0  0  0
    4.4890    1.6160   19.0560 C   0  0  0  0  0  0  0  0  0  0  0  0
    5.2390    1.5040   17.7490 C   0  0  0  0  0  0  0  0  0  0  0  0
   10.7570    0.1840   23.1170 C   0  0  0  0  0  0  0  0  0  0  0  0
   12.2540    0.6140   23.2630 C   0  0  0  0  0  0  0  0  0  0  0  0
   12.8200   -0.5630   22.7270 C   0  0  0  0  0  0  0  0  0  0  0  0
   12.2410   -1.6960   22.1820 C   0  0  0  0  0  0  0  0  0  0  0  0
   10.9250   -1.8700   22.1450 C   0  0  0  0  0  0  0  0  0  0  0  0
   10.1490   -0.9390   22.6290 C   0  0  0  0  0  0  0  0  0  0  0  0
   12.5410    1.9830   23.0470 C   0  0  0  0  0  0  0  0  0  0  0  0
   13.0400    3.2130   22.7120 C   0  0  0  0  0  0  0  0  0  0  0  0
   12.3760    4.4410   22.9370 C   0  0  0  0  0  0  0  0  0  0  0  0
   11.0810    4.2150   23.5960 C   0  0  0  0  0  0  0  0  0  0  0  0
   10.7060    2.8840   23.9030 C   0  0  0  0  0  0  0  0  0  0  0  0
   11.3160    1.6030   23.6890 C   0  0  0  0  0  0  0  0  0  0  0  0
  2  5  2  0
  4  5  1  0
  5  6  1  0
 10  7  1  0
  8 10  2  0
  9 10  2  0
 11 12  2  0
  4 13  1  0
 12 13  1  0
  1 14  1  0
 13 14  2  0
 14 15  1  0
 11 16  1  0
 15 16  2  0
 17 18  2  0
 18 19  1  0
  3 20  1  0
 19 20  2  0
 20 21  1  0
  6 22  1  0
 17 22  1  0
 21 22  2  0
 23 24  2  0
 24 25  1  0
 10 26  1  0
 25 26  2  0
 26 27  1  0
 18 28  1  0
 23 28  1  0
 27 28  2  0
M  END
