x2649-x0691
     RDKit          3D

 40 43  0  0  0  0  0  0  0  0999 V2000
    4.0340   -6.8040   26.0290 O   0  0  0  0  0  0  0  0  0  0  0  0
    5.6440   -5.0160   26.7390 O   0  0  0  0  0  0  0  0  0  0  0  0
    5.4160   -4.4560   19.9070 O   0  0  0  0  0  0  0  0  0  0  0  0
    6.4110   -4.5840   20.6330 C   0  0  0  0  0  0  0  0  0  0  0  0
    7.6230   -3.6990   20.4490 C   0  0  0  0  0  0  0  0  0  0  0  0
    3.2720   -0.6440   26.0160 F   0  0  0  0  0  0  0  0  0  0  0  0
    4.6440   -5.5080   25.8220 S   0  0  0  0  0  0  0  0  0  0  0  0
    6.9180   -0.6130   20.9750 N   0  0  0  0  0  0  0  0  0  0  0  0
    8.0170   -1.2290   23.7940 C   0  0  0  0  0  0  0  0  0  0  0  0
    8.7000    0.8580   21.4060 O   0  0  0  0  0  0  0  0  0  0  0  0
   13.2630   -2.4210   21.1460 Cl  0  0  0  0  0  0  0  0  0  0  0  0
    8.6630   -1.1350   22.5640 C   0  0  1  0  0  0  0  0  0  0  0  0
    8.1520   -0.2160   21.6430 C   0  0  0  0  0  0  0  0  0  0  0  0
    4.7990    1.1540   21.6200 C   0  0  0  0  0  0  0  0  0  0  0  0
    6.2570   -3.2780   23.6390 C   0  0  0  0  0  0  0  0  0  0  0  0
    7.5350   -2.5820   24.1980 C   0  0  0  0  0  0  0  0  0  0  0  0
    2.8610   -1.9180   25.9340 C   0  0  0  0  0  0  0  0  0  0  0  0
    3.7950   -2.9490   25.9200 C   0  0  0  0  0  0  0  0  0  0  0  0
    3.3520   -4.2800   25.8350 C   0  0  0  0  0  0  0  0  0  0  0  0
    1.9800   -4.5310   25.7640 C   0  0  0  0  0  0  0  0  0  0  0  0
    1.0510   -3.4980   25.7790 C   0  0  0  0  0  0  0  0  0  0  0  0
    1.4920   -2.1900   25.8660 C   0  0  0  0  0  0  0  0  0  0  0  0
    6.4720   -5.5420   21.6310 N   0  0  0  0  0  0  0  0  0  0  0  0
    5.2520   -5.9270   22.1810 C   0  0  0  0  0  0  0  0  0  0  0  0
    4.4810   -6.0310   23.2890 C   0  0  0  0  0  0  0  0  0  0  0  0
    5.1820   -5.3600   24.2410 N   0  0  0  0  0  0  0  0  0  0  0  0
    6.4220   -4.8270   23.9720 C   0  0  1  0  0  0  0  0  0  0  0  0
    7.3120   -5.3860   22.7970 C   0  0  0  0  0  0  0  0  0  0  0  0
    6.2710    0.6150   17.6160 N   0  0  0  0  0  0  0  0  0  0  0  0
    5.1660    1.5570   17.8360 C   0  0  0  0  0  0  0  0  0  0  0  0
    4.7130    1.7040   19.1370 C   0  0  0  0  0  0  0  0  0  0  0  0
    5.2830    0.9880   20.2100 C   0  0  0  0  0  0  0  0  0  0  0  0
    6.3450    0.0850   19.9730 C   0  0  0  0  0  0  0  0  0  0  0  0
    6.7710   -0.0400   18.6670 C   0  0  0  0  0  0  0  0  0  0  0  0
   10.6380    0.3130   23.2810 C   0  0  0  0  0  0  0  0  0  0  0  0
   12.0100    0.5780   23.2900 C   0  0  0  0  0  0  0  0  0  0  0  0
   12.8490   -0.2710   22.6400 C   0  0  0  0  0  0  0  0  0  0  0  0
   12.3010   -1.3650   21.9910 C   0  0  0  0  0  0  0  0  0  0  0  0
   10.9970   -1.6270   21.9850 C   0  0  0  0  0  0  0  0  0  0  0  0
   10.1290   -0.7960   22.6290 C   0  0  0  0  0  0  0  0  0  0  0  0
  3  4  2  0
  4  5  1  0
  1  7  2  0
  2  7  2  0
 12  9  1  1
  8 13  1  0
 10 13  2  0
 12 13  1  0
  9 16  1  0
 15 16  1  0
  6 17  1  0
 17 18  2  0
  7 19  1  0
 18 19  1  0
 19 20  2  0
 20 21  1  0
 17 22  1  0
 21 22  2  0
  4 23  1  0
 23 24  1  0
 24 25  1  0
  7 26  1  0
 25 26  1  0
 27 15  1  6
 26 27  1  0
 23 28  1  0
 27 28  1  0
 29 30  2  0
 30 31  1  0
 14 32  1  0
 31 32  2  0
  8 33  1  0
 32 33  1  0
 29 34  1  0
 33 34  2  0
 35 36  2  0
 36 37  1  0
 11 38  1  0
 37 38  2  0
 38 39  1  0
 12 40  1  0
 35 40  1  0
 39 40  2  0
M  END
