x2643-x1385
     RDKit          3D

 32 36  0  0  0  0  0  0  0  0999 V2000
    7.5040   -3.0370   18.6170 C   0  0  0  0  0  0  0  0  0  0  0  0
    5.6430   -4.0650   19.7350 O   0  0  0  0  0  0  0  0  0  0  0  0
    6.5860   -3.2560   19.8250 C   0  0  0  0  0  0  0  0  0  0  0  0
    9.4980   -2.9690   24.0510 C   0  0  0  0  0  0  0  0  0  0  0  0
    7.1790   -5.9230   28.5270 Br  0  0  0  0  0  0  0  0  0  0  0  0
    6.7890   -1.0110   21.0410 N   0  0  0  0  0  0  0  0  0  0  0  0
    8.4940    0.5840   21.7350 O   0  0  0  0  0  0  0  0  0  0  0  0
    7.9990   -0.5400   21.6640 C   0  0  0  0  0  0  0  0  0  0  0  0
    6.9220   -2.4420   21.1170 C   0  0  1  0  0  0  0  0  0  0  0  0
    6.3040   -3.0560   22.1980 C   0  0  0  0  0  0  0  0  0  0  0  0
    7.2490   -3.2680   23.2380 C   0  0  0  0  0  0  0  0  0  0  0  0
    8.3470   -2.3470   23.3760 N   0  0  0  0  0  0  0  0  0  0  0  0
    8.7460   -1.7000   22.2470 C   0  0  1  0  0  0  0  0  0  0  0  0
    8.4150   -2.6140   21.3410 C   0  0  0  0  0  0  0  0  0  0  0  0
    9.7140   -5.1970   25.3370 C   0  0  0  0  0  0  0  0  0  0  0  0
    9.1270   -3.9220   25.1120 C   0  0  0  0  0  0  0  0  0  0  0  0
    7.8840   -3.7150   26.3220 S   0  0  0  0  0  0  0  0  0  0  0  0
    8.1830   -5.2880   27.0450 C   0  0  0  0  0  0  0  0  0  0  0  0
    9.2200   -5.9360   26.3670 C   0  0  0  0  0  0  0  0  0  0  0  0
    6.4060    0.7060   17.6760 N   0  0  0  0  0  0  0  0  0  0  0  0
    6.8950   -0.0490   18.6850 C   0  0  0  0  0  0  0  0  0  0  0  0
    6.2640   -0.2170   19.9720 C   0  0  0  0  0  0  0  0  0  0  0  0
    5.0520    0.4760   20.1250 C   0  0  0  0  0  0  0  0  0  0  0  0
    4.5360    1.2630   19.0860 C   0  0  0  0  0  0  0  0  0  0  0  0
    5.2440    1.3470   17.8920 C   0  0  0  0  0  0  0  0  0  0  0  0
   13.3020   -0.5240   22.7600 Cl  0  0  0  0  0  0  0  0  0  0  0  0
   11.7970   -0.2960   23.4450 C   0  0  0  0  0  0  0  0  0  0  0  0
   11.5240   -0.1740   24.7790 C   0  0  0  0  0  0  0  0  0  0  0  0
   10.1730    0.0490   24.9920 C   0  0  0  0  0  0  0  0  0  0  0  0
    9.6150    0.0480   23.7440 C   0  0  0  0  0  0  0  0  0  0  0  0
   10.5800   -0.1980   22.7530 C   0  0  2  0  0  0  0  0  0  0  0  0
   10.2180   -1.3690   22.1340 C   0  0  0  0  0  0  0  0  0  0  0  0
  1  3  1  0
  2  3  2  0
  6  8  1  0
  7  8  2  0
  9  3  1  6
  6  9  1  0
  9 10  1  0
 10 11  1  0
  4 12  1  0
 11 12  1  0
  8 13  1  0
 12 13  1  0
  9 14  1  0
 13 14  1  0
  4 16  1  0
 15 16  2  0
 16 17  1  0
  5 18  1  0
 17 18  1  0
 15 19  1  0
 18 19  2  0
 20 21  2  0
  6 22  1  0
 21 22  1  0
 22 23  2  0
 23 24  1  0
 20 25  1  0
 24 25  2  0
 26 27  1  0
 27 28  2  0
 28 29  1  0
 29 30  2  0
 27 31  1  0
 30 31  1  0
 13 32  1  1
 31 32  1  1
M  END
