x2649-x2646
     RDKit          3D

 19 20  0  0  0  0  0  0  0  0999 V2000
    6.9080   -0.6750   21.1560 N   0  0  0  0  0  0  0  0  0  0  0  0
    7.9070   -1.2550   23.9940 C   0  0  0  0  0  0  0  0  0  0  0  0
    8.8060    0.6990   21.5280 O   0  0  0  0  0  0  0  0  0  0  0  0
   13.2570   -2.2480   21.1440 Cl  0  0  0  0  0  0  0  0  0  0  0  0
    8.5890   -1.1860   22.7750 C   0  0  1  0  0  0  0  0  0  0  0  0
    8.1510   -0.3080   21.7990 C   0  0  0  0  0  0  0  0  0  0  0  0
    4.7990    1.2330   21.6870 C   0  0  0  0  0  0  0  0  0  0  0  0
    6.2190    0.6050   17.5690 N   0  0  0  0  0  0  0  0  0  0  0  0
    5.1420    1.5710   17.8710 C   0  0  0  0  0  0  0  0  0  0  0  0
    4.7770    1.6760   19.2210 C   0  0  0  0  0  0  0  0  0  0  0  0
    5.3180    0.9730   20.3060 C   0  0  0  0  0  0  0  0  0  0  0  0
    6.3260    0.0620   20.0430 C   0  0  0  0  0  0  0  0  0  0  0  0
    6.8270   -0.1640   18.6320 C   0  0  0  0  0  0  0  0  0  0  0  0
   10.5010    0.0560   23.8000 C   0  0  0  0  0  0  0  0  0  0  0  0
   12.0020    0.3280   23.8740 C   0  0  0  0  0  0  0  0  0  0  0  0
   12.8420   -0.3890   23.0520 C   0  0  0  0  0  0  0  0  0  0  0  0
   12.3060   -1.3330   22.1870 C   0  0  0  0  0  0  0  0  0  0  0  0
   10.9490   -1.5920   22.1050 C   0  0  0  0  0  0  0  0  0  0  0  0
   10.0550   -0.9050   22.8990 C   0  0  0  0  0  0  0  0  0  0  0  0
  5  2  1  1
  1  6  1  0
  3  6  2  0
  5  6  1  0
  8  9  2  0
  9 10  1  0
  7 11  1  0
 10 11  2  0
  1 12  1  0
 11 12  1  0
  8 13  1  0
 12 13  2  0
 14 15  2  0
 15 16  1  0
  4 17  1  0
 16 17  2  0
 17 18  1  0
  5 19  1  0
 14 19  1  0
 18 19  2  0
M  END
