x2649-x1412
     RDKit          3D

 34 37  0  0  0  0  0  0  0  0999 V2000
    7.7820   -0.2030   20.7870 N   0  0  0  0  0  0  0  0  0  0  0  0
    7.6790   -1.9570   24.1430 C   0  0  0  0  0  0  0  0  0  0  0  0
    7.0370    0.4370   22.7500 O   0  0  0  0  0  0  0  0  0  0  0  0
    7.8560   -0.1930   22.1570 C   0  0  1  0  0  0  0  0  0  0  0  0
    5.3240    1.2240   21.8180 C   0  0  0  0  0  0  0  0  0  0  0  0
    7.2290   -3.1140   19.0680 C   0  0  0  0  0  0  0  0  0  0  0  0
    5.2860   -4.3260   19.7740 O   0  0  0  0  0  0  0  0  0  0  0  0
    6.2490   -3.6670   20.1280 C   0  0  0  0  0  0  0  0  0  0  0  0
    8.2080   -3.2960   24.5570 C   0  0  0  0  0  0  0  0  0  0  0  0
    6.2380    0.6820   17.5490 N   0  0  0  0  0  0  0  0  0  0  0  0
    5.1610    1.3470   17.9220 C   0  0  0  0  0  0  0  0  0  0  0  0
    4.7540    1.5830   19.3870 C   0  0  0  0  0  0  0  0  0  0  0  0
    5.5990    1.0690   20.3660 C   0  0  0  0  0  0  0  0  0  0  0  0
    6.7490    0.3830   19.9090 C   0  0  0  0  0  0  0  0  0  0  0  0
    7.0740    0.1710   18.5980 C   0  0  0  0  0  0  0  0  0  0  0  0
    6.4260   -3.4540   21.4850 N   0  0  0  0  0  0  0  0  0  0  0  0
    6.4980   -2.0240   21.9520 C   0  0  0  0  0  0  0  0  0  0  0  0
    7.6620   -1.6180   22.6760 C   0  0  2  0  0  0  0  0  0  0  0  0
    8.8620   -2.3640   22.2980 N   0  0  0  0  0  0  0  0  0  0  0  0
    8.4230   -3.3750   22.1990 C   0  0  0  0  0  0  0  0  0  0  0  0
    7.3490   -4.1830   22.0960 C   0  0  0  0  0  0  0  0  0  0  0  0
    9.1790   -5.1560   25.6680 C   0  0  0  0  0  0  0  0  0  0  0  0
    8.3570   -4.0150   25.7460 C   0  0  0  0  0  0  0  0  0  0  0  0
    7.6450   -3.7390   27.3340 S   0  0  0  0  0  0  0  0  0  0  0  0
    8.4430   -5.1460   27.8460 C   0  0  0  0  0  0  0  0  0  0  0  0
    9.2730   -5.8430   26.8120 C   0  0  0  0  0  0  0  0  0  0  0  0
   13.1820   -2.2100   21.0920 Cl  0  0  0  0  0  0  0  0  0  0  0  0
   10.8800    0.7220   23.9670 C   0  0  0  0  0  0  0  0  0  0  0  0
   12.1490    0.3130   24.1540 C   0  0  0  0  0  0  0  0  0  0  0  0
   12.8030   -0.5530   23.2860 C   0  0  0  0  0  0  0  0  0  0  0  0
   12.3590   -1.1850   22.1140 C   0  0  0  0  0  0  0  0  0  0  0  0
   10.9090   -0.6360   22.0420 C   0  0  0  0  0  0  0  0  0  0  0  0
   10.2700    0.2290   22.8730 C   0  0  0  0  0  0  0  0  0  0  0  0
    9.0130    0.6820   22.6550 C   0  0  0  0  0  0  0  0  0  0  0  0
  1  4  1  0
  4  3  1  1
  6  8  1  0
  7  8  2  0
  2  9  2  3
 10 11  2  0
 11 12  1  0
  5 13  1  0
 12 13  2  0
  1 14  1  0
 13 14  1  0
 10 15  1  0
 14 15  2  0
  8 16  1  0
 16 17  1  0
 18  2  1  1
  4 18  1  0
 17 18  1  0
 18 19  1  0
 19 20  1  0
 16 21  1  0
 20 21  1  0
  9 23  1  0
 22 23  2  0
 23 24  1  0
 24 25  1  0
 22 26  1  0
 25 26  2  0
 28 29  2  0
 29 30  1  0
 27 31  1  0
 30 31  2  0
 31 32  1  0
 28 33  1  0
 32 33  2  0
  4 34  1  0
 33 34  1  0
M  END
