x2649-x1478
     RDKit          3D

 31 33  0  0  0  0  0  0  0  0999 V2000
    7.0970   -0.4150   21.2040 N   0  0  0  0  0  0  0  0  0  0  0  0
    7.9750   -0.4410   24.2920 C   0  0  0  0  0  0  0  0  0  0  0  0
    8.7540    1.3090   21.4390 O   0  0  0  0  0  0  0  0  0  0  0  0
   13.2700   -2.2780   21.1790 Cl  0  0  0  0  0  0  0  0  0  0  0  0
    8.6790   -0.6430   22.9600 C   0  0  1  0  0  0  0  0  0  0  0  0
    8.2110    0.2440   21.8010 C   0  0  0  0  0  0  0  0  0  0  0  0
    4.8960    1.2390   21.6860 C   0  0  0  0  0  0  0  0  0  0  0  0
    6.3650   -2.6130   21.1790 N   0  0  0  0  0  0  0  0  0  0  0  0
    7.5190   -3.6670   19.4140 C   0  0  0  0  0  0  0  0  0  0  0  0
    5.2170   -3.7010   19.4690 O   0  0  0  0  0  0  0  0  0  0  0  0
    6.1510   -5.8080   22.2360 Cl  0  0  0  0  0  0  0  0  0  0  0  0
    6.2410   -3.3100   20.0270 C   0  0  0  0  0  0  0  0  0  0  0  0
    7.3920   -1.7950   21.1710 C   0  0  0  0  0  0  0  0  0  0  0  0
    6.2620    0.6070   17.6250 N   0  0  0  0  0  0  0  0  0  0  0  0
    5.1920    1.4350   17.8490 C   0  0  0  0  0  0  0  0  0  0  0  0
    4.7490    1.6330   19.1560 C   0  0  0  0  0  0  0  0  0  0  0  0
    5.3560    1.0330   20.2470 C   0  0  0  0  0  0  0  0  0  0  0  0
    6.4440    0.2020   20.0310 C   0  0  0  0  0  0  0  0  0  0  0  0
    6.9280   -0.0490   18.7730 C   0  0  0  0  0  0  0  0  0  0  0  0
   10.7770    0.3510   23.9030 C   0  0  0  0  0  0  0  0  0  0  0  0
   12.1450    0.3980   23.8950 C   0  0  0  0  0  0  0  0  0  0  0  0
   12.9110   -0.3990   23.0710 C   0  0  0  0  0  0  0  0  0  0  0  0
   12.3390   -1.3070   22.1970 C   0  0  0  0  0  0  0  0  0  0  0  0
   10.9800   -1.4440   22.1180 C   0  0  0  0  0  0  0  0  0  0  0  0
   10.1540   -0.5300   23.0500 C   0  0  0  0  0  0  0  0  0  0  0  0
    4.9930   -4.5090   24.1750 N   0  0  0  0  0  0  0  0  0  0  0  0
    5.6550   -4.2890   22.8800 C   0  0  0  0  0  0  0  0  0  0  0  0
    5.7670   -2.9510   22.4090 C   0  0  0  0  0  0  0  0  0  0  0  0
    5.2670   -1.8800   23.1700 C   0  0  0  0  0  0  0  0  0  0  0  0
    4.6410   -2.1260   24.4070 C   0  0  0  0  0  0  0  0  0  0  0  0
    4.5410   -3.4410   24.8340 C   0  0  0  0  0  0  0  0  0  0  0  0
  5  2  1  1
  1  6  1  0
  3  6  2  0
  5  6  1  0
  8 12  1  0
  9 12  1  0
 10 12  2  0
  1 13  1  0
  8 13  1  0
 14 15  2  0
 15 16  1  0
  7 17  1  0
 16 17  2  0
  1 18  1  0
 17 18  1  0
 14 19  1  0
 18 19  2  0
 20 21  2  0
 21 22  1  0
  4 23  1  0
 22 23  2  0
 23 24  1  0
  5 25  1  0
 20 25  1  0
 24 25  2  0
 11 27  1  0
 26 27  2  0
  8 28  1  0
 27 28  1  0
 28 29  2  0
 29 30  1  0
 26 31  1  0
 30 31  2  0
M  END
