x2646-x1425
     RDKit          3D

 36 39  0  0  0  0  0  0  0  0999 V2000
    4.5850    1.1770   21.6110 C   0  0  0  0  0  0  0  0  0  0  0  0
    8.5700    0.9760   21.2880 O   0  0  0  0  0  0  0  0  0  0  0  0
   13.1970   -2.3180   21.1810 Cl  0  0  0  0  0  0  0  0  0  0  0  0
    7.0080   -0.5940   21.1570 N   0  0  0  0  0  0  0  0  0  0  0  0
    8.0680   -0.0380   21.7940 C   0  0  0  0  0  0  0  0  0  0  0  0
    8.6290   -0.6010   23.0740 C   0  0  0  0  0  0  0  0  0  0  0  0
    1.4380   -2.3690   28.1280 C   0  0  0  0  0  0  0  0  0  0  0  0
    2.6600   -2.2370   28.2700 O   0  0  0  0  0  0  0  0  0  0  0  0
    5.1520   -4.6070   19.8620 O   0  0  0  0  0  0  0  0  0  0  0  0
    6.1970   -4.0900   20.1970 C   0  0  0  0  0  0  0  0  0  0  0  0
    7.0310   -3.2550   19.2250 C   0  0  0  0  0  0  0  0  0  0  0  0
    6.2650   -1.7890   21.6640 C   0  0  0  0  0  0  0  0  0  0  0  0
    6.3890    0.5950   17.6770 N   0  0  0  0  0  0  0  0  0  0  0  0
    6.9240   -0.0440   18.7240 C   0  0  0  0  0  0  0  0  0  0  0  0
    6.3730    0.0970   20.1230 C   0  0  0  0  0  0  0  0  0  0  0  0
    5.1530    1.0150   20.2410 C   0  0  0  0  0  0  0  0  0  0  0  0
    4.6710    1.6270   19.0830 C   0  0  0  0  0  0  0  0  0  0  0  0
    5.2700    1.4270   17.8350 C   0  0  0  0  0  0  0  0  0  0  0  0
   10.7270    0.3250   23.9530 C   0  0  0  0  0  0  0  0  0  0  0  0
   12.1010    0.3540   23.9210 C   0  0  0  0  0  0  0  0  0  0  0  0
   12.8550   -0.4340   23.0940 C   0  0  0  0  0  0  0  0  0  0  0  0
   12.2990   -1.3340   22.2160 C   0  0  0  0  0  0  0  0  0  0  0  0
   10.8220   -1.4750   22.1390 C   0  0  0  0  0  0  0  0  0  0  0  0
   10.0470   -0.5540   23.0920 C   0  0  0  0  0  0  0  0  0  0  0  0
    3.4600   -2.5820   27.2170 C   0  0  0  0  0  0  0  0  0  0  0  0
    4.7670   -2.1500   27.0060 C   0  0  0  0  0  0  0  0  0  0  0  0
    5.4950   -2.5580   25.9070 C   0  0  0  0  0  0  0  0  0  0  0  0
    4.9550   -3.4260   24.9510 C   0  0  0  0  0  0  0  0  0  0  0  0
    3.6290   -3.8620   25.1620 C   0  0  0  0  0  0  0  0  0  0  0  0
    2.8890   -3.4510   26.2750 C   0  0  0  0  0  0  0  0  0  0  0  0
    6.7090   -4.2680   21.4630 N   0  0  0  0  0  0  0  0  0  0  0  0
    7.0650   -3.0300   22.1670 C   0  0  2  0  0  0  0  0  0  0  0  0
    6.9700   -3.1790   23.5390 C   0  0  0  0  0  0  0  0  0  0  0  0
    5.6930   -3.8370   23.8520 N   0  0  0  0  0  0  0  0  0  0  0  0
    5.4310   -5.1500   23.2240 C   0  0  0  0  0  0  0  0  0  0  0  0
    6.4090   -5.4420   22.2760 C   0  0  0  0  0  0  0  0  0  0  0  0
  2  5  2  0
  4  5  1  0
  5  6  1  0
  7  8  1  0
  9 10  2  0
 10 11  1  0
  4 12  1  0
 13 14  2  0
  4 15  1  0
 14 15  1  0
  1 16  1  0
 15 16  2  0
 16 17  1  0
 13 18  1  0
 17 18  2  0
 19 20  2  0
 20 21  1  0
  3 22  1  0
 21 22  2  0
 22 23  1  0
  6 24  1  0
 19 24  1  0
 23 24  2  0
  8 25  1  0
 25 26  2  0
 26 27  1  0
 27 28  2  0
 28 29  1  0
 25 30  1  0
 29 30  2  0
 10 31  1  0
 32 12  1  6
 31 32  1  0
 32 33  1  0
 28 34  1  0
 33 34  1  0
 34 35  1  0
 31 36  1  0
 35 36  1  0
M  END
