x2643-x0831
     RDKit          3D

 27 29  0  0  0  0  0  0  0  0999 V2000
   12.0120   -2.2400   21.5780 C   0  0  0  0  0  0  0  0  0  0  0  0
    5.3930   -4.4300   19.8670 O   0  0  0  0  0  0  0  0  0  0  0  0
    9.2030   -2.1160   22.5550 C   0  0  0  0  0  0  0  0  0  0  0  0
    6.2810   -3.6110   20.1030 C   0  0  0  0  0  0  0  0  0  0  0  0
    7.2480   -3.1370   19.0030 C   0  0  0  0  0  0  0  0  0  0  0  0
   13.5130    0.7260   22.9350 Cl  0  0  0  0  0  0  0  0  0  0  0  0
    8.6690   -0.2610   21.5220 O   0  0  0  0  0  0  0  0  0  0  0  0
   11.4900   -1.1660   22.4810 C   0  0  0  0  0  0  0  0  0  0  0  0
   10.2250   -1.1400   22.9390 C   0  0  0  0  0  0  0  0  0  0  0  0
    9.9300   -0.1040   23.7840 C   0  0  0  0  0  0  0  0  0  0  0  0
   10.7830    0.8940   24.1580 C   0  0  0  0  0  0  0  0  0  0  0  0
   12.1090    1.0710   23.7500 C   0  0  0  0  0  0  0  0  0  0  0  0
   12.3150   -0.1610   22.8480 C   0  0  0  0  0  0  0  0  0  0  0  0
    6.4500   -3.0840   21.3860 N   0  0  0  0  0  0  0  0  0  0  0  0
    6.7760   -1.6650   21.4500 C   0  0  1  0  0  0  0  0  0  0  0  0
    7.9960   -1.2280   22.2630 C   0  0  1  0  0  0  0  0  0  0  0  0
    7.4860   -0.8460   23.4400 C   0  0  0  0  0  0  0  0  0  0  0  0
    7.3700   -2.0880   24.2090 N   0  0  0  0  0  0  0  0  0  0  0  0
    7.7470   -3.2960   23.4490 C   0  0  0  0  0  0  0  0  0  0  0  0
    6.6980   -3.8080   22.5830 C   0  0  0  0  0  0  0  0  0  0  0  0
    6.2450    1.1800   17.5380 N   0  0  0  0  0  0  0  0  0  0  0  0
    6.7710    0.2440   18.3120 C   0  0  0  0  0  0  0  0  0  0  0  0
    6.2390   -0.2660   19.4500 C   0  0  0  0  0  0  0  0  0  0  0  0
    5.0130    0.2280   19.9140 C   0  0  0  0  0  0  0  0  0  0  0  0
    4.3790    1.2210   19.1910 C   0  0  0  0  0  0  0  0  0  0  0  0
    4.9780    1.6840   18.0340 C   0  0  0  0  0  0  0  0  0  0  0  0
    6.9600   -1.2440   20.0330 C   0  0  0  0  0  0  0  0  0  0  0  0
  2  4  2  0
  4  5  1  0
  1  8  1  0
  3  9  1  0
  8  9  2  0
  9 10  1  0
 10 11  2  0
  6 12  1  0
 11 12  1  0
  8 13  1  0
 12 13  2  0
  4 14  1  0
 14 15  1  0
  3 16  1  0
 16  7  1  6
 15 16  1  0
 16 17  1  0
 17 18  1  0
 18 19  1  0
 14 20  1  0
 19 20  1  0
 21 22  2  0
 22 23  1  0
 23 24  2  0
 24 25  1  0
 21 26  1  0
 25 26  2  0
 15 27  1  6
 23 27  1  0
M  END
