x2649-x2703
     RDKit          3D

 37 39  0  0  0  0  0  0  0  0999 V2000
    6.8100   -1.7300   22.1800 N   0  0  0  0  0  0  0  0  0  0  0  0
    6.7210   -4.8520   20.4630 C   0  0  0  0  0  0  0  0  0  0  0  0
    4.8120   -3.0570   21.3470 O   0  0  0  0  0  0  0  0  0  0  0  0
    6.8850   -4.1310   21.7970 C   0  0  0  0  0  0  0  0  0  0  0  0
    7.3340    1.7350   22.9420 N   0  0  0  0  0  0  0  0  0  0  0  0
    8.5530    0.7710   21.2920 O   0  0  0  0  0  0  0  0  0  0  0  0
    6.0500   -2.8930   21.7510 C   0  0  0  0  0  0  0  0  0  0  0  0
    6.4720   -0.2580   21.8570 C   0  0  1  0  0  0  0  0  0  0  0  0
    7.5340    0.7290   21.9850 C   0  0  0  0  0  0  0  0  0  0  0  0
    9.9640    1.8370   24.1110 C   0  0  0  0  0  0  0  0  0  0  0  0
    9.1370    1.2680   25.0820 C   0  0  0  0  0  0  0  0  0  0  0  0
    6.1300    4.2440   21.8140 C   0  0  0  0  0  0  0  0  0  0  0  0
   11.8950   -2.1030   24.4010 C   0  0  0  0  0  0  0  0  0  0  0  0
   11.7650   -3.1640   25.2590 C   0  0  0  0  0  0  0  0  0  0  0  0
   12.0990   -0.7570   25.1190 C   0  0  0  0  0  0  0  0  0  0  0  0
    4.1420    1.1820   21.3370 C   0  0  0  0  0  0  0  0  0  0  0  0
    6.2880    0.1720   17.9660 N   0  0  0  0  0  0  0  0  0  0  0  0
    5.2980    0.7870   17.9340 C   0  0  0  0  0  0  0  0  0  0  0  0
    4.4920    1.1800   18.9870 C   0  0  0  0  0  0  0  0  0  0  0  0
    4.9270    0.7960   20.2410 C   0  0  0  0  0  0  0  0  0  0  0  0
    6.1010    0.0640   20.4020 C   0  0  0  0  0  0  0  0  0  0  0  0
    6.7350   -0.2180   19.1870 C   0  0  0  0  0  0  0  0  0  0  0  0
   10.9440   -1.3390   22.2880 N   0  0  0  0  0  0  0  0  0  0  0  0
   10.6760   -1.8820   23.5160 C   0  0  0  0  0  0  0  0  0  0  0  0
    9.1870   -2.2030   23.8930 C   0  0  0  0  0  0  0  0  0  0  0  0
    7.9150   -2.0190   23.1380 C   0  0  0  0  0  0  0  0  0  0  0  0
    8.4670   -1.4640   21.9580 C   0  0  0  0  0  0  0  0  0  0  0  0
    9.7610   -1.1610   21.5760 C   0  0  0  0  0  0  0  0  0  0  0  0
    9.3040    3.0590   23.5450 C   0  0  0  0  0  0  0  0  0  0  0  0
   10.0570    4.3920   23.6010 C   0  0  0  0  0  0  0  0  0  0  0  0
    9.4520    5.5230   23.0760 C   0  0  0  0  0  0  0  0  0  0  0  0
    8.1890    5.3840   22.5210 C   0  0  0  0  0  0  0  0  0  0  0  0
    7.4870    4.1620   22.4640 C   0  0  0  0  0  0  0  0  0  0  0  0
    8.0170    2.9980   22.9680 C   0  0  0  0  0  0  0  0  0  0  0  0
   13.1150   -2.0970   21.0480 Cl  0  0  0  0  0  0  0  0  0  0  0  0
   13.1990   -2.2210   23.5910 C   0  0  0  0  0  0  0  0  0  0  0  0
   13.1840   -1.2750   22.5920 C   0  0  0  0  0  0  0  0  0  0  0  0
  2  4  1  0
  1  7  1  0
  3  7  2  0
  4  7  1  0
  1  8  1  0
  5  9  1  0
  6  9  2  0
  8  9  1  6
 10 11  1  0
 13 14  1  0
 13 15  1  0
 17 18  2  0
 18 19  1  0
 16 20  1  0
 19 20  2  0
  8 21  1  0
 20 21  1  0
 17 22  1  0
 21 22  2  0
 13 24  1  0
 23 24  2  0
 24 25  1  0
  1 26  1  0
 25 26  2  0
 26 27  1  0
 23 28  1  0
 27 28  2  0
 10 29  1  0
 29 30  2  0
 30 31  1  0
 31 32  2  0
 12 33  1  0
 32 33  1  0
  5 34  1  0
 29 34  1  0
 33 34  2  0
 13 36  1  0
 35 37  1  0
 36 37  1  0
M  END
