x2646-x2563
     RDKit          3D

 20 23  0  0  0  0  0  0  0  0999 V2000
    8.7570    1.2990   21.2690 O   0  0  0  0  0  0  0  0  0  0  0  0
   13.1340   -2.3840   21.2400 Cl  0  0  0  0  0  0  0  0  0  0  0  0
    7.8710   -0.6720   20.5150 N   0  0  0  0  0  0  0  0  0  0  0  0
    8.4310    0.1110   21.4700 C   0  0  0  0  0  0  0  0  0  0  0  0
    8.6630   -0.5960   22.7660 C   0  0  0  0  0  0  0  0  0  0  0  0
    4.6520    0.5340   18.5440 C   0  0  1  0  0  0  0  0  0  0  0  0
    5.8840   -0.5250   18.6580 C   0  0  0  0  0  0  0  0  0  0  0  0
    6.7330   -0.2100   19.9190 C   0  0  0  0  0  0  0  0  0  0  0  0
    5.7500    0.7200   20.2040 C   0  0  0  0  0  0  0  0  0  0  0  0
    5.0110    1.8320   17.8010 C   0  0  0  0  0  0  0  0  0  0  0  0
   10.6480    0.4080   23.8040 C   0  0  0  0  0  0  0  0  0  0  0  0
   12.1440    0.5060   23.9330 C   0  0  0  0  0  0  0  0  0  0  0  0
   12.9730   -0.4390   23.0680 C   0  0  0  0  0  0  0  0  0  0  0  0
   12.2810   -1.3080   22.2380 C   0  0  0  0  0  0  0  0  0  0  0  0
   10.9000   -1.3560   22.1600 C   0  0  0  0  0  0  0  0  0  0  0  0
   10.1200   -0.5090   22.9280 C   0  0  0  0  0  0  0  0  0  0  0  0
    3.6340    1.1460   19.6630 C   0  0  0  0  0  0  0  0  0  0  0  0
    3.8570    1.1290   21.0770 C   0  0  0  0  0  0  0  0  0  0  0  0
    4.9430    0.4280   21.2040 C   0  0  0  0  0  0  0  0  0  0  0  0
    5.7030    1.7420   19.1320 C   0  0  0  0  0  0  0  0  0  0  0  0
  1  4  2  0
  3  4  1  0
  4  5  1  0
  6  7  1  1
  3  8  1  0
  7  8  2  0
  8  9  1  0
  6 10  1  0
 11 12  2  0
 12 13  1  0
  2 14  1  0
 13 14  2  0
 14 15  1  0
  5 16  1  0
 11 16  1  0
 15 16  2  0
  6 17  1  0
 17 18  2  0
  9 19  2  0
 18 19  1  0
  6 20  1  0
  9 20  1  0
 10 20  2  0
M  END
