x2643-x2754
     RDKit          3D

 36 39  0  0  0  0  0  0  0  0999 V2000
    4.9800   -3.2150   25.2180 C   0  0  0  0  0  0  0  0  0  0  0  0
    3.7900   -3.1730   24.9210 O   0  0  0  0  0  0  0  0  0  0  0  0
    5.5290   -3.0400   26.5620 N   0  0  0  0  0  0  0  0  0  0  0  0
    5.6790   -4.7140   20.0260 O   0  0  0  0  0  0  0  0  0  0  0  0
    6.6360   -3.9660   20.3370 C   0  0  0  0  0  0  0  0  0  0  0  0
    7.3230   -3.2240   19.2420 C   0  0  0  0  0  0  0  0  0  0  0  0
    4.7100   -2.1330   27.4520 C   0  0  0  0  0  0  0  0  0  0  0  0
    6.4080   -0.8260   20.7990 N   0  0  0  0  0  0  0  0  0  0  0  0
    8.2050    0.5410   21.1900 O   0  0  0  0  0  0  0  0  0  0  0  0
   13.3930   -0.5470   23.1260 Cl  0  0  0  0  0  0  0  0  0  0  0  0
    7.9180   -1.3580   22.4640 C   0  0  1  0  0  0  0  0  0  0  0  0
    7.5690   -0.4760   21.4810 C   0  0  0  0  0  0  0  0  0  0  0  0
    7.2860   -0.9770   23.8120 C   0  0  0  0  0  0  0  0  0  0  0  0
    7.1520   -3.8080   21.6510 N   0  0  0  0  0  0  0  0  0  0  0  0
    7.0130   -2.4770   22.0360 C   0  0  1  0  0  0  0  0  0  0  0  0
    5.7750   -2.5840   22.9660 C   0  0  0  0  0  0  0  0  0  0  0  0
    5.8940   -3.4620   24.0560 C   0  0  2  0  0  0  0  0  0  0  0  0
    5.7960   -4.7420   23.5230 C   0  0  0  0  0  0  0  0  0  0  0  0
    6.8520   -4.8800   22.4240 C   0  0  0  0  0  0  0  0  0  0  0  0
    7.1740   -4.8840   26.4740 C   0  0  0  0  0  0  0  0  0  0  0  0
    8.4070   -5.4310   26.9110 C   0  0  0  0  0  0  0  0  0  0  0  0
    9.2050   -4.7360   27.8310 C   0  0  0  0  0  0  0  0  0  0  0  0
    8.7010   -3.5130   28.2630 C   0  0  0  0  0  0  0  0  0  0  0  0
    7.5220   -2.9590   27.8590 C   0  0  0  0  0  0  0  0  0  0  0  0
    6.7510   -3.6490   26.9550 C   0  0  0  0  0  0  0  0  0  0  0  0
   11.7290   -0.5840   23.0830 C   0  0  0  0  0  0  0  0  0  0  0  0
   10.9550    0.3760   23.6610 C   0  0  0  0  0  0  0  0  0  0  0  0
    9.6430    0.1080   23.4680 C   0  0  0  0  0  0  0  0  0  0  0  0
    9.3680   -1.0610   22.7410 C   0  0  0  0  0  0  0  0  0  0  0  0
   10.8420   -1.8250   22.3100 S   0  0  0  0  0  0  0  0  0  0  0  0
    6.3570    0.8700   17.5250 N   0  0  0  0  0  0  0  0  0  0  0  0
    6.7070    0.0500   18.6660 C   0  0  0  0  0  0  0  0  0  0  0  0
    5.9070    0.0160   19.7860 C   0  0  0  0  0  0  0  0  0  0  0  0
    4.7480    0.7520   19.8690 C   0  0  0  0  0  0  0  0  0  0  0  0
    4.3450    1.5640   18.8220 C   0  0  0  0  0  0  0  0  0  0  0  0
    5.1160    1.6490   17.6530 C   0  0  0  0  0  0  0  0  0  0  0  0
  1  2  2  0
  1  3  1  0
  4  5  2  0
  5  6  1  0
  3  7  1  0
  8 12  1  0
  9 12  2  0
 11 12  1  0
 11 13  1  1
  5 14  1  0
 11 15  1  0
 14 15  1  0
 15 16  1  1
 17  1  1  1
 16 17  1  0
 17 18  1  0
 14 19  1  0
 18 19  1  0
 20 21  2  0
 21 22  1  0
 22 23  2  0
 23 24  1  0
  3 25  1  0
 20 25  1  0
 24 25  2  0
 10 26  1  0
 26 27  2  0
 27 28  1  0
 11 29  1  0
 28 29  2  0
 26 30  1  0
 29 30  1  0
 31 32  2  0
  8 33  1  0
 32 33  1  0
 33 34  2  0
 34 35  1  0
 31 36  1  0
 35 36  2  0
M  END
