x2646-x1384
     RDKit          3D

 35 39  0  0  0  0  0  0  0  0999 V2000
    4.6340    1.2920   21.5680 C   0  0  0  0  0  0  0  0  0  0  0  0
    8.7040    1.2500   21.1850 O   0  0  0  0  0  0  0  0  0  0  0  0
   13.1240   -2.4420   21.2060 Cl  0  0  0  0  0  0  0  0  0  0  0  0
    7.1190   -0.3450   21.0460 N   0  0  0  0  0  0  0  0  0  0  0  0
    8.1510    0.2410   21.6920 C   0  0  0  0  0  0  0  0  0  0  0  0
    8.6260   -0.3090   23.0120 C   0  0  0  0  0  0  0  0  0  0  0  0
    6.7900   -3.7910   21.5680 N   0  0  0  0  0  0  0  0  0  0  0  0
    7.3120   -3.1560   19.2220 C   0  0  0  0  0  0  0  0  0  0  0  0
    5.4080   -4.4170   19.8700 O   0  0  0  0  0  0  0  0  0  0  0  0
    6.4240   -3.8330   20.2340 C   0  0  0  0  0  0  0  0  0  0  0  0
    6.4680   -1.3290   21.7350 C   0  0  0  0  0  0  0  0  0  0  0  0
    7.3260   -2.5370   22.1130 C   0  0  0  0  0  0  0  0  0  0  0  0
    6.3020    0.7080   17.6220 N   0  0  0  0  0  0  0  0  0  0  0  0
    6.9480    0.0920   18.6420 C   0  0  0  0  0  0  0  0  0  0  0  0
    6.4160    0.2730   20.0350 C   0  0  0  0  0  0  0  0  0  0  0  0
    5.1710    1.1220   20.1840 C   0  0  0  0  0  0  0  0  0  0  0  0
    4.6440    1.6690   19.0290 C   0  0  0  0  0  0  0  0  0  0  0  0
    5.2000    1.4740   17.7610 C   0  0  0  0  0  0  0  0  0  0  0  0
   10.7950    0.3210   23.9480 C   0  0  0  0  0  0  0  0  0  0  0  0
   12.1650    0.2260   23.9880 C   0  0  0  0  0  0  0  0  0  0  0  0
   12.9230   -0.5940   23.1800 C   0  0  0  0  0  0  0  0  0  0  0  0
   12.2880   -1.4010   22.2460 C   0  0  0  0  0  0  0  0  0  0  0  0
   10.8000   -1.3620   22.1370 C   0  0  0  0  0  0  0  0  0  0  0  0
   10.0360   -0.4240   23.0620 C   0  0  0  0  0  0  0  0  0  0  0  0
    4.9280   -2.9740   27.0020 O   0  0  0  0  0  0  0  0  0  0  0  0
    3.9050   -3.8700   23.5250 C   0  0  2  0  0  0  0  0  0  0  0  0
    5.1550   -3.6320   23.3040 C   0  0  1  0  0  0  0  0  0  0  0  0
    5.1180   -3.8240   24.6380 C   0  0  2  0  0  0  0  0  0  0  0  0
    5.2230   -5.1950   25.0350 C   0  0  0  0  0  0  0  0  0  0  0  0
    4.3840   -5.9790   24.2300 C   0  0  0  0  0  0  0  0  0  0  0  0
    3.6290   -5.2260   23.3820 C   0  0  0  0  0  0  0  0  0  0  0  0
    4.4060   -2.7390   25.7130 C   0  0  1  0  0  0  0  0  0  0  0  0
    2.9460   -2.9910   25.6850 C   0  0  0  0  0  0  0  0  0  0  0  0
    3.7670   -3.2710   24.7790 C   0  0  0  0  0  0  0  0  0  0  0  0
    5.9760   -4.5310   22.4340 C   0  0  0  0  0  0  0  0  0  0  0  0
  2  5  2  0
  4  5  1  0
  5  6  1  0
  7 10  1  0
  8 10  1  0
  9 10  2  0
  4 11  1  0
  7 12  1  0
 11 12  1  0
 13 14  2  0
  4 15  1  0
 14 15  1  0
  1 16  1  0
 15 16  2  0
 16 17  1  0
 13 18  1  0
 17 18  2  0
 19 20  2  0
 20 21  1  0
  3 22  1  0
 21 22  2  0
 22 23  1  0
  6 24  1  0
 19 24  1  0
 23 24  2  0
 26 27  1  0
 26 28  1  0
 27 28  1  0
 28 29  1  1
 29 30  1  0
 26 31  1  6
 30 31  2  0
 32 25  1  1
 28 32  1  0
 32 33  1  0
 26 34  1  0
 33 34  2  0
  7 35  1  0
 27 35  1  6
M  END
