x2646-x2776
     RDKit          3D

 37 39  0  0  0  0  0  0  0  0999 V2000
    6.8530   -1.4980   21.8700 N   0  0  0  0  0  0  0  0  0  0  0  0
    6.7180   -4.8050   20.4580 C   0  0  0  0  0  0  0  0  0  0  0  0
    4.8050   -2.9580   21.1460 O   0  0  0  0  0  0  0  0  0  0  0  0
    6.8100   -4.0110   21.7450 C   0  0  0  0  0  0  0  0  0  0  0  0
    7.7300    1.8320   22.9560 N   0  0  0  0  0  0  0  0  0  0  0  0
    8.7140    1.1490   20.9970 O   0  0  0  0  0  0  0  0  0  0  0  0
    6.0370   -2.7320   21.5490 C   0  0  0  0  0  0  0  0  0  0  0  0
   10.6840    6.6630   23.8140 O   0  0  0  0  0  0  0  0  0  0  0  0
    6.6510   -0.0580   21.5050 C   0  0  1  0  0  0  0  0  0  0  0  0
   12.2700   -2.7550   25.2910 O   0  0  0  0  0  0  0  0  0  0  0  0
    7.7960    1.0080   21.8090 C   0  0  0  0  0  0  0  0  0  0  0  0
   10.5040    1.6140   23.8660 C   0  0  0  0  0  0  0  0  0  0  0  0
   11.7970    6.6660   24.7120 C   0  0  0  0  0  0  0  0  0  0  0  0
   12.1720   -2.1770   24.0110 C   0  0  2  0  0  0  0  0  0  0  0  0
   12.9660   -0.9010   23.9680 C   0  0  0  0  0  0  0  0  0  0  0  0
   13.6180   -3.0480   25.5780 C   0  0  0  0  0  0  0  0  0  0  0  0
    4.1360    1.3660   21.3770 C   0  0  0  0  0  0  0  0  0  0  0  0
    6.3130    0.5050   17.7270 N   0  0  0  0  0  0  0  0  0  0  0  0
    5.1670    1.1880   17.7480 C   0  0  0  0  0  0  0  0  0  0  0  0
    4.4500    1.4680   18.8940 C   0  0  0  0  0  0  0  0  0  0  0  0
    4.9400    1.0380   20.1030 C   0  0  0  0  0  0  0  0  0  0  0  0
    6.1270    0.3410   20.1530 C   0  0  0  0  0  0  0  0  0  0  0  0
    6.8440    0.0350   19.0050 C   0  0  0  0  0  0  0  0  0  0  0  0
    9.8190    2.9290   23.6050 C   0  0  0  0  0  0  0  0  0  0  0  0
   10.6180    4.2170   23.8300 C   0  0  0  0  0  0  0  0  0  0  0  0
   10.0500    5.4590   23.6210 C   0  0  0  0  0  0  0  0  0  0  0  0
    8.7130    5.5280   23.1760 C   0  0  0  0  0  0  0  0  0  0  0  0
    7.9440    4.3450   22.9500 C   0  0  0  0  0  0  0  0  0  0  0  0
    8.4830    3.0420   23.1660 C   0  0  0  0  0  0  0  0  0  0  0  0
    9.2380   -2.0620   21.7170 C   0  0  0  0  0  0  0  0  0  0  0  0
   10.5070   -2.2300   22.1940 C   0  0  0  0  0  0  0  0  0  0  0  0
   10.7660   -1.9860   23.5180 C   0  0  0  0  0  0  0  0  0  0  0  0
    9.7350   -1.5690   24.3560 C   0  0  0  0  0  0  0  0  0  0  0  0
    8.4400   -1.4080   23.8510 C   0  0  0  0  0  0  0  0  0  0  0  0
    8.1700   -1.6550   22.5030 C   0  0  0  0  0  0  0  0  0  0  0  0
   13.1940   -1.7520   21.4380 Cl  0  0  0  0  0  0  0  0  0  0  0  0
   13.0680   -0.3720   22.5600 C   0  0  0  0  0  0  0  0  0  0  0  0
  2  4  1  0
  1  7  1  0
  3  7  2  0
  4  7  1  0
  1  9  1  0
  5 11  1  0
  6 11  2  0
  9 11  1  6
  8 13  1  0
 10 14  1  0
 14 15  1  1
 10 16  1  0
 18 19  2  0
 19 20  1  0
 17 21  1  0
 20 21  2  0
  9 22  1  0
 21 22  1  0
 18 23  1  0
 22 23  2  0
 12 24  1  0
 24 25  2  0
  8 26  1  0
 25 26  1  0
 26 27  2  0
 27 28  1  0
  5 29  1  0
 24 29  1  0
 28 29  2  0
 30 31  2  0
 14 32  1  0
 31 32  1  0
 32 33  2  0
 33 34  1  0
  1 35  1  0
 30 35  1  0
 34 35  2  0
 15 37  1  0
 36 37  1  0
M  END
