x2646-x1375
     RDKit          3D

 38 41  0  0  0  0  0  0  0  0999 V2000
    5.8290   -5.0370   20.0350 O   0  0  0  0  0  0  0  0  0  0  0  0
    6.5880   -4.4410   20.8010 C   0  0  0  0  0  0  0  0  0  0  0  0
    8.0000   -3.8470   20.5200 C   0  0  0  0  0  0  0  0  0  0  0  0
    6.1350   -4.1070   22.2340 C   0  0  2  0  0  0  0  0  0  0  0  0
    2.3590   -6.7990   23.7430 O   0  0  0  0  0  0  0  0  0  0  0  0
    4.4400   -8.0130   24.8310 O   0  0  0  0  0  0  0  0  0  0  0  0
   10.5110   -4.6460   25.9720 F   0  0  0  0  0  0  0  0  0  0  0  0
    4.4240    0.9570   21.5620 C   0  0  0  0  0  0  0  0  0  0  0  0
    8.6730    0.8660   21.2450 O   0  0  0  0  0  0  0  0  0  0  0  0
   13.3710   -1.9140   21.0710 Cl  0  0  0  0  0  0  0  0  0  0  0  0
    7.0000   -0.6970   21.1950 N   0  0  0  0  0  0  0  0  0  0  0  0
    8.1560   -0.1580   21.7050 C   0  0  0  0  0  0  0  0  0  0  0  0
    8.7680   -0.8670   22.8920 C   0  0  0  0  0  0  0  0  0  0  0  0
    5.5430   -2.7160   21.7920 C   0  0  0  0  0  0  0  0  0  0  0  0
    6.2240   -1.4200   22.2070 C   0  0  0  0  0  0  0  0  0  0  0  0
    7.7140   -3.0910   23.9920 C   0  0  0  0  0  0  0  0  0  0  0  0
    8.8790   -3.2490   24.9780 C   0  0  0  0  0  0  0  0  0  0  0  0
    9.4940   -4.4840   25.1170 C   0  0  0  0  0  0  0  0  0  0  0  0
    9.0300   -5.5610   24.3460 C   0  0  0  0  0  0  0  0  0  0  0  0
    7.9570   -5.4190   23.4330 C   0  0  0  0  0  0  0  0  0  0  0  0
    7.2860   -4.1920   23.2400 C   0  0  0  0  0  0  0  0  0  0  0  0
    4.8220   -4.4570   24.2200 C   0  0  0  0  0  0  0  0  0  0  0  0
    4.9790   -4.8060   22.8890 C   0  0  2  0  0  0  0  0  0  0  0  0
    4.9580   -6.3100   22.7450 C   0  0  0  0  0  0  0  0  0  0  0  0
    3.8990   -6.7330   24.1200 S   0  0  0  0  0  0  0  0  0  0  0  0
    4.1940   -5.4440   25.1260 C   0  0  0  0  0  0  0  0  0  0  0  0
    6.4240    0.5940   17.7570 N   0  0  0  0  0  0  0  0  0  0  0  0
    6.9050   -0.0310   18.8510 C   0  0  0  0  0  0  0  0  0  0  0  0
    6.3400    0.0260   20.1260 C   0  0  0  0  0  0  0  0  0  0  0  0
    5.1720    0.7870   20.2770 C   0  0  0  0  0  0  0  0  0  0  0  0
    4.6560    1.4430   19.1410 C   0  0  0  0  0  0  0  0  0  0  0  0
    5.3130    1.3200   17.9150 C   0  0  0  0  0  0  0  0  0  0  0  0
   10.7230    0.2740   23.9240 C   0  0  0  0  0  0  0  0  0  0  0  0
   12.0790    0.4910   23.9640 C   0  0  0  0  0  0  0  0  0  0  0  0
   12.9170   -0.1730   23.0970 C   0  0  0  0  0  0  0  0  0  0  0  0
   12.3760   -1.0560   22.1970 C   0  0  0  0  0  0  0  0  0  0  0  0
   11.0390   -1.2870   22.1400 C   0  0  0  0  0  0  0  0  0  0  0  0
   10.2110   -0.6210   22.9950 C   0  0  0  0  0  0  0  0  0  0  0  0
  1  2  2  0
  2  3  1  0
  4  2  1  0
  9 12  2  0
 11 12  1  0
 12 13  1  0
  4 14  1  6
 11 15  1  0
 14 15  1  0
 16 17  2  0
  7 18  1  0
 17 18  1  0
 18 19  2  0
 19 20  1  0
  4 21  1  0
 16 21  1  0
 20 21  2  0
  4 23  1  0
 23 22  1  1
 23 24  1  0
 25  5  1  0
  6 25  1  0
 24 25  1  0
 22 26  2  0
 25 26  1  0
 27 28  2  0
 11 29  1  0
 28 29  1  0
  8 30  1  0
 29 30  2  0
 30 31  1  0
 27 32  1  0
 31 32  2  0
 33 34  2  0
 34 35  1  0
 10 36  1  0
 35 36  2  0
 36 37  1  0
 13 38  1  0
 33 38  1  0
 37 38  2  0
M  END
