x2643-x1425
     RDKit          3D

 34 37  0  0  0  0  0  0  0  0999 V2000
    1.4920   -2.2550   28.4170 C   0  0  0  0  0  0  0  0  0  0  0  0
    2.7080   -2.0510   28.3270 O   0  0  0  0  0  0  0  0  0  0  0  0
    5.1460   -4.4760   19.8300 O   0  0  0  0  0  0  0  0  0  0  0  0
    6.1830   -3.9960   20.2440 C   0  0  0  0  0  0  0  0  0  0  0  0
    7.1290   -3.2260   19.3190 C   0  0  0  0  0  0  0  0  0  0  0  0
    6.5400   -0.6490   20.9060 N   0  0  0  0  0  0  0  0  0  0  0  0
    8.3030    0.7710   21.2490 O   0  0  0  0  0  0  0  0  0  0  0  0
   13.0630   -0.7790   24.7610 Cl  0  0  0  0  0  0  0  0  0  0  0  0
    8.7660   -1.4000   21.4780 C   0  0  2  0  0  0  0  0  0  0  0  0
    7.8740   -0.3860   21.2180 C   0  0  0  0  0  0  0  0  0  0  0  0
    7.4860   -1.8910   21.9030 C   0  0  0  0  0  0  0  0  0  0  0  0
    3.3520   -2.5810   27.1610 C   0  0  0  0  0  0  0  0  0  0  0  0
    4.6880   -2.1950   26.9770 C   0  0  0  0  0  0  0  0  0  0  0  0
    5.4420   -2.6440   25.8740 C   0  0  0  0  0  0  0  0  0  0  0  0
    4.8460   -3.5790   24.8110 C   0  0  0  0  0  0  0  0  0  0  0  0
    3.5150   -3.9400   25.0270 C   0  0  0  0  0  0  0  0  0  0  0  0
    2.7370   -3.4280   26.2380 C   0  0  0  0  0  0  0  0  0  0  0  0
    6.5220   -4.2200   21.5770 N   0  0  0  0  0  0  0  0  0  0  0  0
    7.4080   -3.3060   22.3620 C   0  0  2  0  0  0  0  0  0  0  0  0
    6.9880   -3.4380   23.6550 C   0  0  0  0  0  0  0  0  0  0  0  0
    5.7040   -4.0120   23.6880 N   0  0  0  0  0  0  0  0  0  0  0  0
    5.4180   -5.3620   23.2810 C   0  0  0  0  0  0  0  0  0  0  0  0
    6.3120   -5.5260   22.2160 C   0  0  0  0  0  0  0  0  0  0  0  0
   11.5950   -0.7300   24.0420 C   0  0  0  0  0  0  0  0  0  0  0  0
   10.4270   -0.1300   24.4740 C   0  0  0  0  0  0  0  0  0  0  0  0
    9.4170   -0.3290   23.6170 C   0  0  0  0  0  0  0  0  0  0  0  0
    9.8010   -1.0810   22.5230 C   0  0  0  0  0  0  0  0  0  0  0  0
   11.4370   -1.5640   22.4990 S   0  0  0  0  0  0  0  0  0  0  0  0
    6.3940    0.8100   17.5590 N   0  0  0  0  0  0  0  0  0  0  0  0
    6.7570    0.1280   18.6490 C   0  0  0  0  0  0  0  0  0  0  0  0
    6.0320    0.1020   19.8370 C   0  0  0  0  0  0  0  0  0  0  0  0
    4.8330    0.8140   19.9610 C   0  0  0  0  0  0  0  0  0  0  0  0
    4.3750    1.5540   18.8820 C   0  0  0  0  0  0  0  0  0  0  0  0
    5.1510    1.5350   17.7430 C   0  0  0  0  0  0  0  0  0  0  0  0
  1  2  1  0
  3  4  2  0
  4  5  1  0
  6 10  1  0
  7 10  2  0
  9 10  1  0
  9 11  1  1
  2 12  1  0
 12 13  2  0
 13 14  1  0
 14 15  2  0
 15 16  1  0
 12 17  1  0
 16 17  2  0
  4 18  1  0
 19 11  1  6
 18 19  1  0
 19 20  1  0
 15 21  1  0
 20 21  1  0
 21 22  1  0
 18 23  1  0
 22 23  1  0
  8 24  1  0
 24 25  2  0
 25 26  1  0
  9 27  1  0
 26 27  2  0
 24 28  1  0
 27 28  1  0
 29 30  2  0
  6 31  1  0
 30 31  1  0
 31 32  2  0
 32 33  1  0
 29 34  1  0
 33 34  2  0
M  END
