x2649-x2908
     RDKit          3D

 19 20  0  0  0  0  0  0  0  0999 V2000
    6.8880   -0.6900   21.1570 N   0  0  0  0  0  0  0  0  0  0  0  0
    7.9000   -1.2680   23.9970 C   0  0  0  0  0  0  0  0  0  0  0  0
    8.7830    0.6840   21.5230 O   0  0  0  0  0  0  0  0  0  0  0  0
   13.2490   -2.2590   21.1360 Cl  0  0  0  0  0  0  0  0  0  0  0  0
    8.5760   -1.1950   22.7780 C   0  0  1  0  0  0  0  0  0  0  0  0
    8.1330   -0.3250   21.7980 C   0  0  0  0  0  0  0  0  0  0  0  0
    4.7920    1.2430   21.6890 C   0  0  0  0  0  0  0  0  0  0  0  0
    6.2040    0.6020   17.5700 N   0  0  0  0  0  0  0  0  0  0  0  0
    5.1380    1.5800   17.8770 C   0  0  0  0  0  0  0  0  0  0  0  0
    4.7780    1.6840   19.2300 C   0  0  0  0  0  0  0  0  0  0  0  0
    5.3110    0.9740   20.3100 C   0  0  0  0  0  0  0  0  0  0  0  0
    6.3120    0.0510   20.0460 C   0  0  0  0  0  0  0  0  0  0  0  0
    6.8070   -0.1780   18.6320 C   0  0  0  0  0  0  0  0  0  0  0  0
   10.4970    0.0480   23.7970 C   0  0  0  0  0  0  0  0  0  0  0  0
   11.9980    0.3190   23.8660 C   0  0  0  0  0  0  0  0  0  0  0  0
   12.8360   -0.3990   23.0400 C   0  0  0  0  0  0  0  0  0  0  0  0
   12.2950   -1.3430   22.1780 C   0  0  0  0  0  0  0  0  0  0  0  0
   10.9390   -1.6010   22.1010 C   0  0  0  0  0  0  0  0  0  0  0  0
   10.0460   -0.9130   22.8970 C   0  0  0  0  0  0  0  0  0  0  0  0
  5  2  1  1
  1  6  1  0
  3  6  2  0
  5  6  1  0
  8  9  2  0
  9 10  1  0
  7 11  1  0
 10 11  2  0
  1 12  1  0
 11 12  1  0
  8 13  1  0
 12 13  2  0
 14 15  2  0
 15 16  1  0
  4 17  1  0
 16 17  2  0
 17 18  1  0
  5 19  1  0
 14 19  1  0
 18 19  2  0
M  END
