x2649-x2563
     RDKit          3D

 21 24  0  0  0  0  0  0  0  0999 V2000
    7.7380   -0.8360   20.4760 N   0  0  0  0  0  0  0  0  0  0  0  0
    8.0650   -1.1830   23.8670 C   0  0  0  0  0  0  0  0  0  0  0  0
    8.3930    0.9810   21.8230 O   0  0  0  0  0  0  0  0  0  0  0  0
   13.2780   -2.4380   21.1270 Cl  0  0  0  0  0  0  0  0  0  0  0  0
    8.6840   -1.1200   22.6170 C   0  0  1  0  0  0  0  0  0  0  0  0
    8.2660   -0.2280   21.6610 C   0  0  0  0  0  0  0  0  0  0  0  0
    4.7630    0.6980   18.5350 C   0  0  2  0  0  0  0  0  0  0  0  0
    5.0550    1.7170   17.9370 C   0  0  0  0  0  0  0  0  0  0  0  0
    5.8100    1.8110   19.1360 C   0  0  0  0  0  0  0  0  0  0  0  0
    5.8720    0.7510   20.0220 C   0  0  0  0  0  0  0  0  0  0  0  0
    6.6110   -0.2430   19.7890 C   0  0  0  0  0  0  0  0  0  0  0  0
    5.7050   -0.4780   18.5870 C   0  0  0  0  0  0  0  0  0  0  0  0
   10.6270    0.2910   23.2140 C   0  0  0  0  0  0  0  0  0  0  0  0
   12.1270    0.6260   23.2020 C   0  0  0  0  0  0  0  0  0  0  0  0
   12.9480   -0.2460   22.5610 C   0  0  0  0  0  0  0  0  0  0  0  0
   12.3600   -1.3550   21.9710 C   0  0  0  0  0  0  0  0  0  0  0  0
   11.0210   -1.6660   21.9850 C   0  0  0  0  0  0  0  0  0  0  0  0
   10.1440   -0.8400   22.6080 C   0  0  0  0  0  0  0  0  0  0  0  0
    3.6610    1.1860   19.6690 C   0  0  0  0  0  0  0  0  0  0  0  0
    3.8530    1.0230   21.0810 C   0  0  0  0  0  0  0  0  0  0  0  0
    4.9380    0.3270   21.0890 C   0  0  0  0  0  0  0  0  0  0  0  0
  5  2  1  1
  1  6  1  0
  3  6  2  0
  5  6  1  0
  7  8  1  6
  7  9  1  0
  8  9  2  0
  9 10  1  0
  1 11  1  0
 10 11  1  0
  7 12  1  0
 11 12  2  0
 13 14  2  0
 14 15  1  0
  4 16  1  0
 15 16  2  0
 16 17  1  0
  5 18  1  0
 13 18  1  0
 17 18  2  0
  7 19  1  0
 19 20  2  0
 10 21  2  0
 20 21  1  0
M  END
