x2643-x2703
     RDKit          3D

 33 35  0  0  0  0  0  0  0  0999 V2000
    6.9470   -1.6780   21.7320 N   0  0  0  0  0  0  0  0  0  0  0  0
    6.7020   -4.9110   20.4200 C   0  0  0  0  0  0  0  0  0  0  0  0
    4.8360   -3.0160   21.1880 O   0  0  0  0  0  0  0  0  0  0  0  0
    6.7760   -4.1910   21.7460 C   0  0  0  0  0  0  0  0  0  0  0  0
    7.3530    1.8510   22.7670 N   0  0  0  0  0  0  0  0  0  0  0  0
    8.8510    0.6720   21.4880 O   0  0  0  0  0  0  0  0  0  0  0  0
    6.0880   -2.8810   21.5300 C   0  0  0  0  0  0  0  0  0  0  0  0
    6.5950   -0.1910   21.5500 C   0  0  1  0  0  0  0  0  0  0  0  0
    7.7180    0.7970   21.9360 C   0  0  0  0  0  0  0  0  0  0  0  0
   10.0760    1.9000   23.9450 C   0  0  0  0  0  0  0  0  0  0  0  0
    9.1180    1.1240   24.9060 C   0  0  0  0  0  0  0  0  0  0  0  0
    6.1030    4.3940   21.8220 C   0  0  0  0  0  0  0  0  0  0  0  0
   11.9010   -2.4640   24.6430 C   0  0  0  0  0  0  0  0  0  0  0  0
   13.1800   -2.5020   24.0950 C   0  0  0  0  0  0  0  0  0  0  0  0
   12.7610   -1.1680   24.8190 C   0  0  0  0  0  0  0  0  0  0  0  0
    6.3030    0.4630   17.8550 N   0  0  0  0  0  0  0  0  0  0  0  0
    5.1220    1.1010   17.7800 C   0  0  0  0  0  0  0  0  0  0  0  0
    4.3080    1.3550   18.8580 C   0  0  0  0  0  0  0  0  0  0  0  0
    4.7350    0.9380   20.1080 C   0  0  0  0  0  0  0  0  0  0  0  0
    5.9510    0.2860   20.2780 C   0  0  0  0  0  0  0  0  0  0  0  0
    6.6530    0.0920   19.0890 C   0  0  0  0  0  0  0  0  0  0  0  0
   10.7350   -1.7400   22.5000 N   0  0  0  0  0  0  0  0  0  0  0  0
   10.7170   -2.2680   23.8880 C   0  0  0  0  0  0  0  0  0  0  0  0
    9.4690   -2.5670   24.4290 C   0  0  0  0  0  0  0  0  0  0  0  0
    8.2820   -2.3720   23.7060 C   0  0  0  0  0  0  0  0  0  0  0  0
    8.2330   -1.8780   22.4150 C   0  0  0  0  0  0  0  0  0  0  0  0
    9.4550   -1.5540   21.7900 C   0  0  0  0  0  0  0  0  0  0  0  0
    9.3550    3.1440   23.4470 C   0  0  0  0  0  0  0  0  0  0  0  0
   10.0590    4.3610   23.5730 C   0  0  0  0  0  0  0  0  0  0  0  0
    9.4370    5.5420   23.1240 C   0  0  0  0  0  0  0  0  0  0  0  0
    8.1590    5.5050   22.5660 C   0  0  0  0  0  0  0  0  0  0  0  0
    7.4710    4.2940   22.4440 C   0  0  0  0  0  0  0  0  0  0  0  0
    8.0590    3.0920   22.8870 C   0  0  0  0  0  0  0  0  0  0  0  0
  2  4  1  0
  1  7  1  0
  3  7  2  0
  4  7  1  0
  1  8  1  0
  5  9  1  0
  6  9  2  0
  8  9  1  6
 10 11  1  0
 13 14  1  0
 13 15  1  0
 16 17  2  0
 17 18  1  0
 18 19  2  0
  8 20  1  0
 19 20  1  0
 16 21  1  0
 20 21  2  0
 13 23  1  0
 22 23  2  0
 23 24  1  0
 24 25  2  0
  1 26  1  0
 25 26  1  0
 22 27  1  0
 26 27  2  0
 10 28  1  0
 28 29  2  0
 29 30  1  0
 30 31  2  0
 12 32  1  0
 31 32  1  0
  5 33  1  0
 28 33  1  0
 32 33  2  0
M  END
