x2643-x3124
     RDKit          3D

 28 29  0  0  0  0  0  0  0  0999 V2000
    6.8130   -1.7140   22.1400 N   0  0  0  0  0  0  0  0  0  0  0  0
    6.6660   -4.8150   20.4140 C   0  0  0  0  0  0  0  0  0  0  0  0
    4.8110   -3.0700   21.3690 O   0  0  0  0  0  0  0  0  0  0  0  0
    6.8390   -4.1890   21.7770 C   0  0  0  0  0  0  0  0  0  0  0  0
    7.4680    1.5460   23.1590 N   0  0  0  0  0  0  0  0  0  0  0  0
    8.6930    0.7640   21.3840 O   0  0  0  0  0  0  0  0  0  0  0  0
    6.0580   -2.9200   21.7450 C   0  0  0  0  0  0  0  0  0  0  0  0
    6.5360   -0.2470   21.7460 C   0  0  1  0  0  0  0  0  0  0  0  0
    7.6790    0.7170   22.0760 C   0  0  0  0  0  0  0  0  0  0  0  0
    8.0340    2.8500   23.1110 C   0  0  0  0  0  0  0  0  0  0  0  0
   12.0120   -2.0470   24.2510 C   0  0  0  0  0  0  0  0  0  0  0  0
   12.0440   -0.8560   24.9900 C   0  0  0  0  0  0  0  0  0  0  0  0
   13.2180   -2.4820   23.6840 C   0  0  0  0  0  0  0  0  0  0  0  0
   11.6340   -3.1550   25.2790 C   0  0  0  0  0  0  0  0  0  0  0  0
    6.3110    0.2880   17.9090 N   0  0  0  0  0  0  0  0  0  0  0  0
    5.2030    1.0490   17.8390 C   0  0  0  0  0  0  0  0  0  0  0  0
    4.4060    1.4320   19.0750 C   0  0  0  0  0  0  0  0  0  0  0  0
    4.8900    0.9700   20.2550 C   0  0  0  0  0  0  0  0  0  0  0  0
    6.0450    0.1870   20.3700 C   0  0  0  0  0  0  0  0  0  0  0  0
    6.7160   -0.1320   19.1650 C   0  0  0  0  0  0  0  0  0  0  0  0
    9.2930   -1.6780   21.5170 C   0  0  0  0  0  0  0  0  0  0  0  0
   10.6140   -1.7490   21.9380 C   0  0  0  0  0  0  0  0  0  0  0  0
   10.9920   -1.9140   23.2410 C   0  0  0  0  0  0  0  0  0  0  0  0
   10.0790   -2.0380   24.3180 C   0  0  0  0  0  0  0  0  0  0  0  0
    8.7070   -1.9750   23.9250 C   0  0  0  0  0  0  0  0  0  0  0  0
    8.2140   -1.8020   22.5900 C   0  0  0  0  0  0  0  0  0  0  0  0
   13.2000    0.1410   22.8090 Cl  0  0  0  0  0  0  0  0  0  0  0  0
   12.0130    0.2840   24.0240 C   0  0  0  0  0  0  0  0  0  0  0  0
  2  4  1  0
  1  7  1  0
  3  7  2  0
  4  7  1  0
  1  8  1  0
  5  9  1  0
  6  9  2  0
  8  9  1  6
  5 10  1  0
 11 12  1  0
 11 13  1  0
 11 14  1  0
 15 16  2  0
 16 17  1  0
 17 18  2  0
  8 19  1  0
 18 19  1  0
 15 20  1  0
 19 20  2  0
 21 22  2  0
 11 23  1  0
 22 23  1  0
 23 24  2  0
 24 25  1  0
  1 26  1  0
 21 26  1  0
 25 26  2  0
 12 28  1  0
 27 28  1  0
M  END
