x2649-x3113
     RDKit          3D

 34 35  0  0  0  0  0  0  0  0999 V2000
    6.5840   -1.6070   22.1680 N   0  0  0  0  0  0  0  0  0  0  0  0
    6.9290   -4.9710   20.7860 C   0  0  0  0  0  0  0  0  0  0  0  0
    4.7880   -2.9840   21.2010 O   0  0  0  0  0  0  0  0  0  0  0  0
    6.8680   -3.9620   21.9370 C   0  0  0  0  0  0  0  0  0  0  0  0
    8.0290    1.3520   23.1280 N   0  0  0  0  0  0  0  0  0  0  0  0
    8.7920    0.3620   21.2550 O   0  0  0  0  0  0  0  0  0  0  0  0
    5.9330   -2.7780   21.7070 C   0  0  0  0  0  0  0  0  0  0  0  0
   11.6060    3.9360   23.3420 O   0  0  0  0  0  0  0  0  0  0  0  0
    6.5600   -0.1450   21.8320 C   0  0  1  0  0  0  0  0  0  0  0  0
    7.8510    0.4990   22.0270 C   0  0  0  0  0  0  0  0  0  0  0  0
    9.0790    2.4110   23.1740 C   0  0  0  0  0  0  0  0  0  0  0  0
   10.2760    1.8910   23.6950 C   0  0  0  0  0  0  0  0  0  0  0  0
   11.6130    2.5190   23.1670 C   0  0  0  0  0  0  0  0  0  0  0  0
   12.8080    4.5170   22.8680 C   0  0  0  0  0  0  0  0  0  0  0  0
   12.5950   -1.9170   24.5640 C   0  0  0  0  0  0  0  0  0  0  0  0
   13.5350   -1.7880   23.6430 C   0  0  0  0  0  0  0  0  0  0  0  0
   13.0020   -3.1400   25.3520 C   0  0  0  0  0  0  0  0  0  0  0  0
   12.5350   -0.5970   25.2790 C   0  0  0  0  0  0  0  0  0  0  0  0
    7.8930   -2.0310   22.3090 C   0  0  0  0  0  0  0  0  0  0  0  0
    4.1710    1.4640   21.4730 C   0  0  0  0  0  0  0  0  0  0  0  0
    6.4500    0.2950   18.0240 N   0  0  0  0  0  0  0  0  0  0  0  0
    5.3450    1.0740   17.8540 C   0  0  0  0  0  0  0  0  0  0  0  0
    4.5520    1.4950   18.8790 C   0  0  0  0  0  0  0  0  0  0  0  0
    4.9740    1.0550   20.2660 C   0  0  0  0  0  0  0  0  0  0  0  0
    6.2030    0.2110   20.4100 C   0  0  0  0  0  0  0  0  0  0  0  0
    6.9120   -0.1540   19.2420 C   0  0  0  0  0  0  0  0  0  0  0  0
   10.3150   -2.6240   21.7940 C   0  0  0  0  0  0  0  0  0  0  0  0
   11.3860   -2.5150   22.5420 C   0  0  0  0  0  0  0  0  0  0  0  0
   11.4310   -2.0370   23.8040 C   0  0  0  0  0  0  0  0  0  0  0  0
    9.9320   -1.6790   24.0820 C   0  0  0  0  0  0  0  0  0  0  0  0
    8.7050   -1.7420   23.3940 C   0  0  0  0  0  0  0  0  0  0  0  0
    9.1360   -2.2600   22.2270 C   0  0  0  0  0  0  0  0  0  0  0  0
   13.2960   -1.8060   21.0360 Cl  0  0  0  0  0  0  0  0  0  0  0  0
   13.1150   -0.9380   22.4800 C   0  0  0  0  0  0  0  0  0  0  0  0
  2  4  1  0
  1  7  1  0
  3  7  2  0
  4  7  1  0
  1  9  1  0
  5 10  1  0
  6 10  2  0
  9 10  1  6
  5 11  1  0
 11 12  1  0
  8 13  1  0
 12 13  1  0
  8 14  1  0
 15 16  1  0
 15 17  1  0
 15 18  1  0
  1 19  1  0
 21 22  2  0
 22 23  1  0
 20 24  1  0
 23 24  2  0
  9 25  1  0
 24 25  1  0
 21 26  1  0
 25 26  2  0
 27 28  2  0
 15 29  1  0
 28 29  1  0
 29 30  2  0
 19 31  1  0
 30 31  1  0
 27 32  1  0
 31 32  2  0
 16 34  1  0
 33 34  1  0
M  END
