x2646-x0981
     RDKit          3D

 36 37  0  0  0  0  0  0  0  0999 V2000
    1.2730   -8.6520   21.4530 C   0  0  0  0  0  0  0  0  0  0  0  0
    2.7760   -7.1660   22.8450 N   0  0  0  0  0  0  0  0  0  0  0  0
    0.5860   -6.5950   22.2160 O   0  0  0  0  0  0  0  0  0  0  0  0
    1.5500   -7.3730   22.2320 C   0  0  0  0  0  0  0  0  0  0  0  0
    2.4560   -8.2590   26.3460 N   0  0  0  0  0  0  0  0  0  0  0  0
    3.9830   -8.1500   24.5710 O   0  0  0  0  0  0  0  0  0  0  0  0
    3.0590   -5.9760   23.5230 C   0  0  1  0  0  0  0  0  0  0  0  0
    5.2000   -5.6760   22.1650 N   0  0  0  0  0  0  0  0  0  0  0  0
    5.0160   -4.7540   24.2130 O   0  0  0  0  0  0  0  0  0  0  0  0
    2.8150   -6.1530   25.0010 C   0  0  0  0  0  0  0  0  0  0  0  0
    3.1430   -7.6310   25.2850 C   0  0  0  0  0  0  0  0  0  0  0  0
    4.5150   -5.4260   23.3200 C   0  0  0  0  0  0  0  0  0  0  0  0
    6.4100   -5.0890   21.8440 C   0  0  1  0  0  0  0  0  0  0  0  0
    6.5220   -5.1750   20.3410 C   0  0  0  0  0  0  0  0  0  0  0  0
    5.6880   -6.2810   19.7920 C   0  0  0  0  0  0  0  0  0  0  0  0
    4.5430    1.2220   21.4370 C   0  0  0  0  0  0  0  0  0  0  0  0
    8.6680    1.0620   21.2760 O   0  0  0  0  0  0  0  0  0  0  0  0
   13.1730   -2.6440   21.2630 Cl  0  0  0  0  0  0  0  0  0  0  0  0
    6.9640   -0.6800   21.0830 N   0  0  0  0  0  0  0  0  0  0  0  0
    8.1220   -0.1280   21.6580 C   0  0  0  0  0  0  0  0  0  0  0  0
    8.6680   -0.9070   22.6670 C   0  0  0  0  0  0  0  0  0  0  0  0
    6.5920   -3.6780   22.4280 C   0  0  0  0  0  0  0  0  0  0  0  0
    5.8150   -2.7090   21.7890 C   0  0  0  0  0  0  0  0  0  0  0  0
    6.1130   -1.3810   22.0700 C   0  0  0  0  0  0  0  0  0  0  0  0
    6.3430    0.6340   17.6130 N   0  0  0  0  0  0  0  0  0  0  0  0
    6.8590   -0.0390   18.6720 C   0  0  0  0  0  0  0  0  0  0  0  0
    6.3900    0.0150   20.0920 C   0  0  0  0  0  0  0  0  0  0  0  0
    5.1910    0.9710   20.2130 C   0  0  0  0  0  0  0  0  0  0  0  0
    4.7370    1.6070   19.0650 C   0  0  0  0  0  0  0  0  0  0  0  0
    5.2990    1.4410   17.8070 C   0  0  0  0  0  0  0  0  0  0  0  0
   10.7080    0.4010   23.2620 C   0  0  0  0  0  0  0  0  0  0  0  0
   12.1060    0.6040   23.2740 C   0  0  0  0  0  0  0  0  0  0  0  0
   12.9030   -0.3540   22.6550 C   0  0  0  0  0  0  0  0  0  0  0  0
   12.3040   -1.4450   22.0610 C   0  0  0  0  0  0  0  0  0  0  0  0
   10.9520   -1.6190   22.0730 C   0  0  0  0  0  0  0  0  0  0  0  0
   10.1430   -0.7020   22.6720 C   0  0  0  0  0  0  0  0  0  0  0  0
  1  4  1  0
  2  4  1  0
  3  4  2  0
  2  7  1  0
  7 10  1  1
  5 11  1  0
  6 11  2  0
 10 11  1  0
  7 12  1  0
  8 12  1  0
  9 12  2  0
  8 13  1  0
 13 14  1  6
 14 15  2  3
 17 20  2  0
 19 20  1  0
 20 21  1  0
 13 22  1  0
 22 23  1  0
 19 24  1  0
 23 24  1  0
 25 26  2  0
 19 27  1  0
 26 27  1  0
 16 28  1  0
 27 28  2  0
 28 29  1  0
 25 30  1  0
 29 30  2  0
 31 32  2  0
 32 33  1  0
 18 34  1  0
 33 34  2  0
 34 35  1  0
 21 36  1  0
 31 36  1  0
 35 36  2  0
M  END
