x2643-x2052
     RDKit          3D

 36 40  0  0  0  0  0  0  0  0999 V2000
    6.0870   -1.7340   25.1200 C   0  0  0  0  0  0  0  0  0  0  0  0
    4.8610   -1.6620   25.0620 O   0  0  0  0  0  0  0  0  0  0  0  0
    6.9010   -1.0320   26.1160 N   0  0  0  0  0  0  0  0  0  0  0  0
    5.2610   -4.5400   19.8820 O   0  0  0  0  0  0  0  0  0  0  0  0
    5.2330    2.1710   30.4100 O   0  0  0  0  0  0  0  0  0  0  0  0
    6.0260   -3.6200   20.1460 C   0  0  0  0  0  0  0  0  0  0  0  0
    6.9570   -3.0830   19.0700 C   0  0  0  0  0  0  0  0  0  0  0  0
    6.1380    3.2510   30.6230 C   0  0  0  0  0  0  0  0  0  0  0  0
    6.8580   -0.7450   21.0040 N   0  0  0  0  0  0  0  0  0  0  0  0
    8.7100    0.7060   21.3490 O   0  0  0  0  0  0  0  0  0  0  0  0
   13.3880    0.1240   23.2060 Cl  0  0  0  0  0  0  0  0  0  0  0  0
    8.3320   -1.3020   22.4900 C   0  0  2  0  0  0  0  0  0  0  0  0
    8.0490   -0.3030   21.5680 C   0  0  0  0  0  0  0  0  0  0  0  0
    6.0680   -3.0950   21.4370 N   0  0  0  0  0  0  0  0  0  0  0  0
    6.9350   -2.1040   21.6290 C   0  0  2  0  0  0  0  0  0  0  0  0
    7.0300   -1.6310   22.9380 C   0  0  1  0  0  0  0  0  0  0  0  0
    6.8020   -2.6000   24.1030 C   0  0  2  0  0  0  0  0  0  0  0  0
    6.0130   -3.7040   23.7330 C   0  0  0  0  0  0  0  0  0  0  0  0
    6.2380   -4.0490   22.3890 C   0  0  0  0  0  0  0  0  0  0  0  0
    6.2720    1.9120   28.3210 N   0  0  0  0  0  0  0  0  0  0  0  0
    6.6640    1.1270   27.2900 C   0  0  0  0  0  0  0  0  0  0  0  0
    6.4620   -0.2300   27.2050 C   0  0  0  0  0  0  0  0  0  0  0  0
    5.7830   -0.8440   28.2720 C   0  0  0  0  0  0  0  0  0  0  0  0
    5.3430   -0.0810   29.3780 C   0  0  0  0  0  0  0  0  0  0  0  0
    5.6220    1.3030   29.3450 C   0  0  0  0  0  0  0  0  0  0  0  0
   11.8170   -0.2930   23.5370 C   0  0  0  0  0  0  0  0  0  0  0  0
   11.1530   -0.3880   24.7440 C   0  0  0  0  0  0  0  0  0  0  0  0
    9.8220   -0.7490   24.5530 C   0  0  0  0  0  0  0  0  0  0  0  0
    9.5280   -0.9320   23.2130 C   0  0  0  0  0  0  0  0  0  0  0  0
   10.8400   -0.6730   22.1920 S   0  0  0  0  0  0  0  0  0  0  0  0
    6.3600    0.6190   17.6500 N   0  0  0  0  0  0  0  0  0  0  0  0
    6.9160   -0.0450   18.6590 C   0  0  0  0  0  0  0  0  0  0  0  0
    6.2920   -0.1010   19.8940 C   0  0  0  0  0  0  0  0  0  0  0  0
    5.0550    0.5130   20.1400 C   0  0  0  0  0  0  0  0  0  0  0  0
    4.4700    1.2070   19.0730 C   0  0  0  0  0  0  0  0  0  0  0  0
    5.1290    1.2560   17.8520 C   0  0  0  0  0  0  0  0  0  0  0  0
  1  2  2  0
  1  3  1  0
  4  6  2  0
  6  7  1  0
  5  8  1  0
  9 13  1  0
 10 13  2  0
 12 13  1  0
  6 14  1  0
 15  9  1  6
 14 15  1  0
 16 12  1  1
 15 16  1  0
 17  1  1  1
 16 17  1  0
 17 18  1  0
 14 19  1  0
 18 19  1  0
 20 21  2  0
  3 22  1  0
 21 22  1  0
 22 23  2  0
 23 24  1  0
  5 25  1  0
 20 25  1  0
 24 25  2  0
 11 26  1  0
 26 27  2  0
 27 28  1  0
 12 29  1  1
 28 29  2  0
 26 30  1  0
 29 30  1  0
 31 32  2  0
  9 33  1  0
 32 33  1  0
 33 34  2  0
 34 35  1  0
 31 36  1  0
 35 36  2  0
M  END
