x2646-x0734
     RDKit          3D

 37 40  0  0  0  0  0  0  0  0999 V2000
    4.9210   -4.8440   26.1210 N   0  0  0  0  0  0  0  0  0  0  0  0
    4.2870   -5.6850   25.4690 O   0  0  0  0  0  0  0  0  0  0  0  0
    4.4270   -3.8500   26.6760 O   0  0  0  0  0  0  0  0  0  0  0  0
    4.9740   -4.1600   19.6010 O   0  0  0  0  0  0  0  0  0  0  0  0
    6.0530   -3.7610   19.9690 C   0  0  0  0  0  0  0  0  0  0  0  0
    7.0370   -3.0860   19.0090 C   0  0  0  0  0  0  0  0  0  0  0  0
    4.7950    1.2060   21.6770 C   0  0  0  0  0  0  0  0  0  0  0  0
    8.7360    0.9220   21.4290 O   0  0  0  0  0  0  0  0  0  0  0  0
   13.3040   -2.0010   21.1590 Cl  0  0  0  0  0  0  0  0  0  0  0  0
    7.0160   -0.5700   21.1560 N   0  0  0  0  0  0  0  0  0  0  0  0
    8.1610   -0.1150   21.7590 C   0  0  0  0  0  0  0  0  0  0  0  0
    8.7200   -0.9890   22.9040 C   0  0  1  0  0  0  0  0  0  0  0  0
    8.4170   -2.4810   22.7290 C   0  0  0  0  0  0  0  0  0  0  0  0
    6.3980   -5.0150   26.2220 C   0  0  0  0  0  0  0  0  0  0  0  0
    7.4170   -4.7660   25.0960 C   0  0  0  0  0  0  0  0  0  0  0  0
    8.8760   -4.9950   25.4280 C   0  0  0  0  0  0  0  0  0  0  0  0
    9.2600   -5.4840   26.8270 C   0  0  0  0  0  0  0  0  0  0  0  0
    8.2780   -5.6900   27.7880 C   0  0  0  0  0  0  0  0  0  0  0  0
    6.9220   -5.4820   27.5650 C   0  0  0  0  0  0  0  0  0  0  0  0
    6.4180   -3.9410   21.2760 N   0  0  0  0  0  0  0  0  0  0  0  0
    6.4110   -5.3040   21.7670 C   0  0  0  0  0  0  0  0  0  0  0  0
    6.1890   -5.3260   23.1270 C   0  0  0  0  0  0  0  0  0  0  0  0
    7.0730   -4.3700   23.8230 N   0  0  0  0  0  0  0  0  0  0  0  0
    7.0690   -2.9630   23.3220 C   0  0  2  0  0  0  0  0  0  0  0  0
    6.1460   -2.9440   22.3060 C   0  0  0  0  0  0  0  0  0  0  0  0
    6.2780    0.5830   17.6310 N   0  0  0  0  0  0  0  0  0  0  0  0
    6.8680   -0.0710   18.6490 C   0  0  0  0  0  0  0  0  0  0  0  0
    6.4090    0.0930   20.0800 C   0  0  0  0  0  0  0  0  0  0  0  0
    5.3400    0.9530   20.3090 C   0  0  0  0  0  0  0  0  0  0  0  0
    4.7540    1.6130   19.2120 C   0  0  0  0  0  0  0  0  0  0  0  0
    5.2510    1.3990   17.9210 C   0  0  0  0  0  0  0  0  0  0  0  0
   10.6950    0.3120   23.8600 C   0  0  0  0  0  0  0  0  0  0  0  0
   12.0660    0.5760   23.8730 C   0  0  0  0  0  0  0  0  0  0  0  0
   12.9050   -0.1280   23.0440 C   0  0  0  0  0  0  0  0  0  0  0  0
   12.3640   -1.0870   22.2180 C   0  0  0  0  0  0  0  0  0  0  0  0
   11.0280   -1.3530   22.1950 C   0  0  0  0  0  0  0  0  0  0  0  0
   10.1750   -0.6610   23.0060 C   0  0  0  0  0  0  0  0  0  0  0  0
  1  2  2  0
  1  3  1  0
  4  5  2  0
  5  6  1  0
  8 11  2  0
 10 11  1  0
 11 12  1  0
 12 13  1  6
  1 14  1  0
 14 15  2  0
 15 16  1  0
 16 17  2  0
 17 18  1  0
 14 19  1  0
 18 19  2  0
  5 20  1  0
 20 21  1  0
 21 22  1  0
 15 23  1  0
 22 23  1  0
 24 13  1  6
 23 24  1  0
 20 25  1  0
 24 25  1  0
 26 27  2  0
 10 28  1  0
 27 28  1  0
  7 29  1  0
 28 29  2  0
 29 30  1  0
 26 31  1  0
 30 31  2  0
 32 33  2  0
 33 34  1  0
  9 35  1  0
 34 35  2  0
 35 36  1  0
 12 37  1  0
 32 37  1  0
 36 37  2  0
M  CHG  2   1   1   3  -1
M  END
