x2649-x0995
     RDKit          3D

 20 21  0  0  0  0  0  0  0  0999 V2000
    6.8080   -0.6360   21.1760 N   0  0  0  0  0  0  0  0  0  0  0  0
    8.0030   -1.2820   24.0860 C   0  0  0  0  0  0  0  0  0  0  0  0
    8.6310    0.8290   21.5220 O   0  0  0  0  0  0  0  0  0  0  0  0
   13.2830   -2.4340   21.1120 Cl  0  0  0  0  0  0  0  0  0  0  0  0
    8.6640   -1.2480   22.7160 C   0  0  1  0  0  0  0  0  0  0  0  0
    8.0600   -0.2340   21.7680 C   0  0  0  0  0  0  0  0  0  0  0  0
    5.0060    0.6600   21.3370 C   0  0  0  0  0  0  0  0  0  0  0  0
    3.3650    2.4460   19.1000 N   0  0  0  0  0  0  0  0  0  0  0  0
    6.4200    0.6080   17.6140 N   0  0  0  0  0  0  0  0  0  0  0  0
    5.1910    1.4960   17.7120 C   0  0  0  0  0  0  0  0  0  0  0  0
    4.5560    1.6210   18.9480 C   0  0  0  0  0  0  0  0  0  0  0  0
    5.1060    0.9420   19.9720 C   0  0  0  0  0  0  0  0  0  0  0  0
    6.3330    0.0280   19.9640 C   0  0  0  0  0  0  0  0  0  0  0  0
    6.9800   -0.1360   18.7640 C   0  0  0  0  0  0  0  0  0  0  0  0
   10.5940    0.2030   23.3400 C   0  0  0  0  0  0  0  0  0  0  0  0
   11.9590    0.5080   23.3020 C   0  0  0  0  0  0  0  0  0  0  0  0
   12.8720   -0.2700   22.6450 C   0  0  0  0  0  0  0  0  0  0  0  0
   12.3540   -1.3870   22.0030 C   0  0  0  0  0  0  0  0  0  0  0  0
   11.0270   -1.6970   22.0410 C   0  0  0  0  0  0  0  0  0  0  0  0
   10.1270   -0.9280   22.6960 C   0  0  0  0  0  0  0  0  0  0  0  0
  5  2  1  1
  1  6  1  0
  3  6  2  0
  5  6  1  0
  9 10  2  0
  8 11  1  0
 10 11  1  0
  7 12  1  0
 11 12  2  0
  1 13  1  0
 12 13  1  0
  9 14  1  0
 13 14  2  0
 15 16  2  0
 16 17  1  0
  4 18  1  0
 17 18  2  0
 18 19  1  0
  5 20  1  0
 15 20  1  0
 19 20  2  0
M  END
