x2649-x2705
     RDKit          3D

 34 36  0  0  0  0  0  0  0  0999 V2000
    7.0110   -1.5730   21.8130 N   0  0  0  0  0  0  0  0  0  0  0  0
    6.8980   -4.8350   20.5270 C   0  0  0  0  0  0  0  0  0  0  0  0
    4.8740   -3.0610   21.2460 O   0  0  0  0  0  0  0  0  0  0  0  0
    7.0090   -4.0100   21.8000 C   0  0  0  0  0  0  0  0  0  0  0  0
    7.3620    1.8550   22.9260 N   0  0  0  0  0  0  0  0  0  0  0  0
    8.7460    0.7930   21.4460 O   0  0  0  0  0  0  0  0  0  0  0  0
    6.1710   -2.7940   21.5920 C   0  0  0  0  0  0  0  0  0  0  0  0
    6.5690   -0.1310   21.7640 C   0  0  1  0  0  0  0  0  0  0  0  0
    7.6460    0.8200   22.0080 C   0  0  0  0  0  0  0  0  0  0  0  0
   10.0970    1.9700   24.0260 C   0  0  0  0  0  0  0  0  0  0  0  0
    9.2160    1.3600   24.9240 C   0  0  0  0  0  0  0  0  0  0  0  0
    6.0740    4.3250   21.8680 C   0  0  0  0  0  0  0  0  0  0  0  0
   11.9120   -1.5470   23.2200 C   0  0  0  0  0  0  0  0  0  0  0  0
   12.4260   -0.2870   23.5460 C   0  0  0  0  0  0  0  0  0  0  0  0
   12.4450   -2.5360   24.2900 C   0  0  0  0  0  0  0  0  0  0  0  0
   12.6410   -1.8660   21.9330 C   0  0  0  0  0  0  0  0  0  0  0  0
    4.1590    1.7120   21.2970 C   0  0  0  0  0  0  0  0  0  0  0  0
    6.3710    0.2960   17.7880 N   0  0  0  0  0  0  0  0  0  0  0  0
    5.2740    1.1480   17.7450 C   0  0  0  0  0  0  0  0  0  0  0  0
    4.6530    1.5240   18.8910 C   0  0  0  0  0  0  0  0  0  0  0  0
    5.0140    1.1430   20.1550 C   0  0  0  0  0  0  0  0  0  0  0  0
    6.0960    0.3020   20.3320 C   0  0  0  0  0  0  0  0  0  0  0  0
    6.7880   -0.1260   18.9960 C   0  0  0  0  0  0  0  0  0  0  0  0
    9.6610   -1.7260   24.3060 N   0  0  0  0  0  0  0  0  0  0  0  0
    8.3840   -1.7320   23.8360 N   0  0  0  0  0  0  0  0  0  0  0  0
    8.3070   -1.6190   22.4790 C   0  0  0  0  0  0  0  0  0  0  0  0
    9.6260   -1.5390   22.0140 C   0  0  0  0  0  0  0  0  0  0  0  0
   10.4080   -1.6070   23.1840 C   0  0  0  0  0  0  0  0  0  0  0  0
    9.4530    3.2410   23.5110 C   0  0  0  0  0  0  0  0  0  0  0  0
   10.3530    4.3580   23.6680 C   0  0  0  0  0  0  0  0  0  0  0  0
    9.4360    5.4850   23.0610 C   0  0  0  0  0  0  0  0  0  0  0  0
    8.1520    5.4330   22.5290 C   0  0  0  0  0  0  0  0  0  0  0  0
    7.4520    4.2750   22.4640 C   0  0  0  0  0  0  0  0  0  0  0  0
    8.0810    3.1580   22.9530 C   0  0  0  0  0  0  0  0  0  0  0  0
  2  4  1  0
  1  7  1  0
  3  7  2  0
  4  7  1  0
  1  8  1  0
  5  9  1  0
  6  9  2  0
  8  9  1  6
 10 11  1  0
 13 14  1  0
 13 15  1  0
 13 16  1  0
 18 19  2  0
 19 20  1  0
 17 21  1  0
 20 21  2  0
  8 22  1  0
 21 22  1  0
 18 23  1  0
 22 23  2  0
 24 25  1  0
  1 26  1  0
 25 26  1  0
 26 27  2  0
 13 28  1  0
 24 28  2  0
 27 28  1  0
 10 29  1  0
 29 30  2  0
 30 31  1  0
 31 32  2  0
 12 33  1  0
 32 33  1  0
  5 34  1  0
 29 34  1  0
 33 34  2  0
M  END
