x2649-x0786
     RDKit          3D

 39 42  0  0  0  0  0  0  0  0999 V2000
    6.8110   -0.3730   21.0690 N   0  0  0  0  0  0  0  0  0  0  0  0
    8.0200   -1.0880   23.8960 C   0  0  0  0  0  0  0  0  0  0  0  0
    8.6540    1.0760   21.4920 O   0  0  0  0  0  0  0  0  0  0  0  0
   13.2530   -2.7860   21.0670 Cl  0  0  0  0  0  0  0  0  0  0  0  0
    8.6220   -1.1090   22.5010 C   0  0  2  0  0  0  0  0  0  0  0  0
    8.0690    0.0080   21.6560 C   0  0  0  0  0  0  0  0  0  0  0  0
    4.6400    1.4270   21.4910 C   0  0  0  0  0  0  0  0  0  0  0  0
    6.2790   -3.6720   21.9610 N   0  0  0  0  0  0  0  0  0  0  0  0
    7.1040   -5.1950   20.1880 C   0  0  0  0  0  0  0  0  0  0  0  0
    5.1680   -4.1760   19.8400 O   0  0  0  0  0  0  0  0  0  0  0  0
    6.0750   -4.2990   20.6820 C   0  0  0  0  0  0  0  0  0  0  0  0
    3.6800   -8.2170   24.8820 O   0  0  0  0  0  0  0  0  0  0  0  0
    3.1340   -7.0880   24.2380 C   0  0  0  0  0  0  0  0  0  0  0  0
    8.2780   -2.4050   21.8040 C   0  0  0  0  0  0  0  0  0  0  0  0
    7.5890   -3.3420   22.5530 C   0  0  0  0  0  0  0  0  0  0  0  0
    6.1960    0.7170   17.5630 N   0  0  0  0  0  0  0  0  0  0  0  0
    5.1680    1.5870   17.7270 C   0  0  0  0  0  0  0  0  0  0  0  0
    4.6780    1.7950   19.0210 C   0  0  0  0  0  0  0  0  0  0  0  0
    5.2020    1.1570   20.1310 C   0  0  0  0  0  0  0  0  0  0  0  0
    6.2370    0.2970   19.9170 C   0  0  0  0  0  0  0  0  0  0  0  0
    6.7260    0.0740   18.6710 C   0  0  0  0  0  0  0  0  0  0  0  0
   10.6610    0.2380   23.1870 C   0  0  0  0  0  0  0  0  0  0  0  0
   12.0570    0.4480   23.1980 C   0  0  0  0  0  0  0  0  0  0  0  0
   12.9260   -0.4010   22.6010 C   0  0  0  0  0  0  0  0  0  0  0  0
   12.3750   -1.6320   21.8830 C   0  0  0  0  0  0  0  0  0  0  0  0
   10.9010   -1.8110   21.9020 C   0  0  0  0  0  0  0  0  0  0  0  0
   10.1080   -0.8930   22.5370 C   0  0  0  0  0  0  0  0  0  0  0  0
    5.5170   -4.0690   23.0470 C   0  0  0  0  0  0  0  0  0  0  0  0
    4.7920   -5.2910   23.0420 C   0  0  0  0  0  0  0  0  0  0  0  0
    3.9720   -5.8240   24.0910 C   0  0  0  0  0  0  0  0  0  0  0  0
    4.1180   -4.7220   25.1750 C   0  0  0  0  0  0  0  0  0  0  0  0
    4.8230   -3.5580   25.1560 C   0  0  0  0  0  0  0  0  0  0  0  0
    5.5430   -3.1800   24.1080 C   0  0  0  0  0  0  0  0  0  0  0  0
    1.2740   -5.7050   23.2740 C   0  0  0  0  0  0  0  0  0  0  0  0
    0.4160   -5.1640   24.1780 C   0  0  0  0  0  0  0  0  0  0  0  0
   -1.0280   -6.2270   24.4850 S   0  0  0  0  0  0  0  0  0  0  0  0
   -0.1130   -7.7220   24.9860 C   0  0  0  0  0  0  0  0  0  0  0  0
    0.7610   -8.0830   23.9610 C   0  0  0  0  0  0  0  0  0  0  0  0
    1.7550   -7.0370   23.6850 N   0  0  0  0  0  0  0  0  0  0  0  0
  5  2  1  1
  1  6  1  0
  3  6  2  0
  5  6  1  0
  8 11  1  0
  9 11  1  0
 10 11  2  0
 12 13  2  0
  5 14  1  0
  8 15  1  0
 14 15  1  0
 16 17  2  0
 17 18  1  0
  7 19  1  0
 18 19  2  0
  1 20  1  0
 19 20  1  0
 16 21  1  0
 20 21  2  0
 22 23  2  0
 23 24  1  0
  4 25  1  0
 24 25  2  0
 25 26  1  0
  5 27  1  0
 22 27  1  0
 26 27  2  0
  8 28  1  0
 28 29  2  0
 13 30  1  0
 29 30  1  0
 30 31  2  0
 31 32  1  0
 28 33  1  0
 32 33  2  0
 34 35  1  0
 35 36  1  0
 36 37  1  0
 37 38  1  0
 13 39  1  0
 34 39  1  0
 38 39  1  0
M  END
