x2649-x2776-x0820-x2694
     RDKit          3D

 47 52  0  0  0  0  0  0  0  0999 V2000
    7.4140   -1.9420   21.4320 C   0  0  2  0  0  0  0  0  0  0  0  0
    6.7790   -3.4090   19.7430 C   0  0  0  0  0  0  0  0  0  0  0  0
    4.8600   -3.1310   21.3020 O   0  0  0  0  0  0  0  0  0  0  0  0
    6.5100   -3.7300   20.8980 C   0  0  2  0  0  0  0  0  0  0  0  0
    7.7020    1.8360   22.7250 N   0  0  0  0  0  0  0  0  0  0  0  0
    9.3930    0.5760   21.4990 O   0  0  0  0  0  0  0  0  0  0  0  0
    5.8900   -2.4370   21.4370 C   0  0  0  0  0  0  0  0  0  0  0  0
   10.6480    6.5500   23.7930 O   0  0  0  0  0  0  0  0  0  0  0  0
    6.9650   -0.3620   21.5480 C   0  0  1  0  0  0  0  0  0  0  0  0
   12.4710   -2.7760   24.7920 O   0  0  0  0  0  0  0  0  0  0  0  0
    8.0810    0.7200   21.9420 C   0  0  0  0  0  0  0  0  0  0  0  0
   10.5000    1.6460   23.7580 C   0  0  0  0  0  0  0  0  0  0  0  0
   11.7500    6.5270   24.7130 C   0  0  0  0  0  0  0  0  0  0  0  0
   13.0490   -1.8810   23.8500 C   0  0  2  0  0  0  0  0  0  0  0  0
   12.9220   -0.4430   24.3000 C   0  0  0  0  0  0  0  0  0  0  0  0
   13.3380   -3.2880   25.7590 C   0  0  0  0  0  0  0  0  0  0  0  0
   12.2870   -2.0330   22.5580 C   0  0  0  0  0  0  0  0  0  0  0  0
    4.5600    1.4780   21.5360 C   0  0  0  0  0  0  0  0  0  0  0  0
    7.2310   -3.3940   22.2180 C   0  0  2  0  0  0  0  0  0  0  0  0
    6.3740    0.3690   17.8010 N   0  0  0  0  0  0  0  0  0  0  0  0
    5.3060    1.1810   17.8810 C   0  0  0  0  0  0  0  0  0  0  0  0
    4.7050    1.5460   19.0590 C   0  0  0  0  0  0  0  0  0  0  0  0
    5.2240    1.0580   20.2600 C   0  0  0  0  0  0  0  0  0  0  0  0
    6.3300    0.2080   20.2620 C   0  0  0  0  0  0  0  0  0  0  0  0
    6.8730   -0.1080   18.9540 C   0  0  0  0  0  0  0  0  0  0  0  0
    9.8030    2.9490   23.4850 C   0  0  0  0  0  0  0  0  0  0  0  0
   10.5390    4.0940   23.7450 C   0  0  0  0  0  0  0  0  0  0  0  0
   10.0020    5.3550   23.5460 C   0  0  0  0  0  0  0  0  0  0  0  0
    8.7270    5.4420   23.0690 C   0  0  0  0  0  0  0  0  0  0  0  0
    7.9510    4.2980   22.7860 C   0  0  0  0  0  0  0  0  0  0  0  0
    8.4710    3.0370   22.9920 C   0  0  0  0  0  0  0  0  0  0  0  0
    9.8670   -1.9810   22.0380 C   0  0  0  0  0  0  0  0  0  0  0  0
   10.8570   -1.8170   22.9320 C   0  0  0  0  0  0  0  0  0  0  0  0
   10.6000   -1.4430   24.2390 C   0  0  0  0  0  0  0  0  0  0  0  0
    9.3130   -1.2370   24.6140 C   0  0  0  0  0  0  0  0  0  0  0  0
    8.3120   -1.3980   23.7080 C   0  0  0  0  0  0  0  0  0  0  0  0
    8.5520   -1.7610   22.4400 C   0  0  0  0  0  0  0  0  0  0  0  0
    6.3920   -3.7450   23.6270 C   0  0  0  0  0  0  0  0  0  0  0  0
    6.9540   -3.9730   24.9250 C   0  0  0  0  0  0  0  0  0  0  0  0
    6.0830   -4.2640   26.0070 C   0  0  0  0  0  0  0  0  0  0  0  0
    4.7020   -4.3350   25.8160 C   0  0  0  0  0  0  0  0  0  0  0  0
    4.1720   -4.1230   24.5870 C   0  0  0  0  0  0  0  0  0  0  0  0
    4.9970   -3.8330   23.5090 C   0  0  0  0  0  0  0  0  0  0  0  0
    6.5770   -4.4950   27.3080 C   0  0  0  0  0  0  0  0  0  0  0  0
    7.9400   -4.4460   27.5580 C   0  0  0  0  0  0  0  0  0  0  0  0
    8.8010   -4.1780   26.5680 C   0  0  0  0  0  0  0  0  0  0  0  0
    8.3350   -3.9400   25.2590 C   0  0  0  0  0  0  0  0  0  0  0  0
  4  2  1  6
  1  7  1  0
  3  7  2  0
  4  7  1  0
  1  9  1  0
  5 11  1  0
  6 11  2  0
  9 11  1  6
  8 13  1  0
 10 14  1  0
 14 15  1  1
 10 16  1  0
 14 17  1  0
  1 19  1  0
  4 19  1  0
 20 21  2  0
 21 22  1  0
 18 23  1  0
 22 23  2  0
  9 24  1  0
 23 24  1  0
 20 25  1  0
 24 25  2  0
 12 26  1  0
 26 27  2  0
  8 28  1  0
 27 28  1  0
 28 29  2  0
 29 30  1  0
  5 31  1  0
 26 31  1  0
 30 31  2  0
 17 33  1  0
 32 33  2  0
 33 34  1  0
 34 35  2  0
 35 36  1  0
  1 37  1  6
 32 37  1  0
 36 37  2  0
 19 38  1  1
 38 39  2  0
 39 40  1  0
 40 41  2  0
 41 42  1  0
 38 43  1  0
 42 43  2  0
 40 44  1  0
 44 45  2  0
 45 46  1  0
 39 47  1  0
 46 47  2  0
M  END
