x2649-x0770
     RDKit          3D

 29 32  0  0  0  0  0  0  0  0999 V2000
    7.2400   -0.2140   23.6900 C   0  0  0  0  0  0  0  0  0  0  0  0
    9.5910   -0.1620   21.2540 O   0  0  0  0  0  0  0  0  0  0  0  0
   13.2870   -2.0020   21.0520 Cl  0  0  0  0  0  0  0  0  0  0  0  0
    8.6000   -0.7820   21.5830 C   0  0  0  0  0  0  0  0  0  0  0  0
    7.4980   -3.0990   18.8360 C   0  0  0  0  0  0  0  0  0  0  0  0
    5.5960   -4.1160   19.7970 O   0  0  0  0  0  0  0  0  0  0  0  0
    6.6330   -3.4400   20.0090 C   0  0  0  0  0  0  0  0  0  0  0  0
    9.3510   -2.2930   24.1470 C   0  0  0  0  0  0  0  0  0  0  0  0
   10.7580   -0.2690   24.3080 C   0  0  0  0  0  0  0  0  0  0  0  0
   11.8440    0.5060   23.9270 C   0  0  0  0  0  0  0  0  0  0  0  0
   12.7320   -0.0630   22.8200 C   0  0  0  0  0  0  0  0  0  0  0  0
   12.3820   -1.2890   22.2790 C   0  0  0  0  0  0  0  0  0  0  0  0
   11.2740   -1.9890   22.7190 C   0  0  0  0  0  0  0  0  0  0  0  0
   10.4530   -1.5080   23.7320 C   0  0  0  0  0  0  0  0  0  0  0  0
    7.1070   -3.0180   21.2610 N   0  0  0  0  0  0  0  0  0  0  0  0
    7.3480   -1.5720   21.4360 C   0  0  1  0  0  0  0  0  0  0  0  0
    7.7670   -1.2760   22.7550 C   0  0  2  0  0  0  0  0  0  0  0  0
    8.2680   -2.3760   23.2000 N   0  0  0  0  0  0  0  0  0  0  0  0
    7.3510   -3.4720   23.5230 C   0  0  0  0  0  0  0  0  0  0  0  0
    6.5000   -3.6330   22.4380 C   0  0  0  0  0  0  0  0  0  0  0  0
    4.5540    1.2410   21.4650 C   0  0  0  0  0  0  0  0  0  0  0  0
    5.8740    0.9220   17.5670 N   0  0  0  0  0  0  0  0  0  0  0  0
    5.0010    1.8820   17.8780 C   0  0  0  0  0  0  0  0  0  0  0  0
    4.4260    2.1320   19.2290 C   0  0  0  0  0  0  0  0  0  0  0  0
    4.9760    1.1510   20.1620 C   0  0  0  0  0  0  0  0  0  0  0  0
    5.8800    0.2020   19.6710 C   0  0  0  0  0  0  0  0  0  0  0  0
    6.4410   -0.0460   18.3460 C   0  0  0  0  0  0  0  0  0  0  0  0
    6.4070   -0.7630   20.6040 C   0  0  0  0  0  0  0  0  0  0  0  0
    6.9380   -1.0020   19.3400 C   0  0  0  0  0  0  0  0  0  0  0  0
  2  4  2  0
  5  7  1  0
  6  7  2  0
  9 10  2  0
 10 11  1  0
  3 12  1  0
 11 12  2  0
 12 13  1  0
  8 14  1  0
  9 14  1  0
 13 14  2  0
  7 15  1  0
  4 16  1  0
 15 16  1  0
 17  1  1  1
  4 17  1  0
 16 17  1  0
  8 18  1  0
 17 18  1  0
 18 19  1  0
 15 20  1  0
 19 20  1  0
 22 23  2  0
 23 24  1  0
 21 25  1  0
 24 25  2  0
 25 26  1  0
 22 27  1  0
 26 27  2  0
 16 28  1  6
 27 29  1  0
 28 29  1  0
M  END
