x2649-x3124
     RDKit          3D

 29 30  0  0  0  0  0  0  0  0999 V2000
    6.8650   -1.7910   22.1800 N   0  0  0  0  0  0  0  0  0  0  0  0
    6.6550   -4.8520   20.3690 C   0  0  0  0  0  0  0  0  0  0  0  0
    4.8160   -3.0750   21.3730 O   0  0  0  0  0  0  0  0  0  0  0  0
    6.7920   -4.2650   21.7690 C   0  0  0  0  0  0  0  0  0  0  0  0
    7.5970    1.4630   23.2430 N   0  0  0  0  0  0  0  0  0  0  0  0
    8.7000    0.7610   21.3620 O   0  0  0  0  0  0  0  0  0  0  0  0
    6.0610   -2.9610   21.7610 C   0  0  0  0  0  0  0  0  0  0  0  0
    6.6600   -0.3210   21.7270 C   0  0  1  0  0  0  0  0  0  0  0  0
    7.6990    0.5920   22.0620 C   0  0  0  0  0  0  0  0  0  0  0  0
    7.8630    2.8210   23.2310 C   0  0  0  0  0  0  0  0  0  0  0  0
   11.8440   -1.9040   24.5250 C   0  0  0  0  0  0  0  0  0  0  0  0
   12.0030   -0.7020   25.1960 C   0  0  0  0  0  0  0  0  0  0  0  0
   13.1650   -2.0100   23.7490 C   0  0  0  0  0  0  0  0  0  0  0  0
   11.7510   -3.1660   25.3960 C   0  0  0  0  0  0  0  0  0  0  0  0
    4.2520    1.1660   21.4730 C   0  0  0  0  0  0  0  0  0  0  0  0
    6.3630    0.1910   17.9290 N   0  0  0  0  0  0  0  0  0  0  0  0
    5.1810    0.9440   17.9210 C   0  0  0  0  0  0  0  0  0  0  0  0
    4.4800    1.2660   19.0680 C   0  0  0  0  0  0  0  0  0  0  0  0
    4.9630    0.8350   20.3120 C   0  0  0  0  0  0  0  0  0  0  0  0
    6.1450    0.0920   20.3540 C   0  0  0  0  0  0  0  0  0  0  0  0
    6.7800   -0.1930   19.1510 C   0  0  0  0  0  0  0  0  0  0  0  0
    9.7940   -1.1230   21.6010 C   0  0  0  0  0  0  0  0  0  0  0  0
   10.8390   -1.2620   22.4000 C   0  0  0  0  0  0  0  0  0  0  0  0
   10.6110   -1.7540   23.6060 C   0  0  0  0  0  0  0  0  0  0  0  0
    9.2570   -2.1000   23.9670 C   0  0  0  0  0  0  0  0  0  0  0  0
    7.9780   -2.0050   23.1950 C   0  0  0  0  0  0  0  0  0  0  0  0
    8.5390   -1.4780   22.0210 C   0  0  0  0  0  0  0  0  0  0  0  0
   13.3960   -1.6300   21.0670 Cl  0  0  0  0  0  0  0  0  0  0  0  0
   13.0300   -2.6660   22.4100 C   0  0  0  0  0  0  0  0  0  0  0  0
  2  4  1  0
  1  7  1  0
  3  7  2  0
  4  7  1  0
  1  8  1  0
  5  9  1  0
  6  9  2  0
  8  9  1  6
  5 10  1  0
 11 12  1  0
 11 13  1  0
 11 14  1  0
 16 17  2  0
 17 18  1  0
 15 19  1  0
 18 19  2  0
  8 20  1  0
 19 20  1  0
 16 21  1  0
 20 21  2  0
 22 23  2  0
 11 24  1  0
 23 24  1  0
 24 25  2  0
  1 26  1  0
 25 26  1  0
 22 27  1  0
 26 27  2  0
 13 29  1  0
 28 29  1  0
M  END
