x2643-x0692
     RDKit          3D

 27 30  0  0  0  0  0  0  0  0999 V2000
   10.2770    2.0000   24.2490 C   0  0  0  0  0  0  0  0  0  0  0  0
    5.4240   -4.0800   19.7400 O   0  0  0  0  0  0  0  0  0  0  0  0
    9.2390   -2.8480   23.8970 C   0  0  0  0  0  0  0  0  0  0  0  0
    6.2700   -3.1720   19.8320 C   0  0  0  0  0  0  0  0  0  0  0  0
    7.2460   -2.9430   18.6890 C   0  0  0  0  0  0  0  0  0  0  0  0
   13.5500    0.4680   22.7570 Cl  0  0  0  0  0  0  0  0  0  0  0  0
    8.1030    0.2660   22.7990 O   0  0  0  0  0  0  0  0  0  0  0  0
    8.1300   -0.7110   22.0700 C   0  0  0  0  0  0  0  0  0  0  0  0
   10.6550    0.5940   23.9140 C   0  0  0  0  0  0  0  0  0  0  0  0
    9.7550   -0.3790   24.1260 C   0  0  0  0  0  0  0  0  0  0  0  0
   10.1630   -1.6150   23.7720 C   0  0  0  0  0  0  0  0  0  0  0  0
   11.4220   -1.8570   23.2460 C   0  0  0  0  0  0  0  0  0  0  0  0
   12.5590   -0.8450   22.9520 C   0  0  0  0  0  0  0  0  0  0  0  0
   11.9080    0.3590   23.3870 C   0  0  0  0  0  0  0  0  0  0  0  0
    6.4050   -2.3560   20.9780 N   0  0  0  0  0  0  0  0  0  0  0  0
    7.5770   -1.5350   20.9300 C   0  0  2  0  0  0  0  0  0  0  0  0
    8.6810   -2.0270   21.5320 C   0  0  2  0  0  0  0  0  0  0  0  0
    8.5650   -3.0060   22.6240 N   0  0  0  0  0  0  0  0  0  0  0  0
    7.2570   -3.6360   22.8150 C   0  0  0  0  0  0  0  0  0  0  0  0
    6.1640   -2.8480   22.2780 C   0  0  0  0  0  0  0  0  0  0  0  0
    6.3140    0.4490   17.8390 N   0  0  0  0  0  0  0  0  0  0  0  0
    7.0200    0.0330   18.9400 C   0  0  0  0  0  0  0  0  0  0  0  0
    6.1790    0.5600   19.9900 C   0  0  0  0  0  0  0  0  0  0  0  0
    4.9870    1.2880   19.9910 C   0  0  0  0  0  0  0  0  0  0  0  0
    4.4180    1.6380   18.8480 C   0  0  0  0  0  0  0  0  0  0  0  0
    5.0940    1.2170   17.7800 C   0  0  0  0  0  0  0  0  0  0  0  0
    7.4050   -0.1640   20.2590 C   0  0  0  0  0  0  0  0  0  0  0  0
  2  4  2  0
  4  5  1  0
  7  8  2  0
  1  9  1  0
  9 10  2  0
  3 11  1  0
 10 11  1  0
 11 12  2  0
  6 13  1  0
 12 13  1  0
  9 14  1  0
 13 14  2  0
  4 15  1  0
  8 16  1  0
 15 16  1  0
 17  8  1  1
 16 17  1  0
  3 18  1  0
 17 18  1  0
 18 19  1  0
 15 20  1  0
 19 20  1  0
 21 22  2  0
 22 23  1  0
 23 24  2  0
 24 25  1  0
 21 26  1  0
 25 26  2  0
 16 27  1  6
 22 27  1  0
M  END
