x2646-x2703
     RDKit          3D

 37 39  0  0  0  0  0  0  0  0999 V2000
    6.9340   -1.7160   21.8620 N   0  0  0  0  0  0  0  0  0  0  0  0
    6.7180   -4.9310   20.4430 C   0  0  0  0  0  0  0  0  0  0  0  0
    4.8280   -3.0310   21.2480 O   0  0  0  0  0  0  0  0  0  0  0  0
    6.7810   -4.2180   21.7750 C   0  0  0  0  0  0  0  0  0  0  0  0
    7.3300    1.8670   22.8090 N   0  0  0  0  0  0  0  0  0  0  0  0
    8.8520    0.6640   21.5210 O   0  0  0  0  0  0  0  0  0  0  0  0
    6.0710   -2.9040   21.6020 C   0  0  0  0  0  0  0  0  0  0  0  0
    6.6180   -0.2760   21.6140 C   0  0  1  0  0  0  0  0  0  0  0  0
    7.7180    0.7830   21.9850 C   0  0  0  0  0  0  0  0  0  0  0  0
   10.0310    1.8700   24.0210 C   0  0  0  0  0  0  0  0  0  0  0  0
    9.1670    1.1970   25.1020 C   0  0  0  0  0  0  0  0  0  0  0  0
    6.1130    4.3280   21.7950 C   0  0  0  0  0  0  0  0  0  0  0  0
   12.1370   -1.9320   24.3920 C   0  0  0  0  0  0  0  0  0  0  0  0
   11.3170   -3.0650   25.0080 C   0  0  0  0  0  0  0  0  0  0  0  0
   12.3750   -0.6460   25.1670 C   0  0  0  0  0  0  0  0  0  0  0  0
    4.2290    1.6010   21.3700 C   0  0  0  0  0  0  0  0  0  0  0  0
    6.3030    0.3100   17.7520 N   0  0  0  0  0  0  0  0  0  0  0  0
    5.1620    1.2210   17.7580 C   0  0  0  0  0  0  0  0  0  0  0  0
    4.5580    1.5680   18.9590 C   0  0  0  0  0  0  0  0  0  0  0  0
    4.9920    1.1000   20.1920 C   0  0  0  0  0  0  0  0  0  0  0  0
    6.0650    0.2410   20.3040 C   0  0  0  0  0  0  0  0  0  0  0  0
    6.7560   -0.1870   19.0580 C   0  0  0  0  0  0  0  0  0  0  0  0
   10.6580   -1.9990   22.4280 N   0  0  0  0  0  0  0  0  0  0  0  0
   10.7410   -1.9240   23.7760 C   0  0  0  0  0  0  0  0  0  0  0  0
    9.5840   -1.8180   24.5360 C   0  0  0  0  0  0  0  0  0  0  0  0
    8.3060   -1.7630   23.9790 C   0  0  0  0  0  0  0  0  0  0  0  0
    8.1770   -1.8120   22.5890 C   0  0  0  0  0  0  0  0  0  0  0  0
    9.4030   -1.9390   21.8920 C   0  0  0  0  0  0  0  0  0  0  0  0
    9.3610    3.1510   23.4890 C   0  0  0  0  0  0  0  0  0  0  0  0
   10.0460    4.3580   23.5820 C   0  0  0  0  0  0  0  0  0  0  0  0
    9.4600    5.5250   23.1050 C   0  0  0  0  0  0  0  0  0  0  0  0
    8.1920    5.4890   22.5330 C   0  0  0  0  0  0  0  0  0  0  0  0
    7.4980    4.2800   22.4370 C   0  0  0  0  0  0  0  0  0  0  0  0
    8.0700    3.0880   22.9160 C   0  0  0  0  0  0  0  0  0  0  0  0
   13.1280   -2.1080   20.9600 Cl  0  0  0  0  0  0  0  0  0  0  0  0
   13.2130   -2.2340   23.4270 C   0  0  0  0  0  0  0  0  0  0  0  0
   13.1420   -1.2450   22.4740 C   0  0  0  0  0  0  0  0  0  0  0  0
  2  4  1  0
  1  7  1  0
  3  7  2  0
  4  7  1  0
  1  8  1  0
  5  9  1  0
  6  9  2  0
  8  9  1  6
 10 11  1  0
 13 14  1  0
 13 15  1  0
 17 18  2  0
 18 19  1  0
 16 20  1  0
 19 20  2  0
  8 21  1  0
 20 21  1  0
 17 22  1  0
 21 22  2  0
 13 24  1  0
 23 24  2  0
 24 25  1  0
 25 26  2  0
  1 27  1  0
 26 27  1  0
 23 28  1  0
 27 28  2  0
 10 29  1  0
 29 30  2  0
 30 31  1  0
 31 32  2  0
 12 33  1  0
 32 33  1  0
  5 34  1  0
 29 34  1  0
 33 34  2  0
 13 36  1  0
 35 37  1  0
 36 37  1  0
M  END
