x2643-x1348
     RDKit          3D

 33 36  0  0  0  0  0  0  0  0999 V2000
    7.0130   -3.7100   21.3530 N   0  0  0  0  0  0  0  0  0  0  0  0
    7.9380   -5.0830   27.5440 C   0  0  0  0  0  0  0  0  0  0  0  0
    7.4540   -4.7140   26.4600 O   0  0  0  0  0  0  0  0  0  0  0  0
    5.3510   -4.2570   19.7930 O   0  0  0  0  0  0  0  0  0  0  0  0
    6.4430   -3.7540   20.0610 C   0  0  0  0  0  0  0  0  0  0  0  0
    7.3570   -3.1550   19.0050 C   0  0  0  0  0  0  0  0  0  0  0  0
    6.6980   -0.6590   20.9180 N   0  0  0  0  0  0  0  0  0  0  0  0
    8.4710    0.7520   21.1190 O   0  0  0  0  0  0  0  0  0  0  0  0
   13.4480   -0.0050   22.9280 Cl  0  0  0  0  0  0  0  0  0  0  0  0
    7.9980   -0.6740   22.8510 C   0  0  1  0  0  0  0  0  0  0  0  0
    7.7590   -0.1390   21.5850 C   0  0  0  0  0  0  0  0  0  0  0  0
    8.0100   -2.7130   21.5960 C   0  0  0  0  0  0  0  0  0  0  0  0
    8.0240   -2.1480   22.8330 C   0  0  0  0  0  0  0  0  0  0  0  0
    6.3870   -5.4200   25.9550 C   0  0  0  0  0  0  0  0  0  0  0  0
    6.1390   -5.2790   24.5770 C   0  0  0  0  0  0  0  0  0  0  0  0
    5.0240   -5.9710   23.8210 C   0  0  0  0  0  0  0  0  0  0  0  0
    4.2190   -6.7900   24.6150 C   0  0  0  0  0  0  0  0  0  0  0  0
    4.4910   -6.9310   26.1130 C   0  0  0  0  0  0  0  0  0  0  0  0
    5.5470   -6.2590   26.7330 C   0  0  0  0  0  0  0  0  0  0  0  0
    6.9600   -4.4230   23.7370 N   0  0  0  0  0  0  0  0  0  0  0  0
    6.4730   -4.4720   22.4650 C   0  0  0  0  0  0  0  0  0  0  0  0
    5.0330   -5.5650   22.1750 S   0  0  0  0  0  0  0  0  0  0  0  0
   11.8150    0.1110   23.1860 C   0  0  0  0  0  0  0  0  0  0  0  0
   11.1220    0.9930   23.9620 C   0  0  0  0  0  0  0  0  0  0  0  0
    9.7760    0.8220   23.9440 C   0  0  0  0  0  0  0  0  0  0  0  0
    9.4280   -0.2330   23.1120 C   0  0  0  0  0  0  0  0  0  0  0  0
   10.7560   -0.9960   22.3880 S   0  0  0  0  0  0  0  0  0  0  0  0
    6.3700    0.7450   17.6400 N   0  0  0  0  0  0  0  0  0  0  0  0
    6.9010    0.0290   18.6430 C   0  0  0  0  0  0  0  0  0  0  0  0
    6.2330    0.0180   19.8600 C   0  0  0  0  0  0  0  0  0  0  0  0
    5.0200    0.7270   20.0540 C   0  0  0  0  0  0  0  0  0  0  0  0
    4.5160    1.4500   18.9800 C   0  0  0  0  0  0  0  0  0  0  0  0
    5.2210    1.4350   17.7960 C   0  0  0  0  0  0  0  0  0  0  0  0
  2  3  1  0
  1  5  1  0
  4  5  2  0
  5  6  1  0
  7 11  1  0
  8 11  2  0
 10 11  1  0
  1 12  1  0
 10 13  1  6
 12 13  1  0
  3 14  1  0
 14 15  2  0
 15 16  1  0
 16 17  2  0
 17 18  1  0
 14 19  1  0
 18 19  2  0
 15 20  1  0
  1 21  1  0
 20 21  2  0
 16 22  1  0
 21 22  1  0
  9 23  1  0
 23 24  2  0
 24 25  1  0
 10 26  1  0
 25 26  2  0
 23 27  1  0
 26 27  1  0
 28 29  2  0
  7 30  1  0
 29 30  1  0
 30 31  2  0
 31 32  1  0
 28 33  1  0
 32 33  2  0
M  END
