x2649-x0981
     RDKit          3D

 37 38  0  0  0  0  0  0  0  0999 V2000
    1.2540   -8.7150   21.3790 C   0  0  0  0  0  0  0  0  0  0  0  0
    2.6960   -7.1710   22.6850 N   0  0  0  0  0  0  0  0  0  0  0  0
    0.5140   -6.6040   22.2810 O   0  0  0  0  0  0  0  0  0  0  0  0
    1.4330   -7.4110   22.1540 C   0  0  0  0  0  0  0  0  0  0  0  0
    2.5260   -8.2200   26.2890 N   0  0  0  0  0  0  0  0  0  0  0  0
    4.0190   -8.1900   24.5600 O   0  0  0  0  0  0  0  0  0  0  0  0
    2.9260   -5.9790   23.5170 C   0  0  1  0  0  0  0  0  0  0  0  0
    5.1190   -5.6210   22.2530 N   0  0  0  0  0  0  0  0  0  0  0  0
    4.5560   -4.3080   24.1940 N   0  0  0  0  0  0  0  0  0  0  0  0
    2.7890   -6.3030   24.8740 C   0  0  0  0  0  0  0  0  0  0  0  0
    3.1630   -7.6180   25.2020 C   0  0  0  0  0  0  0  0  0  0  0  0
    4.3060   -5.2700   23.2880 C   0  0  0  0  0  0  0  0  0  0  0  0
    6.1310   -4.7940   21.8240 C   0  0  0  0  0  0  0  0  0  0  0  0
    6.3550   -4.9960   20.3300 C   0  0  0  0  0  0  0  0  0  0  0  0
    5.6870   -6.2390   19.8270 C   0  0  0  0  0  0  0  0  0  0  0  0
    7.0260   -0.6580   20.7820 N   0  0  0  0  0  0  0  0  0  0  0  0
    8.0340   -1.2450   23.7010 C   0  0  0  0  0  0  0  0  0  0  0  0
    8.7580    0.8680   21.4100 O   0  0  0  0  0  0  0  0  0  0  0  0
   13.2250   -2.4440   21.1690 Cl  0  0  0  0  0  0  0  0  0  0  0  0
    8.6510   -1.1570   22.4600 C   0  0  1  0  0  0  0  0  0  0  0  0
    8.1970   -0.2180   21.5440 C   0  0  0  0  0  0  0  0  0  0  0  0
    4.7990    1.2580   21.7510 C   0  0  0  0  0  0  0  0  0  0  0  0
    5.5060   -3.6500   24.2080 C   0  0  0  0  0  0  0  0  0  0  0  0
    6.4510   -2.7220   24.6250 C   0  0  0  0  0  0  0  0  0  0  0  0
    7.4730   -2.5920   23.7000 C   0  0  0  0  0  0  0  0  0  0  0  0
    6.2850    0.5090   17.7200 N   0  0  0  0  0  0  0  0  0  0  0  0
    5.1960    1.4960   17.8600 C   0  0  0  0  0  0  0  0  0  0  0  0
    4.6330    1.7950   19.2490 C   0  0  0  0  0  0  0  0  0  0  0  0
    5.2760    1.0260   20.3580 C   0  0  0  0  0  0  0  0  0  0  0  0
    6.2830    0.1470   20.0130 C   0  0  0  0  0  0  0  0  0  0  0  0
    6.8670   -0.1990   18.7620 C   0  0  0  0  0  0  0  0  0  0  0  0
   10.6640    0.1450   23.5580 C   0  0  0  0  0  0  0  0  0  0  0  0
   12.0060    0.5440   23.8600 C   0  0  0  0  0  0  0  0  0  0  0  0
   12.7620   -0.4640   22.9440 C   0  0  0  0  0  0  0  0  0  0  0  0
   12.2560   -1.4390   22.1060 C   0  0  0  0  0  0  0  0  0  0  0  0
   10.9670   -1.6360   21.9830 C   0  0  0  0  0  0  0  0  0  0  0  0
   10.1110   -0.8920   22.6630 C   0  0  0  0  0  0  0  0  0  0  0  0
  1  4  1  0
  2  4  1  0
  3  4  2  0
  2  7  1  0
  7 10  1  1
  5 11  1  0
  6 11  2  0
 10 11  1  0
  7 12  1  0
  8 12  1  0
  9 12  2  3
  8 13  1  0
 13 14  1  0
 14 15  2  3
 20 17  1  1
 16 21  1  0
 18 21  2  0
 20 21  1  0
  9 23  1  0
 23 24  1  0
 17 25  1  0
 24 25  1  0
 26 27  2  0
 27 28  1  0
 22 29  1  0
 28 29  2  0
 16 30  1  0
 29 30  1  0
 26 31  1  0
 30 31  2  0
 32 33  2  0
 33 34  1  0
 19 35  1  0
 34 35  2  0
 35 36  1  0
 20 37  1  0
 32 37  1  0
 36 37  2  0
M  END
