x2646-x1386
     RDKit          3D

 28 31  0  0  0  0  0  0  0  0999 V2000
    4.0890    1.8780   21.5140 C   0  0  0  0  0  0  0  0  0  0  0  0
    6.2950    0.4950   17.8370 N   0  0  0  0  0  0  0  0  0  0  0  0
    6.4910   -0.0700   19.0600 C   0  0  0  0  0  0  0  0  0  0  0  0
    5.7640    0.3780   20.2700 C   0  0  0  0  0  0  0  0  0  0  0  0
    4.7810    1.4660   20.2660 C   0  0  0  0  0  0  0  0  0  0  0  0
    4.5420    2.1170   18.8930 C   0  0  0  0  0  0  0  0  0  0  0  0
    5.3760    1.5250   17.7550 C   0  0  0  0  0  0  0  0  0  0  0  0
    7.4860    0.8600   21.4270 O   0  0  0  0  0  0  0  0  0  0  0  0
   13.2440   -2.3180   21.5260 Cl  0  0  0  0  0  0  0  0  0  0  0  0
    7.8280   -0.2890   21.6570 C   0  0  0  0  0  0  0  0  0  0  0  0
    8.6630   -0.6880   22.8790 C   0  0  2  0  0  0  0  0  0  0  0  0
    7.3680   -3.0900   18.7260 C   0  0  0  0  0  0  0  0  0  0  0  0
    5.4860   -4.1520   19.7740 O   0  0  0  0  0  0  0  0  0  0  0  0
    6.3680   -3.2830   19.8710 C   0  0  0  0  0  0  0  0  0  0  0  0
    9.8480   -2.7830   23.4560 C   0  0  0  0  0  0  0  0  0  0  0  0
   10.6570    0.9040   23.2350 C   0  0  0  0  0  0  0  0  0  0  0  0
   12.0510    1.0980   23.1420 C   0  0  0  0  0  0  0  0  0  0  0  0
   12.9290    0.1430   22.6400 C   0  0  0  0  0  0  0  0  0  0  0  0
   12.3810   -1.0580   22.2050 C   0  0  0  0  0  0  0  0  0  0  0  0
   11.0530   -1.2620   22.3020 C   0  0  0  0  0  0  0  0  0  0  0  0
   10.0900   -0.2770   22.8420 C   0  0  0  0  0  0  0  0  0  0  0  0
    6.5420   -2.4210   20.9920 N   0  0  0  0  0  0  0  0  0  0  0  0
    7.6020   -1.5430   20.7770 C   0  0  2  0  0  0  0  0  0  0  0  0
    8.7970   -2.0540   21.3280 C   0  0  0  0  0  0  0  0  0  0  0  0
    8.6290   -2.2120   22.7210 C   0  0  2  0  0  0  0  0  0  0  0  0
    7.5010   -2.8870   23.1890 C   0  0  0  0  0  0  0  0  0  0  0  0
    6.3930   -2.9090   22.3120 C   0  0  0  0  0  0  0  0  0  0  0  0
    7.4330   -1.1780   19.2730 C   0  0  0  0  0  0  0  0  0  0  0  0
  2  3  2  0
  3  4  1  0
  1  5  1  0
  4  5  2  0
  5  6  1  0
  2  7  1  0
  6  7  2  0
  8 10  2  0
 10 11  1  0
 12 14  1  0
 13 14  2  0
 16 17  2  0
 17 18  1  0
  9 19  1  0
 18 19  2  0
 19 20  1  0
 11 21  1  6
 16 21  1  0
 20 21  2  0
 14 22  1  0
 10 23  1  0
 22 23  1  0
 23 24  1  0
 11 25  1  0
 25 15  1  1
 24 25  1  0
 25 26  1  0
 22 27  1  0
 26 27  1  0
  3 28  1  0
 23 28  1  6
M  END
