x2643-x3115
     RDKit          3D

 31 32  0  0  0  0  0  0  0  0999 V2000
    6.8680   -1.8090   21.8520 N   0  0  0  0  0  0  0  0  0  0  0  0
    6.6490   -4.9350   20.3640 C   0  0  0  0  0  0  0  0  0  0  0  0
    4.8210   -3.0640   21.3010 O   0  0  0  0  0  0  0  0  0  0  0  0
    6.7690   -4.3000   21.7260 C   0  0  0  0  0  0  0  0  0  0  0  0
    7.1820    1.6610   22.9140 N   0  0  0  0  0  0  0  0  0  0  0  0
    8.6850    0.6540   21.4750 O   0  0  0  0  0  0  0  0  0  0  0  0
    6.0650   -2.9920   21.6130 C   0  0  0  0  0  0  0  0  0  0  0  0
    8.4860    5.1950   23.0530 O   0  0  0  0  0  0  0  0  0  0  0  0
    6.4830   -0.3360   21.6580 C   0  0  1  0  0  0  0  0  0  0  0  0
    7.5760    0.6890   22.0040 C   0  0  0  0  0  0  0  0  0  0  0  0
    8.0570    2.7410   23.2310 C   0  0  0  0  0  0  0  0  0  0  0  0
    7.8070    4.0750   22.4530 C   0  0  0  0  0  0  0  0  0  0  0  0
    8.3900    6.3370   22.3100 C   0  0  0  0  0  0  0  0  0  0  0  0
   12.0840   -1.9190   24.4090 C   0  0  0  0  0  0  0  0  0  0  0  0
   13.1080   -2.5300   23.6650 C   0  0  0  0  0  0  0  0  0  0  0  0
   12.8090   -3.0590   25.1730 C   0  0  0  0  0  0  0  0  0  0  0  0
   12.5450   -0.5170   24.6820 C   0  0  0  0  0  0  0  0  0  0  0  0
    6.3790    0.4270   17.8960 N   0  0  0  0  0  0  0  0  0  0  0  0
    5.1860    1.2650   17.7630 C   0  0  0  0  0  0  0  0  0  0  0  0
    4.4550    1.5110   18.9220 C   0  0  0  0  0  0  0  0  0  0  0  0
    4.7950    1.0270   20.1760 C   0  0  0  0  0  0  0  0  0  0  0  0
    5.9420    0.2460   20.2820 C   0  0  0  0  0  0  0  0  0  0  0  0
    6.7100   -0.0530   19.1770 C   0  0  0  0  0  0  0  0  0  0  0  0
    9.3540   -1.6140   21.7670 C   0  0  0  0  0  0  0  0  0  0  0  0
   10.5890   -1.6610   22.4300 C   0  0  0  0  0  0  0  0  0  0  0  0
   10.6970   -1.9730   23.7840 C   0  0  0  0  0  0  0  0  0  0  0  0
    9.5310   -2.2750   24.4970 C   0  0  0  0  0  0  0  0  0  0  0  0
    8.2800   -2.2350   23.8460 C   0  0  0  0  0  0  0  0  0  0  0  0
    8.2130   -1.8900   22.4790 C   0  0  0  0  0  0  0  0  0  0  0  0
   12.4880    1.6710   23.1290 Cl  0  0  0  0  0  0  0  0  0  0  0  0
   12.9750    0.0630   23.3470 C   0  0  0  0  0  0  0  0  0  0  0  0
  2  4  1  0
  1  7  1  0
  3  7  2  0
  4  7  1  0
  1  9  1  0
  5 10  1  0
  6 10  2  0
  9 10  1  6
  5 11  1  0
  8 12  1  0
 11 12  1  0
  8 13  1  0
 14 15  1  0
 14 16  1  0
 14 17  1  0
 18 19  2  0
 19 20  1  0
 20 21  2  0
  9 22  1  0
 21 22  1  0
 18 23  1  0
 22 23  2  0
 24 25  2  0
 14 26  1  0
 25 26  1  0
 26 27  2  0
 27 28  1  0
  1 29  1  0
 24 29  1  0
 28 29  2  0
 17 31  1  0
 30 31  1  0
M  END
