x2643-x1308
     RDKit          3D

 37 40  0  0  0  0  0  0  0  0999 V2000
    7.3580   -3.4090   19.7600 C   0  0  0  0  0  0  0  0  0  0  0  0
    5.6700   -5.1120   20.0170 O   0  0  0  0  0  0  0  0  0  0  0  0
    0.7280   -1.3240   26.3510 Cl  0  0  0  0  0  0  0  0  0  0  0  0
    6.5190   -4.4050   20.5410 C   0  0  0  0  0  0  0  0  0  0  0  0
    6.5310   -5.0970   26.9660 O   0  0  0  0  0  0  0  0  0  0  0  0
    4.8480   -6.9350   26.4100 O   0  0  0  0  0  0  0  0  0  0  0  0
    5.4570   -5.4980   26.1030 S   0  0  0  0  0  0  0  0  0  0  0  0
    6.7200   -0.9100   20.7960 N   0  0  0  0  0  0  0  0  0  0  0  0
    8.6280    0.5170   21.2860 O   0  0  0  0  0  0  0  0  0  0  0  0
   13.3970   -0.0400   22.8830 Cl  0  0  0  0  0  0  0  0  0  0  0  0
    8.0190   -1.0770   22.9410 C   0  0  1  0  0  0  0  0  0  0  0  0
    7.8660   -0.3900   21.6170 C   0  0  0  0  0  0  0  0  0  0  0  0
    6.5380   -3.1030   22.6550 C   0  0  0  0  0  0  0  0  0  0  0  0
    7.8560   -2.6360   22.8020 C   0  0  0  0  0  0  0  0  0  0  0  0
    6.5690   -4.5390   22.0730 C   0  0  0  0  0  0  0  0  0  0  0  0
    7.5910   -5.1450   22.7400 C   0  0  0  0  0  0  0  0  0  0  0  0
    7.2420   -4.9710   24.2480 C   0  0  0  0  0  0  0  0  0  0  0  0
    5.9760   -5.5170   24.5100 N   0  0  0  0  0  0  0  0  0  0  0  0
    4.8830   -5.1370   23.6460 C   0  0  0  0  0  0  0  0  0  0  0  0
    5.3690   -5.4270   22.3980 C   0  0  0  0  0  0  0  0  0  0  0  0
    4.4210   -2.9580   26.4730 C   0  0  0  0  0  0  0  0  0  0  0  0
    3.3600   -2.0450   26.5230 C   0  0  0  0  0  0  0  0  0  0  0  0
    2.0260   -2.4490   26.2670 C   0  0  0  0  0  0  0  0  0  0  0  0
    1.8120   -3.7960   25.9490 C   0  0  0  0  0  0  0  0  0  0  0  0
    2.8850   -4.6840   25.9050 C   0  0  0  0  0  0  0  0  0  0  0  0
    4.1840   -4.3080   26.1620 C   0  0  0  0  0  0  0  0  0  0  0  0
   11.8140   -0.3130   23.3470 C   0  0  0  0  0  0  0  0  0  0  0  0
   11.2640   -0.2760   24.6190 C   0  0  0  0  0  0  0  0  0  0  0  0
    9.9160   -0.5270   24.5990 C   0  0  0  0  0  0  0  0  0  0  0  0
    9.4180   -0.7760   23.3290 C   0  0  0  0  0  0  0  0  0  0  0  0
   10.6680   -0.6890   22.1730 S   0  0  0  0  0  0  0  0  0  0  0  0
    6.3960    0.7810   17.6090 N   0  0  0  0  0  0  0  0  0  0  0  0
    6.8560    0.0060   18.6110 C   0  0  0  0  0  0  0  0  0  0  0  0
    6.1220   -0.0440   19.7970 C   0  0  0  0  0  0  0  0  0  0  0  0
    4.9300    0.6780   19.9850 C   0  0  0  0  0  0  0  0  0  0  0  0
    4.4490    1.4790   18.9630 C   0  0  0  0  0  0  0  0  0  0  0  0
    5.1900    1.5160   17.8040 C   0  0  0  0  0  0  0  0  0  0  0  0
  1  4  1  0
  2  4  2  0
  5  7  2  0
  6  7  2  0
  8 12  1  0
  9 12  2  0
 11 12  1  0
 11 14  1  6
 13 14  1  0
 15  4  1  0
 13 15  1  0
 15 16  1  0
 16 17  1  0
  7 18  1  0
 17 18  1  0
 18 19  1  0
 15 20  1  0
 19 20  1  0
 21 22  2  0
  3 23  1  0
 22 23  1  0
 23 24  2  0
 24 25  1  0
  7 26  1  0
 21 26  1  0
 25 26  2  0
 10 27  1  0
 27 28  2  0
 28 29  1  0
 11 30  1  0
 29 30  2  0
 27 31  1  0
 30 31  1  0
 32 33  2  0
  8 34  1  0
 33 34  1  0
 34 35  2  0
 35 36  1  0
 32 37  1  0
 36 37  2  0
M  END
