x2646-x3305
     RDKit          3D

 29 31  0  0  0  0  0  0  0  0999 V2000
    3.3510   -7.2120   23.6740 C   0  0  0  0  0  0  0  0  0  0  0  0
    5.5820   -3.1990   21.3590 O   0  0  0  0  0  0  0  0  0  0  0  0
    7.2850   -2.8760   23.0120 N   0  0  0  0  0  0  0  0  0  0  0  0
    7.1680   -1.4320   21.1900 N   0  0  0  0  0  0  0  0  0  0  0  0
    6.5630   -3.2800   24.0900 C   0  0  0  0  0  0  0  0  0  0  0  0
    6.6560   -2.5160   21.8510 C   0  0  0  0  0  0  0  0  0  0  0  0
    8.2290   -0.7380   21.7420 C   0  0  0  0  0  0  0  0  0  0  0  0
    9.0250   -1.4650   22.8360 C   0  0  0  0  0  0  0  0  0  0  0  0
    6.8420   -1.3060   19.8880 C   0  0  0  0  0  0  0  0  0  0  0  0
    5.0470    0.6590   21.6760 C   0  0  0  0  0  0  0  0  0  0  0  0
    8.5600    0.4110   21.3970 O   0  0  0  0  0  0  0  0  0  0  0  0
   13.4780   -1.9380   21.0190 Cl  0  0  0  0  0  0  0  0  0  0  0  0
    4.4530   -6.2950   23.5910 N   0  0  0  0  0  0  0  0  0  0  0  0
    4.5590   -5.0890   24.1610 C   0  0  0  0  0  0  0  0  0  0  0  0
    5.9030   -4.5580   23.7590 C   0  0  0  0  0  0  0  0  0  0  0  0
    6.4560   -5.5440   22.9700 N   0  0  0  0  0  0  0  0  0  0  0  0
    5.5800   -6.5710   22.8790 N   0  0  0  0  0  0  0  0  0  0  0  0
    5.7540    1.0200   17.3840 N   0  0  0  0  0  0  0  0  0  0  0  0
    6.2470    0.0800   18.1660 C   0  0  0  0  0  0  0  0  0  0  0  0
    6.0880   -0.1090   19.4670 C   0  0  0  0  0  0  0  0  0  0  0  0
    5.2920    0.7790   20.1770 C   0  0  0  0  0  0  0  0  0  0  0  0
    4.7100    1.8170   19.4300 C   0  0  0  0  0  0  0  0  0  0  0  0
    4.9760    1.8800   18.0600 C   0  0  0  0  0  0  0  0  0  0  0  0
   10.7010    0.1850   23.7000 C   0  0  0  0  0  0  0  0  0  0  0  0
   11.9740    0.7350   23.7440 C   0  0  0  0  0  0  0  0  0  0  0  0
   13.1000    0.1750   22.9130 C   0  0  0  0  0  0  0  0  0  0  0  0
   12.6060   -1.0210   22.0900 C   0  0  0  0  0  0  0  0  0  0  0  0
   11.3430   -1.4510   22.1450 C   0  0  0  0  0  0  0  0  0  0  0  0
   10.3730   -0.9070   22.9010 C   0  0  0  0  0  0  0  0  0  0  0  0
  3  5  1  0
  2  6  2  0
  3  6  1  0
  4  6  1  0
  4  7  1  0
  7  8  1  0
  4  9  1  0
  7 11  2  0
  1 13  1  0
 13 14  1  0
  5 15  1  0
 14 15  2  0
 15 16  1  0
 13 17  1  0
 16 17  2  0
 18 19  2  0
  9 20  1  0
 19 20  1  0
 10 21  1  0
 20 21  2  0
 21 22  1  0
 18 23  1  0
 22 23  2  0
 24 25  2  0
 25 26  1  0
 12 27  1  0
 26 27  2  0
 27 28  1  0
  8 29  1  0
 24 29  1  0
 28 29  2  0
M  END
