x2646-x1334
     RDKit          3D

 34 38  0  0  0  0  0  0  0  0999 V2000
    4.0490    1.0950   21.3180 C   0  0  0  0  0  0  0  0  0  0  0  0
    8.0270    1.0340   21.4260 O   0  0  0  0  0  0  0  0  0  0  0  0
   13.3290   -2.0160   21.1050 Cl  0  0  0  0  0  0  0  0  0  0  0  0
    6.5950   -0.7120   21.0610 N   0  0  0  0  0  0  0  0  0  0  0  0
    7.6860   -0.1330   21.6740 C   0  0  0  0  0  0  0  0  0  0  0  0
    8.4330   -1.0160   22.5860 C   0  0  2  0  0  0  0  0  0  0  0  0
    7.4390   -2.8730   18.6070 C   0  0  0  0  0  0  0  0  0  0  0  0
    5.7020   -3.9220   19.7360 O   0  0  0  0  0  0  0  0  0  0  0  0
    7.2990   -5.9420   28.5370 Cl  0  0  0  0  0  0  0  0  0  0  0  0
    6.5960   -3.0330   19.8270 C   0  0  0  0  0  0  0  0  0  0  0  0
    9.2590   -3.0610   24.3470 C   0  0  0  0  0  0  0  0  0  0  0  0
    6.3420    0.7510   17.5370 N   0  0  0  0  0  0  0  0  0  0  0  0
    6.8550   -0.0570   18.6570 C   0  0  0  0  0  0  0  0  0  0  0  0
    6.0820    0.0470   19.9600 C   0  0  0  0  0  0  0  0  0  0  0  0
    4.8640    0.9280   20.0730 C   0  0  0  0  0  0  0  0  0  0  0  0
    4.4290    1.7160   18.8370 C   0  0  0  0  0  0  0  0  0  0  0  0
    5.1870    1.5780   17.6740 C   0  0  0  0  0  0  0  0  0  0  0  0
   10.5650    0.2110   23.8350 C   0  0  0  0  0  0  0  0  0  0  0  0
   11.9610    0.4010   23.9400 C   0  0  0  0  0  0  0  0  0  0  0  0
   12.8540   -0.2740   23.1110 C   0  0  0  0  0  0  0  0  0  0  0  0
   12.3690   -1.1540   22.1630 C   0  0  0  0  0  0  0  0  0  0  0  0
   11.0450   -1.3500   22.0450 C   0  0  0  0  0  0  0  0  0  0  0  0
   10.0610   -0.6680   22.8790 C   0  0  0  0  0  0  0  0  0  0  0  0
    6.8880   -2.1240   21.1450 C   0  0  1  0  0  0  0  0  0  0  0  0
    8.1910   -2.1150   21.6080 C   0  0  2  0  0  0  0  0  0  0  0  0
    8.7340   -3.2660   21.9910 C   0  0  0  0  0  0  0  0  0  0  0  0
    8.2850   -3.4010   23.3180 N   0  0  0  0  0  0  0  0  0  0  0  0
    6.8930   -3.0180   23.5060 C   0  0  0  0  0  0  0  0  0  0  0  0
    6.1430   -2.9010   22.2930 C   0  0  0  0  0  0  0  0  0  0  0  0
    9.9250   -5.1510   25.6770 C   0  0  0  0  0  0  0  0  0  0  0  0
    9.1240   -4.0770   25.4010 C   0  0  0  0  0  0  0  0  0  0  0  0
    7.7800   -3.9770   26.4550 S   0  0  0  0  0  0  0  0  0  0  0  0
    8.2610   -5.3690   27.2510 C   0  0  0  0  0  0  0  0  0  0  0  0
    9.4340   -5.9160   26.7460 C   0  0  0  0  0  0  0  0  0  0  0  0
  2  5  2  0
  4  5  1  0
  5  6  1  0
  7 10  1  0
  8 10  2  0
 12 13  2  0
  4 14  1  0
 13 14  1  0
  1 15  1  0
 14 15  2  0
 15 16  1  0
 12 17  1  0
 16 17  2  0
 18 19  2  0
 19 20  1  0
  3 21  1  0
 20 21  2  0
 21 22  1  0
  6 23  1  6
 18 23  1  0
 22 23  2  0
  4 24  1  0
 24 10  1  6
  6 25  1  0
 24 25  1  0
 25 26  1  1
 11 27  1  0
 26 27  1  0
 27 28  1  0
 24 29  1  0
 28 29  1  0
 11 31  1  0
 30 31  2  0
 31 32  1  0
  9 33  1  0
 32 33  1  0
 30 34  1  0
 33 34  2  0
M  END
