x2643-x1077
     RDKit          3D

 26 28  0  0  0  0  0  0  0  0999 V2000
    6.6740   -1.0950   20.8550 N   0  0  0  0  0  0  0  0  0  0  0  0
    8.4310    0.4630   21.1300 O   0  0  0  0  0  0  0  0  0  0  0  0
   13.5150    0.4120   22.9530 Cl  0  0  0  0  0  0  0  0  0  0  0  0
    8.5030   -1.6770   22.3380 C   0  0  1  0  0  0  0  0  0  0  0  0
    7.6360   -0.6110   21.7010 C   0  0  2  0  0  0  0  0  0  0  0  0
    8.8540    1.4950   22.0920 N   0  0  0  0  0  0  0  0  0  0  0  0
   11.9270    0.0410   23.1320 C   0  0  0  0  0  0  0  0  0  0  0  0
   10.9550    0.6520   24.0510 C   0  0  0  0  0  0  0  0  0  0  0  0
    9.6700    0.0150   23.7990 C   0  0  0  0  0  0  0  0  0  0  0  0
    9.6690   -0.9570   22.8050 C   0  0  0  0  0  0  0  0  0  0  0  0
   11.2070   -1.2180   22.1260 S   0  0  0  0  0  0  0  0  0  0  0  0
    6.3630    0.6570   17.7050 N   0  0  0  0  0  0  0  0  0  0  0  0
    6.8320   -0.1460   18.6870 C   0  0  0  0  0  0  0  0  0  0  0  0
    6.0780   -0.2110   19.8510 C   0  0  0  0  0  0  0  0  0  0  0  0
    4.7900    0.5830   20.0010 C   0  0  0  0  0  0  0  0  0  0  0  0
    4.3920    1.3790   18.9390 C   0  0  0  0  0  0  0  0  0  0  0  0
    5.2220    1.3760   17.8170 C   0  0  0  0  0  0  0  0  0  0  0  0
    6.8210   -5.7720   25.3900 O   0  0  0  0  0  0  0  0  0  0  0  0
    7.1830   -5.4000   24.1100 C   0  0  0  0  0  0  0  0  0  0  0  0
    8.4890   -5.6470   23.7400 C   0  0  0  0  0  0  0  0  0  0  0  0
    9.4100   -5.0660   24.6210 C   0  0  0  0  0  0  0  0  0  0  0  0
    8.8430   -3.7630   25.0880 N   0  0  0  0  0  0  0  0  0  0  0  0
    7.8570   -3.8080   26.2480 C   0  0  0  0  0  0  0  0  0  0  0  0
    7.4790   -5.1320   26.4990 C   0  0  0  0  0  0  0  0  0  0  0  0
    8.0650   -2.4780   23.5730 C   0  0  0  0  0  0  0  0  0  0  0  0
    9.1850   -2.5210   24.4170 C   0  0  0  0  0  0  0  0  0  0  0  0
  5  1  1  6
  2  5  1  0
  4  5  1  0
  2  6  1  0
  3  7  1  0
  7  8  2  0
  8  9  1  0
  4 10  1  0
  9 10  2  0
  7 11  1  0
 10 11  1  0
 12 13  2  0
  1 14  1  0
 13 14  1  0
 14 15  2  0
 15 16  1  0
 12 17  1  0
 16 17  2  0
 18 19  1  0
 19 20  1  0
 20 21  1  0
 21 22  1  0
 22 23  1  0
 18 24  1  0
 23 24  1  0
  4 25  1  1
 22 26  1  0
 25 26  1  0
M  END
