x2646-x0397
     RDKit          3D

 27 29  0  0  0  0  0  0  0  0999 V2000
    7.9320   -1.7750   21.0390 C   0  0  0  0  0  0  0  0  0  0  0  0
    6.8120   -1.9730   20.2140 N   0  0  0  0  0  0  0  0  0  0  0  0
    6.8960   -1.6020   18.8780 C   0  0  0  0  0  0  0  0  0  0  0  0
    3.6950    2.3370   19.3190 C   0  0  0  0  0  0  0  0  0  0  0  0
    6.0450   -3.1830   20.5600 C   0  0  0  0  0  0  0  0  0  0  0  0
    5.4160   -3.8570   19.7320 O   0  0  0  0  0  0  0  0  0  0  0  0
    6.1090   -3.5240   21.9020 N   0  0  0  0  0  0  0  0  0  0  0  0
    7.9800    0.6650   20.9930 O   0  0  0  0  0  0  0  0  0  0  0  0
   13.1470   -2.3620   21.2320 Cl  0  0  0  0  0  0  0  0  0  0  0  0
    8.1260   -0.3790   21.6250 C   0  0  0  0  0  0  0  0  0  0  0  0
    8.5590   -0.3860   23.0790 C   0  0  0  0  0  0  0  0  0  0  0  0
    5.0490    0.1840   19.4980 C   0  0  0  0  0  0  0  0  0  0  0  0
    6.1650   -0.3540   18.6650 C   0  0  0  0  0  0  0  0  0  0  0  0
    6.3930    0.5100   17.6770 N   0  0  0  0  0  0  0  0  0  0  0  0
    5.4920    1.5590   17.8470 O   0  0  0  0  0  0  0  0  0  0  0  0
    4.7000    1.3510   18.9430 C   0  0  0  0  0  0  0  0  0  0  0  0
    6.4020   -5.4120   23.2960 C   0  0  0  0  0  0  0  0  0  0  0  0
    5.6640   -4.7970   22.3990 C   0  0  0  0  0  0  0  0  0  0  0  0
    6.0510   -5.8740   21.7590 C   0  0  0  0  0  0  0  0  0  0  0  0
   10.7610    0.4900   23.9160 C   0  0  0  0  0  0  0  0  0  0  0  0
   12.1370    0.4510   23.8700 C   0  0  0  0  0  0  0  0  0  0  0  0
   12.8520   -0.4010   23.0700 C   0  0  0  0  0  0  0  0  0  0  0  0
   12.2610   -1.3130   22.2250 C   0  0  0  0  0  0  0  0  0  0  0  0
   10.7640   -1.3870   22.1640 C   0  0  0  0  0  0  0  0  0  0  0  0
   10.0450   -0.3870   23.0960 C   0  0  0  0  0  0  0  0  0  0  0  0
    4.5260    1.6510   21.5450 C   0  0  0  0  0  0  0  0  0  0  0  0
    3.4530    2.2320   20.8430 C   0  0  0  0  0  0  0  0  0  0  0  0
  1  2  1  0
  2  3  1  0
  2  5  1  0
  5  6  2  0
  5  7  1  0
  1 10  1  0
  8 10  2  0
 10 11  1  0
  3 13  1  0
 12 13  1  0
 13 14  2  0
 14 15  1  0
  4 16  1  0
 12 16  2  0
 15 16  1  0
  7 18  1  0
 17 18  1  0
 17 19  1  0
 18 19  1  0
 20 21  2  0
 21 22  1  0
  9 23  1  0
 22 23  2  0
 23 24  1  0
 11 25  1  0
 20 25  1  0
 24 25  2  0
  4 27  1  0
 26 27  1  0
M  END
