x2646-x2562
     RDKit          3D

 24 26  0  0  0  0  0  0  0  0999 V2000
    8.4060    0.0920   21.4080 C   0  0  0  0  0  0  0  0  0  0  0  0
    8.5500    1.2920   21.0720 O   0  0  0  0  0  0  0  0  0  0  0  0
    7.1710   -0.7040   21.0740 C   0  0  0  0  0  0  0  0  0  0  0  0
   12.1040    2.8670   23.3500 O   0  0  0  0  0  0  0  0  0  0  0  0
    9.3620   -0.6320   22.1110 N   0  0  0  0  0  0  0  0  0  0  0  0
   12.5140    6.7870   22.4980 O   0  0  0  0  0  0  0  0  0  0  0  0
    4.4740    1.0470   21.7340 C   0  0  0  0  0  0  0  0  0  0  0  0
   13.0570   -2.2010   22.0440 Cl  0  0  0  0  0  0  0  0  0  0  0  0
    4.5560    1.5600   19.1600 N   0  0  0  0  0  0  0  0  0  0  0  0
    5.1180    1.4450   17.8830 C   0  0  0  0  0  0  0  0  0  0  0  0
    6.2430    0.6810   17.6440 N   0  0  0  0  0  0  0  0  0  0  0  0
    6.8540    0.0220   18.6400 C   0  0  0  0  0  0  0  0  0  0  0  0
    6.3980    0.0450   20.0600 C   0  0  0  0  0  0  0  0  0  0  0  0
    5.1570    0.8670   20.3340 C   0  0  0  0  0  0  0  0  0  0  0  0
   12.4560    4.5070   21.7300 N   0  0  0  0  0  0  0  0  0  0  0  0
   13.2320    5.6050   22.2140 C   0  0  2  0  0  0  0  0  0  0  0  0
   13.6040    4.7820   23.4030 C   0  0  0  0  0  0  0  0  0  0  0  0
   13.0230    3.7070   22.6520 C   0  0  1  0  0  0  0  0  0  0  0  0
   11.6740   -1.2080   22.1880 C   0  0  0  0  0  0  0  0  0  0  0  0
   12.8650   -0.4590   22.5070 C   0  0  0  0  0  0  0  0  0  0  0  0
   13.0220    0.8770   22.8860 C   0  0  0  0  0  0  0  0  0  0  0  0
   11.9650    1.6970   23.0150 C   0  0  0  0  0  0  0  0  0  0  0  0
   10.7900    1.1410   22.7550 C   0  0  0  0  0  0  0  0  0  0  0  0
   10.6870   -0.1850   22.3770 C   0  0  0  0  0  0  0  0  0  0  0  0
  1  2  2  0
  1  3  1  0
  1  5  1  0
  9 10  2  0
 10 11  1  0
 11 12  2  0
  3 13  1  0
 12 13  1  0
  7 14  1  0
  9 14  1  0
 13 14  2  0
 16  6  1  1
 15 16  1  0
 16 17  1  0
 18  4  1  1
 15 18  1  0
 17 18  1  0
  8 19  1  0
 19 20  2  0
 20 21  1  0
  4 22  1  0
 21 22  2  0
 22 23  1  0
  5 24  1  0
 19 24  1  0
 23 24  2  0
M  END
