x2649-x2052
     RDKit          3D

 39 43  0  0  0  0  0  0  0  0999 V2000
    5.6540   -1.6530   25.2640 C   0  0  0  0  0  0  0  0  0  0  0  0
    4.5520   -1.8730   25.7480 O   0  0  0  0  0  0  0  0  0  0  0  0
    6.6530   -0.9450   25.9220 N   0  0  0  0  0  0  0  0  0  0  0  0
    5.3400   -4.4900   19.8920 O   0  0  0  0  0  0  0  0  0  0  0  0
    5.6460    2.1810   30.4780 O   0  0  0  0  0  0  0  0  0  0  0  0
    6.1240   -3.5870   20.1880 C   0  0  0  0  0  0  0  0  0  0  0  0
    7.0520   -3.0560   19.0990 C   0  0  0  0  0  0  0  0  0  0  0  0
    6.2490    3.4690   30.4200 C   0  0  0  0  0  0  0  0  0  0  0  0
    7.3660   -0.8350   20.9280 N   0  0  0  0  0  0  0  0  0  0  0  0
    7.9450   -0.9980   23.6480 C   0  0  0  0  0  0  0  0  0  0  0  0
    8.9250    1.0850   21.2050 O   0  0  0  0  0  0  0  0  0  0  0  0
   13.2600   -2.2780   21.1810 Cl  0  0  0  0  0  0  0  0  0  0  0  0
    8.8490   -0.9450   22.5820 C   0  0  1  0  0  0  0  0  0  0  0  0
    8.3530   -0.2150   21.5170 C   0  0  0  0  0  0  0  0  0  0  0  0
    4.9710    0.9730   21.7690 C   0  0  0  0  0  0  0  0  0  0  0  0
    6.1840   -3.0830   21.4890 N   0  0  0  0  0  0  0  0  0  0  0  0
    7.0160   -1.9260   21.8610 C   0  0  2  0  0  0  0  0  0  0  0  0
    6.5960   -1.3110   23.0610 C   0  0  1  0  0  0  0  0  0  0  0  0
    5.8770   -2.1740   23.8660 C   0  0  1  0  0  0  0  0  0  0  0  0
    6.2750   -3.4920   23.6950 C   0  0  0  0  0  0  0  0  0  0  0  0
    6.1980   -3.8810   22.3500 C   0  0  0  0  0  0  0  0  0  0  0  0
    6.6690    1.9190   28.2360 N   0  0  0  0  0  0  0  0  0  0  0  0
    6.6940    1.0520   27.4810 C   0  0  0  0  0  0  0  0  0  0  0  0
    6.3260   -0.2290   27.1710 C   0  0  0  0  0  0  0  0  0  0  0  0
    5.5810   -0.8020   28.1880 C   0  0  0  0  0  0  0  0  0  0  0  0
    5.2900   -0.0730   29.3570 C   0  0  0  0  0  0  0  0  0  0  0  0
    5.8790    1.4060   29.3870 C   0  0  0  0  0  0  0  0  0  0  0  0
    6.1660    0.6000   17.5950 N   0  0  0  0  0  0  0  0  0  0  0  0
    5.1540    1.3660   18.0150 C   0  0  0  0  0  0  0  0  0  0  0  0
    4.7570    1.4900   19.3450 C   0  0  0  0  0  0  0  0  0  0  0  0
    5.4510    0.7770   20.3680 C   0  0  0  0  0  0  0  0  0  0  0  0
    6.5490   -0.0650   20.0230 C   0  0  0  0  0  0  0  0  0  0  0  0
    6.8620   -0.1270   18.6870 C   0  0  0  0  0  0  0  0  0  0  0  0
   10.7480    0.2740   23.7590 C   0  0  0  0  0  0  0  0  0  0  0  0
   12.1120    0.4230   23.8640 C   0  0  0  0  0  0  0  0  0  0  0  0
   12.9350   -0.3530   23.0770 C   0  0  0  0  0  0  0  0  0  0  0  0
   12.3750   -1.2710   22.1990 C   0  0  0  0  0  0  0  0  0  0  0  0
   11.0790   -1.4190   22.0920 C   0  0  0  0  0  0  0  0  0  0  0  0
   10.2560   -0.6500   22.8620 C   0  0  0  0  0  0  0  0  0  0  0  0
  1  2  2  0
  1  3  1  0
  4  6  2  0
  6  7  1  0
  5  8  1  0
 10 13  1  0
  9 14  1  0
 11 14  2  0
 13 14  1  0
  6 16  1  0
 17  9  1  6
 16 17  1  0
 18 10  1  1
 17 18  1  0
 19  1  1  1
 18 19  1  0
 19 20  1  0
 16 21  1  0
 20 21  1  0
 22 23  2  0
  3 24  1  0
 23 24  1  0
 24 25  2  0
 25 26  1  0
  5 27  1  0
 22 27  1  0
 26 27  2  0
 28 29  2  0
 29 30  1  0
 15 31  1  0
 30 31  2  0
  9 32  1  0
 31 32  1  0
 28 33  1  0
 32 33  2  0
 34 35  2  0
 35 36  1  0
 12 37  1  0
 36 37  2  0
 37 38  1  0
 13 39  1  1
 34 39  1  0
 38 39  2  0
M  END
