x2643-x0830
     RDKit          3D

 28 32  0  0  0  0  0  0  0  0999 V2000
    7.9420   -3.6350   19.5560 C   0  0  0  0  0  0  0  0  0  0  0  0
    5.8060   -3.0300   19.1670 O   0  0  0  0  0  0  0  0  0  0  0  0
    6.8050   -2.8200   19.9210 C   0  0  0  0  0  0  0  0  0  0  0  0
    9.2170   -2.0320   23.9990 C   0  0  0  0  0  0  0  0  0  0  0  0
    8.4170   -0.0700   21.6960 O   0  0  0  0  0  0  0  0  0  0  0  0
    6.9470   -1.9880   21.2330 C   0  0  1  0  0  0  0  0  0  0  0  0
    6.6040   -2.8490   22.2440 C   0  0  0  0  0  0  0  0  0  0  0  0
    7.7610   -3.3540   22.7760 C   0  0  0  0  0  0  0  0  0  0  0  0
    8.7860   -2.4110   22.6250 C   0  0  2  0  0  0  0  0  0  0  0  0
    9.4720   -2.2490   21.4640 C   0  0  0  0  0  0  0  0  0  0  0  0
    8.2800   -1.5080   21.5760 C   0  0  2  0  0  0  0  0  0  0  0  0
   11.5710   -2.2050   22.8420 C   0  0  0  0  0  0  0  0  0  0  0  0
   12.7400   -1.5460   22.4240 C   0  0  0  0  0  0  0  0  0  0  0  0
   12.8540   -0.0560   22.6390 C   0  0  0  0  0  0  0  0  0  0  0  0
   11.8190    0.6220   23.2280 C   0  0  0  0  0  0  0  0  0  0  0  0
   10.6630   -0.0450   23.6470 C   0  0  0  0  0  0  0  0  0  0  0  0
   10.5370   -1.4690   23.4520 C   0  0  0  0  0  0  0  0  0  0  0  0
   11.9240    1.9290   23.3930 C   0  0  0  0  0  0  0  0  0  0  0  0
   10.8970    2.6420   23.9720 C   0  0  0  0  0  0  0  0  0  0  0  0
    9.7380    1.9950   24.4110 C   0  0  0  0  0  0  0  0  0  0  0  0
    9.6070    0.6470   24.2590 C   0  0  0  0  0  0  0  0  0  0  0  0
    6.4600    0.6760   17.7030 N   0  0  0  0  0  0  0  0  0  0  0  0
    6.7060   -0.1100   18.8810 C   0  0  0  0  0  0  0  0  0  0  0  0
    5.8280   -0.0870   20.0090 C   0  0  0  0  0  0  0  0  0  0  0  0
    4.7080    0.7460   19.9100 C   0  0  0  0  0  0  0  0  0  0  0  0
    4.4580    1.5060   18.7920 C   0  0  0  0  0  0  0  0  0  0  0  0
    5.2960    1.4840   17.7170 C   0  0  0  0  0  0  0  0  0  0  0  0
    6.0100   -0.8220   21.1750 C   0  0  0  0  0  0  0  0  0  0  0  0
  1  3  1  0
  2  3  2  0
  6  3  1  0
  6  7  1  0
  7  8  1  0
  9  4  1  1
  8  9  1  0
  9 10  1  0
 11  5  1  1
  6 11  1  0
  9 11  1  0
 10 11  1  0
 12 13  2  0
 13 14  1  0
 14 15  2  0
 15 16  1  0
  4 17  1  0
 12 17  1  0
 16 17  2  0
 15 18  1  0
 18 19  2  0
 19 20  1  0
 16 21  1  0
 20 21  2  0
 22 23  2  0
 23 24  1  0
 24 25  2  0
 25 26  1  0
 22 27  1  0
 26 27  2  0
  6 28  1  6
 24 28  1  0
M  END
