x2646-x2779
     RDKit          3D

 28 31  0  0  0  0  0  0  0  0999 V2000
    4.4720    1.1060   21.7960 C   0  0  0  0  0  0  0  0  0  0  0  0
    6.1390    0.5890   17.8860 N   0  0  0  0  0  0  0  0  0  0  0  0
    6.9530   -0.1010   18.7660 C   0  0  0  0  0  0  0  0  0  0  0  0
    6.1980    0.2080   20.0650 C   0  0  0  0  0  0  0  0  0  0  0  0
    4.9690    0.9950   20.3930 C   0  0  0  0  0  0  0  0  0  0  0  0
    4.2710    1.6640   19.2390 C   0  0  0  0  0  0  0  0  0  0  0  0
    5.0160    1.3510   17.9910 C   0  0  0  0  0  0  0  0  0  0  0  0
    7.1450    0.6850   22.2420 O   0  0  0  0  0  0  0  0  0  0  0  0
   13.2320   -1.9520   21.2690 Cl  0  0  0  0  0  0  0  0  0  0  0  0
    7.6040   -0.4450   22.2470 C   0  0  0  0  0  0  0  0  0  0  0  0
    8.5560   -0.9780   23.3410 C   0  0  2  0  0  0  0  0  0  0  0  0
    7.2370   -3.0150   18.7590 C   0  0  0  0  0  0  0  0  0  0  0  0
    5.4600   -4.2020   19.8000 O   0  0  0  0  0  0  0  0  0  0  0  0
    6.2940   -3.2890   19.9270 C   0  0  0  0  0  0  0  0  0  0  0  0
    9.8030   -3.0610   23.5010 C   0  0  0  0  0  0  0  0  0  0  0  0
   10.5800    0.5330   24.0000 C   0  0  0  0  0  0  0  0  0  0  0  0
   11.9490    0.7960   23.8330 C   0  0  0  0  0  0  0  0  0  0  0  0
   12.8140    0.0720   23.0150 C   0  0  0  0  0  0  0  0  0  0  0  0
   12.2930   -0.9920   22.3040 C   0  0  0  0  0  0  0  0  0  0  0  0
   10.9610   -1.2800   22.4340 C   0  0  0  0  0  0  0  0  0  0  0  0
    9.9970   -0.5200   23.3120 C   0  0  0  0  0  0  0  0  0  0  0  0
    6.4160   -2.4940   21.1180 N   0  0  0  0  0  0  0  0  0  0  0  0
    7.4290   -1.5090   21.1350 C   0  0  2  0  0  0  0  0  0  0  0  0
    8.6410   -2.0590   21.5870 C   0  0  0  0  0  0  0  0  0  0  0  0
    8.5350   -2.4450   22.9210 C   0  0  2  0  0  0  0  0  0  0  0  0
    7.4230   -3.2280   23.2610 C   0  0  0  0  0  0  0  0  0  0  0  0
    6.3070   -3.1610   22.3720 C   0  0  0  0  0  0  0  0  0  0  0  0
    7.7130   -0.7820   19.8610 C   0  0  0  0  0  0  0  0  0  0  0  0
  2  3  2  0
  3  4  1  0
  1  5  1  0
  4  5  2  0
  5  6  1  0
  2  7  1  0
  6  7  2  0
  8 10  2  0
 10 11  1  0
 12 14  1  0
 13 14  2  0
 16 17  2  0
 17 18  1  0
  9 19  1  0
 18 19  2  0
 19 20  1  0
 11 21  1  6
 16 21  1  0
 20 21  2  0
 14 22  1  0
 10 23  1  0
 22 23  1  0
 23 24  1  0
 11 25  1  0
 25 15  1  1
 24 25  1  0
 25 26  1  0
 22 27  1  0
 26 27  1  0
  3 28  1  0
 23 28  1  6
M  END
