x2649-x1358
     RDKit          3D

 39 43  0  0  0  0  0  0  0  0999 V2000
    7.1770   -2.2820   25.7590 N   0  0  0  0  0  0  0  0  0  0  0  0
    5.3660   -0.1170   25.4300 O   0  0  0  0  0  0  0  0  0  0  0  0
    5.1020   -3.4420   25.7730 O   0  0  0  0  0  0  0  0  0  0  0  0
    5.0930   -4.3130   19.7330 O   0  0  0  0  0  0  0  0  0  0  0  0
    6.1870   -3.1420   25.2750 C   0  0  0  0  0  0  0  0  0  0  0  0
    6.1850   -3.9150   20.0850 C   0  0  0  0  0  0  0  0  0  0  0  0
    7.1010   -3.1690   19.1200 C   0  0  0  0  0  0  0  0  0  0  0  0
    6.9180   -0.5340   21.0260 N   0  0  0  0  0  0  0  0  0  0  0  0
    7.7200   -1.5300   23.5420 C   0  0  2  0  0  0  0  0  0  0  0  0
    8.8140    0.9250   21.5130 O   0  0  0  0  0  0  0  0  0  0  0  0
   13.2930   -2.0760   21.1990 Cl  0  0  0  0  0  0  0  0  0  0  0  0
    8.6290   -1.2300   22.4950 C   0  0  1  0  0  0  0  0  0  0  0  0
    8.1060   -0.2360   21.6530 C   0  0  0  0  0  0  0  0  0  0  0  0
    4.8090    1.2170   21.5840 C   0  0  0  0  0  0  0  0  0  0  0  0
    8.2370   -2.0040   24.7540 C   0  0  0  0  0  0  0  0  0  0  0  0
    6.0280   -0.2620   26.6260 C   0  0  0  0  0  0  0  0  0  0  0  0
    6.9270   -1.3130   26.8370 C   0  0  0  0  0  0  0  0  0  0  0  0
    7.6670   -1.4810   28.1760 C   0  0  0  0  0  0  0  0  0  0  0  0
    7.3740   -0.5220   29.1320 C   0  0  0  0  0  0  0  0  0  0  0  0
    6.4740    0.5070   28.8780 C   0  0  0  0  0  0  0  0  0  0  0  0
    5.7950    0.6650   27.6570 C   0  0  0  0  0  0  0  0  0  0  0  0
    6.6480   -4.1620   21.3650 N   0  0  0  0  0  0  0  0  0  0  0  0
    7.4400   -3.2340   21.9160 C   0  0  0  0  0  0  0  0  0  0  0  0
    6.8570   -2.6790   23.0300 C   0  0  1  0  0  0  0  0  0  0  0  0
    6.6340   -3.6940   23.9630 C   0  0  2  0  0  0  0  0  0  0  0  0
    5.8070   -4.7210   23.4590 C   0  0  0  0  0  0  0  0  0  0  0  0
    6.1680   -5.1320   22.1700 C   0  0  0  0  0  0  0  0  0  0  0  0
    6.2470    0.5930   17.6740 N   0  0  0  0  0  0  0  0  0  0  0  0
    5.2200    1.4480   17.9110 C   0  0  0  0  0  0  0  0  0  0  0  0
    4.7310    1.6700   19.1630 C   0  0  0  0  0  0  0  0  0  0  0  0
    5.3320    0.9810   20.2000 C   0  0  0  0  0  0  0  0  0  0  0  0
    6.3890    0.0970   19.9760 C   0  0  0  0  0  0  0  0  0  0  0  0
    6.9490   -0.1890   18.7270 C   0  0  0  0  0  0  0  0  0  0  0  0
   10.4150    0.1860   23.7530 C   0  0  0  0  0  0  0  0  0  0  0  0
   11.8090    0.4780   23.8920 C   0  0  0  0  0  0  0  0  0  0  0  0
   12.7520   -0.2170   23.1010 C   0  0  0  0  0  0  0  0  0  0  0  0
   12.2950   -1.1740   22.2100 C   0  0  0  0  0  0  0  0  0  0  0  0
   10.9650   -1.4330   22.0970 C   0  0  0  0  0  0  0  0  0  0  0  0
   10.0160   -0.7890   22.8270 C   0  0  0  0  0  0  0  0  0  0  0  0
  1  5  1  0
  3  5  2  0
  4  6  2  0
  6  7  1  0
  9 12  1  0
  8 13  1  0
 10 13  2  0
 12 13  1  1
  1 15  1  0
  9 15  1  1
  2 16  1  0
  1 17  1  0
 16 17  2  0
 17 18  1  0
 18 19  2  0
 19 20  1  0
 16 21  1  0
 20 21  2  0
  6 22  1  0
 22 23  1  0
  9 24  1  0
 24 23  1  6
  5 25  1  0
 24 25  1  0
 25 26  1  6
 22 27  1  0
 26 27  1  0
 28 29  2  0
 29 30  1  0
 14 31  1  0
 30 31  2  0
  8 32  1  0
 31 32  1  0
 28 33  1  0
 32 33  2  0
 34 35  2  0
 35 36  1  0
 11 37  1  0
 36 37  2  0
 37 38  1  0
 12 39  1  0
 34 39  1  0
 38 39  2  0
M  END
