x2649-x0946
     RDKit          3D

 29 31  0  0  0  0  0  0  0  0999 V2000
    6.8600   -0.5990   21.1180 N   0  0  0  0  0  0  0  0  0  0  0  0
    8.0700   -1.1510   24.0240 C   0  0  0  0  0  0  0  0  0  0  0  0
    8.6790    0.8860   21.4480 O   0  0  0  0  0  0  0  0  0  0  0  0
   13.2130   -2.8980   21.4350 Cl  0  0  0  0  0  0  0  0  0  0  0  0
    8.7030   -1.1910   22.6390 C   0  0  1  0  0  0  0  0  0  0  0  0
    8.1140   -0.1740   21.6940 C   0  0  0  0  0  0  0  0  0  0  0  0
    5.1320    0.7850   21.4310 C   0  0  0  0  0  0  0  0  0  0  0  0
    9.0190    5.5400   22.8580 N   0  0  0  0  0  0  0  0  0  0  0  0
    9.6870    5.5950   25.3290 O   0  0  0  0  0  0  0  0  0  0  0  0
   11.1330    6.6790   23.5950 O   0  0  0  0  0  0  0  0  0  0  0  0
   10.2590    5.6010   24.0130 S   0  0  0  0  0  0  0  0  0  0  0  0
    6.2600    0.6740   17.5790 N   0  0  0  0  0  0  0  0  0  0  0  0
    5.0930    1.6400   17.7760 C   0  0  0  0  0  0  0  0  0  0  0  0
    4.5700    1.7910   19.0750 C   0  0  0  0  0  0  0  0  0  0  0  0
    5.1520    1.0720   20.0580 C   0  0  0  0  0  0  0  0  0  0  0  0
    6.3250    0.0940   19.9530 C   0  0  0  0  0  0  0  0  0  0  0  0
    6.8510   -0.0840   18.7020 C   0  0  0  0  0  0  0  0  0  0  0  0
   10.7670    0.1250   23.1420 C   0  0  0  0  0  0  0  0  0  0  0  0
   12.1400    0.5340   23.2590 C   0  0  0  0  0  0  0  0  0  0  0  0
   12.7900   -0.5930   22.6980 C   0  0  0  0  0  0  0  0  0  0  0  0
   12.2540   -1.7290   22.1340 C   0  0  0  0  0  0  0  0  0  0  0  0
   10.9680   -1.9430   22.1030 C   0  0  0  0  0  0  0  0  0  0  0  0
   10.1950   -1.0310   22.6160 C   0  0  0  0  0  0  0  0  0  0  0  0
   12.4370    1.9030   23.0350 C   0  0  0  0  0  0  0  0  0  0  0  0
   13.0630    3.0610   22.6060 C   0  0  0  0  0  0  0  0  0  0  0  0
   12.3700    4.3220   22.9100 C   0  0  0  0  0  0  0  0  0  0  0  0
   11.1260    4.1020   23.6450 C   0  0  0  0  0  0  0  0  0  0  0  0
   10.6460    2.8350   24.0260 C   0  0  0  0  0  0  0  0  0  0  0  0
   11.2400    1.5310   23.7530 C   0  0  0  0  0  0  0  0  0  0  0  0
  5  2  1  1
  1  6  1  0
  3  6  2  0
  5  6  1  0
 11  8  1  0
  9 11  2  0
 10 11  2  0
 12 13  2  0
 13 14  1  0
  7 15  1  0
 14 15  2  0
  1 16  1  0
 15 16  1  0
 12 17  1  0
 16 17  2  0
 18 19  2  0
 19 20  1  0
  4 21  1  0
 20 21  2  0
 21 22  1  0
  5 23  1  0
 18 23  1  0
 22 23  2  0
 24 25  2  0
 25 26  1  0
 11 27  1  0
 26 27  2  0
 27 28  1  0
 19 29  1  0
 24 29  1  0
 28 29  2  0
M  END
