x2643-x0770
     RDKit          3D

 28 31  0  0  0  0  0  0  0  0999 V2000
    7.3760   -3.0060   18.8000 C   0  0  0  0  0  0  0  0  0  0  0  0
    5.4890   -4.0680   19.7540 O   0  0  0  0  0  0  0  0  0  0  0  0
   13.2760   -1.8410   21.2240 Cl  0  0  0  0  0  0  0  0  0  0  0  0
    6.5090   -3.3850   19.9680 C   0  0  0  0  0  0  0  0  0  0  0  0
    9.3600   -2.5800   24.3040 C   0  0  0  0  0  0  0  0  0  0  0  0
   12.7420    1.7230   23.1620 Cl  0  0  0  0  0  0  0  0  0  0  0  0
    8.6510   -0.1770   20.8750 O   0  0  0  0  0  0  0  0  0  0  0  0
    7.9680   -0.8840   21.5840 C   0  0  0  0  0  0  0  0  0  0  0  0
    6.9630   -3.0320   21.2460 N   0  0  0  0  0  0  0  0  0  0  0  0
    6.9690   -1.6970   21.6900 C   0  0  1  0  0  0  0  0  0  0  0  0
    7.5340   -1.5190   22.9430 C   0  0  1  0  0  0  0  0  0  0  0  0
    8.2310   -2.6340   23.3620 N   0  0  0  0  0  0  0  0  0  0  0  0
    7.3680   -3.8510   23.4660 C   0  0  0  0  0  0  0  0  0  0  0  0
    6.5500   -3.8810   22.3330 C   0  0  0  0  0  0  0  0  0  0  0  0
   10.5320   -0.3430   24.2710 C   0  0  0  0  0  0  0  0  0  0  0  0
   11.5080    0.8270   23.8950 C   0  0  0  0  0  0  0  0  0  0  0  0
   12.2490    0.0870   22.9390 C   0  0  0  0  0  0  0  0  0  0  0  0
   12.1850   -1.3160   22.4060 C   0  0  0  0  0  0  0  0  0  0  0  0
   11.2620   -2.1470   22.8550 C   0  0  0  0  0  0  0  0  0  0  0  0
   10.4310   -1.6670   23.7870 C   0  0  0  0  0  0  0  0  0  0  0  0
    6.3480    0.7150   17.5770 N   0  0  0  0  0  0  0  0  0  0  0  0
    6.9280    0.0870   18.6590 C   0  0  0  0  0  0  0  0  0  0  0  0
    6.2300    0.2850   19.8520 C   0  0  0  0  0  0  0  0  0  0  0  0
    5.0380    0.9760   20.2790 C   0  0  0  0  0  0  0  0  0  0  0  0
    4.6410    1.5110   19.0170 C   0  0  0  0  0  0  0  0  0  0  0  0
    5.2650    1.3720   17.8190 C   0  0  0  0  0  0  0  0  0  0  0  0
    5.6400   -1.0350   21.4280 C   0  0  0  0  0  0  0  0  0  0  0  0
    5.5770    0.3780   21.4080 C   0  0  0  0  0  0  0  0  0  0  0  0
  1  4  1  0
  2  4  2  0
  7  8  2  0
  4  9  1  0
  8 10  1  0
  9 10  1  0
 11  8  1  6
 10 11  1  0
  5 12  1  0
 11 12  1  0
 12 13  1  0
  9 14  1  0
 13 14  1  0
  6 16  1  0
 15 16  2  0
 16 17  1  0
  3 18  1  0
 17 18  2  0
 18 19  1  0
  5 20  1  0
 15 20  1  0
 19 20  2  0
 21 22  2  0
 22 23  1  0
 23 24  2  0
 24 25  1  0
 21 26  1  0
 25 26  2  0
 10 27  1  1
 24 28  1  0
 27 28  1  0
M  END
