x2643-x2097
     RDKit          3D

 24 27  0  0  0  0  0  0  0  0999 V2000
    6.9230   -1.0370   20.6620 N   0  0  0  0  0  0  0  0  0  0  0  0
    8.7490    0.6730   20.9720 O   0  0  0  0  0  0  0  0  0  0  0  0
   13.3470    0.0750   23.1430 Cl  0  0  0  0  0  0  0  0  0  0  0  0
    8.1960   -1.0840   22.5980 C   0  0  0  0  0  0  0  0  0  0  0  0
    7.9800   -0.4730   21.3200 C   0  0  0  0  0  0  0  0  0  0  0  0
    5.7300   -5.1620   20.0170 N   0  0  0  0  0  0  0  0  0  0  0  0
    6.3640   -4.0380   20.0150 C   0  0  0  0  0  0  0  0  0  0  0  0
   11.7760   -0.2670   23.5930 C   0  0  0  0  0  0  0  0  0  0  0  0
   11.1080   -0.3870   24.9460 C   0  0  0  0  0  0  0  0  0  0  0  0
    9.7590   -0.6720   24.8310 C   0  0  0  0  0  0  0  0  0  0  0  0
    9.3960   -0.7940   23.3580 C   0  0  0  0  0  0  0  0  0  0  0  0
   10.7160   -0.5380   22.3280 S   0  0  0  0  0  0  0  0  0  0  0  0
    6.2990    0.8620   17.6140 N   0  0  0  0  0  0  0  0  0  0  0  0
    6.9620    0.0360   18.4590 C   0  0  0  0  0  0  0  0  0  0  0  0
    6.2150   -0.1760   19.7520 C   0  0  0  0  0  0  0  0  0  0  0  0
    4.9810    0.3830   20.0870 C   0  0  0  0  0  0  0  0  0  0  0  0
    4.3610    1.2200   19.1650 C   0  0  0  0  0  0  0  0  0  0  0  0
    5.1190    1.4470   17.8470 C   0  0  0  0  0  0  0  0  0  0  0  0
    6.2100   -3.3110   21.3450 C   0  0  0  0  0  0  0  0  0  0  0  0
    6.2730   -1.9320   21.5880 N   0  0  0  0  0  0  0  0  0  0  0  0
    6.9660   -1.8970   22.7830 C   0  0  0  0  0  0  0  0  0  0  0  0
    6.5970   -2.5790   23.9250 C   0  0  0  0  0  0  0  0  0  0  0  0
    6.0840   -3.8100   23.5820 C   0  0  0  0  0  0  0  0  0  0  0  0
    6.0790   -4.2160   22.3010 N   0  0  0  0  0  0  0  0  0  0  0  0
  1  5  1  0
  2  5  2  0
  4  5  1  0
  6  7  2  3
  3  8  1  0
  8  9  2  0
  9 10  1  0
  4 11  1  0
 10 11  2  0
  8 12  1  0
 11 12  1  0
 13 14  2  0
  1 15  1  0
 14 15  1  0
 15 16  2  0
 16 17  1  0
 13 18  1  0
 17 18  2  0
  7 19  1  0
  1 20  1  0
 19 20  1  0
  4 21  2  0
 20 21  1  0
 21 22  1  0
 22 23  2  0
 19 24  2  0
 23 24  1  0
M  END
