x2649-x2964
     RDKit          3D

 20 21  0  0  0  0  0  0  0  0999 V2000
    6.8290   -0.6330   21.2240 N   0  0  0  0  0  0  0  0  0  0  0  0
    7.8790   -1.1670   24.1810 C   0  0  0  0  0  0  0  0  0  0  0  0
    8.7110    0.7720   21.5150 O   0  0  0  0  0  0  0  0  0  0  0  0
   13.2620   -2.2610   21.1190 Cl  0  0  0  0  0  0  0  0  0  0  0  0
    8.6300   -1.2180   22.8630 C   0  0  1  0  0  0  0  0  0  0  0  0
    8.0930   -0.2480   21.8180 C   0  0  0  0  0  0  0  0  0  0  0  0
    5.0030    0.6420   21.3650 C   0  0  0  0  0  0  0  0  0  0  0  0
    3.3470    2.4010   19.1070 N   0  0  0  0  0  0  0  0  0  0  0  0
    6.4320    0.5950   17.6440 N   0  0  0  0  0  0  0  0  0  0  0  0
    5.1920    1.4690   17.7320 C   0  0  0  0  0  0  0  0  0  0  0  0
    4.5490    1.5920   18.9670 C   0  0  0  0  0  0  0  0  0  0  0  0
    5.1060    0.9220   20.0010 C   0  0  0  0  0  0  0  0  0  0  0  0
    6.3450    0.0240   20.0040 C   0  0  0  0  0  0  0  0  0  0  0  0
    6.9960   -0.1360   18.8030 C   0  0  0  0  0  0  0  0  0  0  0  0
   10.5980    0.0100   23.8480 C   0  0  0  0  0  0  0  0  0  0  0  0
   11.9630    0.2510   23.8810 C   0  0  0  0  0  0  0  0  0  0  0  0
   12.8610   -0.4110   23.0670 C   0  0  0  0  0  0  0  0  0  0  0  0
   12.3360   -1.3600   22.1870 C   0  0  0  0  0  0  0  0  0  0  0  0
   10.9920   -1.6000   22.1490 C   0  0  0  0  0  0  0  0  0  0  0  0
   10.1050   -0.9450   22.9490 C   0  0  0  0  0  0  0  0  0  0  0  0
  5  2  1  1
  1  6  1  0
  3  6  2  0
  5  6  1  0
  9 10  2  0
  8 11  1  0
 10 11  1  0
  7 12  1  0
 11 12  2  0
  1 13  1  0
 12 13  1  0
  9 14  1  0
 13 14  2  0
 15 16  2  0
 16 17  1  0
  4 18  1  0
 17 18  2  0
 18 19  1  0
  5 20  1  0
 15 20  1  0
 19 20  2  0
M  END
