x2646-x3117
     RDKit          3D

 34 36  0  0  0  0  0  0  0  0999 V2000
    6.8740   -1.6040   21.9230 N   0  0  0  0  0  0  0  0  0  0  0  0
    6.6780   -4.7750   20.3470 C   0  0  0  0  0  0  0  0  0  0  0  0
    4.7910   -2.9990   21.2860 O   0  0  0  0  0  0  0  0  0  0  0  0
    6.8250   -4.0890   21.6840 C   0  0  0  0  0  0  0  0  0  0  0  0
    7.6780    1.9420   22.7070 N   0  0  0  0  0  0  0  0  0  0  0  0
    9.0220    0.5080   21.4650 O   0  0  0  0  0  0  0  0  0  0  0  0
    6.0440   -2.8100   21.6050 C   0  0  0  0  0  0  0  0  0  0  0  0
    6.7050   -0.1650   21.5730 C   0  0  1  0  0  0  0  0  0  0  0  0
    7.9140    0.7830   21.9170 C   0  0  0  0  0  0  0  0  0  0  0  0
   12.0730   -1.9220   24.4730 C   0  0  0  0  0  0  0  0  0  0  0  0
   12.3280   -0.6440   25.2440 C   0  0  0  0  0  0  0  0  0  0  0  0
   13.2540   -2.0590   23.5470 C   0  0  0  0  0  0  0  0  0  0  0  0
   12.0240   -3.1690   25.3520 C   0  0  0  0  0  0  0  0  0  0  0  0
    4.3780    1.6020   21.4310 C   0  0  0  0  0  0  0  0  0  0  0  0
    6.2610    0.2190   17.8410 N   0  0  0  0  0  0  0  0  0  0  0  0
    5.2030    1.0410   17.8280 C   0  0  0  0  0  0  0  0  0  0  0  0
    4.5570    1.5090   18.9650 C   0  0  0  0  0  0  0  0  0  0  0  0
    5.0550    1.0980   20.1940 C   0  0  0  0  0  0  0  0  0  0  0  0
    6.1460    0.2550   20.2380 C   0  0  0  0  0  0  0  0  0  0  0  0
    6.7140   -0.1620   19.0470 C   0  0  0  0  0  0  0  0  0  0  0  0
    9.7460    5.1750   24.1740 O   0  0  0  0  0  0  0  0  0  0  0  0
   10.5820    4.1450   23.6560 C   0  0  0  0  0  0  0  0  0  0  0  0
    9.8200    2.8390   23.6900 C   0  0  0  0  0  0  0  0  0  0  0  0
    8.6060    3.0330   22.7510 C   0  0  0  0  0  0  0  0  0  0  0  0
    7.9500    4.2620   22.9990 C   0  0  0  0  0  0  0  0  0  0  0  0
    8.7080    5.4400   23.2340 C   0  0  0  0  0  0  0  0  0  0  0  0
    9.3220   -2.0720   21.8320 C   0  0  0  0  0  0  0  0  0  0  0  0
   10.5970   -2.1560   22.4140 C   0  0  0  0  0  0  0  0  0  0  0  0
   10.7270   -1.8630   23.7710 C   0  0  0  0  0  0  0  0  0  0  0  0
    9.6200   -1.5110   24.4960 C   0  0  0  0  0  0  0  0  0  0  0  0
    8.3680   -1.4340   23.9100 C   0  0  0  0  0  0  0  0  0  0  0  0
    8.1930   -1.7120   22.5550 C   0  0  0  0  0  0  0  0  0  0  0  0
   13.1980   -2.0550   20.9540 Cl  0  0  0  0  0  0  0  0  0  0  0  0
   13.1530   -1.1010   22.4050 C   0  0  0  0  0  0  0  0  0  0  0  0
  2  4  1  0
  1  7  1  0
  3  7  2  0
  4  7  1  0
  1  8  1  0
  5  9  1  0
  6  9  2  0
  8  9  1  6
 10 11  1  0
 10 12  1  0
 10 13  1  0
 15 16  2  0
 16 17  1  0
 14 18  1  0
 17 18  2  0
  8 19  1  0
 18 19  1  0
 15 20  1  0
 19 20  2  0
 21 22  1  0
 22 23  1  0
  5 24  1  0
 23 24  1  0
 24 25  1  0
 21 26  1  0
 25 26  1  0
 27 28  2  0
 10 29  1  0
 28 29  1  0
 29 30  2  0
 30 31  1  0
  1 32  1  0
 27 32  1  0
 31 32  2  0
 12 34  1  0
 33 34  1  0
M  END
