x2643-x2694
     RDKit          3D

 33 35  0  0  0  0  0  0  0  0999 V2000
    7.0640   -1.4760   21.7500 N   0  0  0  0  0  0  0  0  0  0  0  0
    6.9210   -4.8980   20.6960 C   0  0  0  0  0  0  0  0  0  0  0  0
    4.8780   -3.0240   21.1740 O   0  0  0  0  0  0  0  0  0  0  0  0
    7.0110   -3.9350   21.8740 C   0  0  0  0  0  0  0  0  0  0  0  0
    7.5990    2.0050   22.7470 N   0  0  0  0  0  0  0  0  0  0  0  0
    8.9640    0.8160   21.4130 O   0  0  0  0  0  0  0  0  0  0  0  0
    6.1810   -2.7220   21.5510 C   0  0  0  0  0  0  0  0  0  0  0  0
   10.9220    6.5410   23.7510 O   0  0  0  0  0  0  0  0  0  0  0  0
    6.7460   -0.0050   21.5850 C   0  0  1  0  0  0  0  0  0  0  0  0
    7.8390    0.9230   21.8980 C   0  0  0  0  0  0  0  0  0  0  0  0
   10.2660    1.8420   23.9130 C   0  0  0  0  0  0  0  0  0  0  0  0
   11.8170    6.4110   24.8550 C   0  0  0  0  0  0  0  0  0  0  0  0
   12.0820   -1.6110   23.4280 C   0  0  0  0  0  0  0  0  0  0  0  0
   12.7290   -0.3810   23.2030 C   0  0  0  0  0  0  0  0  0  0  0  0
   12.8860   -1.6030   22.1560 C   0  0  0  0  0  0  0  0  0  0  0  0
   12.6500   -2.4640   24.4260 C   0  0  0  0  0  0  0  0  0  0  0  0
    6.3600    0.4580   17.8650 N   0  0  0  0  0  0  0  0  0  0  0  0
    5.1800    1.3020   17.7860 C   0  0  0  0  0  0  0  0  0  0  0  0
    4.5460    1.6640   18.9500 C   0  0  0  0  0  0  0  0  0  0  0  0
    4.9860    1.2720   20.1940 C   0  0  0  0  0  0  0  0  0  0  0  0
    6.1690    0.4420   20.2740 C   0  0  0  0  0  0  0  0  0  0  0  0
    6.7800    0.0820   19.0750 C   0  0  0  0  0  0  0  0  0  0  0  0
    8.3970   -1.7750   23.8790 N   0  0  0  0  0  0  0  0  0  0  0  0
    9.7530   -1.7980   24.2780 O   0  0  0  0  0  0  0  0  0  0  0  0
   10.5740   -1.6220   23.2070 C   0  0  0  0  0  0  0  0  0  0  0  0
    9.6440   -1.4990   22.1840 C   0  0  0  0  0  0  0  0  0  0  0  0
    8.3060   -1.5810   22.5380 C   0  0  0  0  0  0  0  0  0  0  0  0
    9.7310    3.0720   23.5550 C   0  0  0  0  0  0  0  0  0  0  0  0
   10.5500    4.2240   23.7920 C   0  0  0  0  0  0  0  0  0  0  0  0
   10.0620    5.4960   23.4690 C   0  0  0  0  0  0  0  0  0  0  0  0
    8.7870    5.6150   22.9030 C   0  0  0  0  0  0  0  0  0  0  0  0
    7.9870    4.4810   22.6620 C   0  0  0  0  0  0  0  0  0  0  0  0
    8.4390    3.1900   22.9850 C   0  0  0  0  0  0  0  0  0  0  0  0
  2  4  1  0
  1  7  1  0
  3  7  2  0
  4  7  1  0
  1  9  1  0
  5 10  1  0
  6 10  2  0
  9 10  1  6
  8 12  1  0
 13 14  1  0
 13 15  1  0
 13 16  1  0
 17 18  2  0
 18 19  1  0
 19 20  2  0
  9 21  1  0
 20 21  1  0
 17 22  1  0
 21 22  2  0
 23 24  1  0
 13 25  1  0
 24 25  1  0
 25 26  2  0
  1 27  1  0
 23 27  2  0
 26 27  1  0
 11 28  1  0
 28 29  2  0
  8 30  1  0
 29 30  1  0
 30 31  2  0
 31 32  1  0
  5 33  1  0
 28 33  1  0
 32 33  2  0
M  END
