x2649-x0305
     RDKit          3D

 23 24  0  0  0  0  0  0  0  0999 V2000
    6.9420   -0.6950   20.9460 N   0  0  0  0  0  0  0  0  0  0  0  0
    7.6150   -1.1820   23.9800 C   0  0  0  0  0  0  0  0  0  0  0  0
    8.7700    0.7320   21.4650 O   0  0  0  0  0  0  0  0  0  0  0  0
   13.5590   -1.7270   21.8120 N   0  0  0  0  0  0  0  0  0  0  0  0
    8.4970   -1.3030   22.7590 C   0  0  1  0  0  0  0  0  0  0  0  0
    8.1280   -0.2960   21.6740 C   0  0  0  0  0  0  0  0  0  0  0  0
    4.8430    1.1150   21.6180 C   0  0  0  0  0  0  0  0  0  0  0  0
    8.6720    0.1120   27.3760 C   0  0  0  0  0  0  0  0  0  0  0  0
    8.6190   -0.1210   25.9780 C   0  0  0  0  0  0  0  0  0  0  0  0
    9.8420    0.3270   25.3330 N   0  0  0  0  0  0  0  0  0  0  0  0
   13.8270   -1.3820   20.5140 N   0  0  0  0  0  0  0  0  0  0  0  0
    6.2150    0.6370   17.5660 N   0  0  0  0  0  0  0  0  0  0  0  0
    5.2200    1.4980   17.8450 C   0  0  0  0  0  0  0  0  0  0  0  0
    4.6760    1.7140   19.2840 C   0  0  0  0  0  0  0  0  0  0  0  0
    5.2680    0.9710   20.3040 C   0  0  0  0  0  0  0  0  0  0  0  0
    6.2770    0.1130   19.9370 C   0  0  0  0  0  0  0  0  0  0  0  0
    6.7110   -0.0340   18.6470 C   0  0  0  0  0  0  0  0  0  0  0  0
   10.5190   -0.3620   24.1800 C   0  0  0  0  0  0  0  0  0  0  0  0
   11.8830   -0.2310   24.2980 C   0  0  0  0  0  0  0  0  0  0  0  0
   12.6440   -0.8060   23.3280 C   0  0  0  0  0  0  0  0  0  0  0  0
   12.2360   -1.5250   22.2140 C   0  0  0  0  0  0  0  0  0  0  0  0
   10.8600   -1.6120   22.1580 C   0  0  0  0  0  0  0  0  0  0  0  0
    9.9940   -1.0650   23.0800 C   0  0  0  0  0  0  0  0  0  0  0  0
  5  2  1  1
  1  6  1  0
  3  6  2  0
  5  6  1  0
  8  9  1  0
  9 10  1  0
  4 11  1  0
 12 13  2  0
 13 14  1  0
  7 15  1  0
 14 15  2  0
  1 16  1  0
 15 16  1  0
 12 17  1  0
 16 17  2  0
 10 18  1  0
 18 19  2  0
 19 20  1  0
  4 21  1  0
 20 21  2  0
 21 22  1  0
  5 23  1  0
 18 23  1  0
 22 23  2  0
M  END
