x2649-x0689
     RDKit          3D

 38 41  0  0  0  0  0  0  0  0999 V2000
    6.9690   -0.6630   21.0550 N   0  0  0  0  0  0  0  0  0  0  0  0
    7.9240   -0.9180   23.9010 C   0  0  0  0  0  0  0  0  0  0  0  0
    8.8420    0.7520   21.4410 O   0  0  0  0  0  0  0  0  0  0  0  0
   13.2250   -2.2910   21.1570 Cl  0  0  0  0  0  0  0  0  0  0  0  0
    8.5990   -1.1210   22.7000 C   0  0  1  0  0  0  0  0  0  0  0  0
    8.1950   -0.2600   21.7050 C   0  0  0  0  0  0  0  0  0  0  0  0
    4.8570    1.0650   21.6910 C   0  0  0  0  0  0  0  0  0  0  0  0
    7.1020   -3.4490   20.0670 C   0  0  0  0  0  0  0  0  0  0  0  0
    5.1880   -4.7990   19.9310 O   0  0  0  0  0  0  0  0  0  0  0  0
    6.2000   -4.5800   20.5630 C   0  0  0  0  0  0  0  0  0  0  0  0
    3.9810   -6.3180   25.6810 O   0  0  0  0  0  0  0  0  0  0  0  0
    5.6740   -4.5980   26.4150 O   0  0  0  0  0  0  0  0  0  0  0  0
    4.6270   -5.0350   25.5170 S   0  0  0  0  0  0  0  0  0  0  0  0
    7.5350   -2.2810   24.4540 C   0  0  0  0  0  0  0  0  0  0  0  0
    6.4480   -2.8470   23.7940 C   0  0  0  0  0  0  0  0  0  0  0  0
    6.2230    0.6960   17.4910 N   0  0  0  0  0  0  0  0  0  0  0  0
    5.1330    1.5910   17.8430 C   0  0  0  0  0  0  0  0  0  0  0  0
    4.6790    1.7270   19.1420 C   0  0  0  0  0  0  0  0  0  0  0  0
    5.3310    0.9240   20.2810 C   0  0  0  0  0  0  0  0  0  0  0  0
    6.3800    0.0650   19.9550 C   0  0  0  0  0  0  0  0  0  0  0  0
    6.7820   -0.0310   18.6500 C   0  0  0  0  0  0  0  0  0  0  0  0
   10.5620    0.1080   23.7830 C   0  0  0  0  0  0  0  0  0  0  0  0
   11.9410    0.3120   23.8650 C   0  0  0  0  0  0  0  0  0  0  0  0
   12.8020   -0.4210   23.0590 C   0  0  0  0  0  0  0  0  0  0  0  0
   12.2640   -1.3570   22.1790 C   0  0  0  0  0  0  0  0  0  0  0  0
   10.9160   -1.5740   22.0800 C   0  0  0  0  0  0  0  0  0  0  0  0
   10.0610   -0.8390   22.8800 C   0  0  0  0  0  0  0  0  0  0  0  0
    6.4810   -5.3460   21.7100 N   0  0  0  0  0  0  0  0  0  0  0  0
    5.6390   -6.3230   22.0180 C   0  0  0  0  0  0  0  0  0  0  0  0
    4.8830   -6.0570   23.1420 C   0  0  0  0  0  0  0  0  0  0  0  0
    5.2580   -4.9970   23.9190 N   0  0  0  0  0  0  0  0  0  0  0  0
    6.5970   -4.3610   23.8750 C   0  0  1  0  0  0  0  0  0  0  0  0
    7.1840   -5.0030   22.7870 C   0  0  0  0  0  0  0  0  0  0  0  0
    3.8270   -2.1780   25.9990 S   0  0  0  0  0  0  0  0  0  0  0  0
    3.3700   -3.7980   25.5810 C   0  0  0  0  0  0  0  0  0  0  0  0
    1.9890   -3.8680   25.3490 C   0  0  0  0  0  0  0  0  0  0  0  0
    1.3200   -2.6530   25.5060 C   0  0  0  0  0  0  0  0  0  0  0  0
    2.2060   -1.6330   25.8630 C   0  0  0  0  0  0  0  0  0  0  0  0
  5  2  1  1
  1  6  1  0
  3  6  2  0
  5  6  1  0
  8 10  1  0
  9 10  2  0
 11 13  2  0
 12 13  2  0
  2 14  1  0
 14 15  1  0
 16 17  2  0
 17 18  1  0
  7 19  1  0
 18 19  2  0
  1 20  1  0
 19 20  1  0
 16 21  1  0
 20 21  2  0
 22 23  2  0
 23 24  1  0
  4 25  1  0
 24 25  2  0
 25 26  1  0
  5 27  1  0
 22 27  1  0
 26 27  2  0
 10 28  1  0
 28 29  1  0
 29 30  1  0
 13 31  1  0
 30 31  1  0
 32 15  1  6
 31 32  1  0
 28 33  1  0
 32 33  1  0
 13 35  1  0
 34 35  1  0
 35 36  2  0
 36 37  1  0
 34 38  1  0
 37 38  2  0
M  END
