x2643-x1384
     RDKit          3D

 33 37  0  0  0  0  0  0  0  0999 V2000
    6.3120   -3.1400   21.6270 N   0  0  0  0  0  0  0  0  0  0  0  0
    7.1910   -3.0860   19.2300 C   0  0  0  0  0  0  0  0  0  0  0  0
    5.3740   -4.4580   19.9020 O   0  0  0  0  0  0  0  0  0  0  0  0
    6.2020   -3.6270   20.2760 C   0  0  0  0  0  0  0  0  0  0  0  0
    6.7330   -0.8980   20.9610 N   0  0  0  0  0  0  0  0  0  0  0  0
    8.3980    0.5820   21.4240 O   0  0  0  0  0  0  0  0  0  0  0  0
   13.4580    0.3190   23.1130 Cl  0  0  0  0  0  0  0  0  0  0  0  0
    8.6810   -1.5800   22.1180 C   0  0  2  0  0  0  0  0  0  0  0  0
    7.9540   -0.5650   21.4960 C   0  0  0  0  0  0  0  0  0  0  0  0
    7.3600   -3.5360   22.4240 C   0  0  0  0  0  0  0  0  0  0  0  0
    7.9630   -2.4930   23.0750 C   0  0  0  0  0  0  0  0  0  0  0  0
   11.8620   -0.0250   23.1750 C   0  0  0  0  0  0  0  0  0  0  0  0
   10.9380    0.5760   23.9980 C   0  0  0  0  0  0  0  0  0  0  0  0
    9.6870    0.1070   23.7740 C   0  0  0  0  0  0  0  0  0  0  0  0
    9.7520   -0.9330   22.6650 C   0  0  0  0  0  0  0  0  0  0  0  0
   11.3070   -1.2150   22.1100 S   0  0  0  0  0  0  0  0  0  0  0  0
    6.3670    0.7860   17.5770 N   0  0  0  0  0  0  0  0  0  0  0  0
    6.9000   -0.0280   18.6520 C   0  0  0  0  0  0  0  0  0  0  0  0
    6.1240   -0.0780   19.9320 C   0  0  0  0  0  0  0  0  0  0  0  0
    4.9460    0.6140   20.0730 C   0  0  0  0  0  0  0  0  0  0  0  0
    4.4280    1.3970   19.0470 C   0  0  0  0  0  0  0  0  0  0  0  0
    5.1430    1.4970   17.7740 C   0  0  0  0  0  0  0  0  0  0  0  0
    2.6370   -2.8970   26.2890 O   0  0  0  0  0  0  0  0  0  0  0  0
    5.2760   -4.3430   23.9090 C   0  0  1  0  0  0  0  0  0  0  0  0
    4.6020   -3.8050   23.0170 C   0  0  1  0  0  0  0  0  0  0  0  0
    3.8220   -3.9070   24.2770 C   0  0  1  0  0  0  0  0  0  0  0  0
    3.3370   -5.1190   24.7750 C   0  0  0  0  0  0  0  0  0  0  0  0
    3.9710   -6.3690   24.3650 C   0  0  0  0  0  0  0  0  0  0  0  0
    5.1520   -5.7170   23.8800 C   0  0  0  0  0  0  0  0  0  0  0  0
    3.5250   -2.6390   25.3230 C   0  0  2  0  0  0  0  0  0  0  0  0
    4.7760   -2.9880   25.4440 C   0  0  0  0  0  0  0  0  0  0  0  0
    5.8100   -3.6530   25.0550 C   0  0  0  0  0  0  0  0  0  0  0  0
    5.2130   -2.6470   22.3530 C   0  0  0  0  0  0  0  0  0  0  0  0
  1  4  1  0
  2  4  1  0
  3  4  2  0
  5  9  1  0
  6  9  2  0
  8  9  1  0
  1 10  1  0
  8 11  1  1
 10 11  1  0
  7 12  1  0
 12 13  2  0
 13 14  1  0
  8 15  1  0
 14 15  2  0
 12 16  1  0
 15 16  1  0
 17 18  2  0
  5 19  1  0
 18 19  1  0
 19 20  2  0
 20 21  1  0
 17 22  1  0
 21 22  2  0
 24 25  1  0
 24 26  1  0
 25 26  1  0
 26 27  1  6
 27 28  1  0
 24 29  1  6
 28 29  2  0
 30 23  1  1
 26 30  1  0
 30 31  1  0
 24 32  1  0
 31 32  2  0
  1 33  1  0
 25 33  1  1
M  END
