x2643-x2910
     RDKit          3D

 28 31  0  0  0  0  0  0  0  0999 V2000
    7.1310   -1.4520   21.9350 N   0  0  0  0  0  0  0  0  0  0  0  0
   10.2140    2.5290   23.6970 C   0  0  0  0  0  0  0  0  0  0  0  0
    9.9880    1.3220   23.5490 O   0  0  0  0  0  0  0  0  0  0  0  0
    9.4180   -1.2950   22.4420 N   0  0  0  0  0  0  0  0  0  0  0  0
    5.5280   -2.6960   20.6990 O   0  0  0  0  0  0  0  0  0  0  0  0
    6.4870    1.3340   16.8560 O   0  0  0  0  0  0  0  0  0  0  0  0
    9.2020   -2.6170   22.3930 C   0  0  0  0  0  0  0  0  0  0  0  0
    7.6540   -2.7040   22.4560 C   0  0  0  0  0  0  0  0  0  0  0  0
    6.0940   -1.6210   20.8940 C   0  0  0  0  0  0  0  0  0  0  0  0
   11.8070    0.1080   22.8460 Cl  0  0  0  0  0  0  0  0  0  0  0  0
    8.4010    0.3920   21.1930 O   0  0  0  0  0  0  0  0  0  0  0  0
    8.3530   -0.6820   21.8020 C   0  0  0  0  0  0  0  0  0  0  0  0
   11.0250    0.5550   23.0840 C   0  0  0  0  0  0  0  0  0  0  0  0
   10.8020   -0.7570   22.5320 C   0  0  0  0  0  0  0  0  0  0  0  0
   11.8240   -1.5820   22.0540 C   0  0  0  0  0  0  0  0  0  0  0  0
   12.9870   -0.9140   22.1900 C   0  0  0  0  0  0  0  0  0  0  0  0
   13.4500    0.3940   22.6930 C   0  0  0  0  0  0  0  0  0  0  0  0
   12.3490    1.1340   23.1670 C   0  0  0  0  0  0  0  0  0  0  0  0
    4.8490    1.7790   18.4480 N   0  0  0  0  0  0  0  0  0  0  0  0
    4.1630    1.4940   19.6840 C   0  0  0  0  0  0  0  0  0  0  0  0
    4.6010    0.3990   20.4410 C   0  0  0  0  0  0  0  0  0  0  0  0
    5.6630   -0.4230   20.0420 C   0  0  0  0  0  0  0  0  0  0  0  0
    6.3120   -0.0950   18.7930 C   0  0  0  0  0  0  0  0  0  0  0  0
    5.8530    1.0030   18.0710 C   0  0  0  0  0  0  0  0  0  0  0  0
    3.1040    2.3010   20.0820 C   0  0  0  0  0  0  0  0  0  0  0  0
    2.4460    2.0350   21.2680 C   0  0  0  0  0  0  0  0  0  0  0  0
    2.8370    0.9740   22.0560 C   0  0  0  0  0  0  0  0  0  0  0  0
    3.9030    0.1570   21.6560 C   0  0  0  0  0  0  0  0  0  0  0  0
  2  3  1  0
  4  7  1  0
  1  8  1  0
  7  8  1  0
  1  9  1  0
  5  9  2  0
  1 12  1  0
  4 12  1  0
 11 12  2  0
  3 13  1  0
  4 14  1  0
 13 14  2  0
 14 15  1  0
 10 16  1  0
 15 16  2  0
 16 17  1  0
 13 18  1  0
 17 18  2  0
 19 20  2  0
 20 21  1  0
  9 22  1  0
 21 22  2  0
 22 23  1  0
  6 24  1  0
 19 24  1  0
 23 24  2  0
 20 25  1  0
 25 26  2  0
 26 27  1  0
 21 28  1  0
 27 28  2  0
M  END
