x2643-x3305
     RDKit          3D

 27 29  0  0  0  0  0  0  0  0999 V2000
    3.4730   -7.0650   23.8010 C   0  0  0  0  0  0  0  0  0  0  0  0
    5.5740   -3.1450   21.1990 O   0  0  0  0  0  0  0  0  0  0  0  0
    6.7700   -2.3250   23.1010 N   0  0  0  0  0  0  0  0  0  0  0  0
    7.3160   -1.4640   21.0030 N   0  0  0  0  0  0  0  0  0  0  0  0
    7.1150   -3.4510   23.8300 C   0  0  0  0  0  0  0  0  0  0  0  0
    6.5270   -2.3380   21.7420 C   0  0  0  0  0  0  0  0  0  0  0  0
    8.4730   -0.9200   21.4650 C   0  0  0  0  0  0  0  0  0  0  0  0
    9.4960   -1.8160   22.1360 C   0  0  0  0  0  0  0  0  0  0  0  0
    7.0060   -1.2590   19.6440 C   0  0  0  0  0  0  0  0  0  0  0  0
    8.7190    0.2930   21.3600 O   0  0  0  0  0  0  0  0  0  0  0  0
    4.6570   -6.2890   23.5560 N   0  0  0  0  0  0  0  0  0  0  0  0
    5.0320   -5.1140   24.0560 C   0  0  0  0  0  0  0  0  0  0  0  0
    6.2430   -4.6860   23.5830 C   0  0  0  0  0  0  0  0  0  0  0  0
    6.6210   -5.7930   22.6590 N   0  0  0  0  0  0  0  0  0  0  0  0
    5.6280   -6.7080   22.6990 N   0  0  0  0  0  0  0  0  0  0  0  0
    5.6940    1.5930   17.6870 N   0  0  0  0  0  0  0  0  0  0  0  0
    6.3870    0.5860   18.2150 C   0  0  0  0  0  0  0  0  0  0  0  0
    6.0720   -0.1730   19.3080 C   0  0  0  0  0  0  0  0  0  0  0  0
    4.9050    0.1450   19.9820 C   0  0  0  0  0  0  0  0  0  0  0  0
    4.0870    1.3100   19.4280 C   0  0  0  0  0  0  0  0  0  0  0  0
    4.5620    1.9420   18.3080 C   0  0  0  0  0  0  0  0  0  0  0  0
   10.7720    0.2030   22.8920 C   0  0  0  0  0  0  0  0  0  0  0  0
   11.9550    0.9460   23.1270 C   0  0  0  0  0  0  0  0  0  0  0  0
   13.1780    0.3430   22.8320 C   0  0  0  0  0  0  0  0  0  0  0  0
   13.1820   -0.9330   22.3360 C   0  0  0  0  0  0  0  0  0  0  0  0
   12.0380   -1.6420   22.1080 C   0  0  0  0  0  0  0  0  0  0  0  0
   10.7780   -1.1110   22.3710 C   0  0  0  0  0  0  0  0  0  0  0  0
  3  5  1  0
  2  6  2  0
  3  6  1  0
  4  6  1  0
  4  7  1  0
  7  8  1  0
  4  9  1  0
  7 10  2  0
  1 11  1  0
 11 12  1  0
  5 13  1  0
 12 13  2  0
 13 14  1  0
 11 15  1  0
 14 15  2  0
 16 17  2  0
  9 18  1  0
 17 18  1  0
 18 19  2  0
 19 20  1  0
 16 21  1  0
 20 21  2  0
 22 23  2  0
 23 24  1  0
 24 25  2  0
 25 26  1  0
  8 27  1  0
 22 27  1  0
 26 27  2  0
M  END
