x2646-x0426
     RDKit          3D

 29 31  0  0  0  0  0  0  0  0999 V2000
    4.2190    0.6720   21.6050 C   0  0  0  0  0  0  0  0  0  0  0  0
    8.5530    0.7980   21.2810 O   0  0  0  0  0  0  0  0  0  0  0  0
   13.2270   -2.2820   21.1800 Cl  0  0  0  0  0  0  0  0  0  0  0  0
    6.9680   -0.7560   21.0720 N   0  0  0  0  0  0  0  0  0  0  0  0
    8.0610   -0.2560   21.7060 C   0  0  0  0  0  0  0  0  0  0  0  0
    8.6640   -0.9480   22.8840 C   0  0  0  0  0  0  0  0  0  0  0  0
    2.3140    1.7420   23.6940 C   0  0  0  0  0  0  0  0  0  0  0  0
    2.2810    0.5050   23.7530 O   0  0  0  0  0  0  0  0  0  0  0  0
    3.2400    2.4560   22.9580 N   0  0  0  0  0  0  0  0  0  0  0  0
    4.4570    1.8680   22.5310 C   0  0  0  0  0  0  0  0  0  0  0  0
    2.7840    4.4090   25.2670 F   0  0  0  0  0  0  0  0  0  0  0  0
    6.4020    0.7940   17.5950 N   0  0  0  0  0  0  0  0  0  0  0  0
    6.8790    0.1270   18.6400 C   0  0  0  0  0  0  0  0  0  0  0  0
    6.2820    0.0070   20.0210 C   0  0  0  0  0  0  0  0  0  0  0  0
    4.9360    0.7220   20.2860 C   0  0  0  0  0  0  0  0  0  0  0  0
    4.3310    1.5130   19.1210 C   0  0  0  0  0  0  0  0  0  0  0  0
    5.1190    1.5100   17.8060 C   0  0  0  0  0  0  0  0  0  0  0  0
   10.6640    0.3000   23.7610 C   0  0  0  0  0  0  0  0  0  0  0  0
   12.0420    0.4990   23.7760 C   0  0  0  0  0  0  0  0  0  0  0  0
   12.8460   -0.2940   22.9830 C   0  0  0  0  0  0  0  0  0  0  0  0
   12.3060   -1.2830   22.1770 C   0  0  0  0  0  0  0  0  0  0  0  0
   10.9520   -1.4850   22.1550 C   0  0  0  0  0  0  0  0  0  0  0  0
   10.1310   -0.7020   22.9380 C   0  0  0  0  0  0  0  0  0  0  0  0
    1.5620    3.8580   25.2300 C   0  0  0  0  0  0  0  0  0  0  0  0
    1.2920    2.5440   24.4670 C   0  0  0  0  0  0  0  0  0  0  0  0
   -0.0150    2.0780   24.5070 C   0  0  0  0  0  0  0  0  0  0  0  0
   -1.0330    2.7450   25.1890 C   0  0  0  0  0  0  0  0  0  0  0  0
   -0.8090    3.9370   25.8860 C   0  0  0  0  0  0  0  0  0  0  0  0
    0.4910    4.5080   25.9150 C   0  0  0  0  0  0  0  0  0  0  0  0
  2  5  2  0
  4  5  1  0
  5  6  1  0
  7  8  2  0
  7  9  1  0
  1 10  1  0
  9 10  1  0
 12 13  2  0
  4 14  1  0
 13 14  1  0
  1 15  1  0
 14 15  2  0
 15 16  1  0
 12 17  1  0
 16 17  2  0
 18 19  2  0
 19 20  1  0
  3 21  1  0
 20 21  2  0
 21 22  1  0
  6 23  1  0
 18 23  1  0
 22 23  2  0
 11 24  1  0
  7 25  1  0
 24 25  2  0
 25 26  1  0
 26 27  2  0
 27 28  1  0
 24 29  1  0
 28 29  2  0
M  END
