x2649-x0991
     RDKit          3D

 25 26  0  0  0  0  0  0  0  0999 V2000
    7.0020   -0.6860   21.0450 N   0  0  0  0  0  0  0  0  0  0  0  0
    7.8190   -0.6940   24.1580 C   0  0  0  0  0  0  0  0  0  0  0  0
    8.7840    0.8260   21.4140 O   0  0  0  0  0  0  0  0  0  0  0  0
   13.3720   -1.9430   21.1160 Cl  0  0  0  0  0  0  0  0  0  0  0  0
    8.6230   -1.0530   22.9220 C   0  0  2  0  0  0  0  0  0  0  0  0
    8.1820   -0.1950   21.7340 C   0  0  0  0  0  0  0  0  0  0  0  0
    4.8270    1.1730   21.6510 C   0  0  0  0  0  0  0  0  0  0  0  0
    9.9330   -5.6800   25.5730 N   0  0  0  0  0  0  0  0  0  0  0  0
    9.1150   -3.4010   23.7930 C   0  0  0  0  0  0  0  0  0  0  0  0
    8.3010   -4.4930   24.1620 C   0  0  0  0  0  0  0  0  0  0  0  0
    7.9630   -5.2890   26.3910 N   0  0  0  0  0  0  0  0  0  0  0  0
    8.7500   -5.1410   25.3130 C   0  0  0  0  0  0  0  0  0  0  0  0
    8.4700   -2.5350   22.6930 C   0  0  0  0  0  0  0  0  0  0  0  0
    6.2000    0.6040   17.5850 N   0  0  0  0  0  0  0  0  0  0  0  0
    5.2060    1.4490   17.9030 C   0  0  0  0  0  0  0  0  0  0  0  0
    4.7590    1.6320   19.2040 C   0  0  0  0  0  0  0  0  0  0  0  0
    5.3380    0.9340   20.2620 C   0  0  0  0  0  0  0  0  0  0  0  0
    6.3660    0.0540   19.9660 C   0  0  0  0  0  0  0  0  0  0  0  0
    6.8140   -0.1370   18.6820 C   0  0  0  0  0  0  0  0  0  0  0  0
   10.4850    0.1650   23.8270 C   0  0  0  0  0  0  0  0  0  0  0  0
   11.8530    0.4620   23.8620 C   0  0  0  0  0  0  0  0  0  0  0  0
   12.7590   -0.1780   23.0360 C   0  0  0  0  0  0  0  0  0  0  0  0
   12.3400   -1.1380   22.1500 C   0  0  0  0  0  0  0  0  0  0  0  0
   10.8700   -1.5250   22.0440 C   0  0  0  0  0  0  0  0  0  0  0  0
    9.9220   -0.7940   22.9590 C   0  0  0  0  0  0  0  0  0  0  0  0
  5  2  1  1
  1  6  1  0
  3  6  2  0
  5  6  1  0
  9 10  1  0
  8 12  2  3
 10 12  1  0
 11 12  1  0
  5 13  1  0
  9 13  1  0
 14 15  2  0
 15 16  1  0
  7 17  1  0
 16 17  2  0
  1 18  1  0
 17 18  1  0
 14 19  1  0
 18 19  2  0
 20 21  2  0
 21 22  1  0
  4 23  1  0
 22 23  2  0
 23 24  1  0
  5 25  1  0
 20 25  1  0
 24 25  2  0
M  END
