x2643-x2540
     RDKit          3D

 28 29  0  0  0  0  0  0  0  0999 V2000
    6.8880   -1.4050   21.9480 N   0  0  0  0  0  0  0  0  0  0  0  0
    7.1430   -3.3690   19.4860 C   0  0  0  0  0  0  0  0  0  0  0  0
    4.7740   -2.9960   21.3810 O   0  0  0  0  0  0  0  0  0  0  0  0
    7.0000   -3.6650   20.9660 C   0  0  0  0  0  0  0  0  0  0  0  0
    7.8930    1.5210   23.0850 N   0  0  0  0  0  0  0  0  0  0  0  0
    8.5530    1.3930   20.9630 O   0  0  0  0  0  0  0  0  0  0  0  0
    6.0860   -2.6160   21.4650 C   0  0  0  0  0  0  0  0  0  0  0  0
    6.6790    0.0570   21.5940 C   0  0  1  0  0  0  0  0  0  0  0  0
    7.7640    0.9960   21.8340 C   0  0  0  0  0  0  0  0  0  0  0  0
    8.8120    2.6520   23.3460 C   0  0  0  0  0  0  0  0  0  0  0  0
    8.8580    2.8450   24.7110 C   0  0  0  0  0  0  0  0  0  0  0  0
    8.3750    3.9810   22.6910 C   0  0  0  0  0  0  0  0  0  0  0  0
   10.2560    2.3120   22.8960 C   0  0  0  0  0  0  0  0  0  0  0  0
   11.9370   -1.3990   23.5650 C   0  0  0  0  0  0  0  0  0  0  0  0
   12.6030   -1.2350   22.3300 C   0  0  0  0  0  0  0  0  0  0  0  0
   12.2710   -0.1210   24.3710 C   0  0  0  0  0  0  0  0  0  0  0  0
   12.3970   -2.4200   24.3210 C   0  0  0  0  0  0  0  0  0  0  0  0
    6.3220    0.3400   17.8650 N   0  0  0  0  0  0  0  0  0  0  0  0
    5.2110    1.1050   17.7990 C   0  0  0  0  0  0  0  0  0  0  0  0
    4.4620    1.5830   18.9230 C   0  0  0  0  0  0  0  0  0  0  0  0
    4.9690    1.2080   20.1550 C   0  0  0  0  0  0  0  0  0  0  0  0
    6.1170    0.4270   20.2530 C   0  0  0  0  0  0  0  0  0  0  0  0
    6.7560    0.0140   19.0900 C   0  0  0  0  0  0  0  0  0  0  0  0
    9.6280   -2.2170   24.2780 O   0  0  0  0  0  0  0  0  0  0  0  0
    8.2930   -2.2270   23.8610 N   0  0  0  0  0  0  0  0  0  0  0  0
    8.1610   -1.5970   22.6700 C   0  0  0  0  0  0  0  0  0  0  0  0
    9.4830   -1.1920   22.3500 C   0  0  0  0  0  0  0  0  0  0  0  0
   10.3930   -1.5800   23.3660 C   0  0  0  0  0  0  0  0  0  0  0  0
  2  4  1  0
  1  7  1  0
  3  7  2  0
  4  7  1  0
  1  8  1  0
  5  9  1  0
  6  9  2  0
  8  9  1  6
 10  5  1  0
 10 11  1  0
 10 12  1  0
 10 13  1  0
 14 15  1  0
 14 16  1  0
 14 17  1  0
 18 19  2  0
 19 20  1  0
 20 21  2  0
  8 22  1  0
 21 22  1  0
 18 23  1  0
 22 23  2  0
 24 25  1  0
  1 26  1  0
 25 26  2  0
 26 27  1  0
 14 28  1  0
 24 28  1  0
 27 28  2  0
M  END
