x2646-x0759
     RDKit          3D

 28 31  0  0  0  0  0  0  0  0999 V2000
    4.7140    1.2640   21.7900 C   0  0  0  0  0  0  0  0  0  0  0  0
    8.8670    0.6940   21.2920 O   0  0  0  0  0  0  0  0  0  0  0  0
   13.4000   -1.9620   21.1470 Cl  0  0  0  0  0  0  0  0  0  0  0  0
    7.0770   -0.6650   21.1480 N   0  0  0  0  0  0  0  0  0  0  0  0
    8.3230   -0.3970   21.5130 C   0  0  0  0  0  0  0  0  0  0  0  0
    8.9180   -1.5310   22.2100 C   0  0  1  0  0  0  0  0  0  0  0  0
   13.0250    0.1950   24.5050 F   0  0  0  0  0  0  0  0  0  0  0  0
    5.2260   -4.2300   19.7500 O   0  0  0  0  0  0  0  0  0  0  0  0
    6.1390   -3.4830   20.0890 C   0  0  0  0  0  0  0  0  0  0  0  0
    7.1680   -3.0080   19.0470 C   0  0  0  0  0  0  0  0  0  0  0  0
    6.1500    0.5670   17.6010 N   0  0  0  0  0  0  0  0  0  0  0  0
    6.7550   -0.1020   18.6320 C   0  0  0  0  0  0  0  0  0  0  0  0
    6.3540    0.0520   20.0870 C   0  0  0  0  0  0  0  0  0  0  0  0
    5.2030    1.0080   20.4050 C   0  0  0  0  0  0  0  0  0  0  0  0
    4.5620    1.7230   19.2190 C   0  0  0  0  0  0  0  0  0  0  0  0
    5.1480    1.4090   17.8380 C   0  0  0  0  0  0  0  0  0  0  0  0
   10.4800   -0.3840   23.8600 C   0  0  0  0  0  0  0  0  0  0  0  0
   11.7620    0.0150   24.3480 C   0  0  0  0  0  0  0  0  0  0  0  0
   12.6190   -0.5810   23.3520 C   0  0  0  0  0  0  0  0  0  0  0  0
   12.3160   -1.3260   22.2510 C   0  0  0  0  0  0  0  0  0  0  0  0
   11.1100   -1.6060   21.9590 C   0  0  0  0  0  0  0  0  0  0  0  0
   10.1950   -1.1390   22.7420 C   0  0  0  0  0  0  0  0  0  0  0  0
    6.2400   -3.1380   21.4400 N   0  0  0  0  0  0  0  0  0  0  0  0
    6.6260   -1.8160   22.0510 C   0  0  1  0  0  0  0  0  0  0  0  0
    7.8720   -2.0910   22.9540 C   0  0  1  0  0  0  0  0  0  0  0  0
    8.2210   -3.4420   23.2890 O   0  0  0  0  0  0  0  0  0  0  0  0
    7.1670   -4.3020   23.3540 C   0  0  0  0  0  0  0  0  0  0  0  0
    6.1700   -4.1080   22.3840 C   0  0  0  0  0  0  0  0  0  0  0  0
  2  5  2  0
  4  5  1  0
  5  6  1  0
  8  9  2  0
  9 10  1  0
 11 12  2  0
  4 13  1  0
 12 13  1  0
  1 14  1  0
 13 14  2  0
 14 15  1  0
 11 16  1  0
 15 16  2  0
  7 18  1  0
 17 18  2  0
 18 19  1  0
  3 20  1  0
 19 20  2  0
 20 21  1  0
  6 22  1  1
 17 22  1  0
 21 22  2  0
  9 23  1  0
 24  4  1  6
 23 24  1  0
  6 25  1  0
 24 25  1  0
 25 26  1  6
 26 27  1  0
 23 28  1  0
 27 28  1  0
M  END
