x2659-x0194
     RDKit          3D

 38 42  0  0  0  0  0  0  0  0999 V2000
   19.7530  -20.1930   16.3440 C   0  0  0  0  0  0  0  0  0  0  0  0
   22.1470  -19.6160   13.9460 O   0  0  0  0  0  0  0  0  0  0  0  0
   24.8360  -28.3660   19.8860 Cl  0  0  0  0  0  0  0  0  0  0  0  0
   20.7020  -20.8720   15.4180 C   0  0  1  0  0  0  0  0  0  0  0  0
   22.4830  -19.5610   16.1000 O   0  0  0  0  0  0  0  0  0  0  0  0
   21.8530  -19.9530   15.0890 C   0  0  0  0  0  0  0  0  0  0  0  0
   24.3440  -14.3810   24.7800 C   0  0  0  0  0  0  0  0  0  0  0  0
   24.0590  -14.9540   26.0270 C   0  0  0  0  0  0  0  0  0  0  0  0
   24.3330  -14.3760   27.0620 O   0  0  0  0  0  0  0  0  0  0  0  0
   23.4320  -16.2690   25.9050 N   0  0  0  0  0  0  0  0  0  0  0  0
   25.1270  -20.5660   22.4130 O   0  0  0  0  0  0  0  0  0  0  0  0
   23.8220  -19.8980   16.3490 C   0  0  0  0  0  0  0  0  0  0  0  0
   24.0760  -20.9410   17.3020 C   0  0  0  0  0  0  0  0  0  0  0  0
   23.3870  -25.2060   15.0020 N   0  0  0  0  0  0  0  0  0  0  0  0
   22.6140  -24.0900   15.6200 C   0  0  0  0  0  0  0  0  0  0  0  0
   22.5600  -24.3310   16.9990 C   0  0  0  0  0  0  0  0  0  0  0  0
   23.2590  -25.4620   17.1870 C   0  0  0  0  0  0  0  0  0  0  0  0
   23.7290  -25.9670   16.0500 C   0  0  0  0  0  0  0  0  0  0  0  0
   21.3150  -22.0660   16.0140 C   0  0  0  0  0  0  0  0  0  0  0  0
   22.0100  -22.9700   15.0990 C   0  0  0  0  0  0  0  0  0  0  0  0
   21.8940  -23.4900   17.8910 C   0  0  0  0  0  0  0  0  0  0  0  0
   21.2710  -22.3560   17.3850 C   0  0  0  0  0  0  0  0  0  0  0  0
   24.4750  -27.1300   16.0270 C   0  0  0  0  0  0  0  0  0  0  0  0
   24.8100  -27.8640   17.1890 C   0  0  0  0  0  0  0  0  0  0  0  0
   24.3970  -27.4610   18.4960 C   0  0  0  0  0  0  0  0  0  0  0  0
   23.5650  -26.1920   18.5240 C   0  0  0  0  0  0  0  0  0  0  0  0
   23.7690  -17.3420   25.0360 C   0  0  0  0  0  0  0  0  0  0  0  0
   22.7770  -18.1840   24.2980 C   0  0  0  0  0  0  0  0  0  0  0  0
   23.2350  -19.3170   23.3830 C   0  0  0  0  0  0  0  0  0  0  0  0
   24.6550  -19.5490   23.2350 C   0  0  0  0  0  0  0  0  0  0  0  0
   25.5460  -18.7420   23.9430 C   0  0  0  0  0  0  0  0  0  0  0  0
   25.1130  -17.6110   24.8690 C   0  0  0  0  0  0  0  0  0  0  0  0
   25.1060  -20.3270   19.9590 N   0  0  0  0  0  0  0  0  0  0  0  0
   24.7220  -20.5140   18.5590 C   0  0  0  0  0  0  0  0  0  0  0  0
   23.5930  -21.5590   18.7840 C   0  0  0  0  0  0  0  0  0  0  0  0
   23.1010  -22.1340   19.9590 C   0  0  0  0  0  0  0  0  0  0  0  0
   23.5130  -21.8920   21.1780 N   0  0  0  0  0  0  0  0  0  0  0  0
   24.5780  -20.9200   21.1570 C   0  0  0  0  0  0  0  0  0  0  0  0
  4  1  1  1
  2  6  2  0
  4  6  1  0
  5  6  1  0
  7  8  1  0
  8  9  2  0
  8 10  1  0
  5 12  1  0
 12 13  1  0
 14 15  1  0
 15 16  2  0
 16 17  1  0
 14 18  1  0
 17 18  2  0
  4 19  1  0
 15 20  1  0
 19 20  2  0
 16 21  1  0
 19 22  1  0
 21 22  2  0
 18 23  1  0
 23 24  2  0
  3 25  1  0
 24 25  1  0
 17 26  1  0
 25 26  2  0
 10 27  1  0
 27 28  2  0
 28 29  1  0
 11 30  1  0
 29 30  2  0
 30 31  1  0
 27 32  1  0
 31 32  2  0
 13 34  1  0
 33 34  2  0
 34 35  1  0
 35 36  2  0
 36 37  1  0
 11 38  1  0
 33 38  1  0
 37 38  2  0
M  END
