x2659-x0165
     RDKit          3D

 31 34  0  0  0  0  0  0  0  0999 V2000
   19.8630  -20.1920   16.3770 C   0  0  0  0  0  0  0  0  0  0  0  0
   21.4850  -19.8540   13.4000 O   0  0  0  0  0  0  0  0  0  0  0  0
   25.0190  -28.0420   19.8270 Cl  0  0  0  0  0  0  0  0  0  0  0  0
   20.7550  -20.8360   15.3690 C   0  0  1  0  0  0  0  0  0  0  0  0
   22.3740  -19.4610   15.4690 O   0  0  0  0  0  0  0  0  0  0  0  0
   21.5650  -20.0260   14.7460 C   0  0  0  0  0  0  0  0  0  0  0  0
   23.2930  -25.4370   14.7030 N   0  0  0  0  0  0  0  0  0  0  0  0
   22.6620  -24.2300   15.3520 C   0  0  0  0  0  0  0  0  0  0  0  0
   22.7640  -24.3000   16.8300 C   0  0  0  0  0  0  0  0  0  0  0  0
   23.4330  -25.4860   17.0680 C   0  0  0  0  0  0  0  0  0  0  0  0
   23.7720  -26.2110   15.7770 C   0  0  0  0  0  0  0  0  0  0  0  0
   21.4680  -22.0250   15.9820 C   0  0  0  0  0  0  0  0  0  0  0  0
   21.9710  -22.9990   14.9500 C   0  0  0  0  0  0  0  0  0  0  0  0
   22.2540  -23.3090   17.6670 C   0  0  0  0  0  0  0  0  0  0  0  0
   21.5640  -22.0760   17.4200 C   0  0  0  0  0  0  0  0  0  0  0  0
   24.4500  -27.4260   15.8480 C   0  0  0  0  0  0  0  0  0  0  0  0
   24.8050  -27.9410   17.1060 C   0  0  0  0  0  0  0  0  0  0  0  0
   24.5190  -27.3060   18.3560 C   0  0  0  0  0  0  0  0  0  0  0  0
   23.8310  -26.0800   18.3630 C   0  0  0  0  0  0  0  0  0  0  0  0
   22.8000  -17.7600   24.1270 C   0  0  0  0  0  0  0  0  0  0  0  0
   22.6390  -22.3990   21.6710 C   0  0  0  0  0  0  0  0  0  0  0  0
   21.3320  -22.9950   21.7710 O   0  0  0  0  0  0  0  0  0  0  0  0
   23.4660  -22.6480   20.5870 N   0  0  0  0  0  0  0  0  0  0  0  0
   23.5330  -19.0200   23.9690 N   0  0  0  0  0  0  0  0  0  0  0  0
   24.0490  -19.3160   22.6120 C   0  0  0  0  0  0  0  0  0  0  0  0
   24.4000  -20.6830   22.5060 C   0  0  0  0  0  0  0  0  0  0  0  0
   23.1850  -21.4880   22.7280 N   0  0  0  0  0  0  0  0  0  0  0  0
   22.3600  -21.1560   23.7440 C   0  0  0  0  0  0  0  0  0  0  0  0
   22.8190  -20.0910   24.5540 C   0  0  0  0  0  0  0  0  0  0  0  0
   21.8150  -22.3980   18.8890 C   0  0  0  0  0  0  0  0  0  0  0  0
   23.1660  -22.1690   19.1990 C   0  0  0  0  0  0  0  0  0  0  0  0
  4  1  1  1
  2  6  2  0
  4  6  1  0
  5  6  1  0
  7  8  1  0
  8  9  2  0
  9 10  1  0
  7 11  1  0
 10 11  2  0
  4 12  1  0
  8 13  1  0
 12 13  2  0
  9 14  1  0
 12 15  1  0
 14 15  2  0
 11 16  1  0
 16 17  2  0
  3 18  1  0
 17 18  1  0
 10 19  1  0
 18 19  2  0
 21 22  2  0
 21 23  1  0
 20 24  1  0
 24 25  1  0
 25 26  1  0
 21 27  1  0
 26 27  1  0
 27 28  1  0
 24 29  1  0
 28 29  1  0
 15 30  1  0
 23 31  1  0
 30 31  1  0
M  END
