x2694-x1348
     RDKit          3D

 44 48  0  0  0  0  0  0  0  0999 V2000
    6.9760   -1.3830   21.7980 N   0  0  0  0  0  0  0  0  0  0  0  0
    6.7520   -4.3050   19.9770 C   0  0  0  0  0  0  0  0  0  0  0  0
    4.8170   -2.9670   21.2270 O   0  0  0  0  0  0  0  0  0  0  0  0
    7.0240   -3.7960   21.3470 C   0  0  1  0  0  0  0  0  0  0  0  0
    7.5600    2.0910   22.8040 N   0  0  0  0  0  0  0  0  0  0  0  0
    8.7390    1.2390   21.0850 O   0  0  0  0  0  0  0  0  0  0  0  0
    6.1360   -2.6150   21.4580 C   0  0  0  0  0  0  0  0  0  0  0  0
   10.9610    6.6950   23.8010 O   0  0  0  0  0  0  0  0  0  0  0  0
    6.6210    0.0800   21.6370 C   0  0  1  0  0  0  0  0  0  0  0  0
    7.7360    1.1470   21.8070 C   0  0  0  0  0  0  0  0  0  0  0  0
   10.2860    1.7310   24.0460 C   0  0  0  0  0  0  0  0  0  0  0  0
   11.8660    6.5430   24.8950 C   0  0  0  0  0  0  0  0  0  0  0  0
   12.1250   -1.3670   23.1630 C   0  0  0  0  0  0  0  0  0  0  0  0
   12.7110   -0.1760   23.5380 C   0  0  0  0  0  0  0  0  0  0  0  0
   12.5990   -1.9490   21.9620 C   0  0  0  0  0  0  0  0  0  0  0  0
   12.5830   -2.2480   24.2070 C   0  0  0  0  0  0  0  0  0  0  0  0
    7.6320   -5.6040   27.8640 C   0  0  0  0  0  0  0  0  0  0  0  0
    7.2400   -4.8240   26.7350 O   0  0  0  0  0  0  0  0  0  0  0  0
    6.3620    0.4630   17.8020 N   0  0  0  0  0  0  0  0  0  0  0  0
    5.2300    1.2500   17.7610 C   0  0  0  0  0  0  0  0  0  0  0  0
    4.5670    1.6190   18.9110 C   0  0  0  0  0  0  0  0  0  0  0  0
    4.9400    1.2750   20.1890 C   0  0  0  0  0  0  0  0  0  0  0  0
    6.0730    0.4960   20.3260 C   0  0  0  0  0  0  0  0  0  0  0  0
    6.8040    0.0710   19.0510 C   0  0  0  0  0  0  0  0  0  0  0  0
    8.4360   -1.6060   23.9030 N   0  0  0  0  0  0  0  0  0  0  0  0
    9.8290   -1.5970   24.2680 O   0  0  0  0  0  0  0  0  0  0  0  0
   10.6800   -1.4270   23.1300 C   0  0  0  0  0  0  0  0  0  0  0  0
    9.6590   -1.3320   22.0260 C   0  0  0  0  0  0  0  0  0  0  0  0
    8.2590   -1.4460   22.5350 C   0  0  0  0  0  0  0  0  0  0  0  0
    9.7700    3.1040   23.6560 C   0  0  0  0  0  0  0  0  0  0  0  0
   10.5610    4.2410   23.8750 C   0  0  0  0  0  0  0  0  0  0  0  0
   10.1300    5.6510   23.5360 C   0  0  0  0  0  0  0  0  0  0  0  0
    8.7430    5.7330   22.9080 C   0  0  0  0  0  0  0  0  0  0  0  0
    7.9630    4.5810   22.6870 C   0  0  0  0  0  0  0  0  0  0  0  0
    8.3700    3.2660   23.0200 C   0  0  0  0  0  0  0  0  0  0  0  0
    6.2770   -5.4420   26.0030 C   0  0  0  0  0  0  0  0  0  0  0  0
    6.1510   -5.2660   24.6440 C   0  0  0  0  0  0  0  0  0  0  0  0
    5.0410   -6.0050   23.9080 C   0  0  0  0  0  0  0  0  0  0  0  0
    4.1890   -6.8320   24.6260 C   0  0  0  0  0  0  0  0  0  0  0  0
    4.3610   -6.9690   26.0110 C   0  0  0  0  0  0  0  0  0  0  0  0
    5.3850   -6.2860   26.6770 C   0  0  0  0  0  0  0  0  0  0  0  0
    6.9220   -4.4750   23.8340 N   0  0  0  0  0  0  0  0  0  0  0  0
    6.4120   -4.5820   22.4670 C   0  0  0  0  0  0  0  0  0  0  0  0
    5.0780   -5.6340   22.2360 S   0  0  0  0  0  0  0  0  0  0  0  0
  4  2  1  6
  1  7  1  0
  3  7  2  0
  4  7  1  0
  1  9  1  0
  5 10  1  0
  6 10  2  0
  9 10  1  6
  8 12  1  0
 13 14  1  0
 13 15  1  0
 13 16  1  0
 17 18  1  0
 19 20  2  0
 20 21  1  0
 21 22  2  0
  9 23  1  0
 22 23  1  0
 19 24  1  0
 23 24  2  0
 25 26  1  0
 13 27  1  0
 26 27  1  0
 27 28  2  0
  1 29  1  0
 25 29  2  0
 28 29  1  0
 11 30  1  0
 30 31  2  0
  8 32  1  0
 31 32  1  0
 32 33  2  0
 33 34  1  0
  5 35  1  0
 30 35  1  0
 34 35  2  0
 18 36  1  0
 36 37  2  0
 37 38  1  0
 38 39  2  0
 39 40  1  0
 36 41  1  0
 40 41  2  0
 37 42  1  0
  4 43  1  0
 42 43  2  0
 38 44  1  0
 43 44  1  0
M  END
