x2694-x1458
     RDKit          3D

 46 50  0  0  0  0  0  0  0  0999 V2000
    7.1660   -1.3860   21.8210 C   0  0  1  0  0  0  0  0  0  0  0  0
    7.9830   -4.1170   21.0340 C   0  0  0  0  0  0  0  0  0  0  0  0
    5.1050   -3.3020   20.7850 O   0  0  0  0  0  0  0  0  0  0  0  0
    7.6790    2.2190   22.7260 N   0  0  0  0  0  0  0  0  0  0  0  0
    9.0960    1.2190   21.1260 O   0  0  0  0  0  0  0  0  0  0  0  0
    5.9450   -2.3440   21.1860 C   0  0  0  0  0  0  0  0  0  0  0  0
   10.9360    6.7830   23.9320 O   0  0  0  0  0  0  0  0  0  0  0  0
    6.9350    0.1230   21.5990 C   0  0  1  0  0  0  0  0  0  0  0  0
    8.0450    1.1660   21.7390 C   0  0  0  0  0  0  0  0  0  0  0  0
   10.2260    1.8750   23.9760 C   0  0  0  0  0  0  0  0  0  0  0  0
   11.8700    6.6220   24.9980 C   0  0  0  0  0  0  0  0  0  0  0  0
   12.3350   -1.4320   23.0540 C   0  0  0  0  0  0  0  0  0  0  0  0
   12.6260   -0.1410   23.4690 C   0  0  0  0  0  0  0  0  0  0  0  0
   12.8660   -1.9000   21.8370 C   0  0  0  0  0  0  0  0  0  0  0  0
   12.8670   -2.2640   24.1050 C   0  0  0  0  0  0  0  0  0  0  0  0
    6.7160   -3.9180   26.3250 N   0  0  0  0  0  0  0  0  0  0  0  0
    8.7540   -4.7480   27.1230 C   0  0  0  0  0  0  0  0  0  0  0  0
    4.4200   -3.4700   25.6250 O   0  0  0  0  0  0  0  0  0  0  0  0
    7.4560   -5.1910   26.7560 C   0  0  0  0  0  0  0  0  0  0  0  0
    6.7420   -5.7600   27.7980 C   0  0  0  0  0  0  0  0  0  0  0  0
    7.1420   -2.8340   26.8740 C   0  0  0  0  0  0  0  0  0  0  0  0
    5.7460   -3.8930   25.3210 C   0  0  0  0  0  0  0  0  0  0  0  0
    6.4310   -1.8200   23.1350 C   0  0  0  0  0  0  0  0  0  0  0  0
    6.3700    0.4300   17.8330 N   0  0  0  0  0  0  0  0  0  0  0  0
    5.2490    1.2860   17.7490 C   0  0  0  0  0  0  0  0  0  0  0  0
    4.6130    1.7880   19.0210 C   0  0  0  0  0  0  0  0  0  0  0  0
    5.1330    1.4180   20.3390 C   0  0  0  0  0  0  0  0  0  0  0  0
    6.3250    0.5190   20.3430 C   0  0  0  0  0  0  0  0  0  0  0  0
    6.9040    0.0470   19.1520 C   0  0  0  0  0  0  0  0  0  0  0  0
    8.7490   -2.1590   23.8760 N   0  0  0  0  0  0  0  0  0  0  0  0
   10.1420   -2.1230   24.1190 O   0  0  0  0  0  0  0  0  0  0  0  0
   10.8300   -1.5980   23.0420 C   0  0  0  0  0  0  0  0  0  0  0  0
    9.7740   -1.2690   21.9840 C   0  0  0  0  0  0  0  0  0  0  0  0
    8.5640   -1.6140   22.5320 C   0  0  0  0  0  0  0  0  0  0  0  0
    9.7070    3.2370   23.6110 C   0  0  0  0  0  0  0  0  0  0  0  0
   10.6060    4.4400   23.9420 C   0  0  0  0  0  0  0  0  0  0  0  0
   10.1590    5.6950   23.6320 C   0  0  0  0  0  0  0  0  0  0  0  0
    8.8000    5.8370   22.9620 C   0  0  0  0  0  0  0  0  0  0  0  0
    8.0090    4.7100   22.6700 C   0  0  0  0  0  0  0  0  0  0  0  0
    8.4460    3.3990   22.9930 C   0  0  0  0  0  0  0  0  0  0  0  0
    5.6470   -4.7350   21.6260 N   0  0  0  0  0  0  0  0  0  0  0  0
    6.6520   -3.6700   21.6640 C   0  0  1  0  0  0  0  0  0  0  0  0
    6.7350   -3.3080   23.1480 C   0  0  2  0  0  0  0  0  0  0  0  0
    6.0020   -4.2350   23.8610 C   0  0  1  0  0  0  0  0  0  0  0  0
    6.3290   -5.5710   23.6520 C   0  0  0  0  0  0  0  0  0  0  0  0
    6.1380   -5.9260   22.3270 C   0  0  0  0  0  0  0  0  0  0  0  0
  1  6  1  0
  3  6  2  0
  1  8  1  0
  4  9  1  0
  5  9  2  0
  8  9  1  6
  7 11  1  0
 12 13  1  0
 12 14  1  0
 12 15  1  0
 16 19  1  0
 17 19  1  0
 19 20  1  0
 16 21  1  0
 16 22  1  0
 18 22  2  0
  1 23  1  0
 24 25  2  0
 25 26  1  0
 26 27  2  0
  8 28  1  0
 27 28  1  0
 24 29  1  0
 28 29  2  0
 30 31  1  0
 12 32  1  0
 31 32  1  0
 32 33  2  0
  1 34  1  1
 30 34  2  0
 33 34  1  0
 10 35  1  0
 35 36  2  0
  7 37  1  0
 36 37  1  0
 37 38  2  0
 38 39  1  0
  4 40  1  0
 35 40  1  0
 39 40  2  0
 42  2  1  6
  6 42  1  0
 41 42  1  0
 43 23  1  6
 42 43  1  0
 44 22  1  1
 43 44  1  0
 44 45  1  0
 41 46  1  0
 45 46  1  0
M  END
