x2694-x0786
     RDKit          3D

 49 53  0  0  0  0  0  0  0  0999 V2000
    6.9570   -1.1700   22.0580 C   0  0  2  0  0  0  0  0  0  0  0  0
    6.6900   -3.9500   19.9900 C   0  0  0  0  0  0  0  0  0  0  0  0
    5.0420   -3.2450   21.0420 O   0  0  0  0  0  0  0  0  0  0  0  0
    6.9460   -3.1580   21.2690 C   0  0  0  0  0  0  0  0  0  0  0  0
    7.5870    2.2630   22.8230 N   0  0  0  0  0  0  0  0  0  0  0  0
    8.8860    1.3150   21.0140 O   0  0  0  0  0  0  0  0  0  0  0  0
    5.7850   -2.2260   21.5180 C   0  0  0  0  0  0  0  0  0  0  0  0
   11.0580    6.8080   23.8580 O   0  0  0  0  0  0  0  0  0  0  0  0
    6.7540    0.3250   21.6650 C   0  0  1  0  0  0  0  0  0  0  0  0
    7.7790    1.2830   21.8100 C   0  0  0  0  0  0  0  0  0  0  0  0
   10.2930    1.9170   24.0050 C   0  0  0  0  0  0  0  0  0  0  0  0
   11.8950    6.6490   25.0030 C   0  0  0  0  0  0  0  0  0  0  0  0
   12.3560   -1.4800   23.1570 C   0  0  0  0  0  0  0  0  0  0  0  0
   12.7400   -0.1760   23.4840 C   0  0  0  0  0  0  0  0  0  0  0  0
   12.8390   -2.0440   21.9570 C   0  0  0  0  0  0  0  0  0  0  0  0
   12.6910   -2.3770   24.1120 C   0  0  0  0  0  0  0  0  0  0  0  0
    6.4030    0.3250   17.8320 N   0  0  0  0  0  0  0  0  0  0  0  0
    5.2280    1.2700   17.7750 C   0  0  0  0  0  0  0  0  0  0  0  0
    4.6840    1.7720   18.9250 C   0  0  0  0  0  0  0  0  0  0  0  0
    5.1480    1.4790   20.1860 C   0  0  0  0  0  0  0  0  0  0  0  0
    6.2330    0.6210   20.3000 C   0  0  0  0  0  0  0  0  0  0  0  0
    6.8750    0.0210   19.0420 C   0  0  0  0  0  0  0  0  0  0  0  0
    8.7230   -1.6690   23.9380 N   0  0  0  0  0  0  0  0  0  0  0  0
   10.1110   -1.7290   24.1600 O   0  0  0  0  0  0  0  0  0  0  0  0
   10.8470   -1.4700   23.0350 C   0  0  0  0  0  0  0  0  0  0  0  0
    9.8060   -1.2220   21.9370 C   0  0  0  0  0  0  0  0  0  0  0  0
    8.4550   -1.3410   22.5190 C   0  0  0  0  0  0  0  0  0  0  0  0
    9.8550    3.1950   23.6890 C   0  0  0  0  0  0  0  0  0  0  0  0
   10.6070    4.3590   23.8900 C   0  0  0  0  0  0  0  0  0  0  0  0
   10.2160    5.7850   23.5880 C   0  0  0  0  0  0  0  0  0  0  0  0
    8.8280    5.8520   22.9850 C   0  0  0  0  0  0  0  0  0  0  0  0
    8.0490    4.7140   22.7650 C   0  0  0  0  0  0  0  0  0  0  0  0
    8.4460    3.3920   23.0720 C   0  0  0  0  0  0  0  0  0  0  0  0
    3.6750   -8.1870   24.8710 O   0  0  0  0  0  0  0  0  0  0  0  0
    3.2480   -7.0470   24.2660 C   0  0  0  0  0  0  0  0  0  0  0  0
    6.1680   -4.7240   23.2790 C   0  0  0  0  0  0  0  0  0  0  0  0
    5.2310   -5.9180   23.2750 C   0  0  0  0  0  0  0  0  0  0  0  0
    4.1950   -5.9280   24.1990 C   0  0  0  0  0  0  0  0  0  0  0  0
    4.0190   -4.8690   25.1020 C   0  0  0  0  0  0  0  0  0  0  0  0
    4.8800   -3.7810   25.0950 C   0  0  0  0  0  0  0  0  0  0  0  0
    5.9410   -3.7030   24.2000 C   0  0  0  0  0  0  0  0  0  0  0  0
    1.4350   -5.5720   23.4020 C   0  0  0  0  0  0  0  0  0  0  0  0
    0.5640   -5.0730   24.3750 C   0  0  0  0  0  0  0  0  0  0  0  0
   -0.8210   -6.1650   24.2760 S   0  0  0  0  0  0  0  0  0  0  0  0
   -0.0840   -7.5880   24.7740 C   0  0  0  0  0  0  0  0  0  0  0  0
    1.0070   -7.9850   23.9780 C   0  0  0  0  0  0  0  0  0  0  0  0
    1.9770   -6.8860   23.7320 N   0  0  0  0  0  0  0  0  0  0  0  0
    6.3790   -1.2620   23.4880 C   0  0  0  0  0  0  0  0  0  0  0  0
    6.8240   -2.5090   24.2550 C   0  0  0  0  0  0  0  0  0  0  0  0
  2  4  1  0
  1  7  1  0
  3  7  2  0
  4  7  1  0
  1  9  1  0
  5 10  1  0
  6 10  2  0
  9 10  1  6
  8 12  1  0
 13 14  1  0
 13 15  1  0
 13 16  1  0
 17 18  2  0
 18 19  1  0
 19 20  2  0
  9 21  1  0
 20 21  1  0
 17 22  1  0
 21 22  2  0
 23 24  1  0
 13 25  1  0
 24 25  1  0
 25 26  2  0
  1 27  1  0
 23 27  2  0
 26 27  1  0
 11 28  1  0
 28 29  2  0
  8 30  1  0
 29 30  1  0
 30 31  2  0
 31 32  1  0
  5 33  1  0
 28 33  1  0
 32 33  2  0
 34 35  2  0
 36 37  2  0
 35 38  1  0
 37 38  1  0
 38 39  2  0
 39 40  1  0
 36 41  1  0
 40 41  2  0
 42 43  1  0
 43 44  1  0
 44 45  1  0
 45 46  1  0
 35 47  1  0
 42 47  1  0
 46 47  1  0
  1 48  1  1
 41 49  1  0
 48 49  1  0
M  END
