x2694-x2705
     RDKit          3D

 36 38  0  0  0  0  0  0  0  0999 V2000
    7.0410   -1.4970   21.7890 N   0  0  0  0  0  0  0  0  0  0  0  0
    6.8090   -4.7460   20.4320 C   0  0  0  0  0  0  0  0  0  0  0  0
    4.8360   -2.9890   21.2080 O   0  0  0  0  0  0  0  0  0  0  0  0
    6.9180   -3.9800   21.7440 C   0  0  0  0  0  0  0  0  0  0  0  0
    7.4880    2.3050   22.3330 N   0  0  0  0  0  0  0  0  0  0  0  0
    9.0420    0.8270   21.6220 O   0  0  0  0  0  0  0  0  0  0  0  0
    6.1370   -2.7140   21.5490 C   0  0  0  0  0  0  0  0  0  0  0  0
   11.0650    6.6470   23.9940 O   0  0  0  0  0  0  0  0  0  0  0  0
    6.7070   -0.0160   21.6700 C   0  0  1  0  0  0  0  0  0  0  0  0
    7.8560    1.0310   21.8730 C   0  0  0  0  0  0  0  0  0  0  0  0
   10.1310    1.6810   24.0020 C   0  0  0  0  0  0  0  0  0  0  0  0
   11.8660    6.4520   25.1530 C   0  0  0  0  0  0  0  0  0  0  0  0
   12.1100   -1.4410   23.2410 C   0  0  0  0  0  0  0  0  0  0  0  0
   12.6550   -0.2440   23.6700 C   0  0  0  0  0  0  0  0  0  0  0  0
   12.6160   -1.9660   22.0240 C   0  0  0  0  0  0  0  0  0  0  0  0
   12.5740   -2.3440   24.2700 C   0  0  0  0  0  0  0  0  0  0  0  0
    9.2470    1.1480   25.0230 C   0  0  0  0  0  0  0  0  0  0  0  0
    6.3730    0.4750   17.8300 N   0  0  0  0  0  0  0  0  0  0  0  0
    5.2080    1.2170   17.8000 C   0  0  0  0  0  0  0  0  0  0  0  0
    4.5340    1.5320   18.9740 C   0  0  0  0  0  0  0  0  0  0  0  0
    4.9570    1.1560   20.2430 C   0  0  0  0  0  0  0  0  0  0  0  0
    6.1180    0.4240   20.3700 C   0  0  0  0  0  0  0  0  0  0  0  0
    6.8230    0.0850   19.0710 C   0  0  0  0  0  0  0  0  0  0  0  0
    8.4970   -1.9030   23.8730 N   0  0  0  0  0  0  0  0  0  0  0  0
    9.8770   -1.8760   24.2320 O   0  0  0  0  0  0  0  0  0  0  0  0
   10.6720   -1.5540   23.1740 C   0  0  0  0  0  0  0  0  0  0  0  0
    9.7030   -1.3570   22.0240 C   0  0  0  0  0  0  0  0  0  0  0  0
    8.3180   -1.5920   22.5330 C   0  0  0  0  0  0  0  0  0  0  0  0
    9.7070    3.0730   23.5790 C   0  0  0  0  0  0  0  0  0  0  0  0
   10.4900    4.1900   23.9190 C   0  0  0  0  0  0  0  0  0  0  0  0
   10.2320    5.6480   23.6020 C   0  0  0  0  0  0  0  0  0  0  0  0
    8.9530    5.8180   22.8070 C   0  0  0  0  0  0  0  0  0  0  0  0
    8.1680    4.7110   22.4560 C   0  0  0  0  0  0  0  0  0  0  0  0
    8.4090    3.3480   22.7620 C   0  0  0  0  0  0  0  0  0  0  0  0
    6.0240    4.2540   21.9930 C   0  0  0  0  0  0  0  0  0  0  0  0
    6.2270    2.8780   22.0200 C   0  0  0  0  0  0  0  0  0  0  0  0
  2  4  1  0
  1  7  1  0
  3  7  2  0
  4  7  1  0
  1  9  1  0
  5 10  1  0
  6 10  2  0
  9 10  1  6
  8 12  1  0
 13 14  1  0
 13 15  1  0
 13 16  1  0
 11 17  1  0
 18 19  2  0
 19 20  1  0
 20 21  2  0
  9 22  1  0
 21 22  1  0
 18 23  1  0
 22 23  2  0
 24 25  1  0
 13 26  1  0
 25 26  1  0
 26 27  2  0
  1 28  1  0
 24 28  2  0
 27 28  1  0
 11 29  1  0
 29 30  2  0
  8 31  1  0
 30 31  1  0
 31 32  2  0
 32 33  1  0
  5 34  1  0
 29 34  1  0
 33 34  2  0
  5 36  1  0
 35 36  1  0
M  END
