x2694-x2908
     RDKit          3D

 34 36  0  0  0  0  0  0  0  0999 V2000
    6.1040   -1.0520   22.3010 N   0  0  0  0  0  0  0  0  0  0  0  0
    6.9940   -4.3640   20.6070 C   0  0  0  0  0  0  0  0  0  0  0  0
    4.7680   -3.0220   21.3970 O   0  0  0  0  0  0  0  0  0  0  0  0
    7.1700   -3.2450   21.6360 C   0  0  0  0  0  0  0  0  0  0  0  0
    7.4850    2.0560   23.0010 N   0  0  0  0  0  0  0  0  0  0  0  0
    8.4620    1.7450   21.0510 O   0  0  0  0  0  0  0  0  0  0  0  0
    5.9000   -2.4190   21.7620 C   0  0  0  0  0  0  0  0  0  0  0  0
   10.9010    6.7050   23.8120 O   0  0  0  0  0  0  0  0  0  0  0  0
    7.2470   -0.2190   21.7600 C   0  0  2  0  0  0  0  0  0  0  0  0
    7.7360    1.2410   21.9280 C   0  0  0  0  0  0  0  0  0  0  0  0
   10.2770    1.7440   24.0830 C   0  0  0  0  0  0  0  0  0  0  0  0
   11.8560    6.5640   24.8650 C   0  0  0  0  0  0  0  0  0  0  0  0
   12.2440   -1.4720   23.1150 C   0  0  0  0  0  0  0  0  0  0  0  0
   12.8510   -0.3270   23.5910 C   0  0  0  0  0  0  0  0  0  0  0  0
   12.7500   -2.0050   21.9090 C   0  0  0  0  0  0  0  0  0  0  0  0
   12.5880   -2.4190   24.1470 C   0  0  0  0  0  0  0  0  0  0  0  0
    4.8900    1.5500   21.3960 C   0  0  0  0  0  0  0  0  0  0  0  0
    6.5700    0.0250   17.8560 N   0  0  0  0  0  0  0  0  0  0  0  0
    5.4780    0.8780   17.8860 C   0  0  0  0  0  0  0  0  0  0  0  0
    5.0300    1.3010   19.1050 C   0  0  0  0  0  0  0  0  0  0  0  0
    5.5940    0.9430   20.3100 C   0  0  0  0  0  0  0  0  0  0  0  0
    6.7040    0.0950   20.3820 C   0  0  0  0  0  0  0  0  0  0  0  0
    7.1980   -0.3870   19.0380 C   0  0  0  0  0  0  0  0  0  0  0  0
    8.5700   -1.8810   23.3470 N   0  0  0  0  0  0  0  0  0  0  0  0
    9.9260   -2.1940   23.7080 O   0  0  0  0  0  0  0  0  0  0  0  0
   10.8170   -1.4430   22.9910 C   0  0  0  0  0  0  0  0  0  0  0  0
    9.9320   -0.6100   22.1130 C   0  0  0  0  0  0  0  0  0  0  0  0
    8.5220   -0.8920   22.3630 C   0  0  0  0  0  0  0  0  0  0  0  0
    9.7240    3.1100   23.7270 C   0  0  0  0  0  0  0  0  0  0  0  0
   10.5190    4.2520   23.9020 C   0  0  0  0  0  0  0  0  0  0  0  0
   10.0600    5.6580   23.5920 C   0  0  0  0  0  0  0  0  0  0  0  0
    8.6350    5.7260   23.0420 C   0  0  0  0  0  0  0  0  0  0  0  0
    7.8520    4.5660   22.8670 C   0  0  0  0  0  0  0  0  0  0  0  0
    8.2850    3.2520   23.1740 C   0  0  0  0  0  0  0  0  0  0  0  0
  2  4  1  0
  1  7  1  0
  3  7  2  0
  4  7  1  0
  9  1  1  1
  5 10  1  0
  6 10  2  0
  9 10  1  0
  8 12  1  0
 13 14  1  0
 13 15  1  0
 13 16  1  0
 18 19  2  0
 19 20  1  0
 17 21  1  0
 20 21  2  0
  9 22  1  0
 21 22  1  0
 18 23  1  0
 22 23  2  0
 24 25  1  0
 13 26  1  0
 25 26  1  0
 26 27  2  0
  9 28  1  0
 24 28  2  0
 27 28  1  0
 11 29  1  0
 29 30  2  0
  8 31  1  0
 30 31  1  0
 31 32  2  0
 32 33  1  0
  5 34  1  0
 29 34  1  0
 33 34  2  0
M  END
