x2694-x3115
     RDKit          3D

 35 37  0  0  0  0  0  0  0  0999 V2000
    7.0240   -1.4820   21.8660 N   0  0  0  0  0  0  0  0  0  0  0  0
    6.7870   -4.6990   20.3820 C   0  0  0  0  0  0  0  0  0  0  0  0
    4.8380   -3.0010   21.2420 O   0  0  0  0  0  0  0  0  0  0  0  0
    6.9450   -3.9720   21.7100 C   0  0  0  0  0  0  0  0  0  0  0  0
    7.6420    2.1070   22.7590 N   0  0  0  0  0  0  0  0  0  0  0  0
    8.7630    1.1910   21.0530 O   0  0  0  0  0  0  0  0  0  0  0  0
    6.1420   -2.7130   21.5810 C   0  0  0  0  0  0  0  0  0  0  0  0
   11.0610    6.5400   23.7190 O   0  0  0  0  0  0  0  0  0  0  0  0
    6.6860   -0.0070   21.7080 C   0  0  1  0  0  0  0  0  0  0  0  0
    7.7840    1.1060   21.8000 C   0  0  0  0  0  0  0  0  0  0  0  0
   10.1740    1.6640   24.1280 C   0  0  0  0  0  0  0  0  0  0  0  0
   11.8340    6.4170   24.9140 C   0  0  0  0  0  0  0  0  0  0  0  0
   12.3070   -1.3900   22.9320 C   0  0  0  0  0  0  0  0  0  0  0  0
   12.6270   -0.1500   23.4640 C   0  0  0  0  0  0  0  0  0  0  0  0
   12.7810   -1.7540   21.6580 C   0  0  0  0  0  0  0  0  0  0  0  0
   12.9910   -2.3110   23.7840 C   0  0  0  0  0  0  0  0  0  0  0  0
    7.6740    6.2360   22.0120 C   0  0  0  0  0  0  0  0  0  0  0  0
   12.2850   -2.7720   25.0350 C   0  0  0  0  0  0  0  0  0  0  0  0
    6.3730    0.4820   17.9020 N   0  0  0  0  0  0  0  0  0  0  0  0
    5.2570    1.3130   17.7710 C   0  0  0  0  0  0  0  0  0  0  0  0
    4.5680    1.7170   18.9210 C   0  0  0  0  0  0  0  0  0  0  0  0
    4.9750    1.3190   20.1790 C   0  0  0  0  0  0  0  0  0  0  0  0
    6.1890    0.4280   20.3510 C   0  0  0  0  0  0  0  0  0  0  0  0
    6.7910    0.0760   19.1770 C   0  0  0  0  0  0  0  0  0  0  0  0
    8.6020   -1.9520   23.8530 N   0  0  0  0  0  0  0  0  0  0  0  0
   10.0300   -1.9030   24.0700 O   0  0  0  0  0  0  0  0  0  0  0  0
   10.7690   -1.5190   22.9400 C   0  0  0  0  0  0  0  0  0  0  0  0
    9.6770   -1.3210   21.9530 C   0  0  0  0  0  0  0  0  0  0  0  0
    8.3650   -1.5970   22.5560 C   0  0  0  0  0  0  0  0  0  0  0  0
    9.7010    3.0120   23.6410 C   0  0  0  0  0  0  0  0  0  0  0  0
   10.5840    4.1820   23.8800 C   0  0  0  0  0  0  0  0  0  0  0  0
   10.1480    5.5660   23.4150 C   0  0  0  0  0  0  0  0  0  0  0  0
    8.9640    5.9840   22.7260 C   0  0  0  0  0  0  0  0  0  0  0  0
    8.2410    4.7170   22.5830 C   0  0  0  0  0  0  0  0  0  0  0  0
    8.5240    3.2420   22.9980 C   0  0  0  0  0  0  0  0  0  0  0  0
  2  4  1  0
  1  7  1  0
  3  7  2  0
  4  7  1  0
  1  9  1  0
  5 10  1  0
  6 10  2  0
  9 10  1  6
  8 12  1  0
 13 14  1  0
 13 15  1  0
 13 16  1  0
 16 18  1  0
 19 20  2  0
 20 21  1  0
 21 22  2  0
  9 23  1  0
 22 23  1  0
 19 24  1  0
 23 24  2  0
 25 26  1  0
 13 27  1  0
 26 27  1  0
 27 28  2  0
  1 29  1  0
 25 29  2  0
 28 29  1  0
 11 30  1  0
 30 31  2  0
  8 32  1  0
 31 32  1  0
 17 33  1  0
 32 33  2  0
 33 34  1  0
  5 35  1  0
 30 35  1  0
 34 35  2  0
M  END
