x2694-x0771
     RDKit          3D

 52 57  0  0  0  0  0  0  0  0999 V2000
    6.8260   -1.3190   22.0250 C   0  0  1  0  0  0  0  0  0  0  0  0
    6.6710   -3.8400   19.9210 C   0  0  0  0  0  0  0  0  0  0  0  0
    4.7890   -2.9610   21.2560 O   0  0  0  0  0  0  0  0  0  0  0  0
    6.3140   -2.4370   19.6740 C   0  0  0  0  0  0  0  0  0  0  0  0
    7.5820    2.1270   22.9370 N   0  0  0  0  0  0  0  0  0  0  0  0
    8.7740    1.1950   21.0340 O   0  0  0  0  0  0  0  0  0  0  0  0
    5.9180   -2.2400   21.0110 C   0  0  0  0  0  0  0  0  0  0  0  0
   11.0000    6.7080   23.8160 O   0  0  0  0  0  0  0  0  0  0  0  0
    6.6240    0.2170   21.7490 C   0  0  1  0  0  0  0  0  0  0  0  0
    7.6980    1.1580   21.8860 C   0  0  0  0  0  0  0  0  0  0  0  0
   10.2020    1.7880   24.0800 C   0  0  0  0  0  0  0  0  0  0  0  0
   11.8450    6.5230   24.9560 C   0  0  0  0  0  0  0  0  0  0  0  0
   12.2410   -1.4470   23.1300 C   0  0  0  0  0  0  0  0  0  0  0  0
   12.5960   -0.1470   23.5080 C   0  0  0  0  0  0  0  0  0  0  0  0
   12.7860   -1.9540   21.9310 C   0  0  0  0  0  0  0  0  0  0  0  0
   12.5930   -2.3630   24.0630 C   0  0  0  0  0  0  0  0  0  0  0  0
    0.5710   -1.4600   26.2320 C   0  0  0  0  0  0  0  0  0  0  0  0
    4.3810   -6.9110   25.4990 O   0  0  0  0  0  0  0  0  0  0  0  0
    6.0700   -5.4090   26.6820 O   0  0  0  0  0  0  0  0  0  0  0  0
    2.0890   -6.0610   24.9520 C   0  0  0  0  0  0  0  0  0  0  0  0
    4.9920   -5.5930   25.5240 S   0  0  0  0  0  0  0  0  0  0  0  0
    6.0160   -2.0550   23.0730 C   0  0  0  0  0  0  0  0  0  0  0  0
    5.4740   -3.1860   22.3840 C   0  0  0  0  0  0  0  0  0  0  0  0
    6.3680    0.5880   17.8910 N   0  0  0  0  0  0  0  0  0  0  0  0
    5.2510    1.3390   17.7640 C   0  0  0  0  0  0  0  0  0  0  0  0
    4.4730    1.7850   18.7980 C   0  0  0  0  0  0  0  0  0  0  0  0
    4.8730    1.4330   20.2000 C   0  0  0  0  0  0  0  0  0  0  0  0
    6.0850    0.6260   20.4330 C   0  0  0  0  0  0  0  0  0  0  0  0
    6.7730    0.2440   19.1360 C   0  0  0  0  0  0  0  0  0  0  0  0
    8.6120   -1.9060   24.0080 N   0  0  0  0  0  0  0  0  0  0  0  0
   10.0220   -1.8840   24.1500 O   0  0  0  0  0  0  0  0  0  0  0  0
   10.7180   -1.4990   23.0010 C   0  0  0  0  0  0  0  0  0  0  0  0
    9.6210   -1.2390   21.9570 C   0  0  0  0  0  0  0  0  0  0  0  0
    8.2960   -1.5000   22.6380 C   0  0  0  0  0  0  0  0  0  0  0  0
    9.6780    3.1720   23.6810 C   0  0  0  0  0  0  0  0  0  0  0  0
   10.5210    4.2890   23.8930 C   0  0  0  0  0  0  0  0  0  0  0  0
   10.0930    5.7140   23.5450 C   0  0  0  0  0  0  0  0  0  0  0  0
    8.8390    5.8400   22.9970 C   0  0  0  0  0  0  0  0  0  0  0  0
    7.9620    4.6000   22.7770 C   0  0  0  0  0  0  0  0  0  0  0  0
    8.3830    3.3020   23.1210 C   0  0  0  0  0  0  0  0  0  0  0  0
    1.6640   -2.4680   26.0520 C   0  0  0  0  0  0  0  0  0  0  0  0
    1.3920   -3.7480   25.6000 C   0  0  0  0  0  0  0  0  0  0  0  0
    2.4270   -4.6850   25.4440 C   0  0  0  0  0  0  0  0  0  0  0  0
    3.7490   -4.3440   25.7420 C   0  0  0  0  0  0  0  0  0  0  0  0
    3.9760   -3.0440   26.1880 C   0  0  0  0  0  0  0  0  0  0  0  0
    2.9690   -2.1150   26.3450 C   0  0  0  0  0  0  0  0  0  0  0  0
    6.3970   -4.2030   21.5260 C   0  0  0  0  0  0  0  0  0  0  0  0
    5.7040   -5.5600   21.5420 C   0  0  0  0  0  0  0  0  0  0  0  0
    5.2230   -6.0920   22.8970 C   0  0  0  0  0  0  0  0  0  0  0  0
    5.6970   -5.2340   24.0150 N   0  0  0  0  0  0  0  0  0  0  0  0
    7.1140   -4.7890   23.9380 C   0  0  0  0  0  0  0  0  0  0  0  0
    7.5540   -4.5980   22.4750 C   0  0  0  0  0  0  0  0  0  0  0  0
  2  4  1  0
  1  7  1  0
  3  7  2  0
  4  7  1  0
  1  9  1  0
  5 10  1  0
  6 10  2  0
  9 10  1  6
  8 12  1  0
 13 14  1  0
 13 15  1  0
 13 16  1  0
 18 21  2  0
 19 21  2  0
  1 22  1  0
 22 23  1  0
 24 25  2  0
 25 26  1  0
 26 27  2  0
  9 28  1  0
 27 28  1  0
 24 29  1  0
 28 29  2  0
 30 31  1  0
 13 32  1  0
 31 32  1  0
 32 33  2  0
  1 34  1  1
 30 34  2  0
 33 34  1  0
 11 35  1  0
 35 36  2  0
  8 37  1  0
 36 37  1  0
 37 38  2  0
 38 39  1  0
  5 40  1  0
 35 40  1  0
 39 40  2  0
 17 41  1  0
 41 42  2  0
 20 43  1  0
 42 43  1  0
 21 44  1  0
 43 44  2  0
 44 45  1  0
 41 46  1  0
 45 46  2  0
  2 47  1  0
 47 23  1  0
 47 48  1  0
 48 49  1  0
 21 50  1  0
 49 50  1  0
 50 51  1  0
 47 52  1  0
 51 52  1  0
M  END
