x2694-x2776-x3115-x0426-x0786
     RDKit          3D

 63 68  0  0  0  0  0  0  0  0999 V2000
    6.8870   -1.3510   22.0950 C   0  0  2  0  0  0  0  0  0  0  0  0
    7.3000   -3.3390   19.4110 C   0  0  0  0  0  0  0  0  0  0  0  0
    4.8820   -3.0560   21.1980 O   0  0  0  0  0  0  0  0  0  0  0  0
    7.1600   -3.6500   20.8610 C   0  0  0  0  0  0  0  0  0  0  0  0
    7.6980    2.1620   22.8200 N   0  0  0  0  0  0  0  0  0  0  0  0
    8.8160    1.2440   21.0460 O   0  0  0  0  0  0  0  0  0  0  0  0
    6.1820   -2.6760   21.3780 C   0  0  0  0  0  0  0  0  0  0  0  0
   10.9220    6.7020   23.7390 O   0  0  0  0  0  0  0  0  0  0  0  0
    6.6550    0.1940   21.6320 C   0  0  1  0  0  0  0  0  0  0  0  0
    7.8450    1.2330   21.7960 C   0  0  0  0  0  0  0  0  0  0  0  0
   10.2300    1.8270   24.1410 C   0  0  0  0  0  0  0  0  0  0  0  0
   11.8670    6.6450   24.8040 C   0  0  0  0  0  0  0  0  0  0  0  0
   12.1200   -1.5580   23.1900 C   0  0  0  0  0  0  0  0  0  0  0  0
   12.6550   -0.2010   23.7010 C   0  0  0  0  0  0  0  0  0  0  0  0
   12.7820   -1.8500   21.8280 C   0  0  0  0  0  0  0  0  0  0  0  0
   12.4800   -2.7150   24.1550 C   0  0  0  0  0  0  0  0  0  0  0  0
   13.4640   -2.4830   25.2790 C   0  0  0  0  0  0  0  0  0  0  0  0
    8.4530    7.0660   22.3970 C   0  0  0  0  0  0  0  0  0  0  0  0
    2.2500    1.7920   23.8550 C   0  0  0  0  0  0  0  0  0  0  0  0
    2.1310    0.5780   23.7490 O   0  0  0  0  0  0  0  0  0  0  0  0
    3.3320    2.4690   23.3310 N   0  0  0  0  0  0  0  0  0  0  0  0
    4.3290    1.7890   22.5280 C   0  0  0  0  0  0  0  0  0  0  0  0
    3.7740    1.5240   21.1360 C   0  0  0  0  0  0  0  0  0  0  0  0
    2.7420    4.3020   25.2370 F   0  0  0  0  0  0  0  0  0  0  0  0
    6.4080    0.5310   17.8890 N   0  0  0  0  0  0  0  0  0  0  0  0
    5.2230    1.1160   17.7680 C   0  0  0  0  0  0  0  0  0  0  0  0
    4.4000    1.4210   18.8020 C   0  0  0  0  0  0  0  0  0  0  0  0
    4.7920    1.1330   20.0910 C   0  0  0  0  0  0  0  0  0  0  0  0
    6.0550    0.5310   20.2780 C   0  0  0  0  0  0  0  0  0  0  0  0
    6.8000    0.2490   19.1360 C   0  0  0  0  0  0  0  0  0  0  0  0
    8.5670   -1.2450   23.9430 N   0  0  0  0  0  0  0  0  0  0  0  0
    9.9170   -1.3000   24.2140 O   0  0  0  0  0  0  0  0  0  0  0  0
   10.6010   -1.4910   23.0680 C   0  0  0  0  0  0  0  0  0  0  0  0
    9.6770   -1.5750   22.0260 C   0  0  0  0  0  0  0  0  0  0  0  0
    8.3810   -1.4070   22.6170 C   0  0  0  0  0  0  0  0  0  0  0  0
    9.7350    3.1660   23.6790 C   0  0  0  0  0  0  0  0  0  0  0  0
   10.5450    4.2960   23.9060 C   0  0  0  0  0  0  0  0  0  0  0  0
   10.1660    5.5730   23.5210 C   0  0  0  0  0  0  0  0  0  0  0  0
    8.9360    5.7280   22.8660 C   0  0  0  0  0  0  0  0  0  0  0  0
    8.1190    4.6040   22.6330 C   0  0  0  0  0  0  0  0  0  0  0  0
    8.5010    3.3190   23.0350 C   0  0  0  0  0  0  0  0  0  0  0  0
    1.4950    3.7960   25.2180 C   0  0  0  0  0  0  0  0  0  0  0  0
    1.2120    2.5930   24.5650 C   0  0  0  0  0  0  0  0  0  0  0  0
   -0.1090    2.1160   24.5810 C   0  0  0  0  0  0  0  0  0  0  0  0
   -1.1150    2.8330   25.2360 C   0  0  0  0  0  0  0  0  0  0  0  0
   -0.8130    4.0320   25.8840 C   0  0  0  0  0  0  0  0  0  0  0  0
    0.4950    4.5130   25.8730 C   0  0  0  0  0  0  0  0  0  0  0  0
    3.7750   -8.2100   24.8540 O   0  0  0  0  0  0  0  0  0  0  0  0
    3.2590   -7.2170   24.3840 C   0  0  0  0  0  0  0  0  0  0  0  0
    5.9210   -4.7750   23.2780 C   0  0  0  0  0  0  0  0  0  0  0  0
    5.0940   -5.8970   23.2840 C   0  0  0  0  0  0  0  0  0  0  0  0
    4.1510   -6.0400   24.3090 C   0  0  0  0  0  0  0  0  0  0  0  0
    4.0320   -5.0760   25.3090 C   0  0  0  0  0  0  0  0  0  0  0  0
    4.8580   -3.9610   25.2940 C   0  0  0  0  0  0  0  0  0  0  0  0
    5.8030   -3.8060   24.2840 C   0  0  0  0  0  0  0  0  0  0  0  0
    1.2830   -6.3770   22.9920 C   0  0  0  0  0  0  0  0  0  0  0  0
    0.1430   -5.5510   23.5890 C   0  0  0  0  0  0  0  0  0  0  0  0
   -1.1990   -6.5900   24.2070 S   0  0  0  0  0  0  0  0  0  0  0  0
   -0.1680   -7.7260   25.2160 C   0  0  0  0  0  0  0  0  0  0  0  0
    1.0610   -8.2840   24.4870 C   0  0  0  0  0  0  0  0  0  0  0  0
    1.9150   -7.2200   23.9840 N   0  0  0  0  0  0  0  0  0  0  0  0
    6.1250   -1.4860   23.4120 C   0  0  0  0  0  0  0  0  0  0  0  0
    6.6870   -2.6100   24.2820 C   0  0  0  0  0  0  0  0  0  0  0  0
  2  4  1  0
  1  7  1  0
  3  7  2  0
  4  7  1  0
  1  9  1  0
  5 10  1  0
  6 10  2  0
  9 10  1  6
  8 12  1  0
 13 14  1  0
 13 15  1  0
 13 16  1  0
 16 17  1  0
 19 20  2  0
 19 21  1  0
 21 22  1  0
 22 23  1  0
 25 26  2  0
 26 27  1  0
 23 28  1  0
 27 28  2  0
  9 29  1  0
 28 29  1  0
 25 30  1  0
 29 30  2  0
 31 32  1  0
 13 33  1  0
 32 33  1  0
 33 34  2  0
  1 35  1  0
 31 35  2  0
 34 35  1  0
 11 36  1  0
 36 37  2  0
  8 38  1  0
 37 38  1  0
 18 39  1  0
 38 39  2  0
 39 40  1  0
  5 41  1  0
 36 41  1  0
 40 41  2  0
 24 42  1  0
 19 43  1  0
 42 43  2  0
 43 44  1  0
 44 45  2  0
 45 46  1  0
 42 47  1  0
 46 47  2  0
 48 49  2  0
 50 51  2  0
 49 52  1  0
 51 52  1  0
 52 53  2  0
 53 54  1  0
 50 55  1  0
 54 55  2  0
 56 57  1  0
 57 58  1  0
 58 59  1  0
 59 60  1  0
 49 61  1  0
 56 61  1  0
 60 61  1  0
  1 62  1  1
 55 63  1  0
 62 63  1  0
M  END
