x2694-x2649
     RDKit          3D

 34 36  0  0  0  0  0  0  0  0999 V2000
    7.0780   -1.3550   21.7000 N   0  0  0  0  0  0  0  0  0  0  0  0
    6.6860   -4.1100   20.1090 C   0  0  0  0  0  0  0  0  0  0  0  0
    4.9920   -3.2490   21.2600 O   0  0  0  0  0  0  0  0  0  0  0  0
    6.9040   -3.3340   21.4120 C   0  0  0  0  0  0  0  0  0  0  0  0
    7.6730    2.1210   22.7750 N   0  0  0  0  0  0  0  0  0  0  0  0
    8.9610    1.2820   21.1410 O   0  0  0  0  0  0  0  0  0  0  0  0
    5.8670   -2.2310   21.4770 C   0  0  0  0  0  0  0  0  0  0  0  0
   10.9650    6.7610   23.8490 O   0  0  0  0  0  0  0  0  0  0  0  0
    6.8320    0.1190   21.5860 C   0  0  1  0  0  0  0  0  0  0  0  0
    7.9230    1.1800   21.7980 C   0  0  0  0  0  0  0  0  0  0  0  0
   10.3780    1.7890   24.0260 C   0  0  0  0  0  0  0  0  0  0  0  0
   11.8680    6.5910   24.9410 C   0  0  0  0  0  0  0  0  0  0  0  0
   12.1220   -1.4750   23.2360 C   0  0  0  0  0  0  0  0  0  0  0  0
   12.6640   -0.2740   23.6460 C   0  0  0  0  0  0  0  0  0  0  0  0
   12.6280   -2.0140   22.0250 C   0  0  0  0  0  0  0  0  0  0  0  0
   12.5840   -2.3640   24.2740 C   0  0  0  0  0  0  0  0  0  0  0  0
    4.2750    1.7810   21.2670 C   0  0  0  0  0  0  0  0  0  0  0  0
    6.3710    0.5170   17.7740 N   0  0  0  0  0  0  0  0  0  0  0  0
    5.2210    1.2890   17.7650 C   0  0  0  0  0  0  0  0  0  0  0  0
    4.6240    1.6350   18.9620 C   0  0  0  0  0  0  0  0  0  0  0  0
    5.0850    1.2810   20.2060 C   0  0  0  0  0  0  0  0  0  0  0  0
    6.2190    0.5330   20.3080 C   0  0  0  0  0  0  0  0  0  0  0  0
    6.8830    0.1270   18.9990 C   0  0  0  0  0  0  0  0  0  0  0  0
    8.4740   -1.9810   23.8140 N   0  0  0  0  0  0  0  0  0  0  0  0
    9.8660   -1.9920   24.1880 O   0  0  0  0  0  0  0  0  0  0  0  0
   10.6840   -1.5850   23.1670 C   0  0  0  0  0  0  0  0  0  0  0  0
    9.7030   -1.3030   22.0650 C   0  0  0  0  0  0  0  0  0  0  0  0
    8.3060   -1.5560   22.4980 C   0  0  0  0  0  0  0  0  0  0  0  0
    9.8430    3.1590   23.6520 C   0  0  0  0  0  0  0  0  0  0  0  0
   10.6100    4.3060   23.8910 C   0  0  0  0  0  0  0  0  0  0  0  0
   10.1520    5.7100   23.5630 C   0  0  0  0  0  0  0  0  0  0  0  0
    8.7700    5.7740   22.9240 C   0  0  0  0  0  0  0  0  0  0  0  0
    8.0160    4.6120   22.6850 C   0  0  0  0  0  0  0  0  0  0  0  0
    8.4500    3.3060   23.0080 C   0  0  0  0  0  0  0  0  0  0  0  0
  2  4  1  0
  1  7  1  0
  3  7  2  0
  4  7  1  0
  1  9  1  0
  5 10  1  0
  6 10  2  0
  9 10  1  6
  8 12  1  0
 13 14  1  0
 13 15  1  0
 13 16  1  0
 18 19  2  0
 19 20  1  0
 17 21  1  0
 20 21  2  0
  9 22  1  0
 21 22  1  0
 18 23  1  0
 22 23  2  0
 24 25  1  0
 13 26  1  0
 25 26  1  0
 26 27  2  0
  1 28  1  0
 24 28  2  0
 27 28  1  0
 11 29  1  0
 29 30  2  0
  8 31  1  0
 30 31  1  0
 31 32  2  0
 32 33  1  0
  5 34  1  0
 29 34  1  0
 33 34  2  0
M  END
