x2694-x0691
     RDKit          3D

 51 56  0  0  0  0  0  0  0  0999 V2000
    7.0630   -1.2910   21.8380 C   0  0  2  0  0  0  0  0  0  0  0  0
    6.6430   -3.8660   20.1430 C   0  0  0  0  0  0  0  0  0  0  0  0
    4.9100   -3.0490   20.9140 O   0  0  0  0  0  0  0  0  0  0  0  0
    6.3780   -2.4040   20.1700 C   0  0  0  0  0  0  0  0  0  0  0  0
    7.5930    2.1760   22.8890 N   0  0  0  0  0  0  0  0  0  0  0  0
    8.8290    1.2810   21.0080 O   0  0  0  0  0  0  0  0  0  0  0  0
    5.7910   -2.2570   21.4850 C   0  0  0  0  0  0  0  0  0  0  0  0
   11.0240    6.7840   23.8300 O   0  0  0  0  0  0  0  0  0  0  0  0
    6.7370    0.2280   21.7340 C   0  0  1  0  0  0  0  0  0  0  0  0
    7.7560    1.2120   21.8530 C   0  0  0  0  0  0  0  0  0  0  0  0
   10.1590    1.8770   24.0540 C   0  0  0  0  0  0  0  0  0  0  0  0
   11.9030    6.6360   24.9480 C   0  0  0  0  0  0  0  0  0  0  0  0
   12.3430   -1.4180   23.2000 C   0  0  0  0  0  0  0  0  0  0  0  0
   12.6130   -0.1010   23.5860 C   0  0  0  0  0  0  0  0  0  0  0  0
   12.8600   -1.8460   21.9670 C   0  0  0  0  0  0  0  0  0  0  0  0
   12.8220   -2.3210   24.0860 C   0  0  0  0  0  0  0  0  0  0  0  0
    4.2060   -6.8480   25.5570 O   0  0  0  0  0  0  0  0  0  0  0  0
    5.8510   -5.3020   26.7620 O   0  0  0  0  0  0  0  0  0  0  0  0
    3.2750   -0.6320   25.9920 F   0  0  0  0  0  0  0  0  0  0  0  0
    4.8350   -5.5360   25.5540 S   0  0  0  0  0  0  0  0  0  0  0  0
    6.4580   -2.0070   23.0270 C   0  0  0  0  0  0  0  0  0  0  0  0
    5.7610   -3.1920   22.6120 C   0  0  0  0  0  0  0  0  0  0  0  0
    6.3510    0.5670   17.7980 N   0  0  0  0  0  0  0  0  0  0  0  0
    5.2580    1.3420   17.7880 C   0  0  0  0  0  0  0  0  0  0  0  0
    4.5750    1.7930   18.9140 C   0  0  0  0  0  0  0  0  0  0  0  0
    5.0780    1.4050   20.3130 C   0  0  0  0  0  0  0  0  0  0  0  0
    6.2050    0.6140   20.3850 C   0  0  0  0  0  0  0  0  0  0  0  0
    6.8200    0.2050   19.0540 C   0  0  0  0  0  0  0  0  0  0  0  0
    8.6660   -1.8450   23.8930 N   0  0  0  0  0  0  0  0  0  0  0  0
   10.0400   -1.8600   24.2140 O   0  0  0  0  0  0  0  0  0  0  0  0
   10.7910   -1.5090   23.1300 C   0  0  0  0  0  0  0  0  0  0  0  0
    9.8050   -1.2640   22.0340 C   0  0  0  0  0  0  0  0  0  0  0  0
    8.5000   -1.4520   22.4750 C   0  0  0  0  0  0  0  0  0  0  0  0
    9.7370    3.2050   23.6960 C   0  0  0  0  0  0  0  0  0  0  0  0
   10.6050    4.4660   23.9160 C   0  0  0  0  0  0  0  0  0  0  0  0
   10.1830    5.7500   23.5750 C   0  0  0  0  0  0  0  0  0  0  0  0
    8.9250    5.8830   22.9960 C   0  0  0  0  0  0  0  0  0  0  0  0
    8.0720    4.6300   22.7750 C   0  0  0  0  0  0  0  0  0  0  0  0
    8.4560    3.3400   23.1140 C   0  0  0  0  0  0  0  0  0  0  0  0
    2.9610   -1.9300   25.8650 C   0  0  0  0  0  0  0  0  0  0  0  0
    3.9150   -2.9480   25.7810 C   0  0  0  0  0  0  0  0  0  0  0  0
    3.5580   -4.2910   25.6490 C   0  0  0  0  0  0  0  0  0  0  0  0
    2.2220   -4.6580   25.5950 C   0  0  0  0  0  0  0  0  0  0  0  0
    1.2110   -3.7000   25.6730 C   0  0  0  0  0  0  0  0  0  0  0  0
    1.4820   -2.3460   25.8090 C   0  0  0  0  0  0  0  0  0  0  0  0
    6.4770   -4.3480   21.7070 C   0  0  0  0  0  0  0  0  0  0  0  0
    5.6510   -5.4720   21.6940 C   0  0  0  0  0  0  0  0  0  0  0  0
    5.0100   -5.8680   22.8790 C   0  0  0  0  0  0  0  0  0  0  0  0
    5.6450   -5.2480   24.0710 N   0  0  0  0  0  0  0  0  0  0  0  0
    7.1350   -5.0720   24.0050 C   0  0  0  0  0  0  0  0  0  0  0  0
    7.6520   -4.8800   22.5510 C   0  0  0  0  0  0  0  0  0  0  0  0
  2  4  1  0
  1  7  1  0
  3  7  2  0
  4  7  1  0
  1  9  1  0
  5 10  1  0
  6 10  2  0
  9 10  1  6
  8 12  1  0
 13 14  1  0
 13 15  1  0
 13 16  1  0
 17 20  2  0
 18 20  2  0
  1 21  1  0
 21 22  1  0
 23 24  2  0
 24 25  1  0
 25 26  2  0
  9 27  1  0
 26 27  1  0
 23 28  1  0
 27 28  2  0
 29 30  1  0
 13 31  1  0
 30 31  1  0
 31 32  2  0
  1 33  1  6
 29 33  2  0
 32 33  1  0
 11 34  1  0
 34 35  2  0
  8 36  1  0
 35 36  1  0
 36 37  2  0
 37 38  1  0
  5 39  1  0
 34 39  1  0
 38 39  2  0
 19 40  1  0
 40 41  2  0
 20 42  1  0
 41 42  1  0
 42 43  2  0
 43 44  1  0
 40 45  1  0
 44 45  2  0
  2 46  1  0
 46 22  1  0
 46 47  1  0
 47 48  1  0
 20 49  1  0
 48 49  1  0
 49 50  1  0
 46 51  1  0
 50 51  1  0
M  END
