x2694-x0305
     RDKit          3D

 37 39  0  0  0  0  0  0  0  0999 V2000
    7.0210   -1.3360   21.6260 N   0  0  0  0  0  0  0  0  0  0  0  0
    6.6850   -4.0690   20.0790 C   0  0  0  0  0  0  0  0  0  0  0  0
    4.9930   -3.2750   21.3020 O   0  0  0  0  0  0  0  0  0  0  0  0
    6.8880   -3.3220   21.3950 C   0  0  0  0  0  0  0  0  0  0  0  0
    7.6380    2.1360   22.7250 N   0  0  0  0  0  0  0  0  0  0  0  0
    8.8050    1.3200   21.0060 O   0  0  0  0  0  0  0  0  0  0  0  0
    5.8330   -2.2410   21.4650 C   0  0  0  0  0  0  0  0  0  0  0  0
   10.9660    6.7570   23.9600 O   0  0  0  0  0  0  0  0  0  0  0  0
    6.7190    0.1250   21.5620 C   0  0  1  0  0  0  0  0  0  0  0  0
    7.8140    1.2060   21.7220 C   0  0  0  0  0  0  0  0  0  0  0  0
   10.2320    1.8180   24.0170 C   0  0  0  0  0  0  0  0  0  0  0  0
   11.8690    6.5420   25.0450 C   0  0  0  0  0  0  0  0  0  0  0  0
   12.1500   -1.5130   23.5340 C   0  0  0  0  0  0  0  0  0  0  0  0
   12.5390   -0.3820   24.2160 C   0  0  0  0  0  0  0  0  0  0  0  0
   12.7620   -1.7640   22.2880 C   0  0  0  0  0  0  0  0  0  0  0  0
   12.4600   -2.6020   24.4160 C   0  0  0  0  0  0  0  0  0  0  0  0
    8.7770   -0.0070   27.6600 C   0  0  0  0  0  0  0  0  0  0  0  0
    8.8550    0.1960   26.2690 C   0  0  0  0  0  0  0  0  0  0  0  0
    9.9300   -0.4850   25.7290 N   0  0  0  0  0  0  0  0  0  0  0  0
   13.3840   -1.9280   20.9610 N   0  0  0  0  0  0  0  0  0  0  0  0
    6.3550    0.5450   17.7660 N   0  0  0  0  0  0  0  0  0  0  0  0
    5.2740    1.3650   17.7540 C   0  0  0  0  0  0  0  0  0  0  0  0
    4.5690    1.8430   18.8410 C   0  0  0  0  0  0  0  0  0  0  0  0
    4.9820    1.4750   20.1030 C   0  0  0  0  0  0  0  0  0  0  0  0
    6.1980    0.5570   20.2280 C   0  0  0  0  0  0  0  0  0  0  0  0
    6.8200    0.1320   19.0710 C   0  0  0  0  0  0  0  0  0  0  0  0
    8.3000   -0.8980   23.8400 N   0  0  0  0  0  0  0  0  0  0  0  0
    9.6770   -0.9210   24.3640 C   0  0  0  0  0  0  0  0  0  0  0  0
   10.5990   -1.4060   23.2800 C   0  0  0  0  0  0  0  0  0  0  0  0
    9.6430   -1.6440   22.1440 C   0  0  0  0  0  0  0  0  0  0  0  0
    8.2800   -1.3350   22.4360 C   0  0  0  0  0  0  0  0  0  0  0  0
    9.6900    3.1700   23.6320 C   0  0  0  0  0  0  0  0  0  0  0  0
   10.5110    4.4300   23.9270 C   0  0  0  0  0  0  0  0  0  0  0  0
   10.1370    5.7330   23.6320 C   0  0  0  0  0  0  0  0  0  0  0  0
    8.8950    5.8660   23.0010 C   0  0  0  0  0  0  0  0  0  0  0  0
    8.0440    4.6100   22.6900 C   0  0  0  0  0  0  0  0  0  0  0  0
    8.4320    3.3020   23.0020 C   0  0  0  0  0  0  0  0  0  0  0  0
  2  4  1  0
  1  7  1  0
  3  7  2  0
  4  7  1  0
  1  9  1  0
  5 10  1  0
  6 10  2  0
  9 10  1  6
  8 12  1  0
 13 14  1  0
 13 15  1  0
 13 16  1  0
 17 18  1  0
 18 19  1  0
 15 20  3  0
 21 22  2  0
 22 23  1  0
 23 24  2  0
  9 25  1  0
 24 25  1  0
 21 26  1  0
 25 26  2  0
 19 28  1  0
 27 28  1  0
 13 29  1  0
 28 29  2  0
 29 30  1  0
  1 31  1  0
 27 31  1  0
 30 31  2  0
 11 32  1  0
 32 33  2  0
  8 34  1  0
 33 34  1  0
 34 35  2  0
 35 36  1  0
  5 37  1  0
 32 37  1  0
 36 37  2  0
M  END
