x2694-x1351
     RDKit          3D

 48 53  0  0  0  0  0  0  0  0999 V2000
    7.0070   -1.3280   21.7930 C   0  0  1  0  0  0  0  0  0  0  0  0
    7.1480   -3.2590   19.8900 C   0  0  0  0  0  0  0  0  0  0  0  0
    4.7570   -2.8710   21.0510 O   0  0  0  0  0  0  0  0  0  0  0  0
    7.5240    2.2300   22.7570 N   0  0  0  0  0  0  0  0  0  0  0  0
    8.7870    1.2500   21.0140 O   0  0  0  0  0  0  0  0  0  0  0  0
    6.0330   -2.6270   21.3350 C   0  0  0  0  0  0  0  0  0  0  0  0
   10.9270    6.7940   23.8450 O   0  0  0  0  0  0  0  0  0  0  0  0
    6.6510    0.1430   21.6330 C   0  0  1  0  0  0  0  0  0  0  0  0
    7.7780    1.1950   21.7150 C   0  0  0  0  0  0  0  0  0  0  0  0
   10.2080    1.8100   24.0160 C   0  0  0  0  0  0  0  0  0  0  0  0
   11.8550    6.6130   24.9160 C   0  0  0  0  0  0  0  0  0  0  0  0
   12.3180   -1.4230   23.1080 C   0  0  0  0  0  0  0  0  0  0  0  0
   12.6700   -0.1950   23.6410 C   0  0  0  0  0  0  0  0  0  0  0  0
   12.9180   -1.8820   21.9180 C   0  0  0  0  0  0  0  0  0  0  0  0
   12.6760   -2.3620   24.1410 C   0  0  0  0  0  0  0  0  0  0  0  0
    5.9890   -3.0600   24.8490 N   0  0  0  0  0  0  0  0  0  0  0  0
    7.0640   -3.5250   26.8580 O   0  0  0  0  0  0  0  0  0  0  0  0
    6.4850   -2.6990   26.1860 C   0  0  0  0  0  0  0  0  0  0  0  0
    6.6190   -1.9380   23.0600 C   0  0  0  0  0  0  0  0  0  0  0  0
    6.3350    0.5690   17.8640 N   0  0  0  0  0  0  0  0  0  0  0  0
    5.2220    1.3930   17.7320 C   0  0  0  0  0  0  0  0  0  0  0  0
    4.5340    1.8140   18.8710 C   0  0  0  0  0  0  0  0  0  0  0  0
    4.9200    1.4510   20.1430 C   0  0  0  0  0  0  0  0  0  0  0  0
    6.1390    0.5640   20.2860 C   0  0  0  0  0  0  0  0  0  0  0  0
    6.7670    0.1730   19.1330 C   0  0  0  0  0  0  0  0  0  0  0  0
    8.6230   -1.7030   23.6730 N   0  0  0  0  0  0  0  0  0  0  0  0
   10.0030   -1.7190   23.9930 O   0  0  0  0  0  0  0  0  0  0  0  0
   10.8130   -1.4380   22.9150 C   0  0  0  0  0  0  0  0  0  0  0  0
    9.8360   -1.2170   21.8050 C   0  0  0  0  0  0  0  0  0  0  0  0
    8.4820   -1.4070   22.3450 C   0  0  0  0  0  0  0  0  0  0  0  0
    9.6620    3.1650   23.6250 C   0  0  0  0  0  0  0  0  0  0  0  0
   10.5820    4.3510   23.9130 C   0  0  0  0  0  0  0  0  0  0  0  0
   10.0950    5.7540   23.5620 C   0  0  0  0  0  0  0  0  0  0  0  0
    8.8330    5.8820   22.9760 C   0  0  0  0  0  0  0  0  0  0  0  0
    7.9930    4.7890   22.7040 C   0  0  0  0  0  0  0  0  0  0  0  0
    8.3980    3.3390   23.0380 C   0  0  0  0  0  0  0  0  0  0  0  0
    6.0040   -5.0460   21.3350 N   0  0  0  0  0  0  0  0  0  0  0  0
    6.8540   -3.8490   21.3310 C   0  0  1  0  0  0  0  0  0  0  0  0
    7.2170   -3.3830   22.8610 C   0  0  2  0  0  0  0  0  0  0  0  0
    6.5600   -4.0240   23.9340 C   0  0  2  0  0  0  0  0  0  0  0  0
    5.4910   -4.8090   23.5180 C   0  0  0  0  0  0  0  0  0  0  0  0
    5.9030   -5.7470   22.5950 C   0  0  0  0  0  0  0  0  0  0  0  0
    6.9680   -0.9260   27.9410 C   0  0  0  0  0  0  0  0  0  0  0  0
    6.7760    0.3360   28.5060 C   0  0  0  0  0  0  0  0  0  0  0  0
    5.8960    1.2820   27.9690 C   0  0  0  0  0  0  0  0  0  0  0  0
    5.1830    0.9620   26.8260 C   0  0  0  0  0  0  0  0  0  0  0  0
    5.3290   -0.2850   26.2110 C   0  0  0  0  0  0  0  0  0  0  0  0
    6.2800   -1.3470   26.7740 C   0  0  0  0  0  0  0  0  0  0  0  0
  1  6  1  0
  3  6  2  0
  1  8  1  0
  4  9  1  0
  5  9  2  0
  8  9  1  6
  7 11  1  0
 12 13  1  0
 12 14  1  0
 12 15  1  0
 16 18  1  0
 17 18  2  0
  1 19  1  0
 20 21  2  0
 21 22  1  0
 22 23  2  0
  8 24  1  0
 23 24  1  0
 20 25  1  0
 24 25  2  0
 26 27  1  0
 12 28  1  0
 27 28  1  0
 28 29  2  0
  1 30  1  6
 26 30  2  0
 29 30  1  0
 10 31  1  0
 31 32  2  0
  7 33  1  0
 32 33  1  0
 33 34  2  0
 34 35  1  0
  4 36  1  0
 31 36  1  0
 35 36  2  0
 38  2  1  6
  6 38  1  0
 37 38  1  0
 39 19  1  6
 38 39  1  0
 40 16  1  1
 39 40  1  0
 40 41  1  0
 37 42  1  0
 41 42  1  0
 43 44  2  0
 44 45  1  0
 45 46  2  0
 46 47  1  0
 18 48  1  0
 43 48  1  0
 47 48  2  0
M  END
