x2694-x3124
     RDKit          3D

 34 36  0  0  0  0  0  0  0  0999 V2000
    7.0570   -1.4850   21.7720 N   0  0  0  0  0  0  0  0  0  0  0  0
    6.8670   -4.9050   20.6920 C   0  0  0  0  0  0  0  0  0  0  0  0
    4.8700   -3.0180   21.1790 O   0  0  0  0  0  0  0  0  0  0  0  0
    6.9760   -3.9490   21.8710 C   0  0  0  0  0  0  0  0  0  0  0  0
    7.5900    2.0400   22.7980 N   0  0  0  0  0  0  0  0  0  0  0  0
    8.7900    1.1940   21.0980 O   0  0  0  0  0  0  0  0  0  0  0  0
    6.1660   -2.7180   21.5610 C   0  0  0  0  0  0  0  0  0  0  0  0
   10.9570    6.6930   23.7350 O   0  0  0  0  0  0  0  0  0  0  0  0
    6.6940   -0.0130   21.6320 C   0  0  1  0  0  0  0  0  0  0  0  0
    7.7850    1.0840   21.8120 C   0  0  0  0  0  0  0  0  0  0  0  0
   10.3600    1.7310   23.9810 C   0  0  0  0  0  0  0  0  0  0  0  0
   11.8560    6.5480   24.8370 C   0  0  0  0  0  0  0  0  0  0  0  0
   12.2290   -1.3750   23.0200 C   0  0  0  0  0  0  0  0  0  0  0  0
   12.7700   -0.2110   23.5280 C   0  0  0  0  0  0  0  0  0  0  0  0
   12.6400   -1.7590   21.7230 C   0  0  0  0  0  0  0  0  0  0  0  0
   12.9130   -2.3610   23.7990 C   0  0  0  0  0  0  0  0  0  0  0  0
   12.3760   -2.5960   25.0310 C   0  0  0  0  0  0  0  0  0  0  0  0
    6.3650    0.4430   17.8070 N   0  0  0  0  0  0  0  0  0  0  0  0
    5.2260    1.2160   17.7890 C   0  0  0  0  0  0  0  0  0  0  0  0
    4.5710    1.5590   18.9540 C   0  0  0  0  0  0  0  0  0  0  0  0
    4.9620    1.1980   20.2260 C   0  0  0  0  0  0  0  0  0  0  0  0
    6.1070    0.4300   20.3390 C   0  0  0  0  0  0  0  0  0  0  0  0
    6.8260    0.0380   19.0470 C   0  0  0  0  0  0  0  0  0  0  0  0
    8.6040   -1.9190   23.8310 N   0  0  0  0  0  0  0  0  0  0  0  0
   10.0150   -1.8820   24.1460 O   0  0  0  0  0  0  0  0  0  0  0  0
   10.7780   -1.5260   23.0610 C   0  0  0  0  0  0  0  0  0  0  0  0
    9.7310   -1.3300   21.9940 C   0  0  0  0  0  0  0  0  0  0  0  0
    8.3570   -1.5830   22.4970 C   0  0  0  0  0  0  0  0  0  0  0  0
    9.8080    3.0920   23.6020 C   0  0  0  0  0  0  0  0  0  0  0  0
   10.5890    4.2410   23.8030 C   0  0  0  0  0  0  0  0  0  0  0  0
   10.1310    5.6450   23.4810 C   0  0  0  0  0  0  0  0  0  0  0  0
    8.7270    5.7050   22.8870 C   0  0  0  0  0  0  0  0  0  0  0  0
    7.9580    4.5430   22.6810 C   0  0  0  0  0  0  0  0  0  0  0  0
    8.3890    3.2290   22.9990 C   0  0  0  0  0  0  0  0  0  0  0  0
  2  4  1  0
  1  7  1  0
  3  7  2  0
  4  7  1  0
  1  9  1  0
  5 10  1  0
  6 10  2  0
  9 10  1  6
  8 12  1  0
 13 14  1  0
 13 15  1  0
 13 16  1  0
 16 17  1  0
 18 19  2  0
 19 20  1  0
 20 21  2  0
  9 22  1  0
 21 22  1  0
 18 23  1  0
 22 23  2  0
 24 25  1  0
 13 26  1  0
 25 26  1  0
 26 27  2  0
  1 28  1  0
 24 28  2  0
 27 28  1  0
 11 29  1  0
 29 30  2  0
  8 31  1  0
 30 31  1  0
 31 32  2  0
 32 33  1  0
  5 34  1  0
 29 34  1  0
 33 34  2  0
M  END
