x2694-x0540
     RDKit          3D

 45 48  0  0  0  0  0  0  0  0999 V2000
    7.0560   -1.5490   21.7560 N   0  0  0  0  0  0  0  0  0  0  0  0
    6.7710   -4.7890   20.3920 C   0  0  0  0  0  0  0  0  0  0  0  0
    4.8490   -3.0060   21.2060 O   0  0  0  0  0  0  0  0  0  0  0  0
    6.9200   -4.0350   21.7080 C   0  0  0  0  0  0  0  0  0  0  0  0
    7.6830    1.9440   22.8410 N   0  0  0  0  0  0  0  0  0  0  0  0
    8.7880    1.1770   21.0580 O   0  0  0  0  0  0  0  0  0  0  0  0
    6.1520   -2.7580   21.5330 C   0  0  0  0  0  0  0  0  0  0  0  0
   10.9130    6.6830   23.8290 O   0  0  0  0  0  0  0  0  0  0  0  0
    6.7270   -0.0810   21.6270 C   0  0  1  0  0  0  0  0  0  0  0  0
    7.8190    1.0250   21.8090 C   0  0  0  0  0  0  0  0  0  0  0  0
   10.2600    1.7470   24.0830 C   0  0  0  0  0  0  0  0  0  0  0  0
   11.8590    6.5460   24.8930 C   0  0  0  0  0  0  0  0  0  0  0  0
   12.2920   -1.4810   23.2300 C   0  0  0  0  0  0  0  0  0  0  0  0
   12.6200   -0.2160   23.6790 C   0  0  0  0  0  0  0  0  0  0  0  0
   12.8640   -1.9540   22.0300 C   0  0  0  0  0  0  0  0  0  0  0  0
   12.7170   -2.3580   24.2920 C   0  0  0  0  0  0  0  0  0  0  0  0
    2.9130    1.5070   24.4320 O   0  0  0  0  0  0  0  0  0  0  0  0
    2.9330    2.3880   23.5740 C   0  0  0  0  0  0  0  0  0  0  0  0
    4.0530    2.7750   22.8910 N   0  0  0  0  0  0  0  0  0  0  0  0
    4.9000    1.8300   22.3740 C   0  0  0  0  0  0  0  0  0  0  0  0
    4.2050    1.1200   21.4080 C   0  0  0  0  0  0  0  0  0  0  0  0
    1.7720    3.1800   23.1340 N   0  0  0  0  0  0  0  0  0  0  0  0
    6.3490    0.4960   17.7920 N   0  0  0  0  0  0  0  0  0  0  0  0
    5.1380    1.1090   17.8190 C   0  0  0  0  0  0  0  0  0  0  0  0
    4.3900    1.3370   18.9550 C   0  0  0  0  0  0  0  0  0  0  0  0
    4.9300    0.9000   20.3100 C   0  0  0  0  0  0  0  0  0  0  0  0
    6.1560    0.3020   20.3080 C   0  0  0  0  0  0  0  0  0  0  0  0
    6.8600    0.0960   18.9630 C   0  0  0  0  0  0  0  0  0  0  0  0
    8.5540   -1.8530   23.9540 N   0  0  0  0  0  0  0  0  0  0  0  0
    9.9320   -1.8170   24.2720 O   0  0  0  0  0  0  0  0  0  0  0  0
   10.7300   -1.5630   23.1060 C   0  0  0  0  0  0  0  0  0  0  0  0
    9.6750   -1.4510   22.0670 C   0  0  0  0  0  0  0  0  0  0  0  0
    8.3640   -1.6120   22.5010 C   0  0  0  0  0  0  0  0  0  0  0  0
    9.7030    3.0860   23.6580 C   0  0  0  0  0  0  0  0  0  0  0  0
   10.5480    4.3520   23.9060 C   0  0  0  0  0  0  0  0  0  0  0  0
   10.1020    5.6190   23.5570 C   0  0  0  0  0  0  0  0  0  0  0  0
    8.8480    5.7080   22.9500 C   0  0  0  0  0  0  0  0  0  0  0  0
    7.9880    4.4420   22.6860 C   0  0  0  0  0  0  0  0  0  0  0  0
    8.4360    3.1620   23.0500 C   0  0  0  0  0  0  0  0  0  0  0  0
    0.5030    4.7260   24.5570 C   0  0  0  0  0  0  0  0  0  0  0  0
   -0.7590    5.0020   25.0910 C   0  0  0  0  0  0  0  0  0  0  0  0
   -1.9000    4.5470   24.4270 C   0  0  0  0  0  0  0  0  0  0  0  0
   -1.7950    3.3440   23.7480 C   0  0  0  0  0  0  0  0  0  0  0  0
   -0.5510    2.9550   23.2500 C   0  0  0  0  0  0  0  0  0  0  0  0
    0.5870    3.3050   23.9710 C   0  0  0  0  0  0  0  0  0  0  0  0
  2  4  1  0
  1  7  1  0
  3  7  2  0
  4  7  1  0
  1  9  1  0
  5 10  1  0
  6 10  2  0
  9 10  1  6
  8 12  1  0
 13 14  1  0
 13 15  1  0
 13 16  1  0
 17 18  2  0
 18 19  1  0
 19 20  1  0
 20 21  1  0
 18 22  1  0
 23 24  2  0
 24 25  1  0
 21 26  1  0
 25 26  2  0
  9 27  1  0
 26 27  1  0
 23 28  1  0
 27 28  2  0
 29 30  1  0
 13 31  1  0
 30 31  1  0
 31 32  2  0
  1 33  1  0
 29 33  2  0
 32 33  1  0
 11 34  1  0
 34 35  2  0
  8 36  1  0
 35 36  1  0
 36 37  2  0
 37 38  1  0
  5 39  1  0
 34 39  1  0
 38 39  2  0
 40 41  1  0
 41 42  1  0
 42 43  1  0
 43 44  1  0
 22 45  1  0
 40 45  1  0
 44 45  1  0
M  END
