x2694-x0769
     RDKit          3D

 51 56  0  0  0  0  0  0  0  0999 V2000
    7.0630   -1.2670   21.8280 C   0  0  2  0  0  0  0  0  0  0  0  0
    6.6340   -3.8270   20.1090 C   0  0  0  0  0  0  0  0  0  0  0  0
    4.9040   -3.0340   20.9060 O   0  0  0  0  0  0  0  0  0  0  0  0
    6.3480   -2.3700   20.1390 C   0  0  0  0  0  0  0  0  0  0  0  0
    7.5920    2.1920   22.8960 N   0  0  0  0  0  0  0  0  0  0  0  0
    8.8470    1.3010   21.0180 O   0  0  0  0  0  0  0  0  0  0  0  0
    5.7920   -2.2430   21.4710 C   0  0  0  0  0  0  0  0  0  0  0  0
   11.0090    6.7990   23.8490 O   0  0  0  0  0  0  0  0  0  0  0  0
    6.7490    0.2530   21.7240 C   0  0  1  0  0  0  0  0  0  0  0  0
    7.7660    1.2300   21.8540 C   0  0  0  0  0  0  0  0  0  0  0  0
   10.1490    1.8880   24.0610 C   0  0  0  0  0  0  0  0  0  0  0  0
   11.8820    6.6310   24.9720 C   0  0  0  0  0  0  0  0  0  0  0  0
   12.3470   -1.4890   23.1770 C   0  0  0  0  0  0  0  0  0  0  0  0
   12.6400   -0.1690   23.5450 C   0  0  0  0  0  0  0  0  0  0  0  0
   12.8420   -1.9560   21.9430 C   0  0  0  0  0  0  0  0  0  0  0  0
   12.8080   -2.3810   24.0830 C   0  0  0  0  0  0  0  0  0  0  0  0
    5.8280   -5.1600   26.6920 O   0  0  0  0  0  0  0  0  0  0  0  0
    4.0480   -6.6170   25.5880 O   0  0  0  0  0  0  0  0  0  0  0  0
    5.6570   -2.4300   26.2020 F   0  0  0  0  0  0  0  0  0  0  0  0
    4.8700   -5.2460   25.6090 S   0  0  0  0  0  0  0  0  0  0  0  0
    6.4310   -1.9580   23.0100 C   0  0  0  0  0  0  0  0  0  0  0  0
    5.7250   -3.1230   22.5690 C   0  0  0  0  0  0  0  0  0  0  0  0
    6.3500    0.5780   17.7900 N   0  0  0  0  0  0  0  0  0  0  0  0
    5.2570    1.3570   17.7850 C   0  0  0  0  0  0  0  0  0  0  0  0
    4.5810    1.8120   18.9110 C   0  0  0  0  0  0  0  0  0  0  0  0
    5.0890    1.4300   20.3110 C   0  0  0  0  0  0  0  0  0  0  0  0
    6.2130    0.6360   20.3780 C   0  0  0  0  0  0  0  0  0  0  0  0
    6.8220    0.2190   19.0480 C   0  0  0  0  0  0  0  0  0  0  0  0
    8.6670   -1.8360   23.8830 N   0  0  0  0  0  0  0  0  0  0  0  0
   10.0420   -1.8770   24.2010 O   0  0  0  0  0  0  0  0  0  0  0  0
   10.7950   -1.5470   23.1130 C   0  0  0  0  0  0  0  0  0  0  0  0
    9.8090   -1.2870   22.0200 C   0  0  0  0  0  0  0  0  0  0  0  0
    8.5020   -1.4480   22.4640 C   0  0  0  0  0  0  0  0  0  0  0  0
    9.7270    3.2230   23.7050 C   0  0  0  0  0  0  0  0  0  0  0  0
   10.5890    4.4840   23.9240 C   0  0  0  0  0  0  0  0  0  0  0  0
   10.1640    5.7710   23.5870 C   0  0  0  0  0  0  0  0  0  0  0  0
    8.9030    5.9000   23.0110 C   0  0  0  0  0  0  0  0  0  0  0  0
    8.0570    4.6460   22.7890 C   0  0  0  0  0  0  0  0  0  0  0  0
    8.4450    3.3530   23.1240 C   0  0  0  0  0  0  0  0  0  0  0  0
    4.3410   -2.6290   26.0420 C   0  0  0  0  0  0  0  0  0  0  0  0
    3.7810   -3.8790   25.7580 C   0  0  0  0  0  0  0  0  0  0  0  0
    2.4020   -4.0450   25.6010 C   0  0  0  0  0  0  0  0  0  0  0  0
    1.5430   -2.9670   25.7240 C   0  0  0  0  0  0  0  0  0  0  0  0
    2.0290   -1.6900   26.0040 C   0  0  0  0  0  0  0  0  0  0  0  0
    3.3820   -1.4340   26.1750 C   0  0  0  0  0  0  0  0  0  0  0  0
    6.4590   -4.2860   21.6910 C   0  0  0  0  0  0  0  0  0  0  0  0
    5.6430   -5.4180   21.7240 C   0  0  0  0  0  0  0  0  0  0  0  0
    5.0270   -5.7740   22.9410 C   0  0  0  0  0  0  0  0  0  0  0  0
    5.6510   -5.0640   24.0960 N   0  0  0  0  0  0  0  0  0  0  0  0
    7.1320   -4.9000   24.0220 C   0  0  0  0  0  0  0  0  0  0  0  0
    7.6210   -4.7780   22.5610 C   0  0  0  0  0  0  0  0  0  0  0  0
  2  4  1  0
  1  7  1  0
  3  7  2  0
  4  7  1  0
  1  9  1  0
  5 10  1  0
  6 10  2  0
  9 10  1  6
  8 12  1  0
 13 14  1  0
 13 15  1  0
 13 16  1  0
 17 20  2  0
 18 20  2  0
  1 21  1  0
 21 22  1  0
 23 24  2  0
 24 25  1  0
 25 26  2  0
  9 27  1  0
 26 27  1  0
 23 28  1  0
 27 28  2  0
 29 30  1  0
 13 31  1  0
 30 31  1  0
 31 32  2  0
  1 33  1  6
 29 33  2  0
 32 33  1  0
 11 34  1  0
 34 35  2  0
  8 36  1  0
 35 36  1  0
 36 37  2  0
 37 38  1  0
  5 39  1  0
 34 39  1  0
 38 39  2  0
 19 40  1  0
 20 41  1  0
 40 41  2  0
 41 42  1  0
 42 43  2  0
 43 44  1  0
 40 45  1  0
 44 45  2  0
  2 46  1  0
 46 22  1  0
 46 47  1  0
 47 48  1  0
 20 49  1  0
 48 49  1  0
 49 50  1  0
 46 51  1  0
 50 51  1  0
M  END
