x2694-x0978
     RDKit          3D

 44 46  0  0  0  0  0  0  0  0999 V2000
    7.1310   -1.4090   21.6860 N   0  0  0  0  0  0  0  0  0  0  0  0
    6.8880   -4.7600   21.2450 C   0  0  0  0  0  0  0  0  0  0  0  0
    5.0310   -3.3280   21.2990 O   0  0  0  0  0  0  0  0  0  0  0  0
    6.8350   -3.4420   22.0750 C   0  0  0  0  0  0  0  0  0  0  0  0
    7.7110    2.1170   22.7550 N   0  0  0  0  0  0  0  0  0  0  0  0
    8.9440    1.2600   21.1000 O   0  0  0  0  0  0  0  0  0  0  0  0
    5.9490   -2.3390   21.4300 C   0  0  0  0  0  0  0  0  0  0  0  0
   10.9160    6.7580   23.8610 O   0  0  0  0  0  0  0  0  0  0  0  0
    6.8480    0.0730   21.6190 C   0  0  1  0  0  0  0  0  0  0  0  0
    7.9290    1.1590   21.7860 C   0  0  0  0  0  0  0  0  0  0  0  0
   10.2960    1.8390   23.9880 C   0  0  0  0  0  0  0  0  0  0  0  0
   11.8740    6.6360   24.9140 C   0  0  0  0  0  0  0  0  0  0  0  0
   12.1790   -1.5290   23.2820 C   0  0  0  0  0  0  0  0  0  0  0  0
   12.5190   -0.3310   23.8870 C   0  0  0  0  0  0  0  0  0  0  0  0
   12.7480   -1.8620   22.0310 C   0  0  0  0  0  0  0  0  0  0  0  0
   12.6400   -2.5060   24.2340 C   0  0  0  0  0  0  0  0  0  0  0  0
    2.4210   -5.5800   22.8760 N   0  0  0  0  0  0  0  0  0  0  0  0
    2.4470   -7.6680   24.3800 C   0  0  0  0  0  0  0  0  0  0  0  0
    4.6940   -7.6620   24.4000 O   0  0  0  0  0  0  0  0  0  0  0  0
    3.6270   -6.9250   24.1430 C   0  0  1  0  0  0  0  0  0  0  0  0
    5.5500   -5.4940   21.4030 N   0  0  0  0  0  0  0  0  0  0  0  0
    1.0430   -7.4760   21.9690 O   0  0  0  0  0  0  0  0  0  0  0  0
    3.6420   -6.2630   22.9070 C   0  0  2  0  0  0  0  0  0  0  0  0
    4.9440   -4.4630   23.3710 O   0  0  0  0  0  0  0  0  0  0  0  0
    1.1250   -6.2540   22.5700 C   0  0  0  0  0  0  0  0  0  0  0  0
    0.0210   -5.4940   22.9580 C   0  0  0  0  0  0  0  0  0  0  0  0
    4.7180   -5.3870   22.5970 C   0  0  0  0  0  0  0  0  0  0  0  0
    6.4090    0.4190   17.9000 N   0  0  0  0  0  0  0  0  0  0  0  0
    5.2400    1.2870   17.7520 C   0  0  0  0  0  0  0  0  0  0  0  0
    4.5540    1.7560   19.0180 C   0  0  0  0  0  0  0  0  0  0  0  0
    5.0450    1.3690   20.3490 C   0  0  0  0  0  0  0  0  0  0  0  0
    6.2510    0.4940   20.3580 C   0  0  0  0  0  0  0  0  0  0  0  0
    6.8310    0.0850   19.1440 C   0  0  0  0  0  0  0  0  0  0  0  0
    8.4780   -1.9070   23.8330 N   0  0  0  0  0  0  0  0  0  0  0  0
    9.8410   -1.9280   24.2470 O   0  0  0  0  0  0  0  0  0  0  0  0
   10.6560   -1.6130   23.2090 C   0  0  0  0  0  0  0  0  0  0  0  0
    9.6800   -1.3890   22.0750 C   0  0  0  0  0  0  0  0  0  0  0  0
    8.3600   -1.5780   22.5110 C   0  0  0  0  0  0  0  0  0  0  0  0
    9.7410    3.1820   23.6040 C   0  0  0  0  0  0  0  0  0  0  0  0
   10.6210    4.4090   23.9030 C   0  0  0  0  0  0  0  0  0  0  0  0
   10.1530    5.6520   23.5860 C   0  0  0  0  0  0  0  0  0  0  0  0
    8.7820    5.7610   22.9310 C   0  0  0  0  0  0  0  0  0  0  0  0
    8.0090    4.6140   22.6650 C   0  0  0  0  0  0  0  0  0  0  0  0
    8.4670    3.3120   22.9980 C   0  0  0  0  0  0  0  0  0  0  0  0
  2  4  1  0
  1  7  1  0
  3  7  2  0
  4  7  1  0
  1  9  1  0
  5 10  1  0
  6 10  2  0
  9 10  1  6
  8 12  1  0
 13 14  1  0
 13 15  1  0
 13 16  1  0
 20 18  1  6
 19 20  1  0
  2 21  1  0
 23 17  1  1
 20 23  1  0
 17 25  1  0
 22 25  2  0
 25 26  1  0
 21 27  1  0
 23 27  1  0
 24 27  2  0
 28 29  2  0
 29 30  1  0
 30 31  2  0
  9 32  1  0
 31 32  1  0
 28 33  1  0
 32 33  2  0
 34 35  1  0
 13 36  1  0
 35 36  1  0
 36 37  2  0
  1 38  1  0
 34 38  2  0
 37 38  1  0
 11 39  1  0
 39 40  2  0
  8 41  1  0
 40 41  1  0
 41 42  2  0
 42 43  1  0
  5 44  1  0
 39 44  1  0
 43 44  2  0
M  END
