x2694-x2600
     RDKit          3D

 34 36  0  0  0  0  0  0  0  0999 V2000
    7.0340   -1.4360   21.7810 N   0  0  0  0  0  0  0  0  0  0  0  0
    6.9310   -4.8860   20.6990 C   0  0  0  0  0  0  0  0  0  0  0  0
    4.8790   -3.0290   21.1910 O   0  0  0  0  0  0  0  0  0  0  0  0
    7.0370   -3.9080   21.8610 C   0  0  0  0  0  0  0  0  0  0  0  0
    7.6670    2.0160   22.8380 N   0  0  0  0  0  0  0  0  0  0  0  0
    8.7760    1.2500   21.0620 O   0  0  0  0  0  0  0  0  0  0  0  0
    6.1780   -2.6990   21.5640 C   0  0  0  0  0  0  0  0  0  0  0  0
   10.9970    6.6400   23.8090 O   0  0  0  0  0  0  0  0  0  0  0  0
    6.6910    0.0320   21.5710 C   0  0  1  0  0  0  0  0  0  0  0  0
    7.7940    1.1080   21.7980 C   0  0  0  0  0  0  0  0  0  0  0  0
   10.2700    1.8980   23.9450 C   0  0  0  0  0  0  0  0  0  0  0  0
   11.8550    6.4590   24.9380 C   0  0  0  0  0  0  0  0  0  0  0  0
   12.1390   -1.4590   23.3480 C   0  0  0  0  0  0  0  0  0  0  0  0
   12.4520   -0.3050   24.0400 C   0  0  0  0  0  0  0  0  0  0  0  0
   12.7810   -1.6950   22.1150 C   0  0  0  0  0  0  0  0  0  0  0  0
   12.5290   -2.5160   24.2440 C   0  0  0  0  0  0  0  0  0  0  0  0
   13.4270   -1.8560   20.9210 N   0  0  0  0  0  0  0  0  0  0  0  0
    6.3330    0.3780   17.8900 N   0  0  0  0  0  0  0  0  0  0  0  0
    5.1950    1.1460   17.8470 C   0  0  0  0  0  0  0  0  0  0  0  0
    4.4770    1.5700   18.9470 C   0  0  0  0  0  0  0  0  0  0  0  0
    5.0000    1.1700   20.1360 C   0  0  0  0  0  0  0  0  0  0  0  0
    6.1500    0.4020   20.2190 C   0  0  0  0  0  0  0  0  0  0  0  0
    6.8220   -0.0060   19.0590 C   0  0  0  0  0  0  0  0  0  0  0  0
    8.3900   -1.8510   23.8560 N   0  0  0  0  0  0  0  0  0  0  0  0
    9.7870   -1.8290   24.1850 O   0  0  0  0  0  0  0  0  0  0  0  0
   10.6270   -1.5200   23.1170 C   0  0  0  0  0  0  0  0  0  0  0  0
    9.7180   -1.3480   22.0930 C   0  0  0  0  0  0  0  0  0  0  0  0
    8.2870   -1.5500   22.5420 C   0  0  0  0  0  0  0  0  0  0  0  0
    9.7180    3.1220   23.5900 C   0  0  0  0  0  0  0  0  0  0  0  0
   10.5650    4.3540   23.8250 C   0  0  0  0  0  0  0  0  0  0  0  0
   10.1100    5.6320   23.5190 C   0  0  0  0  0  0  0  0  0  0  0  0
    8.7240    5.8000   22.9120 C   0  0  0  0  0  0  0  0  0  0  0  0
    7.9230    4.4990   22.6950 C   0  0  0  0  0  0  0  0  0  0  0  0
    8.4290    3.2300   23.0360 C   0  0  0  0  0  0  0  0  0  0  0  0
  2  4  1  0
  1  7  1  0
  3  7  2  0
  4  7  1  0
  1  9  1  0
  5 10  1  0
  6 10  2  0
  9 10  1  6
  8 12  1  0
 13 14  1  0
 13 15  1  0
 13 16  1  0
 15 17  3  0
 18 19  2  0
 19 20  1  0
 20 21  2  0
  9 22  1  0
 21 22  1  0
 18 23  1  0
 22 23  2  0
 24 25  1  0
 13 26  1  0
 25 26  1  0
 26 27  2  0
  1 28  1  0
 24 28  2  0
 27 28  1  0
 11 29  1  0
 29 30  2  0
  8 31  1  0
 30 31  1  0
 31 32  2  0
 32 33  1  0
  5 34  1  0
 29 34  1  0
 33 34  2  0
M  END
