x2694-x2608
     RDKit          3D

 35 37  0  0  0  0  0  0  0  0999 V2000
    6.0820   -1.0160   22.2820 N   0  0  0  0  0  0  0  0  0  0  0  0
    6.7840   -3.9440   20.0570 C   0  0  0  0  0  0  0  0  0  0  0  0
    4.7010   -2.9890   21.4700 O   0  0  0  0  0  0  0  0  0  0  0  0
    7.0810   -3.1330   21.3200 C   0  0  0  0  0  0  0  0  0  0  0  0
    7.5410    2.0460   23.0610 N   0  0  0  0  0  0  0  0  0  0  0  0
    8.2810    1.8190   21.0070 O   0  0  0  0  0  0  0  0  0  0  0  0
    5.8420   -2.3590   21.6990 C   0  0  0  0  0  0  0  0  0  0  0  0
   10.9850    6.6290   23.8240 O   0  0  0  0  0  0  0  0  0  0  0  0
    7.2810   -0.2160   21.8170 C   0  0  2  0  0  0  0  0  0  0  0  0
    7.6960    1.2630   21.9520 C   0  0  0  0  0  0  0  0  0  0  0  0
   10.0690    1.8980   24.1340 C   0  0  0  0  0  0  0  0  0  0  0  0
   11.8430    6.5020   24.9560 C   0  0  0  0  0  0  0  0  0  0  0  0
   12.1820   -1.5870   23.2510 C   0  0  0  0  0  0  0  0  0  0  0  0
   12.6170   -0.4500   23.9060 C   0  0  0  0  0  0  0  0  0  0  0  0
   12.8010   -2.0210   22.0510 C   0  0  0  0  0  0  0  0  0  0  0  0
   12.3830   -2.6020   24.2450 C   0  0  0  0  0  0  0  0  0  0  0  0
    6.5660   -0.0560   17.8750 N   0  0  0  0  0  0  0  0  0  0  0  0
    5.4780    0.9370   17.9270 C   0  0  0  0  0  0  0  0  0  0  0  0
    5.1310    1.4020   19.1670 C   0  0  0  0  0  0  0  0  0  0  0  0
    5.7410    0.9920   20.3270 C   0  0  0  0  0  0  0  0  0  0  0  0
    6.7900    0.0510   20.3840 C   0  0  0  0  0  0  0  0  0  0  0  0
    7.1880   -0.4630   19.1630 C   0  0  0  0  0  0  0  0  0  0  0  0
    8.4350   -1.7510   23.4850 N   0  0  0  0  0  0  0  0  0  0  0  0
    9.7840   -2.0410   23.7950 O   0  0  0  0  0  0  0  0  0  0  0  0
   10.7040   -1.3780   22.9810 C   0  0  0  0  0  0  0  0  0  0  0  0
    9.9460   -0.6270   22.0810 C   0  0  0  0  0  0  0  0  0  0  0  0
    8.4900   -0.8070   22.3640 C   0  0  0  0  0  0  0  0  0  0  0  0
    9.5930    3.1390   23.7530 C   0  0  0  0  0  0  0  0  0  0  0  0
   10.5170    4.3420   23.9480 C   0  0  0  0  0  0  0  0  0  0  0  0
   10.0750    5.6210   23.5880 C   0  0  0  0  0  0  0  0  0  0  0  0
    8.6900    5.7960   22.9950 C   0  0  0  0  0  0  0  0  0  0  0  0
    7.8500    4.5260   22.8320 C   0  0  0  0  0  0  0  0  0  0  0  0
    8.3100    3.2610   23.2080 C   0  0  0  0  0  0  0  0  0  0  0  0
   12.5020    1.9830   23.0610 C   0  0  0  0  0  0  0  0  0  0  0  0
   13.0620    0.5770   22.8700 C   0  0  0  0  0  0  0  0  0  0  0  0
  2  4  1  0
  1  7  1  0
  3  7  2  0
  4  7  1  0
  9  1  1  1
  5 10  1  0
  6 10  2  0
  9 10  1  0
  8 12  1  0
 13 14  1  0
 13 15  1  0
 13 16  1  0
 17 18  2  0
 18 19  1  0
 19 20  2  0
  9 21  1  0
 20 21  1  0
 17 22  1  0
 21 22  2  0
 23 24  1  0
 13 25  1  0
 24 25  1  0
 25 26  2  0
  9 27  1  0
 23 27  2  0
 26 27  1  0
 11 28  1  0
 28 29  2  0
  8 30  1  0
 29 30  1  0
 30 31  2  0
 31 32  1  0
  5 33  1  0
 28 33  1  0
 32 33  2  0
 14 35  1  0
 34 35  1  0
M  END
