x2694-x0755
     RDKit          3D

 52 57  0  0  0  0  0  0  0  0999 V2000
    7.0830   -1.2740   21.8170 C   0  0  2  0  0  0  0  0  0  0  0  0
    6.6560   -3.8310   20.1110 C   0  0  0  0  0  0  0  0  0  0  0  0
    4.9080   -3.0420   20.9100 O   0  0  0  0  0  0  0  0  0  0  0  0
    6.3750   -2.3720   20.1420 C   0  0  0  0  0  0  0  0  0  0  0  0
    7.5900    2.1930   22.8870 N   0  0  0  0  0  0  0  0  0  0  0  0
    8.8490    1.3010   21.0140 O   0  0  0  0  0  0  0  0  0  0  0  0
    5.8070   -2.2460   21.4720 C   0  0  0  0  0  0  0  0  0  0  0  0
   11.0070    6.7970   23.8630 O   0  0  0  0  0  0  0  0  0  0  0  0
    6.7540    0.2470   21.7250 C   0  0  1  0  0  0  0  0  0  0  0  0
    7.7670    1.2300   21.8510 C   0  0  0  0  0  0  0  0  0  0  0  0
   10.1400    1.8870   24.0710 C   0  0  0  0  0  0  0  0  0  0  0  0
   11.8790    6.6250   24.9820 C   0  0  0  0  0  0  0  0  0  0  0  0
   12.3560   -1.4870   23.1870 C   0  0  0  0  0  0  0  0  0  0  0  0
   12.6570   -0.1720   23.5570 C   0  0  0  0  0  0  0  0  0  0  0  0
   12.8510   -1.9560   21.9540 C   0  0  0  0  0  0  0  0  0  0  0  0
   12.8090   -2.3840   24.0900 C   0  0  0  0  0  0  0  0  0  0  0  0
    4.4570   -6.3490   25.9900 O   0  0  0  0  0  0  0  0  0  0  0  0
    6.2330   -4.6980   26.7660 O   0  0  0  0  0  0  0  0  0  0  0  0
    2.1390   -5.5120   25.5360 F   0  0  0  0  0  0  0  0  0  0  0  0
    5.4780   -2.0960   26.0710 F   0  0  0  0  0  0  0  0  0  0  0  0
    5.0890   -5.0690   25.7260 S   0  0  0  0  0  0  0  0  0  0  0  0
    6.4960   -1.9820   23.0100 C   0  0  0  0  0  0  0  0  0  0  0  0
    5.7570   -3.1240   22.5770 C   0  0  0  0  0  0  0  0  0  0  0  0
    6.3420    0.5890   17.7920 N   0  0  0  0  0  0  0  0  0  0  0  0
    5.2490    1.3630   17.7910 C   0  0  0  0  0  0  0  0  0  0  0  0
    4.5720    1.8130   18.9200 C   0  0  0  0  0  0  0  0  0  0  0  0
    5.0830    1.4270   20.3190 C   0  0  0  0  0  0  0  0  0  0  0  0
    6.2110    0.6350   20.3820 C   0  0  0  0  0  0  0  0  0  0  0  0
    6.8170    0.2270   19.0470 C   0  0  0  0  0  0  0  0  0  0  0  0
    8.6730   -1.7880   23.8880 N   0  0  0  0  0  0  0  0  0  0  0  0
   10.0460   -1.8270   24.2100 O   0  0  0  0  0  0  0  0  0  0  0  0
   10.8060   -1.5360   23.1180 C   0  0  0  0  0  0  0  0  0  0  0  0
    9.8250   -1.3020   22.0150 C   0  0  0  0  0  0  0  0  0  0  0  0
    8.5200   -1.4410   22.4570 C   0  0  0  0  0  0  0  0  0  0  0  0
    9.7220    3.2200   23.7120 C   0  0  0  0  0  0  0  0  0  0  0  0
   10.5860    4.4830   23.9390 C   0  0  0  0  0  0  0  0  0  0  0  0
   10.1640    5.7670   23.5980 C   0  0  0  0  0  0  0  0  0  0  0  0
    8.9080    5.9010   23.0120 C   0  0  0  0  0  0  0  0  0  0  0  0
    8.0610    4.6450   22.7850 C   0  0  0  0  0  0  0  0  0  0  0  0
    8.4470    3.3560   23.1230 C   0  0  0  0  0  0  0  0  0  0  0  0
    2.5140   -4.2340   25.6900 C   0  0  0  0  0  0  0  0  0  0  0  0
    3.8490   -3.8330   25.7970 C   0  0  0  0  0  0  0  0  0  0  0  0
    4.2020   -2.4900   25.9610 C   0  0  0  0  0  0  0  0  0  0  0  0
    3.2290   -1.5130   26.0200 C   0  0  0  0  0  0  0  0  0  0  0  0
    1.8780   -1.8290   25.9220 C   0  0  0  0  0  0  0  0  0  0  0  0
    1.4380   -3.1360   25.7570 C   0  0  0  0  0  0  0  0  0  0  0  0
    6.4380   -4.3050   21.6820 C   0  0  0  0  0  0  0  0  0  0  0  0
    7.4760   -4.6960   22.4780 C   0  0  0  0  0  0  0  0  0  0  0  0
    7.1610   -4.8370   23.8540 C   0  0  0  0  0  0  0  0  0  0  0  0
    5.6870   -5.0410   24.1160 N   0  0  0  0  0  0  0  0  0  0  0  0
    4.9660   -5.8470   23.1060 C   0  0  0  0  0  0  0  0  0  0  0  0
    5.6000   -5.6080   21.7310 C   0  0  0  0  0  0  0  0  0  0  0  0
  2  4  1  0
  1  7  1  0
  3  7  2  0
  4  7  1  0
  1  9  1  0
  5 10  1  0
  6 10  2  0
  9 10  1  6
  8 12  1  0
 13 14  1  0
 13 15  1  0
 13 16  1  0
 17 21  2  0
 18 21  2  0
  1 22  1  0
 22 23  1  0
 24 25  2  0
 25 26  1  0
 26 27  2  0
  9 28  1  0
 27 28  1  0
 24 29  1  0
 28 29  2  0
 30 31  1  0
 13 32  1  0
 31 32  1  0
 32 33  2  0
  1 34  1  6
 30 34  2  0
 33 34  1  0
 11 35  1  0
 35 36  2  0
  8 37  1  0
 36 37  1  0
 37 38  2  0
 38 39  1  0
  5 40  1  0
 35 40  1  0
 39 40  2  0
 19 41  1  0
 21 42  1  0
 41 42  2  0
 20 43  1  0
 42 43  1  0
 43 44  2  0
 44 45  1  0
 41 46  1  0
 45 46  2  0
  2 47  1  0
 47 23  1  0
 47 48  1  0
 48 49  1  0
 21 50  1  0
 49 50  1  0
 50 51  1  0
 47 52  1  0
 51 52  1  0
M  END
