x2694-x2572
     RDKit          3D

 35 37  0  0  0  0  0  0  0  0999 V2000
    7.0410   -1.4890   21.7350 N   0  0  0  0  0  0  0  0  0  0  0  0
    6.7760   -4.7400   20.3830 C   0  0  0  0  0  0  0  0  0  0  0  0
    4.8330   -2.9750   21.1820 O   0  0  0  0  0  0  0  0  0  0  0  0
    6.9000   -3.9680   21.6950 C   0  0  0  0  0  0  0  0  0  0  0  0
    7.5800    2.0350   22.7850 N   0  0  0  0  0  0  0  0  0  0  0  0
    8.8070    1.1970   21.0980 O   0  0  0  0  0  0  0  0  0  0  0  0
    6.1280   -2.7040   21.5070 C   0  0  0  0  0  0  0  0  0  0  0  0
   10.9420    6.7050   23.7850 O   0  0  0  0  0  0  0  0  0  0  0  0
    6.7030   -0.0130   21.5980 C   0  0  1  0  0  0  0  0  0  0  0  0
    7.7920    1.0850   21.7960 C   0  0  0  0  0  0  0  0  0  0  0  0
   10.3680    1.7190   23.9530 C   0  0  0  0  0  0  0  0  0  0  0  0
   11.8680    6.5460   24.8640 C   0  0  0  0  0  0  0  0  0  0  0  0
   12.0940   -1.4190   23.3490 C   0  0  0  0  0  0  0  0  0  0  0  0
   12.5980   -0.2780   23.9310 C   0  0  0  0  0  0  0  0  0  0  0  0
   12.6930   -1.7880   22.1240 C   0  0  0  0  0  0  0  0  0  0  0  0
   12.5260   -2.4130   24.3000 C   0  0  0  0  0  0  0  0  0  0  0  0
    4.2170    1.7570   21.2470 C   0  0  0  0  0  0  0  0  0  0  0  0
   13.3360   -2.0900   20.9530 N   0  0  0  0  0  0  0  0  0  0  0  0
    6.3510    0.4140   17.7720 N   0  0  0  0  0  0  0  0  0  0  0  0
    5.2310    1.2260   17.7780 C   0  0  0  0  0  0  0  0  0  0  0  0
    4.5990    1.6080   18.9460 C   0  0  0  0  0  0  0  0  0  0  0  0
    5.0240    1.2290   20.2010 C   0  0  0  0  0  0  0  0  0  0  0  0
    6.1300    0.4310   20.3080 C   0  0  0  0  0  0  0  0  0  0  0  0
    6.7790    0.0340   18.9870 C   0  0  0  0  0  0  0  0  0  0  0  0
    8.4450   -1.9030   23.8190 N   0  0  0  0  0  0  0  0  0  0  0  0
    9.8230   -1.8760   24.2360 O   0  0  0  0  0  0  0  0  0  0  0  0
   10.6650   -1.5360   23.2130 C   0  0  0  0  0  0  0  0  0  0  0  0
    9.7110   -1.3400   22.0640 C   0  0  0  0  0  0  0  0  0  0  0  0
    8.3080   -1.5810   22.4920 C   0  0  0  0  0  0  0  0  0  0  0  0
    9.7940    3.0780   23.5950 C   0  0  0  0  0  0  0  0  0  0  0  0
   10.5340    4.2460   23.8000 C   0  0  0  0  0  0  0  0  0  0  0  0
   10.1120    5.6630   23.5160 C   0  0  0  0  0  0  0  0  0  0  0  0
    8.7070    5.7210   22.9240 C   0  0  0  0  0  0  0  0  0  0  0  0
    7.9380    4.5490   22.7000 C   0  0  0  0  0  0  0  0  0  0  0  0
    8.3760    3.2250   22.9990 C   0  0  0  0  0  0  0  0  0  0  0  0
  2  4  1  0
  1  7  1  0
  3  7  2  0
  4  7  1  0
  1  9  1  0
  5 10  1  0
  6 10  2  0
  9 10  1  6
  8 12  1  0
 13 14  1  0
 13 15  1  0
 13 16  1  0
 15 18  3  0
 19 20  2  0
 20 21  1  0
 17 22  1  0
 21 22  2  0
  9 23  1  0
 22 23  1  0
 19 24  1  0
 23 24  2  0
 25 26  1  0
 13 27  1  0
 26 27  1  0
 27 28  2  0
  1 29  1  0
 25 29  2  0
 28 29  1  0
 11 30  1  0
 30 31  2  0
  8 32  1  0
 31 32  1  0
 32 33  2  0
 33 34  1  0
  5 35  1  0
 30 35  1  0
 34 35  2  0
M  END
