x2694-x2912
     RDKit          3D

 35 37  0  0  0  0  0  0  0  0999 V2000
    6.2980   -1.0820   22.3960 N   0  0  0  0  0  0  0  0  0  0  0  0
    6.6030   -3.8270   20.1230 C   0  0  0  0  0  0  0  0  0  0  0  0
    4.9530   -3.1600   21.1370 O   0  0  0  0  0  0  0  0  0  0  0  0
    6.7830   -2.8180   21.3090 C   0  0  0  0  0  0  0  0  0  0  0  0
    7.5340    2.0490   22.9530 N   0  0  0  0  0  0  0  0  0  0  0  0
    8.5780    1.7200   21.0450 O   0  0  0  0  0  0  0  0  0  0  0  0
    5.4600   -2.1360   21.7580 C   0  0  0  0  0  0  0  0  0  0  0  0
   10.9170    6.7380   23.7910 O   0  0  0  0  0  0  0  0  0  0  0  0
    7.3320   -0.2310   21.7240 C   0  0  2  0  0  0  0  0  0  0  0  0
    7.8250    1.2240   21.9000 C   0  0  0  0  0  0  0  0  0  0  0  0
   10.3590    1.7750   24.0170 C   0  0  0  0  0  0  0  0  0  0  0  0
   11.8560    6.5730   24.8570 C   0  0  0  0  0  0  0  0  0  0  0  0
   12.2590   -1.4160   23.2750 C   0  0  0  0  0  0  0  0  0  0  0  0
   12.7750   -0.3110   23.9120 C   0  0  0  0  0  0  0  0  0  0  0  0
   12.8410   -1.7450   22.0460 C   0  0  0  0  0  0  0  0  0  0  0  0
   12.6120   -2.4680   24.1940 C   0  0  0  0  0  0  0  0  0  0  0  0
   13.4270   -1.9870   20.8440 N   0  0  0  0  0  0  0  0  0  0  0  0
    4.9240    1.5280   21.4440 C   0  0  0  0  0  0  0  0  0  0  0  0
    6.5480   -0.0180   17.8440 N   0  0  0  0  0  0  0  0  0  0  0  0
    5.4520    0.8160   17.9260 C   0  0  0  0  0  0  0  0  0  0  0  0
    4.9990    1.2630   19.1380 C   0  0  0  0  0  0  0  0  0  0  0  0
    5.6010    0.9200   20.3360 C   0  0  0  0  0  0  0  0  0  0  0  0
    6.7250    0.0830   20.3730 C   0  0  0  0  0  0  0  0  0  0  0  0
    7.1570   -0.3740   18.9970 C   0  0  0  0  0  0  0  0  0  0  0  0
    8.6140   -1.9660   23.2040 N   0  0  0  0  0  0  0  0  0  0  0  0
    9.9480   -2.2770   23.6390 O   0  0  0  0  0  0  0  0  0  0  0  0
   10.8520   -1.4310   23.0580 C   0  0  0  0  0  0  0  0  0  0  0  0
   10.0000   -0.5520   22.1980 C   0  0  0  0  0  0  0  0  0  0  0  0
    8.5970   -0.9040   22.3270 C   0  0  0  0  0  0  0  0  0  0  0  0
    9.7640    3.1230   23.6730 C   0  0  0  0  0  0  0  0  0  0  0  0
   10.5040    4.2910   23.8360 C   0  0  0  0  0  0  0  0  0  0  0  0
   10.0730    5.7010   23.5600 C   0  0  0  0  0  0  0  0  0  0  0  0
    8.6410    5.7500   23.0230 C   0  0  0  0  0  0  0  0  0  0  0  0
    7.8680    4.5750   22.8410 C   0  0  0  0  0  0  0  0  0  0  0  0
    8.3190    3.2540   23.1320 C   0  0  0  0  0  0  0  0  0  0  0  0
  2  4  1  0
  1  7  1  0
  3  7  2  0
  4  7  1  0
  9  1  1  1
  5 10  1  0
  6 10  2  0
  9 10  1  0
  8 12  1  0
 13 14  1  0
 13 15  1  0
 13 16  1  0
 15 17  3  0
 19 20  2  0
 20 21  1  0
 18 22  1  0
 21 22  2  0
  9 23  1  0
 22 23  1  0
 19 24  1  0
 23 24  2  0
 25 26  1  0
 13 27  1  0
 26 27  1  0
 27 28  2  0
  9 29  1  0
 25 29  2  0
 28 29  1  0
 11 30  1  0
 30 31  2  0
  8 32  1  0
 31 32  1  0
 32 33  2  0
 33 34  1  0
  5 35  1  0
 30 35  1  0
 34 35  2  0
M  END
