x2703-x1402
     RDKit          3D

 50 55  0  0  0  0  0  0  0  0999 V2000
    6.6900   -1.4910   22.0580 C   0  0  1  0  0  0  0  0  0  0  0  0
    6.5850   -4.1230   20.0490 C   0  0  0  0  0  0  0  0  0  0  0  0
    4.6510   -3.0280   21.5880 O   0  0  0  0  0  0  0  0  0  0  0  0
    6.1230   -2.7200   19.8820 C   0  0  0  0  0  0  0  0  0  0  0  0
    7.5130    2.0100   23.0610 N   0  0  0  0  0  0  0  0  0  0  0  0
    8.5020    1.0870   20.9260 O   0  0  0  0  0  0  0  0  0  0  0  0
    5.7280   -2.4480   21.2350 C   0  0  0  0  0  0  0  0  0  0  0  0
    6.4170   -0.0140   21.8330 C   0  0  1  0  0  0  0  0  0  0  0  0
    7.5250    1.0530   21.9800 C   0  0  0  0  0  0  0  0  0  0  0  0
   10.0830    1.9940   24.1110 C   0  0  0  0  0  0  0  0  0  0  0  0
    9.1450    1.3040   25.1230 C   0  0  0  0  0  0  0  0  0  0  0  0
    6.1250    4.3110   21.9640 C   0  0  0  0  0  0  0  0  0  0  0  0
   12.4410   -1.9730   23.6590 C   0  0  0  0  0  0  0  0  0  0  0  0
   12.7710   -2.6770   24.8170 C   0  0  0  0  0  0  0  0  0  0  0  0
   12.7990   -1.1100   24.8280 C   0  0  0  0  0  0  0  0  0  0  0  0
    0.7140   -1.6130   26.0920 Cl  0  0  0  0  0  0  0  0  0  0  0  0
    4.2860   -6.3510   25.8270 O   0  0  0  0  0  0  0  0  0  0  0  0
    6.4040   -5.2080   26.6050 O   0  0  0  0  0  0  0  0  0  0  0  0
    5.2890   -5.3160   25.6910 S   0  0  0  0  0  0  0  0  0  0  0  0
    5.9510   -2.3680   23.1000 C   0  0  0  0  0  0  0  0  0  0  0  0
    5.4630   -3.4620   22.3330 C   0  0  0  0  0  0  0  0  0  0  0  0
    6.3990    0.4050   18.1020 N   0  0  0  0  0  0  0  0  0  0  0  0
    5.1720    1.0970   17.7920 C   0  0  0  0  0  0  0  0  0  0  0  0
    4.3070    1.4130   18.8120 C   0  0  0  0  0  0  0  0  0  0  0  0
    4.6780    1.0590   20.0930 C   0  0  0  0  0  0  0  0  0  0  0  0
    5.9240    0.3670   20.4840 C   0  0  0  0  0  0  0  0  0  0  0  0
    6.7150    0.0730   19.4380 C   0  0  0  0  0  0  0  0  0  0  0  0
   10.5940   -2.1780   21.9800 N   0  0  0  0  0  0  0  0  0  0  0  0
   10.9740   -1.8590   23.2880 C   0  0  0  0  0  0  0  0  0  0  0  0
    9.9190   -1.4470   24.1360 C   0  0  0  0  0  0  0  0  0  0  0  0
    8.5840   -1.3540   23.7260 C   0  0  0  0  0  0  0  0  0  0  0  0
    8.2260   -1.6620   22.4250 C   0  0  0  0  0  0  0  0  0  0  0  0
    9.2820   -2.0620   21.6280 C   0  0  0  0  0  0  0  0  0  0  0  0
    9.5060    3.2890   23.6050 C   0  0  0  0  0  0  0  0  0  0  0  0
   10.3200    4.5930   23.6660 C   0  0  0  0  0  0  0  0  0  0  0  0
    9.6370    5.8790   23.1080 C   0  0  0  0  0  0  0  0  0  0  0  0
    8.2190    5.8230   22.5260 C   0  0  0  0  0  0  0  0  0  0  0  0
    7.5360    4.4300   22.5390 C   0  0  0  0  0  0  0  0  0  0  0  0
    8.1280    3.2760   23.0390 C   0  0  0  0  0  0  0  0  0  0  0  0
    6.4410   -4.5090   21.6150 C   0  0  0  0  0  0  0  0  0  0  0  0
    7.5650   -4.6770   22.4300 C   0  0  0  0  0  0  0  0  0  0  0  0
    7.2990   -4.9190   23.8120 C   0  0  0  0  0  0  0  0  0  0  0  0
    5.8590   -5.2870   24.0940 N   0  0  0  0  0  0  0  0  0  0  0  0
    5.1560   -6.1160   23.1010 C   0  0  0  0  0  0  0  0  0  0  0  0
    5.7760   -5.8960   21.7330 C   0  0  0  0  0  0  0  0  0  0  0  0
    2.6080   -3.8990   25.8320 S   0  0  0  0  0  0  0  0  0  0  0  0
    4.3430   -3.8070   25.8490 C   0  0  0  0  0  0  0  0  0  0  0  0
    4.7670   -2.3650   26.0060 C   0  0  0  0  0  0  0  0  0  0  0  0
    3.6140   -1.4170   26.1070 C   0  0  0  0  0  0  0  0  0  0  0  0
    2.3170   -2.2170   26.0200 C   0  0  0  0  0  0  0  0  0  0  0  0
  2  4  1  0
  1  7  1  0
  3  7  2  0
  4  7  1  0
  1  8  1  0
  5  9  1  0
  6  9  2  0
  8  9  1  6
 10 11  1  0
 13 14  1  0
 13 15  1  0
 17 19  2  0
 18 19  2  0
  1 20  1  0
 20 21  1  0
 22 23  2  0
 23 24  1  0
 24 25  2  0
  8 26  1  0
 25 26  1  0
 22 27  1  0
 26 27  2  0
 13 29  1  0
 28 29  2  0
 29 30  1  0
 30 31  2  0
  1 32  1  6
 31 32  1  0
 28 33  1  0
 32 33  2  0
 10 34  1  0
 34 35  2  0
 35 36  1  0
 36 37  2  0
 12 38  1  0
 37 38  1  0
  5 39  1  0
 34 39  1  0
 38 39  2  0
  2 40  1  0
 40 21  1  0
 40 41  1  0
 41 42  1  0
 19 43  1  0
 42 43  1  0
 43 44  1  0
 40 45  1  0
 44 45  1  0
 19 47  1  0
 46 47  1  0
 47 48  2  0
 48 49  1  0
 16 50  1  0
 46 50  1  0
 49 50  2  0
M  END
