x2703-x3124-x2776-x0734
     RDKit          3D

 50 55  0  0  0  0  0  0  0  0999 V2000
    6.9470   -1.6040   21.4250 C   0  0  1  0  0  0  0  0  0  0  0  0
    5.7200   -2.9830   19.3560 O   0  0  0  0  0  0  0  0  0  0  0  0
    7.6080    1.9000   22.9340 N   0  0  0  0  0  0  0  0  0  0  0  0
    8.7460    1.2890   20.9550 O   0  0  0  0  0  0  0  0  0  0  0  0
    6.5490   -2.7970   20.3690 C   0  0  0  0  0  0  0  0  0  0  0  0
   10.7400    6.6020   23.6510 O   0  0  0  0  0  0  0  0  0  0  0  0
    6.5970   -0.0760   21.3260 C   0  0  1  0  0  0  0  0  0  0  0  0
   12.3650   -2.7830   24.7950 O   0  0  0  0  0  0  0  0  0  0  0  0
    7.6300    1.0220   21.7890 C   0  0  0  0  0  0  0  0  0  0  0  0
   10.1160    1.6630   24.0640 C   0  0  0  0  0  0  0  0  0  0  0  0
   11.6650    6.6140   24.4810 C   0  0  0  0  0  0  0  0  0  0  0  0
   12.1590   -1.4860   24.3760 C   0  0  1  0  0  0  0  0  0  0  0  0
   13.2240   -0.9560   23.3860 C   0  0  0  0  0  0  0  0  0  0  0  0
   13.6070   -2.9360   25.3500 C   0  0  0  0  0  0  0  0  0  0  0  0
    9.1820    1.1370   25.1300 C   0  0  0  0  0  0  0  0  0  0  0  0
    6.5850    4.6300   22.0260 C   0  0  0  0  0  0  0  0  0  0  0  0
    4.9710   -4.6930   26.0620 N   0  0  0  0  0  0  0  0  0  0  0  0
    4.1530   -5.4780   25.5640 O   0  0  0  0  0  0  0  0  0  0  0  0
    4.6870   -3.7230   26.7730 O   0  0  0  0  0  0  0  0  0  0  0  0
    6.2930   -2.3450   22.5830 C   0  0  0  0  0  0  0  0  0  0  0  0
    6.3650    0.7170   17.6500 N   0  0  0  0  0  0  0  0  0  0  0  0
    5.2030    1.5620   17.6100 C   0  0  0  0  0  0  0  0  0  0  0  0
    4.5050    1.8440   18.7470 C   0  0  0  0  0  0  0  0  0  0  0  0
    4.9650    1.2770   20.0450 C   0  0  0  0  0  0  0  0  0  0  0  0
    6.0810    0.4880   20.0480 C   0  0  0  0  0  0  0  0  0  0  0  0
    6.7340    0.2330   18.8510 C   0  0  0  0  0  0  0  0  0  0  0  0
    9.6130    3.0230   23.6320 C   0  0  0  0  0  0  0  0  0  0  0  0
   10.4700    4.1050   23.8560 C   0  0  0  0  0  0  0  0  0  0  0  0
   10.0280    5.3650   23.4870 C   0  0  0  0  0  0  0  0  0  0  0  0
    8.7730    5.5270   22.8920 C   0  0  0  0  0  0  0  0  0  0  0  0
    7.9340    4.4100   22.6710 C   0  0  0  0  0  0  0  0  0  0  0  0
    8.3750    3.1160   23.0690 C   0  0  0  0  0  0  0  0  0  0  0  0
    9.5370   -2.0290   21.7400 C   0  0  0  0  0  0  0  0  0  0  0  0
   10.7540   -1.9980   22.4370 C   0  0  0  0  0  0  0  0  0  0  0  0
   10.8230   -1.4850   23.7190 C   0  0  0  0  0  0  0  0  0  0  0  0
    9.5700   -0.9440   24.4110 C   0  0  0  0  0  0  0  0  0  0  0  0
    8.2560   -0.9850   23.6180 C   0  0  0  0  0  0  0  0  0  0  0  0
    8.3080   -1.5660   22.2120 C   0  0  0  0  0  0  0  0  0  0  0  0
    6.3190   -5.1060   26.0210 C   0  0  0  0  0  0  0  0  0  0  0  0
    7.1060   -5.0360   24.7230 C   0  0  0  0  0  0  0  0  0  0  0  0
    8.5890   -5.5310   24.8120 C   0  0  0  0  0  0  0  0  0  0  0  0
    9.2460   -6.0690   26.1070 C   0  0  0  0  0  0  0  0  0  0  0  0
    8.2900   -6.0680   27.3750 C   0  0  0  0  0  0  0  0  0  0  0  0
    6.8490   -5.5710   27.2410 C   0  0  0  0  0  0  0  0  0  0  0  0
    7.3780   -3.9750   20.5800 C   0  0  2  0  0  0  0  0  0  0  0  0
    6.2810   -5.0160   21.1130 C   0  0  0  0  0  0  0  0  0  0  0  0
    6.4610   -5.6200   22.4130 C   0  0  0  0  0  0  0  0  0  0  0  0
    6.6730   -4.5820   23.4560 N   0  0  0  0  0  0  0  0  0  0  0  0
    7.3650   -3.3980   22.9930 C   0  0  1  0  0  0  0  0  0  0  0  0
    8.1350   -3.8360   21.8940 C   0  0  0  0  0  0  0  0  0  0  0  0
  1  5  1  0
  2  5  2  0
  1  7  1  0
  3  9  1  0
  4  9  2  0
  7  9  1  6
  6 11  1  0
  8 12  1  0
 12 13  1  6
  8 14  1  0
 10 15  1  0
 17 18  2  0
 17 19  1  0
  1 20  1  0
 21 22  2  0
 22 23  1  0
 23 24  2  0
  7 25  1  0
 24 25  1  0
 21 26  1  0
 25 26  2  0
 10 27  1  0
 27 28  2  0
  6 29  1  0
 28 29  1  0
 29 30  2  0
 16 31  1  0
 30 31  1  0
  3 32  1  0
 27 32  1  0
 31 32  2  0
 33 34  2  0
 12 35  1  0
 34 35  1  0
 35 36  2  0
 36 37  1  0
  1 38  1  1
 33 38  1  0
 37 38  2  0
 17 39  1  0
 39 40  2  0
 40 41  1  0
 41 42  2  0
 42 43  1  0
 39 44  1  0
 43 44  2  0
 45  5  1  0
 45 46  1  1
 46 47  1  0
 40 48  1  0
 47 48  1  0
 49 20  1  6
 48 49  1  0
 45 50  1  0
 49 50  1  0
M  CHG  2  17   1  19  -1
M  END
