x2703-x0731-x0771
     RDKit          3D

 55 62  0  0  0  0  0  0  0  0999 V2000
    6.8760   -1.6500   22.2000 C   0  0  1  0  0  0  0  0  0  0  0  0
    6.8180   -4.5260   20.0680 C   0  0  0  0  0  0  0  0  0  0  0  0
    4.9050   -3.1050   21.1860 O   0  0  0  0  0  0  0  0  0  0  0  0
    7.0980   -4.0330   21.4590 C   0  0  1  0  0  0  0  0  0  0  0  0
    7.3480    1.9270   22.8150 N   0  0  0  0  0  0  0  0  0  0  0  0
    8.7930    0.8570   21.3990 O   0  0  0  0  0  0  0  0  0  0  0  0
    6.1490   -2.9030   21.5630 C   0  0  0  0  0  0  0  0  0  0  0  0
    6.5790   -0.1380   21.7240 C   0  0  1  0  0  0  0  0  0  0  0  0
    7.6980    0.8970   21.9450 C   0  0  0  0  0  0  0  0  0  0  0  0
   10.0950    1.9250   23.9520 C   0  0  0  0  0  0  0  0  0  0  0  0
    9.1690    1.1110   24.8380 C   0  0  0  0  0  0  0  0  0  0  0  0
    6.1270    4.3600   21.8620 C   0  0  0  0  0  0  0  0  0  0  0  0
   12.4200   -1.8340   23.8830 C   0  0  0  0  0  0  0  0  0  0  0  0
   12.7910   -2.9310   24.8840 C   0  0  0  0  0  0  0  0  0  0  0  0
   12.7250   -0.4820   24.5200 C   0  0  0  0  0  0  0  0  0  0  0  0
    0.8840   -1.4600   26.4270 C   0  0  0  0  0  0  0  0  0  0  0  0
    4.2840   -7.2720   26.2980 O   0  0  0  0  0  0  0  0  0  0  0  0
    6.1430   -5.8010   27.1040 O   0  0  0  0  0  0  0  0  0  0  0  0
    2.0610   -6.1240   25.0930 C   0  0  0  0  0  0  0  0  0  0  0  0
    5.0420   -6.0470   26.2110 S   0  0  0  0  0  0  0  0  0  0  0  0
    6.0520   -1.7410   23.4980 C   0  0  0  0  0  0  0  0  0  0  0  0
    5.8100   -3.2220   25.4740 O   0  0  0  0  0  0  0  0  0  0  0  0
    3.7410   -4.0210   23.8830 O   0  0  0  0  0  0  0  0  0  0  0  0
    4.7560   -4.2450   24.8530 S   0  0  0  0  0  0  0  0  0  0  0  0
    6.4040    0.3680   17.8160 N   0  0  0  0  0  0  0  0  0  0  0  0
    5.1600    1.1020   17.7740 C   0  0  0  0  0  0  0  0  0  0  0  0
    4.3080    1.4390   18.9660 C   0  0  0  0  0  0  0  0  0  0  0  0
    4.8600    0.9570   20.2980 C   0  0  0  0  0  0  0  0  0  0  0  0
    6.0600    0.2630   20.3750 C   0  0  0  0  0  0  0  0  0  0  0  0
    6.7730   -0.0160   19.2200 C   0  0  0  0  0  0  0  0  0  0  0  0
   10.7170   -2.0090   22.1650 N   0  0  0  0  0  0  0  0  0  0  0  0
   10.9730   -1.8190   23.4630 C   0  0  0  0  0  0  0  0  0  0  0  0
    9.9770   -1.5940   24.4160 C   0  0  0  0  0  0  0  0  0  0  0  0
    8.6270   -1.5510   24.0250 C   0  0  0  0  0  0  0  0  0  0  0  0
    8.3390   -1.7340   22.6610 C   0  0  0  0  0  0  0  0  0  0  0  0
    9.4070   -1.9620   21.8000 C   0  0  0  0  0  0  0  0  0  0  0  0
    9.4050    3.1790   23.4540 C   0  0  0  0  0  0  0  0  0  0  0  0
   10.0830    4.4010   23.5310 C   0  0  0  0  0  0  0  0  0  0  0  0
    9.4860    5.5840   23.0760 C   0  0  0  0  0  0  0  0  0  0  0  0
    8.1950    5.5650   22.5330 C   0  0  0  0  0  0  0  0  0  0  0  0
    7.5110    4.3340   22.4560 C   0  0  0  0  0  0  0  0  0  0  0  0
    8.0920    3.1430   22.9100 C   0  0  0  0  0  0  0  0  0  0  0  0
    1.9060   -2.5440   26.4100 C   0  0  0  0  0  0  0  0  0  0  0  0
    1.6780   -3.7980   25.8450 C   0  0  0  0  0  0  0  0  0  0  0  0
    2.5570   -4.8720   25.7700 C   0  0  0  0  0  0  0  0  0  0  0  0
    3.8490   -4.7070   26.3250 C   0  0  0  0  0  0  0  0  0  0  0  0
    4.2860   -3.3980   27.0020 C   0  0  0  0  0  0  0  0  0  0  0  0
    3.2840   -2.2540   27.0560 C   0  0  0  0  0  0  0  0  0  0  0  0
    5.5570   -5.0510   22.7100 C   0  0  2  0  0  0  0  0  0  0  0  0
    5.8620   -6.3120   22.3540 C   0  0  2  0  0  0  0  0  0  0  0  0
    5.0130   -6.4530   23.4270 C   0  0  1  0  0  0  0  0  0  0  0  0
    5.5250   -5.7190   24.5600 C   0  0  2  0  0  0  0  0  0  0  0  0
    6.7440   -5.1520   23.8560 C   0  0  1  0  0  0  0  0  0  0  0  0
    6.8970   -5.1190   22.4570 C   0  0  1  0  0  0  0  0  0  0  0  0
   -0.4310   -1.9250   25.8700 C   0  0  0  0  0  0  0  0  0  0  0  0
  4  2  1  6
  1  7  1  0
  3  7  2  0
  4  7  1  0
  1  8  1  0
  5  9  1  0
  6  9  2  0
  8  9  1  6
 10 11  1  0
 13 14  1  0
 13 15  1  0
 17 20  2  0
 18 20  2  0
  1 21  1  1
 22 24  2  0
 23 24  2  0
 25 26  2  0
 26 27  1  0
 27 28  2  0
  8 29  1  0
 28 29  1  0
 25 30  1  0
 29 30  2  0
 13 32  1  0
 31 32  2  0
 32 33  1  0
 33 34  2  0
  1 35  1  0
 34 35  1  0
 31 36  1  0
 35 36  2  0
 10 37  1  0
 37 38  2  0
 38 39  1  0
 39 40  2  0
 12 41  1  0
 40 41  1  0
  5 42  1  0
 37 42  1  0
 41 42  2  0
 16 43  1  0
 43 44  2  0
 19 45  1  0
 44 45  1  0
 20 46  1  0
 45 46  2  0
 46 47  1  0
 43 48  1  0
 47 48  2  0
 49 50  1  6
 49 51  1  0
 50 51  1  1
 52 20  1  0
 52 24  1  6
 51 52  1  1
 49 53  1  0
 53 52  1  6
 54  4  1  1
 49 54  1  0
 50 54  1  0
 53 54  1  0
 16 55  1  0
M  END
