x2705-x2776-x1402
     RDKit          3D

 53 58  0  0  0  0  0  0  0  0999 V2000
    6.7920   -1.4700   22.0630 C   0  0  1  0  0  0  0  0  0  0  0  0
    6.7520   -3.7840   19.9910 C   0  0  0  0  0  0  0  0  0  0  0  0
    4.7800   -3.0170   21.3560 O   0  0  0  0  0  0  0  0  0  0  0  0
    6.5110   -2.6550   19.8740 C   0  0  0  0  0  0  0  0  0  0  0  0
    7.5770    2.0580   22.9720 N   0  0  0  0  0  0  0  0  0  0  0  0
    8.7730    1.2830   21.0080 O   0  0  0  0  0  0  0  0  0  0  0  0
    5.9300   -2.4070   21.1130 C   0  0  0  0  0  0  0  0  0  0  0  0
    6.5290    0.1010   21.7190 C   0  0  1  0  0  0  0  0  0  0  0  0
    7.6990    1.1770   21.8990 C   0  0  0  0  0  0  0  0  0  0  0  0
   10.0420    2.2300   24.0270 C   0  0  0  0  0  0  0  0  0  0  0  0
    9.1480    1.4090   24.9410 C   0  0  0  0  0  0  0  0  0  0  0  0
    6.1090    4.4040   21.9290 C   0  0  0  0  0  0  0  0  0  0  0  0
   12.0220   -1.6670   23.2550 C   0  0  0  0  0  0  0  0  0  0  0  0
   12.4340   -0.4190   23.9810 C   0  0  0  0  0  0  0  0  0  0  0  0
   12.1050   -2.5230   24.4790 C   0  0  0  0  0  0  0  0  0  0  0  0
   12.6580   -2.0180   21.9620 C   0  0  0  0  0  0  0  0  0  0  0  0
   13.5050   -2.7990   25.0750 C   0  0  0  0  0  0  0  0  0  0  0  0
   10.7390    6.0020   23.8870 O   0  0  0  0  0  0  0  0  0  0  0  0
   11.8510    6.1860   24.7660 C   0  0  0  0  0  0  0  0  0  0  0  0
    0.9380   -1.2630   26.1270 Cl  0  0  0  0  0  0  0  0  0  0  0  0
    4.1830   -6.5420   25.5310 O   0  0  0  0  0  0  0  0  0  0  0  0
    6.0550   -5.2940   26.5550 O   0  0  0  0  0  0  0  0  0  0  0  0
    5.0560   -5.3860   25.5260 S   0  0  0  0  0  0  0  0  0  0  0  0
    6.0270   -2.1870   23.1300 C   0  0  0  0  0  0  0  0  0  0  0  0
    5.5310   -3.3720   22.5110 C   0  0  0  0  0  0  0  0  0  0  0  0
    6.3720    0.3940   17.9630 N   0  0  0  0  0  0  0  0  0  0  0  0
    5.2410    1.0210   17.8240 C   0  0  0  0  0  0  0  0  0  0  0  0
    4.4300    1.3760   18.9580 C   0  0  0  0  0  0  0  0  0  0  0  0
    4.7920    1.0920   20.2470 C   0  0  0  0  0  0  0  0  0  0  0  0
    6.0050    0.4360   20.3520 C   0  0  0  0  0  0  0  0  0  0  0  0
    6.7860    0.0820   19.2460 C   0  0  0  0  0  0  0  0  0  0  0  0
    9.7010   -1.3450   24.1850 N   0  0  0  0  0  0  0  0  0  0  0  0
    8.3810   -1.2960   23.9280 N   0  0  0  0  0  0  0  0  0  0  0  0
    8.2860   -1.5170   22.6030 C   0  0  0  0  0  0  0  0  0  0  0  0
    9.5640   -1.7100   22.0580 C   0  0  0  0  0  0  0  0  0  0  0  0
   10.4970   -1.5910   23.0950 C   0  0  0  0  0  0  0  0  0  0  0  0
    9.3970    3.5350   23.5790 C   0  0  0  0  0  0  0  0  0  0  0  0
   10.1830    4.7280   23.7900 C   0  0  0  0  0  0  0  0  0  0  0  0
    9.3170    5.7290   23.2520 C   0  0  0  0  0  0  0  0  0  0  0  0
    8.0800    5.6240   22.6840 C   0  0  0  0  0  0  0  0  0  0  0  0
    7.4750    4.4490   22.5660 C   0  0  0  0  0  0  0  0  0  0  0  0
    8.1020    3.3900   23.0090 C   0  0  0  0  0  0  0  0  0  0  0  0
    6.4750   -4.2920   21.5790 C   0  0  0  0  0  0  0  0  0  0  0  0
    7.5180   -4.6400   22.4070 C   0  0  0  0  0  0  0  0  0  0  0  0
    7.1890   -4.8270   23.7720 C   0  0  0  0  0  0  0  0  0  0  0  0
    5.7890   -5.3210   23.9620 N   0  0  0  0  0  0  0  0  0  0  0  0
    5.0610   -5.8980   22.7940 C   0  0  0  0  0  0  0  0  0  0  0  0
    5.7480   -5.6800   21.6260 C   0  0  0  0  0  0  0  0  0  0  0  0
    2.2730   -3.8710   25.7180 S   0  0  0  0  0  0  0  0  0  0  0  0
    3.9760   -3.9280   25.7310 C   0  0  0  0  0  0  0  0  0  0  0  0
    4.5980   -2.7440   25.9230 C   0  0  0  0  0  0  0  0  0  0  0  0
    3.6530   -1.7450   26.0680 C   0  0  0  0  0  0  0  0  0  0  0  0
    2.3740   -2.1840   25.9870 C   0  0  0  0  0  0  0  0  0  0  0  0
  2  4  1  0
  1  7  1  0
  3  7  2  0
  4  7  1  0
  1  8  1  0
  5  9  1  0
  6  9  2  0
  8  9  1  6
 10 11  1  0
 13 14  1  0
 13 15  1  0
 13 16  1  0
 15 17  1  0
 18 19  1  0
 21 23  2  0
 22 23  2  0
  1 24  1  0
 24 25  1  0
 26 27  2  0
 27 28  1  0
 28 29  2  0
  8 30  1  0
 29 30  1  0
 26 31  1  0
 30 31  2  0
 32 33  1  0
  1 34  1  1
 33 34  2  0
 34 35  1  0
 13 36  1  0
 32 36  1  0
 35 36  2  0
 10 37  1  0
 18 38  1  0
 37 38  2  0
 38 39  1  0
 39 40  2  0
 12 41  1  0
 40 41  1  0
  5 42  1  0
 37 42  1  0
 41 42  2  0
  2 43  1  0
 43 25  1  0
 43 44  1  0
 44 45  1  0
 23 46  1  0
 45 46  1  0
 46 47  1  0
 43 48  1  0
 47 48  1  0
 23 50  1  0
 49 50  1  0
 50 51  2  0
 51 52  1  0
 20 53  1  0
 49 53  1  0
 52 53  2  0
M  END
