x2705-x0755-x2694-x0978
     RDKit          3D

 60 64  0  0  0  0  0  0  0  0999 V2000
    7.0700   -1.5430   21.7520 N   0  0  0  0  0  0  0  0  0  0  0  0
    6.1220   -4.2520   20.4630 C   0  0  0  0  0  0  0  0  0  0  0  0
    4.8140   -3.2220   21.6070 O   0  0  0  0  0  0  0  0  0  0  0  0
    5.8250   -2.9160   20.5200 C   0  0  0  0  0  0  0  0  0  0  0  0
    7.4540    2.0060   22.7050 N   0  0  0  0  0  0  0  0  0  0  0  0
    9.0000    0.8120   21.5580 O   0  0  0  0  0  0  0  0  0  0  0  0
    5.8150   -2.4110   21.9220 C   0  0  0  0  0  0  0  0  0  0  0  0
    6.7520   -0.1410   21.5960 C   0  0  1  0  0  0  0  0  0  0  0  0
    7.8400    0.9110   21.9530 C   0  0  0  0  0  0  0  0  0  0  0  0
   10.1000    1.8130   23.9540 C   0  0  0  0  0  0  0  0  0  0  0  0
    9.3560    1.0320   24.8740 C   0  0  0  0  0  0  0  0  0  0  0  0
    6.3450    4.6730   21.9040 C   0  0  0  0  0  0  0  0  0  0  0  0
   12.0300   -1.5370   23.2910 C   0  0  0  0  0  0  0  0  0  0  0  0
   12.5200   -0.1490   23.7590 C   0  0  0  0  0  0  0  0  0  0  0  0
   12.5330   -2.5970   24.3120 C   0  0  0  0  0  0  0  0  0  0  0  0
   12.7310   -1.8350   21.9490 C   0  0  0  0  0  0  0  0  0  0  0  0
   10.4460    6.6920   23.6640 O   0  0  0  0  0  0  0  0  0  0  0  0
   11.5770    6.6160   24.5470 C   0  0  0  0  0  0  0  0  0  0  0  0
    2.3450   -5.5700   22.8670 N   0  0  0  0  0  0  0  0  0  0  0  0
    2.3280   -7.9870   24.3190 C   0  0  0  0  0  0  0  0  0  0  0  0
    4.6150   -7.7060   24.5020 O   0  0  0  0  0  0  0  0  0  0  0  0
    3.4400   -6.9800   24.2480 C   0  0  1  0  0  0  0  0  0  0  0  0
    1.1830   -7.3820   22.0550 O   0  0  0  0  0  0  0  0  0  0  0  0
    3.5780   -6.1780   23.0280 C   0  0  2  0  0  0  0  0  0  0  0  0
    1.2510   -6.2760   22.5850 C   0  0  0  0  0  0  0  0  0  0  0  0
    0.0440   -5.4410   23.0460 C   0  0  0  0  0  0  0  0  0  0  0  0
    4.5220   -6.2650   26.1000 O   0  0  0  0  0  0  0  0  0  0  0  0
    6.0530   -4.5530   26.6380 O   0  0  0  0  0  0  0  0  0  0  0  0
    2.0150   -5.3810   25.5690 F   0  0  0  0  0  0  0  0  0  0  0  0
    5.3900   -2.0290   26.0290 F   0  0  0  0  0  0  0  0  0  0  0  0
    5.0130   -4.9600   25.7110 S   0  0  0  0  0  0  0  0  0  0  0  0
    6.3280    0.3910   17.7800 N   0  0  0  0  0  0  0  0  0  0  0  0
    5.1810    1.1180   17.7940 C   0  0  0  0  0  0  0  0  0  0  0  0
    4.4720    1.4630   18.9270 C   0  0  0  0  0  0  0  0  0  0  0  0
    4.9290    1.0710   20.1730 C   0  0  0  0  0  0  0  0  0  0  0  0
    6.2000    0.2700   20.2700 C   0  0  0  0  0  0  0  0  0  0  0  0
    6.8030   -0.0100   18.9630 C   0  0  0  0  0  0  0  0  0  0  0  0
    9.6230   -1.7360   24.1880 N   0  0  0  0  0  0  0  0  0  0  0  0
    8.2950   -1.7570   23.8650 N   0  0  0  0  0  0  0  0  0  0  0  0
    8.2950   -1.6150   22.5340 C   0  0  0  0  0  0  0  0  0  0  0  0
    9.6040   -1.5160   22.0440 C   0  0  0  0  0  0  0  0  0  0  0  0
   10.4980   -1.5910   23.1300 C   0  0  0  0  0  0  0  0  0  0  0  0
    9.4770    3.1400   23.5320 C   0  0  0  0  0  0  0  0  0  0  0  0
   10.1970    4.2900   23.7590 C   0  0  0  0  0  0  0  0  0  0  0  0
    9.7400    5.5220   23.4320 C   0  0  0  0  0  0  0  0  0  0  0  0
    8.4950    5.6430   22.8290 C   0  0  0  0  0  0  0  0  0  0  0  0
    7.7230    4.5040   22.5720 C   0  0  0  0  0  0  0  0  0  0  0  0
    8.1990    3.2300   22.9230 C   0  0  0  0  0  0  0  0  0  0  0  0
    2.4080   -4.1040   25.7060 C   0  0  0  0  0  0  0  0  0  0  0  0
    3.7460   -3.7440   25.7880 C   0  0  0  0  0  0  0  0  0  0  0  0
    4.1030   -2.4100   25.9370 C   0  0  0  0  0  0  0  0  0  0  0  0
    3.1610   -1.4080   26.0020 C   0  0  0  0  0  0  0  0  0  0  0  0
    1.8060   -1.6760   25.9240 C   0  0  0  0  0  0  0  0  0  0  0  0
    1.4210   -3.1260   25.7670 C   0  0  0  0  0  0  0  0  0  0  0  0
    6.9600   -6.0090   22.1720 N   0  0  0  0  0  0  0  0  0  0  0  0
    7.7230   -5.1520   23.1100 C   0  0  0  0  0  0  0  0  0  0  0  0
    6.9200   -4.2550   23.8540 C   0  0  0  0  0  0  0  0  0  0  0  0
    5.6640   -4.9830   24.0710 N   0  0  0  0  0  0  0  0  0  0  0  0
    4.8420   -5.1330   22.7650 C   0  0  1  0  0  0  0  0  0  0  0  0
    5.7560   -5.2970   21.6370 C   0  0  1  0  0  0  0  0  0  0  0  0
  2  4  1  0
  1  7  1  0
  3  7  2  0
  4  7  1  0
  1  8  1  0
  5  9  1  0
  6  9  2  0
  8  9  1  6
 10 11  1  0
 13 14  1  0
 13 15  1  0
 13 16  1  0
 17 18  1  0
 22 20  1  6
 21 22  1  0
 24 19  1  1
 22 24  1  0
 19 25  1  0
 23 25  2  0
 25 26  1  0
 27 31  2  0
 28 31  2  0
 32 33  2  0
 33 34  1  0
 34 35  2  0
  8 36  1  0
 35 36  1  0
 32 37  1  0
 36 37  2  0
 38 39  1  0
  1 40  1  0
 39 40  2  0
 40 41  1  0
 13 42  1  0
 38 42  1  0
 41 42  2  0
 10 43  1  0
 43 44  2  0
 17 45  1  0
 44 45  1  0
 45 46  2  0
 12 47  1  0
 46 47  1  0
  5 48  1  0
 43 48  1  0
 47 48  2  0
 29 49  1  0
 31 50  1  0
 49 50  2  0
 30 51  1  0
 50 51  1  0
 51 52  2  0
 52 53  1  0
 49 54  1  0
 53 54  2  0
 55 56  1  0
 56 57  1  0
 31 58  1  0
 57 58  1  0
 24 59  1  0
 59 58  1  1
 60  2  1  1
 55 60  1  0
 59 60  1  0
M  END
