x2705-x2776-x0771
     RDKit          3D

 54 59  0  0  0  0  0  0  0  0999 V2000
    6.8720   -1.4100   21.9400 C   0  0  1  0  0  0  0  0  0  0  0  0
    6.8030   -3.9740   20.0520 C   0  0  0  0  0  0  0  0  0  0  0  0
    4.7830   -3.0540   21.4190 O   0  0  0  0  0  0  0  0  0  0  0  0
    6.3200   -2.6220   19.8110 C   0  0  0  0  0  0  0  0  0  0  0  0
    7.6770    1.9740   23.0300 N   0  0  0  0  0  0  0  0  0  0  0  0
    8.8040    1.3160   20.9960 O   0  0  0  0  0  0  0  0  0  0  0  0
    5.8810   -2.4020   21.1300 C   0  0  0  0  0  0  0  0  0  0  0  0
    6.5790    0.1250   21.6430 C   0  0  1  0  0  0  0  0  0  0  0  0
    7.7460    1.1730   21.9140 C   0  0  0  0  0  0  0  0  0  0  0  0
   10.0310    2.2380   24.0150 C   0  0  0  0  0  0  0  0  0  0  0  0
    9.1290    1.4020   24.9830 C   0  0  0  0  0  0  0  0  0  0  0  0
    5.9420    4.4210   21.8480 C   0  0  0  0  0  0  0  0  0  0  0  0
   12.0620   -1.5570   23.1920 C   0  0  0  0  0  0  0  0  0  0  0  0
   12.6550   -0.2720   23.7840 C   0  0  0  0  0  0  0  0  0  0  0  0
   12.4960   -2.7620   24.0430 C   0  0  0  0  0  0  0  0  0  0  0  0
   12.7030   -1.7600   21.8020 C   0  0  0  0  0  0  0  0  0  0  0  0
   13.4220   -2.5290   25.2180 C   0  0  0  0  0  0  0  0  0  0  0  0
   10.9230    6.0770   23.9410 O   0  0  0  0  0  0  0  0  0  0  0  0
   11.9040    6.2850   24.9450 C   0  0  0  0  0  0  0  0  0  0  0  0
    0.7140   -1.2660   26.2740 C   0  0  0  0  0  0  0  0  0  0  0  0
    4.4940   -7.0340   25.6200 O   0  0  0  0  0  0  0  0  0  0  0  0
    6.0650   -5.4170   26.6190 O   0  0  0  0  0  0  0  0  0  0  0  0
    2.0340   -6.2830   24.8360 C   0  0  0  0  0  0  0  0  0  0  0  0
    5.0970   -5.7240   25.5930 S   0  0  0  0  0  0  0  0  0  0  0  0
    6.1840   -2.1810   23.0270 C   0  0  0  0  0  0  0  0  0  0  0  0
    6.3430    0.4950   17.8730 N   0  0  0  0  0  0  0  0  0  0  0  0
    5.2080    1.2100   17.8110 C   0  0  0  0  0  0  0  0  0  0  0  0
    4.4740    1.5850   18.9150 C   0  0  0  0  0  0  0  0  0  0  0  0
    4.9190    1.2230   20.1700 C   0  0  0  0  0  0  0  0  0  0  0  0
    6.0910    0.4910   20.2980 C   0  0  0  0  0  0  0  0  0  0  0  0
    6.8100    0.1170   19.1430 C   0  0  0  0  0  0  0  0  0  0  0  0
    9.7950   -1.4880   24.1920 N   0  0  0  0  0  0  0  0  0  0  0  0
    8.4740   -1.4580   23.8840 N   0  0  0  0  0  0  0  0  0  0  0  0
    8.3480   -1.4720   22.5130 C   0  0  0  0  0  0  0  0  0  0  0  0
    9.6740   -1.5200   21.9990 C   0  0  0  0  0  0  0  0  0  0  0  0
   10.5280   -1.5230   23.0890 C   0  0  0  0  0  0  0  0  0  0  0  0
    9.3800    3.5650   23.5630 C   0  0  0  0  0  0  0  0  0  0  0  0
   10.3290    4.8330   23.8300 C   0  0  0  0  0  0  0  0  0  0  0  0
    9.3920    5.9370   23.2420 C   0  0  0  0  0  0  0  0  0  0  0  0
    8.0180    5.7740   22.6230 C   0  0  0  0  0  0  0  0  0  0  0  0
    7.3010    4.4920   22.4730 C   0  0  0  0  0  0  0  0  0  0  0  0
    8.1410    3.3380   23.0320 C   0  0  0  0  0  0  0  0  0  0  0  0
    1.7370   -2.3420   26.0860 C   0  0  0  0  0  0  0  0  0  0  0  0
    1.3370   -3.7630   25.5420 C   0  0  0  0  0  0  0  0  0  0  0  0
    2.3770   -4.8720   25.3610 C   0  0  0  0  0  0  0  0  0  0  0  0
    3.8520   -4.6070   25.7150 C   0  0  0  0  0  0  0  0  0  0  0  0
    4.1060   -3.1770   26.2250 C   0  0  0  0  0  0  0  0  0  0  0  0
    3.1860   -2.1320   26.4060 C   0  0  0  0  0  0  0  0  0  0  0  0
    6.8160   -4.4780   21.5420 N   0  0  0  0  0  0  0  0  0  0  0  0
    6.2220   -5.8500   21.7690 C   0  0  0  0  0  0  0  0  0  0  0  0
    5.2740   -5.9490   22.8250 C   0  0  0  0  0  0  0  0  0  0  0  0
    5.8800   -5.4920   24.0840 N   0  0  0  0  0  0  0  0  0  0  0  0
    6.7930   -4.3660   23.9340 C   0  0  0  0  0  0  0  0  0  0  0  0
    6.3100   -3.7450   22.7960 C   0  0  1  0  0  0  0  0  0  0  0  0
  2  4  1  0
  1  7  1  0
  3  7  2  0
  4  7  1  0
  1  8  1  0
  5  9  1  0
  6  9  2  0
  8  9  1  6
 10 11  1  0
 13 14  1  0
 13 15  1  0
 13 16  1  0
 15 17  1  0
 18 19  1  0
 21 24  2  0
 22 24  2  0
  1 25  1  0
 26 27  2  0
 27 28  1  0
 28 29  2  0
  8 30  1  0
 29 30  1  0
 26 31  1  0
 30 31  2  0
 32 33  1  0
  1 34  1  6
 33 34  2  0
 34 35  1  0
 13 36  1  0
 32 36  1  0
 35 36  2  0
 10 37  1  0
 18 38  1  0
 37 38  2  0
 38 39  1  0
 39 40  2  0
 12 41  1  0
 40 41  1  0
  5 42  1  0
 37 42  1  0
 41 42  2  0
 20 43  1  0
 43 44  2  0
 23 45  1  0
 44 45  1  0
 24 46  1  0
 45 46  2  0
 46 47  1  0
 43 48  1  0
 47 48  2  0
  2 49  1  0
 49 50  1  0
 50 51  1  0
 24 52  1  0
 51 52  1  0
 52 53  1  0
 54 25  1  6
 49 54  1  0
 53 54  1  0
M  END
