x2705-x0978-x2754-x2703
     RDKit          3D

 59 64  0  0  0  0  0  0  0  0999 V2000
    6.8570   -1.3140   21.8590 N   0  0  0  0  0  0  0  0  0  0  0  0
    6.4930   -4.7140   20.8690 C   0  0  0  0  0  0  0  0  0  0  0  0
    4.7200   -2.9090   21.3060 O   0  0  0  0  0  0  0  0  0  0  0  0
    7.6170    2.0890   22.8330 N   0  0  0  0  0  0  0  0  0  0  0  0
    8.7120    1.2050   21.0520 O   0  0  0  0  0  0  0  0  0  0  0  0
    5.9790   -2.5660   21.5910 C   0  0  0  0  0  0  0  0  0  0  0  0
    6.5660    0.1050   21.5960 C   0  0  1  0  0  0  0  0  0  0  0  0
    7.7310    1.1540   21.8040 C   0  0  0  0  0  0  0  0  0  0  0  0
   10.3930    2.2390   23.6450 C   0  0  0  0  0  0  0  0  0  0  0  0
    9.6500    1.2430   24.5470 C   0  0  0  0  0  0  0  0  0  0  0  0
    5.8880    4.3530   22.0130 C   0  0  0  0  0  0  0  0  0  0  0  0
   11.9800   -1.5850   23.1380 C   0  0  0  0  0  0  0  0  0  0  0  0
   12.5880   -0.2960   23.7400 C   0  0  0  0  0  0  0  0  0  0  0  0
   12.4960   -2.7690   23.9640 C   0  0  0  0  0  0  0  0  0  0  0  0
   12.5980   -1.8050   21.7430 C   0  0  0  0  0  0  0  0  0  0  0  0
   13.2980   -2.4820   25.2240 C   0  0  0  0  0  0  0  0  0  0  0  0
    2.4440   -5.8970   22.5810 N   0  0  0  0  0  0  0  0  0  0  0  0
    2.2380   -8.0450   24.4620 C   0  0  0  0  0  0  0  0  0  0  0  0
    4.5940   -7.9090   24.1750 O   0  0  0  0  0  0  0  0  0  0  0  0
    3.4740   -7.1300   24.4770 C   0  0  1  0  0  0  0  0  0  0  0  0
    5.7450   -5.9470   21.7590 N   0  0  0  0  0  0  0  0  0  0  0  0
    0.5090   -7.5390   22.1730 O   0  0  0  0  0  0  0  0  0  0  0  0
    3.3920   -5.9670   23.5100 C   0  0  1  0  0  0  0  0  0  0  0  0
    1.0480   -6.3340   22.6710 C   0  0  0  0  0  0  0  0  0  0  0  0
    0.1180   -5.4950   23.2440 C   0  0  0  0  0  0  0  0  0  0  0  0
    4.7940   -5.5550   22.8890 C   0  0  0  0  0  0  0  0  0  0  0  0
    4.8870   -3.3300   25.6450 C   0  0  0  0  0  0  0  0  0  0  0  0
    3.6740   -3.4880   25.7390 O   0  0  0  0  0  0  0  0  0  0  0  0
    5.6980   -3.1800   26.7680 N   0  0  0  0  0  0  0  0  0  0  0  0
    5.3050   -2.3100   27.7150 C   0  0  0  0  0  0  0  0  0  0  0  0
    6.2910    0.4440   17.8410 N   0  0  0  0  0  0  0  0  0  0  0  0
    5.1530    1.2140   17.7060 C   0  0  0  0  0  0  0  0  0  0  0  0
    4.5070    1.5590   18.8840 C   0  0  0  0  0  0  0  0  0  0  0  0
    4.9440    1.1940   20.1310 C   0  0  0  0  0  0  0  0  0  0  0  0
    6.0810    0.4480   20.2390 C   0  0  0  0  0  0  0  0  0  0  0  0
    6.7090    0.0940   19.0640 C   0  0  0  0  0  0  0  0  0  0  0  0
    9.7260   -1.2910   24.2180 N   0  0  0  0  0  0  0  0  0  0  0  0
    8.4260   -1.2260   23.8430 N   0  0  0  0  0  0  0  0  0  0  0  0
    8.1990   -1.3730   22.4860 C   0  0  0  0  0  0  0  0  0  0  0  0
    9.5350   -1.5400   22.0340 C   0  0  0  0  0  0  0  0  0  0  0  0
   10.4300   -1.4770   23.1140 C   0  0  0  0  0  0  0  0  0  0  0  0
    9.5360    3.4120   23.2740 C   0  0  0  0  0  0  0  0  0  0  0  0
   10.1340    4.6740   23.3420 C   0  0  0  0  0  0  0  0  0  0  0  0
    9.4700    5.8740   23.0140 C   0  0  0  0  0  0  0  0  0  0  0  0
    7.9960    5.8530   22.5410 C   0  0  0  0  0  0  0  0  0  0  0  0
    7.3150    4.4810   22.4620 C   0  0  0  0  0  0  0  0  0  0  0  0
    8.2720    3.3800   22.8850 C   0  0  0  0  0  0  0  0  0  0  0  0
    6.7900   -3.6950   21.6510 C   0  0  2  0  0  0  0  0  0  0  0  0
    7.8140   -3.3010   22.7900 C   0  0  0  0  0  0  0  0  0  0  0  0
    7.0110   -2.7700   24.0820 C   0  0  0  0  0  0  0  0  0  0  0  0
    5.5290   -3.2580   24.2440 C   0  0  1  0  0  0  0  0  0  0  0  0
    5.5780   -4.4390   23.3260 C   0  0  0  0  0  0  0  0  0  0  0  0
    6.7630   -4.7240   22.6310 C   0  0  0  0  0  0  0  0  0  0  0  0
    7.2840   -4.8190   27.6390 C   0  0  0  0  0  0  0  0  0  0  0  0
    8.5700   -5.3350   27.7120 C   0  0  0  0  0  0  0  0  0  0  0  0
    9.5960   -4.6990   26.9570 C   0  0  0  0  0  0  0  0  0  0  0  0
    9.3200   -3.6060   26.1790 C   0  0  0  0  0  0  0  0  0  0  0  0
    8.0310   -3.1110   26.1250 C   0  0  0  0  0  0  0  0  0  0  0  0
    7.0150   -3.7110   26.8500 C   0  0  0  0  0  0  0  0  0  0  0  0
  1  6  1  0
  3  6  2  0
  1  7  1  0
  4  8  1  0
  5  8  2  0
  7  8  1  6
  9 10  1  0
 12 13  1  0
 12 14  1  0
 12 15  1  0
 14 16  1  0
 20 18  1  6
 19 20  1  0
  2 21  1  0
 23 17  1  6
 20 23  1  0
 17 24  1  0
 22 24  2  0
 24 25  1  0
 21 26  1  0
 23 26  1  0
 27 28  2  0
 27 29  1  0
 29 30  1  0
 31 32  2  0
 32 33  1  0
 33 34  2  0
  7 35  1  0
 34 35  1  0
 31 36  1  0
 35 36  2  0
 37 38  1  0
  1 39  1  0
 38 39  1  0
 39 40  2  0
 12 41  1  0
 37 41  2  0
 40 41  1  0
  9 42  1  0
 42 43  2  0
 43 44  1  0
 44 45  2  0
 11 46  1  0
 45 46  1  0
  4 47  1  0
 42 47  1  0
 46 47  2  0
  2 48  1  0
 48  6  1  6
 48 49  1  0
 49 50  1  0
 51 27  1  1
 50 51  1  0
 26 52  2  0
 51 52  1  0
 48 53  1  0
 52 53  1  0
 54 55  2  0
 55 56  1  0
 56 57  2  0
 57 58  1  0
 29 59  1  0
 54 59  1  0
 58 59  2  0
M  END
