x2703-x0771-x0755-x2694-x2705
     RDKit          3D

 62 69  0  0  0  0  0  0  0  0999 V2000
    7.1500   -1.2740   21.7690 C   0  0  2  0  0  0  0  0  0  0  0  0
    6.6140   -3.8150   20.1670 C   0  0  0  0  0  0  0  0  0  0  0  0
    4.8690   -3.0240   21.0790 O   0  0  0  0  0  0  0  0  0  0  0  0
    6.3110   -2.3520   20.1760 C   0  0  0  0  0  0  0  0  0  0  0  0
    7.5280    2.4390   22.6280 N   0  0  0  0  0  0  0  0  0  0  0  0
    8.9770    1.3350   21.1770 O   0  0  0  0  0  0  0  0  0  0  0  0
    5.8320   -2.2370   21.5410 C   0  0  0  0  0  0  0  0  0  0  0  0
   11.1120    6.6950   23.9220 O   0  0  0  0  0  0  0  0  0  0  0  0
    6.7990    0.3010   21.5860 C   0  0  1  0  0  0  0  0  0  0  0  0
    7.9050    1.3870   21.7750 C   0  0  0  0  0  0  0  0  0  0  0  0
   10.1710    1.7990   23.9290 C   0  0  0  0  0  0  0  0  0  0  0  0
   11.8800    6.6180   25.1150 C   0  0  0  0  0  0  0  0  0  0  0  0
   12.3900   -1.3620   22.9040 C   0  0  0  0  0  0  0  0  0  0  0  0
   12.8220    0.0900   23.2030 C   0  0  0  0  0  0  0  0  0  0  0  0
   12.9340   -1.7690   21.5290 C   0  0  0  0  0  0  0  0  0  0  0  0
   13.1270   -2.2750   23.8880 C   0  0  0  0  0  0  0  0  0  0  0  0
    9.2840    1.0990   24.9430 C   0  0  0  0  0  0  0  0  0  0  0  0
   12.2610   -2.9890   24.9310 C   0  0  0  0  0  0  0  0  0  0  0  0
    4.3170   -6.9580   25.1500 O   0  0  0  0  0  0  0  0  0  0  0  0
    6.3180   -5.7060   26.1760 N   0  0  0  0  0  0  0  0  0  0  0  0
    5.1400   -5.7690   25.1980 S   0  0  2  0  0  0  0  0  0  0  0  0
    6.5030   -1.7630   23.0330 C   0  0  0  0  0  0  0  0  0  0  0  0
    5.8590   -3.1320   22.7580 C   0  0  0  0  0  0  0  0  0  0  0  0
    5.5790   -2.7720   26.0460 F   0  0  0  0  0  0  0  0  0  0  0  0
    6.3310    0.6020   17.8270 N   0  0  0  0  0  0  0  0  0  0  0  0
    5.2080    1.3710   17.7640 C   0  0  0  0  0  0  0  0  0  0  0  0
    4.5460    1.8100   18.8650 C   0  0  0  0  0  0  0  0  0  0  0  0
    5.0050    1.4910   20.1290 C   0  0  0  0  0  0  0  0  0  0  0  0
    6.1760    0.7030   20.2610 C   0  0  0  0  0  0  0  0  0  0  0  0
    6.7500    0.3120   19.0590 C   0  0  0  0  0  0  0  0  0  0  0  0
    8.7970   -1.8580   23.7120 N   0  0  0  0  0  0  0  0  0  0  0  0
   10.1730   -1.8650   23.9800 O   0  0  0  0  0  0  0  0  0  0  0  0
   10.8640   -1.4620   22.8740 C   0  0  0  0  0  0  0  0  0  0  0  0
    9.8790   -1.2080   21.9060 C   0  0  0  0  0  0  0  0  0  0  0  0
    8.5860   -1.4390   22.3980 C   0  0  0  0  0  0  0  0  0  0  0  0
    9.7470    3.1970   23.5870 C   0  0  0  0  0  0  0  0  0  0  0  0
   10.6000    4.2670   23.8860 C   0  0  0  0  0  0  0  0  0  0  0  0
   10.3340    5.6040   23.6420 C   0  0  0  0  0  0  0  0  0  0  0  0
    9.0750    5.8230   23.0210 C   0  0  0  0  0  0  0  0  0  0  0  0
    8.1770    4.7920   22.6910 C   0  0  0  0  0  0  0  0  0  0  0  0
    8.5090    3.4530   22.9800 C   0  0  0  0  0  0  0  0  0  0  0  0
    2.0710   -2.9820   25.7170 C   0  0  0  0  0  0  0  0  0  0  0  0
    1.6540   -4.1370   25.3440 C   0  0  0  0  0  0  0  0  0  0  0  0
    2.7430   -4.7350   25.2600 C   0  0  0  0  0  0  0  0  0  0  0  0
    4.0360   -4.4490   25.4430 C   0  0  0  0  0  0  0  0  0  0  0  0
    4.3190   -3.1890   25.8290 C   0  0  0  0  0  0  0  0  0  0  0  0
    3.2200   -2.1640   26.0550 C   0  0  0  0  0  0  0  0  0  0  0  0
    6.4870   -4.2310   21.7680 C   0  0  1  0  0  0  0  0  0  0  0  0
    5.6320   -5.4630   22.1540 C   0  0  2  0  0  0  0  0  0  0  0  0
    4.5510   -5.1180   22.7110 C   0  0  0  0  0  0  0  0  0  0  0  0
    5.9670   -5.6150   23.5610 C   0  0  2  0  0  0  0  0  0  0  0  0
    7.2270   -4.9720   23.6390 C   0  0  0  0  0  0  0  0  0  0  0  0
    7.6340   -4.4780   22.4180 C   0  0  0  0  0  0  0  0  0  0  0  0
    3.6790   -6.3060   27.0460 O   0  0  0  0  0  0  0  0  0  0  0  0
    6.0690   -4.9700   27.4030 N   0  0  0  0  0  0  0  0  0  0  0  0
    4.4290   -5.0640   27.8620 S   0  0  0  0  0  0  0  0  0  0  0  0
    0.6320   -6.1760   24.6720 C   0  0  0  0  0  0  0  0  0  0  0  0
    0.3740   -4.7220   25.0690 C   0  0  0  0  0  0  0  0  0  0  0  0
    0.6770   -1.8630   26.2740 C   0  0  0  0  0  0  0  0  0  0  0  0
    2.0690   -1.2290   26.2490 C   0  0  0  0  0  0  0  0  0  0  0  0
    5.9220    4.1870   21.6830 C   0  0  0  0  0  0  0  0  0  0  0  0
    6.1580    2.9830   22.6430 C   0  0  0  0  0  0  0  0  0  0  0  0
  2  4  1  0
  1  7  1  0
  3  7  2  0
  4  7  1  0
  1  9  1  0
  5 10  1  0
  6 10  2  0
  9 10  1  6
  8 12  1  0
 13 14  1  0
 13 15  1  0
 13 16  1  0
 11 17  1  0
 16 18  1  0
 19 21  2  0
 20 21  2  0
  1 22  1  0
 22 23  1  0
 25 26  2  0
 26 27  1  0
 27 28  2  0
  9 29  1  0
 28 29  1  0
 25 30  1  0
 29 30  2  0
 31 32  1  0
 13 33  1  0
 32 33  1  0
 33 34  2  0
  1 35  1  6
 31 35  2  0
 34 35  1  0
 11 36  1  0
 36 37  2  0
  8 38  1  0
 37 38  1  0
 38 39  2  0
 39 40  1  0
  5 41  1  0
 36 41  1  0
 40 41  2  0
 42 43  2  0
 42 44  1  0
 43 44  1  0
 21 45  1  1
 44 45  2  0
 24 46  1  0
 45 46  1  0
 42 47  1  0
 46 47  2  0
 48  2  1  6
 48 23  1  0
 48 49  1  0
 49 50  1  1
 21 51  1  0
 49 51  1  0
 51 50  1  1
 51 52  1  0
 48 53  1  0
 52 53  1  0
 20 55  1  0
 54 56  2  0
 55 56  2  0
 43 58  1  0
 57 58  1  0
 47 60  1  0
 59 60  1  0
  5 62  1  0
 61 62  1  0
M  END
