x2705-x3117-x1358-x1458
     RDKit          3D

 56 62  0  0  0  0  0  0  0  0999 V2000
    7.0710   -1.5850   21.5830 C   0  0  2  0  0  0  0  0  0  0  0  0
    7.0950   -5.0330   20.7260 C   0  0  0  0  0  0  0  0  0  0  0  0
    4.8760   -2.9800   20.7840 O   0  0  0  0  0  0  0  0  0  0  0  0
    7.3820    2.0130   22.7710 N   0  0  0  0  0  0  0  0  0  0  0  0
    8.7030    1.1600   21.0060 O   0  0  0  0  0  0  0  0  0  0  0  0
    6.0860   -2.9090   21.2660 C   0  0  0  0  0  0  0  0  0  0  0  0
    6.6230   -0.0660   21.4620 C   0  0  1  0  0  0  0  0  0  0  0  0
    7.6890    1.0520   21.6990 C   0  0  0  0  0  0  0  0  0  0  0  0
   10.1170    2.1090   23.9250 C   0  0  0  0  0  0  0  0  0  0  0  0
    9.3090    1.4250   24.8600 C   0  0  0  0  0  0  0  0  0  0  0  0
    6.1360    4.5290   21.8550 C   0  0  0  0  0  0  0  0  0  0  0  0
   12.2590   -1.5660   23.0300 C   0  0  0  0  0  0  0  0  0  0  0  0
   12.7790   -0.2560   23.6590 C   0  0  0  0  0  0  0  0  0  0  0  0
   12.6720   -2.7840   23.8750 C   0  0  0  0  0  0  0  0  0  0  0  0
   12.9300   -1.7810   21.6670 C   0  0  0  0  0  0  0  0  0  0  0  0
   13.3690   -2.5700   25.2190 C   0  0  0  0  0  0  0  0  0  0  0  0
    6.9500   -3.2990   26.7990 N   0  0  0  0  0  0  0  0  0  0  0  0
    8.7610   -5.0760   27.1450 C   0  0  0  0  0  0  0  0  0  0  0  0
    4.9540   -2.9530   25.3530 N   0  0  0  0  0  0  0  0  0  0  0  0
    7.4720   -4.4640   27.6280 C   0  0  0  0  0  0  0  0  0  0  0  0
    6.4290   -5.4490   27.8410 C   0  0  0  0  0  0  0  0  0  0  0  0
    6.2210   -3.5970   25.6580 C   0  0  0  0  0  0  0  0  0  0  0  0
    6.7590   -2.1900   22.9070 C   0  0  0  0  0  0  0  0  0  0  0  0
    5.8580   -2.9450   25.8030 N   0  0  0  0  0  0  0  0  0  0  0  0
    6.0310   -0.7280   25.4110 O   0  0  0  0  0  0  0  0  0  0  0  0
    4.6060   -3.5700   24.1620 N   0  0  0  0  0  0  0  0  0  0  0  0
    5.6960   -3.7540   24.7320 C   0  0  0  0  0  0  0  0  0  0  0  0
    6.3140    0.5850   17.7810 N   0  0  0  0  0  0  0  0  0  0  0  0
    5.1800    1.3190   17.7180 C   0  0  0  0  0  0  0  0  0  0  0  0
    4.3840    1.6600   18.7970 C   0  0  0  0  0  0  0  0  0  0  0  0
    4.8210    1.1950   20.1340 C   0  0  0  0  0  0  0  0  0  0  0  0
    6.0560    0.4210   20.1770 C   0  0  0  0  0  0  0  0  0  0  0  0
    6.7260    0.1560   18.9800 C   0  0  0  0  0  0  0  0  0  0  0  0
    9.9770   -0.7270   23.5510 N   0  0  0  0  0  0  0  0  0  0  0  0
    8.6860   -0.7380   23.1890 N   0  0  0  0  0  0  0  0  0  0  0  0
    8.5420   -1.5190   22.1020 C   0  0  0  0  0  0  0  0  0  0  0  0
    9.8340   -1.9960   21.8380 C   0  0  0  0  0  0  0  0  0  0  0  0
   10.7720   -1.4810   22.7650 C   0  0  0  0  0  0  0  0  0  0  0  0
    9.3820    3.3340   23.4400 C   0  0  0  0  0  0  0  0  0  0  0  0
   10.0400    4.5340   23.5580 C   0  0  0  0  0  0  0  0  0  0  0  0
    9.4600    5.7030   23.1430 C   0  0  0  0  0  0  0  0  0  0  0  0
    8.2010    5.6760   22.5980 C   0  0  0  0  0  0  0  0  0  0  0  0
    7.5050    4.4670   22.4660 C   0  0  0  0  0  0  0  0  0  0  0  0
    8.0910    3.2580   22.8950 C   0  0  0  0  0  0  0  0  0  0  0  0
    6.6570   -4.2480   21.7290 C   0  0  2  0  0  0  0  0  0  0  0  0
    7.5780   -3.4970   22.6980 C   0  0  2  0  0  0  0  0  0  0  0  0
    7.8150   -4.0560   23.8860 C   0  0  0  0  0  0  0  0  0  0  0  0
    6.7360   -4.6360   24.5040 C   0  0  1  0  0  0  0  0  0  0  0  0
    5.9380   -5.6270   23.6710 C   0  0  0  0  0  0  0  0  0  0  0  0
    5.5780   -5.1380   22.4010 C   0  0  0  0  0  0  0  0  0  0  0  0
    6.2050   -0.7650   26.7630 C   0  0  0  0  0  0  0  0  0  0  0  0
    6.6540   -2.0380   27.4940 C   0  0  0  0  0  0  0  0  0  0  0  0
    6.8010   -2.0410   28.8010 C   0  0  0  0  0  0  0  0  0  0  0  0
    6.5240   -0.7240   29.5230 C   0  0  0  0  0  0  0  0  0  0  0  0
    6.1330    0.4000   28.8430 C   0  0  0  0  0  0  0  0  0  0  0  0
    5.9660    0.4020   27.4810 C   0  0  0  0  0  0  0  0  0  0  0  0
  1  6  1  0
  3  6  2  0
  1  7  1  0
  4  8  1  0
  5  8  2  0
  7  8  1  6
  9 10  1  0
 12 13  1  0
 12 14  1  0
 12 15  1  0
 14 16  1  0
 17 20  1  0
 18 20  1  0
 20 21  1  0
 17 22  1  0
 19 22  2  0
  1 23  1  0
 19 26  1  0
 24 27  1  0
 26 27  2  0
 28 29  2  0
 29 30  1  0
 30 31  2  0
  7 32  1  0
 31 32  1  0
 28 33  1  0
 32 33  2  0
 34 35  1  0
  1 36  1  6
 35 36  2  0
 36 37  1  0
 12 38  1  0
 34 38  1  0
 37 38  2  0
  9 39  1  0
 39 40  2  0
 40 41  1  0
 41 42  2  0
 11 43  1  0
 42 43  1  0
  4 44  1  0
 39 44  1  0
 43 44  2  0
 45  2  1  6
  6 45  1  0
 46 23  1  1
 45 46  1  0
 46 47  1  0
 48 22  1  0
 27 48  1  0
 48 47  1  6
 48 49  1  0
 45 50  1  0
 49 50  1  0
 25 51  1  0
 17 52  1  0
 51 52  2  0
 52 53  1  0
 53 54  2  0
 54 55  1  0
 51 56  1  0
 55 56  2  0
M  END
