x2705-x1458-x2754-x2703
     RDKit          3D

 55 62  0  0  0  0  0  0  0  0999 V2000
    7.2080   -1.3790   21.4730 C   0  0  2  0  0  0  0  0  0  0  0  0
    8.0460   -4.0640   21.0740 C   0  0  0  0  0  0  0  0  0  0  0  0
    5.1640   -3.4490   20.7500 O   0  0  0  0  0  0  0  0  0  0  0  0
    7.6550    2.0220   22.7080 N   0  0  0  0  0  0  0  0  0  0  0  0
    9.0290    1.3440   21.0740 O   0  0  0  0  0  0  0  0  0  0  0  0
    5.9820   -2.4890   21.0050 C   0  0  0  0  0  0  0  0  0  0  0  0
    6.8880    0.1410   21.2650 C   0  0  1  0  0  0  0  0  0  0  0  0
    7.9740    1.1950   21.6560 C   0  0  0  0  0  0  0  0  0  0  0  0
   10.1870    2.0600   23.9300 C   0  0  0  0  0  0  0  0  0  0  0  0
    9.3670    1.1650   24.8630 C   0  0  0  0  0  0  0  0  0  0  0  0
    6.1400    4.5590   21.7790 C   0  0  0  0  0  0  0  0  0  0  0  0
   12.3850   -1.4530   23.1110 C   0  0  0  0  0  0  0  0  0  0  0  0
   12.7440    0.0110   23.4250 C   0  0  0  0  0  0  0  0  0  0  0  0
   13.0370   -2.3690   24.1700 C   0  0  0  0  0  0  0  0  0  0  0  0
   12.9940   -1.8080   21.7450 C   0  0  0  0  0  0  0  0  0  0  0  0
   12.0680   -3.0870   25.0930 C   0  0  0  0  0  0  0  0  0  0  0  0
    4.7370   -3.7360   25.1590 C   0  0  0  0  0  0  0  0  0  0  0  0
    6.2260   -6.1830   27.9500 C   0  0  0  0  0  0  0  0  0  0  0  0
    5.8700   -3.9910   25.7900 C   0  0  0  0  0  0  0  0  0  0  0  0
    6.6990   -1.4390   22.8480 C   0  0  0  0  0  0  0  0  0  0  0  0
    3.5980   -3.1550   25.8300 C   0  0  0  0  0  0  0  0  0  0  0  0
    2.9450   -2.4530   26.5570 O   0  0  0  0  0  0  0  0  0  0  0  0
    4.6940   -2.4900   26.3560 N   0  0  0  0  0  0  0  0  0  0  0  0
    4.8810   -2.3230   27.6860 C   0  0  0  0  0  0  0  0  0  0  0  0
    6.3190    0.6120   17.6280 N   0  0  0  0  0  0  0  0  0  0  0  0
    5.2110    1.3720   17.6880 C   0  0  0  0  0  0  0  0  0  0  0  0
    4.5930    1.7370   18.8610 C   0  0  0  0  0  0  0  0  0  0  0  0
    5.0900    1.3520   20.0730 C   0  0  0  0  0  0  0  0  0  0  0  0
    6.2420    0.5810   20.0130 C   0  0  0  0  0  0  0  0  0  0  0  0
    6.8170    0.2260   18.8070 C   0  0  0  0  0  0  0  0  0  0  0  0
    9.9850   -1.8950   23.9600 N   0  0  0  0  0  0  0  0  0  0  0  0
    8.6900   -1.8800   23.5340 N   0  0  0  0  0  0  0  0  0  0  0  0
    8.6140   -1.5270   22.2270 C   0  0  0  0  0  0  0  0  0  0  0  0
    9.9020   -1.3130   21.8330 C   0  0  0  0  0  0  0  0  0  0  0  0
   10.8770   -1.5540   22.9880 C   0  0  0  0  0  0  0  0  0  0  0  0
    9.5180    3.3560   23.5060 C   0  0  0  0  0  0  0  0  0  0  0  0
   10.2710    4.6780   23.7620 C   0  0  0  0  0  0  0  0  0  0  0  0
    9.5320    5.9200   23.3030 C   0  0  0  0  0  0  0  0  0  0  0  0
    8.1840    5.9700   22.6500 C   0  0  0  0  0  0  0  0  0  0  0  0
    7.4950    4.5860   22.4320 C   0  0  0  0  0  0  0  0  0  0  0  0
    8.2410    3.3010   22.8950 C   0  0  0  0  0  0  0  0  0  0  0  0
    6.7120   -3.6340   21.7160 C   0  0  2  0  0  0  0  0  0  0  0  0
    6.5060   -2.8850   23.0160 C   0  0  1  0  0  0  0  0  0  0  0  0
    7.4360   -3.4220   24.0500 C   0  0  0  0  0  0  0  0  0  0  0  0
    6.5890   -4.5410   24.4920 C   0  0  2  0  0  0  0  0  0  0  0  0
    5.7050   -5.0450   23.4770 C   0  0  2  0  0  0  0  0  0  0  0  0
    6.0200   -5.0090   22.0780 C   0  0  0  0  0  0  0  0  0  0  0  0
    5.1160   -2.8620   23.1320 C   0  0  0  0  0  0  0  0  0  0  0  0
    4.6610   -4.0100   23.6740 C   0  0  2  0  0  0  0  0  0  0  0  0
    7.3370   -5.3570   27.3980 C   0  0  0  0  0  0  0  0  0  0  0  0
    8.6540   -5.5630   27.8670 C   0  0  0  0  0  0  0  0  0  0  0  0
    9.7490   -4.7850   27.3620 C   0  0  0  0  0  0  0  0  0  0  0  0
    9.7030   -3.7640   26.3920 C   0  0  0  0  0  0  0  0  0  0  0  0
    8.3600   -3.5250   25.8940 C   0  0  0  0  0  0  0  0  0  0  0  0
    7.1310   -4.3050   26.3590 C   0  0  0  0  0  0  0  0  0  0  0  0
  1  6  1  0
  3  6  2  0
  1  7  1  0
  4  8  1  0
  5  8  2  0
  7  8  1  6
  9 10  1  0
 12 13  1  0
 12 14  1  0
 12 15  1  0
 14 16  1  0
 17 19  2  0
  1 20  1  0
 17 21  1  0
 21 22  2  0
 21 23  1  0
 23 24  1  0
 25 26  2  0
 26 27  1  0
 27 28  2  0
  7 29  1  0
 28 29  1  0
 25 30  1  0
 29 30  2  0
 31 32  1  0
  1 33  1  1
 32 33  1  0
 33 34  2  0
 12 35  1  0
 31 35  2  0
 34 35  1  0
  9 36  1  0
 36 37  2  0
 37 38  1  0
 38 39  2  0
 11 40  1  0
 39 40  1  0
  4 41  1  0
 36 41  1  0
 40 41  2  0
 42  2  1  6
  6 42  1  0
 43 20  1  6
 42 43  1  0
 43 44  1  0
 45 19  1  1
 44 45  1  0
 45 46  1  0
 42 47  1  0
 46 47  1  6
 43 48  1  0
 49 17  1  1
 46 49  1  0
 48 49  1  0
 18 50  1  0
 50 51  2  0
 51 52  1  0
 52 53  2  0
 53 54  1  0
 19 55  1  0
 50 55  1  0
 54 55  2  0
M  END
