x2703-x1308-x0731
     RDKit          3D

 54 61  0  0  0  0  0  0  0  0999 V2000
    6.8300   -1.6590   22.0760 C   0  0  1  0  0  0  0  0  0  0  0  0
    7.1470   -4.9640   20.7790 C   0  0  0  0  0  0  0  0  0  0  0  0
    5.0320   -3.1980   20.8790 O   0  0  0  0  0  0  0  0  0  0  0  0
    7.2610   -3.9130   21.8600 C   0  0  1  0  0  0  0  0  0  0  0  0
    7.2140    1.8480   22.9190 N   0  0  0  0  0  0  0  0  0  0  0  0
    8.5860    0.8320   21.3500 O   0  0  0  0  0  0  0  0  0  0  0  0
    6.2030   -2.9180   21.4620 C   0  0  0  0  0  0  0  0  0  0  0  0
    6.3840   -0.1450   21.6950 C   0  0  1  0  0  0  0  0  0  0  0  0
    7.5210    0.8790   21.9630 C   0  0  0  0  0  0  0  0  0  0  0  0
    9.9350    1.9010   24.0790 C   0  0  0  0  0  0  0  0  0  0  0  0
    9.0630    1.2170   25.1580 C   0  0  0  0  0  0  0  0  0  0  0  0
    6.0730    4.3360   21.8030 C   0  0  0  0  0  0  0  0  0  0  0  0
   12.4030   -1.7800   23.9420 C   0  0  0  0  0  0  0  0  0  0  0  0
   12.8070   -2.9160   24.8680 C   0  0  0  0  0  0  0  0  0  0  0  0
   12.6860   -0.4650   24.6170 C   0  0  0  0  0  0  0  0  0  0  0  0
    0.5530   -1.1310   26.9480 C   0  0  0  0  0  0  0  0  0  0  0  0
    5.9390   -4.8870   27.0680 O   0  0  0  0  0  0  0  0  0  0  0  0
    4.3770   -6.7430   26.3070 O   0  0  0  0  0  0  0  0  0  0  0  0
    4.8260   -5.3680   26.2650 S   0  0  0  0  0  0  0  0  0  0  0  0
    5.9040   -2.3410   23.1340 C   0  0  0  0  0  0  0  0  0  0  0  0
    8.0750   -6.1220   24.0330 O   0  0  0  0  0  0  0  0  0  0  0  0
    6.8500   -6.1180   26.3880 O   0  0  0  0  0  0  0  0  0  0  0  0
    7.5650   -5.3630   25.0890 S   0  0  0  0  0  0  0  0  0  0  0  0
    6.3400    0.3830   17.8880 N   0  0  0  0  0  0  0  0  0  0  0  0
    5.1950    1.0580   17.7760 C   0  0  0  0  0  0  0  0  0  0  0  0
    4.2510    1.4180   18.8890 C   0  0  0  0  0  0  0  0  0  0  0  0
    4.6950    0.9600   20.2520 C   0  0  0  0  0  0  0  0  0  0  0  0
    5.9000    0.2750   20.3320 C   0  0  0  0  0  0  0  0  0  0  0  0
    6.6720    0.0010   19.1810 C   0  0  0  0  0  0  0  0  0  0  0  0
   10.6760   -2.1850   22.1070 N   0  0  0  0  0  0  0  0  0  0  0  0
   10.9640   -1.7670   23.4780 C   0  0  0  0  0  0  0  0  0  0  0  0
    9.9470   -1.3640   24.3000 C   0  0  0  0  0  0  0  0  0  0  0  0
    8.6340   -1.3410   23.8570 C   0  0  0  0  0  0  0  0  0  0  0  0
    8.3050   -1.7210   22.5490 C   0  0  0  0  0  0  0  0  0  0  0  0
    9.3730   -2.1330   21.7360 C   0  0  0  0  0  0  0  0  0  0  0  0
    9.3020    3.1350   23.5170 C   0  0  0  0  0  0  0  0  0  0  0  0
   10.0200    4.3530   23.5500 C   0  0  0  0  0  0  0  0  0  0  0  0
    9.5320    5.5540   23.0570 C   0  0  0  0  0  0  0  0  0  0  0  0
    8.2250    5.4290   22.5060 C   0  0  0  0  0  0  0  0  0  0  0  0
    7.4440    4.2540   22.4340 C   0  0  0  0  0  0  0  0  0  0  0  0
    8.0030    3.0780   22.9620 C   0  0  0  0  0  0  0  0  0  0  0  0
    5.5670   -4.8780   22.7720 C   0  0  1  0  0  0  0  0  0  0  0  0
    6.2930   -3.8590   23.0980 C   0  0  1  0  0  0  0  0  0  0  0  0
    6.2810   -4.3210   24.3390 C   0  0  2  0  0  0  0  0  0  0  0  0
    5.0200   -4.8860   24.7180 N   0  0  0  0  0  0  0  0  0  0  0  0
    4.6200   -5.7470   23.5650 C   0  0  2  0  0  0  0  0  0  0  0  0
    5.3380   -6.1880   22.3970 C   0  0  0  0  0  0  0  0  0  0  0  0
    4.0700   -2.9840   26.8070 C   0  0  0  0  0  0  0  0  0  0  0  0
    3.0740   -1.8700   26.9940 C   0  0  0  0  0  0  0  0  0  0  0  0
    1.5930   -2.1880   26.7480 C   0  0  0  0  0  0  0  0  0  0  0  0
    1.2130   -3.6070   26.3100 C   0  0  0  0  0  0  0  0  0  0  0  0
    2.3400   -4.6130   26.1680 C   0  0  0  0  0  0  0  0  0  0  0  0
    3.6490   -4.2510   26.4230 C   0  0  0  0  0  0  0  0  0  0  0  0
    0.1210   -0.5140   25.6590 C   0  0  0  0  0  0  0  0  0  0  0  0
  4  2  1  6
  1  7  1  0
  3  7  2  0
  4  7  1  0
  1  8  1  0
  5  9  1  0
  6  9  2  0
  8  9  1  6
 10 11  1  0
 13 14  1  0
 13 15  1  0
 17 19  2  0
 18 19  2  0
  1 20  1  0
 21 23  2  0
 22 23  2  0
 24 25  2  0
 25 26  1  0
 26 27  2  0
  8 28  1  0
 27 28  1  0
 24 29  1  0
 28 29  2  0
 13 31  1  0
 30 31  2  0
 31 32  1  0
 32 33  2  0
  1 34  1  1
 33 34  1  0
 30 35  1  0
 34 35  2  0
 10 36  1  0
 36 37  2  0
 37 38  1  0
 38 39  2  0
 12 40  1  0
 39 40  1  0
  5 41  1  0
 36 41  1  0
 40 41  2  0
  4 43  1  0
 43 20  1  1
 42 43  1  0
 44 23  1  1
 42 44  1  0
 43 44  1  0
 19 45  1  0
 44 45  1  0
 42 46  1  0
 45 46  1  0
 42 47  1  6
 46 47  1  1
 48 49  2  0
 16 50  1  0
 49 50  1  0
 50 51  2  0
 51 52  1  0
 19 53  1  0
 48 53  1  0
 52 53  2  0
 16 54  1  0
M  END
