x2705-x0981-x2608
     RDKit          3D

 47 49  0  0  0  0  0  0  0  0999 V2000
    6.9770   -1.7800   21.8620 N   0  0  0  0  0  0  0  0  0  0  0  0
    6.5340   -4.9520   20.2590 C   0  0  0  0  0  0  0  0  0  0  0  0
    4.7730   -2.9850   21.3030 O   0  0  0  0  0  0  0  0  0  0  0  0
    6.5090   -4.4520   21.6950 C   0  0  1  0  0  0  0  0  0  0  0  0
    7.3110    1.7930   22.7690 N   0  0  0  0  0  0  0  0  0  0  0  0
    8.8460    0.6490   21.5480 O   0  0  0  0  0  0  0  0  0  0  0  0
    6.0260   -2.9830   21.6280 C   0  0  0  0  0  0  0  0  0  0  0  0
    6.5830   -0.3680   21.6100 C   0  0  1  0  0  0  0  0  0  0  0  0
    7.6990    0.7260   21.9770 C   0  0  0  0  0  0  0  0  0  0  0  0
    9.9760    1.9590   24.0150 C   0  0  0  0  0  0  0  0  0  0  0  0
    9.0370    1.2860   25.0160 C   0  0  0  0  0  0  0  0  0  0  0  0
    5.9190    4.3780   21.6830 C   0  0  0  0  0  0  0  0  0  0  0  0
   12.0900   -1.7220   23.2800 C   0  0  0  0  0  0  0  0  0  0  0  0
   12.6890   -0.3820   23.7560 C   0  0  0  0  0  0  0  0  0  0  0  0
   12.5400   -2.7580   24.3220 C   0  0  0  0  0  0  0  0  0  0  0  0
   12.7690   -2.0370   21.9270 C   0  0  0  0  0  0  0  0  0  0  0  0
    1.3070   -8.5100   21.6880 C   0  0  0  0  0  0  0  0  0  0  0  0
    2.9990   -6.9480   22.7340 N   0  0  0  0  0  0  0  0  0  0  0  0
    0.4590   -6.4320   22.3320 O   0  0  0  0  0  0  0  0  0  0  0  0
    1.6230   -7.2820   22.2790 C   0  0  0  0  0  0  0  0  0  0  0  0
    2.6060   -8.0580   26.2900 N   0  0  0  0  0  0  0  0  0  0  0  0
    4.0430   -8.1850   24.5100 O   0  0  0  0  0  0  0  0  0  0  0  0
    3.2370   -5.8670   23.5730 C   0  0  1  0  0  0  0  0  0  0  0  0
    5.4690   -5.3610   22.3750 N   0  0  0  0  0  0  0  0  0  0  0  0
    4.9430   -4.2500   24.2610 O   0  0  0  0  0  0  0  0  0  0  0  0
    2.9830   -6.2260   24.8960 C   0  0  0  0  0  0  0  0  0  0  0  0
    3.2630   -7.5550   25.1950 C   0  0  0  0  0  0  0  0  0  0  0  0
    4.6200   -5.0870   23.4380 C   0  0  0  0  0  0  0  0  0  0  0  0
    6.3620    0.3210   17.8410 N   0  0  0  0  0  0  0  0  0  0  0  0
    5.2160    1.0860   17.8270 C   0  0  0  0  0  0  0  0  0  0  0  0
    4.4960    1.3740   18.9690 C   0  0  0  0  0  0  0  0  0  0  0  0
    4.9680    0.8730   20.1680 C   0  0  0  0  0  0  0  0  0  0  0  0
    6.1250    0.1020   20.2480 C   0  0  0  0  0  0  0  0  0  0  0  0
    6.7820   -0.1470   19.0340 C   0  0  0  0  0  0  0  0  0  0  0  0
    9.6460   -1.6100   24.2230 N   0  0  0  0  0  0  0  0  0  0  0  0
    8.3930   -1.6330   23.9030 N   0  0  0  0  0  0  0  0  0  0  0  0
    8.2800   -1.7630   22.5700 C   0  0  0  0  0  0  0  0  0  0  0  0
    9.6200   -1.8240   22.1340 C   0  0  0  0  0  0  0  0  0  0  0  0
   10.5310   -1.7230   23.1770 C   0  0  0  0  0  0  0  0  0  0  0  0
    9.2280    3.1830   23.4660 C   0  0  0  0  0  0  0  0  0  0  0  0
   10.0840    4.4730   23.6730 C   0  0  0  0  0  0  0  0  0  0  0  0
    9.5130    5.8000   23.1910 C   0  0  0  0  0  0  0  0  0  0  0  0
    8.1450    5.6480   22.5560 C   0  0  0  0  0  0  0  0  0  0  0  0
    7.3010    4.3980   22.3470 C   0  0  0  0  0  0  0  0  0  0  0  0
    7.9980    3.0880   22.8900 C   0  0  0  0  0  0  0  0  0  0  0  0
   12.8130    2.0830   22.8180 C   0  0  0  0  0  0  0  0  0  0  0  0
   11.9660    0.9050   23.4280 C   0  0  0  0  0  0  0  0  0  0  0  0
  4  2  1  6
  1  7  1  0
  3  7  2  0
  4  7  1  0
  1  8  1  0
  5  9  1  0
  6  9  2  0
  8  9  1  6
 10 11  1  0
 13 14  1  0
 13 15  1  0
 13 16  1  0
 17 20  1  0
 18 20  1  0
 19 20  2  0
 18 23  1  0
  4 24  1  0
 23 26  1  1
 21 27  1  0
 22 27  2  0
 26 27  1  0
 23 28  1  0
 24 28  1  0
 25 28  2  0
 29 30  2  0
 30 31  1  0
 31 32  2  0
  8 33  1  0
 32 33  1  0
 29 34  1  0
 33 34  2  0
 35 36  1  0
  1 37  1  0
 36 37  2  0
 37 38  1  0
 13 39  1  0
 35 39  1  0
 38 39  2  0
 10 40  1  0
 40 41  2  0
 41 42  1  0
 42 43  2  0
 12 44  1  0
 43 44  1  0
  5 45  1  0
 40 45  1  0
 44 45  2  0
 14 47  1  0
 46 47  1  0
M  END
