x2705-x0354
     RDKit          3D

 44 47  0  0  0  0  0  0  0  0999 V2000
    7.0450   -1.5790   21.6970 N   0  0  0  0  0  0  0  0  0  0  0  0
    6.8550   -4.9350   20.5500 C   0  0  0  0  0  0  0  0  0  0  0  0
    4.8760   -3.0500   21.1950 O   0  0  0  0  0  0  0  0  0  0  0  0
    6.9070   -4.0900   21.8300 C   0  0  0  0  0  0  0  0  0  0  0  0
    7.3960    1.8660   22.7700 N   0  0  0  0  0  0  0  0  0  0  0  0
    8.7790    0.7310   21.3730 O   0  0  0  0  0  0  0  0  0  0  0  0
    6.1640   -2.8160   21.5450 C   0  0  0  0  0  0  0  0  0  0  0  0
    6.6100   -0.1130   21.5630 C   0  0  1  0  0  0  0  0  0  0  0  0
    7.6720    0.8190   21.8840 C   0  0  0  0  0  0  0  0  0  0  0  0
   10.2090    2.0080   23.9490 C   0  0  0  0  0  0  0  0  0  0  0  0
    9.5600    1.3690   24.9980 C   0  0  0  0  0  0  0  0  0  0  0  0
    6.0080    4.3750   21.7810 C   0  0  0  0  0  0  0  0  0  0  0  0
   12.0020   -1.5160   23.3500 C   0  0  0  0  0  0  0  0  0  0  0  0
   12.4910   -0.2440   23.6990 C   0  0  0  0  0  0  0  0  0  0  0  0
   12.5570   -2.5260   24.3850 C   0  0  0  0  0  0  0  0  0  0  0  0
   12.6620   -1.8700   21.9980 C   0  0  0  0  0  0  0  0  0  0  0  0
    7.5910   -2.1910   25.5060 O   0  0  0  0  0  0  0  0  0  0  0  0
    7.6000   -0.5200   27.3650 O   0  0  0  0  0  0  0  0  0  0  0  0
    8.4790   -1.3460   25.4960 C   0  0  0  0  0  0  0  0  0  0  0  0
    8.4170   -0.3210   26.4660 C   0  0  0  0  0  0  0  0  0  0  0  0
    5.4550    3.7400   30.9510 C   0  0  0  0  0  0  0  0  0  0  0  0
    6.4570    0.5150   17.8760 N   0  0  0  0  0  0  0  0  0  0  0  0
    5.2170    1.3020   17.7070 C   0  0  0  0  0  0  0  0  0  0  0  0
    4.3560    1.6120   18.9240 C   0  0  0  0  0  0  0  0  0  0  0  0
    4.7310    1.1810   20.1720 C   0  0  0  0  0  0  0  0  0  0  0  0
    6.0190    0.3980   20.2900 C   0  0  0  0  0  0  0  0  0  0  0  0
    6.7480    0.1350   19.1440 C   0  0  0  0  0  0  0  0  0  0  0  0
    9.5080   -1.4190   24.5660 N   0  0  0  0  0  0  0  0  0  0  0  0
    8.2860   -1.4660   23.8420 N   0  0  0  0  0  0  0  0  0  0  0  0
    8.2630   -1.5640   22.4610 C   0  0  0  0  0  0  0  0  0  0  0  0
    9.7330   -1.6010   22.1690 C   0  0  0  0  0  0  0  0  0  0  0  0
   10.4340   -1.5130   23.3620 C   0  0  0  0  0  0  0  0  0  0  0  0
    9.4430    3.1910   23.4510 C   0  0  0  0  0  0  0  0  0  0  0  0
   10.0840    4.4200   23.5550 C   0  0  0  0  0  0  0  0  0  0  0  0
    9.5110    5.7510   23.1160 C   0  0  0  0  0  0  0  0  0  0  0  0
    8.1300    5.7250   22.5160 C   0  0  0  0  0  0  0  0  0  0  0  0
    7.3880    4.3860   22.3840 C   0  0  0  0  0  0  0  0  0  0  0  0
    8.1190    3.1160   22.8890 C   0  0  0  0  0  0  0  0  0  0  0  0
    7.7450    1.9450   28.1540 C   0  0  0  0  0  0  0  0  0  0  0  0
    7.1730    3.0090   29.0850 C   0  0  0  0  0  0  0  0  0  0  0  0
    6.0130    2.6920   30.0360 C   0  0  0  0  0  0  0  0  0  0  0  0
    5.4510    1.2760   30.0150 C   0  0  0  0  0  0  0  0  0  0  0  0
    6.0080    0.2000   29.0950 C   0  0  0  0  0  0  0  0  0  0  0  0
    7.1760    0.5200   28.1420 C   0  0  0  0  0  0  0  0  0  0  0  0
  2  4  1  0
  1  7  1  0
  3  7  2  0
  4  7  1  0
  1  8  1  0
  5  9  1  0
  6  9  2  0
  8  9  1  6
 10 11  1  0
 13 14  1  0
 13 15  1  0
 13 16  1  0
 17 19  2  0
 18 20  1  0
 19 20  1  0
 22 23  2  0
 23 24  1  0
 24 25  2  0
  8 26  1  0
 25 26  1  0
 22 27  1  0
 26 27  2  0
 19 28  1  0
 28 29  1  0
  1 30  1  0
 29 30  2  0
 30 31  1  0
 13 32  1  0
 28 32  1  0
 31 32  2  0
 10 33  1  0
 33 34  2  0
 34 35  1  0
 35 36  2  0
 12 37  1  0
 36 37  1  0
  5 38  1  0
 33 38  1  0
 37 38  2  0
 39 40  2  0
 21 41  1  0
 40 41  1  0
 41 42  2  0
 42 43  1  0
 18 44  1  0
 39 44  1  0
 43 44  2  0
M  END
