x2705-x0755-x2776-x1402
     RDKit          3D

 60 68  0  0  0  0  0  0  0  0999 V2000
    6.7180   -1.2850   22.1920 C   0  0  1  0  0  0  0  0  0  0  0  0
    7.1160   -4.0390   20.4550 C   0  0  0  0  0  0  0  0  0  0  0  0
    4.8810   -2.9950   21.0610 O   0  0  0  0  0  0  0  0  0  0  0  0
    7.3930   -3.0260   20.8640 C   0  0  0  0  0  0  0  0  0  0  0  0
    7.6090    2.1190   22.9380 N   0  0  0  0  0  0  0  0  0  0  0  0
    8.8340    1.3480   20.9910 O   0  0  0  0  0  0  0  0  0  0  0  0
    6.1520   -2.4760   21.3140 C   0  0  0  0  0  0  0  0  0  0  0  0
    6.5530    0.2240   21.6520 C   0  0  1  0  0  0  0  0  0  0  0  0
    7.7400    1.2610   21.8520 C   0  0  0  0  0  0  0  0  0  0  0  0
   10.0530    2.2730   24.0140 C   0  0  0  0  0  0  0  0  0  0  0  0
    9.1660    1.4620   24.9410 C   0  0  0  0  0  0  0  0  0  0  0  0
    6.1400    4.4570   21.9060 C   0  0  0  0  0  0  0  0  0  0  0  0
   11.9450   -1.5780   23.2260 C   0  0  0  0  0  0  0  0  0  0  0  0
   12.4310   -0.3110   23.8640 C   0  0  0  0  0  0  0  0  0  0  0  0
   12.0790   -2.3670   24.4870 C   0  0  0  0  0  0  0  0  0  0  0  0
   12.5140   -2.0400   21.9350 C   0  0  0  0  0  0  0  0  0  0  0  0
   13.4910   -2.7670   24.9820 C   0  0  0  0  0  0  0  0  0  0  0  0
   10.7470    6.0470   23.9160 O   0  0  0  0  0  0  0  0  0  0  0  0
   11.8630    6.2220   24.7920 C   0  0  0  0  0  0  0  0  0  0  0  0
    4.7680   -6.7600   25.4550 N   0  0  0  0  0  0  0  0  0  0  0  0
    6.7190   -4.8460   25.9210 O   0  0  0  0  0  0  0  0  0  0  0  0
    5.6290   -2.0200   25.9910 F   0  0  0  0  0  0  0  0  0  0  0  0
    5.7110   -5.2850   24.9790 S   0  0  2  0  0  0  0  0  0  0  0  0
    5.7580   -1.6460   23.2710 C   0  0  0  0  0  0  0  0  0  0  0  0
    5.1310   -2.7720   22.7370 C   0  0  0  0  0  0  0  0  0  0  0  0
    2.9110   -0.4750   26.1730 Cl  0  0  0  0  0  0  0  0  0  0  0  0
    6.3770    0.3300   17.9270 N   0  0  0  0  0  0  0  0  0  0  0  0
    5.2380    1.0210   17.7720 C   0  0  0  0  0  0  0  0  0  0  0  0
    4.4820    1.4480   18.9180 C   0  0  0  0  0  0  0  0  0  0  0  0
    4.8590    1.2020   20.2010 C   0  0  0  0  0  0  0  0  0  0  0  0
    6.0390    0.5050   20.2890 C   0  0  0  0  0  0  0  0  0  0  0  0
    6.7580    0.0850   19.1810 C   0  0  0  0  0  0  0  0  0  0  0  0
    9.8020   -1.2400   24.3130 N   0  0  0  0  0  0  0  0  0  0  0  0
    8.4660   -1.1730   24.0460 N   0  0  0  0  0  0  0  0  0  0  0  0
    8.2200   -1.3470   22.7290 C   0  0  0  0  0  0  0  0  0  0  0  0
    9.4700   -1.5430   22.1090 C   0  0  0  0  0  0  0  0  0  0  0  0
   10.4030   -1.4640   23.1360 C   0  0  0  0  0  0  0  0  0  0  0  0
    9.4140    3.5830   23.5740 C   0  0  0  0  0  0  0  0  0  0  0  0
   10.1970    4.7740   23.8040 C   0  0  0  0  0  0  0  0  0  0  0  0
    9.3330    5.7760   23.2660 C   0  0  0  0  0  0  0  0  0  0  0  0
    8.1020    5.6780   22.6870 C   0  0  0  0  0  0  0  0  0  0  0  0
    7.5000    4.5030   22.5520 C   0  0  0  0  0  0  0  0  0  0  0  0
    8.1290    3.4480   22.9920 C   0  0  0  0  0  0  0  0  0  0  0  0
    3.0450   -4.3920   24.9620 C   0  0  0  0  0  0  0  0  0  0  0  0
    4.3710   -3.9830   25.2150 C   0  0  0  0  0  0  0  0  0  0  0  0
    4.5050   -2.6730   25.6490 C   0  0  0  0  0  0  0  0  0  0  0  0
    3.2510   -2.0720   25.7100 C   0  0  0  0  0  0  0  0  0  0  0  0
    2.1980   -2.8420   25.3760 C   0  0  0  0  0  0  0  0  0  0  0  0
    1.8720   -3.9690   24.9960 C   0  0  0  0  0  0  0  0  0  0  0  0
    6.4960   -4.8640   21.7800 C   0  0  2  0  0  0  0  0  0  0  0  0
    6.1570   -3.8520   22.4890 C   0  0  1  0  0  0  0  0  0  0  0  0
    6.8240   -4.0560   23.4900 C   0  0  0  0  0  0  0  0  0  0  0  0
    6.6130   -5.3740   23.4540 C   0  0  1  0  0  0  0  0  0  0  0  0
    5.5040   -6.0660   22.9520 C   0  0  0  0  0  0  0  0  0  0  0  0
    5.3780   -5.2550   21.9600 C   0  0  2  0  0  0  0  0  0  0  0  0
    3.8770   -6.5080   26.4810 C   0  0  0  0  0  0  0  0  0  0  0  0
    6.0650   -5.3310   27.6150 O   0  0  0  0  0  0  0  0  0  0  0  0
    4.4940   -5.6890   27.7580 S   0  0  0  0  0  0  0  0  0  0  0  0
    1.6210   -6.0010   25.8270 F   0  0  0  0  0  0  0  0  0  0  0  0
    2.4020   -6.9270   26.4470 C   0  0  0  0  0  0  0  0  0  0  0  0
  2  4  1  0
  1  7  1  0
  3  7  2  0
  4  7  1  0
  1  8  1  0
  5  9  1  0
  6  9  2  0
  8  9  1  6
 10 11  1  0
 13 14  1  0
 13 15  1  0
 13 16  1  0
 15 17  1  0
 18 19  1  0
 20 23  2  0
 21 23  2  0
  1 24  1  0
 24 25  1  0
 27 28  2  0
 28 29  1  0
 29 30  2  0
  8 31  1  0
 30 31  1  0
 27 32  1  0
 31 32  2  0
 33 34  1  0
  1 35  1  1
 34 35  1  0
 35 36  2  0
 13 37  1  0
 33 37  2  0
 36 37  1  0
 10 38  1  0
 18 39  1  0
 38 39  2  0
 39 40  1  0
 40 41  2  0
 12 42  1  0
 41 42  1  0
  5 43  1  0
 38 43  1  0
 42 43  2  0
 23 45  1  6
 44 45  1  0
 22 46  1  0
 45 46  2  0
 26 47  1  0
 46 47  1  0
 44 48  1  0
 47 48  2  0
 44 49  2  0
 48 49  1  0
 50  2  1  6
 51 25  1  1
 50 51  1  0
 51 52  1  0
 23 53  1  0
 50 53  1  0
 53 52  1  1
 53 54  1  0
 50 55  1  0
 51 55  1  0
 55 54  1  1
 20 56  1  0
 56 58  2  0
 57 58  2  0
 56 60  1  0
 59 60  1  0
M  END
