x2705-x1375-x3117-x1458
     RDKit          3D

 54 58  0  0  0  0  0  0  0  0999 V2000
    7.0140   -1.6010   21.5480 N   0  0  0  0  0  0  0  0  0  0  0  0
    7.0940   -5.0510   20.3920 C   0  0  0  0  0  0  0  0  0  0  0  0
    4.8770   -3.0030   21.0440 O   0  0  0  0  0  0  0  0  0  0  0  0
    6.7680   -4.2390   21.6200 C   0  0  2  0  0  0  0  0  0  0  0  0
    7.4270    1.8350   22.7570 N   0  0  0  0  0  0  0  0  0  0  0  0
    8.8490    0.7620   21.3880 O   0  0  0  0  0  0  0  0  0  0  0  0
    6.1710   -2.8710   21.3840 C   0  0  0  0  0  0  0  0  0  0  0  0
    6.5980   -0.2400   21.4800 C   0  0  1  0  0  0  0  0  0  0  0  0
    7.7240    0.8070   21.8710 C   0  0  0  0  0  0  0  0  0  0  0  0
   10.0370    1.9140   23.9490 C   0  0  0  0  0  0  0  0  0  0  0  0
    9.2380    1.2280   25.0540 C   0  0  0  0  0  0  0  0  0  0  0  0
    6.1210    4.3370   21.7830 C   0  0  0  0  0  0  0  0  0  0  0  0
   12.0690   -1.5660   23.2580 C   0  0  0  0  0  0  0  0  0  0  0  0
   12.6090   -0.3390   24.0300 C   0  0  0  0  0  0  0  0  0  0  0  0
   12.5210   -2.8470   23.9590 C   0  0  0  0  0  0  0  0  0  0  0  0
   12.7470   -1.5940   21.8820 C   0  0  0  0  0  0  0  0  0  0  0  0
   13.1140   -2.7740   25.3410 C   0  0  0  0  0  0  0  0  0  0  0  0
    9.4740   -4.4820   26.5480 O   0  0  0  0  0  0  0  0  0  0  0  0
    2.3320   -6.6280   23.9150 O   0  0  0  0  0  0  0  0  0  0  0  0
    4.3230   -8.0960   24.3800 O   0  0  0  0  0  0  0  0  0  0  0  0
    7.2930   -3.5750   26.9380 N   0  0  0  0  0  0  0  0  0  0  0  0
    5.2480   -3.5270   25.6840 N   0  0  0  0  0  0  0  0  0  0  0  0
    8.1440   -4.6350   27.1800 C   0  0  2  0  0  0  0  0  0  0  0  0
    8.0290   -5.3900   28.3060 C   0  0  0  0  0  0  0  0  0  0  0  0
    6.6240   -3.0420   28.1150 C   0  0  0  0  0  0  0  0  0  0  0  0
    6.5880   -3.4020   25.7520 C   0  0  0  0  0  0  0  0  0  0  0  0
    6.3400    0.4600   17.8310 N   0  0  0  0  0  0  0  0  0  0  0  0
    5.2330    1.1920   17.7600 C   0  0  0  0  0  0  0  0  0  0  0  0
    4.4960    1.4750   18.9040 C   0  0  0  0  0  0  0  0  0  0  0  0
    4.9320    0.9910   20.1540 C   0  0  0  0  0  0  0  0  0  0  0  0
    6.0920    0.2510   20.1560 C   0  0  0  0  0  0  0  0  0  0  0  0
    6.7700   -0.0050   18.9920 C   0  0  0  0  0  0  0  0  0  0  0  0
    9.6920   -1.0820   24.0900 N   0  0  0  0  0  0  0  0  0  0  0  0
    8.4190   -1.1120   23.5960 N   0  0  0  0  0  0  0  0  0  0  0  0
    8.2950   -1.5330   22.2830 C   0  0  0  0  0  0  0  0  0  0  0  0
    9.6610   -1.7790   22.0110 C   0  0  0  0  0  0  0  0  0  0  0  0
   10.5280   -1.4950   23.0870 C   0  0  0  0  0  0  0  0  0  0  0  0
    9.3460    3.1670   23.4510 C   0  0  0  0  0  0  0  0  0  0  0  0
   10.0640    4.3560   23.6180 C   0  0  0  0  0  0  0  0  0  0  0  0
    9.4100    5.5400   23.1480 C   0  0  0  0  0  0  0  0  0  0  0  0
    8.1300    5.5260   22.5530 C   0  0  0  0  0  0  0  0  0  0  0  0
    7.4780    4.2920   22.4230 C   0  0  0  0  0  0  0  0  0  0  0  0
    8.0710    3.1110   22.8680 C   0  0  0  0  0  0  0  0  0  0  0  0
    7.7070   -3.2420   23.7130 C   0  0  0  0  0  0  0  0  0  0  0  0
    8.3900   -3.3230   24.9180 C   0  0  0  0  0  0  0  0  0  0  0  0
    8.9630   -4.5190   25.3470 C   0  0  0  0  0  0  0  0  0  0  0  0
    8.9500   -5.6770   24.6160 C   0  0  0  0  0  0  0  0  0  0  0  0
    8.2130   -5.6040   23.3140 C   0  0  0  0  0  0  0  0  0  0  0  0
    7.5590   -4.3250   22.8760 C   0  0  0  0  0  0  0  0  0  0  0  0
    4.7650   -4.5190   24.8860 C   0  0  0  0  0  0  0  0  0  0  0  0
    4.8350   -4.5050   23.3600 C   0  0  0  0  0  0  0  0  0  0  0  0
    4.6330   -5.9300   22.8690 C   0  0  0  0  0  0  0  0  0  0  0  0
    3.7450   -6.6420   24.2100 S   0  0  0  0  0  0  0  0  0  0  0  0
    4.1990   -5.6040   25.4360 C   0  0  0  0  0  0  0  0  0  0  0  0
  4  2  1  6
  1  7  1  0
  3  7  2  0
  4  7  1  0
  1  8  1  0
  5  9  1  0
  6  9  2  0
  8  9  1  6
 10 11  1  0
 13 14  1  0
 13 15  1  0
 13 16  1  0
 15 17  1  0
 18 23  1  0
 21 23  1  0
 23 24  1  1
 21 25  1  0
 21 26  1  0
 22 26  2  3
 27 28  2  0
 28 29  1  0
 29 30  2  0
  8 31  1  0
 30 31  1  0
 27 32  1  0
 31 32  2  0
 33 34  1  0
  1 35  1  0
 34 35  1  0
 35 36  2  0
 13 37  1  0
 33 37  2  0
 36 37  1  0
 10 38  1  0
 38 39  2  0
 39 40  1  0
 40 41  2  0
 12 42  1  0
 41 42  1  0
  5 43  1  0
 38 43  1  0
 42 43  2  0
 44 45  2  0
 18 46  1  0
 45 46  1  0
 46 47  2  0
 47 48  1  0
  4 49  1  0
 44 49  1  0
 48 49  2  0
 22 50  1  0
 50 51  1  0
 51 52  1  0
 53 19  1  0
 20 53  1  0
 52 53  1  0
 50 54  2  0
 53 54  1  0
M  END
