x2705-x0978-x1351
     RDKit          3D

 57 63  0  0  0  0  0  0  0  0999 V2000
    7.0180   -1.6420   22.0140 C   0  0  2  0  0  0  0  0  0  0  0  0
    7.1040   -5.0900   21.3410 C   0  0  0  0  0  0  0  0  0  0  0  0
    4.9340   -3.0630   20.9230 O   0  0  0  0  0  0  0  0  0  0  0  0
    7.4590    2.0420   22.9070 N   0  0  0  0  0  0  0  0  0  0  0  0
    8.5830    1.2220   21.1010 O   0  0  0  0  0  0  0  0  0  0  0  0
    6.0900   -2.8610   21.5300 C   0  0  0  0  0  0  0  0  0  0  0  0
    6.6580   -0.0770   21.7820 C   0  0  1  0  0  0  0  0  0  0  0  0
    7.6480    1.0930   21.9150 C   0  0  0  0  0  0  0  0  0  0  0  0
   10.0940    2.0760   24.0460 C   0  0  0  0  0  0  0  0  0  0  0  0
    9.2170    1.3320   25.0420 C   0  0  0  0  0  0  0  0  0  0  0  0
    6.1770    4.5400   21.8960 C   0  0  0  0  0  0  0  0  0  0  0  0
   12.4160   -1.5310   22.7510 C   0  0  0  0  0  0  0  0  0  0  0  0
   12.9310   -0.1490   23.2920 C   0  0  0  0  0  0  0  0  0  0  0  0
   12.9870   -2.5830   23.7070 C   0  0  0  0  0  0  0  0  0  0  0  0
   13.0090   -1.8240   21.3790 C   0  0  0  0  0  0  0  0  0  0  0  0
    2.2470   -5.4850   22.7970 N   0  0  0  0  0  0  0  0  0  0  0  0
    2.2230   -7.8380   24.8850 C   0  0  0  0  0  0  0  0  0  0  0  0
    4.4350   -8.0090   24.1840 O   0  0  0  0  0  0  0  0  0  0  0  0
    3.2130   -7.5160   23.7640 C   0  0  2  0  0  0  0  0  0  0  0  0
    5.7950   -5.9170   21.9960 N   0  0  0  0  0  0  0  0  0  0  0  0
    0.9620   -7.3830   22.1120 O   0  0  0  0  0  0  0  0  0  0  0  0
    3.3920   -6.0180   23.4850 C   0  0  1  0  0  0  0  0  0  0  0  0
    0.9880   -6.2370   22.5340 C   0  0  0  0  0  0  0  0  0  0  0  0
   -0.2820   -5.4770   22.8040 C   0  0  0  0  0  0  0  0  0  0  0  0
    4.7830   -5.4030   22.9920 C   0  0  0  0  0  0  0  0  0  0  0  0
    5.6940   -3.0520   25.4130 N   0  0  0  0  0  0  0  0  0  0  0  0
    7.5680   -3.1550   26.6640 O   0  0  0  0  0  0  0  0  0  0  0  0
    6.6060   -2.5140   26.2920 C   0  0  0  0  0  0  0  0  0  0  0  0
    6.3610    0.2670   17.8680 N   0  0  0  0  0  0  0  0  0  0  0  0
    5.1550    1.0770   17.8360 C   0  0  0  0  0  0  0  0  0  0  0  0
    4.5200    1.4290   19.0260 C   0  0  0  0  0  0  0  0  0  0  0  0
    4.9780    1.0590   20.2810 C   0  0  0  0  0  0  0  0  0  0  0  0
    6.1360    0.2900   20.4170 C   0  0  0  0  0  0  0  0  0  0  0  0
    6.8530   -0.1280   19.1260 C   0  0  0  0  0  0  0  0  0  0  0  0
   10.1740   -0.6700   23.5010 N   0  0  0  0  0  0  0  0  0  0  0  0
    8.8320   -0.7140   23.3000 N   0  0  0  0  0  0  0  0  0  0  0  0
    8.5410   -1.5590   22.2810 C   0  0  0  0  0  0  0  0  0  0  0  0
    9.7690   -2.0570   21.8490 C   0  0  0  0  0  0  0  0  0  0  0  0
   10.9050   -1.4610   22.6690 C   0  0  0  0  0  0  0  0  0  0  0  0
    9.3940    3.3220   23.5330 C   0  0  0  0  0  0  0  0  0  0  0  0
   10.1040    4.5090   23.6480 C   0  0  0  0  0  0  0  0  0  0  0  0
    9.5320    5.7040   23.1930 C   0  0  0  0  0  0  0  0  0  0  0  0
    8.2470    5.7020   22.6230 C   0  0  0  0  0  0  0  0  0  0  0  0
    7.5480    4.4930   22.5190 C   0  0  0  0  0  0  0  0  0  0  0  0
    8.1120    3.2910   22.9760 C   0  0  0  0  0  0  0  0  0  0  0  0
    6.8670   -4.0470   22.0780 C   0  0  2  0  0  0  0  0  0  0  0  0
    7.8180   -3.3170   23.0050 C   0  0  0  0  0  0  0  0  0  0  0  0
    6.9150   -2.3690   23.4990 C   0  0  2  0  0  0  0  0  0  0  0  0
    5.6770   -2.9250   23.9600 C   0  0  1  0  0  0  0  0  0  0  0  0
    5.0710   -4.1900   23.5440 C   0  0  0  0  0  0  0  0  0  0  0  0
    6.1180   -4.7390   23.0160 C   0  0  0  0  0  0  0  0  0  0  0  0
    7.1180   -0.6540   28.1490 C   0  0  0  0  0  0  0  0  0  0  0  0
    6.8010    0.6480   28.6020 C   0  0  0  0  0  0  0  0  0  0  0  0
    5.8800    1.4810   27.9680 C   0  0  0  0  0  0  0  0  0  0  0  0
    5.2120    1.0670   26.8350 C   0  0  0  0  0  0  0  0  0  0  0  0
    5.3790   -0.1730   26.2320 C   0  0  0  0  0  0  0  0  0  0  0  0
    6.3770   -1.1590   26.8690 C   0  0  0  0  0  0  0  0  0  0  0  0
  1  6  1  0
  3  6  2  0
  1  7  1  0
  4  8  1  0
  5  8  2  0
  7  8  1  6
  9 10  1  0
 12 13  1  0
 12 14  1  0
 12 15  1  0
 19 17  1  1
 18 19  1  0
  2 20  1  0
 22 16  1  6
 19 22  1  0
 16 23  1  0
 21 23  2  0
 23 24  1  0
 20 25  1  0
 22 25  1  0
 26 28  1  0
 27 28  2  0
 29 30  2  0
 30 31  1  0
 31 32  2  0
  7 33  1  0
 32 33  1  0
 29 34  1  0
 33 34  2  0
 35 36  1  0
  1 37  1  6
 36 37  2  0
 37 38  1  0
 12 39  1  0
 35 39  1  0
 38 39  2  0
  9 40  1  0
 40 41  2  0
 41 42  1  0
 42 43  2  0
 11 44  1  0
 43 44  1  0
  4 45  1  0
 40 45  1  0
 44 45  2  0
 46  2  1  6
 46  6  1  0
 46 47  1  0
  1 48  1  0
 48 47  1  6
 49 26  1  1
 48 49  1  0
 25 50  2  0
 49 50  1  0
 46 51  1  0
 50 51  1  0
 52 53  2  0
 53 54  1  0
 54 55  2  0
 55 56  1  0
 28 57  1  0
 52 57  1  0
 56 57  2  0
M  END
