x2703-x0689
     RDKit          3D

 48 52  0  0  0  0  0  0  0  0999 V2000
    6.6870   -1.3040   22.0920 C   0  0  1  0  0  0  0  0  0  0  0  0
    6.7660   -4.6810   20.7660 C   0  0  0  0  0  0  0  0  0  0  0  0
    4.7620   -2.8960   21.0700 O   0  0  0  0  0  0  0  0  0  0  0  0
    6.9100   -3.6330   21.7970 C   0  0  0  0  0  0  0  0  0  0  0  0
    7.4920    2.0640   23.0420 N   0  0  0  0  0  0  0  0  0  0  0  0
    8.5370    1.2050   20.9070 O   0  0  0  0  0  0  0  0  0  0  0  0
    5.9330   -2.5890   21.5630 C   0  0  0  0  0  0  0  0  0  0  0  0
    6.4190    0.1230   21.6810 C   0  0  1  0  0  0  0  0  0  0  0  0
    7.5250    1.1620   21.9170 C   0  0  0  0  0  0  0  0  0  0  0  0
   10.1490    1.9600   23.9600 C   0  0  0  0  0  0  0  0  0  0  0  0
    9.1980    1.1680   24.8890 C   0  0  0  0  0  0  0  0  0  0  0  0
    6.0280    4.4950   21.9710 C   0  0  0  0  0  0  0  0  0  0  0  0
   11.8980   -2.2230   24.5920 C   0  0  0  0  0  0  0  0  0  0  0  0
   13.0840   -2.3570   23.8920 C   0  0  0  0  0  0  0  0  0  0  0  0
   12.8100   -1.0250   24.6140 C   0  0  0  0  0  0  0  0  0  0  0  0
    3.9670   -6.4490   25.7570 O   0  0  0  0  0  0  0  0  0  0  0  0
    5.6980   -4.8040   26.5640 O   0  0  0  0  0  0  0  0  0  0  0  0
    4.7360   -5.2390   25.5700 S   0  0  0  0  0  0  0  0  0  0  0  0
    5.7710   -1.8080   23.2280 C   0  0  0  0  0  0  0  0  0  0  0  0
    6.3410    0.2690   17.8130 N   0  0  0  0  0  0  0  0  0  0  0  0
    5.1380    1.1250   17.7630 C   0  0  0  0  0  0  0  0  0  0  0  0
    4.4850    1.5240   18.9010 C   0  0  0  0  0  0  0  0  0  0  0  0
    4.8800    1.1910   20.1650 C   0  0  0  0  0  0  0  0  0  0  0  0
    6.0210    0.3960   20.2570 C   0  0  0  0  0  0  0  0  0  0  0  0
    6.8260   -0.1310   19.1280 C   0  0  0  0  0  0  0  0  0  0  0  0
   10.7120   -1.6670   22.4130 N   0  0  0  0  0  0  0  0  0  0  0  0
   10.6980   -1.9780   23.8410 C   0  0  0  0  0  0  0  0  0  0  0  0
    9.4920   -2.0370   24.5100 C   0  0  0  0  0  0  0  0  0  0  0  0
    8.2580   -1.8110   23.8810 C   0  0  0  0  0  0  0  0  0  0  0  0
    8.2340   -1.5120   22.5300 C   0  0  0  0  0  0  0  0  0  0  0  0
    9.4250   -1.4380   21.8060 C   0  0  0  0  0  0  0  0  0  0  0  0
    9.5460    3.2730   23.4860 C   0  0  0  0  0  0  0  0  0  0  0  0
   10.3900    4.4030   23.5430 C   0  0  0  0  0  0  0  0  0  0  0  0
    9.7650    5.7340   23.0420 C   0  0  0  0  0  0  0  0  0  0  0  0
    8.2950    5.7560   22.5130 C   0  0  0  0  0  0  0  0  0  0  0  0
    7.4420    4.4860   22.4820 C   0  0  0  0  0  0  0  0  0  0  0  0
    8.2470    3.2930   23.0290 C   0  0  0  0  0  0  0  0  0  0  0  0
    6.8800   -5.8480   21.6260 N   0  0  0  0  0  0  0  0  0  0  0  0
    5.5690   -6.4070   21.9400 C   0  0  0  0  0  0  0  0  0  0  0  0
    4.8150   -5.5530   22.7660 C   0  0  0  0  0  0  0  0  0  0  0  0
    5.5520   -5.3320   24.0520 N   0  0  0  0  0  0  0  0  0  0  0  0
    6.9770   -5.0180   23.9840 C   0  0  0  0  0  0  0  0  0  0  0  0
    7.6290   -5.5820   22.8670 C   0  0  0  0  0  0  0  0  0  0  0  0
    3.9670   -2.3490   25.9580 S   0  0  0  0  0  0  0  0  0  0  0  0
    3.4780   -3.9750   25.5880 C   0  0  0  0  0  0  0  0  0  0  0  0
    1.9680   -4.0660   25.3330 C   0  0  0  0  0  0  0  0  0  0  0  0
    1.3250   -2.6790   25.4880 C   0  0  0  0  0  0  0  0  0  0  0  0
    2.3890   -1.6750   25.8360 C   0  0  0  0  0  0  0  0  0  0  0  0
  2  4  1  0
  1  7  1  0
  3  7  2  0
  4  7  1  0
  1  8  1  0
  5  9  1  0
  6  9  2  0
  8  9  1  6
 10 11  1  0
 13 14  1  0
 13 15  1  0
 16 18  2  0
 17 18  2  0
  1 19  1  1
 20 21  2  0
 21 22  1  0
 22 23  2  0
  8 24  1  0
 23 24  1  0
 20 25  1  0
 24 25  2  0
 13 27  1  0
 26 27  2  0
 27 28  1  0
 28 29  2  0
  1 30  1  0
 29 30  1  0
 26 31  1  0
 30 31  2  0
 10 32  1  0
 32 33  2  0
 33 34  1  0
 34 35  2  0
 12 36  1  0
 35 36  1  0
  5 37  1  0
 32 37  1  0
 36 37  2  0
  2 38  1  0
 38 39  1  0
 39 40  1  0
 18 41  1  0
 40 41  1  0
 41 42  1  0
 38 43  1  0
 42 43  1  0
 18 45  1  0
 44 45  1  0
 45 46  2  0
 46 47  1  0
 44 48  1  0
 47 48  2  0
M  END
