x2703-x3124-x2754
     RDKit          3D

 49 54  0  0  0  0  0  0  0  0999 V2000
    6.8140   -1.8480   22.0630 C   0  0  2  0  0  0  0  0  0  0  0  0
    7.0490   -5.2170   20.9770 C   0  0  0  0  0  0  0  0  0  0  0  0
    4.9200   -3.0560   20.7190 O   0  0  0  0  0  0  0  0  0  0  0  0
    7.3020    1.8920   22.8350 N   0  0  0  0  0  0  0  0  0  0  0  0
    8.7530    0.7210   21.5160 O   0  0  0  0  0  0  0  0  0  0  0  0
    5.9690   -3.0230   21.4220 C   0  0  0  0  0  0  0  0  0  0  0  0
    6.5910   -0.2730   21.7430 C   0  0  1  0  0  0  0  0  0  0  0  0
    7.6360    0.8060   22.0320 C   0  0  0  0  0  0  0  0  0  0  0  0
   10.0040    1.8900   24.0130 C   0  0  0  0  0  0  0  0  0  0  0  0
    9.1280    1.1940   25.0370 C   0  0  0  0  0  0  0  0  0  0  0  0
    6.0980    4.3330   21.8030 C   0  0  0  0  0  0  0  0  0  0  0  0
   12.4280   -1.9190   24.0730 C   0  0  0  0  0  0  0  0  0  0  0  0
   12.8590   -2.9460   25.1730 C   0  0  0  0  0  0  0  0  0  0  0  0
   12.6670   -0.5330   24.6720 C   0  0  0  0  0  0  0  0  0  0  0  0
   13.3680   -2.1240   22.8980 C   0  0  0  0  0  0  0  0  0  0  0  0
    4.7710   -3.0110   25.2510 C   0  0  0  0  0  0  0  0  0  0  0  0
    3.6060   -3.3230   25.4870 O   0  0  0  0  0  0  0  0  0  0  0  0
    5.6630   -2.6700   26.3000 N   0  0  0  0  0  0  0  0  0  0  0  0
    5.1420   -1.9590   27.4720 C   0  0  0  0  0  0  0  0  0  0  0  0
    6.3710    0.3370   17.9900 N   0  0  0  0  0  0  0  0  0  0  0  0
    5.1310    1.0690   17.8660 C   0  0  0  0  0  0  0  0  0  0  0  0
    4.2610    1.3860   19.0550 C   0  0  0  0  0  0  0  0  0  0  0  0
    4.7730    0.9060   20.3640 C   0  0  0  0  0  0  0  0  0  0  0  0
    5.9950    0.2090   20.4200 C   0  0  0  0  0  0  0  0  0  0  0  0
    6.7240   -0.0440   19.2420 C   0  0  0  0  0  0  0  0  0  0  0  0
   10.8500   -2.3670   22.2440 N   0  0  0  0  0  0  0  0  0  0  0  0
   11.0030   -1.9330   23.5350 C   0  0  0  0  0  0  0  0  0  0  0  0
    9.9290   -1.5090   24.3240 C   0  0  0  0  0  0  0  0  0  0  0  0
    8.6440   -1.5080   23.8020 C   0  0  0  0  0  0  0  0  0  0  0  0
    8.4000   -1.9320   22.4970 C   0  0  0  0  0  0  0  0  0  0  0  0
    9.6060   -2.3900   21.7030 C   0  0  0  0  0  0  0  0  0  0  0  0
    9.3250    3.1250   23.4750 C   0  0  0  0  0  0  0  0  0  0  0  0
   10.0560    4.3210   23.5670 C   0  0  0  0  0  0  0  0  0  0  0  0
    9.4320    5.5970   23.0420 C   0  0  0  0  0  0  0  0  0  0  0  0
    8.1720    5.5450   22.4910 C   0  0  0  0  0  0  0  0  0  0  0  0
    7.4780    4.3330   22.4200 C   0  0  0  0  0  0  0  0  0  0  0  0
    8.0220    3.1210   22.9030 C   0  0  0  0  0  0  0  0  0  0  0  0
    6.5630   -4.3550   21.9150 C   0  0  2  0  0  0  0  0  0  0  0  0
    7.3410   -3.7390   23.0860 C   0  0  0  0  0  0  0  0  0  0  0  0
    6.4770   -2.6310   23.4390 C   0  0  2  0  0  0  0  0  0  0  0  0
    5.1340   -3.0220   23.7260 C   0  0  1  0  0  0  0  0  0  0  0  0
    4.6330   -4.2530   23.2840 C   0  0  0  0  0  0  0  0  0  0  0  0
    5.4290   -5.1130   22.5630 C   0  0  0  0  0  0  0  0  0  0  0  0
    6.9800   -4.5040   27.3670 C   0  0  0  0  0  0  0  0  0  0  0  0
    8.1930   -5.1840   27.6240 C   0  0  0  0  0  0  0  0  0  0  0  0
    9.3020   -4.7100   27.0550 C   0  0  0  0  0  0  0  0  0  0  0  0
    9.2760   -3.5800   26.2280 C   0  0  0  0  0  0  0  0  0  0  0  0
    8.0790   -2.9050   25.9730 C   0  0  0  0  0  0  0  0  0  0  0  0
    6.9110   -3.3700   26.5500 C   0  0  0  0  0  0  0  0  0  0  0  0
  1  6  1  0
  3  6  2  0
  1  7  1  0
  4  8  1  0
  5  8  2  0
  7  8  1  6
  9 10  1  0
 12 13  1  0
 12 14  1  0
 12 15  1  0
 16 17  2  0
 16 18  1  0
 18 19  1  0
 20 21  2  0
 21 22  1  0
 22 23  2  0
  7 24  1  0
 23 24  1  0
 20 25  1  0
 24 25  2  0
 12 27  1  0
 26 27  2  0
 27 28  1  0
 28 29  2  0
  1 30  1  6
 29 30  1  0
 26 31  1  0
 30 31  2  0
  9 32  1  0
 32 33  2  0
 33 34  1  0
 34 35  2  0
 11 36  1  0
 35 36  1  0
  4 37  1  0
 32 37  1  0
 36 37  2  0
 38  2  1  6
  6 38  1  0
 38 39  1  0
  1 40  1  0
 40 39  1  6
 41 16  1  1
 40 41  1  0
 41 42  1  0
 38 43  1  0
 42 43  1  0
 44 45  2  0
 45 46  1  0
 46 47  2  0
 47 48  1  0
 18 49  1  0
 44 49  1  0
 48 49  2  0
M  END
