x2703-x1077
     RDKit          3D

 41 44  0  0  0  0  0  0  0  0999 V2000
    6.8180   -1.5600   21.8240 N   0  0  0  0  0  0  0  0  0  0  0  0
    6.9920   -4.1860   20.0890 C   0  0  0  0  0  0  0  0  0  0  0  0
    4.7590   -3.1230   21.5880 O   0  0  0  0  0  0  0  0  0  0  0  0
    6.2390   -2.9190   19.8570 C   0  0  0  0  0  0  0  0  0  0  0  0
    7.3780    1.8130   22.9900 N   0  0  0  0  0  0  0  0  0  0  0  0
    8.7430    0.6960   21.4470 O   0  0  0  0  0  0  0  0  0  0  0  0
    5.8690   -2.5320   21.2020 C   0  0  0  0  0  0  0  0  0  0  0  0
    6.3980   -0.1380   21.6530 C   0  0  1  0  0  0  0  0  0  0  0  0
    7.6420    0.7740   21.9840 C   0  0  0  0  0  0  0  0  0  0  0  0
   10.0660    1.8410   24.0170 C   0  0  0  0  0  0  0  0  0  0  0  0
    9.1720    1.0590   25.0030 C   0  0  0  0  0  0  0  0  0  0  0  0
    6.0260    4.3440   21.8610 C   0  0  0  0  0  0  0  0  0  0  0  0
   11.8430   -2.3260   24.4000 C   0  0  0  0  0  0  0  0  0  0  0  0
   13.1080   -2.3570   23.8360 C   0  0  0  0  0  0  0  0  0  0  0  0
   12.7130   -1.0470   24.6490 C   0  0  0  0  0  0  0  0  0  0  0  0
    6.3550    0.4610   17.9290 N   0  0  0  0  0  0  0  0  0  0  0  0
    5.1880    1.1230   17.8080 C   0  0  0  0  0  0  0  0  0  0  0  0
    4.3410    1.4010   18.8500 C   0  0  0  0  0  0  0  0  0  0  0  0
    4.7270    0.9800   20.0990 C   0  0  0  0  0  0  0  0  0  0  0  0
    5.9190    0.3030   20.3220 C   0  0  0  0  0  0  0  0  0  0  0  0
    6.6760    0.0780   19.1770 C   0  0  0  0  0  0  0  0  0  0  0  0
   10.5840   -1.6810   22.1750 N   0  0  0  0  0  0  0  0  0  0  0  0
   10.5650   -2.0970   23.5370 C   0  0  0  0  0  0  0  0  0  0  0  0
    9.3460   -2.3640   24.3120 C   0  0  0  0  0  0  0  0  0  0  0  0
    8.0320   -2.2550   23.8790 C   0  0  0  0  0  0  0  0  0  0  0  0
    8.1120   -1.8140   22.5140 C   0  0  0  0  0  0  0  0  0  0  0  0
    9.3140   -1.5700   21.7710 C   0  0  0  0  0  0  0  0  0  0  0  0
    9.4090    3.1210   23.4870 C   0  0  0  0  0  0  0  0  0  0  0  0
   10.1220    4.2980   23.5160 C   0  0  0  0  0  0  0  0  0  0  0  0
    9.5960    5.5070   23.0460 C   0  0  0  0  0  0  0  0  0  0  0  0
    8.2880    5.6450   22.4910 C   0  0  0  0  0  0  0  0  0  0  0  0
    7.4120    4.3500   22.4210 C   0  0  0  0  0  0  0  0  0  0  0  0
    8.1120    3.0800   22.9850 C   0  0  0  0  0  0  0  0  0  0  0  0
    6.7770   -4.6560   25.6560 O   0  0  0  0  0  0  0  0  0  0  0  0
    7.2410   -5.6040   24.8280 C   0  0  0  0  0  0  0  0  0  0  0  0
    8.3280   -5.1440   23.8560 C   0  0  0  0  0  0  0  0  0  0  0  0
    9.4820   -4.7230   24.5190 C   0  0  0  0  0  0  0  0  0  0  0  0
    9.1780   -3.7980   25.6270 N   0  0  0  0  0  0  0  0  0  0  0  0
    8.7930   -4.5290   26.8540 C   0  0  0  0  0  0  0  0  0  0  0  0
    7.4100   -4.6240   26.9220 C   0  0  0  0  0  0  0  0  0  0  0  0
    8.1780   -2.7150   25.3040 C   0  0  0  0  0  0  0  0  0  0  0  0
  2  4  1  0
  1  7  1  0
  3  7  2  0
  4  7  1  0
  1  8  1  0
  5  9  1  0
  6  9  2  0
  8  9  1  6
 10 11  1  0
 13 14  1  0
 13 15  1  0
 16 17  2  0
 17 18  1  0
 18 19  2  0
  8 20  1  0
 19 20  1  0
 16 21  1  0
 20 21  2  0
 13 23  1  0
 22 23  2  0
 23 24  1  0
 24 25  2  0
  1 26  1  0
 25 26  1  0
 22 27  1  0
 26 27  2  0
 10 28  1  0
 28 29  2  0
 29 30  1  0
 30 31  2  0
 12 32  1  0
 31 32  1  0
  5 33  1  0
 28 33  1  0
 32 33  2  0
 34 35  1  0
 35 36  1  0
 36 37  1  0
 37 38  1  0
 38 39  1  0
 34 40  1  0
 39 40  1  0
 25 41  1  0
 38 41  1  0
M  END
