x2705-x0769
     RDKit          3D

 51 56  0  0  0  0  0  0  0  0999 V2000
    6.8470   -1.3090   22.0020 C   0  0  1  0  0  0  0  0  0  0  0  0
    6.7400   -3.8140   20.0090 C   0  0  0  0  0  0  0  0  0  0  0  0
    4.8100   -3.0350   21.2810 O   0  0  0  0  0  0  0  0  0  0  0  0
    6.5830   -2.3590   19.9660 C   0  0  0  0  0  0  0  0  0  0  0  0
    7.5410    2.0720   22.9500 N   0  0  0  0  0  0  0  0  0  0  0  0
    8.6200    1.2960   21.0620 O   0  0  0  0  0  0  0  0  0  0  0  0
    5.8890   -2.3180   21.1790 C   0  0  0  0  0  0  0  0  0  0  0  0
    6.6840    0.1880   21.7180 C   0  0  1  0  0  0  0  0  0  0  0  0
    7.6840    1.1830   21.8630 C   0  0  0  0  0  0  0  0  0  0  0  0
   10.1520    2.0680   24.0100 C   0  0  0  0  0  0  0  0  0  0  0  0
    9.3440    1.3240   24.8810 C   0  0  0  0  0  0  0  0  0  0  0  0
    6.1110    4.6620   21.8970 C   0  0  0  0  0  0  0  0  0  0  0  0
   12.1790   -1.5320   23.1560 C   0  0  0  0  0  0  0  0  0  0  0  0
   12.6540   -0.2560   23.5230 C   0  0  0  0  0  0  0  0  0  0  0  0
   12.6870   -2.5070   24.2470 C   0  0  0  0  0  0  0  0  0  0  0  0
   12.8280   -1.8990   21.8050 C   0  0  0  0  0  0  0  0  0  0  0  0
    5.9450   -5.2140   26.6050 O   0  0  0  0  0  0  0  0  0  0  0  0
    4.0620   -6.5390   25.5880 O   0  0  0  0  0  0  0  0  0  0  0  0
    5.7460   -2.3580   26.2070 F   0  0  0  0  0  0  0  0  0  0  0  0
    4.9140   -5.3690   25.6060 S   0  0  0  0  0  0  0  0  0  0  0  0
    6.1130   -1.8700   22.9080 C   0  0  0  0  0  0  0  0  0  0  0  0
    5.5630   -3.1480   22.5520 C   0  0  0  0  0  0  0  0  0  0  0  0
    6.3810    0.4640   17.8840 N   0  0  0  0  0  0  0  0  0  0  0  0
    5.1870    1.2160   17.7800 C   0  0  0  0  0  0  0  0  0  0  0  0
    4.3950    1.6560   18.9930 C   0  0  0  0  0  0  0  0  0  0  0  0
    4.8980    1.3030   20.2140 C   0  0  0  0  0  0  0  0  0  0  0  0
    6.1770    0.5140   20.3530 C   0  0  0  0  0  0  0  0  0  0  0  0
    6.8710    0.1140   19.2140 C   0  0  0  0  0  0  0  0  0  0  0  0
    9.8350   -1.6520   24.2650 N   0  0  0  0  0  0  0  0  0  0  0  0
    8.5280   -1.5990   23.9120 N   0  0  0  0  0  0  0  0  0  0  0  0
    8.2870   -1.4400   22.5760 C   0  0  0  0  0  0  0  0  0  0  0  0
    9.7230   -1.4000   22.0400 C   0  0  0  0  0  0  0  0  0  0  0  0
   10.6490   -1.5220   23.0600 C   0  0  0  0  0  0  0  0  0  0  0  0
    9.4900    3.3430   23.5390 C   0  0  0  0  0  0  0  0  0  0  0  0
   10.1790    4.5430   23.6320 C   0  0  0  0  0  0  0  0  0  0  0  0
    9.6800    5.9220   23.2010 C   0  0  0  0  0  0  0  0  0  0  0  0
    8.2810    5.9080   22.6130 C   0  0  0  0  0  0  0  0  0  0  0  0
    7.4910    4.6030   22.4950 C   0  0  0  0  0  0  0  0  0  0  0  0
    8.1850    3.3310   23.0010 C   0  0  0  0  0  0  0  0  0  0  0  0
    4.4350   -2.5770   26.0620 C   0  0  0  0  0  0  0  0  0  0  0  0
    3.8610   -3.9680   25.7690 C   0  0  0  0  0  0  0  0  0  0  0  0
    2.3320   -4.1240   25.6200 C   0  0  0  0  0  0  0  0  0  0  0  0
    1.3620   -2.9560   25.7540 C   0  0  0  0  0  0  0  0  0  0  0  0
    1.9660   -1.5980   26.0450 C   0  0  0  0  0  0  0  0  0  0  0  0
    3.4720   -1.3850   26.1990 C   0  0  0  0  0  0  0  0  0  0  0  0
    6.3580   -4.2550   21.6110 C   0  0  0  0  0  0  0  0  0  0  0  0
    5.6010   -5.4200   21.6730 C   0  0  0  0  0  0  0  0  0  0  0  0
    4.8650   -5.6770   22.8330 C   0  0  0  0  0  0  0  0  0  0  0  0
    5.6320   -5.2190   24.0380 N   0  0  0  0  0  0  0  0  0  0  0  0
    7.0800   -4.8610   23.8760 C   0  0  0  0  0  0  0  0  0  0  0  0
    7.4980   -4.7320   22.5220 C   0  0  0  0  0  0  0  0  0  0  0  0
  2  4  1  0
  1  7  1  0
  3  7  2  0
  4  7  1  0
  1  8  1  0
  5  9  1  0
  6  9  2  0
  8  9  1  6
 10 11  1  0
 13 14  1  0
 13 15  1  0
 13 16  1  0
 17 20  2  0
 18 20  2  0
  1 21  1  0
 21 22  1  0
 23 24  2  0
 24 25  1  0
 25 26  2  0
  8 27  1  0
 26 27  1  0
 23 28  1  0
 27 28  2  0
 29 30  1  0
  1 31  1  1
 30 31  2  0
 31 32  1  0
 13 33  1  0
 29 33  1  0
 32 33  2  0
 10 34  1  0
 34 35  2  0
 35 36  1  0
 36 37  2  0
 12 38  1  0
 37 38  1  0
  5 39  1  0
 34 39  1  0
 38 39  2  0
 19 40  1  0
 20 41  1  0
 40 41  2  0
 41 42  1  0
 42 43  2  0
 43 44  1  0
 40 45  1  0
 44 45  2  0
  2 46  1  0
 46 22  1  0
 46 47  1  0
 47 48  1  0
 20 49  1  0
 48 49  1  0
 49 50  1  0
 46 51  1  0
 50 51  1  0
M  END
