x2705-x0978-x2646-x1458
     RDKit          3D

 57 61  0  0  0  0  0  0  0  0999 V2000
    7.1590   -1.8340   21.9000 N   0  0  0  0  0  0  0  0  0  0  0  0
    6.9730   -5.1880   21.0570 C   0  0  0  0  0  0  0  0  0  0  0  0
    5.0380   -3.3900   21.4100 O   0  0  0  0  0  0  0  0  0  0  0  0
    7.3320    1.8590   22.7200 N   0  0  0  0  0  0  0  0  0  0  0  0
    9.0990    0.5380   21.5980 O   0  0  0  0  0  0  0  0  0  0  0  0
    6.3550   -3.1730   21.8430 C   0  0  0  0  0  0  0  0  0  0  0  0
    6.6700   -0.3790   21.6860 C   0  0  1  0  0  0  0  0  0  0  0  0
    7.7520    0.7020   22.0270 C   0  0  0  0  0  0  0  0  0  0  0  0
   10.1500    1.9860   23.9350 C   0  0  0  0  0  0  0  0  0  0  0  0
    9.3490    1.1800   24.9990 C   0  0  0  0  0  0  0  0  0  0  0  0
    6.0850    4.3730   21.8040 C   0  0  0  0  0  0  0  0  0  0  0  0
   12.1970   -1.5470   23.2360 C   0  0  0  0  0  0  0  0  0  0  0  0
   12.6400   -0.3580   24.0170 C   0  0  0  0  0  0  0  0  0  0  0  0
   12.5410   -2.5060   24.3190 C   0  0  0  0  0  0  0  0  0  0  0  0
   12.7200   -1.7490   21.8660 C   0  0  0  0  0  0  0  0  0  0  0  0
    2.0440   -5.7590   22.8690 N   0  0  0  0  0  0  0  0  0  0  0  0
    2.6850   -7.0220   25.3630 C   0  0  0  0  0  0  0  0  0  0  0  0
    4.6900   -7.7770   24.3720 O   0  0  0  0  0  0  0  0  0  0  0  0
    3.4020   -7.3590   24.0600 C   0  0  2  0  0  0  0  0  0  0  0  0
    5.6170   -4.9330   21.9920 N   0  0  0  0  0  0  0  0  0  0  0  0
    0.8230   -7.3980   21.9660 O   0  0  0  0  0  0  0  0  0  0  0  0
    3.2650   -6.4650   22.8250 C   0  0  2  0  0  0  0  0  0  0  0  0
    3.5640   -4.2030   22.5160 O   0  0  0  0  0  0  0  0  0  0  0  0
    0.8650   -6.2850   22.4640 C   0  0  0  0  0  0  0  0  0  0  0  0
   -0.4100   -5.5010   22.6090 C   0  0  0  0  0  0  0  0  0  0  0  0
    4.1900   -5.2470   22.3870 C   0  0  0  0  0  0  0  0  0  0  0  0
    4.2990    1.5330   21.3740 C   0  0  0  0  0  0  0  0  0  0  0  0
    7.0450   -3.3810   26.3990 N   0  0  0  0  0  0  0  0  0  0  0  0
    8.8400   -4.4900   27.1410 C   0  0  0  0  0  0  0  0  0  0  0  0
    4.9260   -3.6910   25.7330 O   0  0  0  0  0  0  0  0  0  0  0  0
    7.4380   -4.3640   27.2370 C   0  0  0  0  0  0  0  0  0  0  0  0
    6.7670   -5.6060   27.2090 C   0  0  0  0  0  0  0  0  0  0  0  0
    6.9020   -2.1870   26.9680 C   0  0  0  0  0  0  0  0  0  0  0  0
    6.1020   -3.5150   25.4370 C   0  0  0  0  0  0  0  0  0  0  0  0
    6.3420    0.0180   17.9360 N   0  0  0  0  0  0  0  0  0  0  0  0
    5.3100    0.8640   17.8500 C   0  0  0  0  0  0  0  0  0  0  0  0
    4.6360    1.3550   18.9550 C   0  0  0  0  0  0  0  0  0  0  0  0
    5.0460    0.9630   20.2160 C   0  0  0  0  0  0  0  0  0  0  0  0
    6.1180    0.0860   20.3430 C   0  0  0  0  0  0  0  0  0  0  0  0
    6.7380   -0.3660   19.1770 C   0  0  0  0  0  0  0  0  0  0  0  0
    9.9370   -1.1490   24.2310 N   0  0  0  0  0  0  0  0  0  0  0  0
    8.7090   -1.2410   23.8340 N   0  0  0  0  0  0  0  0  0  0  0  0
    8.5060   -1.6880   22.5120 C   0  0  0  0  0  0  0  0  0  0  0  0
    9.8400   -1.8790   22.0910 C   0  0  0  0  0  0  0  0  0  0  0  0
   10.6380   -1.5330   23.1690 C   0  0  0  0  0  0  0  0  0  0  0  0
    9.3720    3.1710   23.4290 C   0  0  0  0  0  0  0  0  0  0  0  0
    9.9940    4.4190   23.5330 C   0  0  0  0  0  0  0  0  0  0  0  0
    9.3800    5.5740   23.1030 C   0  0  0  0  0  0  0  0  0  0  0  0
    8.1190    5.5390   22.5470 C   0  0  0  0  0  0  0  0  0  0  0  0
    7.4530    4.3180   22.4220 C   0  0  0  0  0  0  0  0  0  0  0  0
    8.0710    3.1050   22.8660 C   0  0  0  0  0  0  0  0  0  0  0  0
    7.3130   -4.4670   22.2310 C   0  0  2  0  0  0  0  0  0  0  0  0
    8.4750   -3.6890   22.7190 C   0  0  0  0  0  0  0  0  0  0  0  0
    7.8870   -3.0590   23.8700 C   0  0  0  0  0  0  0  0  0  0  0  0
    6.4870   -3.4170   23.9530 C   0  0  1  0  0  0  0  0  0  0  0  0
    6.0340   -4.8050   23.4540 C   0  0  2  0  0  0  0  0  0  0  0  0
    7.2740   -5.3790   23.4010 C   0  0  0  0  0  0  0  0  0  0  0  0
  1  6  1  0
  3  6  2  0
  1  7  1  0
  4  8  1  0
  5  8  2  0
  7  8  1  6
  9 10  1  0
 12 13  1  0
 12 14  1  0
 12 15  1  0
 19 17  1  1
 18 19  1  0
  2 20  1  0
 22 16  1  1
 19 22  1  0
 16 24  1  0
 21 24  2  0
 24 25  1  0
 20 26  1  0
 22 26  1  0
 23 26  2  0
 28 31  1  0
 29 31  1  0
 31 32  1  0
 28 33  1  0
 28 34  1  0
 30 34  2  0
 35 36  2  0
 36 37  1  0
 27 38  1  0
 37 38  2  0
  7 39  1  0
 38 39  1  0
 35 40  1  0
 39 40  2  0
 41 42  1  0
  1 43  1  0
 42 43  1  0
 43 44  2  0
 12 45  1  0
 41 45  2  0
 44 45  1  0
  9 46  1  0
 46 47  2  0
 47 48  1  0
 48 49  2  0
 11 50  1  0
 49 50  1  0
  4 51  1  0
 46 51  1  0
 50 51  2  0
  2 52  1  0
 52  6  1  1
 52 53  1  0
 53 54  1  0
 55 34  1  1
 54 55  1  0
 56 20  1  6
 55 56  1  0
 52 57  1  0
 56 57  1  0
M  END
