x2705-x1311-x3117-x0689
     RDKit          3D

 55 60  0  0  0  0  0  0  0  0999 V2000
    6.9380   -1.8050   21.6900 N   0  0  0  0  0  0  0  0  0  0  0  0
    6.2510   -5.0400   20.6400 C   0  0  0  0  0  0  0  0  0  0  0  0
    4.6230   -2.9410   21.2440 O   0  0  0  0  0  0  0  0  0  0  0  0
    6.2040   -4.3190   21.8140 C   0  0  2  0  0  0  0  0  0  0  0  0
    7.6260    1.8240   22.8100 N   0  0  0  0  0  0  0  0  0  0  0  0
    8.7490    1.1160   21.0340 O   0  0  0  0  0  0  0  0  0  0  0  0
    5.8970   -2.9610   21.6040 C   0  0  0  0  0  0  0  0  0  0  0  0
    6.7140   -0.3260   21.5380 C   0  0  1  0  0  0  0  0  0  0  0  0
    7.8220    0.8710   21.7900 C   0  0  0  0  0  0  0  0  0  0  0  0
   10.2170    2.1810   24.0570 C   0  0  0  0  0  0  0  0  0  0  0  0
    9.4790    1.5110   25.2580 C   0  0  0  0  0  0  0  0  0  0  0  0
    6.2590    4.4200   21.7550 C   0  0  0  0  0  0  0  0  0  0  0  0
   12.1070   -1.5400   23.3570 C   0  0  0  0  0  0  0  0  0  0  0  0
   12.6850   -0.1970   23.9720 C   0  0  0  0  0  0  0  0  0  0  0  0
   12.9240   -2.7050   24.0780 C   0  0  0  0  0  0  0  0  0  0  0  0
   12.8390   -1.5800   21.9950 C   0  0  0  0  0  0  0  0  0  0  0  0
   12.4700   -2.9570   25.6460 C   0  0  0  0  0  0  0  0  0  0  0  0
    6.6660    0.3230   17.5900 N   0  0  0  0  0  0  0  0  0  0  0  0
    5.3400    0.9540   17.4110 C   0  0  0  0  0  0  0  0  0  0  0  0
    4.6030    1.3760   18.6610 C   0  0  0  0  0  0  0  0  0  0  0  0
    5.0260    0.9470   20.0660 C   0  0  0  0  0  0  0  0  0  0  0  0
    6.2390    0.1990   20.2140 C   0  0  0  0  0  0  0  0  0  0  0  0
    7.0030   -0.1770   18.8860 C   0  0  0  0  0  0  0  0  0  0  0  0
    9.7560   -1.4340   24.3610 N   0  0  0  0  0  0  0  0  0  0  0  0
    8.4540   -1.5230   23.9030 N   0  0  0  0  0  0  0  0  0  0  0  0
    8.2870   -1.7630   22.4670 C   0  0  0  0  0  0  0  0  0  0  0  0
    9.7490   -1.8580   22.0910 C   0  0  0  0  0  0  0  0  0  0  0  0
   10.5490   -1.5790   23.2760 C   0  0  0  0  0  0  0  0  0  0  0  0
    9.4820    3.3760   23.5200 C   0  0  0  0  0  0  0  0  0  0  0  0
   10.1120    4.6230   23.7810 C   0  0  0  0  0  0  0  0  0  0  0  0
    9.5550    5.7840   23.3300 C   0  0  0  0  0  0  0  0  0  0  0  0
    8.3060    5.6140   22.7630 C   0  0  0  0  0  0  0  0  0  0  0  0
    7.6280    4.3860   22.5000 C   0  0  0  0  0  0  0  0  0  0  0  0
    8.2240    3.1850   22.9680 C   0  0  0  0  0  0  0  0  0  0  0  0
    8.5660   -5.2910   22.4490 C   0  0  0  0  0  0  0  0  0  0  0  0
    9.6530   -5.6070   23.5510 C   0  0  0  0  0  0  0  0  0  0  0  0
    9.3780   -5.2290   24.8230 C   0  0  0  0  0  0  0  0  0  0  0  0
    8.3810   -4.4470   25.0090 C   0  0  0  0  0  0  0  0  0  0  0  0
    6.9210   -3.6820   24.4050 C   0  0  0  0  0  0  0  0  0  0  0  0
    7.3000   -4.5040   22.6920 C   0  0  0  0  0  0  0  0  0  0  0  0
    3.9650   -4.4300   26.1110 O   0  0  0  0  0  0  0  0  0  0  0  0
    2.4800   -5.3040   23.0630 O   0  0  0  0  0  0  0  0  0  0  0  0
    5.0820   -6.4040   24.8760 O   0  0  0  0  0  0  0  0  0  0  0  0
    4.5320   -5.0300   24.7280 S   0  0  0  0  0  0  0  0  0  0  0  0
    4.7720   -6.6960   21.9230 C   0  0  0  0  0  0  0  0  0  0  0  0
    5.4720   -5.3910   22.3430 C   0  0  0  0  0  0  0  0  0  0  0  0
    5.0220   -4.3280   23.2970 C   0  0  1  0  0  0  0  0  0  0  0  0
    3.8140   -5.5620   24.1730 S   0  0  2  0  0  0  0  0  0  0  0  0
    3.9860   -7.1710   23.3310 C   0  0  0  0  0  0  0  0  0  0  0  0
    3.9270   -2.7190   25.6920 S   0  0  0  0  0  0  0  0  0  0  0  0
    3.1350   -4.0780   25.0540 C   0  0  0  0  0  0  0  0  0  0  0  0
    1.8640   -4.3530   24.7870 C   0  0  0  0  0  0  0  0  0  0  0  0
    1.3000   -2.8800   25.4020 C   0  0  0  0  0  0  0  0  0  0  0  0
    2.5170   -1.8710   25.8410 C   0  0  0  0  0  0  0  0  0  0  0  0
    6.0080   -3.2040   24.0260 C   0  0  0  0  0  0  0  0  0  0  0  0
  4  2  1  6
  1  7  1  0
  3  7  2  0
  4  7  1  0
  1  8  1  0
  5  9  1  0
  6  9  2  0
  8  9  1  6
 10 11  1  0
 13 14  1  0
 13 15  1  0
 13 16  1  0
 15 17  1  0
 18 19  2  0
 19 20  1  0
 20 21  2  0
  8 22  1  0
 21 22  1  0
 18 23  1  0
 22 23  2  0
 24 25  1  0
  1 26  1  0
 25 26  1  0
 26 27  2  0
 13 28  1  0
 24 28  2  0
 27 28  1  0
 10 29  1  0
 29 30  2  0
 30 31  1  0
 31 32  2  0
 12 33  1  0
 32 33  1  0
  5 34  1  0
 29 34  1  0
 33 34  2  0
 35 36  2  0
 36 37  1  0
 37 38  2  0
 38 39  1  0
  4 40  1  0
 35 40  1  0
 39 40  2  0
 41 44  2  0
 43 44  2  0
 45 46  1  0
 44 47  1  0
 46 47  1  0
 48 42  1  6
 47 48  1  0
 45 49  2  0
 48 49  1  0
 44 51  1  0
 50 51  1  0
 51 52  2  0
 52 53  1  0
 50 54  1  0
 53 54  2  0
 39 55  1  0
 47 55  1  1
M  END
