x2705-x0689-x2776-x0771
     RDKit          3D

 59 68  0  0  0  0  0  0  0  0999 V2000
    6.9700   -1.6060   21.8700 C   0  0  1  0  0  0  0  0  0  0  0  0
    8.0980   -4.1180   20.9290 C   0  0  0  0  0  0  0  0  0  0  0  0
    5.2300   -3.5850   20.5410 O   0  0  0  0  0  0  0  0  0  0  0  0
    6.8510   -3.8300   21.3940 C   0  0  2  0  0  0  0  0  0  0  0  0
    7.5370    1.8980   22.8840 N   0  0  0  0  0  0  0  0  0  0  0  0
    8.6530    1.2270   21.0290 O   0  0  0  0  0  0  0  0  0  0  0  0
    5.9330   -2.6210   21.0970 C   0  0  0  0  0  0  0  0  0  0  0  0
    6.6630   -0.0280   21.5820 C   0  0  1  0  0  0  0  0  0  0  0  0
    7.7010    1.0460   21.7990 C   0  0  0  0  0  0  0  0  0  0  0  0
   10.0770    2.2160   23.9930 C   0  0  0  0  0  0  0  0  0  0  0  0
    9.2330    1.3810   24.9150 C   0  0  0  0  0  0  0  0  0  0  0  0
    6.0050    4.2060   21.8440 C   0  0  0  0  0  0  0  0  0  0  0  0
   12.2130   -1.5690   23.1090 C   0  0  0  0  0  0  0  0  0  0  0  0
   12.7690   -0.2610   23.7150 C   0  0  0  0  0  0  0  0  0  0  0  0
   12.7630   -2.8020   23.8640 C   0  0  0  0  0  0  0  0  0  0  0  0
   12.8350   -1.6690   21.6990 C   0  0  0  0  0  0  0  0  0  0  0  0
   13.4480   -2.6390   25.2390 C   0  0  0  0  0  0  0  0  0  0  0  0
   10.8280    6.0240   23.9220 O   0  0  0  0  0  0  0  0  0  0  0  0
   11.8910    6.2280   24.8440 C   0  0  0  0  0  0  0  0  0  0  0  0
    5.4360   -7.0720   26.7900 O   0  0  0  0  0  0  0  0  0  0  0  0
    6.6760   -4.8320   27.0360 O   0  0  0  0  0  0  0  0  0  0  0  0
    6.5180   -5.9770   26.1920 S   0  0  0  0  0  0  0  0  0  0  0  0
    6.1800   -2.3330   23.0370 C   0  0  0  0  0  0  0  0  0  0  0  0
    3.9040   -5.9660   25.9790 N   0  0  0  0  0  0  0  0  0  0  0  0
    5.2780   -3.5860   26.3890 O   0  0  0  0  0  0  0  0  0  0  0  0
    4.6720   -4.7130   25.4470 S   0  0  1  0  0  0  0  0  0  0  0  0
    6.3890    0.3350   17.8040 N   0  0  0  0  0  0  0  0  0  0  0  0
    5.1780    1.1650   17.8110 C   0  0  0  0  0  0  0  0  0  0  0  0
    4.5010    1.5510   18.9370 C   0  0  0  0  0  0  0  0  0  0  0  0
    4.9920    1.1440   20.1550 C   0  0  0  0  0  0  0  0  0  0  0  0
    6.1450    0.3630   20.2240 C   0  0  0  0  0  0  0  0  0  0  0  0
    6.8170   -0.0310   19.0300 C   0  0  0  0  0  0  0  0  0  0  0  0
    9.8730   -1.4140   24.1960 N   0  0  0  0  0  0  0  0  0  0  0  0
    8.4450   -1.4440   23.8260 N   0  0  0  0  0  0  0  0  0  0  0  0
    8.4070   -1.6120   22.4880 C   0  0  0  0  0  0  0  0  0  0  0  0
    9.7390   -1.6960   22.0820 C   0  0  0  0  0  0  0  0  0  0  0  0
   10.6570   -1.5660   23.1200 C   0  0  0  0  0  0  0  0  0  0  0  0
    9.3950    3.4480   23.5420 C   0  0  0  0  0  0  0  0  0  0  0  0
   10.2680    4.7640   23.8020 C   0  0  0  0  0  0  0  0  0  0  0  0
    9.4170    5.7550   23.2760 C   0  0  0  0  0  0  0  0  0  0  0  0
    8.0230    5.6390   22.6240 C   0  0  0  0  0  0  0  0  0  0  0  0
    7.3670    4.2950   22.4810 C   0  0  0  0  0  0  0  0  0  0  0  0
    8.1090    3.2200   22.9700 C   0  0  0  0  0  0  0  0  0  0  0  0
    5.8310   -4.9530   22.6880 C   0  0  1  0  0  0  0  0  0  0  0  0
    4.6420   -5.2430   23.0050 C   0  0  0  0  0  0  0  0  0  0  0  0
    5.4010   -6.3360   23.5460 C   0  0  2  0  0  0  0  0  0  0  0  0
    6.0000   -5.4490   24.5620 C   0  0  2  0  0  0  0  0  0  0  0  0
    6.8840   -4.6020   23.8710 C   0  0  2  0  0  0  0  0  0  0  0  0
    6.5320   -3.8430   22.8420 C   0  0  1  0  0  0  0  0  0  0  0  0
    1.8890   -6.1400   24.7070 C   0  0  0  0  0  0  0  0  0  0  0  0
    1.7620   -2.7490   25.8160 C   0  0  0  0  0  0  0  0  0  0  0  0
    1.3310   -3.8430   25.3260 C   0  0  0  0  0  0  0  0  0  0  0  0
    2.0210   -4.8970   25.1650 C   0  0  0  0  0  0  0  0  0  0  0  0
    2.9990   -4.1880   25.6840 C   0  0  0  0  0  0  0  0  0  0  0  0
    3.2540   -2.8440   26.2090 C   0  0  0  0  0  0  0  0  0  0  0  0
    2.1030   -1.6920   26.2690 C   0  0  0  0  0  0  0  0  0  0  0  0
    3.1740   -6.8350   25.1150 C   0  0  0  0  0  0  0  0  0  0  0  0
    0.2440   -0.2940   26.5800 C   0  0  0  0  0  0  0  0  0  0  0  0
    1.6330   -0.2970   26.6120 C   0  0  0  0  0  0  0  0  0  0  0  0
  4  2  1  1
  1  7  1  0
  3  7  2  0
  4  7  1  0
  1  8  1  0
  5  9  1  0
  6  9  2  0
  8  9  1  6
 10 11  1  0
 13 14  1  0
 13 15  1  0
 13 16  1  0
 15 17  1  0
 18 19  1  0
 20 22  2  0
 21 22  2  0
  1 23  1  0
 24 26  2  0
 25 26  2  0
 27 28  2  0
 28 29  1  0
 29 30  2  0
  8 31  1  0
 30 31  1  0
 27 32  1  0
 31 32  2  0
 33 34  1  0
  1 35  1  1
 34 35  2  0
 35 36  1  0
 13 37  1  0
 33 37  1  0
 36 37  2  0
 10 38  1  0
 18 39  1  0
 38 39  2  0
 39 40  1  0
 40 41  2  0
 12 42  1  0
 41 42  1  0
  5 43  1  0
 38 43  1  0
 42 43  2  0
 44 45  1  1
 44 46  1  0
 46 45  1  1
 47 22  1  1
 26 47  1  1
 46 47  1  0
 44 48  1  0
 48 47  1  1
  4 49  1  0
 49 23  1  1
 44 49  1  0
 48 49  1  0
 51 52  1  0
 50 53  1  0
 52 53  2  0
 52 54  1  0
 53 54  1  0
 51 55  1  0
 54 55  2  0
 51 56  2  0
 55 56  1  0
 24 57  1  0
 50 57  1  0
 56 59  1  0
 58 59  1  0
M  END
