x2705-x1374-x2776-x1458
     RDKit          3D

 56 60  0  0  0  0  0  0  0  0999 V2000
    6.8490   -1.2810   21.8370 N   0  0  0  0  0  0  0  0  0  0  0  0
    7.4510   -4.6790   20.6850 C   0  0  0  0  0  0  0  0  0  0  0  0
    4.8800   -3.0150   21.1340 O   0  0  0  0  0  0  0  0  0  0  0  0
    7.3720   -3.4480   21.4100 C   0  0  1  0  0  0  0  0  0  0  0  0
    7.5830    2.0330   22.9150 N   0  0  0  0  0  0  0  0  0  0  0  0
    8.5350    1.3840   20.9630 O   0  0  0  0  0  0  0  0  0  0  0  0
    6.2050   -2.6310   21.4170 C   0  0  0  0  0  0  0  0  0  0  0  0
    6.5930    0.0990   21.4380 C   0  0  1  0  0  0  0  0  0  0  0  0
    7.5680    1.1700   21.8070 C   0  0  0  0  0  0  0  0  0  0  0  0
   10.0660    2.2770   24.0170 C   0  0  0  0  0  0  0  0  0  0  0  0
    9.1740    1.5080   24.9600 C   0  0  0  0  0  0  0  0  0  0  0  0
    6.1120    4.4180   21.8480 C   0  0  0  0  0  0  0  0  0  0  0  0
   11.9110   -1.5220   23.4650 C   0  0  0  0  0  0  0  0  0  0  0  0
   12.4830   -0.2560   24.0660 C   0  0  0  0  0  0  0  0  0  0  0  0
   12.0810   -2.6460   24.4660 C   0  0  0  0  0  0  0  0  0  0  0  0
   12.7070   -1.7760   22.1810 C   0  0  0  0  0  0  0  0  0  0  0  0
   13.4050   -2.8090   25.1460 C   0  0  0  0  0  0  0  0  0  0  0  0
   10.7720    5.9900   23.8760 O   0  0  0  0  0  0  0  0  0  0  0  0
   11.8380    6.2000   24.7990 C   0  0  0  0  0  0  0  0  0  0  0  0
    9.3960   -4.3380   26.2970 C   0  0  0  0  0  0  0  0  0  0  0  0
    2.2720   -6.7730   23.3550 O   0  0  0  0  0  0  0  0  0  0  0  0
    4.1440   -8.2020   24.3970 O   0  0  0  0  0  0  0  0  0  0  0  0
    7.1160   -3.4940   26.6940 N   0  0  0  0  0  0  0  0  0  0  0  0
    5.1700   -3.5450   25.3360 N   0  0  0  0  0  0  0  0  0  0  0  0
    8.0570   -4.4970   27.0440 C   0  0  2  0  0  0  0  0  0  0  0  0
    8.0600   -4.9590   28.4980 C   0  0  0  0  0  0  0  0  0  0  0  0
    6.7000   -2.6810   27.6340 C   0  0  0  0  0  0  0  0  0  0  0  0
    6.4820   -3.4410   25.4670 C   0  0  0  0  0  0  0  0  0  0  0  0
    6.2740    0.2950   17.8140 N   0  0  0  0  0  0  0  0  0  0  0  0
    5.2050    1.0670   17.7820 C   0  0  0  0  0  0  0  0  0  0  0  0
    4.5950    1.4950   18.8650 C   0  0  0  0  0  0  0  0  0  0  0  0
    5.1110    1.1220   20.0770 C   0  0  0  0  0  0  0  0  0  0  0  0
    6.2230    0.3300   20.2120 C   0  0  0  0  0  0  0  0  0  0  0  0
    6.7930   -0.0840   18.9870 C   0  0  0  0  0  0  0  0  0  0  0  0
    9.6320   -0.9070   24.2560 N   0  0  0  0  0  0  0  0  0  0  0  0
    8.3540   -0.8710   23.7860 N   0  0  0  0  0  0  0  0  0  0  0  0
    8.1640   -1.2810   22.4660 C   0  0  0  0  0  0  0  0  0  0  0  0
    9.4710   -1.6030   22.0920 C   0  0  0  0  0  0  0  0  0  0  0  0
   10.3930   -1.3530   23.2600 C   0  0  0  0  0  0  0  0  0  0  0  0
    9.4090    3.5640   23.5430 C   0  0  0  0  0  0  0  0  0  0  0  0
   10.2020    4.7340   23.7680 C   0  0  0  0  0  0  0  0  0  0  0  0
    9.3370    5.7290   23.2140 C   0  0  0  0  0  0  0  0  0  0  0  0
    8.1020    5.6030   22.6340 C   0  0  0  0  0  0  0  0  0  0  0  0
    7.4700    4.4210   22.4990 C   0  0  0  0  0  0  0  0  0  0  0  0
    8.1260    3.3710   22.9640 C   0  0  0  0  0  0  0  0  0  0  0  0
    8.8930   -4.4970   24.9360 C   0  0  0  0  0  0  0  0  0  0  0  0
    8.5870   -3.4640   24.1780 C   0  0  0  0  0  0  0  0  0  0  0  0
    7.9820   -3.3430   22.7930 C   0  0  0  0  0  0  0  0  0  0  0  0
    7.8700   -4.7500   22.6060 C   0  0  0  0  0  0  0  0  0  0  0  0
    8.1680   -5.8480   23.3140 C   0  0  0  0  0  0  0  0  0  0  0  0
    8.6950   -5.7320   24.4980 C   0  0  0  0  0  0  0  0  0  0  0  0
    4.7620   -4.6320   24.6190 C   0  0  0  0  0  0  0  0  0  0  0  0
    5.0930   -4.8860   23.1220 C   0  0  0  0  0  0  0  0  0  0  0  0
    4.9300   -6.2390   22.7660 C   0  0  0  0  0  0  0  0  0  0  0  0
    3.7430   -6.7710   23.9600 S   0  0  0  0  0  0  0  0  0  0  0  0
    4.0280   -5.5700   25.1980 C   0  0  0  0  0  0  0  0  0  0  0  0
  4  2  1  1
  1  7  1  0
  3  7  2  0
  4  7  1  0
  1  8  1  0
  5  9  1  0
  6  9  2  0
  8  9  1  6
 10 11  1  0
 13 14  1  0
 13 15  1  0
 13 16  1  0
 15 17  1  0
 18 19  1  0
 20 25  1  0
 23 25  1  0
 25 26  1  1
 23 27  1  0
 23 28  1  0
 24 28  2  3
 29 30  2  0
 30 31  1  0
 31 32  2  0
  8 33  1  0
 32 33  1  0
 29 34  1  0
 33 34  2  0
 35 36  1  0
  1 37  1  0
 36 37  1  0
 37 38  2  0
 13 39  1  0
 35 39  2  0
 38 39  1  0
 10 40  1  0
 18 41  1  0
 40 41  2  0
 41 42  1  0
 42 43  2  0
 12 44  1  0
 43 44  1  0
  5 45  1  0
 40 45  1  0
 44 45  2  0
 20 46  1  0
 46 47  2  0
  4 48  1  0
 47 48  1  0
 48 49  2  0
 49 50  1  0
 46 51  1  0
 50 51  2  0
 24 52  1  0
 52 53  1  0
 53 54  1  0
 55 21  1  0
 22 55  1  0
 54 55  1  0
 52 56  2  0
 55 56  1  0
M  END
