x2703-x0540
     RDKit          3D

 45 48  0  0  0  0  0  0  0  0999 V2000
    6.9140   -1.7550   21.8600 N   0  0  0  0  0  0  0  0  0  0  0  0
    6.6920   -4.9610   20.4240 C   0  0  0  0  0  0  0  0  0  0  0  0
    4.8180   -3.0150   21.2350 O   0  0  0  0  0  0  0  0  0  0  0  0
    6.7550   -4.2500   21.7850 C   0  0  0  0  0  0  0  0  0  0  0  0
    7.3980    1.7920   22.8180 N   0  0  0  0  0  0  0  0  0  0  0  0
    8.8800    0.4800   21.5920 O   0  0  0  0  0  0  0  0  0  0  0  0
    6.0620   -2.9270   21.6010 C   0  0  0  0  0  0  0  0  0  0  0  0
    6.5150   -0.3420   21.5960 C   0  0  1  0  0  0  0  0  0  0  0  0
    7.7270    0.6170   21.9810 C   0  0  0  0  0  0  0  0  0  0  0  0
   10.2040    1.7590   23.8970 C   0  0  0  0  0  0  0  0  0  0  0  0
    9.2510    0.9780   24.8240 C   0  0  0  0  0  0  0  0  0  0  0  0
    6.1610    4.2380   21.8780 C   0  0  0  0  0  0  0  0  0  0  0  0
   12.4740   -2.2820   23.8930 C   0  0  0  0  0  0  0  0  0  0  0  0
   12.8380   -2.7440   25.1550 C   0  0  0  0  0  0  0  0  0  0  0  0
   12.8910   -1.1530   24.8760 C   0  0  0  0  0  0  0  0  0  0  0  0
    2.8620    1.4440   24.4950 O   0  0  0  0  0  0  0  0  0  0  0  0
    2.8880    2.4100   23.5200 C   0  0  0  0  0  0  0  0  0  0  0  0
    4.0770    2.7850   22.7560 N   0  0  0  0  0  0  0  0  0  0  0  0
    4.6130    1.6240   22.3440 C   0  0  0  0  0  0  0  0  0  0  0  0
    3.9530    1.0030   21.2920 C   0  0  0  0  0  0  0  0  0  0  0  0
    1.8510    3.1590   23.1190 N   0  0  0  0  0  0  0  0  0  0  0  0
    6.3090    0.4600   17.8330 N   0  0  0  0  0  0  0  0  0  0  0  0
    5.1650    1.0910   17.7810 C   0  0  0  0  0  0  0  0  0  0  0  0
    4.3890    1.2700   18.8930 C   0  0  0  0  0  0  0  0  0  0  0  0
    4.8400    0.7830   20.1000 C   0  0  0  0  0  0  0  0  0  0  0  0
    6.1190    0.0850   20.2480 C   0  0  0  0  0  0  0  0  0  0  0  0
    6.8000   -0.0600   19.0990 C   0  0  0  0  0  0  0  0  0  0  0  0
   10.6850   -1.7310   22.1600 N   0  0  0  0  0  0  0  0  0  0  0  0
   11.0200   -2.1960   23.5020 C   0  0  0  0  0  0  0  0  0  0  0  0
    9.7860   -2.4800   24.1950 C   0  0  0  0  0  0  0  0  0  0  0  0
    8.4970   -2.3390   23.6680 C   0  0  0  0  0  0  0  0  0  0  0  0
    8.2890   -1.8980   22.3920 C   0  0  0  0  0  0  0  0  0  0  0  0
    9.4280   -1.6110   21.7050 C   0  0  0  0  0  0  0  0  0  0  0  0
    9.5340    3.0380   23.4280 C   0  0  0  0  0  0  0  0  0  0  0  0
   10.3510    4.3370   23.5340 C   0  0  0  0  0  0  0  0  0  0  0  0
    9.6340    5.6310   23.0370 C   0  0  0  0  0  0  0  0  0  0  0  0
    8.2050    5.6040   22.4720 C   0  0  0  0  0  0  0  0  0  0  0  0
    7.5510    4.1900   22.4490 C   0  0  0  0  0  0  0  0  0  0  0  0
    8.1440    3.0040   22.8900 C   0  0  0  0  0  0  0  0  0  0  0  0
    0.5220    4.7460   24.4640 C   0  0  0  0  0  0  0  0  0  0  0  0
   -0.6660    4.9650   25.1580 C   0  0  0  0  0  0  0  0  0  0  0  0
   -1.8650    4.6660   24.5120 C   0  0  0  0  0  0  0  0  0  0  0  0
   -1.9560    3.3110   23.7590 C   0  0  0  0  0  0  0  0  0  0  0  0
   -0.6360    2.8700   23.1280 C   0  0  0  0  0  0  0  0  0  0  0  0
    0.6320    3.3000   23.9520 C   0  0  0  0  0  0  0  0  0  0  0  0
  2  4  1  0
  1  7  1  0
  3  7  2  0
  4  7  1  0
  1  8  1  0
  5  9  1  0
  6  9  2  0
  8  9  1  6
 10 11  1  0
 13 14  1  0
 13 15  1  0
 16 17  2  0
 17 18  1  0
 18 19  1  0
 19 20  1  0
 17 21  1  0
 22 23  2  0
 23 24  1  0
 20 25  1  0
 24 25  2  0
  8 26  1  0
 25 26  1  0
 22 27  1  0
 26 27  2  0
 13 29  1  0
 28 29  2  0
 29 30  1  0
 30 31  2  0
  1 32  1  0
 31 32  1  0
 28 33  1  0
 32 33  2  0
 10 34  1  0
 34 35  2  0
 35 36  1  0
 36 37  2  0
 12 38  1  0
 37 38  1  0
  5 39  1  0
 34 39  1  0
 38 39  2  0
 40 41  1  0
 41 42  1  0
 42 43  1  0
 43 44  1  0
 21 45  1  0
 40 45  1  0
 44 45  1  0
M  END
