x2705-x1311-x1348
     RDKit          3D

 51 57  0  0  0  0  0  0  0  0999 V2000
    7.0710   -1.6970   21.7020 N   0  0  0  0  0  0  0  0  0  0  0  0
    8.3400   -4.3960   20.8940 C   0  0  0  0  0  0  0  0  0  0  0  0
    4.9270   -3.1030   21.1640 O   0  0  0  0  0  0  0  0  0  0  0  0
    6.9950   -4.2680   21.5870 C   0  0  2  0  0  0  0  0  0  0  0  0
    7.3630    1.8440   22.6980 N   0  0  0  0  0  0  0  0  0  0  0  0
    8.9080    0.6910   21.5110 O   0  0  0  0  0  0  0  0  0  0  0  0
    6.2280   -2.9400   21.4620 C   0  0  0  0  0  0  0  0  0  0  0  0
    6.6390   -0.2990   21.5400 C   0  0  1  0  0  0  0  0  0  0  0  0
    7.7540    0.7780   21.9190 C   0  0  0  0  0  0  0  0  0  0  0  0
   10.1840    1.9700   23.9730 C   0  0  0  0  0  0  0  0  0  0  0  0
    9.3570    1.1160   24.9380 C   0  0  0  0  0  0  0  0  0  0  0  0
    6.0650    4.5750   21.7520 C   0  0  0  0  0  0  0  0  0  0  0  0
   12.0510   -1.5260   23.3360 C   0  0  0  0  0  0  0  0  0  0  0  0
   12.5350   -0.1890   23.9350 C   0  0  0  0  0  0  0  0  0  0  0  0
   12.5590   -2.6520   24.2610 C   0  0  0  0  0  0  0  0  0  0  0  0
   12.7750   -1.6780   21.9850 C   0  0  0  0  0  0  0  0  0  0  0  0
    7.2460   -5.7530   27.7530 C   0  0  0  0  0  0  0  0  0  0  0  0
    6.6500   -5.5310   26.6960 O   0  0  0  0  0  0  0  0  0  0  0  0
    6.3980    0.3830   17.8600 N   0  0  0  0  0  0  0  0  0  0  0  0
    5.1940    1.1840   17.7510 C   0  0  0  0  0  0  0  0  0  0  0  0
    4.4510    1.4470   19.0140 C   0  0  0  0  0  0  0  0  0  0  0  0
    4.9140    0.9580   20.1970 C   0  0  0  0  0  0  0  0  0  0  0  0
    6.0870    0.2080   20.2300 C   0  0  0  0  0  0  0  0  0  0  0  0
    6.8030   -0.0710   19.0490 C   0  0  0  0  0  0  0  0  0  0  0  0
    9.7200   -1.3810   24.2210 N   0  0  0  0  0  0  0  0  0  0  0  0
    8.4050   -1.4310   23.8100 N   0  0  0  0  0  0  0  0  0  0  0  0
    8.3200   -1.6290   22.4650 C   0  0  0  0  0  0  0  0  0  0  0  0
    9.6760   -1.7080   22.0830 C   0  0  0  0  0  0  0  0  0  0  0  0
   10.5230   -1.5480   23.1650 C   0  0  0  0  0  0  0  0  0  0  0  0
    9.4240    3.1770   23.4810 C   0  0  0  0  0  0  0  0  0  0  0  0
   10.0230    4.4480   23.6070 C   0  0  0  0  0  0  0  0  0  0  0  0
    9.4100    5.6300   23.1820 C   0  0  0  0  0  0  0  0  0  0  0  0
    8.1370    5.6610   22.5870 C   0  0  0  0  0  0  0  0  0  0  0  0
    7.4210    4.4750   22.3970 C   0  0  0  0  0  0  0  0  0  0  0  0
    8.0200    3.1130   22.8420 C   0  0  0  0  0  0  0  0  0  0  0  0
    8.7150   -4.9650   23.0960 C   0  0  0  0  0  0  0  0  0  0  0  0
    9.4210   -5.4500   24.3380 C   0  0  0  0  0  0  0  0  0  0  0  0
    8.9400   -5.7540   25.7510 C   0  0  0  0  0  0  0  0  0  0  0  0
    7.4460   -5.4030   25.5900 C   0  0  0  0  0  0  0  0  0  0  0  0
    6.6930   -4.9230   24.2940 C   0  0  0  0  0  0  0  0  0  0  0  0
    7.4140   -4.7080   23.0140 C   0  0  0  0  0  0  0  0  0  0  0  0
    4.5570   -5.9850   23.5680 C   0  0  2  0  0  0  0  0  0  0  0  0
    5.1270   -6.1920   22.3760 C   0  0  0  0  0  0  0  0  0  0  0  0
    4.2330   -6.1320   23.8490 C   0  0  0  0  0  0  0  0  0  0  0  0
    2.7460   -7.1980   24.4360 S   0  0  0  0  0  0  0  0  0  0  0  0
    3.2180   -6.3210   23.2410 C   0  0  0  0  0  0  0  0  0  0  0  0
    5.1930   -4.7310   24.3520 C   0  0  1  0  0  0  0  0  0  0  0  0
    3.9680   -7.1390   25.5440 C   0  0  0  0  0  0  0  0  0  0  0  0
    4.9040   -6.4300   25.0860 C   0  0  0  0  0  0  0  0  0  0  0  0
    3.5460   -5.3060   24.1290 O   0  0  0  0  0  0  0  0  0  0  0  0
    4.5920   -6.2640   24.4440 C   0  0  0  0  0  0  0  0  0  0  0  0
  4  2  1  6
  1  7  1  0
  3  7  2  0
  4  7  1  0
  1  8  1  0
  5  9  1  0
  6  9  2  0
  8  9  1  6
 10 11  1  0
 13 14  1  0
 13 15  1  0
 13 16  1  0
 17 18  1  0
 19 20  2  0
 20 21  1  0
 21 22  2  0
  8 23  1  0
 22 23  1  0
 19 24  1  0
 23 24  2  0
 25 26  1  0
  1 27  1  0
 26 27  1  0
 27 28  2  0
 13 29  1  0
 25 29  2  0
 28 29  1  0
 10 30  1  0
 30 31  2  0
 31 32  1  0
 32 33  2  0
 12 34  1  0
 33 34  1  0
  5 35  1  0
 30 35  1  0
 34 35  2  0
 36 37  2  0
 37 38  1  0
 18 39  1  0
 38 39  2  0
 39 40  1  0
  4 41  1  0
 36 41  1  0
 40 41  2  0
 42 43  1  0
 43 44  2  0
 44 45  1  0
 42 46  1  0
 45 46  2  0
 47 40  1  1
 42 47  1  0
 44 47  1  0
 45 48  1  0
 42 49  1  1
 48 49  2  0
 48 51  1  0
 50 51  1  0
M  END
