x2705-x0978-x1077-x1458
     RDKit          3D

 62 70  0  0  0  0  0  0  0  0999 V2000
    6.8400   -1.2380   21.5070 N   0  0  0  0  0  0  0  0  0  0  0  0
    7.6670   -4.6430   21.1780 C   0  0  0  0  0  0  0  0  0  0  0  0
    4.9590   -3.1180   21.1500 O   0  0  0  0  0  0  0  0  0  0  0  0
    7.1670    2.1720   22.7610 N   0  0  0  0  0  0  0  0  0  0  0  0
    8.3580    1.3110   20.9880 O   0  0  0  0  0  0  0  0  0  0  0  0
    6.2370   -2.6030   21.4210 C   0  0  0  0  0  0  0  0  0  0  0  0
    6.2600    0.1220   21.4740 C   0  0  1  0  0  0  0  0  0  0  0  0
    7.3620    1.2410   21.7280 C   0  0  0  0  0  0  0  0  0  0  0  0
    9.7820    2.2090   23.9460 C   0  0  0  0  0  0  0  0  0  0  0  0
    8.8160    1.6360   24.9620 C   0  0  0  0  0  0  0  0  0  0  0  0
    5.9710    4.7470   21.6990 C   0  0  0  0  0  0  0  0  0  0  0  0
   11.9640   -1.4160   22.9970 C   0  0  0  0  0  0  0  0  0  0  0  0
   12.5550   -0.2150   23.7700 C   0  0  0  0  0  0  0  0  0  0  0  0
   12.1470   -2.7400   23.7820 C   0  0  0  0  0  0  0  0  0  0  0  0
   12.8360   -1.5260   21.7500 C   0  0  0  0  0  0  0  0  0  0  0  0
    2.7250   -5.5320   22.8860 N   0  0  0  0  0  0  0  0  0  0  0  0
    3.0810   -6.9110   25.1010 C   0  0  0  0  0  0  0  0  0  0  0  0
    4.8250   -7.9870   23.9790 O   0  0  0  0  0  0  0  0  0  0  0  0
    4.2870   -6.7200   24.1830 C   0  0  1  0  0  0  0  0  0  0  0  0
    6.4320   -5.1950   22.0930 N   0  0  0  0  0  0  0  0  0  0  0  0
    1.4680   -7.3630   22.2120 O   0  0  0  0  0  0  0  0  0  0  0  0
    3.9600   -6.1200   22.7850 C   0  0  2  0  0  0  0  0  0  0  0  0
    4.5270   -4.0750   21.7100 O   0  0  0  0  0  0  0  0  0  0  0  0
    1.5360   -6.2500   22.7220 C   0  0  0  0  0  0  0  0  0  0  0  0
    0.2620   -5.5500   23.2180 C   0  0  0  0  0  0  0  0  0  0  0  0
    5.0300   -5.0880   22.1400 C   0  0  0  0  0  0  0  0  0  0  0  0
    5.9800   -3.5910   27.0590 N   0  0  0  0  0  0  0  0  0  0  0  0
    4.7210   -4.4150   25.3170 O   0  0  0  0  0  0  0  0  0  0  0  0
    7.0350   -4.4800   27.4700 C   0  0  1  0  0  0  0  0  0  0  0  0
    7.1820   -5.9060   26.9220 C   0  0  0  0  0  0  0  0  0  0  0  0
    6.3110   -2.2610   27.5750 C   0  0  0  0  0  0  0  0  0  0  0  0
    5.8320   -3.6180   25.6640 C   0  0  1  0  0  0  0  0  0  0  0  0
    6.2180    0.6470   17.8110 N   0  0  0  0  0  0  0  0  0  0  0  0
    5.0800    1.3580   17.7130 C   0  0  0  0  0  0  0  0  0  0  0  0
    4.2350    1.6890   18.7650 C   0  0  0  0  0  0  0  0  0  0  0  0
    4.5810    1.2780   20.0430 C   0  0  0  0  0  0  0  0  0  0  0  0
    5.7600    0.5620   20.1700 C   0  0  0  0  0  0  0  0  0  0  0  0
    6.5410    0.2590   19.0530 C   0  0  0  0  0  0  0  0  0  0  0  0
    9.8180   -0.2690   23.4600 N   0  0  0  0  0  0  0  0  0  0  0  0
    8.5210   -0.2500   23.0610 N   0  0  0  0  0  0  0  0  0  0  0  0
    8.2090   -1.1360   22.0510 C   0  0  0  0  0  0  0  0  0  0  0  0
    9.5030   -1.7420   21.8410 C   0  0  0  0  0  0  0  0  0  0  0  0
   10.4620   -1.1830   22.7300 C   0  0  0  0  0  0  0  0  0  0  0  0
    9.1530    3.4570   23.4050 C   0  0  0  0  0  0  0  0  0  0  0  0
    9.8910    4.6430   23.5040 C   0  0  0  0  0  0  0  0  0  0  0  0
    9.3460    5.8290   23.0200 C   0  0  0  0  0  0  0  0  0  0  0  0
    8.0670    5.8320   22.4370 C   0  0  0  0  0  0  0  0  0  0  0  0
    7.3230    4.6240   22.3400 C   0  0  0  0  0  0  0  0  0  0  0  0
    7.8590    3.4350   22.8220 C   0  0  0  0  0  0  0  0  0  0  0  0
    7.0570   -5.6130   25.5090 N   0  0  0  0  0  0  0  0  0  0  0  0
    7.7420   -5.8440   24.2550 C   0  0  2  0  0  0  0  0  0  0  0  0
    9.1830   -5.9880   24.6980 C   0  0  0  0  0  0  0  0  0  0  0  0
    9.8900   -4.7260   25.0930 C   0  0  0  0  0  0  0  0  0  0  0  0
    9.5330   -4.1690   26.4200 N   0  0  0  0  0  0  0  0  0  0  0  0
    8.1270   -3.7220   26.6950 C   0  0  1  0  0  0  0  0  0  0  0  0
    6.9800   -4.3600   26.0070 C   0  0  1  0  0  0  0  0  0  0  0  0
    7.5670   -3.3040   21.6870 C   0  0  2  0  0  0  0  0  0  0  0  0
    8.2080   -2.4120   22.7180 C   0  0  0  0  0  0  0  0  0  0  0  0
    7.1060   -2.1640   23.7710 C   0  0  0  0  0  0  0  0  0  0  0  0
    6.7720   -3.5030   24.4040 C   0  0  2  0  0  0  0  0  0  0  0  0
    7.0100   -4.7530   23.4290 C   0  0  2  0  0  0  0  0  0  0  0  0
    8.1480   -4.2120   22.7850 C   0  0  0  0  0  0  0  0  0  0  0  0
  1  6  1  0
  3  6  2  0
  1  7  1  0
  4  8  1  0
  5  8  2  0
  7  8  1  6
  9 10  1  0
 12 13  1  0
 12 14  1  0
 12 15  1  0
 19 17  1  1
 18 19  1  0
  2 20  1  0
 22 16  1  1
 19 22  1  0
 16 24  1  0
 21 24  2  0
 24 25  1  0
 20 26  1  0
 22 26  1  0
 23 26  2  0
 27 29  1  0
 29 30  1  6
 27 31  1  0
 27 32  1  0
 32 28  1  6
 33 34  2  0
 34 35  1  0
 35 36  2  0
  7 37  1  0
 36 37  1  0
 33 38  1  0
 37 38  2  0
 39 40  1  0
  1 41  1  0
 40 41  1  0
 41 42  2  0
 12 43  1  0
 39 43  2  0
 42 43  1  0
  9 44  1  0
 44 45  2  0
 45 46  1  0
 46 47  2  0
 11 48  1  0
 47 48  1  0
  4 49  1  0
 44 49  1  0
 48 49  2  0
 30 50  1  0
 50 51  1  0
 51 52  1  1
 52 53  1  0
 53 54  1  0
 29 55  1  0
 55 54  1  6
 32 56  1  0
 56 50  1  6
 55 56  1  0
  2 57  1  0
 57  6  1  6
 57 58  1  0
 58 59  1  0
 32 60  1  0
 60 59  1  6
 61 20  1  6
 51 61  1  0
 60 61  1  0
 57 62  1  0
 61 62  1  0
M  END
