x2703-x1348-x2694
     RDKit          3D

 48 52  0  0  0  0  0  0  0  0999 V2000
    7.0600   -1.4110   21.7700 N   0  0  0  0  0  0  0  0  0  0  0  0
    6.8240   -4.5130   20.1400 C   0  0  0  0  0  0  0  0  0  0  0  0
    4.8450   -2.9740   21.1760 O   0  0  0  0  0  0  0  0  0  0  0  0
    7.0280   -3.8520   21.4660 C   0  0  1  0  0  0  0  0  0  0  0  0
    7.5110    2.2300   22.4940 N   0  0  0  0  0  0  0  0  0  0  0  0
    8.9310    0.7770   21.5120 O   0  0  0  0  0  0  0  0  0  0  0  0
    6.1780   -2.6400   21.4520 C   0  0  0  0  0  0  0  0  0  0  0  0
   11.1310    6.5460   23.9070 O   0  0  0  0  0  0  0  0  0  0  0  0
    6.6630    0.0490   21.6870 C   0  0  1  0  0  0  0  0  0  0  0  0
    7.7810    0.9950   21.8810 C   0  0  0  0  0  0  0  0  0  0  0  0
   10.1580    1.7990   23.9360 C   0  0  0  0  0  0  0  0  0  0  0  0
   11.8500    6.3690   25.1210 C   0  0  0  0  0  0  0  0  0  0  0  0
   12.0910   -1.5430   23.3550 C   0  0  0  0  0  0  0  0  0  0  0  0
   12.7290   -0.3230   23.0550 C   0  0  0  0  0  0  0  0  0  0  0  0
   12.8330   -1.5850   22.0490 C   0  0  0  0  0  0  0  0  0  0  0  0
   12.7310   -2.3260   24.3610 C   0  0  0  0  0  0  0  0  0  0  0  0
    9.3160    1.1850   24.9500 C   0  0  0  0  0  0  0  0  0  0  0  0
   11.7950   -3.2110   25.1970 C   0  0  0  0  0  0  0  0  0  0  0  0
    7.9010   -5.5750   27.7840 C   0  0  0  0  0  0  0  0  0  0  0  0
    7.4570   -4.8580   26.6260 O   0  0  0  0  0  0  0  0  0  0  0  0
    6.4250    0.4830   17.8920 N   0  0  0  0  0  0  0  0  0  0  0  0
    5.2680    1.3290   17.7410 C   0  0  0  0  0  0  0  0  0  0  0  0
    4.6180    1.6920   18.9260 C   0  0  0  0  0  0  0  0  0  0  0  0
    5.0700    1.2690   20.1660 C   0  0  0  0  0  0  0  0  0  0  0  0
    6.1870    0.4670   20.2830 C   0  0  0  0  0  0  0  0  0  0  0  0
    6.8130    0.1060   19.1230 C   0  0  0  0  0  0  0  0  0  0  0  0
    8.3680   -1.5970   24.0520 N   0  0  0  0  0  0  0  0  0  0  0  0
    9.7210   -1.6270   24.4330 O   0  0  0  0  0  0  0  0  0  0  0  0
   10.5420   -1.5400   23.2660 C   0  0  0  0  0  0  0  0  0  0  0  0
    9.6690   -1.4590   22.1420 C   0  0  0  0  0  0  0  0  0  0  0  0
    8.3160   -1.4880   22.5730 C   0  0  0  0  0  0  0  0  0  0  0  0
    9.6800    3.1620   23.5210 C   0  0  0  0  0  0  0  0  0  0  0  0
   10.5330    4.2580   23.8410 C   0  0  0  0  0  0  0  0  0  0  0  0
   10.2180    5.5890   23.5310 C   0  0  0  0  0  0  0  0  0  0  0  0
    9.0290    5.8490   22.8740 C   0  0  0  0  0  0  0  0  0  0  0  0
    8.1430    4.6610   22.5410 C   0  0  0  0  0  0  0  0  0  0  0  0
    8.4440    3.3290   22.8510 C   0  0  0  0  0  0  0  0  0  0  0  0
    6.3500   -5.5230   26.0160 C   0  0  0  0  0  0  0  0  0  0  0  0
    6.1720   -5.3100   24.5210 C   0  0  0  0  0  0  0  0  0  0  0  0
    5.0000   -6.0300   23.8720 C   0  0  0  0  0  0  0  0  0  0  0  0
    4.0870   -6.8930   24.7140 C   0  0  0  0  0  0  0  0  0  0  0  0
    4.3150   -7.0570   26.2190 C   0  0  0  0  0  0  0  0  0  0  0  0
    5.3990   -6.4030   26.8410 C   0  0  0  0  0  0  0  0  0  0  0  0
    6.8170   -4.6620   23.8130 N   0  0  0  0  0  0  0  0  0  0  0  0
    6.3830   -4.6760   22.5710 C   0  0  0  0  0  0  0  0  0  0  0  0
    4.9850   -5.6680   22.2230 S   0  0  0  0  0  0  0  0  0  0  0  0
    5.9340    3.8610   21.6600 C   0  0  0  0  0  0  0  0  0  0  0  0
    6.1460    2.7930   22.5530 C   0  0  0  0  0  0  0  0  0  0  0  0
  4  2  1  6
  1  7  1  0
  3  7  2  0
  4  7  1  0
  1  9  1  0
  5 10  1  0
  6 10  2  0
  9 10  1  6
  8 12  1  0
 13 14  1  0
 13 15  1  0
 13 16  1  0
 11 17  1  0
 16 18  1  0
 19 20  1  0
 21 22  2  0
 22 23  1  0
 23 24  2  0
  9 25  1  0
 24 25  1  0
 21 26  1  0
 25 26  2  0
 27 28  1  0
 13 29  1  0
 28 29  1  0
 29 30  2  0
  1 31  1  0
 27 31  2  0
 30 31  1  0
 11 32  1  0
 32 33  2  0
  8 34  1  0
 33 34  1  0
 34 35  2  0
 35 36  1  0
  5 37  1  0
 32 37  1  0
 36 37  2  0
 20 38  1  0
 38 39  2  0
 39 40  1  0
 40 41  2  0
 41 42  1  0
 38 43  1  0
 42 43  2  0
 39 44  1  0
  4 45  1  0
 44 45  2  0
 40 46  1  0
 45 46  1  0
  5 48  1  0
 47 48  1  0
M  END
