x2705-x2776-x0691
     RDKit          3D

 54 59  0  0  0  0  0  0  0  0999 V2000
    6.7760   -1.4360   22.0120 C   0  0  1  0  0  0  0  0  0  0  0  0
    7.3140   -3.5920   20.2090 C   0  0  0  0  0  0  0  0  0  0  0  0
    4.8260   -3.0090   21.2110 O   0  0  0  0  0  0  0  0  0  0  0  0
    6.6080   -2.6540   19.7620 C   0  0  0  0  0  0  0  0  0  0  0  0
    7.6130    2.0660   22.8930 N   0  0  0  0  0  0  0  0  0  0  0  0
    8.7080    1.1920   21.1010 O   0  0  0  0  0  0  0  0  0  0  0  0
    5.9830   -2.3960   20.9880 C   0  0  0  0  0  0  0  0  0  0  0  0
    6.5390    0.1360   21.7040 C   0  0  1  0  0  0  0  0  0  0  0  0
    7.7400    1.1570   21.8660 C   0  0  0  0  0  0  0  0  0  0  0  0
   10.1410    2.2820   23.9880 C   0  0  0  0  0  0  0  0  0  0  0  0
    9.2530    1.3420   24.8640 C   0  0  0  0  0  0  0  0  0  0  0  0
    6.1170    4.4160   21.9210 C   0  0  0  0  0  0  0  0  0  0  0  0
   12.0610   -1.5820   23.2010 C   0  0  0  0  0  0  0  0  0  0  0  0
   12.6020   -0.2670   23.8180 C   0  0  0  0  0  0  0  0  0  0  0  0
   12.5100   -2.7700   24.0650 C   0  0  0  0  0  0  0  0  0  0  0  0
   12.7250   -1.7520   21.8210 C   0  0  0  0  0  0  0  0  0  0  0  0
   13.4270   -2.5250   25.2430 C   0  0  0  0  0  0  0  0  0  0  0  0
   10.7540    6.0680   23.9190 O   0  0  0  0  0  0  0  0  0  0  0  0
   11.8710    6.2040   24.7920 C   0  0  0  0  0  0  0  0  0  0  0  0
    4.1240   -6.9170   25.3910 O   0  0  0  0  0  0  0  0  0  0  0  0
    5.8150   -5.3740   26.4190 O   0  0  0  0  0  0  0  0  0  0  0  0
    3.2770   -0.6650   25.9910 F   0  0  0  0  0  0  0  0  0  0  0  0
    4.8020   -5.6350   25.4170 S   0  0  0  0  0  0  0  0  0  0  0  0
    5.9730   -2.1400   23.0480 C   0  0  0  0  0  0  0  0  0  0  0  0
    5.5120   -3.3650   22.4580 C   0  0  0  0  0  0  0  0  0  0  0  0
    6.3250    0.4980   17.7290 N   0  0  0  0  0  0  0  0  0  0  0  0
    5.1940    1.2030   17.7530 C   0  0  0  0  0  0  0  0  0  0  0  0
    4.4720    1.5630   18.8580 C   0  0  0  0  0  0  0  0  0  0  0  0
    4.8980    1.2090   20.1170 C   0  0  0  0  0  0  0  0  0  0  0  0
    6.0610    0.4830   20.3190 C   0  0  0  0  0  0  0  0  0  0  0  0
    6.7940    0.1110   19.0580 C   0  0  0  0  0  0  0  0  0  0  0  0
    9.7580   -1.5080   24.1660 N   0  0  0  0  0  0  0  0  0  0  0  0
    8.4290   -1.4790   23.8930 N   0  0  0  0  0  0  0  0  0  0  0  0
    8.2760   -1.5030   22.5280 C   0  0  0  0  0  0  0  0  0  0  0  0
    9.5900   -1.5560   22.0250 C   0  0  0  0  0  0  0  0  0  0  0  0
   10.5270   -1.5530   23.0760 C   0  0  0  0  0  0  0  0  0  0  0  0
    9.4410    3.5840   23.5540 C   0  0  0  0  0  0  0  0  0  0  0  0
   10.2160    4.7940   23.7940 C   0  0  0  0  0  0  0  0  0  0  0  0
    9.3270    5.7730   23.2780 C   0  0  0  0  0  0  0  0  0  0  0  0
    8.0870    5.6420   22.7110 C   0  0  0  0  0  0  0  0  0  0  0  0
    7.4860    4.4620   22.5580 C   0  0  0  0  0  0  0  0  0  0  0  0
    8.1550    3.3890   22.9870 C   0  0  0  0  0  0  0  0  0  0  0  0
    2.9180   -1.9940   25.8460 C   0  0  0  0  0  0  0  0  0  0  0  0
    3.8620   -3.0490   25.7140 C   0  0  0  0  0  0  0  0  0  0  0  0
    3.5590   -4.3860   25.5690 C   0  0  0  0  0  0  0  0  0  0  0  0
    2.2210   -4.6680   25.5530 C   0  0  0  0  0  0  0  0  0  0  0  0
    1.2830   -3.6780   25.6780 C   0  0  0  0  0  0  0  0  0  0  0  0
    1.5970   -2.3270   25.8280 C   0  0  0  0  0  0  0  0  0  0  0  0
    6.4780   -4.2910   21.5170 C   0  0  0  0  0  0  0  0  0  0  0  0
    6.0790   -5.6600   21.6620 C   0  0  0  0  0  0  0  0  0  0  0  0
    5.2310   -6.1900   22.7170 C   0  0  0  0  0  0  0  0  0  0  0  0
    5.4730   -5.3200   23.8870 N   0  0  0  0  0  0  0  0  0  0  0  0
    6.8980   -4.9780   23.8050 C   0  0  0  0  0  0  0  0  0  0  0  0
    7.3260   -5.0470   22.5210 C   0  0  0  0  0  0  0  0  0  0  0  0
  2  4  1  0
  1  7  1  0
  3  7  2  0
  4  7  1  0
  1  8  1  0
  5  9  1  0
  6  9  2  0
  8  9  1  6
 10 11  1  0
 13 14  1  0
 13 15  1  0
 13 16  1  0
 15 17  1  0
 18 19  1  0
 20 23  2  0
 21 23  2  0
  1 24  1  0
 24 25  1  0
 26 27  2  0
 27 28  1  0
 28 29  2  0
  8 30  1  0
 29 30  1  0
 26 31  1  0
 30 31  2  0
 32 33  1  0
  1 34  1  1
 33 34  2  0
 34 35  1  0
 13 36  1  0
 32 36  1  0
 35 36  2  0
 10 37  1  0
 18 38  1  0
 37 38  2  0
 38 39  1  0
 39 40  2  0
 12 41  1  0
 40 41  1  0
  5 42  1  0
 37 42  1  0
 41 42  2  0
 22 43  1  0
 43 44  2  0
 23 45  1  0
 44 45  1  0
 45 46  2  0
 46 47  1  0
 43 48  1  0
 47 48  2  0
  2 49  1  0
 49 25  1  0
 49 50  1  0
 50 51  1  0
 23 52  1  0
 51 52  1  0
 52 53  1  0
 49 54  1  0
 53 54  1  0
M  END
