x2703-x0395
     RDKit          3D

 40 43  0  0  0  0  0  0  0  0999 V2000
    6.8450   -1.6340   21.6990 N   0  0  0  0  0  0  0  0  0  0  0  0
    6.7710   -4.9500   20.4840 C   0  0  0  0  0  0  0  0  0  0  0  0
    4.8130   -2.9870   21.1480 O   0  0  0  0  0  0  0  0  0  0  0  0
    6.7680   -4.1450   21.7570 C   0  0  0  0  0  0  0  0  0  0  0  0
    7.3700    1.6240   22.9730 N   0  0  0  0  0  0  0  0  0  0  0  0
    7.9540    1.0470   21.2190 O   0  0  0  0  0  0  0  0  0  0  0  0
    6.0400   -2.8440   21.5050 C   0  0  0  0  0  0  0  0  0  0  0  0
    6.3730   -0.3360   21.3870 C   0  0  1  0  0  0  0  0  0  0  0  0
    7.1290    0.8410   22.1140 C   0  0  0  0  0  0  0  0  0  0  0  0
   10.0860    1.8260   23.9940 C   0  0  0  0  0  0  0  0  0  0  0  0
    9.3430    1.1140   24.9390 C   0  0  0  0  0  0  0  0  0  0  0  0
    6.0180    4.0760   21.8360 C   0  0  0  0  0  0  0  0  0  0  0  0
   12.1120   -1.9480   23.7090 C   0  0  0  0  0  0  0  0  0  0  0  0
   12.6000   -2.6410   24.9920 C   0  0  0  0  0  0  0  0  0  0  0  0
   12.5940   -0.9080   24.7650 C   0  0  0  0  0  0  0  0  0  0  0  0
    8.6700   -5.1620   26.6120 C   0  0  0  0  0  0  0  0  0  0  0  0
    6.2530    0.4660   17.6190 N   0  0  0  0  0  0  0  0  0  0  0  0
    5.1220    1.3590   17.9480 C   0  0  0  0  0  0  0  0  0  0  0  0
    4.6750    1.4800   19.2630 C   0  0  0  0  0  0  0  0  0  0  0  0
    5.3140    0.7480   20.2760 C   0  0  0  0  0  0  0  0  0  0  0  0
    6.3760   -0.0680   19.8740 C   0  0  0  0  0  0  0  0  0  0  0  0
    6.8830   -0.2780   18.7040 C   0  0  0  0  0  0  0  0  0  0  0  0
   10.4150   -1.4240   22.1280 N   0  0  0  0  0  0  0  0  0  0  0  0
   10.6090   -1.9200   23.3510 C   0  0  0  0  0  0  0  0  0  0  0  0
    9.4440   -2.4460   24.2540 C   0  0  2  0  0  0  0  0  0  0  0  0
    8.2030   -2.3620   23.6320 C   0  0  0  0  0  0  0  0  0  0  0  0
    8.0880   -1.8040   22.3640 C   0  0  0  0  0  0  0  0  0  0  0  0
    9.1690   -1.3670   21.6360 C   0  0  0  0  0  0  0  0  0  0  0  0
    9.3260    3.0360   23.4230 C   0  0  0  0  0  0  0  0  0  0  0  0
   10.0410    4.2570   23.4470 C   0  0  0  0  0  0  0  0  0  0  0  0
    9.3860    5.3850   22.9330 C   0  0  0  0  0  0  0  0  0  0  0  0
    8.1030    5.3260   22.4170 C   0  0  0  0  0  0  0  0  0  0  0  0
    7.4070    4.1050   22.4020 C   0  0  0  0  0  0  0  0  0  0  0  0
    8.0090    2.9330   22.9130 C   0  0  0  0  0  0  0  0  0  0  0  0
    8.8750   -3.9880   25.7260 C   0  0  0  0  0  0  0  0  0  0  0  0
    8.1940   -2.7240   25.9140 N   0  0  0  0  0  0  0  0  0  0  0  0
    9.0560   -1.9080   25.3700 N   0  0  0  0  0  0  0  0  0  0  0  0
   10.0200   -4.1360   24.3920 S   0  0  0  0  0  0  0  0  0  0  0  0
   13.4200   -0.8990   22.0590 F   0  0  0  0  0  0  0  0  0  0  0  0
   13.0200   -2.0980   22.5370 C   0  0  0  0  0  0  0  0  0  0  0  0
  2  4  1  0
  1  7  1  0
  3  7  2  0
  4  7  1  0
  1  8  1  0
  5  9  1  0
  6  9  2  0
  8  9  1  1
 10 11  1  0
 13 14  1  0
 13 15  1  0
 17 18  2  0
 18 19  1  0
 19 20  2  0
  8 21  1  0
 20 21  1  0
 17 22  1  0
 21 22  2  0
 13 24  1  0
 23 24  2  0
 24 25  1  0
 25 26  1  6
  1 27  1  0
 26 27  2  0
 23 28  1  0
 27 28  1  0
 10 29  1  0
 29 30  2  0
 30 31  1  0
 31 32  2  0
 12 33  1  0
 32 33  1  0
  5 34  1  0
 29 34  1  0
 33 34  2  0
 16 35  1  0
 35 36  1  0
 25 37  1  0
 36 37  2  0
 25 38  1  0
 35 38  2  0
 13 40  1  0
 39 40  1  0
M  END
