x2705-x2776-x0689
     RDKit          3D

 52 57  0  0  0  0  0  0  0  0999 V2000
    6.8340   -1.4140   21.9790 C   0  0  1  0  0  0  0  0  0  0  0  0
    6.7190   -3.9800   20.0690 C   0  0  0  0  0  0  0  0  0  0  0  0
    4.8830   -3.0640   21.1610 O   0  0  0  0  0  0  0  0  0  0  0  0
    6.4220   -2.6000   19.7250 C   0  0  0  0  0  0  0  0  0  0  0  0
    7.6850    2.0750   22.9280 N   0  0  0  0  0  0  0  0  0  0  0  0
    8.7420    1.1850   21.0380 O   0  0  0  0  0  0  0  0  0  0  0  0
    6.0330   -2.3610   20.9480 C   0  0  0  0  0  0  0  0  0  0  0  0
    6.5920    0.1530   21.6710 C   0  0  1  0  0  0  0  0  0  0  0  0
    7.8000    1.1530   21.8220 C   0  0  0  0  0  0  0  0  0  0  0  0
   10.0420    2.2740   24.0000 C   0  0  0  0  0  0  0  0  0  0  0  0
    9.1550    1.4610   24.9350 C   0  0  0  0  0  0  0  0  0  0  0  0
    6.0640    4.3760   21.8570 C   0  0  0  0  0  0  0  0  0  0  0  0
   12.0850   -1.5690   23.1750 C   0  0  0  0  0  0  0  0  0  0  0  0
   12.6920   -0.3440   23.8340 C   0  0  0  0  0  0  0  0  0  0  0  0
   12.5760   -2.7950   23.9330 C   0  0  0  0  0  0  0  0  0  0  0  0
   12.7530   -1.6640   21.8190 C   0  0  0  0  0  0  0  0  0  0  0  0
   13.4030   -2.6220   25.2110 C   0  0  0  0  0  0  0  0  0  0  0  0
   10.8370    6.0690   23.9970 O   0  0  0  0  0  0  0  0  0  0  0  0
   11.9080    6.2460   24.9160 C   0  0  0  0  0  0  0  0  0  0  0  0
    4.0540   -6.4400   25.7800 O   0  0  0  0  0  0  0  0  0  0  0  0
    5.8230   -4.8400   26.5130 O   0  0  0  0  0  0  0  0  0  0  0  0
    4.7910   -5.2110   25.5760 S   0  0  0  0  0  0  0  0  0  0  0  0
    6.0020   -2.0480   23.0760 C   0  0  0  0  0  0  0  0  0  0  0  0
    5.4470   -3.2220   22.4970 C   0  0  0  0  0  0  0  0  0  0  0  0
    6.4080    0.4100   17.8170 N   0  0  0  0  0  0  0  0  0  0  0  0
    5.1890    1.2230   17.7720 C   0  0  0  0  0  0  0  0  0  0  0  0
    4.5470    1.5860   18.8740 C   0  0  0  0  0  0  0  0  0  0  0  0
    4.9990    1.2260   20.1380 C   0  0  0  0  0  0  0  0  0  0  0  0
    6.1080    0.4970   20.2750 C   0  0  0  0  0  0  0  0  0  0  0  0
    6.7930    0.0960   19.0810 C   0  0  0  0  0  0  0  0  0  0  0  0
    9.8470   -1.4480   24.2140 N   0  0  0  0  0  0  0  0  0  0  0  0
    8.5290   -1.4130   23.9920 N   0  0  0  0  0  0  0  0  0  0  0  0
    8.3230   -1.4820   22.4960 C   0  0  0  0  0  0  0  0  0  0  0  0
    9.6840   -1.5660   22.0310 C   0  0  0  0  0  0  0  0  0  0  0  0
   10.5880   -1.5340   23.0900 C   0  0  0  0  0  0  0  0  0  0  0  0
    9.4130    3.5820   23.5730 C   0  0  0  0  0  0  0  0  0  0  0  0
   10.2600    4.8260   23.8500 C   0  0  0  0  0  0  0  0  0  0  0  0
    9.3570    5.9430   23.2840 C   0  0  0  0  0  0  0  0  0  0  0  0
    8.0140    5.8070   22.6430 C   0  0  0  0  0  0  0  0  0  0  0  0
    7.4160    4.4500   22.5090 C   0  0  0  0  0  0  0  0  0  0  0  0
    8.1590    3.4230   22.9910 C   0  0  0  0  0  0  0  0  0  0  0  0
    6.3270   -4.2840   21.6410 C   0  0  0  0  0  0  0  0  0  0  0  0
    5.7190   -5.5350   21.7670 C   0  0  0  0  0  0  0  0  0  0  0  0
    4.8680   -5.7210   22.8550 C   0  0  0  0  0  0  0  0  0  0  0  0
    5.6000   -5.3030   24.0740 N   0  0  0  0  0  0  0  0  0  0  0  0
    7.0400   -4.9840   23.9060 C   0  0  0  0  0  0  0  0  0  0  0  0
    7.3130   -4.7830   22.5740 C   0  0  0  0  0  0  0  0  0  0  0  0
    3.9410   -2.2740   25.9450 S   0  0  0  0  0  0  0  0  0  0  0  0
    3.5920   -3.8980   25.5760 C   0  0  0  0  0  0  0  0  0  0  0  0
    2.1560   -4.0420   25.2680 C   0  0  0  0  0  0  0  0  0  0  0  0
    1.5960   -2.8410   25.3880 C   0  0  0  0  0  0  0  0  0  0  0  0
    2.3770   -1.7150   25.7510 C   0  0  0  0  0  0  0  0  0  0  0  0
  2  4  1  0
  1  7  1  0
  3  7  2  0
  4  7  1  0
  1  8  1  0
  5  9  1  0
  6  9  2  0
  8  9  1  6
 10 11  1  0
 13 14  1  0
 13 15  1  0
 13 16  1  0
 15 17  1  0
 18 19  1  0
 20 22  2  0
 21 22  2  0
  1 23  1  0
 23 24  1  0
 25 26  2  0
 26 27  1  0
 27 28  2  0
  8 29  1  0
 28 29  1  0
 25 30  1  0
 29 30  2  0
 31 32  1  0
  1 33  1  1
 32 33  2  0
 33 34  1  0
 13 35  1  0
 31 35  1  0
 34 35  2  0
 10 36  1  0
 18 37  1  0
 36 37  2  0
 37 38  1  0
 38 39  2  0
 12 40  1  0
 39 40  1  0
  5 41  1  0
 36 41  1  0
 40 41  2  0
  2 42  1  0
 42 24  1  0
 42 43  1  0
 43 44  1  0
 22 45  1  0
 44 45  1  0
 45 46  1  0
 42 47  1  0
 46 47  1  0
 22 49  1  0
 48 49  1  0
 49 50  2  0
 50 51  1  0
 48 52  1  0
 51 52  2  0
M  END
