x2705-x1311-x0786-x2694
     RDKit          3D

 54 59  0  0  0  0  0  0  0  0999 V2000
    6.9760   -1.7410   21.7370 N   0  0  0  0  0  0  0  0  0  0  0  0
    6.8300   -5.1620   20.4950 C   0  0  0  0  0  0  0  0  0  0  0  0
    4.8490   -2.9820   21.1320 O   0  0  0  0  0  0  0  0  0  0  0  0
    6.6050   -4.4230   21.8180 C   0  0  2  0  0  0  0  0  0  0  0  0
    7.3950    1.8720   22.8760 N   0  0  0  0  0  0  0  0  0  0  0  0
    8.8040    0.7580   21.5950 O   0  0  0  0  0  0  0  0  0  0  0  0
    6.1090   -3.0090   21.5520 C   0  0  0  0  0  0  0  0  0  0  0  0
    6.6170   -0.3800   21.5700 C   0  0  1  0  0  0  0  0  0  0  0  0
    7.6500    0.7500   22.0250 C   0  0  0  0  0  0  0  0  0  0  0  0
   10.1480    1.7970   24.0090 C   0  0  0  0  0  0  0  0  0  0  0  0
    9.2750    1.0340   25.0030 C   0  0  0  0  0  0  0  0  0  0  0  0
    6.2910    4.6410   21.9420 C   0  0  0  0  0  0  0  0  0  0  0  0
   11.9860   -1.3360   23.2840 C   0  0  0  0  0  0  0  0  0  0  0  0
   12.4320    0.0440   23.7850 C   0  0  0  0  0  0  0  0  0  0  0  0
   12.5580   -2.3400   24.3140 C   0  0  0  0  0  0  0  0  0  0  0  0
   12.7320   -1.5340   21.9530 C   0  0  0  0  0  0  0  0  0  0  0  0
   10.6290    6.5170   23.5250 O   0  0  0  0  0  0  0  0  0  0  0  0
   11.6440    6.3530   24.5300 C   0  0  0  0  0  0  0  0  0  0  0  0
    6.3440    0.4960   17.7850 N   0  0  0  0  0  0  0  0  0  0  0  0
    5.2070    1.2900   17.7020 C   0  0  0  0  0  0  0  0  0  0  0  0
    4.4130    1.5640   18.9380 C   0  0  0  0  0  0  0  0  0  0  0  0
    4.9010    0.9780   20.2110 C   0  0  0  0  0  0  0  0  0  0  0  0
    6.1530    0.1340   20.2480 C   0  0  0  0  0  0  0  0  0  0  0  0
    6.8470   -0.1040   19.0470 C   0  0  0  0  0  0  0  0  0  0  0  0
    9.7080   -1.4950   24.2930 N   0  0  0  0  0  0  0  0  0  0  0  0
    8.4310   -1.6070   23.8180 N   0  0  0  0  0  0  0  0  0  0  0  0
    8.2520   -1.6540   22.4430 C   0  0  0  0  0  0  0  0  0  0  0  0
    9.6020   -1.5590   22.0450 C   0  0  0  0  0  0  0  0  0  0  0  0
   10.4350   -1.4660   23.1710 C   0  0  0  0  0  0  0  0  0  0  0  0
    9.4700    3.0530   23.5340 C   0  0  0  0  0  0  0  0  0  0  0  0
   10.2020    4.2440   23.6660 C   0  0  0  0  0  0  0  0  0  0  0  0
    9.7200    5.4940   23.2800 C   0  0  0  0  0  0  0  0  0  0  0  0
    8.4230    5.6620   22.6970 C   0  0  0  0  0  0  0  0  0  0  0  0
    7.6630    4.4840   22.5520 C   0  0  0  0  0  0  0  0  0  0  0  0
    8.1810    3.0850   22.9920 C   0  0  0  0  0  0  0  0  0  0  0  0
    8.5350   -5.4870   22.9120 C   0  0  0  0  0  0  0  0  0  0  0  0
    9.2830   -5.9140   23.9990 C   0  0  0  0  0  0  0  0  0  0  0  0
    8.8260   -5.7030   25.2640 C   0  0  0  0  0  0  0  0  0  0  0  0
    7.6020   -5.0690   25.4470 C   0  0  0  0  0  0  0  0  0  0  0  0
    6.8610   -4.6490   24.3310 C   0  0  0  0  0  0  0  0  0  0  0  0
    7.3690   -4.8640   23.0720 C   0  0  0  0  0  0  0  0  0  0  0  0
    4.1950   -6.4310   25.9860 O   0  0  0  0  0  0  0  0  0  0  0  0
    5.1950   -6.3260   22.4380 C   0  0  0  0  0  0  0  0  0  0  0  0
    4.5680   -5.0930   22.5850 C   0  0  0  0  0  0  0  0  0  0  0  0
    4.3270   -4.7010   23.9240 C   0  0  1  0  0  0  0  0  0  0  0  0
    3.7180   -6.2470   24.6370 S   0  0  1  0  0  0  0  0  0  0  0  0
    4.7950   -7.1760   23.6180 C   0  0  0  0  0  0  0  0  0  0  0  0
    1.3240   -5.8010   23.3580 C   0  0  0  0  0  0  0  0  0  0  0  0
    0.2150   -5.1060   23.8360 C   0  0  0  0  0  0  0  0  0  0  0  0
   -0.7880   -6.1640   24.9110 S   0  0  0  0  0  0  0  0  0  0  0  0
   -0.1060   -7.7870   24.4150 C   0  0  0  0  0  0  0  0  0  0  0  0
    1.4320   -7.8510   24.5390 C   0  0  0  0  0  0  0  0  0  0  0  0
    2.0420   -6.5220   24.4030 N   0  0  0  0  0  0  0  0  0  0  0  0
    5.5330   -4.0010   24.5930 C   0  0  0  0  0  0  0  0  0  0  0  0
  4  2  1  6
  1  7  1  0
  3  7  2  0
  4  7  1  0
  1  8  1  0
  5  9  1  0
  6  9  2  0
  8  9  1  6
 10 11  1  0
 13 14  1  0
 13 15  1  0
 13 16  1  0
 17 18  1  0
 19 20  2  0
 20 21  1  0
 21 22  2  0
  8 23  1  0
 22 23  1  0
 19 24  1  0
 23 24  2  0
 25 26  1  0
  1 27  1  0
 26 27  1  0
 27 28  2  0
 13 29  1  0
 25 29  2  0
 28 29  1  0
 10 30  1  0
 30 31  2  0
 17 32  1  0
 31 32  1  0
 32 33  2  0
 12 34  1  0
 33 34  1  0
  5 35  1  0
 30 35  1  0
 34 35  2  0
 36 37  2  0
 37 38  1  0
 38 39  2  0
 39 40  1  0
  4 41  1  0
 36 41  1  0
 40 41  2  0
 43 44  1  0
 44 45  1  0
 46 42  1  1
 45 46  1  0
 43 47  2  0
 46 47  1  0
 48 49  1  0
 49 50  1  0
 50 51  1  0
 51 52  1  0
 46 53  1  0
 48 53  1  0
 52 53  1  0
 40 54  1  0
 45 54  1  1
M  END
