x2705-x1358-x2776
     RDKit          3D

 50 55  0  0  0  0  0  0  0  0999 V2000
    7.0680   -1.5840   21.4630 C   0  0  2  0  0  0  0  0  0  0  0  0
    5.7260   -2.9580   19.3600 O   0  0  0  0  0  0  0  0  0  0  0  0
    7.5520    2.0540   22.8870 N   0  0  0  0  0  0  0  0  0  0  0  0
    8.6360    1.2530   20.9980 O   0  0  0  0  0  0  0  0  0  0  0  0
    6.5670   -2.7480   20.3580 C   0  0  0  0  0  0  0  0  0  0  0  0
    6.6300   -0.0800   21.4770 C   0  0  1  0  0  0  0  0  0  0  0  0
    7.6740    1.0780   21.7580 C   0  0  0  0  0  0  0  0  0  0  0  0
   10.2350    2.2070   23.9040 C   0  0  0  0  0  0  0  0  0  0  0  0
    9.3190    1.4160   24.7190 C   0  0  0  0  0  0  0  0  0  0  0  0
    6.0750    4.3900   21.9320 C   0  0  0  0  0  0  0  0  0  0  0  0
   12.1720   -1.5530   23.3580 C   0  0  0  0  0  0  0  0  0  0  0  0
   12.7220   -0.2820   24.0310 C   0  0  0  0  0  0  0  0  0  0  0  0
   12.6030   -2.8190   24.1450 C   0  0  0  0  0  0  0  0  0  0  0  0
   12.8470   -1.7500   21.9960 C   0  0  0  0  0  0  0  0  0  0  0  0
   13.5230   -2.5640   25.3410 C   0  0  0  0  0  0  0  0  0  0  0  0
   11.3610    5.1310   24.0300 O   0  0  0  0  0  0  0  0  0  0  0  0
   11.5930    6.3360   24.7660 C   0  0  0  0  0  0  0  0  0  0  0  0
    6.8220   -2.4890   25.6880 N   0  0  0  0  0  0  0  0  0  0  0  0
    5.4860   -0.1420   25.1690 O   0  0  0  0  0  0  0  0  0  0  0  0
    4.8150   -3.4600   25.0400 O   0  0  0  0  0  0  0  0  0  0  0  0
    5.9940   -3.1680   24.8470 C   0  0  0  0  0  0  0  0  0  0  0  0
    6.3520    0.6030   17.7340 N   0  0  0  0  0  0  0  0  0  0  0  0
    5.1430    1.4460   17.6980 C   0  0  0  0  0  0  0  0  0  0  0  0
    4.5140    1.6860   18.9300 C   0  0  0  0  0  0  0  0  0  0  0  0
    5.0040    1.1770   20.1130 C   0  0  0  0  0  0  0  0  0  0  0  0
    6.1320    0.4090   20.1290 C   0  0  0  0  0  0  0  0  0  0  0  0
    6.8160    0.0960   18.9970 C   0  0  0  0  0  0  0  0  0  0  0  0
    9.7570   -1.0430   24.1850 N   0  0  0  0  0  0  0  0  0  0  0  0
    8.5020   -1.0680   23.6680 N   0  0  0  0  0  0  0  0  0  0  0  0
    8.4250   -1.5090   22.2580 C   0  0  0  0  0  0  0  0  0  0  0  0
    9.8640   -1.8090   21.8930 C   0  0  0  0  0  0  0  0  0  0  0  0
   10.6770   -1.4810   23.1360 C   0  0  0  0  0  0  0  0  0  0  0  0
    9.5130    3.4840   23.4640 C   0  0  0  0  0  0  0  0  0  0  0  0
   10.0970    4.9090   23.5290 C   0  0  0  0  0  0  0  0  0  0  0  0
    9.2720    6.0820   23.0360 C   0  0  0  0  0  0  0  0  0  0  0  0
    8.0150    5.7720   22.5530 C   0  0  0  0  0  0  0  0  0  0  0  0
    7.4710    4.4880   22.4990 C   0  0  0  0  0  0  0  0  0  0  0  0
    8.1950    3.3660   22.9490 C   0  0  0  0  0  0  0  0  0  0  0  0
    5.9440   -0.3290   26.4450 C   0  0  0  0  0  0  0  0  0  0  0  0
    6.6160   -1.5240   26.7350 C   0  0  0  0  0  0  0  0  0  0  0  0
    7.0820   -1.6610   28.1800 C   0  0  0  0  0  0  0  0  0  0  0  0
    6.8710   -0.6820   29.1180 C   0  0  0  0  0  0  0  0  0  0  0  0
    6.2070    0.4700   28.7450 C   0  0  0  0  0  0  0  0  0  0  0  0
    5.7440    0.6500   27.4320 C   0  0  0  0  0  0  0  0  0  0  0  0
    7.3500   -3.9530   20.5210 C   0  0  1  0  0  0  0  0  0  0  0  0
    7.9380   -3.2590   21.6800 C   0  0  0  0  0  0  0  0  0  0  0  0
    6.5630   -2.7760   22.2920 C   0  0  1  0  0  0  0  0  0  0  0  0
    6.7820   -3.5510   23.5500 C   0  0  2  0  0  0  0  0  0  0  0  0
    6.5240   -4.9710   22.9230 C   0  0  0  0  0  0  0  0  0  0  0  0
    6.6070   -5.1380   21.3130 C   0  0  0  0  0  0  0  0  0  0  0  0
  1  5  1  0
  2  5  2  0
  1  6  1  0
  3  7  1  0
  4  7  2  0
  6  7  1  6
  8  9  1  0
 11 12  1  0
 11 13  1  0
 11 14  1  0
 13 15  1  0
 16 17  1  0
 18 21  1  0
 20 21  2  0
 22 23  2  0
 23 24  1  0
 24 25  2  0
  6 26  1  0
 25 26  1  0
 22 27  1  0
 26 27  2  0
 28 29  1  0
  1 30  1  6
 29 30  1  0
 30 31  2  0
 11 32  1  0
 28 32  2  0
 31 32  1  0
  8 33  1  0
 16 34  1  0
 33 34  2  0
 34 35  1  0
 35 36  2  0
 10 37  1  0
 36 37  1  0
  3 38  1  0
 33 38  1  0
 37 38  2  0
 19 39  1  0
 18 40  1  0
 39 40  2  0
 40 41  1  0
 41 42  2  0
 42 43  1  0
 39 44  1  0
 43 44  2  0
 45  5  1  0
 45 46  1  0
  1 47  1  0
 47 46  1  6
 48 21  1  1
 47 48  1  0
 48 49  1  0
 45 50  1  1
 49 50  1  0
M  END
