x2705-x0981-x0540
     RDKit          3D

 57 60  0  0  0  0  0  0  0  0999 V2000
    7.0210   -1.8820   21.7730 N   0  0  0  0  0  0  0  0  0  0  0  0
    6.5330   -4.9380   20.3980 C   0  0  0  0  0  0  0  0  0  0  0  0
    4.7930   -2.9990   21.2940 O   0  0  0  0  0  0  0  0  0  0  0  0
    6.5100   -4.5520   21.5560 C   0  0  1  0  0  0  0  0  0  0  0  0
    7.3300    1.7720   22.6940 N   0  0  0  0  0  0  0  0  0  0  0  0
    8.9930    0.4820   21.4330 O   0  0  0  0  0  0  0  0  0  0  0  0
    6.0610   -3.0750   21.5590 C   0  0  0  0  0  0  0  0  0  0  0  0
    6.6360   -0.3990   21.5560 C   0  0  1  0  0  0  0  0  0  0  0  0
    7.7040    0.6460   21.9130 C   0  0  0  0  0  0  0  0  0  0  0  0
   10.2170    1.9220   23.9570 C   0  0  0  0  0  0  0  0  0  0  0  0
    9.3710    1.0570   24.8780 C   0  0  0  0  0  0  0  0  0  0  0  0
    6.1580    4.3920   21.7900 C   0  0  0  0  0  0  0  0  0  0  0  0
   12.0560   -1.6460   23.2720 C   0  0  0  0  0  0  0  0  0  0  0  0
   12.4870   -0.2890   23.8520 C   0  0  0  0  0  0  0  0  0  0  0  0
   12.5430   -2.6540   24.3580 C   0  0  0  0  0  0  0  0  0  0  0  0
   12.7480   -1.9200   21.9220 C   0  0  0  0  0  0  0  0  0  0  0  0
    1.3480   -8.5710   21.5960 C   0  0  0  0  0  0  0  0  0  0  0  0
    2.9340   -6.9100   22.6900 N   0  0  0  0  0  0  0  0  0  0  0  0
    0.5320   -6.2990   22.4550 O   0  0  0  0  0  0  0  0  0  0  0  0
    1.6020   -7.2160   22.2780 C   0  0  0  0  0  0  0  0  0  0  0  0
    2.6310   -7.9860   26.2900 N   0  0  0  0  0  0  0  0  0  0  0  0
    4.0270   -8.2240   24.5620 O   0  0  0  0  0  0  0  0  0  0  0  0
    3.2470   -5.9070   23.5660 C   0  0  1  0  0  0  0  0  0  0  0  0
    5.4250   -5.4650   22.1960 N   0  0  0  0  0  0  0  0  0  0  0  0
    5.0580   -4.3220   24.1740 O   0  0  0  0  0  0  0  0  0  0  0  0
    3.1120   -6.1970   24.9200 C   0  0  0  0  0  0  0  0  0  0  0  0
    3.2970   -7.5370   25.2330 C   0  0  0  0  0  0  0  0  0  0  0  0
    4.6300   -5.1910   23.3230 C   0  0  0  0  0  0  0  0  0  0  0  0
    2.8560    1.5240   24.4030 O   0  0  0  0  0  0  0  0  0  0  0  0
    2.8370    2.4030   23.5430 C   0  0  0  0  0  0  0  0  0  0  0  0
    3.9250    2.7530   22.7380 N   0  0  0  0  0  0  0  0  0  0  0  0
    4.7120    1.6360   22.2950 C   0  0  0  0  0  0  0  0  0  0  0  0
    4.0640    0.8970   21.3320 C   0  0  0  0  0  0  0  0  0  0  0  0
    1.7610    3.1880   23.2270 N   0  0  0  0  0  0  0  0  0  0  0  0
    6.4710    0.3900   17.8550 N   0  0  0  0  0  0  0  0  0  0  0  0
    5.2030    1.0510   17.8450 C   0  0  0  0  0  0  0  0  0  0  0  0
    4.4620    1.1930   18.9530 C   0  0  0  0  0  0  0  0  0  0  0  0
    4.9050    0.7120   20.1720 C   0  0  0  0  0  0  0  0  0  0  0  0
    6.1100    0.0970   20.2180 C   0  0  0  0  0  0  0  0  0  0  0  0
    6.8460   -0.0540   19.0710 C   0  0  0  0  0  0  0  0  0  0  0  0
    9.6510   -1.7790   24.2000 N   0  0  0  0  0  0  0  0  0  0  0  0
    8.3310   -1.8540   23.8690 N   0  0  0  0  0  0  0  0  0  0  0  0
    8.2790   -1.8620   22.5240 C   0  0  0  0  0  0  0  0  0  0  0  0
    9.6110   -1.7990   22.0930 C   0  0  0  0  0  0  0  0  0  0  0  0
   10.5050   -1.7400   23.1360 C   0  0  0  0  0  0  0  0  0  0  0  0
    9.5040    3.1460   23.4750 C   0  0  0  0  0  0  0  0  0  0  0  0
   10.0950    4.3710   23.5800 C   0  0  0  0  0  0  0  0  0  0  0  0
    9.4690    5.5440   23.1420 C   0  0  0  0  0  0  0  0  0  0  0  0
    8.2120    5.4950   22.5770 C   0  0  0  0  0  0  0  0  0  0  0  0
    7.5200    4.2940   22.4240 C   0  0  0  0  0  0  0  0  0  0  0  0
    8.0850    3.0670   22.8470 C   0  0  0  0  0  0  0  0  0  0  0  0
    0.4590    4.5900   24.5910 C   0  0  0  0  0  0  0  0  0  0  0  0
   -0.7820    4.9290   25.1140 C   0  0  0  0  0  0  0  0  0  0  0  0
   -1.7480    4.6430   24.1660 C   0  0  0  0  0  0  0  0  0  0  0  0
   -1.7030    3.3270   23.6950 C   0  0  0  0  0  0  0  0  0  0  0  0
   -0.5080    2.7870   23.4180 C   0  0  0  0  0  0  0  0  0  0  0  0
    0.5930    3.2790   24.1210 C   0  0  0  0  0  0  0  0  0  0  0  0
  4  2  1  6
  1  7  1  0
  3  7  2  0
  4  7  1  0
  1  8  1  0
  5  9  1  0
  6  9  2  0
  8  9  1  6
 10 11  1  0
 13 14  1  0
 13 15  1  0
 13 16  1  0
 17 20  1  0
 18 20  1  0
 19 20  2  0
 18 23  1  0
  4 24  1  0
 23 26  1  1
 21 27  1  0
 22 27  2  0
 26 27  1  0
 23 28  1  0
 24 28  1  0
 25 28  2  0
 29 30  2  0
 30 31  1  0
 31 32  1  0
 32 33  1  0
 30 34  1  0
 35 36  2  0
 36 37  1  0
 33 38  1  0
 37 38  2  0
  8 39  1  0
 38 39  1  0
 35 40  1  0
 39 40  2  0
 41 42  1  0
  1 43  1  0
 42 43  2  0
 43 44  1  0
 13 45  1  0
 41 45  1  0
 44 45  2  0
 10 46  1  0
 46 47  2  0
 47 48  1  0
 48 49  2  0
 12 50  1  0
 49 50  1  0
  5 51  1  0
 46 51  1  0
 50 51  2  0
 52 53  1  0
 53 54  1  0
 54 55  1  0
 55 56  1  0
 34 57  1  0
 52 57  1  0
 56 57  1  0
M  END
