x2703-x1358
     RDKit          3D

 48 53  0  0  0  0  0  0  0  0999 V2000
    6.9950   -1.8460   21.8680 C   0  0  2  0  0  0  0  0  0  0  0  0
    6.9750   -5.2080   20.4340 C   0  0  0  0  0  0  0  0  0  0  0  0
    4.8850   -3.0170   20.8560 O   0  0  0  0  0  0  0  0  0  0  0  0
    7.4470    1.9020   22.9000 N   0  0  0  0  0  0  0  0  0  0  0  0
    8.8340    0.7710   21.4710 O   0  0  0  0  0  0  0  0  0  0  0  0
    6.0390   -3.0450   21.3780 C   0  0  0  0  0  0  0  0  0  0  0  0
    6.6260   -0.3670   21.6830 C   0  0  1  0  0  0  0  0  0  0  0  0
    7.7150    0.7300   21.9770 C   0  0  0  0  0  0  0  0  0  0  0  0
    9.9920    1.9330   23.9990 C   0  0  0  0  0  0  0  0  0  0  0  0
    9.0550    1.2770   25.0310 C   0  0  0  0  0  0  0  0  0  0  0  0
    6.0050    4.3510   21.7770 C   0  0  0  0  0  0  0  0  0  0  0  0
   12.1430   -1.5130   24.6140 C   0  0  0  0  0  0  0  0  0  0  0  0
   12.8700   -2.6810   24.8820 C   0  0  0  0  0  0  0  0  0  0  0  0
   13.4070   -1.6960   23.7810 C   0  0  0  0  0  0  0  0  0  0  0  0
    6.6610   -2.3650   25.9030 N   0  0  0  0  0  0  0  0  0  0  0  0
    5.4930   -0.0340   25.3120 O   0  0  0  0  0  0  0  0  0  0  0  0
    4.5110   -3.8150   26.0320 O   0  0  0  0  0  0  0  0  0  0  0  0
    5.5130   -3.1170   25.3050 C   0  0  0  0  0  0  0  0  0  0  0  0
    6.2930    0.2980   17.8940 N   0  0  0  0  0  0  0  0  0  0  0  0
    5.1560    1.0080   17.8440 C   0  0  0  0  0  0  0  0  0  0  0  0
    4.4440    1.2780   18.9860 C   0  0  0  0  0  0  0  0  0  0  0  0
    4.9280    0.8150   20.1990 C   0  0  0  0  0  0  0  0  0  0  0  0
    6.0990    0.0860   20.3360 C   0  0  0  0  0  0  0  0  0  0  0  0
    6.7240   -0.1350   19.1060 C   0  0  0  0  0  0  0  0  0  0  0  0
   10.8190   -2.1320   22.4310 N   0  0  0  0  0  0  0  0  0  0  0  0
   10.8760   -1.6270   23.8250 C   0  0  0  0  0  0  0  0  0  0  0  0
    9.7120   -1.2730   24.3340 C   0  0  0  0  0  0  0  0  0  0  0  0
    8.5140   -1.3510   23.6810 C   0  0  0  0  0  0  0  0  0  0  0  0
    8.4390   -1.8340   22.3780 C   0  0  0  0  0  0  0  0  0  0  0  0
    9.6210   -2.2170   21.7900 C   0  0  0  0  0  0  0  0  0  0  0  0
    9.3790    3.2190   23.4900 C   0  0  0  0  0  0  0  0  0  0  0  0
   10.1180    4.4000   23.5960 C   0  0  0  0  0  0  0  0  0  0  0  0
    9.6630    5.6750   23.1560 C   0  0  0  0  0  0  0  0  0  0  0  0
    8.2430    5.7270   22.5150 C   0  0  0  0  0  0  0  0  0  0  0  0
    7.4130    4.4140   22.3930 C   0  0  0  0  0  0  0  0  0  0  0  0
    8.1080    3.1830   22.9380 C   0  0  0  0  0  0  0  0  0  0  0  0
    5.9990   -0.1760   26.5760 C   0  0  0  0  0  0  0  0  0  0  0  0
    6.6090   -1.3850   26.9180 C   0  0  0  0  0  0  0  0  0  0  0  0
    7.1280   -1.5720   28.2110 C   0  0  0  0  0  0  0  0  0  0  0  0
    7.0730   -0.5760   29.1880 C   0  0  0  0  0  0  0  0  0  0  0  0
    6.4860    0.6520   28.9070 C   0  0  0  0  0  0  0  0  0  0  0  0
    5.9020    0.8650   27.4920 C   0  0  0  0  0  0  0  0  0  0  0  0
    6.6220   -4.4030   21.6890 C   0  0  2  0  0  0  0  0  0  0  0  0
    7.6240   -3.9080   22.7270 C   0  0  0  0  0  0  0  0  0  0  0  0
    6.8360   -2.6670   23.2170 C   0  0  2  0  0  0  0  0  0  0  0  0
    5.4760   -3.0830   23.7660 C   0  0  1  0  0  0  0  0  0  0  0  0
    4.8610   -4.4230   23.3260 C   0  0  0  0  0  0  0  0  0  0  0  0
    5.5450   -5.2070   22.4080 C   0  0  0  0  0  0  0  0  0  0  0  0
  1  6  1  0
  3  6  2  0
  1  7  1  0
  4  8  1  0
  5  8  2  0
  7  8  1  6
  9 10  1  0
 12 13  1  0
 12 14  1  0
 15 18  1  0
 17 18  2  0
 19 20  2  0
 20 21  1  0
 21 22  2  0
  7 23  1  0
 22 23  1  0
 19 24  1  0
 23 24  2  0
 12 26  1  0
 25 26  2  0
 26 27  1  0
 27 28  2  0
  1 29  1  6
 28 29  1  0
 25 30  1  0
 29 30  2  0
  9 31  1  0
 31 32  2  0
 32 33  1  0
 33 34  2  0
 11 35  1  0
 34 35  1  0
  4 36  1  0
 31 36  1  0
 35 36  2  0
 16 37  1  0
 15 38  1  0
 37 38  2  0
 38 39  1  0
 39 40  2  0
 40 41  1  0
 37 42  1  0
 41 42  2  0
 43  2  1  6
  6 43  1  0
 43 44  1  0
  1 45  1  0
 45 44  1  6
 46 18  1  1
 45 46  1  0
 46 47  1  0
 43 48  1  0
 47 48  1  0
M  END
