x2703-x0771-x2776-x3117-x2694
     RDKit          3D

 57 62  0  0  0  0  0  0  0  0999 V2000
    6.7710   -1.4220   21.6780 C   0  0  1  0  0  0  0  0  0  0  0  0
    7.1420   -3.6380   20.1380 C   0  0  0  0  0  0  0  0  0  0  0  0
    4.7240   -2.9200   21.2350 O   0  0  0  0  0  0  0  0  0  0  0  0
    6.3080   -2.8660   19.5950 C   0  0  0  0  0  0  0  0  0  0  0  0
    7.6370    2.0020   22.8300 N   0  0  0  0  0  0  0  0  0  0  0  0
    8.7820    1.2210   21.0300 O   0  0  0  0  0  0  0  0  0  0  0  0
    5.8360   -2.4210   20.8450 C   0  0  0  0  0  0  0  0  0  0  0  0
   10.7260    6.6520   23.6980 O   0  0  0  0  0  0  0  0  0  0  0  0
    6.5730    0.1690   21.4930 C   0  0  1  0  0  0  0  0  0  0  0  0
   13.7280   -2.3250   24.1870 O   0  0  0  0  0  0  0  0  0  0  0  0
    7.7920    1.1570   21.7490 C   0  0  0  0  0  0  0  0  0  0  0  0
   10.2610    1.7170   23.9950 C   0  0  0  0  0  0  0  0  0  0  0  0
   11.7770    6.6000   24.6780 C   0  0  0  0  0  0  0  0  0  0  0  0
   12.7260   -1.4430   23.6700 C   0  0  0  0  0  0  0  0  0  0  0  0
   13.2820   -0.2760   22.8740 C   0  0  0  0  0  0  0  0  0  0  0  0
   13.4500   -2.8120   25.2860 C   0  0  0  0  0  0  0  0  0  0  0  0
   11.8530   -2.1420   22.6260 C   0  0  0  0  0  0  0  0  0  0  0  0
    9.3500    0.9710   24.9610 C   0  0  0  0  0  0  0  0  0  0  0  0
    6.6190    4.5700   22.0650 C   0  0  0  0  0  0  0  0  0  0  0  0
   11.9860   -0.7880   24.8480 C   0  0  0  0  0  0  0  0  0  0  0  0
    0.5380   -1.4070   26.2840 C   0  0  0  0  0  0  0  0  0  0  0  0
    4.3150   -6.9790   25.1470 O   0  0  0  0  0  0  0  0  0  0  0  0
    6.0240   -5.6780   26.3570 O   0  0  0  0  0  0  0  0  0  0  0  0
    1.9100   -6.0310   24.8960 C   0  0  0  0  0  0  0  0  0  0  0  0
    5.0040   -5.7250   25.3470 S   0  0  0  0  0  0  0  0  0  0  0  0
    5.8260   -2.0610   22.6580 C   0  0  0  0  0  0  0  0  0  0  0  0
    5.4700   -3.3710   22.2910 C   0  0  0  0  0  0  0  0  0  0  0  0
    6.3380    0.6180   17.7800 N   0  0  0  0  0  0  0  0  0  0  0  0
    5.1820    1.4160   17.6990 C   0  0  0  0  0  0  0  0  0  0  0  0
    4.4200    1.8230   18.7760 C   0  0  0  0  0  0  0  0  0  0  0  0
    4.8230    1.4220   20.1550 C   0  0  0  0  0  0  0  0  0  0  0  0
    6.0430    0.6050   20.1780 C   0  0  0  0  0  0  0  0  0  0  0  0
    6.7270    0.2420   19.0100 C   0  0  0  0  0  0  0  0  0  0  0  0
    9.7020    3.0600   23.6010 C   0  0  0  0  0  0  0  0  0  0  0  0
   10.4450    4.2100   23.8050 C   0  0  0  0  0  0  0  0  0  0  0  0
   10.0170    5.4920   23.4910 C   0  0  0  0  0  0  0  0  0  0  0  0
    8.7560    5.6100   22.9140 C   0  0  0  0  0  0  0  0  0  0  0  0
    7.9740    4.4750   22.6840 C   0  0  0  0  0  0  0  0  0  0  0  0
    8.4120    3.2020   23.0220 C   0  0  0  0  0  0  0  0  0  0  0  0
    9.3960   -1.8410   21.9830 C   0  0  0  0  0  0  0  0  0  0  0  0
   10.4270   -1.9130   22.9250 C   0  0  0  0  0  0  0  0  0  0  0  0
   10.1590   -1.7540   24.2700 C   0  0  0  0  0  0  0  0  0  0  0  0
    8.9270   -1.5180   24.7230 C   0  0  0  0  0  0  0  0  0  0  0  0
    7.9200   -1.4380   23.8390 C   0  0  0  0  0  0  0  0  0  0  0  0
    8.1010   -1.5890   22.4880 C   0  0  0  0  0  0  0  0  0  0  0  0
    1.6850   -2.3780   26.0780 C   0  0  0  0  0  0  0  0  0  0  0  0
    1.3740   -3.7620   25.5860 C   0  0  0  0  0  0  0  0  0  0  0  0
    2.3820   -4.6910   25.3890 C   0  0  0  0  0  0  0  0  0  0  0  0
    3.7890   -4.4850   25.6100 C   0  0  0  0  0  0  0  0  0  0  0  0
    3.9090   -3.0380   26.0950 C   0  0  0  0  0  0  0  0  0  0  0  0
    3.0200   -2.0590   26.3220 C   0  0  0  0  0  0  0  0  0  0  0  0
    6.5090   -4.3560   21.5290 C   0  0  0  0  0  0  0  0  0  0  0  0
    5.9710   -5.6120   21.4580 C   0  0  0  0  0  0  0  0  0  0  0  0
    5.4290   -6.1370   22.6400 C   0  0  0  0  0  0  0  0  0  0  0  0
    5.6780   -5.2440   23.8330 N   0  0  0  0  0  0  0  0  0  0  0  0
    7.0080   -4.6540   23.9030 C   0  0  0  0  0  0  0  0  0  0  0  0
    7.5640   -4.5940   22.6550 C   0  0  0  0  0  0  0  0  0  0  0  0
  2  4  1  0
  1  7  1  0
  3  7  2  0
  4  7  1  0
  1  9  1  0
  5 11  1  0
  6 11  2  0
  9 11  1  6
  8 13  1  0
 14 10  1  0
 14 15  1  0
 10 16  1  0
 14 17  1  0
 12 18  1  0
 14 20  1  0
 22 25  2  0
 23 25  2  0
  1 26  1  0
 26 27  1  0
 28 29  2  0
 29 30  1  0
 30 31  2  0
  9 32  1  0
 31 32  1  0
 28 33  1  0
 32 33  2  0
 12 34  1  0
 34 35  2  0
  8 36  1  0
 35 36  1  0
 36 37  2  0
 19 38  1  0
 37 38  1  0
  5 39  1  0
 34 39  1  0
 38 39  2  0
 17 41  1  0
 40 41  2  0
 41 42  1  0
 42 43  2  0
 43 44  1  0
  1 45  1  1
 40 45  1  0
 44 45  2  0
 21 46  1  0
 46 47  2  0
 24 48  1  0
 47 48  1  0
 25 49  1  0
 48 49  2  0
 49 50  1  0
 46 51  1  0
 50 51  2  0
  2 52  1  0
 52 27  1  0
 52 53  1  0
 53 54  1  0
 25 55  1  0
 54 55  1  0
 55 56  1  0
 52 57  1  0
 56 57  1  0
M  END
