x2705-x2694-x2908-x1458
     RDKit          3D

 49 53  0  0  0  0  0  0  0  0999 V2000
    7.1500   -1.4870   21.6560 C   0  0  1  0  0  0  0  0  0  0  0  0
    7.0960   -4.8340   20.5700 C   0  0  0  0  0  0  0  0  0  0  0  0
    5.1670   -3.4630   20.7370 O   0  0  0  0  0  0  0  0  0  0  0  0
    7.5150    2.1270   22.7030 N   0  0  0  0  0  0  0  0  0  0  0  0
    8.9350    1.2720   21.1030 O   0  0  0  0  0  0  0  0  0  0  0  0
    5.9830   -2.5450   21.1000 C   0  0  0  0  0  0  0  0  0  0  0  0
    6.8280    0.0610   21.4800 C   0  0  1  0  0  0  0  0  0  0  0  0
    7.8900    1.1880   21.7320 C   0  0  0  0  0  0  0  0  0  0  0  0
   10.1670    1.9590   23.9710 C   0  0  0  0  0  0  0  0  0  0  0  0
    9.2600    1.2450   24.9660 C   0  0  0  0  0  0  0  0  0  0  0  0
    6.3840    4.6980   21.9020 C   0  0  0  0  0  0  0  0  0  0  0  0
   12.2410   -1.6600   23.2240 C   0  0  0  0  0  0  0  0  0  0  0  0
   12.7690   -0.2840   23.6840 C   0  0  0  0  0  0  0  0  0  0  0  0
   12.6830   -2.6630   24.3100 C   0  0  0  0  0  0  0  0  0  0  0  0
   12.9070   -2.0080   21.8810 C   0  0  0  0  0  0  0  0  0  0  0  0
   10.5840    6.7650   23.7310 O   0  0  0  0  0  0  0  0  0  0  0  0
   11.6520    6.5180   24.6590 C   0  0  0  0  0  0  0  0  0  0  0  0
    4.2340    1.5230   21.3720 C   0  0  0  0  0  0  0  0  0  0  0  0
    6.6480   -3.5360   26.7000 N   0  0  0  0  0  0  0  0  0  0  0  0
    8.8670   -4.7700   27.0720 C   0  0  0  0  0  0  0  0  0  0  0  0
    4.5100   -3.9670   25.9610 O   0  0  0  0  0  0  0  0  0  0  0  0
    7.4120   -4.5260   27.5130 C   0  0  0  0  0  0  0  0  0  0  0  0
    6.6500   -5.8350   27.6800 C   0  0  0  0  0  0  0  0  0  0  0  0
    6.3460   -2.3030   27.3700 C   0  0  0  0  0  0  0  0  0  0  0  0
    5.7250   -3.9070   25.7470 C   0  0  0  0  0  0  0  0  0  0  0  0
    6.8180   -2.0080   22.9970 C   0  0  0  0  0  0  0  0  0  0  0  0
    6.3510    0.5110   17.7810 N   0  0  0  0  0  0  0  0  0  0  0  0
    5.2010    1.1880   17.7780 C   0  0  0  0  0  0  0  0  0  0  0  0
    4.4960    1.5240   18.8990 C   0  0  0  0  0  0  0  0  0  0  0  0
    4.9990    1.1570   20.1360 C   0  0  0  0  0  0  0  0  0  0  0  0
    6.2030    0.4650   20.1830 C   0  0  0  0  0  0  0  0  0  0  0  0
    6.8270    0.1610   18.9800 C   0  0  0  0  0  0  0  0  0  0  0  0
    9.9960   -1.0330   23.9920 N   0  0  0  0  0  0  0  0  0  0  0  0
    8.7630   -1.0360   23.5000 N   0  0  0  0  0  0  0  0  0  0  0  0
    8.6220   -1.5420   22.2100 C   0  0  0  0  0  0  0  0  0  0  0  0
    9.9270   -1.9080   21.8910 C   0  0  0  0  0  0  0  0  0  0  0  0
   10.7360   -1.5470   23.0240 C   0  0  0  0  0  0  0  0  0  0  0  0
    9.5360    3.2640   23.5450 C   0  0  0  0  0  0  0  0  0  0  0  0
   10.2530    4.4550   23.7760 C   0  0  0  0  0  0  0  0  0  0  0  0
    9.7470    5.7030   23.4210 C   0  0  0  0  0  0  0  0  0  0  0  0
    8.4850    5.7630   22.8080 C   0  0  0  0  0  0  0  0  0  0  0  0
    7.7320    4.5800   22.5590 C   0  0  0  0  0  0  0  0  0  0  0  0
    8.2710    3.3210   22.9390 C   0  0  0  0  0  0  0  0  0  0  0  0
    6.6490   -3.8440   21.6630 C   0  0  2  0  0  0  0  0  0  0  0  0
    7.5850   -3.2970   22.7540 C   0  0  2  0  0  0  0  0  0  0  0  0
    7.6280   -4.0260   24.0360 C   0  0  0  0  0  0  0  0  0  0  0  0
    6.1700   -4.1220   24.3330 C   0  0  1  0  0  0  0  0  0  0  0  0
    5.5550   -5.2690   23.6110 C   0  0  0  0  0  0  0  0  0  0  0  0
    5.4730   -4.7720   22.1850 C   0  0  0  0  0  0  0  0  0  0  0  0
  1  6  1  0
  3  6  2  0
  1  7  1  0
  4  8  1  0
  5  8  2  0
  7  8  1  6
  9 10  1  0
 12 13  1  0
 12 14  1  0
 12 15  1  0
 16 17  1  0
 19 22  1  0
 20 22  1  0
 22 23  1  0
 19 24  1  0
 19 25  1  0
 21 25  2  0
  1 26  1  0
 27 28  2  0
 28 29  1  0
 18 30  1  0
 29 30  2  0
  7 31  1  0
 30 31  1  0
 27 32  1  0
 31 32  2  0
 33 34  1  0
  1 35  1  6
 34 35  1  0
 35 36  2  0
 12 37  1  0
 33 37  2  0
 36 37  1  0
  9 38  1  0
 38 39  2  0
 16 40  1  0
 39 40  1  0
 40 41  2  0
 11 42  1  0
 41 42  1  0
  4 43  1  0
 38 43  1  0
 42 43  2  0
 44  2  1  6
  6 44  1  0
 45 26  1  1
 44 45  1  0
 45 46  1  0
 47 25  1  1
 46 47  1  0
 47 48  1  0
 44 49  1  0
 48 49  1  0
M  END
