x2705-x2569
     RDKit          3D

 34 36  0  0  0  0  0  0  0  0999 V2000
    7.0190   -1.5550   21.8400 N   0  0  0  0  0  0  0  0  0  0  0  0
    6.9400   -4.9970   20.7720 C   0  0  0  0  0  0  0  0  0  0  0  0
    4.8930   -3.0790   21.2290 O   0  0  0  0  0  0  0  0  0  0  0  0
    6.9590   -4.0480   21.9780 C   0  0  0  0  0  0  0  0  0  0  0  0
    7.2630    1.9040   22.7890 N   0  0  0  0  0  0  0  0  0  0  0  0
    8.6800    0.7060   21.4940 O   0  0  0  0  0  0  0  0  0  0  0  0
    6.1680   -2.8100   21.6380 C   0  0  0  0  0  0  0  0  0  0  0  0
    6.5170   -0.1210   21.6440 C   0  0  1  0  0  0  0  0  0  0  0  0
    7.5560    0.8210   21.9670 C   0  0  0  0  0  0  0  0  0  0  0  0
   10.0850    1.9310   24.0050 C   0  0  0  0  0  0  0  0  0  0  0  0
    9.3180    1.2050   24.9220 C   0  0  0  0  0  0  0  0  0  0  0  0
    6.0770    4.5480   21.8470 C   0  0  0  0  0  0  0  0  0  0  0  0
   12.0430   -1.5210   23.3840 C   0  0  0  0  0  0  0  0  0  0  0  0
   12.4790   -0.2820   23.8900 C   0  0  0  0  0  0  0  0  0  0  0  0
   12.5620   -2.6170   24.3460 C   0  0  0  0  0  0  0  0  0  0  0  0
   12.7670   -1.7130   22.0460 C   0  0  0  0  0  0  0  0  0  0  0  0
   13.4630   -1.8090   20.8780 N   0  0  0  0  0  0  0  0  0  0  0  0
    6.3970    0.3670   17.7650 N   0  0  0  0  0  0  0  0  0  0  0  0
    5.2030    1.2000   17.7240 C   0  0  0  0  0  0  0  0  0  0  0  0
    4.5430    1.4960   18.9040 C   0  0  0  0  0  0  0  0  0  0  0  0
    4.9320    1.0750   20.1540 C   0  0  0  0  0  0  0  0  0  0  0  0
    6.0690    0.2950   20.2790 C   0  0  0  0  0  0  0  0  0  0  0  0
    6.7810   -0.0410   18.9780 C   0  0  0  0  0  0  0  0  0  0  0  0
    9.6750   -1.6490   24.2780 N   0  0  0  0  0  0  0  0  0  0  0  0
    8.3240   -1.6750   23.9460 N   0  0  0  0  0  0  0  0  0  0  0  0
    8.2620   -1.5970   22.5730 C   0  0  0  0  0  0  0  0  0  0  0  0
    9.6950   -1.5340   22.1210 C   0  0  0  0  0  0  0  0  0  0  0  0
   10.5160   -1.5660   23.2120 C   0  0  0  0  0  0  0  0  0  0  0  0
    9.3590    3.1600   23.5040 C   0  0  0  0  0  0  0  0  0  0  0  0
   10.0770    4.5190   23.6120 C   0  0  0  0  0  0  0  0  0  0  0  0
    9.4340    5.6570   23.1540 C   0  0  0  0  0  0  0  0  0  0  0  0
    8.1480    5.6490   22.5890 C   0  0  0  0  0  0  0  0  0  0  0  0
    7.4450    4.4460   22.4660 C   0  0  0  0  0  0  0  0  0  0  0  0
    8.0760    3.1310   22.9490 C   0  0  0  0  0  0  0  0  0  0  0  0
  2  4  1  0
  1  7  1  0
  3  7  2  0
  4  7  1  0
  1  8  1  0
  5  9  1  0
  6  9  2  0
  8  9  1  6
 10 11  1  0
 13 14  1  0
 13 15  1  0
 13 16  1  0
 16 17  3  0
 18 19  2  0
 19 20  1  0
 20 21  2  0
  8 22  1  0
 21 22  1  0
 18 23  1  0
 22 23  2  0
 24 25  1  0
  1 26  1  0
 25 26  2  0
 26 27  1  0
 13 28  1  0
 24 28  1  0
 27 28  2  0
 10 29  1  0
 29 30  2  0
 30 31  1  0
 31 32  2  0
 12 33  1  0
 32 33  1  0
  5 34  1  0
 29 34  1  0
 33 34  2  0
M  END
