x2705-x0731
     RDKit          3D

 51 56  0  0  0  0  0  0  0  0999 V2000
    6.9190   -1.3350   21.9870 C   0  0  1  0  0  0  0  0  0  0  0  0
    6.7740   -3.7810   19.9270 C   0  0  0  0  0  0  0  0  0  0  0  0
    4.8320   -3.0410   21.2390 O   0  0  0  0  0  0  0  0  0  0  0  0
    6.6010   -2.3300   19.9180 C   0  0  0  0  0  0  0  0  0  0  0  0
    7.3650    2.0950   22.9190 N   0  0  0  0  0  0  0  0  0  0  0  0
    8.5060    1.3110   21.0640 O   0  0  0  0  0  0  0  0  0  0  0  0
    5.9280   -2.3180   21.1440 C   0  0  0  0  0  0  0  0  0  0  0  0
    6.6070    0.1410   21.7300 C   0  0  1  0  0  0  0  0  0  0  0  0
    7.5590    1.1860   21.8590 C   0  0  0  0  0  0  0  0  0  0  0  0
   10.1540    2.0760   24.0200 C   0  0  0  0  0  0  0  0  0  0  0  0
    9.4230    1.2310   24.8650 C   0  0  0  0  0  0  0  0  0  0  0  0
    6.0780    4.7400   21.8910 C   0  0  0  0  0  0  0  0  0  0  0  0
   12.1610   -1.5600   23.1480 C   0  0  0  0  0  0  0  0  0  0  0  0
   12.7010   -0.3210   23.5550 C   0  0  0  0  0  0  0  0  0  0  0  0
   12.6520   -2.5780   24.2070 C   0  0  0  0  0  0  0  0  0  0  0  0
   12.7840   -1.8990   21.7820 C   0  0  0  0  0  0  0  0  0  0  0  0
    0.8470   -0.8580   26.1140 C   0  0  0  0  0  0  0  0  0  0  0  0
    6.2820   -4.9950   26.5790 O   0  0  0  0  0  0  0  0  0  0  0  0
    4.6220   -6.6530   25.6470 O   0  0  0  0  0  0  0  0  0  0  0  0
    5.3240   -5.3930   25.5830 S   0  0  0  0  0  0  0  0  0  0  0  0
    6.1810   -2.0670   23.0740 C   0  0  0  0  0  0  0  0  0  0  0  0
    5.6080   -3.2110   22.3980 C   0  0  0  0  0  0  0  0  0  0  0  0
    6.4200    0.4270   17.9240 N   0  0  0  0  0  0  0  0  0  0  0  0
    5.1630    1.1330   17.8110 C   0  0  0  0  0  0  0  0  0  0  0  0
    4.3770    1.4950   18.8810 C   0  0  0  0  0  0  0  0  0  0  0  0
    4.8750    1.1350   20.2610 C   0  0  0  0  0  0  0  0  0  0  0  0
    6.0860    0.4690   20.3660 C   0  0  0  0  0  0  0  0  0  0  0  0
    6.8090    0.1340   19.2300 C   0  0  0  0  0  0  0  0  0  0  0  0
    9.8600   -1.6950   24.2780 N   0  0  0  0  0  0  0  0  0  0  0  0
    8.5540   -1.6440   23.9670 N   0  0  0  0  0  0  0  0  0  0  0  0
    8.4180   -1.4720   22.4890 C   0  0  0  0  0  0  0  0  0  0  0  0
    9.7330   -1.4460   22.0230 C   0  0  0  0  0  0  0  0  0  0  0  0
   10.6080   -1.5690   23.1010 C   0  0  0  0  0  0  0  0  0  0  0  0
    9.5070    3.3240   23.5500 C   0  0  0  0  0  0  0  0  0  0  0  0
   10.3040    4.6250   23.6460 C   0  0  0  0  0  0  0  0  0  0  0  0
    9.6970    5.9260   23.1710 C   0  0  0  0  0  0  0  0  0  0  0  0
    8.2920    5.9200   22.5950 C   0  0  0  0  0  0  0  0  0  0  0  0
    7.4570    4.6400   22.4820 C   0  0  0  0  0  0  0  0  0  0  0  0
    8.0770    3.3160   22.9770 C   0  0  0  0  0  0  0  0  0  0  0  0
    1.9050   -1.9040   25.9820 C   0  0  0  0  0  0  0  0  0  0  0  0
    1.6220   -3.2780   25.3510 C   0  0  0  0  0  0  0  0  0  0  0  0
    2.6570   -4.3810   25.2060 C   0  0  0  0  0  0  0  0  0  0  0  0
    4.0670   -4.1400   25.7070 C   0  0  0  0  0  0  0  0  0  0  0  0
    4.3590   -2.7680   26.3300 C   0  0  0  0  0  0  0  0  0  0  0  0
    3.3270   -1.6510   26.4800 C   0  0  0  0  0  0  0  0  0  0  0  0
    6.5220   -4.2010   21.4790 C   0  0  0  0  0  0  0  0  0  0  0  0
    7.6060   -4.4330   22.2530 C   0  0  0  0  0  0  0  0  0  0  0  0
    7.3030   -4.7200   23.7230 C   0  0  0  0  0  0  0  0  0  0  0  0
    5.9290   -5.1730   23.9810 N   0  0  0  0  0  0  0  0  0  0  0  0
    5.3830   -6.0730   22.9450 C   0  0  0  0  0  0  0  0  0  0  0  0
    5.9110   -5.6510   21.5590 C   0  0  0  0  0  0  0  0  0  0  0  0
  2  4  1  0
  1  7  1  0
  3  7  2  0
  4  7  1  0
  1  8  1  0
  5  9  1  0
  6  9  2  0
  8  9  1  6
 10 11  1  0
 13 14  1  0
 13 15  1  0
 13 16  1  0
 18 20  2  0
 19 20  2  0
  1 21  1  0
 21 22  1  0
 23 24  2  0
 24 25  1  0
 25 26  2  0
  8 27  1  0
 26 27  1  0
 23 28  1  0
 27 28  2  0
 29 30  1  0
  1 31  1  1
 30 31  1  0
 31 32  2  0
 13 33  1  0
 29 33  2  0
 32 33  1  0
 10 34  1  0
 34 35  2  0
 35 36  1  0
 36 37  2  0
 12 38  1  0
 37 38  1  0
  5 39  1  0
 34 39  1  0
 38 39  2  0
 17 40  1  0
 40 41  2  0
 41 42  1  0
 20 43  1  0
 42 43  2  0
 43 44  1  0
 40 45  1  0
 44 45  2  0
  2 46  1  0
 46 22  1  0
 46 47  1  0
 47 48  1  0
 20 49  1  0
 48 49  1  0
 49 50  1  0
 46 51  1  0
 50 51  1  0
M  END
