x2705-x1380-x2694
     RDKit          3D

 49 54  0  0  0  0  0  0  0  0999 V2000
    7.0320   -1.6340   21.8830 C   0  0  1  0  0  0  0  0  0  0  0  0
    6.9460   -4.9970   20.5160 C   0  0  0  0  0  0  0  0  0  0  0  0
    4.9050   -3.0340   20.9440 O   0  0  0  0  0  0  0  0  0  0  0  0
    7.4570    2.0950   22.6780 N   0  0  0  0  0  0  0  0  0  0  0  0
    8.7440    1.1630   21.0670 O   0  0  0  0  0  0  0  0  0  0  0  0
    6.1170   -2.9250   21.4090 C   0  0  0  0  0  0  0  0  0  0  0  0
    6.7410   -0.0810   21.5440 C   0  0  1  0  0  0  0  0  0  0  0  0
    7.7250    1.0880   21.7590 C   0  0  0  0  0  0  0  0  0  0  0  0
   10.1640    1.9040   23.9400 C   0  0  0  0  0  0  0  0  0  0  0  0
    9.3080    1.1570   24.9480 C   0  0  0  0  0  0  0  0  0  0  0  0
    6.3400    4.6490   21.9220 C   0  0  0  0  0  0  0  0  0  0  0  0
   12.2570   -1.6180   23.1500 C   0  0  0  0  0  0  0  0  0  0  0  0
   12.7540   -0.1950   23.5910 C   0  0  0  0  0  0  0  0  0  0  0  0
   12.7560   -2.5870   24.2480 C   0  0  0  0  0  0  0  0  0  0  0  0
   12.8990   -1.9570   21.7990 C   0  0  0  0  0  0  0  0  0  0  0  0
   10.5760    6.8210   23.7640 O   0  0  0  0  0  0  0  0  0  0  0  0
   11.6800    6.6120   24.6580 C   0  0  0  0  0  0  0  0  0  0  0  0
    4.6460   -2.6450   25.5520 O   0  0  0  0  0  0  0  0  0  0  0  0
    5.8760   -3.3760   25.6240 C   0  0  0  0  0  0  0  0  0  0  0  0
    6.5260   -1.9760   23.2770 C   0  0  0  0  0  0  0  0  0  0  0  0
    6.3810    0.4030   17.8610 N   0  0  0  0  0  0  0  0  0  0  0  0
    5.1340    1.1690   17.7540 C   0  0  0  0  0  0  0  0  0  0  0  0
    4.3850    1.4920   18.9890 C   0  0  0  0  0  0  0  0  0  0  0  0
    4.8910    1.0770   20.2100 C   0  0  0  0  0  0  0  0  0  0  0  0
    6.0810    0.3720   20.2620 C   0  0  0  0  0  0  0  0  0  0  0  0
    6.7750    0.0550   19.0940 C   0  0  0  0  0  0  0  0  0  0  0  0
    9.9180   -1.2800   24.0870 N   0  0  0  0  0  0  0  0  0  0  0  0
    8.5880   -1.2840   23.7750 N   0  0  0  0  0  0  0  0  0  0  0  0
    8.4890   -1.6130   22.4530 C   0  0  0  0  0  0  0  0  0  0  0  0
    9.7790   -1.8040   22.0300 C   0  0  0  0  0  0  0  0  0  0  0  0
   10.7430   -1.5880   23.0370 C   0  0  0  0  0  0  0  0  0  0  0  0
    9.5330    3.2200   23.5460 C   0  0  0  0  0  0  0  0  0  0  0  0
   10.3210    4.5110   23.8110 C   0  0  0  0  0  0  0  0  0  0  0  0
    9.7750    5.7380   23.4630 C   0  0  0  0  0  0  0  0  0  0  0  0
    8.3830    5.7130   22.8060 C   0  0  0  0  0  0  0  0  0  0  0  0
    7.6930    4.5080   22.5780 C   0  0  0  0  0  0  0  0  0  0  0  0
    8.2480    3.2730   22.9450 C   0  0  0  0  0  0  0  0  0  0  0  0
    6.7940   -4.3110   21.6630 C   0  0  1  0  0  0  0  0  0  0  0  0
    5.7920   -5.2170   22.4370 C   0  0  0  0  0  0  0  0  0  0  0  0
    5.3850   -4.6700   23.6420 C   0  0  0  0  0  0  0  0  0  0  0  0
    6.4050   -4.1130   24.3900 C   0  0  1  0  0  0  0  0  0  0  0  0
    7.2760   -3.2820   23.6990 C   0  0  1  0  0  0  0  0  0  0  0  0
    7.9570   -3.8620   22.6050 C   0  0  0  0  0  0  0  0  0  0  0  0
    7.9010   -4.1710   26.7360 C   0  0  0  0  0  0  0  0  0  0  0  0
    7.8130   -5.3920   27.4140 C   0  0  0  0  0  0  0  0  0  0  0  0
    7.2020   -5.3320   28.6660 C   0  0  0  0  0  0  0  0  0  0  0  0
    5.9990   -4.7740   28.5870 C   0  0  0  0  0  0  0  0  0  0  0  0
    5.9890   -3.4640   28.1050 C   0  0  0  0  0  0  0  0  0  0  0  0
    6.6160   -3.4490   26.7920 N   0  0  0  0  0  0  0  0  0  0  0  0
  1  6  1  0
  3  6  2  0
  1  7  1  0
  4  8  1  0
  5  8  2  0
  7  8  1  6
  9 10  1  0
 12 13  1  0
 12 14  1  0
 12 15  1  0
 16 17  1  0
 18 19  2  0
  1 20  1  0
 21 22  2  0
 22 23  1  0
 23 24  2  0
  7 25  1  0
 24 25  1  0
 21 26  1  0
 25 26  2  0
 27 28  1  0
  1 29  1  1
 28 29  2  0
 29 30  1  0
 12 31  1  0
 27 31  1  0
 30 31  2  0
  9 32  1  0
 32 33  2  0
 16 34  1  0
 33 34  1  0
 34 35  2  0
 11 36  1  0
 35 36  1  0
  4 37  1  0
 32 37  1  0
 36 37  2  0
 38  2  1  6
  6 38  1  0
 38 39  1  0
 39 40  1  0
 41 19  1  1
 40 41  1  0
 42 20  1  6
 41 42  1  0
 38 43  1  0
 42 43  1  0
 44 45  1  0
 45 46  1  0
 46 47  1  0
 47 48  1  0
 19 49  1  0
 44 49  1  0
 48 49  1  0
M  END
