x2703-x2694-x0426-x1351-x0734
     RDKit          3D

 74 82  0  0  0  0  0  0  0  0999 V2000
    7.1410   -1.3050   21.6380 C   0  0  2  0  0  0  0  0  0  0  0  0
    7.0820   -4.9370   20.9750 C   0  0  0  0  0  0  0  0  0  0  0  0
    4.8860   -2.9500   20.7060 O   0  0  0  0  0  0  0  0  0  0  0  0
    7.4860    2.5980   22.4460 N   0  0  0  0  0  0  0  0  0  0  0  0
    8.8170    1.3200   21.2620 O   0  0  0  0  0  0  0  0  0  0  0  0
    6.1130   -2.6150   21.2900 C   0  0  0  0  0  0  0  0  0  0  0  0
   11.1500    6.7420   23.9350 O   0  0  0  0  0  0  0  0  0  0  0  0
    6.6790    0.2240   21.4960 C   0  0  1  0  0  0  0  0  0  0  0  0
    7.6070    1.3530   21.8170 C   0  0  0  0  0  0  0  0  0  0  0  0
   10.0480    1.7370   23.9090 C   0  0  0  0  0  0  0  0  0  0  0  0
   11.8920    6.6530   25.1460 C   0  0  0  0  0  0  0  0  0  0  0  0
   12.3840   -1.3390   22.8410 C   0  0  0  0  0  0  0  0  0  0  0  0
   12.8010    0.1190   23.1370 C   0  0  0  0  0  0  0  0  0  0  0  0
   12.9720   -1.7660   21.4930 C   0  0  0  0  0  0  0  0  0  0  0  0
   13.0790   -2.1970   23.9230 C   0  0  0  0  0  0  0  0  0  0  0  0
    9.1600    1.1830   25.0240 C   0  0  0  0  0  0  0  0  0  0  0  0
   12.2050   -2.9470   24.8560 C   0  0  0  0  0  0  0  0  0  0  0  0
    2.2730    1.6890   23.9120 C   0  0  0  0  0  0  0  0  0  0  0  0
    2.1120    0.4790   23.8480 O   0  0  0  0  0  0  0  0  0  0  0  0
    3.3920    2.2890   23.3740 N   0  0  0  0  0  0  0  0  0  0  0  0
    4.1710    1.6430   22.4740 C   0  0  0  0  0  0  0  0  0  0  0  0
    3.8310    1.6940   21.1310 C   0  0  0  0  0  0  0  0  0  0  0  0
    2.8170    4.2160   25.1740 F   0  0  0  0  0  0  0  0  0  0  0  0
    5.5330   -3.0210   25.1180 N   0  0  0  0  0  0  0  0  0  0  0  0
    7.6670   -2.2700   25.4540 O   0  0  0  0  0  0  0  0  0  0  0  0
    6.4910   -2.1230   25.6620 C   0  0  0  0  0  0  0  0  0  0  0  0
    6.7070   -1.7050   23.0520 C   0  0  0  0  0  0  0  0  0  0  0  0
    6.3530    0.6620   17.6980 N   0  0  0  0  0  0  0  0  0  0  0  0
    5.1950    1.2990   17.6940 C   0  0  0  0  0  0  0  0  0  0  0  0
    4.4330    1.5980   18.8180 C   0  0  0  0  0  0  0  0  0  0  0  0
    4.8140    1.2800   20.0410 C   0  0  0  0  0  0  0  0  0  0  0  0
    6.0700    0.6080   20.1810 C   0  0  0  0  0  0  0  0  0  0  0  0
    6.8020    0.3020   19.0490 C   0  0  0  0  0  0  0  0  0  0  0  0
    8.8040   -1.7640   23.5920 N   0  0  0  0  0  0  0  0  0  0  0  0
   10.1600   -1.7660   23.8870 O   0  0  0  0  0  0  0  0  0  0  0  0
   10.8550   -1.4200   22.7710 C   0  0  0  0  0  0  0  0  0  0  0  0
    9.9140   -1.2070   21.7930 C   0  0  0  0  0  0  0  0  0  0  0  0
    8.6190   -1.4070   22.2340 C   0  0  0  0  0  0  0  0  0  0  0  0
    9.6870    3.1610   23.5410 C   0  0  0  0  0  0  0  0  0  0  0  0
   10.6780    4.2150   23.9410 C   0  0  0  0  0  0  0  0  0  0  0  0
   10.3840    5.6540   23.6340 C   0  0  0  0  0  0  0  0  0  0  0  0
    9.0690    5.8900   22.9050 C   0  0  0  0  0  0  0  0  0  0  0  0
    8.2300    4.8310   22.5730 C   0  0  0  0  0  0  0  0  0  0  0  0
    8.5090    3.5040   22.8750 C   0  0  0  0  0  0  0  0  0  0  0  0
    1.5590    3.7490   25.1820 C   0  0  0  0  0  0  0  0  0  0  0  0
    1.2460    2.5410   24.5880 C   0  0  0  0  0  0  0  0  0  0  0  0
   -0.0520    2.0540   24.5920 C   0  0  0  0  0  0  0  0  0  0  0  0
   -1.0700    2.7590   25.1880 C   0  0  0  0  0  0  0  0  0  0  0  0
   -0.8530    4.1020   25.8780 C   0  0  0  0  0  0  0  0  0  0  0  0
    0.5930    4.5340   25.8120 C   0  0  0  0  0  0  0  0  0  0  0  0
    5.3130   -4.2000   22.7190 N   0  0  0  0  0  0  0  0  0  0  0  0
    6.5400   -3.8900   21.9590 C   0  0  1  0  0  0  0  0  0  0  0  0
    7.0970   -3.2160   23.2280 C   0  0  2  0  0  0  0  0  0  0  0  0
    6.0470   -3.9250   24.0020 C   0  0  1  0  0  0  0  0  0  0  0  0
    6.2850   -5.2720   24.1430 C   0  0  0  0  0  0  0  0  0  0  0  0
    5.2010   -5.5830   23.1190 C   0  0  0  0  0  0  0  0  0  0  0  0
    7.0470   -0.4850   27.5060 C   0  0  0  0  0  0  0  0  0  0  0  0
    6.7320    0.6230   28.2870 C   0  0  0  0  0  0  0  0  0  0  0  0
    5.5380    1.3030   28.0730 C   0  0  0  0  0  0  0  0  0  0  0  0
    4.6600    0.8700   27.0790 C   0  0  0  0  0  0  0  0  0  0  0  0
    4.9660   -0.2490   26.2930 C   0  0  0  0  0  0  0  0  0  0  0  0
    6.1620   -0.9310   26.5050 C   0  0  0  0  0  0  0  0  0  0  0  0
    5.1260   -5.2090   26.6330 N   0  0  0  0  0  0  0  0  0  0  0  0
    4.2230   -6.0540   25.9140 O   0  0  0  0  0  0  0  0  0  0  0  0
    4.6690   -3.9450   27.0710 O   0  0  0  0  0  0  0  0  0  0  0  0
    6.5260   -5.4150   26.3610 C   0  0  0  0  0  0  0  0  0  0  0  0
    7.0990   -5.0400   25.1420 C   0  0  0  0  0  0  0  0  0  0  0  0
    8.4460   -5.2690   24.8860 C   0  0  0  0  0  0  0  0  0  0  0  0
    9.2230   -5.8740   25.8560 C   0  0  0  0  0  0  0  0  0  0  0  0
    8.6410   -6.2220   27.0700 C   0  0  0  0  0  0  0  0  0  0  0  0
    7.3000   -6.0030   27.3310 C   0  0  0  0  0  0  0  0  0  0  0  0
    4.3310   -3.3220   25.8640 C   0  0  0  0  0  0  0  0  0  0  0  0
    5.4950    4.1540   22.5780 C   0  0  0  0  0  0  0  0  0  0  0  0
    6.5150    3.4300   21.7260 C   0  0  0  0  0  0  0  0  0  0  0  0
  1  6  1  0
  3  6  2  0
  1  8  1  0
  4  9  1  0
  5  9  2  0
  8  9  1  6
  7 11  1  0
 12 13  1  0
 12 14  1  0
 12 15  1  0
 10 16  1  0
 15 17  1  0
 18 19  2  0
 18 20  1  0
 20 21  1  0
 21 22  1  0
 24 26  1  0
 25 26  2  0
  1 27  1  0
 28 29  2  0
 29 30  1  0
 22 31  1  0
 30 31  2  0
  8 32  1  0
 31 32  1  0
 28 33  1  0
 32 33  2  0
 34 35  1  0
 12 36  1  0
 35 36  1  0
 36 37  2  0
  1 38  1  1
 34 38  2  0
 37 38  1  0
 10 39  1  0
 39 40  2  0
  7 41  1  0
 40 41  1  0
 41 42  2  0
 42 43  1  0
  4 44  1  0
 39 44  1  0
 43 44  2  0
 23 45  1  0
 18 46  1  0
 45 46  2  0
 46 47  1  0
 47 48  2  0
 48 49  1  0
 45 50  1  0
 49 50  2  0
 52  2  1  6
  6 52  1  0
 51 52  1  0
 53 27  1  6
 52 53  1  0
 54 24  1  1
 51 54  1  0
 53 54  1  0
 54 55  1  0
 51 56  1  0
 55 56  1  0
 57 58  2  0
 58 59  1  0
 59 60  2  0
 60 61  1  0
 26 62  1  0
 57 62  1  0
 61 62  2  0
 63 64  2  0
 63 65  1  0
 63 66  1  0
 66 67  2  0
 67 68  1  0
 68 69  2  0
 69 70  1  0
 66 71  1  0
 70 71  2  0
 24 72  1  0
 65 72  1  0
  4 74  1  0
 73 74  1  0
M  CHG  1  63   1
M  END
