x2705-x1374-x3117-x0981
     RDKit          3D

 55 62  0  0  0  0  0  0  0  0999 V2000
    6.9990   -1.7860   21.7340 N   0  0  0  0  0  0  0  0  0  0  0  0
    6.7150   -5.2710   20.8480 C   0  0  0  0  0  0  0  0  0  0  0  0
    4.8720   -3.0180   21.1370 O   0  0  0  0  0  0  0  0  0  0  0  0
    6.4680   -4.5240   21.9690 C   0  0  2  0  0  0  0  0  0  0  0  0
    7.3100    1.7460   22.7450 N   0  0  0  0  0  0  0  0  0  0  0  0
    8.7510    0.6700   21.4030 O   0  0  0  0  0  0  0  0  0  0  0  0
    6.1190   -3.0770   21.6170 C   0  0  0  0  0  0  0  0  0  0  0  0
    6.5460   -0.4140   21.5800 C   0  0  1  0  0  0  0  0  0  0  0  0
    7.6260    0.6910   21.9030 C   0  0  0  0  0  0  0  0  0  0  0  0
   10.0610    1.8840   23.9570 C   0  0  0  0  0  0  0  0  0  0  0  0
    9.3040    1.2000   24.9450 C   0  0  0  0  0  0  0  0  0  0  0  0
    6.1010    4.3780   21.8000 C   0  0  0  0  0  0  0  0  0  0  0  0
   12.0870   -1.5040   23.2500 C   0  0  0  0  0  0  0  0  0  0  0  0
   12.5620   -0.1960   23.9130 C   0  0  0  0  0  0  0  0  0  0  0  0
   12.7160   -2.7240   23.9670 C   0  0  0  0  0  0  0  0  0  0  0  0
   12.7230   -1.5850   21.8520 C   0  0  0  0  0  0  0  0  0  0  0  0
   13.3430   -2.5300   25.3460 C   0  0  0  0  0  0  0  0  0  0  0  0
    1.7320   -8.3700   22.1120 C   0  0  0  0  0  0  0  0  0  0  0  0
    2.6600   -6.1320   22.5960 N   0  0  0  0  0  0  0  0  0  0  0  0
    0.2420   -6.3760   22.2830 O   0  0  0  0  0  0  0  0  0  0  0  0
    1.5510   -6.9120   22.3460 C   0  0  0  0  0  0  0  0  0  0  0  0
    2.6560   -8.2150   26.3730 N   0  0  0  0  0  0  0  0  0  0  0  0
    4.2200   -7.9680   24.3400 N   0  0  0  0  0  0  0  0  0  0  0  0
    2.8770   -5.3730   23.6100 C   0  0  1  0  0  0  0  0  0  0  0  0
    2.7690   -6.1850   24.7860 C   0  0  1  0  0  0  0  0  0  0  0  0
    3.2630   -7.5420   25.2000 C   0  0  0  0  0  0  0  0  0  0  0  0
   10.8850   -3.5720   24.7080 C   0  0  0  0  0  0  0  0  0  0  0  0
    6.4030    0.3820   17.8860 N   0  0  0  0  0  0  0  0  0  0  0  0
    5.2780    1.1070   17.8020 C   0  0  0  0  0  0  0  0  0  0  0  0
    4.4390    1.4030   18.8580 C   0  0  0  0  0  0  0  0  0  0  0  0
    4.7790    0.9040   20.2320 C   0  0  0  0  0  0  0  0  0  0  0  0
    6.0330    0.1270   20.2600 C   0  0  0  0  0  0  0  0  0  0  0  0
    6.7690   -0.0950   19.0850 C   0  0  0  0  0  0  0  0  0  0  0  0
    9.6650   -1.4510   24.1800 N   0  0  0  0  0  0  0  0  0  0  0  0
    8.3390   -1.5260   23.8350 N   0  0  0  0  0  0  0  0  0  0  0  0
    8.2720   -1.6960   22.4930 C   0  0  0  0  0  0  0  0  0  0  0  0
    9.6160   -1.7240   22.0730 C   0  0  0  0  0  0  0  0  0  0  0  0
   10.5440   -1.5670   23.1190 C   0  0  0  0  0  0  0  0  0  0  0  0
    9.3030    3.0900   23.4410 C   0  0  0  0  0  0  0  0  0  0  0  0
    9.9540    4.3020   23.5570 C   0  0  0  0  0  0  0  0  0  0  0  0
    9.4270    5.4880   23.1450 C   0  0  0  0  0  0  0  0  0  0  0  0
    8.1850    5.4420   22.5890 C   0  0  0  0  0  0  0  0  0  0  0  0
    7.4560    4.2560   22.4340 C   0  0  0  0  0  0  0  0  0  0  0  0
    8.0020    3.0160   22.8650 C   0  0  0  0  0  0  0  0  0  0  0  0
    9.5850   -4.2260   24.4330 C   0  0  0  0  0  0  0  0  0  0  0  0
    8.7570   -3.9990   23.3060 C   0  0  0  0  0  0  0  0  0  0  0  0
    7.5250   -4.6460   23.1100 C   0  0  0  0  0  0  0  0  0  0  0  0
    7.1360   -5.5330   24.0690 C   0  0  0  0  0  0  0  0  0  0  0  0
    8.0080   -5.7620   25.2420 C   0  0  0  0  0  0  0  0  0  0  0  0
    9.1850   -5.1230   25.3880 C   0  0  0  0  0  0  0  0  0  0  0  0
    4.5810   -4.4590   24.8900 C   0  0  0  0  0  0  0  0  0  0  0  0
    4.3700   -4.5770   23.4660 C   0  0  1  0  0  0  0  0  0  0  0  0
    5.2950   -5.1550   22.9380 C   0  0  1  0  0  0  0  0  0  0  0  0
    4.2740   -6.5150   23.3440 S   0  0  1  0  0  0  0  0  0  0  0  0
    3.7800   -5.3440   25.3940 C   0  0  0  0  0  0  0  0  0  0  0  0
  4  2  1  6
  1  7  1  0
  3  7  2  0
  4  7  1  0
  1  8  1  0
  5  9  1  0
  6  9  2  0
  8  9  1  6
 10 11  1  0
 13 14  1  0
 13 15  1  0
 13 16  1  0
 15 17  1  0
 18 21  1  0
 19 21  1  0
 20 21  2  0
 24 19  1  6
 24 25  1  0
 22 26  1  0
 23 26  2  0
 25 26  1  6
 28 29  2  0
 29 30  1  0
 30 31  2  0
  8 32  1  0
 31 32  1  0
 28 33  1  0
 32 33  2  0
 34 35  1  0
  1 36  1  0
 35 36  2  0
 36 37  1  0
 13 38  1  0
 34 38  1  0
 37 38  2  0
 10 39  1  0
 39 40  2  0
 40 41  1  0
 41 42  2  0
 12 43  1  0
 42 43  1  0
  5 44  1  0
 39 44  1  0
 43 44  2  0
 27 45  1  0
 45 46  2  0
  4 47  1  0
 46 47  1  0
 47 48  2  0
 48 49  1  0
 45 50  1  0
 49 50  2  0
 24 52  1  0
 52 51  1  1
 53  4  1  6
 52 53  1  0
 19 54  1  0
 54 23  1  6
 53 54  1  0
 25 55  1  0
 51 55  2  0
 54 55  1  0
M  END
