x2705-x2600
     RDKit          3D

 34 36  0  0  0  0  0  0  0  0999 V2000
    7.0040   -1.5580   21.8430 N   0  0  0  0  0  0  0  0  0  0  0  0
    6.8210   -4.8600   20.4900 C   0  0  0  0  0  0  0  0  0  0  0  0
    4.8620   -3.0450   21.2380 O   0  0  0  0  0  0  0  0  0  0  0  0
    6.9140   -4.0740   21.8020 C   0  0  0  0  0  0  0  0  0  0  0  0
    7.2580    1.9070   22.7860 N   0  0  0  0  0  0  0  0  0  0  0  0
    8.6770    0.7190   21.4850 O   0  0  0  0  0  0  0  0  0  0  0  0
    6.1450   -2.8030   21.5980 C   0  0  0  0  0  0  0  0  0  0  0  0
    6.5150   -0.1200   21.6400 C   0  0  1  0  0  0  0  0  0  0  0  0
    7.5500    0.8260   21.9620 C   0  0  0  0  0  0  0  0  0  0  0  0
   10.0920    1.9260   24.0000 C   0  0  0  0  0  0  0  0  0  0  0  0
    9.3260    1.1990   24.9180 C   0  0  0  0  0  0  0  0  0  0  0  0
    6.0790    4.5570   21.8500 C   0  0  0  0  0  0  0  0  0  0  0  0
   12.0380   -1.5190   23.3690 C   0  0  0  0  0  0  0  0  0  0  0  0
   12.4650   -0.2740   23.8640 C   0  0  0  0  0  0  0  0  0  0  0  0
   12.5640   -2.5990   24.3400 C   0  0  0  0  0  0  0  0  0  0  0  0
   12.7740   -1.7130   22.0350 C   0  0  0  0  0  0  0  0  0  0  0  0
   13.4760   -1.7970   20.8680 N   0  0  0  0  0  0  0  0  0  0  0  0
    6.4040    0.3570   17.7610 N   0  0  0  0  0  0  0  0  0  0  0  0
    5.2120    1.1920   17.7140 C   0  0  0  0  0  0  0  0  0  0  0  0
    4.5480    1.4950   18.8930 C   0  0  0  0  0  0  0  0  0  0  0  0
    4.9380    1.0760   20.1410 C   0  0  0  0  0  0  0  0  0  0  0  0
    6.0710    0.2920   20.2730 C   0  0  0  0  0  0  0  0  0  0  0  0
    6.7820   -0.0490   18.9770 C   0  0  0  0  0  0  0  0  0  0  0  0
    9.6690   -1.6800   24.2680 N   0  0  0  0  0  0  0  0  0  0  0  0
    8.3150   -1.7090   23.9420 N   0  0  0  0  0  0  0  0  0  0  0  0
    8.2480   -1.6090   22.5720 C   0  0  0  0  0  0  0  0  0  0  0  0
    9.6810   -1.5300   22.1140 C   0  0  0  0  0  0  0  0  0  0  0  0
   10.5050   -1.5740   23.2010 C   0  0  0  0  0  0  0  0  0  0  0  0
    9.3590    3.1570   23.5000 C   0  0  0  0  0  0  0  0  0  0  0  0
   10.0810    4.5160   23.6080 C   0  0  0  0  0  0  0  0  0  0  0  0
    9.4360    5.6520   23.1540 C   0  0  0  0  0  0  0  0  0  0  0  0
    8.1490    5.6470   22.5920 C   0  0  0  0  0  0  0  0  0  0  0  0
    7.4440    4.4460   22.4680 C   0  0  0  0  0  0  0  0  0  0  0  0
    8.0740    3.1290   22.9480 C   0  0  0  0  0  0  0  0  0  0  0  0
  2  4  1  0
  1  7  1  0
  3  7  2  0
  4  7  1  0
  1  8  1  0
  5  9  1  0
  6  9  2  0
  8  9  1  6
 10 11  1  0
 13 14  1  0
 13 15  1  0
 13 16  1  0
 16 17  3  0
 18 19  2  0
 19 20  1  0
 20 21  2  0
  8 22  1  0
 21 22  1  0
 18 23  1  0
 22 23  2  0
 24 25  1  0
  1 26  1  0
 25 26  2  0
 26 27  1  0
 13 28  1  0
 24 28  1  0
 27 28  2  0
 10 29  1  0
 29 30  2  0
 30 31  1  0
 31 32  2  0
 12 33  1  0
 32 33  1  0
  5 34  1  0
 29 34  1  0
 33 34  2  0
M  END
