x2703-x0967
     RDKit          3D

 36 40  0  0  0  0  0  0  0  0999 V2000
    7.2330   -1.6010   22.0310 C   0  0  2  0  0  0  0  0  0  0  0  0
    6.8740   -4.8820   20.3470 C   0  0  0  0  0  0  0  0  0  0  0  0
    4.9380   -3.0590   21.0280 O   0  0  0  0  0  0  0  0  0  0  0  0
    6.9830   -4.1360   21.6600 C   0  0  0  0  0  0  0  0  0  0  0  0
    6.8880    1.8760   22.4250 N   0  0  0  0  0  0  0  0  0  0  0  0
    8.7630    0.8840   21.5260 C   0  0  0  0  0  0  0  0  0  0  0  0
    6.2350   -2.8580   21.4740 C   0  0  0  0  0  0  0  0  0  0  0  0
    6.4100   -0.2940   22.0300 C   0  0  1  0  0  0  0  0  0  0  0  0
    7.5330    0.5290   22.3940 C   0  0  1  0  0  0  0  0  0  0  0  0
   10.2030    2.1640   23.9170 C   0  0  0  0  0  0  0  0  0  0  0  0
    9.3050    1.1880   24.7180 C   0  0  0  0  0  0  0  0  0  0  0  0
    6.6210    3.8240   22.0300 C   0  0  0  0  0  0  0  0  0  0  0  0
   11.1110   -1.2090   23.0450 C   0  0  0  0  0  0  0  0  0  0  0  0
   11.8650   -1.5010   24.2170 C   0  0  0  0  0  0  0  0  0  0  0  0
   11.8170   -0.1610   23.8880 C   0  0  0  0  0  0  0  0  0  0  0  0
    7.8910    1.6840   22.9480 O   0  0  0  0  0  0  0  0  0  0  0  0
    8.2730   -0.4990   21.4980 C   0  0  0  0  0  0  0  0  0  0  0  0
   12.4620   -2.1030   21.9980 Br  0  0  0  0  0  0  0  0  0  0  0  0
    6.4370    0.1680   18.2840 N   0  0  0  0  0  0  0  0  0  0  0  0
    5.2520    0.9330   17.9410 C   0  0  0  0  0  0  0  0  0  0  0  0
    4.3840    1.3070   18.9580 C   0  0  0  0  0  0  0  0  0  0  0  0
    4.6770    0.9480   20.2780 C   0  0  0  0  0  0  0  0  0  0  0  0
    5.8880    0.1750   20.6500 C   0  0  0  0  0  0  0  0  0  0  0  0
    6.7190   -0.1870   19.6410 C   0  0  0  0  0  0  0  0  0  0  0  0
    9.7740   -1.8710   23.4700 C   0  0  0  0  0  0  0  0  0  0  0  0
   10.1320   -2.5500   24.6270 C   0  0  0  0  0  0  0  0  0  0  0  0
    9.3310   -3.2910   25.4130 C   0  0  0  0  0  0  0  0  0  0  0  0
    8.0260   -3.4080   25.0680 C   0  0  0  0  0  0  0  0  0  0  0  0
    7.5020   -2.8040   23.9490 C   0  0  0  0  0  0  0  0  0  0  0  0
    8.2620   -2.0280   23.0920 C   0  0  0  0  0  0  0  0  0  0  0  0
    9.4770    3.3800   23.4240 C   0  0  0  0  0  0  0  0  0  0  0  0
   10.1820    4.7660   23.5550 C   0  0  0  0  0  0  0  0  0  0  0  0
    9.4920    6.0580   23.0440 C   0  0  0  0  0  0  0  0  0  0  0  0
    8.0900    5.7530   22.4270 C   0  0  0  0  0  0  0  0  0  0  0  0
    7.4570    4.5300   22.3090 C   0  0  0  0  0  0  0  0  0  0  0  0
    7.9940    3.0910   22.7770 S   0  0  0  0  0  0  0  0  0  0  0  0
  2  4  1  0
  1  7  1  6
  3  7  2  0
  4  7  1  0
  1  8  1  0
  9  5  1  1
  6  9  1  0
  8  9  1  0
 10 11  1  0
 13 14  1  0
 13 15  1  0
  1 17  1  0
  6 17  2  0
  9 17  1  0
 13 18  1  0
 19 20  2  0
 20 21  1  0
 21 22  2  0
  8 23  1  6
 22 23  1  0
 19 24  1  0
 23 24  2  0
 13 25  1  0
 25 26  2  0
 26 27  1  0
 27 28  2  0
 28 29  1  0
  1 30  1  0
 25 30  1  0
 29 30  2  0
 10 31  1  0
 31 32  2  0
 32 33  1  0
 33 34  2  0
 34 35  1  0
  5 36  1  0
 12 36  1  0
 16 36  1  0
 31 36  1  0
 35 36  2  0
M  END
