x2705-x0978-x0771-x1077
     RDKit          3D

 64 71  0  0  0  0  0  0  0  0999 V2000
    7.0320   -1.3790   21.7400 N   0  0  0  0  0  0  0  0  0  0  0  0
    7.0120   -4.6770   20.9840 C   0  0  0  0  0  0  0  0  0  0  0  0
    4.9180   -3.0260   21.0740 O   0  0  0  0  0  0  0  0  0  0  0  0
    7.2600   -3.7140   21.8050 C   0  0  0  0  0  0  0  0  0  0  0  0
    7.4810    2.0450   22.7620 N   0  0  0  0  0  0  0  0  0  0  0  0
    8.6740    1.2850   21.0360 O   0  0  0  0  0  0  0  0  0  0  0  0
    6.2350   -2.6400   21.4860 C   0  0  0  0  0  0  0  0  0  0  0  0
    6.5970    0.0670   21.5350 C   0  0  1  0  0  0  0  0  0  0  0  0
    7.6750    1.1490   21.7480 C   0  0  0  0  0  0  0  0  0  0  0  0
   10.2340    2.0920   23.9100 C   0  0  0  0  0  0  0  0  0  0  0  0
    9.3270    1.1790   24.7530 C   0  0  0  0  0  0  0  0  0  0  0  0
    6.1290    4.4770   21.8840 C   0  0  0  0  0  0  0  0  0  0  0  0
   12.0340   -1.4200   23.3670 C   0  0  0  0  0  0  0  0  0  0  0  0
   12.5030   -0.1200   24.0410 C   0  0  0  0  0  0  0  0  0  0  0  0
   12.5190   -2.5690   24.2660 C   0  0  0  0  0  0  0  0  0  0  0  0
   12.7720   -1.5020   22.0310 C   0  0  0  0  0  0  0  0  0  0  0  0
    2.7160   -5.7720   22.9340 N   0  0  0  0  0  0  0  0  0  0  0  0
    2.6570   -8.2910   24.7390 C   0  0  0  0  0  0  0  0  0  0  0  0
    4.4210   -6.9870   25.4920 N   0  0  0  0  0  0  0  0  0  0  0  0
    3.4430   -6.9560   24.6220 C   0  0  1  0  0  0  0  0  0  0  0  0
    1.1730   -7.2950   22.0570 O   0  0  0  0  0  0  0  0  0  0  0  0
    3.7830   -6.6430   23.1980 C   0  0  2  0  0  0  0  0  0  0  0  0
    4.2120   -4.7220   22.5620 O   0  0  0  0  0  0  0  0  0  0  0  0
    1.4290   -6.2580   22.6670 C   0  0  0  0  0  0  0  0  0  0  0  0
    0.2290   -5.4250   23.1950 C   0  0  0  0  0  0  0  0  0  0  0  0
    0.4920   -1.2180   26.3150 C   0  0  0  0  0  0  0  0  0  0  0  0
    6.0770   -5.4600   26.6620 N   0  0  0  0  0  0  0  0  0  0  0  0
    4.9790   -5.5470   25.5450 S   0  0  2  0  0  0  0  0  0  0  0  0
    6.3530    0.4070   17.8160 N   0  0  0  0  0  0  0  0  0  0  0  0
    5.2100    1.1420   17.7620 C   0  0  0  0  0  0  0  0  0  0  0  0
    4.4520    1.5460   18.8370 C   0  0  0  0  0  0  0  0  0  0  0  0
    4.8590    1.2050   20.1040 C   0  0  0  0  0  0  0  0  0  0  0  0
    6.0350    0.4620   20.1990 C   0  0  0  0  0  0  0  0  0  0  0  0
    6.7460    0.0770   19.0550 C   0  0  0  0  0  0  0  0  0  0  0  0
    9.6750   -1.4840   24.2470 N   0  0  0  0  0  0  0  0  0  0  0  0
    8.3570   -1.4780   23.8570 N   0  0  0  0  0  0  0  0  0  0  0  0
    8.2990   -1.4120   22.4760 C   0  0  0  0  0  0  0  0  0  0  0  0
    9.6660   -1.3820   22.0800 C   0  0  0  0  0  0  0  0  0  0  0  0
   10.4960   -1.4270   23.1900 C   0  0  0  0  0  0  0  0  0  0  0  0
    9.4780    3.3210   23.4550 C   0  0  0  0  0  0  0  0  0  0  0  0
   10.1690    4.7090   23.5910 C   0  0  0  0  0  0  0  0  0  0  0  0
    9.5030    5.8380   23.1770 C   0  0  0  0  0  0  0  0  0  0  0  0
    8.2050    5.7740   22.6270 C   0  0  0  0  0  0  0  0  0  0  0  0
    7.5160    4.4960   22.4810 C   0  0  0  0  0  0  0  0  0  0  0  0
    8.1770    3.2790   22.9080 C   0  0  0  0  0  0  0  0  0  0  0  0
    1.5430   -2.2630   26.1300 C   0  0  0  0  0  0  0  0  0  0  0  0
    1.1760   -3.5530   25.7310 C   0  0  0  0  0  0  0  0  0  0  0  0
    2.2230   -4.6830   25.5220 C   0  0  0  0  0  0  0  0  0  0  0  0
    3.6840   -4.3510   25.7630 C   0  0  0  0  0  0  0  0  0  0  0  0
    3.9540   -3.0440   26.1600 C   0  0  0  0  0  0  0  0  0  0  0  0
    2.9010   -1.9510   26.3580 C   0  0  0  0  0  0  0  0  0  0  0  0
    5.1290   -4.6480   21.3300 N   0  0  0  0  0  0  0  0  0  0  0  0
    5.8780   -5.6820   21.5870 C   0  0  2  0  0  0  0  0  0  0  0  0
    5.1060   -5.8550   22.8370 C   0  0  2  0  0  0  0  0  0  0  0  0
    5.7640   -5.2310   23.9970 C   0  0  1  0  0  0  0  0  0  0  0  0
    5.5980   -4.0040   23.5390 C   0  0  0  0  0  0  0  0  0  0  0  0
    5.3860   -3.5230   22.3080 C   0  0  0  0  0  0  0  0  0  0  0  0
    7.2660   -5.8300   25.9040 N   0  0  0  0  0  0  0  0  0  0  0  0
    7.2970   -5.2970   24.5220 C   0  0  1  0  0  0  0  0  0  0  0  0
    8.4480   -5.6150   23.7390 C   0  0  0  0  0  0  0  0  0  0  0  0
    9.6360   -5.1100   24.2700 C   0  0  0  0  0  0  0  0  0  0  0  0
    9.5570   -4.0390   25.2850 N   0  0  0  0  0  0  0  0  0  0  0  0
    9.0970   -4.4870   26.6200 C   0  0  0  0  0  0  0  0  0  0  0  0
    8.4490   -5.7070   26.7170 C   0  0  0  0  0  0  0  0  0  0  0  0
  2  4  1  0
  1  7  1  0
  3  7  2  0
  4  7  1  0
  1  8  1  0
  5  9  1  0
  6  9  2  0
  8  9  1  6
 10 11  1  0
 13 14  1  0
 13 15  1  0
 13 16  1  0
 20 18  1  6
 19 20  1  0
 22 17  1  1
 20 22  1  0
 17 24  1  0
 21 24  2  0
 24 25  1  0
 19 28  2  0
 27 28  2  0
 29 30  2  0
 30 31  1  0
 31 32  2  0
  8 33  1  0
 32 33  1  0
 29 34  1  0
 33 34  2  0
 35 36  1  0
  1 37  1  0
 36 37  2  0
 37 38  1  0
 13 39  1  0
 35 39  1  0
 38 39  2  0
 10 40  1  0
 40 41  2  0
 41 42  1  0
 42 43  2  0
 12 44  1  0
 43 44  1  0
  5 45  1  0
 40 45  1  0
 44 45  2  0
 26 46  1  0
 46 47  2  0
 47 48  1  0
 28 49  1  1
 48 49  2  0
 49 50  1  0
 46 51  1  0
 50 51  2  0
 53  2  1  1
 52 53  1  0
 22 54  1  0
 54 23  1  6
 53 54  1  0
 28 55  1  0
 54 55  1  0
 55 56  1  6
 52 57  1  0
 56 57  1  0
 27 58  1  0
 55 59  1  0
 58 59  1  0
 59 60  1  6
 60 61  1  0
 61 62  1  0
 62 63  1  0
 58 64  1  0
 63 64  1  0
M  END
