x2705-x1384-x0426-x2694
     RDKit          3D

 59 65  0  0  0  0  0  0  0  0999 V2000
    6.9420   -1.4410   22.1410 C   0  0  2  0  0  0  0  0  0  0  0  0
    6.9950   -4.8320   20.5100 C   0  0  0  0  0  0  0  0  0  0  0  0
    4.8640   -3.0350   21.1950 O   0  0  0  0  0  0  0  0  0  0  0  0
    7.0380   -3.9310   21.6300 C   0  0  0  0  0  0  0  0  0  0  0  0
    7.4710    2.0970   22.7510 N   0  0  0  0  0  0  0  0  0  0  0  0
    8.8150    1.1240   21.0740 O   0  0  0  0  0  0  0  0  0  0  0  0
    6.1560   -2.8140   21.6020 C   0  0  0  0  0  0  0  0  0  0  0  0
    6.7040   -0.0270   21.5530 C   0  0  1  0  0  0  0  0  0  0  0  0
    7.7930    1.0760   21.7430 C   0  0  0  0  0  0  0  0  0  0  0  0
   10.1000    1.7880   23.9460 C   0  0  0  0  0  0  0  0  0  0  0  0
    9.2040    1.1240   24.9830 C   0  0  0  0  0  0  0  0  0  0  0  0
    6.4160    4.6690   21.9790 C   0  0  0  0  0  0  0  0  0  0  0  0
   12.1550   -1.5310   23.1240 C   0  0  0  0  0  0  0  0  0  0  0  0
   12.6560   -0.1330   23.4930 C   0  0  0  0  0  0  0  0  0  0  0  0
   12.6310   -2.4720   24.2330 C   0  0  0  0  0  0  0  0  0  0  0  0
   12.8050   -1.9550   21.8490 C   0  0  0  0  0  0  0  0  0  0  0  0
   10.4780    6.8100   23.6340 O   0  0  0  0  0  0  0  0  0  0  0  0
   11.6220    6.7230   24.5000 C   0  0  0  0  0  0  0  0  0  0  0  0
    2.2350    1.8690   23.7620 C   0  0  0  0  0  0  0  0  0  0  0  0
    2.1360    0.6520   23.6700 O   0  0  0  0  0  0  0  0  0  0  0  0
    3.2870    2.5740   23.1690 N   0  0  0  0  0  0  0  0  0  0  0  0
    4.3930    1.9450   22.4660 C   0  0  0  0  0  0  0  0  0  0  0  0
    3.8440    1.1180   21.2620 C   0  0  0  0  0  0  0  0  0  0  0  0
    2.7520    4.2660   25.1760 F   0  0  0  0  0  0  0  0  0  0  0  0
    6.3840    0.4750   17.8790 N   0  0  0  0  0  0  0  0  0  0  0  0
    5.1830    1.0030   17.7770 C   0  0  0  0  0  0  0  0  0  0  0  0
    4.4030    1.1880   18.8860 C   0  0  0  0  0  0  0  0  0  0  0  0
    4.8320    0.8550   20.1280 C   0  0  0  0  0  0  0  0  0  0  0  0
    6.0890    0.3310   20.2320 C   0  0  0  0  0  0  0  0  0  0  0  0
    6.7820    0.1680   19.0520 C   0  0  0  0  0  0  0  0  0  0  0  0
    9.8860   -1.6080   24.2010 N   0  0  0  0  0  0  0  0  0  0  0  0
    8.5630   -1.5940   23.9760 N   0  0  0  0  0  0  0  0  0  0  0  0
    8.4740   -1.5020   22.6400 C   0  0  0  0  0  0  0  0  0  0  0  0
    9.7370   -1.4650   22.0430 C   0  0  0  0  0  0  0  0  0  0  0  0
   10.6520   -1.5320   23.0660 C   0  0  0  0  0  0  0  0  0  0  0  0
    9.5500    3.1490   23.5630 C   0  0  0  0  0  0  0  0  0  0  0  0
   10.3520    4.4020   23.7970 C   0  0  0  0  0  0  0  0  0  0  0  0
    9.7880    5.6270   23.4260 C   0  0  0  0  0  0  0  0  0  0  0  0
    8.5300    5.6730   22.8470 C   0  0  0  0  0  0  0  0  0  0  0  0
    7.7730    4.5080   22.6190 C   0  0  0  0  0  0  0  0  0  0  0  0
    8.2710    3.2660   22.9770 C   0  0  0  0  0  0  0  0  0  0  0  0
    1.4970    3.8020   25.1950 C   0  0  0  0  0  0  0  0  0  0  0  0
    1.2100    2.6460   24.5230 C   0  0  0  0  0  0  0  0  0  0  0  0
   -0.1570    2.1250   24.5360 C   0  0  0  0  0  0  0  0  0  0  0  0
   -1.1380    2.7890   25.2140 C   0  0  0  0  0  0  0  0  0  0  0  0
   -0.7870    4.0650   25.9450 C   0  0  0  0  0  0  0  0  0  0  0  0
    0.5270    4.5140   25.9020 C   0  0  0  0  0  0  0  0  0  0  0  0
    5.6870   -2.0870   26.3910 O   0  0  0  0  0  0  0  0  0  0  0  0
    4.2250   -4.3660   24.3560 C   0  0  2  0  0  0  0  0  0  0  0  0
    5.2110   -3.6220   23.8960 C   0  0  2  0  0  0  0  0  0  0  0  0
    5.8980   -4.1500   24.8460 C   0  0  2  0  0  0  0  0  0  0  0  0
    6.3720   -5.5960   24.6280 C   0  0  0  0  0  0  0  0  0  0  0  0
    5.4020   -6.2530   23.8740 C   0  0  0  0  0  0  0  0  0  0  0  0
    4.2290   -5.6280   23.7150 C   0  0  0  0  0  0  0  0  0  0  0  0
    5.7730   -3.4910   26.2480 C   0  0  2  0  0  0  0  0  0  0  0  0
    4.6180   -3.9340   25.5740 C   0  0  0  0  0  0  0  0  0  0  0  0
    3.4140   -4.2020   25.7430 C   0  0  0  0  0  0  0  0  0  0  0  0
    6.3950   -1.4150   23.5940 C   0  0  0  0  0  0  0  0  0  0  0  0
    5.0960   -2.1330   23.7850 C   0  0  0  0  0  0  0  0  0  0  0  0
  2  4  1  0
  1  7  1  0
  3  7  2  0
  4  7  1  0
  1  8  1  0
  5  9  1  0
  6  9  2  0
  8  9  1  6
 10 11  1  0
 13 14  1  0
 13 15  1  0
 13 16  1  0
 17 18  1  0
 19 20  2  0
 19 21  1  0
 21 22  1  0
 22 23  1  0
 25 26  2  0
 26 27  1  0
 23 28  1  0
 27 28  2  0
  8 29  1  0
 28 29  1  0
 25 30  1  0
 29 30  2  0
 31 32  1  0
  1 33  1  0
 32 33  2  0
 33 34  1  0
 13 35  1  0
 31 35  1  0
 34 35  2  0
 10 36  1  0
 36 37  2  0
 17 38  1  0
 37 38  1  0
 38 39  2  0
 12 40  1  0
 39 40  1  0
  5 41  1  0
 36 41  1  0
 40 41  2  0
 24 42  1  0
 19 43  1  0
 42 43  2  0
 43 44  1  0
 44 45  2  0
 45 46  1  0
 42 47  1  0
 46 47  2  0
 49 50  1  0
 49 51  1  0
 50 51  1  0
 51 52  1  6
 52 53  1  0
 49 54  1  6
 53 54  2  0
 55 48  1  6
 51 55  1  0
 55 56  1  0
 49 57  1  0
 56 57  2  0
  1 58  1  1
 50 59  1  1
 58 59  1  0
M  END
