x2705-x1358
     RDKit          3D

 47 52  0  0  0  0  0  0  0  0999 V2000
    7.1440   -1.5920   21.5310 C   0  0  2  0  0  0  0  0  0  0  0  0
    5.7500   -2.9290   19.4150 O   0  0  0  0  0  0  0  0  0  0  0  0
    7.3300    1.9750   22.9200 N   0  0  0  0  0  0  0  0  0  0  0  0
    8.6680    1.1730   20.9800 O   0  0  0  0  0  0  0  0  0  0  0  0
    6.6010   -2.7440   20.4350 C   0  0  0  0  0  0  0  0  0  0  0  0
    6.5770   -0.0790   21.5160 C   0  0  1  0  0  0  0  0  0  0  0  0
    7.5220    0.9800   21.8050 C   0  0  0  0  0  0  0  0  0  0  0  0
   10.0850    1.9670   23.9000 C   0  0  0  0  0  0  0  0  0  0  0  0
    9.2570    1.2400   24.7530 C   0  0  0  0  0  0  0  0  0  0  0  0
    6.1170    4.4240   22.0030 C   0  0  0  0  0  0  0  0  0  0  0  0
   12.3380   -1.4690   23.1620 C   0  0  0  0  0  0  0  0  0  0  0  0
   12.7810   -0.1290   23.7420 C   0  0  0  0  0  0  0  0  0  0  0  0
   12.6910   -2.5230   24.2310 C   0  0  0  0  0  0  0  0  0  0  0  0
   12.9100   -1.8650   21.9440 C   0  0  0  0  0  0  0  0  0  0  0  0
    6.5970   -2.7470   25.4070 N   0  0  0  0  0  0  0  0  0  0  0  0
    5.4100   -0.1630   24.9200 O   0  0  0  0  0  0  0  0  0  0  0  0
    4.6060   -3.8300   25.0840 O   0  0  0  0  0  0  0  0  0  0  0  0
    5.6310   -3.3550   24.6230 C   0  0  0  0  0  0  0  0  0  0  0  0
    6.3750    0.5850   17.6370 N   0  0  0  0  0  0  0  0  0  0  0  0
    5.2000    1.4070   17.6890 C   0  0  0  0  0  0  0  0  0  0  0  0
    4.5270    1.6950   18.8810 C   0  0  0  0  0  0  0  0  0  0  0  0
    4.9690    1.2060   20.1090 C   0  0  0  0  0  0  0  0  0  0  0  0
    6.1000    0.4070   20.2060 C   0  0  0  0  0  0  0  0  0  0  0  0
    6.8200    0.0800   18.9250 C   0  0  0  0  0  0  0  0  0  0  0  0
   10.0930   -0.9580   24.0080 N   0  0  0  0  0  0  0  0  0  0  0  0
    8.7520   -0.9920   23.5570 N   0  0  0  0  0  0  0  0  0  0  0  0
    8.5850   -1.4930   22.1300 C   0  0  0  0  0  0  0  0  0  0  0  0
   10.0530   -1.7210   21.9080 C   0  0  0  0  0  0  0  0  0  0  0  0
   10.8480   -1.4010   22.9800 C   0  0  0  0  0  0  0  0  0  0  0  0
    9.4040    3.2350   23.4370 C   0  0  0  0  0  0  0  0  0  0  0  0
   10.1880    4.5600   23.4920 C   0  0  0  0  0  0  0  0  0  0  0  0
    9.5810    5.7300   23.0640 C   0  0  0  0  0  0  0  0  0  0  0  0
    8.2680    5.7410   22.5740 C   0  0  0  0  0  0  0  0  0  0  0  0
    7.5080    4.5760   22.4990 C   0  0  0  0  0  0  0  0  0  0  0  0
    8.0850    3.2230   22.9600 C   0  0  0  0  0  0  0  0  0  0  0  0
    5.8940   -0.3770   26.2310 C   0  0  0  0  0  0  0  0  0  0  0  0
    6.5120   -1.7670   26.4740 C   0  0  0  0  0  0  0  0  0  0  0  0
    7.0310   -2.0280   27.9030 C   0  0  0  0  0  0  0  0  0  0  0  0
    6.9330   -0.9390   28.9710 C   0  0  0  0  0  0  0  0  0  0  0  0
    6.3350    0.4330   28.7360 C   0  0  0  0  0  0  0  0  0  0  0  0
    5.7980    0.7190   27.3270 C   0  0  0  0  0  0  0  0  0  0  0  0
    7.3310   -3.9390   20.5860 C   0  0  1  0  0  0  0  0  0  0  0  0
    8.0600   -3.5760   21.9120 C   0  0  0  0  0  0  0  0  0  0  0  0
    7.0880   -2.6440   22.6910 C   0  0  2  0  0  0  0  0  0  0  0  0
    5.8540   -3.4290   23.0460 C   0  0  1  0  0  0  0  0  0  0  0  0
    5.7850   -4.7330   22.4630 C   0  0  0  0  0  0  0  0  0  0  0  0
    6.3110   -5.0150   21.1290 C   0  0  0  0  0  0  0  0  0  0  0  0
  1  5  1  0
  2  5  2  0
  1  6  1  0
  3  7  1  0
  4  7  2  0
  6  7  1  6
  8  9  1  0
 11 12  1  0
 11 13  1  0
 11 14  1  0
 15 18  1  0
 17 18  2  0
 19 20  2  0
 20 21  1  0
 21 22  2  0
  6 23  1  0
 22 23  1  0
 19 24  1  0
 23 24  2  0
 25 26  1  0
  1 27  1  6
 26 27  2  0
 27 28  1  0
 11 29  1  0
 25 29  1  0
 28 29  2  0
  8 30  1  0
 30 31  2  0
 31 32  1  0
 32 33  2  0
 10 34  1  0
 33 34  1  0
  3 35  1  0
 30 35  1  0
 34 35  2  0
 16 36  1  0
 15 37  1  0
 36 37  2  0
 37 38  1  0
 38 39  2  0
 39 40  1  0
 36 41  1  0
 40 41  2  0
 42  5  1  0
 42 43  1  0
  1 44  1  0
 44 43  1  6
 45 18  1  1
 44 45  1  0
 45 46  1  0
 42 47  1  1
 46 47  1  0
M  END
