x2705-x2776-x0771-x2694
     RDKit          3D

 54 59  0  0  0  0  0  0  0  0999 V2000
    6.8280   -1.4150   22.0120 C   0  0  1  0  0  0  0  0  0  0  0  0
    6.8410   -3.9660   20.0210 C   0  0  0  0  0  0  0  0  0  0  0  0
    4.7800   -3.0140   21.3530 O   0  0  0  0  0  0  0  0  0  0  0  0
    6.4400   -2.5560   19.8310 C   0  0  0  0  0  0  0  0  0  0  0  0
    7.5460    2.0760   22.8890 N   0  0  0  0  0  0  0  0  0  0  0  0
    8.6410    1.1900   21.0580 O   0  0  0  0  0  0  0  0  0  0  0  0
    5.9070   -2.3530   21.1010 C   0  0  0  0  0  0  0  0  0  0  0  0
    6.5100    0.1570   21.6990 C   0  0  1  0  0  0  0  0  0  0  0  0
    7.6890    1.1710   21.8440 C   0  0  0  0  0  0  0  0  0  0  0  0
   10.1210    2.2870   23.9960 C   0  0  0  0  0  0  0  0  0  0  0  0
    9.2380    1.3760   24.8790 C   0  0  0  0  0  0  0  0  0  0  0  0
    6.0880    4.3760   21.8950 C   0  0  0  0  0  0  0  0  0  0  0  0
   12.1060   -1.6040   23.1790 C   0  0  0  0  0  0  0  0  0  0  0  0
   12.6880   -0.3020   23.7520 C   0  0  0  0  0  0  0  0  0  0  0  0
   12.5700   -2.7950   23.9950 C   0  0  0  0  0  0  0  0  0  0  0  0
   12.7150   -1.8150   21.7700 C   0  0  0  0  0  0  0  0  0  0  0  0
   13.4570   -2.5720   25.2600 C   0  0  0  0  0  0  0  0  0  0  0  0
   10.7960    6.0740   23.8970 O   0  0  0  0  0  0  0  0  0  0  0  0
   11.8750    6.2610   24.8160 C   0  0  0  0  0  0  0  0  0  0  0  0
    0.6760   -1.4150   26.2220 C   0  0  0  0  0  0  0  0  0  0  0  0
    4.4930   -7.0560   25.6930 O   0  0  0  0  0  0  0  0  0  0  0  0
    6.1350   -5.4100   26.7720 O   0  0  0  0  0  0  0  0  0  0  0  0
    1.8140   -6.0800   24.8980 C   0  0  0  0  0  0  0  0  0  0  0  0
    5.0800   -5.7380   25.6150 S   0  0  0  0  0  0  0  0  0  0  0  0
    6.2920   -2.2000   23.1030 C   0  0  0  0  0  0  0  0  0  0  0  0
    6.4090    0.4100   17.9570 N   0  0  0  0  0  0  0  0  0  0  0  0
    5.2070    1.0880   17.8330 C   0  0  0  0  0  0  0  0  0  0  0  0
    4.3740    1.4750   18.9050 C   0  0  0  0  0  0  0  0  0  0  0  0
    4.8180    1.1500   20.1560 C   0  0  0  0  0  0  0  0  0  0  0  0
    6.0080    0.4880   20.3260 C   0  0  0  0  0  0  0  0  0  0  0  0
    6.7750    0.1280   19.2160 C   0  0  0  0  0  0  0  0  0  0  0  0
    9.8870   -1.2310   24.1970 N   0  0  0  0  0  0  0  0  0  0  0  0
    8.5950   -1.2050   23.8280 N   0  0  0  0  0  0  0  0  0  0  0  0
    8.3340   -1.4590   22.4860 C   0  0  0  0  0  0  0  0  0  0  0  0
    9.6520   -1.6660   22.0340 C   0  0  0  0  0  0  0  0  0  0  0  0
   10.5760   -1.5110   23.1000 C   0  0  0  0  0  0  0  0  0  0  0  0
    9.4350    3.5750   23.5490 C   0  0  0  0  0  0  0  0  0  0  0  0
   10.2500    4.7960   23.7880 C   0  0  0  0  0  0  0  0  0  0  0  0
    9.3500    5.7990   23.2490 C   0  0  0  0  0  0  0  0  0  0  0  0
    8.0890    5.6080   22.6800 C   0  0  0  0  0  0  0  0  0  0  0  0
    7.4590    4.4310   22.5310 C   0  0  0  0  0  0  0  0  0  0  0  0
    8.1550    3.3680   22.9900 C   0  0  0  0  0  0  0  0  0  0  0  0
    1.7460   -2.4480   26.0620 C   0  0  0  0  0  0  0  0  0  0  0  0
    1.3960   -3.7420   25.5780 C   0  0  0  0  0  0  0  0  0  0  0  0
    2.3300   -4.7660   25.4110 C   0  0  0  0  0  0  0  0  0  0  0  0
    3.7810   -4.5100   25.7530 C   0  0  0  0  0  0  0  0  0  0  0  0
    4.1940   -3.1470   26.2600 C   0  0  0  0  0  0  0  0  0  0  0  0
    3.0580   -2.1220   26.3920 C   0  0  0  0  0  0  0  0  0  0  0  0
    6.8060   -4.4550   21.4970 N   0  0  0  0  0  0  0  0  0  0  0  0
    6.2100   -5.8440   21.6140 C   0  0  0  0  0  0  0  0  0  0  0  0
    5.2620   -6.0060   22.8320 C   0  0  0  0  0  0  0  0  0  0  0  0
    5.8750   -5.5470   24.0930 N   0  0  0  0  0  0  0  0  0  0  0  0
    6.8270   -4.4490   23.9090 C   0  0  0  0  0  0  0  0  0  0  0  0
    6.4140   -3.7410   22.8050 C   0  0  1  0  0  0  0  0  0  0  0  0
  2  4  1  0
  1  7  1  0
  3  7  2  0
  4  7  1  0
  1  8  1  0
  5  9  1  0
  6  9  2  0
  8  9  1  6
 10 11  1  0
 13 14  1  0
 13 15  1  0
 13 16  1  0
 15 17  1  0
 18 19  1  0
 21 24  2  0
 22 24  2  0
  1 25  1  0
 26 27  2  0
 27 28  1  0
 28 29  2  0
  8 30  1  0
 29 30  1  0
 26 31  1  0
 30 31  2  0
 32 33  1  0
  1 34  1  6
 33 34  1  0
 34 35  2  0
 13 36  1  0
 32 36  2  0
 35 36  1  0
 10 37  1  0
 18 38  1  0
 37 38  2  0
 38 39  1  0
 39 40  2  0
 12 41  1  0
 40 41  1  0
  5 42  1  0
 37 42  1  0
 41 42  2  0
 20 43  1  0
 43 44  2  0
 23 45  1  0
 44 45  1  0
 24 46  1  0
 45 46  2  0
 46 47  1  0
 43 48  1  0
 47 48  2  0
  2 49  1  0
 49 50  1  0
 50 51  1  0
 24 52  1  0
 51 52  1  0
 52 53  1  0
 54 25  1  6
 49 54  1  0
 53 54  1  0
M  END
