x2705-x3117-x2776-x0771
     RDKit          3D

 54 59  0  0  0  0  0  0  0  0999 V2000
    6.8610   -1.4210   21.9690 C   0  0  1  0  0  0  0  0  0  0  0  0
    7.3810   -3.8270   20.3520 C   0  0  0  0  0  0  0  0  0  0  0  0
    4.7420   -2.9840   21.3620 O   0  0  0  0  0  0  0  0  0  0  0  0
    6.4160   -2.8560   19.8930 C   0  0  0  0  0  0  0  0  0  0  0  0
    7.5420    2.0690   22.9470 N   0  0  0  0  0  0  0  0  0  0  0  0
    8.8460    1.2800   21.0480 O   0  0  0  0  0  0  0  0  0  0  0  0
    5.8970   -2.4100   21.1170 C   0  0  0  0  0  0  0  0  0  0  0  0
    6.5620    0.1590   21.7010 C   0  0  1  0  0  0  0  0  0  0  0  0
    7.7110    1.1800   21.9010 C   0  0  0  0  0  0  0  0  0  0  0  0
   10.0890    2.2500   24.0370 C   0  0  0  0  0  0  0  0  0  0  0  0
    9.1760    1.4370   24.9840 C   0  0  0  0  0  0  0  0  0  0  0  0
    6.0590    4.4530   21.9140 C   0  0  0  0  0  0  0  0  0  0  0  0
   12.1100   -1.5830   23.1930 C   0  0  0  0  0  0  0  0  0  0  0  0
   12.6650   -0.3040   23.8760 C   0  0  0  0  0  0  0  0  0  0  0  0
   12.4900   -2.7650   23.9940 C   0  0  0  0  0  0  0  0  0  0  0  0
   12.8020   -1.7180   21.8200 C   0  0  0  0  0  0  0  0  0  0  0  0
   13.3970   -2.5970   25.1930 C   0  0  0  0  0  0  0  0  0  0  0  0
   10.7540    6.0490   23.8820 O   0  0  0  0  0  0  0  0  0  0  0  0
   11.8530    6.1860   24.7910 C   0  0  0  0  0  0  0  0  0  0  0  0
    0.6900   -1.4080   26.2660 C   0  0  0  0  0  0  0  0  0  0  0  0
    4.3890   -7.0700   25.4750 O   0  0  0  0  0  0  0  0  0  0  0  0
    6.0530   -5.5790   26.5980 O   0  0  0  0  0  0  0  0  0  0  0  0
    2.0300   -6.2020   24.9240 C   0  0  0  0  0  0  0  0  0  0  0  0
    5.0960   -5.8140   25.5360 S   0  0  0  0  0  0  0  0  0  0  0  0
    6.3720   -2.2230   23.1470 C   0  0  0  0  0  0  0  0  0  0  0  0
    6.3960    0.4230   17.8420 N   0  0  0  0  0  0  0  0  0  0  0  0
    5.2050    1.1850   17.8010 C   0  0  0  0  0  0  0  0  0  0  0  0
    4.4880    1.5760   18.8810 C   0  0  0  0  0  0  0  0  0  0  0  0
    4.9200    1.2360   20.1450 C   0  0  0  0  0  0  0  0  0  0  0  0
    6.1010    0.4880   20.3010 C   0  0  0  0  0  0  0  0  0  0  0  0
    6.7930    0.1040   19.1530 C   0  0  0  0  0  0  0  0  0  0  0  0
    9.8930   -1.0710   24.1250 N   0  0  0  0  0  0  0  0  0  0  0  0
    8.6120   -1.0580   23.7400 N   0  0  0  0  0  0  0  0  0  0  0  0
    8.3680   -1.4470   22.4530 C   0  0  0  0  0  0  0  0  0  0  0  0
    9.6940   -1.7470   22.0040 C   0  0  0  0  0  0  0  0  0  0  0  0
   10.5810   -1.4840   23.0660 C   0  0  0  0  0  0  0  0  0  0  0  0
    9.4090    3.5550   23.5770 C   0  0  0  0  0  0  0  0  0  0  0  0
   10.1970    4.7820   23.7840 C   0  0  0  0  0  0  0  0  0  0  0  0
    9.3300    5.7860   23.2510 C   0  0  0  0  0  0  0  0  0  0  0  0
    8.0700    5.6930   22.6780 C   0  0  0  0  0  0  0  0  0  0  0  0
    7.4270    4.4980   22.5440 C   0  0  0  0  0  0  0  0  0  0  0  0
    8.1120    3.4000   23.0120 C   0  0  0  0  0  0  0  0  0  0  0  0
    1.7590   -2.4380   26.0810 C   0  0  0  0  0  0  0  0  0  0  0  0
    1.4330   -3.8250   25.5880 C   0  0  0  0  0  0  0  0  0  0  0  0
    2.4170   -4.8030   25.4240 C   0  0  0  0  0  0  0  0  0  0  0  0
    3.9010   -4.5130   25.7400 C   0  0  0  0  0  0  0  0  0  0  0  0
    4.1520   -3.0700   26.2270 C   0  0  0  0  0  0  0  0  0  0  0  0
    3.0870   -2.1600   26.3580 C   0  0  0  0  0  0  0  0  0  0  0  0
    6.9820   -4.5310   21.6660 N   0  0  0  0  0  0  0  0  0  0  0  0
    6.2290   -5.7460   21.6220 C   0  0  0  0  0  0  0  0  0  0  0  0
    5.3460   -5.9940   22.7440 C   0  0  0  0  0  0  0  0  0  0  0  0
    5.9450   -5.6130   24.0600 N   0  0  0  0  0  0  0  0  0  0  0  0
    6.8480   -4.4680   23.9510 C   0  0  0  0  0  0  0  0  0  0  0  0
    6.4090   -3.7880   22.8640 C   0  0  1  0  0  0  0  0  0  0  0  0
  2  4  1  0
  1  7  1  0
  3  7  2  0
  4  7  1  0
  1  8  1  0
  5  9  1  0
  6  9  2  0
  8  9  1  6
 10 11  1  0
 13 14  1  0
 13 15  1  0
 13 16  1  0
 15 17  1  0
 18 19  1  0
 21 24  2  0
 22 24  2  0
  1 25  1  0
 26 27  2  0
 27 28  1  0
 28 29  2  0
  8 30  1  0
 29 30  1  0
 26 31  1  0
 30 31  2  0
 32 33  1  0
  1 34  1  6
 33 34  1  0
 34 35  2  0
 13 36  1  0
 32 36  2  0
 35 36  1  0
 10 37  1  0
 18 38  1  0
 37 38  2  0
 38 39  1  0
 39 40  2  0
 12 41  1  0
 40 41  1  0
  5 42  1  0
 37 42  1  0
 41 42  2  0
 20 43  1  0
 43 44  2  0
 23 45  1  0
 44 45  1  0
 24 46  1  0
 45 46  2  0
 46 47  1  0
 43 48  1  0
 47 48  2  0
  2 49  1  0
 49 50  1  0
 50 51  1  0
 24 52  1  0
 51 52  1  0
 52 53  1  0
 54 25  1  1
 49 54  1  0
 53 54  1  0
M  END
