x2703-x3124-x2776-x0771
     RDKit          3D

 55 60  0  0  0  0  0  0  0  0999 V2000
    6.7630   -1.3750   21.8960 C   0  0  1  0  0  0  0  0  0  0  0  0
    7.5130   -3.7040   20.3480 C   0  0  0  0  0  0  0  0  0  0  0  0
    4.7320   -2.8800   21.0570 O   0  0  0  0  0  0  0  0  0  0  0  0
    6.8550   -2.4390   19.9740 C   0  0  0  0  0  0  0  0  0  0  0  0
    7.5870    2.0020   22.9370 N   0  0  0  0  0  0  0  0  0  0  0  0
    8.7940    1.2800   20.9800 O   0  0  0  0  0  0  0  0  0  0  0  0
    5.8630   -2.3320   20.9740 C   0  0  0  0  0  0  0  0  0  0  0  0
   10.8150    6.6650   23.7670 O   0  0  0  0  0  0  0  0  0  0  0  0
    6.4770    0.1760   21.5980 C   0  0  1  0  0  0  0  0  0  0  0  0
   12.4380   -2.9530   24.8460 O   0  0  0  0  0  0  0  0  0  0  0  0
    7.6750    1.1690   21.8440 C   0  0  0  0  0  0  0  0  0  0  0  0
   10.0910    1.7780   24.0620 C   0  0  0  0  0  0  0  0  0  0  0  0
   11.8180    6.5880   24.7810 C   0  0  0  0  0  0  0  0  0  0  0  0
   12.0540   -1.6470   24.4220 C   0  0  1  0  0  0  0  0  0  0  0  0
   13.1250   -1.1560   23.4440 C   0  0  0  0  0  0  0  0  0  0  0  0
   13.6790   -2.9960   25.4920 C   0  0  0  0  0  0  0  0  0  0  0  0
    9.1870    1.2080   25.1420 C   0  0  0  0  0  0  0  0  0  0  0  0
    6.5260    4.7250   22.0560 C   0  0  0  0  0  0  0  0  0  0  0  0
    0.6750   -1.4400   26.3180 C   0  0  0  0  0  0  0  0  0  0  0  0
    4.3140   -7.0340   25.3480 O   0  0  0  0  0  0  0  0  0  0  0  0
    5.9210   -5.4980   26.4950 O   0  0  0  0  0  0  0  0  0  0  0  0
    1.9230   -6.0620   24.9260 C   0  0  0  0  0  0  0  0  0  0  0  0
    4.9400   -5.7380   25.4730 S   0  0  0  0  0  0  0  0  0  0  0  0
    6.0550   -2.1040   22.9970 C   0  0  0  0  0  0  0  0  0  0  0  0
    5.6970   -3.5110   22.4400 C   0  0  0  0  0  0  0  0  0  0  0  0
    6.3360    0.6100   17.7250 N   0  0  0  0  0  0  0  0  0  0  0  0
    5.2190    1.4030   17.6710 C   0  0  0  0  0  0  0  0  0  0  0  0
    4.5110    1.7640   18.9180 C   0  0  0  0  0  0  0  0  0  0  0  0
    4.9650    1.3300   20.1110 C   0  0  0  0  0  0  0  0  0  0  0  0
    6.1020    0.5350   20.2130 C   0  0  0  0  0  0  0  0  0  0  0  0
    6.7330    0.2110   18.9620 C   0  0  0  0  0  0  0  0  0  0  0  0
    9.5500    3.1180   23.6420 C   0  0  0  0  0  0  0  0  0  0  0  0
   10.3970    4.2010   23.8770 C   0  0  0  0  0  0  0  0  0  0  0  0
   10.0620    5.5350   23.5620 C   0  0  0  0  0  0  0  0  0  0  0  0
    8.8070    5.6750   22.9720 C   0  0  0  0  0  0  0  0  0  0  0  0
    7.8640    4.4600   22.7050 C   0  0  0  0  0  0  0  0  0  0  0  0
    8.3380    3.2050   23.0950 C   0  0  0  0  0  0  0  0  0  0  0  0
    9.3600   -1.9700   21.7660 C   0  0  0  0  0  0  0  0  0  0  0  0
   10.6050   -2.0200   22.3870 C   0  0  0  0  0  0  0  0  0  0  0  0
   10.7280   -1.6300   23.7340 C   0  0  0  0  0  0  0  0  0  0  0  0
    9.6040   -1.2130   24.4410 C   0  0  0  0  0  0  0  0  0  0  0  0
    8.3820   -1.1680   23.8080 C   0  0  0  0  0  0  0  0  0  0  0  0
    8.2130   -1.5270   22.4740 C   0  0  0  0  0  0  0  0  0  0  0  0
    1.7280   -2.4840   26.0970 C   0  0  0  0  0  0  0  0  0  0  0  0
    1.4020   -3.7540   25.6250 C   0  0  0  0  0  0  0  0  0  0  0  0
    2.3910   -4.7300   25.4340 C   0  0  0  0  0  0  0  0  0  0  0  0
    3.7430   -4.4630   25.7110 C   0  0  0  0  0  0  0  0  0  0  0  0
    4.0370   -3.1760   26.1740 C   0  0  0  0  0  0  0  0  0  0  0  0
    3.0490   -2.2010   26.3650 C   0  0  0  0  0  0  0  0  0  0  0  0
    6.7540   -4.4310   21.6390 C   0  0  0  0  0  0  0  0  0  0  0  0
    6.0940   -5.7970   21.5100 C   0  0  0  0  0  0  0  0  0  0  0  0
    5.3740   -6.2430   22.8170 C   0  0  0  0  0  0  0  0  0  0  0  0
    5.6650   -5.3270   23.9640 N   0  0  0  0  0  0  0  0  0  0  0  0
    7.0830   -4.8740   24.0680 C   0  0  0  0  0  0  0  0  0  0  0  0
    7.7250   -4.7860   22.8040 C   0  0  0  0  0  0  0  0  0  0  0  0
  2  4  1  0
  1  7  1  0
  3  7  2  0
  4  7  1  0
  1  9  1  0
  5 11  1  0
  6 11  2  0
  9 11  1  6
  8 13  1  0
 10 14  1  0
 14 15  1  6
 10 16  1  0
 12 17  1  0
 20 23  2  0
 21 23  2  0
  1 24  1  0
 24 25  1  0
 26 27  2  0
 27 28  1  0
 28 29  2  0
  9 30  1  0
 29 30  1  0
 26 31  1  0
 30 31  2  0
 12 32  1  0
 32 33  2  0
  8 34  1  0
 33 34  1  0
 34 35  2  0
 18 36  1  0
 35 36  1  0
  5 37  1  0
 32 37  1  0
 36 37  2  0
 38 39  2  0
 14 40  1  0
 39 40  1  0
 40 41  2  0
 41 42  1  0
  1 43  1  1
 38 43  1  0
 42 43  2  0
 19 44  1  0
 44 45  2  0
 22 46  1  0
 45 46  1  0
 23 47  1  0
 46 47  2  0
 47 48  1  0
 44 49  1  0
 48 49  2  0
  2 50  1  0
 50 25  1  0
 50 51  1  0
 51 52  1  0
 23 53  1  0
 52 53  1  0
 53 54  1  0
 50 55  1  0
 54 55  1  0
M  END
