x2703-x2608
     RDKit          3D

 36 38  0  0  0  0  0  0  0  0999 V2000
    6.9560   -1.5850   21.5150 N   0  0  0  0  0  0  0  0  0  0  0  0
    6.7870   -4.9260   20.4770 C   0  0  0  0  0  0  0  0  0  0  0  0
    4.8310   -2.9690   21.0700 O   0  0  0  0  0  0  0  0  0  0  0  0
    6.7750   -4.0960   21.7280 C   0  0  0  0  0  0  0  0  0  0  0  0
    7.3580    1.6640   23.0660 N   0  0  0  0  0  0  0  0  0  0  0  0
    8.0950    0.9580   21.3870 O   0  0  0  0  0  0  0  0  0  0  0  0
    6.0820   -2.7960   21.4070 C   0  0  0  0  0  0  0  0  0  0  0  0
    6.3900   -0.2930   21.5100 C   0  0  1  0  0  0  0  0  0  0  0  0
    7.1850    0.8570   22.2170 C   0  0  0  0  0  0  0  0  0  0  0  0
    9.9860    1.8590   24.1450 C   0  0  0  0  0  0  0  0  0  0  0  0
    9.1380    1.2910   25.1050 C   0  0  0  0  0  0  0  0  0  0  0  0
    6.0670    4.0720   21.8070 C   0  0  0  0  0  0  0  0  0  0  0  0
   11.7610   -2.2640   24.6250 C   0  0  1  0  0  0  0  0  0  0  0  0
   13.1460   -2.6540   24.1030 C   0  0  0  0  0  0  0  0  0  0  0  0
   12.8380   -1.1400   24.6080 C   0  0  0  0  0  0  0  0  0  0  0  0
    6.5730    0.3110   18.0660 N   0  0  0  0  0  0  0  0  0  0  0  0
    5.3240    1.0430   17.8070 C   0  0  0  0  0  0  0  0  0  0  0  0
    4.3510    1.3460   18.7520 C   0  0  0  0  0  0  0  0  0  0  0  0
    4.5850    0.9390   20.0220 C   0  0  0  0  0  0  0  0  0  0  0  0
    5.7410    0.2720   20.3000 C   0  0  0  0  0  0  0  0  0  0  0  0
    6.7810   -0.1030   19.4660 C   0  0  0  0  0  0  0  0  0  0  0  0
   10.6680   -1.6380   22.5280 N   0  0  0  0  0  0  0  0  0  0  0  0
   10.6100   -2.0790   23.8050 C   0  0  0  0  0  0  0  0  0  0  0  0
    9.2770   -2.4110   24.4560 C   0  0  0  0  0  0  0  0  0  0  0  0
    8.0340   -2.2130   23.5830 C   0  0  0  0  0  0  0  0  0  0  0  0
    8.1480   -1.7560   22.2830 C   0  0  0  0  0  0  0  0  0  0  0  0
    9.4840   -1.4900   21.8330 C   0  0  0  0  0  0  0  0  0  0  0  0
    9.3400    3.0690   23.5320 C   0  0  0  0  0  0  0  0  0  0  0  0
   10.0290    4.3010   23.5070 C   0  0  0  0  0  0  0  0  0  0  0  0
    9.3970    5.4090   22.9290 C   0  0  0  0  0  0  0  0  0  0  0  0
    8.1080    5.2870   22.3860 C   0  0  0  0  0  0  0  0  0  0  0  0
    7.4430    4.0560   22.4220 C   0  0  0  0  0  0  0  0  0  0  0  0
    8.0550    2.9190   23.0050 C   0  0  0  0  0  0  0  0  0  0  0  0
   12.7290    2.1000   22.8950 C   0  0  0  0  0  0  0  0  0  0  0  0
   12.9180   -0.2790   23.2940 C   0  0  0  0  0  0  0  0  0  0  0  0
   12.1200    0.8340   23.4530 C   0  0  0  0  0  0  0  0  0  0  0  0
  2  4  1  0
  1  7  1  0
  3  7  2  0
  4  7  1  0
  1  8  1  0
  5  9  1  0
  6  9  2  0
  8  9  1  6
 10 11  1  0
 13 14  1  6
 13 15  1  0
 16 17  2  0
 17 18  1  0
 18 19  2  0
  8 20  1  0
 19 20  1  0
 16 21  1  0
 20 21  2  0
 13 23  1  0
 22 23  2  0
 23 24  1  0
 24 25  2  0
  1 26  1  0
 25 26  1  0
 22 27  1  0
 26 27  2  0
 10 28  1  0
 28 29  2  0
 29 30  1  0
 30 31  2  0
 12 32  1  0
 31 32  1  0
  5 33  1  0
 28 33  1  0
 32 33  2  0
 15 35  1  0
 34 36  1  0
 35 36  1  0
M  END
