x2705-x3124-x2776-x0771
     RDKit          3D

 54 59  0  0  0  0  0  0  0  0999 V2000
    6.9000   -1.4250   21.9060 C   0  0  1  0  0  0  0  0  0  0  0  0
    6.7680   -3.9370   20.0380 C   0  0  0  0  0  0  0  0  0  0  0  0
    4.7860   -3.0550   21.4270 O   0  0  0  0  0  0  0  0  0  0  0  0
    6.3490   -2.7570   19.8050 C   0  0  0  0  0  0  0  0  0  0  0  0
    7.6150    2.0530   22.9220 N   0  0  0  0  0  0  0  0  0  0  0  0
    8.7080    1.2770   21.0790 O   0  0  0  0  0  0  0  0  0  0  0  0
    5.9200   -2.4450   21.0880 C   0  0  0  0  0  0  0  0  0  0  0  0
    6.5820    0.1390   21.6900 C   0  0  1  0  0  0  0  0  0  0  0  0
    7.7580    1.1910   21.8570 C   0  0  0  0  0  0  0  0  0  0  0  0
   10.1180    2.2490   24.0100 C   0  0  0  0  0  0  0  0  0  0  0  0
    9.2110    1.3560   24.9160 C   0  0  0  0  0  0  0  0  0  0  0  0
    6.1070    4.4250   21.9060 C   0  0  0  0  0  0  0  0  0  0  0  0
   12.1220   -1.6120   23.1920 C   0  0  0  0  0  0  0  0  0  0  0  0
   12.6690   -0.2920   23.7940 C   0  0  0  0  0  0  0  0  0  0  0  0
   12.6330   -2.7970   24.0190 C   0  0  0  0  0  0  0  0  0  0  0  0
   12.7350   -1.7670   21.7880 C   0  0  0  0  0  0  0  0  0  0  0  0
   13.4650   -2.5430   25.2530 C   0  0  0  0  0  0  0  0  0  0  0  0
   10.7670    6.0200   23.9280 O   0  0  0  0  0  0  0  0  0  0  0  0
   11.8710    6.2370   24.8030 C   0  0  0  0  0  0  0  0  0  0  0  0
    0.7010   -1.4820   26.2070 C   0  0  0  0  0  0  0  0  0  0  0  0
    4.4980   -7.0100   25.6280 O   0  0  0  0  0  0  0  0  0  0  0  0
    6.0910   -5.3650   26.6240 O   0  0  0  0  0  0  0  0  0  0  0  0
    2.0140   -6.0650   24.9310 C   0  0  0  0  0  0  0  0  0  0  0  0
    5.1280   -5.7070   25.6010 S   0  0  0  0  0  0  0  0  0  0  0  0
    6.1750   -2.2070   22.9320 C   0  0  0  0  0  0  0  0  0  0  0  0
    6.3290    0.5050   17.8600 N   0  0  0  0  0  0  0  0  0  0  0  0
    5.1810    1.2000   17.7740 C   0  0  0  0  0  0  0  0  0  0  0  0
    4.3900    1.5900   18.8390 C   0  0  0  0  0  0  0  0  0  0  0  0
    4.7620    1.2800   20.1300 C   0  0  0  0  0  0  0  0  0  0  0  0
    6.0330    0.5190   20.3480 C   0  0  0  0  0  0  0  0  0  0  0  0
    6.7290    0.1830   19.0910 C   0  0  0  0  0  0  0  0  0  0  0  0
    9.7710   -1.5730   24.1660 N   0  0  0  0  0  0  0  0  0  0  0  0
    8.4600   -1.5370   23.8640 N   0  0  0  0  0  0  0  0  0  0  0  0
    8.3490   -1.5110   22.5220 C   0  0  0  0  0  0  0  0  0  0  0  0
    9.6680   -1.5410   22.0230 C   0  0  0  0  0  0  0  0  0  0  0  0
   10.5920   -1.5770   23.0860 C   0  0  0  0  0  0  0  0  0  0  0  0
    9.4450    3.5520   23.5730 C   0  0  0  0  0  0  0  0  0  0  0  0
   10.2300    4.7430   23.8120 C   0  0  0  0  0  0  0  0  0  0  0  0
    9.3250    5.6900   23.2770 C   0  0  0  0  0  0  0  0  0  0  0  0
    8.0830    5.6120   22.6980 C   0  0  0  0  0  0  0  0  0  0  0  0
    7.4700    4.4450   22.5470 C   0  0  0  0  0  0  0  0  0  0  0  0
    8.1560    3.3800   22.9980 C   0  0  0  0  0  0  0  0  0  0  0  0
    1.7910   -2.5010   26.0420 C   0  0  0  0  0  0  0  0  0  0  0  0
    1.4950   -3.7690   25.5800 C   0  0  0  0  0  0  0  0  0  0  0  0
    2.4880   -4.7320   25.4360 C   0  0  0  0  0  0  0  0  0  0  0  0
    3.8170   -4.4760   25.7440 C   0  0  0  0  0  0  0  0  0  0  0  0
    4.1910   -3.2190   26.2030 C   0  0  0  0  0  0  0  0  0  0  0  0
    3.1030   -2.1820   26.3550 C   0  0  0  0  0  0  0  0  0  0  0  0
    6.7230   -4.4610   21.5110 N   0  0  0  0  0  0  0  0  0  0  0  0
    6.1800   -5.8470   21.6980 C   0  0  0  0  0  0  0  0  0  0  0  0
    5.2810   -6.0410   22.8330 C   0  0  0  0  0  0  0  0  0  0  0  0
    5.9210   -5.5430   24.0840 N   0  0  0  0  0  0  0  0  0  0  0  0
    6.7790   -4.3780   23.8160 C   0  0  0  0  0  0  0  0  0  0  0  0
    6.2760   -3.7590   22.7700 C   0  0  1  0  0  0  0  0  0  0  0  0
  2  4  1  0
  1  7  1  0
  3  7  2  0
  4  7  1  0
  1  8  1  0
  5  9  1  0
  6  9  2  0
  8  9  1  6
 10 11  1  0
 13 14  1  0
 13 15  1  0
 13 16  1  0
 15 17  1  0
 18 19  1  0
 21 24  2  0
 22 24  2  0
  1 25  1  0
 26 27  2  0
 27 28  1  0
 28 29  2  0
  8 30  1  0
 29 30  1  0
 26 31  1  0
 30 31  2  0
 32 33  1  0
  1 34  1  6
 33 34  2  0
 34 35  1  0
 13 36  1  0
 32 36  1  0
 35 36  2  0
 10 37  1  0
 18 38  1  0
 37 38  2  0
 38 39  1  0
 39 40  2  0
 12 41  1  0
 40 41  1  0
  5 42  1  0
 37 42  1  0
 41 42  2  0
 20 43  1  0
 43 44  2  0
 23 45  1  0
 44 45  1  0
 24 46  1  0
 45 46  2  0
 46 47  1  0
 43 48  1  0
 47 48  2  0
  2 49  1  0
 49 50  1  0
 50 51  1  0
 24 52  1  0
 51 52  1  0
 52 53  1  0
 54 25  1  6
 49 54  1  0
 53 54  1  0
M  END
