x2705-x1425
     RDKit          3D

 47 52  0  0  0  0  0  0  0  0999 V2000
    7.0190   -1.5140   21.7670 C   0  0  1  0  0  0  0  0  0  0  0  0
    7.1000   -4.9710   20.6490 C   0  0  0  0  0  0  0  0  0  0  0  0
    4.8430   -2.9510   20.5550 O   0  0  0  0  0  0  0  0  0  0  0  0
    7.3830    1.8630   22.8680 N   0  0  0  0  0  0  0  0  0  0  0  0
    8.6880    0.9450   21.3890 O   0  0  0  0  0  0  0  0  0  0  0  0
    5.9420   -2.7120   21.1780 C   0  0  0  0  0  0  0  0  0  0  0  0
    6.6410   -0.0210   21.6550 C   0  0  1  0  0  0  0  0  0  0  0  0
    7.6180    0.9570   21.9860 C   0  0  0  0  0  0  0  0  0  0  0  0
   10.2460    2.0020   24.0180 C   0  0  0  0  0  0  0  0  0  0  0  0
    9.3910    1.2680   24.8490 C   0  0  0  0  0  0  0  0  0  0  0  0
    6.0060    4.6460   21.8040 C   0  0  0  0  0  0  0  0  0  0  0  0
   12.2270   -1.5000   23.1790 C   0  0  0  0  0  0  0  0  0  0  0  0
   12.6240   -0.1920   23.5060 C   0  0  0  0  0  0  0  0  0  0  0  0
   12.7720   -2.4680   24.2620 C   0  0  0  0  0  0  0  0  0  0  0  0
   12.8630   -1.8810   21.8270 C   0  0  0  0  0  0  0  0  0  0  0  0
    1.4240   -2.3370   28.2670 C   0  0  0  0  0  0  0  0  0  0  0  0
    2.5300   -1.7970   28.1190 O   0  0  0  0  0  0  0  0  0  0  0  0
    6.6160   -1.9340   22.9160 C   0  0  0  0  0  0  0  0  0  0  0  0
    6.3790    0.3730   17.7660 N   0  0  0  0  0  0  0  0  0  0  0  0
    5.2010    1.2250   17.7350 C   0  0  0  0  0  0  0  0  0  0  0  0
    4.5240    1.6240   18.8560 C   0  0  0  0  0  0  0  0  0  0  0  0
    5.0160    1.1790   20.2090 C   0  0  0  0  0  0  0  0  0  0  0  0
    6.1420    0.3760   20.2990 C   0  0  0  0  0  0  0  0  0  0  0  0
    6.8790   -0.0780   19.0470 C   0  0  0  0  0  0  0  0  0  0  0  0
    9.9350   -1.7220   24.1910 N   0  0  0  0  0  0  0  0  0  0  0  0
    8.6260   -1.7260   23.8010 N   0  0  0  0  0  0  0  0  0  0  0  0
    8.5290   -1.5620   22.4170 C   0  0  0  0  0  0  0  0  0  0  0  0
    9.7990   -1.4440   21.9170 C   0  0  0  0  0  0  0  0  0  0  0  0
   10.7100   -1.5580   23.1190 C   0  0  0  0  0  0  0  0  0  0  0  0
    9.5030    3.2730   23.5090 C   0  0  0  0  0  0  0  0  0  0  0  0
   10.2510    4.4810   23.6260 C   0  0  0  0  0  0  0  0  0  0  0  0
    9.6080    5.6210   23.1710 C   0  0  0  0  0  0  0  0  0  0  0  0
    8.2250    5.7210   22.5700 C   0  0  0  0  0  0  0  0  0  0  0  0
    7.4080    4.4650   22.4310 C   0  0  0  0  0  0  0  0  0  0  0  0
    8.0690    3.1780   22.9270 C   0  0  0  0  0  0  0  0  0  0  0  0
    3.3920   -2.3880   27.2430 C   0  0  0  0  0  0  0  0  0  0  0  0
    4.8880   -2.0720   27.1230 C   0  0  0  0  0  0  0  0  0  0  0  0
    5.7100   -2.8380   26.1020 C   0  0  0  0  0  0  0  0  0  0  0  0
    5.0420   -3.8980   25.2230 C   0  0  0  0  0  0  0  0  0  0  0  0
    3.5610   -4.2120   25.3230 C   0  0  0  0  0  0  0  0  0  0  0  0
    2.7360   -3.4490   26.3430 C   0  0  0  0  0  0  0  0  0  0  0  0
    6.5250   -3.9950   21.7010 C   0  0  2  0  0  0  0  0  0  0  0  0
    7.2930   -3.3340   22.8300 C   0  0  2  0  0  0  0  0  0  0  0  0
    7.2670   -3.9790   24.0170 C   0  0  0  0  0  0  0  0  0  0  0  0
    5.9730   -4.5630   24.3030 N   0  0  0  0  0  0  0  0  0  0  0  0
    5.4890   -5.5780   23.4100 C   0  0  0  0  0  0  0  0  0  0  0  0
    5.2910   -4.8210   22.1290 C   0  0  0  0  0  0  0  0  0  0  0  0
  1  6  1  0
  3  6  2  0
  1  7  1  0
  4  8  1  0
  5  8  2  0
  7  8  1  6
  9 10  1  0
 12 13  1  0
 12 14  1  0
 12 15  1  0
 16 17  1  0
  1 18  1  0
 19 20  2  0
 20 21  1  0
 21 22  2  0
  7 23  1  0
 22 23  1  0
 19 24  1  0
 23 24  2  0
 25 26  1  0
  1 27  1  1
 26 27  1  0
 27 28  2  0
 12 29  1  0
 25 29  2  0
 28 29  1  0
  9 30  1  0
 30 31  2  0
 31 32  1  0
 32 33  2  0
 11 34  1  0
 33 34  1  0
  4 35  1  0
 30 35  1  0
 34 35  2  0
 17 36  1  0
 36 37  2  0
 37 38  1  0
 38 39  2  0
 39 40  1  0
 36 41  1  0
 40 41  2  0
 42  2  1  6
  6 42  1  0
 43 18  1  1
 42 43  1  0
 43 44  1  0
 39 45  1  0
 44 45  1  0
 45 46  1  0
 42 47  1  0
 46 47  1  0
M  END
