x2703-x0978-x2694-x1380-x0426
     RDKit          3D

 73 80  0  0  0  0  0  0  0  0999 V2000
    6.9770   -1.1370   21.5910 N   0  0  0  0  0  0  0  0  0  0  0  0
    6.3840   -4.7240   20.8930 C   0  0  0  0  0  0  0  0  0  0  0  0
    4.7610   -2.8120   20.9840 O   0  0  0  0  0  0  0  0  0  0  0  0
    7.4880    2.4360   22.6030 N   0  0  0  0  0  0  0  0  0  0  0  0
    8.8170    1.2320   21.1460 O   0  0  0  0  0  0  0  0  0  0  0  0
    6.0420   -2.3760   21.4280 C   0  0  0  0  0  0  0  0  0  0  0  0
   11.1790    6.5520   23.9700 O   0  0  0  0  0  0  0  0  0  0  0  0
    6.5550    0.3300   21.5280 C   0  0  1  0  0  0  0  0  0  0  0  0
    7.7440    1.3400   21.7430 C   0  0  0  0  0  0  0  0  0  0  0  0
   10.1400    1.7980   24.0310 C   0  0  0  0  0  0  0  0  0  0  0  0
   11.8190    6.3650   25.0050 C   0  0  0  0  0  0  0  0  0  0  0  0
   11.9910   -1.4730   23.1730 C   0  0  0  0  0  0  0  0  0  0  0  0
   12.6470   -0.2430   23.7700 C   0  0  0  0  0  0  0  0  0  0  0  0
   12.6820   -1.7110   21.8110 C   0  0  0  0  0  0  0  0  0  0  0  0
   12.3660   -2.6890   24.0380 C   0  0  0  0  0  0  0  0  0  0  0  0
    9.2590    1.2010   25.1170 C   0  0  0  0  0  0  0  0  0  0  0  0
   13.2790   -2.4720   25.2440 C   0  0  0  0  0  0  0  0  0  0  0  0
    2.3640   -6.9470   22.3850 N   0  0  0  0  0  0  0  0  0  0  0  0
    2.0410   -8.0980   24.4050 C   0  0  0  0  0  0  0  0  0  0  0  0
    4.2400   -7.9940   24.6810 O   0  0  0  0  0  0  0  0  0  0  0  0
    3.3080   -7.2290   24.5410 C   0  0  1  0  0  0  0  0  0  0  0  0
    5.9010   -5.9720   21.8240 N   0  0  0  0  0  0  0  0  0  0  0  0
    0.3350   -7.4380   21.6220 O   0  0  0  0  0  0  0  0  0  0  0  0
    3.2800   -6.3450   23.2950 C   0  0  1  0  0  0  0  0  0  0  0  0
    5.1740   -5.6660   24.1920 N   0  0  0  0  0  0  0  0  0  0  0  0
    1.0150   -6.7400   22.3530 C   0  0  0  0  0  0  0  0  0  0  0  0
    0.2830   -5.6700   23.1720 C   0  0  0  0  0  0  0  0  0  0  0  0
    4.7870   -6.0070   22.9810 C   0  0  0  0  0  0  0  0  0  0  0  0
    2.5300    1.9480   24.3110 C   0  0  0  0  0  0  0  0  0  0  0  0
    2.8110    0.8920   24.8620 O   0  0  0  0  0  0  0  0  0  0  0  0
    3.3110    2.4930   23.2820 N   0  0  0  0  0  0  0  0  0  0  0  0
    4.0370    1.6520   22.3220 C   0  0  0  0  0  0  0  0  0  0  0  0
    3.6970    1.7570   20.9700 C   0  0  0  0  0  0  0  0  0  0  0  0
    2.6570    4.6840   25.4960 F   0  0  0  0  0  0  0  0  0  0  0  0
    5.0970   -2.7760   25.6640 O   0  0  0  0  0  0  0  0  0  0  0  0
    6.1400   -3.4410   25.5660 C   0  0  0  0  0  0  0  0  0  0  0  0
    6.3860    0.6330   17.8610 N   0  0  0  0  0  0  0  0  0  0  0  0
    5.2230    1.2550   17.7060 C   0  0  0  0  0  0  0  0  0  0  0  0
    4.3740    1.6010   18.7120 C   0  0  0  0  0  0  0  0  0  0  0  0
    4.7440    1.3080   19.9810 C   0  0  0  0  0  0  0  0  0  0  0  0
    5.9770    0.6740   20.1900 C   0  0  0  0  0  0  0  0  0  0  0  0
    6.7820    0.3320   19.0960 C   0  0  0  0  0  0  0  0  0  0  0  0
    8.2920   -1.3010   23.7650 N   0  0  0  0  0  0  0  0  0  0  0  0
    9.6360   -1.3920   24.1790 O   0  0  0  0  0  0  0  0  0  0  0  0
   10.4370   -1.3900   23.0810 C   0  0  0  0  0  0  0  0  0  0  0  0
    9.5780   -1.3000   21.9880 C   0  0  0  0  0  0  0  0  0  0  0  0
    8.2290   -1.2450   22.4020 C   0  0  0  0  0  0  0  0  0  0  0  0
    9.6860    3.1770   23.6180 C   0  0  0  0  0  0  0  0  0  0  0  0
   10.5540    4.2740   23.9210 C   0  0  0  0  0  0  0  0  0  0  0  0
   10.2470    5.6090   23.6030 C   0  0  0  0  0  0  0  0  0  0  0  0
    9.0570    5.8690   22.9590 C   0  0  0  0  0  0  0  0  0  0  0  0
    8.1640    4.8670   22.6260 C   0  0  0  0  0  0  0  0  0  0  0  0
    8.4820    3.4240   22.9730 C   0  0  0  0  0  0  0  0  0  0  0  0
    1.4650    4.0790   25.3870 C   0  0  0  0  0  0  0  0  0  0  0  0
    1.3450    2.6870   24.7880 C   0  0  0  0  0  0  0  0  0  0  0  0
   -0.0430    2.0510   24.6900 C   0  0  0  0  0  0  0  0  0  0  0  0
   -1.2420    2.8450   25.2020 C   0  0  0  0  0  0  0  0  0  0  0  0
   -1.0570    4.2370   25.7970 C   0  0  0  0  0  0  0  0  0  0  0  0
    0.3590    4.8120   25.8610 C   0  0  0  0  0  0  0  0  0  0  0  0
    5.7930   -4.1820   22.6510 N   0  0  0  0  0  0  0  0  0  0  0  0
    6.7190   -5.2950   22.7360 C   0  0  1  0  0  0  0  0  0  0  0  0
    6.4240   -5.3670   24.0150 C   0  0  1  0  0  0  0  0  0  0  0  0
    6.4150   -4.0080   24.1600 C   0  0  2  0  0  0  0  0  0  0  0  0
    7.3790   -3.4350   23.3110 C   0  0  0  0  0  0  0  0  0  0  0  0
    6.7110   -3.5600   21.8870 C   0  0  2  0  0  0  0  0  0  0  0  0
    8.1500   -4.3850   26.6870 C   0  0  0  0  0  0  0  0  0  0  0  0
    8.3450   -5.0840   28.0290 C   0  0  0  0  0  0  0  0  0  0  0  0
    7.0110   -5.6590   28.6430 C   0  0  0  0  0  0  0  0  0  0  0  0
    5.8040   -4.6890   28.5500 C   0  0  0  0  0  0  0  0  0  0  0  0
    6.3810   -3.3750   28.0470 C   0  0  0  0  0  0  0  0  0  0  0  0
    6.9140   -3.6060   26.7020 N   0  0  0  0  0  0  0  0  0  0  0  0
    6.0120    4.3130   21.6500 C   0  0  0  0  0  0  0  0  0  0  0  0
    6.1610    3.0390   22.4840 C   0  0  0  0  0  0  0  0  0  0  0  0
  1  6  1  0
  3  6  2  0
  1  8  1  0
  4  9  1  0
  5  9  2  0
  8  9  1  6
  7 11  1  0
 12 13  1  0
 12 14  1  0
 12 15  1  0
 10 16  1  0
 15 17  1  0
 21 19  1  6
 20 21  1  0
  2 22  1  0
 24 18  1  6
 21 24  1  0
 18 26  1  0
 23 26  2  0
 26 27  1  0
 22 28  1  0
 24 28  1  0
 25 28  2  0
 29 30  2  0
 29 31  1  0
 31 32  1  0
 32 33  1  0
 35 36  2  0
 37 38  2  0
 38 39  1  0
 33 40  1  0
 39 40  2  0
  8 41  1  0
 40 41  1  0
 37 42  1  0
 41 42  2  0
 43 44  1  0
 12 45  1  0
 44 45  1  0
 45 46  2  0
  1 47  1  0
 43 47  2  0
 46 47  1  0
 10 48  1  0
 48 49  2  0
  7 50  1  0
 49 50  1  0
 50 51  2  0
 51 52  1  0
  4 53  1  0
 48 53  1  0
 52 53  2  0
 34 54  1  0
 29 55  1  0
 54 55  2  0
 55 56  1  0
 56 57  2  0
 57 58  1  0
 54 59  1  0
 58 59  2  0
 22 61  1  0
 61 60  1  6
 62 25  1  6
 61 62  1  0
 63 36  1  1
 62 63  1  0
 63 64  1  0
  2 65  1  0
 65  6  1  6
 60 65  1  0
 64 65  1  0
 66 67  1  0
 67 68  1  0
 68 69  1  0
 69 70  1  0
 36 71  1  0
 66 71  1  0
 70 71  1  0
  4 73  1  0
 72 73  1  0
M  END
