x2705-x2193
     RDKit          3D

 40 43  0  0  0  0  0  0  0  0999 V2000
    7.0220   -1.5100   21.8260 N   0  0  0  0  0  0  0  0  0  0  0  0
    6.9030   -4.5630   20.2120 C   0  0  0  0  0  0  0  0  0  0  0  0
    4.8610   -3.0480   21.2660 O   0  0  0  0  0  0  0  0  0  0  0  0
    7.0240   -3.9770   21.6080 C   0  0  0  0  0  0  0  0  0  0  0  0
    7.2990    1.9230   22.8080 N   0  0  0  0  0  0  0  0  0  0  0  0
    8.6840    0.7580   21.4580 O   0  0  0  0  0  0  0  0  0  0  0  0
    6.1720   -2.7550   21.5550 C   0  0  0  0  0  0  0  0  0  0  0  0
    6.5250   -0.0740   21.6530 C   0  0  1  0  0  0  0  0  0  0  0  0
    7.5710    0.8590   21.9620 C   0  0  0  0  0  0  0  0  0  0  0  0
   10.1220    1.9180   23.9990 C   0  0  0  0  0  0  0  0  0  0  0  0
    9.3680    1.1920   24.9310 C   0  0  0  0  0  0  0  0  0  0  0  0
    6.1060    4.5480   21.8660 C   0  0  0  0  0  0  0  0  0  0  0  0
   12.1990   -1.3550   23.1350 C   0  0  0  0  0  0  0  0  0  0  0  0
   12.5770   -0.0410   23.4550 C   0  0  0  0  0  0  0  0  0  0  0  0
   12.8000   -2.3020   24.2100 C   0  0  0  0  0  0  0  0  0  0  0  0
   12.8720   -1.7240   21.8060 C   0  0  0  0  0  0  0  0  0  0  0  0
    6.3620    0.4290   17.7020 N   0  0  0  0  0  0  0  0  0  0  0  0
    5.1790    1.2340   17.7370 C   0  0  0  0  0  0  0  0  0  0  0  0
    4.5300    1.5260   18.9250 C   0  0  0  0  0  0  0  0  0  0  0  0
    4.9220    1.1140   20.1840 C   0  0  0  0  0  0  0  0  0  0  0  0
    6.0710    0.3340   20.2940 C   0  0  0  0  0  0  0  0  0  0  0  0
    6.8100   -0.0290   19.0170 C   0  0  0  0  0  0  0  0  0  0  0  0
   10.0310   -1.9480   24.1720 N   0  0  0  0  0  0  0  0  0  0  0  0
    8.6510   -2.0110   23.8560 N   0  0  0  0  0  0  0  0  0  0  0  0
    8.3210   -1.5900   22.4600 C   0  0  0  0  0  0  0  0  0  0  0  0
    9.7450   -1.2940   22.0460 C   0  0  0  0  0  0  0  0  0  0  0  0
   10.6760   -1.5120   23.0600 C   0  0  0  0  0  0  0  0  0  0  0  0
    9.4040    3.1620   23.5050 C   0  0  0  0  0  0  0  0  0  0  0  0
   10.1450    4.5130   23.6150 C   0  0  0  0  0  0  0  0  0  0  0  0
    9.4770    5.6400   23.1530 C   0  0  0  0  0  0  0  0  0  0  0  0
    8.1860    5.6410   22.5950 C   0  0  0  0  0  0  0  0  0  0  0  0
    7.4800    4.4470   22.4770 C   0  0  0  0  0  0  0  0  0  0  0  0
    8.1150    3.1400   22.9580 C   0  0  0  0  0  0  0  0  0  0  0  0
    8.7030   -6.2460   26.1120 N   0  0  0  0  0  0  0  0  0  0  0  0
    8.7770   -5.2770   27.1820 C   0  0  0  0  0  0  0  0  0  0  0  0
    8.6740   -3.8800   26.6310 C   0  0  0  0  0  0  0  0  0  0  0  0
    8.1500   -3.8320   25.2670 N   0  0  0  0  0  0  0  0  0  0  0  0
    9.0980   -4.4890   24.3480 C   0  0  0  0  0  0  0  0  0  0  0  0
    9.4770   -5.8470   24.9150 C   0  0  0  0  0  0  0  0  0  0  0  0
    7.7740   -2.4630   24.8940 C   0  0  0  0  0  0  0  0  0  0  0  0
  2  4  1  0
  1  7  1  0
  3  7  2  0
  4  7  1  0
  1  8  1  0
  5  9  1  0
  6  9  2  0
  8  9  1  6
 10 11  1  0
 13 14  1  0
 13 15  1  0
 13 16  1  0
 17 18  2  0
 18 19  1  0
 19 20  2  0
  8 21  1  0
 20 21  1  0
 17 22  1  0
 21 22  2  0
 23 24  1  0
  1 25  1  0
 24 25  1  0
 25 26  2  0
 13 27  1  0
 23 27  2  0
 26 27  1  0
 10 28  1  0
 28 29  2  0
 29 30  1  0
 30 31  2  0
 12 32  1  0
 31 32  1  0
  5 33  1  0
 28 33  1  0
 32 33  2  0
 34 35  1  0
 35 36  1  0
 36 37  1  0
 37 38  1  0
 34 39  1  0
 38 39  1  0
 24 40  1  0
 37 40  1  0
M  END
