x2705-x1380-x2703
     RDKit          3D

 48 53  0  0  0  0  0  0  0  0999 V2000
    7.1070   -1.4640   21.8680 C   0  0  1  0  0  0  0  0  0  0  0  0
    6.9850   -4.7810   20.5550 C   0  0  0  0  0  0  0  0  0  0  0  0
    5.1560   -3.4610   20.9170 O   0  0  0  0  0  0  0  0  0  0  0  0
    7.5700    2.0040   22.8360 N   0  0  0  0  0  0  0  0  0  0  0  0
    8.9800    1.2980   21.1710 O   0  0  0  0  0  0  0  0  0  0  0  0
    5.9400   -2.5130   21.2920 C   0  0  0  0  0  0  0  0  0  0  0  0
    6.8660    0.0740   21.5250 C   0  0  1  0  0  0  0  0  0  0  0  0
    7.9380    1.1560   21.8130 C   0  0  0  0  0  0  0  0  0  0  0  0
   10.3170    2.0770   23.8980 C   0  0  0  0  0  0  0  0  0  0  0  0
    9.4350    1.1420   24.7820 C   0  0  0  0  0  0  0  0  0  0  0  0
    6.2070    4.5320   21.9550 C   0  0  0  0  0  0  0  0  0  0  0  0
   12.2460   -1.5590   23.0750 C   0  0  0  0  0  0  0  0  0  0  0  0
   12.7790   -0.2000   23.6350 C   0  0  0  0  0  0  0  0  0  0  0  0
   12.7200   -2.7660   23.8910 C   0  0  0  0  0  0  0  0  0  0  0  0
   12.8480   -1.7560   21.7320 C   0  0  0  0  0  0  0  0  0  0  0  0
   13.2870   -2.5240   25.2960 C   0  0  0  0  0  0  0  0  0  0  0  0
    4.5390   -3.1390   26.1130 O   0  0  0  0  0  0  0  0  0  0  0  0
    5.6920   -3.4130   25.7950 C   0  0  0  0  0  0  0  0  0  0  0  0
    6.5080   -1.6950   23.2230 C   0  0  0  0  0  0  0  0  0  0  0  0
    6.3500    0.3710   17.8390 N   0  0  0  0  0  0  0  0  0  0  0  0
    5.1210    1.1490   17.7260 C   0  0  0  0  0  0  0  0  0  0  0  0
    4.4150    1.5590   18.9990 C   0  0  0  0  0  0  0  0  0  0  0  0
    5.0200    1.1640   20.3100 C   0  0  0  0  0  0  0  0  0  0  0  0
    6.1930    0.4470   20.2520 C   0  0  0  0  0  0  0  0  0  0  0  0
    6.8030    0.0730   19.0570 C   0  0  0  0  0  0  0  0  0  0  0  0
    9.9420   -1.7450   24.0980 N   0  0  0  0  0  0  0  0  0  0  0  0
    8.6420   -1.7290   23.8080 N   0  0  0  0  0  0  0  0  0  0  0  0
    8.5510   -1.5620   22.4720 C   0  0  0  0  0  0  0  0  0  0  0  0
    9.8630   -1.4730   21.9620 C   0  0  0  0  0  0  0  0  0  0  0  0
   10.7230   -1.5880   23.0010 C   0  0  0  0  0  0  0  0  0  0  0  0
    9.5680    3.3180   23.4610 C   0  0  0  0  0  0  0  0  0  0  0  0
   10.2070    4.5750   23.5660 C   0  0  0  0  0  0  0  0  0  0  0  0
    9.5900    5.7690   23.1750 C   0  0  0  0  0  0  0  0  0  0  0  0
    8.2950    5.6690   22.6620 C   0  0  0  0  0  0  0  0  0  0  0  0
    7.5970    4.4610   22.5290 C   0  0  0  0  0  0  0  0  0  0  0  0
    8.2480    3.2570   22.9440 C   0  0  0  0  0  0  0  0  0  0  0  0
    6.6700   -3.8410   21.7220 C   0  0  1  0  0  0  0  0  0  0  0  0
    5.5360   -4.7070   22.3940 C   0  0  0  0  0  0  0  0  0  0  0  0
    5.7000   -4.8210   23.7660 C   0  0  0  0  0  0  0  0  0  0  0  0
    5.9610   -3.6010   24.3030 C   0  0  2  0  0  0  0  0  0  0  0  0
    7.0640   -2.9940   23.8160 C   0  0  1  0  0  0  0  0  0  0  0  0
    7.7510   -3.6700   22.7900 C   0  0  0  0  0  0  0  0  0  0  0  0
    7.9310   -4.2660   26.6980 C   0  0  0  0  0  0  0  0  0  0  0  0
    8.1400   -5.0290   27.8690 C   0  0  0  0  0  0  0  0  0  0  0  0
    6.9840   -5.5700   28.5370 C   0  0  0  0  0  0  0  0  0  0  0  0
    5.8180   -4.7390   28.5470 C   0  0  0  0  0  0  0  0  0  0  0  0
    6.1080   -3.4350   28.1220 C   0  0  0  0  0  0  0  0  0  0  0  0
    6.6740   -3.5060   26.7770 N   0  0  0  0  0  0  0  0  0  0  0  0
  1  6  1  0
  3  6  2  0
  1  7  1  0
  4  8  1  0
  5  8  2  0
  7  8  1  6
  9 10  1  0
 12 13  1  0
 12 14  1  0
 12 15  1  0
 14 16  1  0
 17 18  2  0
  1 19  1  0
 20 21  2  0
 21 22  1  0
 22 23  2  0
  7 24  1  0
 23 24  1  0
 20 25  1  0
 24 25  2  0
 26 27  1  0
  1 28  1  1
 27 28  2  0
 28 29  1  0
 12 30  1  0
 26 30  1  0
 29 30  2  0
  9 31  1  0
 31 32  2  0
 32 33  1  0
 33 34  2  0
 11 35  1  0
 34 35  1  0
  4 36  1  0
 31 36  1  0
 35 36  2  0
 37  2  1  6
  6 37  1  0
 37 38  1  0
 38 39  1  0
 40 18  1  1
 39 40  1  0
 41 19  1  6
 40 41  1  0
 37 42  1  0
 41 42  1  0
 43 44  1  0
 44 45  1  0
 45 46  1  0
 46 47  1  0
 18 48  1  0
 43 48  1  0
 47 48  1  0
M  END
