x2705-x0395-x1077
     RDKit          3D

 38 41  0  0  0  0  0  0  0  0999 V2000
    7.0780   -1.6940   21.8870 N   0  0  0  0  0  0  0  0  0  0  0  0
    6.7800   -4.8090   20.4210 C   0  0  0  0  0  0  0  0  0  0  0  0
    4.8750   -3.0760   21.2620 O   0  0  0  0  0  0  0  0  0  0  0  0
    6.9460   -4.1830   21.5930 C   0  0  0  0  0  0  0  0  0  0  0  0
    7.4630    1.8450   22.8580 N   0  0  0  0  0  0  0  0  0  0  0  0
    8.9760    0.7920   21.5760 O   0  0  0  0  0  0  0  0  0  0  0  0
    6.1830   -2.8940   21.5670 C   0  0  0  0  0  0  0  0  0  0  0  0
    6.7440   -0.2070   21.6540 C   0  0  1  0  0  0  0  0  0  0  0  0
    7.8300    0.8180   22.0200 C   0  0  0  0  0  0  0  0  0  0  0  0
   10.1560    1.9740   23.9590 C   0  0  0  0  0  0  0  0  0  0  0  0
    9.3030    1.1350   24.9350 C   0  0  0  0  0  0  0  0  0  0  0  0
    6.1200    4.5280   21.8520 C   0  0  0  0  0  0  0  0  0  0  0  0
   12.1530   -1.3960   23.1340 C   0  0  0  0  0  0  0  0  0  0  0  0
   12.4980    0.0720   23.4490 C   0  0  0  0  0  0  0  0  0  0  0  0
   12.8050   -2.2600   24.2360 C   0  0  0  0  0  0  0  0  0  0  0  0
   12.7900   -1.7700   21.7940 C   0  0  0  0  0  0  0  0  0  0  0  0
    9.1660   -5.3150   26.2570 C   0  0  0  0  0  0  0  0  0  0  0  0
    6.3270    0.3360   17.9040 N   0  0  0  0  0  0  0  0  0  0  0  0
    5.1770    1.0870   17.8070 C   0  0  0  0  0  0  0  0  0  0  0  0
    4.3530    1.4980   18.9720 C   0  0  0  0  0  0  0  0  0  0  0  0
    4.9220    1.0170   20.2680 C   0  0  0  0  0  0  0  0  0  0  0  0
    6.2130    0.1970   20.3090 C   0  0  0  0  0  0  0  0  0  0  0  0
    6.7990   -0.0760   19.0930 C   0  0  0  0  0  0  0  0  0  0  0  0
   10.0420   -2.2460   24.2050 N   0  0  0  0  0  0  0  0  0  0  0  0
    8.7470   -2.3740   23.8320 C   0  0  2  0  0  0  0  0  0  0  0  0
    8.4060   -1.8200   22.5810 C   0  0  0  0  0  0  0  0  0  0  0  0
    9.6700   -1.3800   22.1080 C   0  0  0  0  0  0  0  0  0  0  0  0
   10.6200   -1.6690   23.1370 C   0  0  0  0  0  0  0  0  0  0  0  0
    9.4290    3.2100   23.4750 C   0  0  0  0  0  0  0  0  0  0  0  0
   10.1210    4.4380   23.5890 C   0  0  0  0  0  0  0  0  0  0  0  0
    9.5050    5.6360   23.1490 C   0  0  0  0  0  0  0  0  0  0  0  0
    8.2160    5.6460   22.5920 C   0  0  0  0  0  0  0  0  0  0  0  0
    7.4910    4.4540   22.4600 C   0  0  0  0  0  0  0  0  0  0  0  0
    8.1300    3.1130   22.9400 C   0  0  0  0  0  0  0  0  0  0  0  0
    8.6900   -4.1150   25.4970 C   0  0  0  0  0  0  0  0  0  0  0  0
    8.3520   -2.9900   26.0310 N   0  0  0  0  0  0  0  0  0  0  0  0
    8.0030   -2.0920   25.0440 N   0  0  0  0  0  0  0  0  0  0  0  0
    8.5610   -4.1790   23.7620 S   0  0  0  0  0  0  0  0  0  0  0  0
  2  4  1  0
  1  7  1  0
  3  7  2  0
  4  7  1  0
  1  8  1  0
  5  9  1  0
  6  9  2  0
  8  9  1  6
 10 11  1  0
 13 14  1  0
 13 15  1  0
 13 16  1  0
 18 19  2  0
 19 20  1  0
 20 21  2  0
  8 22  1  0
 21 22  1  0
 18 23  1  0
 22 23  2  0
 25 24  1  1
  1 26  1  0
 25 26  1  0
 26 27  2  0
 13 28  1  0
 24 28  2  0
 27 28  1  0
 10 29  1  0
 29 30  2  0
 30 31  1  0
 31 32  2  0
 12 33  1  0
 32 33  1  0
  5 34  1  0
 29 34  1  0
 33 34  2  0
 17 35  1  0
 35 36  2  0
 25 37  1  0
 36 37  1  0
 25 38  1  0
 35 38  1  0
M  END
