x2705-x2776-x2608-x0691
     RDKit          3D

 56 61  0  0  0  0  0  0  0  0999 V2000
    6.7350   -1.3020   21.8330 N   0  0  0  0  0  0  0  0  0  0  0  0
    7.3430   -3.7770   20.3190 C   0  0  0  0  0  0  0  0  0  0  0  0
    4.6810   -2.9520   21.4840 O   0  0  0  0  0  0  0  0  0  0  0  0
    6.3120   -2.7990   19.8870 C   0  0  0  0  0  0  0  0  0  0  0  0
    7.6680    1.9940   22.8620 N   0  0  0  0  0  0  0  0  0  0  0  0
    8.7670    1.1650   21.0950 O   0  0  0  0  0  0  0  0  0  0  0  0
    5.8240   -2.3250   21.1550 C   0  0  0  0  0  0  0  0  0  0  0  0
    6.5920    0.0890   21.6080 C   0  0  1  0  0  0  0  0  0  0  0  0
    7.7840    1.1010   21.8290 C   0  0  0  0  0  0  0  0  0  0  0  0
   10.0680    2.2780   24.0110 C   0  0  0  0  0  0  0  0  0  0  0  0
    9.1670    1.5160   24.9800 C   0  0  0  0  0  0  0  0  0  0  0  0
    6.0780    4.2080   21.7730 C   0  0  0  0  0  0  0  0  0  0  0  0
   11.7250   -1.5780   23.4360 C   0  0  2  0  0  0  0  0  0  0  0  0
   12.0830   -0.3360   24.2720 C   0  0  0  0  0  0  0  0  0  0  0  0
   12.2390   -2.7970   24.2160 C   0  0  0  0  0  0  0  0  0  0  0  0
   12.4700   -1.6070   22.0800 C   0  0  0  0  0  0  0  0  0  0  0  0
   13.3700   -2.6120   25.2090 C   0  0  0  0  0  0  0  0  0  0  0  0
   10.7660    6.0140   23.9480 O   0  0  0  0  0  0  0  0  0  0  0  0
   11.9310    6.1920   24.7830 C   0  0  0  0  0  0  0  0  0  0  0  0
    4.1030   -6.9700   25.6150 O   0  0  0  0  0  0  0  0  0  0  0  0
    5.8290   -5.3970   26.6600 O   0  0  0  0  0  0  0  0  0  0  0  0
    3.3810   -0.6980   25.9510 F   0  0  0  0  0  0  0  0  0  0  0  0
    4.7560   -5.6830   25.5070 S   0  0  0  0  0  0  0  0  0  0  0  0
    7.5450   -2.9920   23.4170 C   0  0  0  0  0  0  0  0  0  0  0  0
    6.3700   -3.6150   22.6800 C   0  0  0  0  0  0  0  0  0  0  0  0
    6.3390    0.4990   17.8200 N   0  0  0  0  0  0  0  0  0  0  0  0
    5.1880    1.2320   17.7530 C   0  0  0  0  0  0  0  0  0  0  0  0
    4.4720    1.5850   18.8480 C   0  0  0  0  0  0  0  0  0  0  0  0
    4.9100    1.2110   20.0970 C   0  0  0  0  0  0  0  0  0  0  0  0
    6.0980    0.4650   20.2510 C   0  0  0  0  0  0  0  0  0  0  0  0
    6.7240    0.1620   19.0520 C   0  0  0  0  0  0  0  0  0  0  0  0
    9.3600   -1.1700   24.2780 N   0  0  0  0  0  0  0  0  0  0  0  0
    8.0840   -0.8840   23.8280 N   0  0  0  0  0  0  0  0  0  0  0  0
    7.9020   -1.6820   22.7520 C   0  0  2  0  0  0  0  0  0  0  0  0
    9.2270   -1.8640   22.2930 C   0  0  0  0  0  0  0  0  0  0  0  0
   10.1990   -1.5710   23.2610 C   0  0  0  0  0  0  0  0  0  0  0  0
    9.4110    3.5620   23.5400 C   0  0  0  0  0  0  0  0  0  0  0  0
   10.2060    4.7600   23.8060 C   0  0  0  0  0  0  0  0  0  0  0  0
    9.3550    5.7610   23.2530 C   0  0  0  0  0  0  0  0  0  0  0  0
    8.0910    5.5830   22.6280 C   0  0  0  0  0  0  0  0  0  0  0  0
    7.4330    4.3900   22.4390 C   0  0  0  0  0  0  0  0  0  0  0  0
    8.1550    3.3460   22.9330 C   0  0  0  0  0  0  0  0  0  0  0  0
    2.9870   -1.9740   25.8160 C   0  0  0  0  0  0  0  0  0  0  0  0
    3.8860   -3.0370   25.7290 C   0  0  0  0  0  0  0  0  0  0  0  0
    3.5290   -4.3900   25.5900 C   0  0  0  0  0  0  0  0  0  0  0  0
    2.1480   -4.6900   25.5290 C   0  0  0  0  0  0  0  0  0  0  0  0
    1.1760   -3.6940   25.6070 C   0  0  0  0  0  0  0  0  0  0  0  0
    1.6240   -2.2490   25.7630 C   0  0  0  0  0  0  0  0  0  0  0  0
    6.7350   -4.6270   21.5920 C   0  0  0  0  0  0  0  0  0  0  0  0
    5.5790   -5.6050   21.4150 C   0  0  0  0  0  0  0  0  0  0  0  0
    4.7900   -5.8080   22.7320 C   0  0  0  0  0  0  0  0  0  0  0  0
    5.5560   -5.5590   23.9700 N   0  0  0  0  0  0  0  0  0  0  0  0
    7.0220   -5.3890   23.8810 C   0  0  0  0  0  0  0  0  0  0  0  0
    7.6230   -5.3420   22.6140 C   0  0  0  0  0  0  0  0  0  0  0  0
   13.5250    0.5860   22.7000 C   0  0  0  0  0  0  0  0  0  0  0  0
   12.2590    0.8990   23.4260 C   0  0  0  0  0  0  0  0  0  0  0  0
  2  4  1  0
  1  7  1  0
  3  7  2  0
  4  7  1  0
  1  8  1  0
  5  9  1  0
  6  9  2  0
  8  9  1  6
 10 11  1  0
 13 14  1  0
 13 15  1  0
 13 16  1  6
 15 17  1  0
 18 19  1  0
 20 23  2  0
 21 23  2  0
 24 25  1  0
 26 27  2  0
 27 28  1  0
 28 29  2  0
  8 30  1  0
 29 30  1  0
 26 31  1  0
 30 31  2  0
 32 33  2  0
  1 34  1  0
 34 24  1  1
 34 33  1  0
 34 35  1  0
 13 36  1  0
 32 36  1  0
 35 36  2  0
 10 37  1  0
 18 38  1  0
 37 38  2  0
 38 39  1  0
 39 40  2  0
 12 41  1  0
 40 41  1  0
  5 42  1  0
 37 42  1  0
 41 42  2  0
 22 43  1  0
 43 44  2  0
 23 45  1  0
 44 45  1  0
 45 46  2  0
 46 47  1  0
 43 48  1  0
 47 48  2  0
  2 49  1  0
 49 25  1  0
 49 50  1  0
 50 51  1  0
 23 52  1  0
 51 52  1  0
 52 53  1  0
 49 54  1  0
 53 54  1  0
 14 56  1  0
 55 56  1  0
M  END
