x2705-x2754-x2908
     RDKit          3D

 49 54  0  0  0  0  0  0  0  0999 V2000
    7.1950   -1.7620   21.5850 C   0  0  2  0  0  0  0  0  0  0  0  0
    7.8630   -4.4680   21.1170 C   0  0  0  0  0  0  0  0  0  0  0  0
    4.9250   -3.0320   20.6880 O   0  0  0  0  0  0  0  0  0  0  0  0
    7.3020    1.8820   22.7710 N   0  0  0  0  0  0  0  0  0  0  0  0
    8.9750    0.6830   21.4190 O   0  0  0  0  0  0  0  0  0  0  0  0
    6.1280   -2.9120   21.1930 C   0  0  0  0  0  0  0  0  0  0  0  0
    6.6580   -0.2560   21.6030 C   0  0  1  0  0  0  0  0  0  0  0  0
    7.7030    0.8090   21.9560 C   0  0  0  0  0  0  0  0  0  0  0  0
   10.0640    1.9450   23.9080 C   0  0  0  0  0  0  0  0  0  0  0  0
    9.2060    1.2450   24.9390 C   0  0  0  0  0  0  0  0  0  0  0  0
    6.1010    4.1880   21.8640 C   0  0  0  0  0  0  0  0  0  0  0  0
   12.2460   -1.5630   23.1850 C   0  0  0  0  0  0  0  0  0  0  0  0
   12.6620   -0.1910   23.7260 C   0  0  0  0  0  0  0  0  0  0  0  0
   12.7330   -2.5630   24.2820 C   0  0  0  0  0  0  0  0  0  0  0  0
   12.8850   -1.8520   21.8200 C   0  0  0  0  0  0  0  0  0  0  0  0
    4.0090    1.3750   21.3820 C   0  0  0  0  0  0  0  0  0  0  0  0
    4.8020   -3.3130   25.4260 C   0  0  0  0  0  0  0  0  0  0  0  0
    3.5870   -3.0830   25.2470 O   0  0  0  0  0  0  0  0  0  0  0  0
    5.4340   -3.1500   26.6620 N   0  0  0  0  0  0  0  0  0  0  0  0
    5.0040   -2.3120   27.6280 C   0  0  0  0  0  0  0  0  0  0  0  0
    6.4010    0.4010   17.8780 N   0  0  0  0  0  0  0  0  0  0  0  0
    5.2650    1.1310   17.7810 C   0  0  0  0  0  0  0  0  0  0  0  0
    4.5450    1.4060   18.9190 C   0  0  0  0  0  0  0  0  0  0  0  0
    4.9120    0.9900   20.1830 C   0  0  0  0  0  0  0  0  0  0  0  0
    6.1290    0.2280   20.2660 C   0  0  0  0  0  0  0  0  0  0  0  0
    6.8110   -0.0340   19.0950 C   0  0  0  0  0  0  0  0  0  0  0  0
   10.0060   -1.1120   24.1680 N   0  0  0  0  0  0  0  0  0  0  0  0
    8.7300   -1.1780   23.7130 N   0  0  0  0  0  0  0  0  0  0  0  0
    8.6490   -1.6410   22.3030 C   0  0  0  0  0  0  0  0  0  0  0  0
    9.9830   -1.8490   21.9790 C   0  0  0  0  0  0  0  0  0  0  0  0
   10.7030   -1.5150   23.0950 C   0  0  0  0  0  0  0  0  0  0  0  0
    9.3580    3.1960   23.4100 C   0  0  0  0  0  0  0  0  0  0  0  0
   10.0180    4.4070   23.4960 C   0  0  0  0  0  0  0  0  0  0  0  0
    9.4660    5.5990   23.0700 C   0  0  0  0  0  0  0  0  0  0  0  0
    8.2000    5.4570   22.5530 C   0  0  0  0  0  0  0  0  0  0  0  0
    7.4790    4.2740   22.4380 C   0  0  0  0  0  0  0  0  0  0  0  0
    8.0570    3.1040   22.8770 C   0  0  0  0  0  0  0  0  0  0  0  0
    6.8840   -4.0290   21.7450 C   0  0  2  0  0  0  0  0  0  0  0  0
    7.2250   -2.8450   22.7520 C   0  0  2  0  0  0  0  0  0  0  0  0
    6.3070   -2.6710   23.7570 C   0  0  0  0  0  0  0  0  0  0  0  0
    5.6640   -3.7650   24.2500 C   0  0  2  0  0  0  0  0  0  0  0  0
    5.0270   -4.5660   23.3040 C   0  0  0  0  0  0  0  0  0  0  0  0
    5.8060   -5.0580   22.2410 C   0  0  0  0  0  0  0  0  0  0  0  0
    7.0580   -4.8050   27.6570 C   0  0  0  0  0  0  0  0  0  0  0  0
    8.3610   -5.2630   27.8270 C   0  0  0  0  0  0  0  0  0  0  0  0
    9.4050   -4.6060   27.2430 C   0  0  0  0  0  0  0  0  0  0  0  0
    9.0910   -3.4880   26.4950 C   0  0  0  0  0  0  0  0  0  0  0  0
    7.8630   -3.0070   26.3030 C   0  0  0  0  0  0  0  0  0  0  0  0
    6.7730   -3.6590   26.8850 C   0  0  0  0  0  0  0  0  0  0  0  0
  1  6  1  0
  3  6  2  0
  1  7  1  0
  4  8  1  0
  5  8  2  0
  7  8  1  6
  9 10  1  0
 12 13  1  0
 12 14  1  0
 12 15  1  0
 17 18  2  0
 17 19  1  0
 19 20  1  0
 21 22  2  0
 22 23  1  0
 16 24  1  0
 23 24  2  0
  7 25  1  0
 24 25  1  0
 21 26  1  0
 25 26  2  0
 27 28  1  0
  1 29  1  1
 28 29  1  0
 29 30  2  0
 12 31  1  0
 27 31  2  0
 30 31  1  0
  9 32  1  0
 32 33  2  0
 33 34  1  0
 34 35  2  0
 11 36  1  0
 35 36  1  0
  4 37  1  0
 32 37  1  0
 36 37  2  0
 38  2  1  6
  6 38  1  0
  1 39  1  0
 38 39  1  0
 39 40  1  1
 41 17  1  1
 40 41  1  0
 41 42  1  0
 38 43  1  0
 42 43  1  0
 44 45  2  0
 45 46  1  0
 46 47  2  0
 47 48  1  0
 19 49  1  0
 44 49  1  0
 48 49  2  0
M  END
