x2705-x1374-x2776-x2563
     RDKit          3D

 54 60  0  0  0  0  0  0  0  0999 V2000
    7.0650   -1.5860   21.0080 N   0  0  0  0  0  0  0  0  0  0  0  0
    7.3610   -4.8860   20.6690 C   0  0  0  0  0  0  0  0  0  0  0  0
    4.8950   -3.0100   20.9700 O   0  0  0  0  0  0  0  0  0  0  0  0
    7.1010   -3.8360   21.6420 C   0  0  2  0  0  0  0  0  0  0  0  0
    7.5330    1.8590   22.7610 N   0  0  0  0  0  0  0  0  0  0  0  0
    8.6260    1.1550   20.9730 O   0  0  0  0  0  0  0  0  0  0  0  0
    6.2290   -2.8120   21.2080 C   0  0  0  0  0  0  0  0  0  0  0  0
    6.8290   -0.2560   21.4760 C   0  0  1  0  0  0  0  0  0  0  0  0
    7.8740    0.7200   21.9350 C   0  0  2  0  0  0  0  0  0  0  0  0
   10.0520    2.1750   23.9510 C   0  0  0  0  0  0  0  0  0  0  0  0
    9.2510    1.3710   24.9450 C   0  0  0  0  0  0  0  0  0  0  0  0
    6.0480    4.2610   21.6830 C   0  0  0  0  0  0  0  0  0  0  0  0
   12.2260   -1.4620   23.3170 C   0  0  0  0  0  0  0  0  0  0  0  0
   12.8910   -0.2960   23.9820 C   0  0  0  0  0  0  0  0  0  0  0  0
   12.5120   -2.7290   24.0590 C   0  0  0  0  0  0  0  0  0  0  0  0
   12.8420   -1.5880   21.9290 C   0  0  0  0  0  0  0  0  0  0  0  0
   13.3610   -2.6370   25.2780 C   0  0  0  0  0  0  0  0  0  0  0  0
   10.8160    5.8500   23.8660 O   0  0  0  0  0  0  0  0  0  0  0  0
   11.8570    6.0790   24.8090 C   0  0  0  0  0  0  0  0  0  0  0  0
   10.3360   -4.3570   25.7380 C   0  0  0  0  0  0  0  0  0  0  0  0
    4.6150    0.7290   18.8530 C   0  0  2  0  0  0  0  0  0  0  0  0
    5.5900    1.6540   18.4080 C   0  0  0  0  0  0  0  0  0  0  0  0
    5.8630    1.4360   19.7870 C   0  0  2  0  0  0  0  0  0  0  0  0
    5.9380    0.1860   20.2700 C   0  0  0  0  0  0  0  0  0  0  0  0
    5.1040   -0.5480   19.5340 C   0  0  0  0  0  0  0  0  0  0  0  0
    9.7650   -1.3690   24.1960 N   0  0  0  0  0  0  0  0  0  0  0  0
    8.5400   -0.8270   23.8920 N   0  0  0  0  0  0  0  0  0  0  0  0
    8.8320   -0.1550   22.7610 C   0  0  0  0  0  0  0  0  0  0  0  0
   10.1220   -0.3080   22.4100 C   0  0  0  0  0  0  0  0  0  0  0  0
   10.7750   -1.0600   23.2870 C   0  0  0  0  0  0  0  0  0  0  0  0
    9.3940    3.4590   23.4560 C   0  0  0  0  0  0  0  0  0  0  0  0
   10.2530    4.5860   23.7430 C   0  0  0  0  0  0  0  0  0  0  0  0
    9.3730    5.5150   23.1770 C   0  0  0  0  0  0  0  0  0  0  0  0
    8.0550    5.4480   22.5220 C   0  0  0  0  0  0  0  0  0  0  0  0
    7.4230    4.2850   22.3610 C   0  0  0  0  0  0  0  0  0  0  0  0
    8.1050    3.2240   22.8420 C   0  0  0  0  0  0  0  0  0  0  0  0
    3.4080    1.3630   19.5800 C   0  0  0  0  0  0  0  0  0  0  0  0
    3.7810    2.0240   20.7020 C   0  0  0  0  0  0  0  0  0  0  0  0
    5.1100    2.0970   20.8560 C   0  0  0  0  0  0  0  0  0  0  0  0
    9.3080   -4.4370   24.6560 C   0  0  0  0  0  0  0  0  0  0  0  0
    9.2100   -3.4060   23.6040 C   0  0  0  0  0  0  0  0  0  0  0  0
    8.3190   -3.2920   22.5070 C   0  0  0  0  0  0  0  0  0  0  0  0
    7.5130   -4.5090   22.7150 C   0  0  0  0  0  0  0  0  0  0  0  0
    7.5610   -5.4530   23.6270 C   0  0  0  0  0  0  0  0  0  0  0  0
    8.4280   -5.4590   24.6050 C   0  0  0  0  0  0  0  0  0  0  0  0
    1.9270   -6.9150   24.9130 O   0  0  0  0  0  0  0  0  0  0  0  0
    4.3250   -8.0170   24.4750 O   0  0  0  0  0  0  0  0  0  0  0  0
    4.8040   -4.5770   23.9310 C   0  0  0  0  0  0  0  0  0  0  0  0
    4.5250   -5.1620   22.7180 C   0  0  2  0  0  0  0  0  0  0  0  0
    3.3500   -6.1510   22.7940 C   0  0  0  0  0  0  0  0  0  0  0  0
    3.4300   -6.7230   24.4320 S   0  0  0  0  0  0  0  0  0  0  0  0
    4.1880   -5.4300   25.1430 C   0  0  0  0  0  0  0  0  0  0  0  0
    6.4940   -6.4080   23.3130 C   0  0  0  0  0  0  0  0  0  0  0  0
    5.6650   -5.9360   22.1520 C   0  0  0  0  0  0  0  0  0  0  0  0
  4  2  1  6
  1  7  1  0
  3  7  2  0
  4  7  1  0
  8  1  1  6
  5  9  1  0
  9  6  1  6
  8  9  1  0
 10 11  1  0
 13 14  1  0
 13 15  1  0
 13 16  1  0
 15 17  1  0
 18 19  1  0
 21 22  1  6
 21 23  1  0
 23 22  1  6
  8 24  1  0
 23 24  1  0
 21 25  1  0
 24 25  2  0
 26 27  1  0
  9 28  1  0
 27 28  2  0
 28 29  1  0
 13 30  1  0
 26 30  1  0
 29 30  2  0
 10 31  1  0
 18 32  1  0
 31 32  2  0
 32 33  1  0
 33 34  2  0
 12 35  1  0
 34 35  1  0
  5 36  1  0
 31 36  1  0
 35 36  2  0
 21 37  1  0
 37 38  1  0
 23 39  1  0
 38 39  2  0
 20 40  1  0
 40 41  2  0
  4 42  1  0
 41 42  1  0
 42 43  2  0
 43 44  1  0
 40 45  1  0
 44 45  2  0
 48 49  1  0
 49 50  1  0
 51 46  1  0
 47 51  1  0
 50 51  1  0
 48 52  2  0
 51 52  1  0
 44 53  1  0
 49 54  1  1
 53 54  1  0
M  END
