x2705-x2764
     RDKit          3D

 34 36  0  0  0  0  0  0  0  0999 V2000
    6.8360   -1.5370   21.5100 N   0  0  0  0  0  0  0  0  0  0  0  0
    6.7800   -4.8930   20.4790 C   0  0  0  0  0  0  0  0  0  0  0  0
    4.7910   -2.9740   21.1870 O   0  0  0  0  0  0  0  0  0  0  0  0
    6.8070   -4.0280   21.7520 C   0  0  0  0  0  0  0  0  0  0  0  0
    7.2710    1.8090   23.0240 N   0  0  0  0  0  0  0  0  0  0  0  0
    8.6110    0.7080   21.5430 O   0  0  0  0  0  0  0  0  0  0  0  0
    6.0310   -2.7670   21.4600 C   0  0  0  0  0  0  0  0  0  0  0  0
    6.4320   -0.0670   21.6380 C   0  0  1  0  0  0  0  0  0  0  0  0
    7.5000    0.8030   22.0620 C   0  0  0  0  0  0  0  0  0  0  0  0
   10.0990    1.9510   23.8650 C   0  0  0  0  0  0  0  0  0  0  0  0
    9.4220    1.1600   24.7990 C   0  0  0  0  0  0  0  0  0  0  0  0
    7.9950    3.4000   21.4790 C   0  0  0  0  0  0  0  0  0  0  0  0
   12.4590   -1.4930   23.6190 C   0  0  0  0  0  0  0  0  0  0  0  0
   12.7860   -0.2230   24.0660 C   0  0  0  0  0  0  0  0  0  0  0  0
   12.9270   -2.5680   24.6210 C   0  0  0  0  0  0  0  0  0  0  0  0
   13.1560   -1.7540   22.2740 C   0  0  0  0  0  0  0  0  0  0  0  0
    8.2060   -1.7380   21.3990 N   0  0  0  0  0  0  0  0  0  0  0  0
    6.3780    0.5380   17.7940 N   0  0  0  0  0  0  0  0  0  0  0  0
    5.2020    1.4010   17.7210 C   0  0  0  0  0  0  0  0  0  0  0  0
    4.5400    1.6750   18.9120 C   0  0  0  0  0  0  0  0  0  0  0  0
    4.8880    1.2260   20.1630 C   0  0  0  0  0  0  0  0  0  0  0  0
    5.9990    0.4210   20.2900 C   0  0  0  0  0  0  0  0  0  0  0  0
    6.7470    0.0840   19.0010 C   0  0  0  0  0  0  0  0  0  0  0  0
   10.0290   -1.4420   24.2780 N   0  0  0  0  0  0  0  0  0  0  0  0
    8.7780   -1.5060   23.7220 N   0  0  0  0  0  0  0  0  0  0  0  0
    9.0530   -1.6380   22.3880 C   0  0  0  0  0  0  0  0  0  0  0  0
   10.4850   -1.6610   22.1210 C   0  0  0  0  0  0  0  0  0  0  0  0
   11.0070   -1.5340   23.3360 C   0  0  0  0  0  0  0  0  0  0  0  0
    9.2770    3.1640   23.4660 C   0  0  0  0  0  0  0  0  0  0  0  0
    9.9250    4.5450   23.6050 C   0  0  0  0  0  0  0  0  0  0  0  0
    9.1310    5.6220   23.2340 C   0  0  0  0  0  0  0  0  0  0  0  0
    7.7810    5.5240   23.6470 C   0  0  0  0  0  0  0  0  0  0  0  0
    7.1500    4.2700   23.5450 C   0  0  0  0  0  0  0  0  0  0  0  0
    7.9650    3.1130   22.9860 C   0  0  2  0  0  0  0  0  0  0  0  0
  2  4  1  0
  1  7  1  0
  3  7  2  0
  4  7  1  0
  1  8  1  0
  5  9  1  0
  6  9  2  0
  8  9  1  6
 10 11  1  0
 13 14  1  0
 13 15  1  0
 13 16  1  0
  1 17  1  0
 18 19  2  0
 19 20  1  0
 20 21  2  0
  8 22  1  0
 21 22  1  0
 18 23  1  0
 22 23  2  0
 24 25  1  0
 17 26  1  0
 25 26  2  0
 26 27  1  0
 13 28  1  0
 24 28  1  0
 27 28  2  0
 10 29  1  0
 29 30  2  0
 30 31  1  0
 31 32  1  0
 32 33  2  0
 34  5  1  0
 34 12  1  6
 29 34  1  0
 33 34  1  0
M  END
