x2703-x0771-x0755-x2705-x1077
     RDKit          3D

 64 72  0  0  0  0  0  0  0  0999 V2000
    6.7510   -1.3540   21.9500 N   0  0  0  0  0  0  0  0  0  0  0  0
    6.9860   -4.0550   20.0900 C   0  0  0  0  0  0  0  0  0  0  0  0
    4.7890   -3.0620   21.4460 O   0  0  0  0  0  0  0  0  0  0  0  0
    6.6080   -2.8240   19.9700 C   0  0  0  0  0  0  0  0  0  0  0  0
    7.5170    2.0470   22.9140 N   0  0  0  0  0  0  0  0  0  0  0  0
    8.7630    0.9040   21.3890 O   0  0  0  0  0  0  0  0  0  0  0  0
    5.9500   -2.4440   21.2040 C   0  0  0  0  0  0  0  0  0  0  0  0
    6.5140    0.0620   21.6220 C   0  0  1  0  0  0  0  0  0  0  0  0
    7.6750    1.0250   21.9820 C   0  0  0  0  0  0  0  0  0  0  0  0
   10.1650    2.0520   23.9690 C   0  0  0  0  0  0  0  0  0  0  0  0
    9.3200    1.2490   24.9990 C   0  0  0  0  0  0  0  0  0  0  0  0
    6.1970    4.4610   21.9510 C   0  0  0  0  0  0  0  0  0  0  0  0
   11.9850   -1.5750   23.2120 C   0  0  0  0  0  0  0  0  0  0  0  0
   12.5720   -0.4070   23.7350 C   0  0  0  0  0  0  0  0  0  0  0  0
   12.5970   -2.7310   23.9070 C   0  0  0  0  0  0  0  0  0  0  0  0
   12.6230   -1.6680   21.8160 C   0  0  0  0  0  0  0  0  0  0  0  0
   13.2220   -2.5200   25.2600 C   0  0  0  0  0  0  0  0  0  0  0  0
    4.2880   -6.6910   24.6280 O   0  0  0  0  0  0  0  0  0  0  0  0
    5.9580   -6.1170   26.3700 N   0  0  0  0  0  0  0  0  0  0  0  0
    5.1650   -5.6970   25.1420 S   0  0  2  0  0  0  0  0  0  0  0  0
    4.3160   -5.4930   27.4220 O   0  0  0  0  0  0  0  0  0  0  0  0
    6.1790   -4.0470   26.7890 N   0  0  0  0  0  0  0  0  0  0  0  0
    5.5320   -2.6340   25.8860 F   0  0  0  0  0  0  0  0  0  0  0  0
    5.1280   -4.4290   27.6470 S   0  0  0  0  0  0  0  0  0  0  0  0
    6.3520    0.4570   17.9450 N   0  0  0  0  0  0  0  0  0  0  0  0
    5.2400    1.1790   17.7300 C   0  0  0  0  0  0  0  0  0  0  0  0
    4.4180    1.5840   18.7920 C   0  0  0  0  0  0  0  0  0  0  0  0
    4.7840    1.2350   20.0700 C   0  0  0  0  0  0  0  0  0  0  0  0
    6.0520    0.4300   20.3170 C   0  0  0  0  0  0  0  0  0  0  0  0
    6.7820    0.0720   19.1760 C   0  0  0  0  0  0  0  0  0  0  0  0
    9.7760   -1.5080   24.2950 N   0  0  0  0  0  0  0  0  0  0  0  0
    8.2940   -1.4520   23.9480 N   0  0  0  0  0  0  0  0  0  0  0  0
    8.1120   -1.4440   22.6080 C   0  0  0  0  0  0  0  0  0  0  0  0
    9.4700   -1.4990   22.1470 C   0  0  0  0  0  0  0  0  0  0  0  0
   10.5020   -1.5330   23.1500 C   0  0  0  0  0  0  0  0  0  0  0  0
    9.4880    3.2850   23.4970 C   0  0  0  0  0  0  0  0  0  0  0  0
   10.1790    4.4790   23.5830 C   0  0  0  0  0  0  0  0  0  0  0  0
    9.5930    5.7790   23.1300 C   0  0  0  0  0  0  0  0  0  0  0  0
    8.3190    5.8680   22.5930 C   0  0  0  0  0  0  0  0  0  0  0  0
    7.5630    4.5280   22.5050 C   0  0  0  0  0  0  0  0  0  0  0  0
    8.2220    3.2580   22.9900 C   0  0  0  0  0  0  0  0  0  0  0  0
    6.9510   -5.1890   26.4020 C   0  0  2  0  0  0  0  0  0  0  0  0
    7.5160   -5.1960   25.1460 C   0  0  1  0  0  0  0  0  0  0  0  0
    8.7950   -5.7320   25.0020 C   0  0  0  0  0  0  0  0  0  0  0  0
    9.9920   -4.8180   25.2070 C   0  0  0  0  0  0  0  0  0  0  0  0
    9.5940   -3.9060   26.2630 N   0  0  0  0  0  0  0  0  0  0  0  0
    9.2280   -4.6470   27.4320 C   0  0  0  0  0  0  0  0  0  0  0  0
    7.9340   -5.4730   27.4120 C   0  0  0  0  0  0  0  0  0  0  0  0
    2.2220   -3.1670   25.7910 C   0  0  0  0  0  0  0  0  0  0  0  0
    1.5700   -4.2230   25.5270 C   0  0  0  0  0  0  0  0  0  0  0  0
    2.7240   -4.7000   25.4090 C   0  0  0  0  0  0  0  0  0  0  0  0
    4.0180   -4.4290   25.4730 C   0  0  0  0  0  0  0  0  0  0  0  0
    4.2440   -3.1050   25.7930 C   0  0  0  0  0  0  0  0  0  0  0  0
    3.2010   -2.1690   26.0420 C   0  0  0  0  0  0  0  0  0  0  0  0
    6.9870   -4.6630   21.3510 N   0  0  0  0  0  0  0  0  0  0  0  0
    5.9090   -5.0900   22.1890 C   0  0  1  0  0  0  0  0  0  0  0  0
    5.7910   -6.4610   22.4490 C   0  0  0  0  0  0  0  0  0  0  0  0
    6.4840   -5.4600   23.7190 S   0  0  0  0  0  0  0  0  0  0  0  0
    7.0610   -3.7000   23.0790 C   0  0  0  0  0  0  0  0  0  0  0  0
    7.9680   -4.2850   22.2170 C   0  0  0  0  0  0  0  0  0  0  0  0
    0.3170   -6.1400   24.9760 C   0  0  0  0  0  0  0  0  0  0  0  0
    0.2260   -4.7120   25.3960 C   0  0  0  0  0  0  0  0  0  0  0  0
    0.6510   -1.9300   26.1390 C   0  0  0  0  0  0  0  0  0  0  0  0
    2.0050   -1.3040   26.2760 C   0  0  0  0  0  0  0  0  0  0  0  0
  2  4  1  0
  1  7  1  0
  3  7  2  0
  4  7  1  0
  1  8  1  0
  5  9  1  0
  6  9  2  0
  8  9  1  6
 10 11  1  0
 13 14  1  0
 13 15  1  0
 13 16  1  0
 15 17  1  0
 18 20  2  0
 19 20  2  0
 21 24  2  0
 22 24  2  0
 25 26  2  0
 26 27  1  0
 27 28  2  0
  8 29  1  0
 28 29  1  0
 25 30  1  0
 29 30  2  0
 31 32  1  0
  1 33  1  0
 32 33  1  0
 33 34  2  0
 13 35  1  0
 31 35  2  0
 34 35  1  0
 10 36  1  0
 36 37  2  0
 37 38  1  0
 38 39  2  0
 12 40  1  0
 39 40  1  0
  5 41  1  0
 36 41  1  0
 40 41  2  0
 19 42  1  0
 42 22  1  1
 42 43  1  0
 43 44  1  1
 44 45  1  0
 45 46  1  0
 46 47  1  0
 42 48  1  0
 47 48  1  0
 49 50  2  0
 49 51  1  0
 50 51  1  0
 20 52  1  1
 51 52  2  0
 23 53  1  0
 52 53  1  0
 49 54  1  0
 53 54  2  0
  2 55  1  0
 55 56  1  0
 56 57  1  6
 20 58  1  0
 43 58  1  0
 56 58  1  0
 57 58  1  0
 58 59  1  0
 55 60  1  0
 59 60  1  0
 50 62  1  0
 61 62  1  0
 54 64  1  0
 63 64  1  0
M  END
