x2703-x2764
     RDKit          3D

 33 35  0  0  0  0  0  0  0  0999 V2000
    6.9190   -1.6680   21.7430 N   0  0  0  0  0  0  0  0  0  0  0  0
    6.7460   -4.9600   20.4670 C   0  0  0  0  0  0  0  0  0  0  0  0
    4.8390   -3.0180   21.1870 O   0  0  0  0  0  0  0  0  0  0  0  0
    6.8070   -4.1810   21.7940 C   0  0  0  0  0  0  0  0  0  0  0  0
    7.1590    1.7120   23.0540 N   0  0  0  0  0  0  0  0  0  0  0  0
    8.6010    0.7290   21.4650 O   0  0  0  0  0  0  0  0  0  0  0  0
    6.0900   -2.8800   21.5500 C   0  0  0  0  0  0  0  0  0  0  0  0
    6.3260   -0.2950   21.6050 C   0  0  1  0  0  0  0  0  0  0  0  0
    7.4940    0.7170   22.0010 C   0  0  0  0  0  0  0  0  0  0  0  0
    9.8880    1.9460   23.9730 C   0  0  0  0  0  0  0  0  0  0  0  0
    9.1650    1.1590   25.0780 C   0  0  0  0  0  0  0  0  0  0  0  0
    6.9200    3.6010   24.2930 C   0  0  0  0  0  0  0  0  0  0  0  0
   11.8510   -1.6540   24.6840 C   0  0  0  0  0  0  0  0  0  0  0  0
   12.6480   -2.7960   24.7690 C   0  0  0  0  0  0  0  0  0  0  0  0
   13.1930   -1.4990   23.9290 C   0  0  0  0  0  0  0  0  0  0  0  0
    6.3520    0.4230   17.9040 N   0  0  0  0  0  0  0  0  0  0  0  0
    5.2040    1.1230   17.7900 C   0  0  0  0  0  0  0  0  0  0  0  0
    4.3510    1.3880   18.8300 C   0  0  0  0  0  0  0  0  0  0  0  0
    4.7090    0.9140   20.0670 C   0  0  0  0  0  0  0  0  0  0  0  0
    5.8830    0.1950   20.2820 C   0  0  0  0  0  0  0  0  0  0  0  0
    6.6480   -0.0130   19.1400 C   0  0  0  0  0  0  0  0  0  0  0  0
   10.6070   -2.0140   22.3980 N   0  0  0  0  0  0  0  0  0  0  0  0
   10.5730   -1.7080   23.8270 C   0  0  0  0  0  0  0  0  0  0  0  0
    9.3370   -1.4140   24.5820 C   0  0  0  0  0  0  0  0  0  0  0  0
    8.2260   -1.4390   23.8320 C   0  0  0  0  0  0  0  0  0  0  0  0
    8.1710   -1.7080   22.4670 C   0  0  0  0  0  0  0  0  0  0  0  0
    9.3830   -1.9950   21.8140 C   0  0  0  0  0  0  0  0  0  0  0  0
    9.0820    3.1790   23.5630 C   0  0  0  0  0  0  0  0  0  0  0  0
    9.6790    4.4340   23.6310 C   0  0  0  0  0  0  0  0  0  0  0  0
    8.9640    5.5880   23.2710 C   0  0  0  0  0  0  0  0  0  0  0  0
    8.1360    5.4160   22.1300 C   0  0  0  0  0  0  0  0  0  0  0  0
    7.4470    4.0330   21.9740 C   0  0  0  0  0  0  0  0  0  0  0  0
    7.7380    3.0720   23.1260 C   0  0  1  0  0  0  0  0  0  0  0  0
  2  4  1  0
  1  7  1  0
  3  7  2  0
  4  7  1  0
  1  8  1  0
  5  9  1  0
  6  9  2  0
  8  9  1  6
 10 11  1  0
 13 14  1  0
 13 15  1  0
 16 17  2  0
 17 18  1  0
 18 19  2  0
  8 20  1  0
 19 20  1  0
 16 21  1  0
 20 21  2  0
 13 23  1  0
 22 23  2  0
 23 24  1  0
 24 25  2  0
  1 26  1  0
 25 26  1  0
 22 27  1  0
 26 27  2  0
 10 28  1  0
 28 29  2  0
 29 30  1  0
 30 31  1  0
 31 32  2  0
 33  5  1  0
 33 12  1  1
 28 33  1  0
 32 33  1  0
M  END
