x2705-x3117-x2754-x1458
     RDKit          3D

 55 62  0  0  0  0  0  0  0  0999 V2000
    7.1000   -1.3400   21.5140 C   0  0  2  0  0  0  0  0  0  0  0  0
    6.6880   -3.8260   19.8800 C   0  0  0  0  0  0  0  0  0  0  0  0
    4.8120   -2.9110   20.9280 O   0  0  0  0  0  0  0  0  0  0  0  0
    7.5630    2.0750   22.7570 N   0  0  0  0  0  0  0  0  0  0  0  0
    8.8640    1.3370   21.0100 O   0  0  0  0  0  0  0  0  0  0  0  0
    6.0930   -2.6420   21.2280 C   0  0  0  0  0  0  0  0  0  0  0  0
    6.7390    0.1750   21.3430 C   0  0  1  0  0  0  0  0  0  0  0  0
    7.8430    1.2380   21.6820 C   0  0  0  0  0  0  0  0  0  0  0  0
   10.1470    2.0890   23.9250 C   0  0  0  0  0  0  0  0  0  0  0  0
    9.4010    1.1860   24.9000 C   0  0  0  0  0  0  0  0  0  0  0  0
    6.2000    4.5800   21.8600 C   0  0  0  0  0  0  0  0  0  0  0  0
   12.1500   -1.4680   23.2000 C   0  0  0  0  0  0  0  0  0  0  0  0
   12.6560   -0.1270   23.8080 C   0  0  0  0  0  0  0  0  0  0  0  0
   12.5510   -2.7130   23.9950 C   0  0  0  0  0  0  0  0  0  0  0  0
   12.8450   -1.6700   21.8340 C   0  0  0  0  0  0  0  0  0  0  0  0
   13.3740   -2.5240   25.2480 C   0  0  0  0  0  0  0  0  0  0  0  0
    5.2240   -4.0350   25.2010 C   0  0  0  0  0  0  0  0  0  0  0  0
    6.1590   -6.1480   27.7790 C   0  0  0  0  0  0  0  0  0  0  0  0
    6.4310   -4.4950   25.3420 C   0  0  0  0  0  0  0  0  0  0  0  0
    6.5440   -1.6560   22.8170 C   0  0  0  0  0  0  0  0  0  0  0  0
    4.3580   -3.3250   26.1150 C   0  0  0  0  0  0  0  0  0  0  0  0
    3.1930   -3.0900   25.8560 O   0  0  0  0  0  0  0  0  0  0  0  0
    4.9850   -2.9420   27.2610 N   0  0  0  0  0  0  0  0  0  0  0  0
    4.6300   -1.7020   27.8740 C   0  0  0  0  0  0  0  0  0  0  0  0
    6.3670    0.5800   17.6820 N   0  0  0  0  0  0  0  0  0  0  0  0
    5.1810    1.4270   17.6920 C   0  0  0  0  0  0  0  0  0  0  0  0
    4.5390    1.8160   18.8340 C   0  0  0  0  0  0  0  0  0  0  0  0
    5.0340    1.4030   20.0610 C   0  0  0  0  0  0  0  0  0  0  0  0
    6.1660    0.6090   20.0550 C   0  0  0  0  0  0  0  0  0  0  0  0
    6.7890    0.2170   18.8850 C   0  0  0  0  0  0  0  0  0  0  0  0
    9.8400   -1.6160   24.1020 N   0  0  0  0  0  0  0  0  0  0  0  0
    8.5880   -1.5780   23.6110 N   0  0  0  0  0  0  0  0  0  0  0  0
    8.5050   -1.4140   22.2300 C   0  0  0  0  0  0  0  0  0  0  0  0
    9.8430   -1.3400   21.8650 C   0  0  0  0  0  0  0  0  0  0  0  0
   10.6260   -1.4740   23.0430 C   0  0  0  0  0  0  0  0  0  0  0  0
    9.4770    3.3840   23.4930 C   0  0  0  0  0  0  0  0  0  0  0  0
   10.1240    4.6110   23.6630 C   0  0  0  0  0  0  0  0  0  0  0  0
    9.5040    5.7920   23.2580 C   0  0  0  0  0  0  0  0  0  0  0  0
    8.2290    5.7640   22.6740 C   0  0  0  0  0  0  0  0  0  0  0  0
    7.5640    4.5220   22.4980 C   0  0  0  0  0  0  0  0  0  0  0  0
    8.1800    3.3500   22.9060 C   0  0  0  0  0  0  0  0  0  0  0  0
    6.8010   -3.9230   21.3850 C   0  0  2  0  0  0  0  0  0  0  0  0
    6.5300   -3.1580   22.7250 C   0  0  1  0  0  0  0  0  0  0  0  0
    7.5350   -3.8240   23.5970 C   0  0  0  0  0  0  0  0  0  0  0  0
    6.9350   -5.0800   24.0950 C   0  0  2  0  0  0  0  0  0  0  0  0
    5.8490   -5.4040   23.3010 C   0  0  2  0  0  0  0  0  0  0  0  0
    6.0700   -5.2590   21.7600 C   0  0  0  0  0  0  0  0  0  0  0  0
    5.0440   -3.3070   23.0410 C   0  0  0  0  0  0  0  0  0  0  0  0
    4.8230   -4.3740   23.8090 C   0  0  2  0  0  0  0  0  0  0  0  0
    7.3740   -5.3900   27.3830 C   0  0  0  0  0  0  0  0  0  0  0  0
    8.4880   -5.4940   28.1550 C   0  0  0  0  0  0  0  0  0  0  0  0
    9.6550   -4.8330   27.8460 C   0  0  0  0  0  0  0  0  0  0  0  0
    9.7210   -4.0160   26.7320 C   0  0  0  0  0  0  0  0  0  0  0  0
    8.6130   -3.9040   25.9480 C   0  0  0  0  0  0  0  0  0  0  0  0
    7.4570   -4.6100   26.2790 C   0  0  0  0  0  0  0  0  0  0  0  0
  1  6  1  0
  3  6  2  0
  1  7  1  0
  4  8  1  0
  5  8  2  0
  7  8  1  6
  9 10  1  0
 12 13  1  0
 12 14  1  0
 12 15  1  0
 14 16  1  0
 17 19  2  0
  1 20  1  0
 17 21  1  0
 21 22  2  0
 21 23  1  0
 23 24  1  0
 25 26  2  0
 26 27  1  0
 27 28  2  0
  7 29  1  0
 28 29  1  0
 25 30  1  0
 29 30  2  0
 31 32  1  0
  1 33  1  1
 32 33  1  0
 33 34  2  0
 12 35  1  0
 31 35  2  0
 34 35  1  0
  9 36  1  0
 36 37  2  0
 37 38  1  0
 38 39  2  0
 11 40  1  0
 39 40  1  0
  4 41  1  0
 36 41  1  0
 40 41  2  0
 42  2  1  6
  6 42  1  0
 43 20  1  6
 42 43  1  0
 43 44  1  0
 45 19  1  1
 44 45  1  0
 45 46  1  0
 42 47  1  0
 46 47  1  6
 43 48  1  0
 49 17  1  1
 46 49  1  0
 48 49  1  0
 18 50  1  0
 50 51  2  0
 51 52  1  0
 52 53  2  0
 53 54  1  0
 19 55  1  0
 50 55  1  0
 54 55  2  0
M  END
