x2703-x0981
     RDKit          3D

 45 47  0  0  0  0  0  0  0  0999 V2000
    6.8400   -1.8170   21.8270 N   0  0  0  0  0  0  0  0  0  0  0  0
    6.4540   -4.9740   20.2690 C   0  0  0  0  0  0  0  0  0  0  0  0
    4.7250   -2.9570   21.3170 O   0  0  0  0  0  0  0  0  0  0  0  0
    6.3890   -4.4990   21.7050 C   0  0  1  0  0  0  0  0  0  0  0  0
    7.4630    1.5500   23.0990 N   0  0  0  0  0  0  0  0  0  0  0  0
    8.0710    0.7750   21.4130 O   0  0  0  0  0  0  0  0  0  0  0  0
    5.9350   -3.0170   21.6300 C   0  0  0  0  0  0  0  0  0  0  0  0
    6.3800   -0.4680   21.6600 C   0  0  1  0  0  0  0  0  0  0  0  0
    7.2140    0.7090   22.2990 C   0  0  0  0  0  0  0  0  0  0  0  0
   10.2370    1.7770   24.0440 C   0  0  0  0  0  0  0  0  0  0  0  0
    9.3780    1.0020   24.8340 C   0  0  0  0  0  0  0  0  0  0  0  0
    6.0530    3.9340   21.9410 C   0  0  0  0  0  0  0  0  0  0  0  0
   12.3170   -1.9590   23.6210 C   0  0  0  0  0  0  0  0  0  0  0  0
   12.7220   -2.7740   24.8600 C   0  0  0  0  0  0  0  0  0  0  0  0
   12.7260   -1.0660   24.8220 C   0  0  0  0  0  0  0  0  0  0  0  0
    1.3060   -8.5210   21.6400 C   0  0  0  0  0  0  0  0  0  0  0  0
    2.8840   -6.9410   22.6370 N   0  0  0  0  0  0  0  0  0  0  0  0
    0.5490   -6.5030   22.3820 O   0  0  0  0  0  0  0  0  0  0  0  0
    1.4910   -7.2750   22.2360 C   0  0  0  0  0  0  0  0  0  0  0  0
    2.7600   -7.8910   26.3870 N   0  0  0  0  0  0  0  0  0  0  0  0
    3.9430   -8.2470   24.5530 O   0  0  0  0  0  0  0  0  0  0  0  0
    3.1370   -5.8940   23.4670 C   0  0  1  0  0  0  0  0  0  0  0  0
    5.4210   -5.3910   22.3750 N   0  0  0  0  0  0  0  0  0  0  0  0
    4.7970   -4.2250   24.1970 O   0  0  0  0  0  0  0  0  0  0  0  0
    3.4740   -6.1070   24.8150 C   0  0  0  0  0  0  0  0  0  0  0  0
    3.3940   -7.4410   25.2640 C   0  0  0  0  0  0  0  0  0  0  0  0
    4.5250   -5.1030   23.3810 C   0  0  0  0  0  0  0  0  0  0  0  0
    6.4460    0.3210   17.9540 N   0  0  0  0  0  0  0  0  0  0  0  0
    5.2970    1.0780   17.7800 C   0  0  0  0  0  0  0  0  0  0  0  0
    4.3950    1.3220   19.0260 C   0  0  0  0  0  0  0  0  0  0  0  0
    4.8270    0.7730   20.2130 C   0  0  0  0  0  0  0  0  0  0  0  0
    5.9900    0.0400   20.3290 C   0  0  0  0  0  0  0  0  0  0  0  0
    6.7280   -0.1480   19.1940 C   0  0  0  0  0  0  0  0  0  0  0  0
   10.5680   -2.0080   21.9710 N   0  0  0  0  0  0  0  0  0  0  0  0
   10.8410   -1.9290   23.2680 C   0  0  0  0  0  0  0  0  0  0  0  0
    9.8050   -1.8170   24.2260 C   0  0  0  0  0  0  0  0  0  0  0  0
    8.4450   -1.7890   23.7790 C   0  0  0  0  0  0  0  0  0  0  0  0
    8.1510   -1.8640   22.4160 C   0  0  0  0  0  0  0  0  0  0  0  0
    9.2600   -1.9700   21.6150 C   0  0  0  0  0  0  0  0  0  0  0  0
    9.4590    2.9380   23.4790 C   0  0  0  0  0  0  0  0  0  0  0  0
   10.0730    4.1860   23.4160 C   0  0  0  0  0  0  0  0  0  0  0  0
    9.4220    5.2920   22.9080 C   0  0  0  0  0  0  0  0  0  0  0  0
    8.1160    5.2160   22.4240 C   0  0  0  0  0  0  0  0  0  0  0  0
    7.4630    3.9720   22.4730 C   0  0  0  0  0  0  0  0  0  0  0  0
    8.1330    2.8320   23.0080 C   0  0  0  0  0  0  0  0  0  0  0  0
  4  2  1  6
  1  7  1  0
  3  7  2  0
  4  7  1  0
  1  8  1  0
  5  9  1  0
  6  9  2  0
  8  9  1  6
 10 11  1  0
 13 14  1  0
 13 15  1  0
 16 19  1  0
 17 19  1  0
 18 19  2  0
 17 22  1  0
  4 23  1  0
 22 25  1  1
 20 26  1  0
 21 26  2  0
 25 26  1  0
 22 27  1  0
 23 27  1  0
 24 27  2  0
 28 29  2  0
 29 30  1  0
 30 31  2  0
  8 32  1  0
 31 32  1  0
 28 33  1  0
 32 33  2  0
 13 35  1  0
 34 35  2  0
 35 36  1  0
 36 37  2  0
  1 38  1  0
 37 38  1  0
 34 39  1  0
 38 39  2  0
 10 40  1  0
 40 41  2  0
 41 42  1  0
 42 43  2  0
 12 44  1  0
 43 44  1  0
  5 45  1  0
 40 45  1  0
 44 45  2  0
M  END
