x2705-x0769-x0691
     RDKit          3D

 55 62  0  0  0  0  0  0  0  0999 V2000
    6.8150   -1.3610   22.0160 C   0  0  1  0  0  0  0  0  0  0  0  0
    7.2560   -3.8030   20.3290 C   0  0  0  0  0  0  0  0  0  0  0  0
    4.7600   -2.9470   21.2620 O   0  0  0  0  0  0  0  0  0  0  0  0
    6.5580   -2.8430   19.9350 C   0  0  0  0  0  0  0  0  0  0  0  0
    7.5240    2.0800   22.9240 N   0  0  0  0  0  0  0  0  0  0  0  0
    8.6130    1.2570   21.0790 O   0  0  0  0  0  0  0  0  0  0  0  0
    5.9560   -2.3720   21.0870 C   0  0  0  0  0  0  0  0  0  0  0  0
    6.4740    0.1510   21.7210 C   0  0  1  0  0  0  0  0  0  0  0  0
    7.6600    1.2050   21.8740 C   0  0  0  0  0  0  0  0  0  0  0  0
   10.1490    2.0660   23.9950 C   0  0  0  0  0  0  0  0  0  0  0  0
    9.2490    1.2560   24.9560 C   0  0  0  0  0  0  0  0  0  0  0  0
    6.2010    4.6140   21.9500 C   0  0  0  0  0  0  0  0  0  0  0  0
   12.1280   -1.5660   23.1370 C   0  0  0  0  0  0  0  0  0  0  0  0
   12.6470   -0.1690   23.5350 C   0  0  0  0  0  0  0  0  0  0  0  0
   12.6190   -2.5600   24.2120 C   0  0  0  0  0  0  0  0  0  0  0  0
   12.7900   -1.9200   21.7920 C   0  0  0  0  0  0  0  0  0  0  0  0
    5.5140   -5.1140   26.8420 N   0  0  0  0  0  0  0  0  0  0  0  0
    5.8200   -3.3380   25.0620 O   0  0  0  0  0  0  0  0  0  0  0  0
    5.0480   -4.4090   25.5280 S   0  0  2  0  0  0  0  0  0  0  0  0
    6.2150   -2.1630   23.1360 C   0  0  0  0  0  0  0  0  0  0  0  0
    5.7240   -3.5050   22.5740 C   0  0  0  0  0  0  0  0  0  0  0  0
    4.1370   -7.9940   24.7820 O   0  0  0  0  0  0  0  0  0  0  0  0
    5.4170   -6.5650   26.6700 N   0  0  0  0  0  0  0  0  0  0  0  0
    4.5530   -6.7780   25.4070 S   0  0  0  0  0  0  0  0  0  0  0  0
    6.3560    0.5420   17.8760 N   0  0  0  0  0  0  0  0  0  0  0  0
    5.2200    1.2910   17.7380 C   0  0  0  0  0  0  0  0  0  0  0  0
    4.3810    1.7260   18.7280 C   0  0  0  0  0  0  0  0  0  0  0  0
    4.7050    1.3820   20.1530 C   0  0  0  0  0  0  0  0  0  0  0  0
    5.9650    0.5640   20.3860 C   0  0  0  0  0  0  0  0  0  0  0  0
    6.7360    0.1820   19.1110 C   0  0  0  0  0  0  0  0  0  0  0  0
    9.9140   -1.6380   24.2380 N   0  0  0  0  0  0  0  0  0  0  0  0
    8.6090   -1.5880   23.9070 N   0  0  0  0  0  0  0  0  0  0  0  0
    8.3210   -1.4740   22.5520 C   0  0  0  0  0  0  0  0  0  0  0  0
    9.6420   -1.4650   22.0540 C   0  0  0  0  0  0  0  0  0  0  0  0
   10.5910   -1.5580   23.0970 C   0  0  0  0  0  0  0  0  0  0  0  0
    9.4930    3.3640   23.5340 C   0  0  0  0  0  0  0  0  0  0  0  0
   10.1480    4.5970   23.6200 C   0  0  0  0  0  0  0  0  0  0  0  0
    9.5420    5.7870   23.1830 C   0  0  0  0  0  0  0  0  0  0  0  0
    8.2500    5.7730   22.6400 C   0  0  0  0  0  0  0  0  0  0  0  0
    7.5790    4.5450   22.5480 C   0  0  0  0  0  0  0  0  0  0  0  0
    8.1820    3.3460   22.9930 C   0  0  0  0  0  0  0  0  0  0  0  0
    3.5520   -2.4400   25.9310 C   0  0  0  0  0  0  0  0  0  0  0  0
    3.5020   -3.7350   25.6200 C   0  0  0  0  0  0  0  0  0  0  0  0
    2.1440   -4.3040   25.4330 C   0  0  0  0  0  0  0  0  0  0  0  0
    1.1990   -3.1460   25.6770 C   0  0  0  0  0  0  0  0  0  0  0  0
    1.8810   -1.7830   26.0290 C   0  0  0  0  0  0  0  0  0  0  0  0
    3.3150   -1.3080   26.1930 C   0  0  0  0  0  0  0  0  0  0  0  0
    6.5720   -4.5260   21.6660 C   0  0  1  0  0  0  0  0  0  0  0  0
    5.5070   -5.6230   21.6010 C   0  0  0  0  0  0  0  0  0  0  0  0
    4.5210   -5.5680   22.8380 C   0  0  0  0  0  0  0  0  0  0  0  0
    5.2970   -5.6230   24.1990 C   0  0  1  0  0  0  0  0  0  0  0  0
    6.8450   -5.4260   24.0900 C   0  0  0  0  0  0  0  0  0  0  0  0
    7.4940   -5.1710   22.7190 C   0  0  0  0  0  0  0  0  0  0  0  0
    5.4190   -0.6860   26.6290 F   0  0  0  0  0  0  0  0  0  0  0  0
    4.1480   -0.1970   26.4910 C   0  0  0  0  0  0  0  0  0  0  0  0
  2  4  1  0
  1  7  1  0
  3  7  2  0
  4  7  1  0
  1  8  1  0
  5  9  1  0
  6  9  2  0
  8  9  1  6
 10 11  1  0
 13 14  1  0
 13 15  1  0
 13 16  1  0
 17 19  2  0
 18 19  2  0
  1 20  1  0
 20 21  1  0
 17 23  1  0
 22 24  2  0
 23 24  2  0
 25 26  2  0
 26 27  1  0
 27 28  2  0
  8 29  1  0
 28 29  1  0
 25 30  1  0
 29 30  2  0
 31 32  1  0
  1 33  1  6
 32 33  1  0
 33 34  2  0
 13 35  1  0
 31 35  2  0
 34 35  1  0
 10 36  1  0
 36 37  2  0
 37 38  1  0
 38 39  2  0
 12 40  1  0
 39 40  1  0
  5 41  1  0
 36 41  1  0
 40 41  2  0
 19 43  1  1
 42 43  1  0
 43 44  2  0
 44 45  1  0
 42 46  1  0
 45 46  2  0
 42 47  2  0
 46 47  1  0
 48  2  1  6
 48 21  1  0
 48 49  1  0
 49 50  1  0
 19 51  1  0
 24 51  1  0
 51 50  1  6
 51 52  1  0
 48 53  1  0
 52 53  1  0
 47 55  1  0
 54 55  1  0
M  END
