x2705-x2703
     RDKit          3D

 34 36  0  0  0  0  0  0  0  0999 V2000
    7.0510   -1.4640   21.6580 N   0  0  0  0  0  0  0  0  0  0  0  0
    6.9130   -4.5980   20.7090 C   0  0  0  0  0  0  0  0  0  0  0  0
    5.0640   -3.4240   21.3140 O   0  0  0  0  0  0  0  0  0  0  0  0
    6.9250   -3.4920   21.7790 C   0  0  0  0  0  0  0  0  0  0  0  0
    7.4320    1.9060   22.7910 N   0  0  0  0  0  0  0  0  0  0  0  0
    8.8630    0.8430   21.3840 O   0  0  0  0  0  0  0  0  0  0  0  0
    5.9020   -2.4050   21.4460 C   0  0  0  0  0  0  0  0  0  0  0  0
    6.7130    0.0120   21.5480 C   0  0  1  0  0  0  0  0  0  0  0  0
    7.7500    0.9130   21.8850 C   0  0  0  0  0  0  0  0  0  0  0  0
   10.2630    2.0450   23.9200 C   0  0  0  0  0  0  0  0  0  0  0  0
    9.4280    1.2490   24.7160 C   0  0  0  0  0  0  0  0  0  0  0  0
    6.0430    4.6150   21.8480 C   0  0  0  0  0  0  0  0  0  0  0  0
   11.9730   -1.5390   23.2170 C   0  0  0  0  0  0  0  0  0  0  0  0
   12.5070   -0.3470   23.7430 C   0  0  0  0  0  0  0  0  0  0  0  0
   12.4650   -2.7220   24.0680 C   0  0  0  0  0  0  0  0  0  0  0  0
   12.6580   -1.7510   21.8520 C   0  0  0  0  0  0  0  0  0  0  0  0
   13.3040   -2.4080   25.1420 C   0  0  0  0  0  0  0  0  0  0  0  0
    6.3820    0.4320   17.7940 N   0  0  0  0  0  0  0  0  0  0  0  0
    5.2110    1.2880   17.7640 C   0  0  0  0  0  0  0  0  0  0  0  0
    4.5510    1.6890   18.9100 C   0  0  0  0  0  0  0  0  0  0  0  0
    5.0110    1.2810   20.1400 C   0  0  0  0  0  0  0  0  0  0  0  0
    6.2440    0.3960   20.2130 C   0  0  0  0  0  0  0  0  0  0  0  0
    6.8070    0.0540   18.9980 C   0  0  0  0  0  0  0  0  0  0  0  0
    9.7330   -1.7320   24.2580 N   0  0  0  0  0  0  0  0  0  0  0  0
    8.3630   -1.7310   23.8850 N   0  0  0  0  0  0  0  0  0  0  0  0
    8.2920   -1.5690   22.5420 C   0  0  0  0  0  0  0  0  0  0  0  0
    9.5810   -1.4750   22.0570 C   0  0  0  0  0  0  0  0  0  0  0  0
   10.4500   -1.5740   23.1110 C   0  0  0  0  0  0  0  0  0  0  0  0
    9.5120    3.2680   23.4630 C   0  0  0  0  0  0  0  0  0  0  0  0
   10.1660    4.5150   23.5740 C   0  0  0  0  0  0  0  0  0  0  0  0
    9.6190    5.7660   23.1880 C   0  0  0  0  0  0  0  0  0  0  0  0
    8.3440    5.7030   22.6660 C   0  0  0  0  0  0  0  0  0  0  0  0
    7.4820    4.4750   22.4680 C   0  0  0  0  0  0  0  0  0  0  0  0
    8.0890    3.1630   22.8920 C   0  0  0  0  0  0  0  0  0  0  0  0
  2  4  1  0
  1  7  1  0
  3  7  2  0
  4  7  1  0
  1  8  1  0
  5  9  1  0
  6  9  2  0
  8  9  1  6
 10 11  1  0
 13 14  1  0
 13 15  1  0
 13 16  1  0
 15 17  1  0
 18 19  2  0
 19 20  1  0
 20 21  2  0
  8 22  1  0
 21 22  1  0
 18 23  1  0
 22 23  2  0
 24 25  1  0
  1 26  1  0
 25 26  2  0
 26 27  1  0
 13 28  1  0
 24 28  1  0
 27 28  2  0
 10 29  1  0
 29 30  2  0
 30 31  1  0
 31 32  2  0
 12 33  1  0
 32 33  1  0
  5 34  1  0
 29 34  1  0
 33 34  2  0
M  END
