x2705-x1380
     RDKit          3D

 47 52  0  0  0  0  0  0  0  0999 V2000
    7.0050   -1.5640   22.0200 C   0  0  1  0  0  0  0  0  0  0  0  0
    6.9340   -4.7730   20.4640 C   0  0  0  0  0  0  0  0  0  0  0  0
    5.1400   -3.4100   20.6540 O   0  0  0  0  0  0  0  0  0  0  0  0
    7.3750    1.9000   22.8650 N   0  0  0  0  0  0  0  0  0  0  0  0
    8.7580    0.8910   21.5070 O   0  0  0  0  0  0  0  0  0  0  0  0
    5.9040   -2.5600   21.2180 C   0  0  0  0  0  0  0  0  0  0  0  0
    6.6980   -0.0580   21.7850 C   0  0  1  0  0  0  0  0  0  0  0  0
    7.6660    0.9380   22.0650 C   0  0  0  0  0  0  0  0  0  0  0  0
   10.2420    1.9870   23.9940 C   0  0  0  0  0  0  0  0  0  0  0  0
    9.4170    1.3410   24.9260 C   0  0  0  0  0  0  0  0  0  0  0  0
    6.0370    4.7100   21.8100 C   0  0  0  0  0  0  0  0  0  0  0  0
   12.2710   -1.6210   23.1670 C   0  0  0  0  0  0  0  0  0  0  0  0
   12.7390   -0.3480   23.5400 C   0  0  0  0  0  0  0  0  0  0  0  0
   12.7610   -2.6310   24.2280 C   0  0  0  0  0  0  0  0  0  0  0  0
   12.8850   -1.9680   21.8020 C   0  0  0  0  0  0  0  0  0  0  0  0
    4.9670   -2.6130   25.6820 O   0  0  0  0  0  0  0  0  0  0  0  0
    6.0080   -3.2450   25.8220 C   0  0  0  0  0  0  0  0  0  0  0  0
    6.5370   -1.8430   23.2200 C   0  0  0  0  0  0  0  0  0  0  0  0
    6.3880    0.2500   17.8260 N   0  0  0  0  0  0  0  0  0  0  0  0
    5.1940    1.0860   17.7810 C   0  0  0  0  0  0  0  0  0  0  0  0
    4.5340    1.4910   18.9120 C   0  0  0  0  0  0  0  0  0  0  0  0
    5.0630    1.0730   20.2570 C   0  0  0  0  0  0  0  0  0  0  0  0
    6.1910    0.2930   20.4080 C   0  0  0  0  0  0  0  0  0  0  0  0
    6.8940   -0.1540   19.1320 C   0  0  0  0  0  0  0  0  0  0  0  0
   10.0330   -1.0930   24.1220 N   0  0  0  0  0  0  0  0  0  0  0  0
    8.7160   -1.0990   23.7880 N   0  0  0  0  0  0  0  0  0  0  0  0
    8.5680   -1.5800   22.4860 C   0  0  0  0  0  0  0  0  0  0  0  0
    9.8040   -1.9040   21.9760 C   0  0  0  0  0  0  0  0  0  0  0  0
   10.7590   -1.5410   23.1040 C   0  0  0  0  0  0  0  0  0  0  0  0
    9.5140    3.2610   23.4880 C   0  0  0  0  0  0  0  0  0  0  0  0
   10.2300    4.4780   23.5770 C   0  0  0  0  0  0  0  0  0  0  0  0
    9.6620    5.6570   23.1460 C   0  0  0  0  0  0  0  0  0  0  0  0
    8.2750    5.7700   22.5540 C   0  0  0  0  0  0  0  0  0  0  0  0
    7.4410    4.5090   22.4260 C   0  0  0  0  0  0  0  0  0  0  0  0
    8.0810    3.2030   22.9160 C   0  0  0  0  0  0  0  0  0  0  0  0
    6.6930   -3.8440   21.6750 C   0  0  1  0  0  0  0  0  0  0  0  0
    5.7380   -4.7650   22.3890 C   0  0  0  0  0  0  0  0  0  0  0  0
    5.2910   -4.4240   23.7790 C   0  0  0  0  0  0  0  0  0  0  0  0
    6.5230   -3.9640   24.5790 C   0  0  1  0  0  0  0  0  0  0  0  0
    7.4080   -2.9820   23.7990 C   0  0  1  0  0  0  0  0  0  0  0  0
    7.9240   -3.6530   22.5480 C   0  0  0  0  0  0  0  0  0  0  0  0
    7.9240   -4.0740   26.9610 C   0  0  0  0  0  0  0  0  0  0  0  0
    7.7270   -5.5140   27.4570 C   0  0  0  0  0  0  0  0  0  0  0  0
    7.1070   -5.5160   28.6940 C   0  0  0  0  0  0  0  0  0  0  0  0
    5.8890   -4.8610   28.6610 C   0  0  0  0  0  0  0  0  0  0  0  0
    5.9390   -3.4100   28.2140 C   0  0  0  0  0  0  0  0  0  0  0  0
    6.6600   -3.3320   26.9580 N   0  0  0  0  0  0  0  0  0  0  0  0
  1  6  1  0
  3  6  2  0
  1  7  1  0
  4  8  1  0
  5  8  2  0
  7  8  1  6
  9 10  1  0
 12 13  1  0
 12 14  1  0
 12 15  1  0
 16 17  2  0
  1 18  1  0
 19 20  2  0
 20 21  1  0
 21 22  2  0
  7 23  1  0
 22 23  1  0
 19 24  1  0
 23 24  2  0
 25 26  1  0
  1 27  1  1
 26 27  2  0
 27 28  1  0
 12 29  1  0
 25 29  1  0
 28 29  2  0
  9 30  1  0
 30 31  2  0
 31 32  1  0
 32 33  2  0
 11 34  1  0
 33 34  1  0
  4 35  1  0
 30 35  1  0
 34 35  2  0
 36  2  1  6
  6 36  1  0
 36 37  1  0
 37 38  1  0
 39 17  1  1
 38 39  1  0
 40 18  1  6
 39 40  1  0
 36 41  1  0
 40 41  1  0
 42 43  1  0
 43 44  1  0
 44 45  1  0
 45 46  1  0
 17 47  1  0
 42 47  1  0
 46 47  1  0
M  END
