x2703-x3124-x3117-x0771
     RDKit          3D

 52 57  0  0  0  0  0  0  0  0999 V2000
    6.8280   -1.8480   21.8210 C   0  0  1  0  0  0  0  0  0  0  0  0
    6.4330   -4.6800   20.7850 C   0  0  0  0  0  0  0  0  0  0  0  0
    5.0180   -3.3070   20.1670 O   0  0  0  0  0  0  0  0  0  0  0  0
    5.7810   -3.4490   21.4280 C   0  0  0  0  0  0  0  0  0  0  0  0
    7.3680    1.8710   22.8620 N   0  0  0  0  0  0  0  0  0  0  0  0
    8.8040    0.5730   21.4970 O   0  0  0  0  0  0  0  0  0  0  0  0
    5.9080   -2.4160   20.6090 C   0  0  0  0  0  0  0  0  0  0  0  0
    6.5030   -0.2620   21.7760 C   0  0  1  0  0  0  0  0  0  0  0  0
    7.7030    0.7290   22.0120 C   0  0  0  0  0  0  0  0  0  0  0  0
    9.9400    1.8110   24.0160 C   0  0  0  0  0  0  0  0  0  0  0  0
    9.0360    1.2300   25.0910 C   0  0  0  0  0  0  0  0  0  0  0  0
    6.1140    4.1890   21.8300 C   0  0  0  0  0  0  0  0  0  0  0  0
   12.3400   -1.7950   23.9140 C   0  0  0  0  0  0  0  0  0  0  0  0
   12.6780   -2.8900   24.8750 C   0  0  0  0  0  0  0  0  0  0  0  0
   12.6020   -0.4990   24.6530 C   0  0  0  0  0  0  0  0  0  0  0  0
   13.3450   -1.9560   22.8190 C   0  0  0  0  0  0  0  0  0  0  0  0
    0.4540   -1.5110   26.2690 C   0  0  0  0  0  0  0  0  0  0  0  0
    4.2270   -6.9580   25.6930 O   0  0  0  0  0  0  0  0  0  0  0  0
    5.9240   -5.3520   26.7280 O   0  0  0  0  0  0  0  0  0  0  0  0
    2.0340   -6.0720   25.0490 C   0  0  0  0  0  0  0  0  0  0  0  0
    4.8940   -5.6080   25.7440 S   0  0  0  0  0  0  0  0  0  0  0  0
    6.2890   -2.8840   22.8540 C   0  0  0  0  0  0  0  0  0  0  0  0
    6.3440    0.4460   18.0150 N   0  0  0  0  0  0  0  0  0  0  0  0
    5.1880    1.1440   17.9130 C   0  0  0  0  0  0  0  0  0  0  0  0
    4.4030    1.4080   19.0280 C   0  0  0  0  0  0  0  0  0  0  0  0
    4.8030    0.9690   20.2370 C   0  0  0  0  0  0  0  0  0  0  0  0
    5.9920    0.2490   20.4160 C   0  0  0  0  0  0  0  0  0  0  0  0
    6.6790    0.0360   19.2780 C   0  0  0  0  0  0  0  0  0  0  0  0
   10.7260   -2.1730   22.1020 N   0  0  0  0  0  0  0  0  0  0  0  0
   10.9310   -1.8250   23.3660 C   0  0  0  0  0  0  0  0  0  0  0  0
    9.8270   -1.4860   24.1380 C   0  0  0  0  0  0  0  0  0  0  0  0
    8.5250   -1.5030   23.6170 C   0  0  0  0  0  0  0  0  0  0  0  0
    8.3220   -1.8630   22.3100 C   0  0  0  0  0  0  0  0  0  0  0  0
    9.4470   -2.1880   21.6250 C   0  0  0  0  0  0  0  0  0  0  0  0
    9.4070    3.1270   23.5280 C   0  0  0  0  0  0  0  0  0  0  0  0
   10.1610    4.4380   23.6180 C   0  0  0  0  0  0  0  0  0  0  0  0
    9.4830    5.6630   23.0770 C   0  0  0  0  0  0  0  0  0  0  0  0
    8.0880    5.5010   22.4750 C   0  0  0  0  0  0  0  0  0  0  0  0
    7.4820    4.2430   22.4430 C   0  0  0  0  0  0  0  0  0  0  0  0
    8.1050    3.1060   22.9470 C   0  0  0  0  0  0  0  0  0  0  0  0
    1.5990   -2.4730   26.1540 C   0  0  0  0  0  0  0  0  0  0  0  0
    1.4430   -3.7590   25.7000 C   0  0  0  0  0  0  0  0  0  0  0  0
    2.4330   -4.7160   25.5710 C   0  0  0  0  0  0  0  0  0  0  0  0
    3.7280   -4.3890   25.9220 C   0  0  0  0  0  0  0  0  0  0  0  0
    4.0620   -2.9890   26.4370 C   0  0  0  0  0  0  0  0  0  0  0  0
    2.8740   -2.0670   26.5180 C   0  0  0  0  0  0  0  0  0  0  0  0
    7.0120   -5.2610   21.9130 N   0  0  0  0  0  0  0  0  0  0  0  0
    6.2340   -6.3500   22.3510 C   0  0  0  0  0  0  0  0  0  0  0  0
    5.0770   -6.0060   23.0490 C   0  0  0  0  0  0  0  0  0  0  0  0
    5.4640   -5.2110   24.2200 N   0  0  0  0  0  0  0  0  0  0  0  0
    6.8250   -4.6870   24.1610 C   0  0  0  0  0  0  0  0  0  0  0  0
    7.1320   -4.2530   22.9620 C   0  0  2  0  0  0  0  0  0  0  0  0
  2  4  1  0
  1  7  1  0
  3  7  2  0
  4  7  1  0
  1  8  1  0
  5  9  1  0
  6  9  2  0
  8  9  1  6
 10 11  1  0
 13 14  1  0
 13 15  1  0
 13 16  1  0
 18 21  2  0
 19 21  2  0
  1 22  1  0
 23 24  2  0
 24 25  1  0
 25 26  2  0
  8 27  1  0
 26 27  1  0
 23 28  1  0
 27 28  2  0
 13 30  1  0
 29 30  2  0
 30 31  1  0
 31 32  2  0
  1 33  1  6
 32 33  1  0
 29 34  1  0
 33 34  2  0
 10 35  1  0
 35 36  2  0
 36 37  1  0
 37 38  2  0
 12 39  1  0
 38 39  1  0
  5 40  1  0
 35 40  1  0
 39 40  2  0
 17 41  1  0
 41 42  2  0
 20 43  1  0
 42 43  1  0
 21 44  1  0
 43 44  2  0
 44 45  1  0
 41 46  1  0
 45 46  2  0
  2 47  1  0
 47 48  1  0
 48 49  1  0
 21 50  1  0
 49 50  1  0
 50 51  1  0
 52 22  1  6
 47 52  1  0
 51 52  1  0
M  END
