x2705-x1375
     RDKit          3D

 49 53  0  0  0  0  0  0  0  0999 V2000
    6.9960   -1.5550   21.7270 N   0  0  0  0  0  0  0  0  0  0  0  0
    6.8020   -4.9910   20.4870 C   0  0  0  0  0  0  0  0  0  0  0  0
    4.8150   -2.9290   21.0430 O   0  0  0  0  0  0  0  0  0  0  0  0
    6.5500   -4.1410   21.7450 C   0  0  2  0  0  0  0  0  0  0  0  0
    7.2840    1.8950   22.7520 N   0  0  0  0  0  0  0  0  0  0  0  0
    8.6950    0.6970   21.4590 O   0  0  0  0  0  0  0  0  0  0  0  0
    6.0650   -2.7660   21.4710 C   0  0  0  0  0  0  0  0  0  0  0  0
    6.5190   -0.1110   21.5760 C   0  0  1  0  0  0  0  0  0  0  0  0
    7.5650    0.8160   21.9230 C   0  0  0  0  0  0  0  0  0  0  0  0
   10.1270    1.9280   23.9470 C   0  0  0  0  0  0  0  0  0  0  0  0
    9.3560    1.2770   24.9140 C   0  0  0  0  0  0  0  0  0  0  0  0
    6.0770    4.5230   21.8390 C   0  0  0  0  0  0  0  0  0  0  0  0
   12.1020   -1.4690   23.3260 C   0  0  0  0  0  0  0  0  0  0  0  0
   12.5710   -0.2270   23.7850 C   0  0  0  0  0  0  0  0  0  0  0  0
   12.6670   -2.5470   24.2870 C   0  0  0  0  0  0  0  0  0  0  0  0
   12.7660   -1.7120   21.9570 C   0  0  0  0  0  0  0  0  0  0  0  0
   10.5400   -4.8430   26.3160 F   0  0  0  0  0  0  0  0  0  0  0  0
    6.3640    0.5190   17.6350 N   0  0  0  0  0  0  0  0  0  0  0  0
    5.1750    1.3190   17.6950 C   0  0  0  0  0  0  0  0  0  0  0  0
    4.5150    1.5700   18.8890 C   0  0  0  0  0  0  0  0  0  0  0  0
    4.9160    1.1130   20.1260 C   0  0  0  0  0  0  0  0  0  0  0  0
    6.0630    0.3370   20.2380 C   0  0  0  0  0  0  0  0  0  0  0  0
    6.7900    0.0330   18.9430 C   0  0  0  0  0  0  0  0  0  0  0  0
    9.7830   -1.3370   24.3480 N   0  0  0  0  0  0  0  0  0  0  0  0
    8.4080   -1.3670   23.9610 N   0  0  0  0  0  0  0  0  0  0  0  0
    8.2410   -1.5370   22.4680 C   0  0  0  0  0  0  0  0  0  0  0  0
    9.7130   -1.6020   22.1240 C   0  0  0  0  0  0  0  0  0  0  0  0
   10.5590   -1.4780   23.2220 C   0  0  0  0  0  0  0  0  0  0  0  0
    9.3860    3.1600   23.4640 C   0  0  0  0  0  0  0  0  0  0  0  0
   10.1130    4.5180   23.5870 C   0  0  0  0  0  0  0  0  0  0  0  0
    9.4310    5.6430   23.1360 C   0  0  0  0  0  0  0  0  0  0  0  0
    8.1440    5.6310   22.5810 C   0  0  0  0  0  0  0  0  0  0  0  0
    7.4480    4.4320   22.4510 C   0  0  0  0  0  0  0  0  0  0  0  0
    8.0960    3.1210   22.9200 C   0  0  0  0  0  0  0  0  0  0  0  0
    8.7400   -3.6290   23.2460 C   0  0  0  0  0  0  0  0  0  0  0  0
    9.8210   -3.6280   24.2770 C   0  0  0  0  0  0  0  0  0  0  0  0
    9.6620   -4.6880   25.3270 C   0  0  0  0  0  0  0  0  0  0  0  0
    8.4120   -5.5740   25.1430 C   0  0  0  0  0  0  0  0  0  0  0  0
    7.3600   -5.4330   23.9850 C   0  0  0  0  0  0  0  0  0  0  0  0
    7.5110   -4.3370   22.8940 C   0  0  0  0  0  0  0  0  0  0  0  0
    2.6400   -5.9120   24.4860 O   0  0  0  0  0  0  0  0  0  0  0  0
    3.9190   -8.0060   25.0160 O   0  0  0  0  0  0  0  0  0  0  0  0
    5.7660   -5.0680   24.4330 C   0  0  0  0  0  0  0  0  0  0  0  0
    5.2310   -5.1910   23.0120 C   0  0  0  0  0  0  0  0  0  0  0  0
    4.6270   -6.5830   22.9460 C   0  0  0  0  0  0  0  0  0  0  0  0
    3.8800   -6.6480   24.5330 S   0  0  0  0  0  0  0  0  0  0  0  0
    5.0710   -5.7820   25.3430 C   0  0  0  0  0  0  0  0  0  0  0  0
    8.2660   -4.6730   24.2150 C   0  0  0  0  0  0  0  0  0  0  0  0
    6.9910   -4.2200   24.7580 C   0  0  0  0  0  0  0  0  0  0  0  0
  4  2  1  6
  1  7  1  0
  3  7  2  0
  4  7  1  0
  1  8  1  0
  5  9  1  0
  6  9  2  0
  8  9  1  6
 10 11  1  0
 13 14  1  0
 13 15  1  0
 13 16  1  0
 18 19  2  0
 19 20  1  0
 20 21  2  0
  8 22  1  0
 21 22  1  0
 18 23  1  0
 22 23  2  0
 24 25  1  0
  1 26  1  0
 25 26  2  0
 26 27  1  0
 13 28  1  0
 24 28  1  0
 27 28  2  0
 10 29  1  0
 29 30  2  0
 30 31  1  0
 31 32  2  0
 12 33  1  0
 32 33  1  0
  5 34  1  0
 29 34  1  0
 33 34  2  0
 35 36  2  0
 17 37  1  0
 36 37  1  0
 37 38  2  0
 38 39  1  0
  4 40  1  0
 35 40  1  0
 39 40  2  0
 43 44  1  0
 44 45  1  0
 46 41  1  0
 42 46  1  0
 45 46  1  0
 43 47  2  0
 46 47  1  0
 35 48  1  0
 43 49  1  0
 48 49  1  0
M  END
