x2705-x2776-x0771-x2608
     RDKit          3D

 56 61  0  0  0  0  0  0  0  0999 V2000
    6.9490   -1.4590   21.9510 N   0  0  0  0  0  0  0  0  0  0  0  0
    6.8440   -4.0660   20.2940 C   0  0  0  0  0  0  0  0  0  0  0  0
    4.9620   -3.1800   21.1420 O   0  0  0  0  0  0  0  0  0  0  0  0
    6.8130   -2.7910   20.6970 C   0  0  0  0  0  0  0  0  0  0  0  0
    7.5420    1.9510   22.8270 N   0  0  0  0  0  0  0  0  0  0  0  0
    9.1000    0.7770   21.6200 O   0  0  0  0  0  0  0  0  0  0  0  0
    5.7520   -2.2850   21.6750 C   0  0  0  0  0  0  0  0  0  0  0  0
    6.8460   -0.0740   21.6510 C   0  0  1  0  0  0  0  0  0  0  0  0
    7.9480    0.9030   22.0270 C   0  0  0  0  0  0  0  0  0  0  0  0
   10.0540    2.1880   24.0560 C   0  0  0  0  0  0  0  0  0  0  0  0
    9.1390    1.4730   25.0330 C   0  0  0  0  0  0  0  0  0  0  0  0
    6.1240    4.4310   21.7480 C   0  0  0  0  0  0  0  0  0  0  0  0
   11.9680   -1.5700   23.3490 C   0  0  2  0  0  0  0  0  0  0  0  0
   12.4880   -0.2280   23.9510 C   0  0  0  0  0  0  0  0  0  0  0  0
   12.4610   -2.7560   24.1990 C   0  0  0  0  0  0  0  0  0  0  0  0
   12.5980   -1.7370   21.9520 C   0  0  0  0  0  0  0  0  0  0  0  0
   13.4460   -2.5050   25.3200 C   0  0  0  0  0  0  0  0  0  0  0  0
   10.7660    6.0340   23.9430 O   0  0  0  0  0  0  0  0  0  0  0  0
   11.8720    6.2530   24.7960 C   0  0  0  0  0  0  0  0  0  0  0  0
    0.5540   -1.4860   26.3030 C   0  0  0  0  0  0  0  0  0  0  0  0
    4.7740   -6.6500   25.5500 O   0  0  0  0  0  0  0  0  0  0  0  0
    6.2880   -4.8100   26.2710 O   0  0  0  0  0  0  0  0  0  0  0  0
    2.1020   -6.0380   24.8530 C   0  0  0  0  0  0  0  0  0  0  0  0
    5.2670   -5.2930   25.3880 S   0  0  0  0  0  0  0  0  0  0  0  0
    7.4940   -2.9350   23.8710 C   0  0  0  0  0  0  0  0  0  0  0  0
    6.3700    0.3010   17.8990 N   0  0  0  0  0  0  0  0  0  0  0  0
    5.2250    1.0200   17.8550 C   0  0  0  0  0  0  0  0  0  0  0  0
    4.5480    1.3970   18.9930 C   0  0  0  0  0  0  0  0  0  0  0  0
    5.0320    1.0570   20.2400 C   0  0  0  0  0  0  0  0  0  0  0  0
    6.2130    0.3260   20.3260 C   0  0  0  0  0  0  0  0  0  0  0  0
    6.8290   -0.0250   19.1280 C   0  0  0  0  0  0  0  0  0  0  0  0
    9.7060   -0.9340   24.2810 N   0  0  0  0  0  0  0  0  0  0  0  0
    8.3700   -0.8420   23.9100 N   0  0  0  0  0  0  0  0  0  0  0  0
    8.0860   -1.8500   22.9170 C   0  0  2  0  0  0  0  0  0  0  0  0
    9.4580   -2.2100   22.2950 C   0  0  0  0  0  0  0  0  0  0  0  0
   10.4220   -1.5770   23.2950 C   0  0  0  0  0  0  0  0  0  0  0  0
    9.3800    3.4560   23.5500 C   0  0  0  0  0  0  0  0  0  0  0  0
   10.2450    4.7610   23.8330 C   0  0  0  0  0  0  0  0  0  0  0  0
    9.3240    5.6610   23.2380 C   0  0  0  0  0  0  0  0  0  0  0  0
    8.0980    5.5520   22.6160 C   0  0  0  0  0  0  0  0  0  0  0  0
    7.4590    4.3660   22.4430 C   0  0  0  0  0  0  0  0  0  0  0  0
    8.1140    3.2730   22.9260 C   0  0  0  0  0  0  0  0  0  0  0  0
    1.6900   -2.4340   26.0650 C   0  0  0  0  0  0  0  0  0  0  0  0
    1.4640   -3.7330   25.5950 C   0  0  0  0  0  0  0  0  0  0  0  0
    2.4920   -4.6720   25.3570 C   0  0  0  0  0  0  0  0  0  0  0  0
    3.8090   -4.2850   25.6030 C   0  0  0  0  0  0  0  0  0  0  0  0
    4.0040   -2.9890   26.0660 C   0  0  0  0  0  0  0  0  0  0  0  0
    3.0060   -2.0470   26.3080 C   0  0  0  0  0  0  0  0  0  0  0  0
    6.9310   -5.1840   21.3110 N   0  0  0  0  0  0  0  0  0  0  0  0
    5.5910   -5.8000   21.6010 C   0  0  0  0  0  0  0  0  0  0  0  0
    5.4440   -6.2110   22.8790 C   0  0  0  0  0  0  0  0  0  0  0  0
    5.7250   -5.0740   23.8800 N   0  0  0  0  0  0  0  0  0  0  0  0
    6.7810   -4.1350   23.2590 C   0  0  2  0  0  0  0  0  0  0  0  0
    7.6820   -4.8790   22.5280 C   0  0  0  0  0  0  0  0  0  0  0  0
   12.4460    2.0420   23.0580 C   0  0  0  0  0  0  0  0  0  0  0  0
   12.9680    0.7650   22.9050 C   0  0  0  0  0  0  0  0  0  0  0  0
  2  4  1  0
  1  7  1  0
  3  7  2  0
  4  7  1  0
  1  8  1  0
  5  9  1  0
  6  9  2  0
  8  9  1  6
 10 11  1  0
 13 14  1  0
 13 15  1  0
 13 16  1  6
 15 17  1  0
 18 19  1  0
 21 24  2  0
 22 24  2  0
 26 27  2  0
 27 28  1  0
 28 29  2  0
  8 30  1  0
 29 30  1  0
 26 31  1  0
 30 31  2  0
 32 33  2  0
  1 34  1  0
 34 25  1  1
 34 33  1  0
 34 35  1  0
 13 36  1  0
 32 36  1  0
 35 36  2  0
 10 37  1  0
 18 38  1  0
 37 38  2  0
 38 39  1  0
 39 40  2  0
 12 41  1  0
 40 41  1  0
  5 42  1  0
 37 42  1  0
 41 42  2  0
 20 43  1  0
 43 44  2  0
 23 45  1  0
 44 45  1  0
 24 46  1  0
 45 46  2  0
 46 47  1  0
 43 48  1  0
 47 48  2  0
  2 49  1  0
 49 50  1  0
 50 51  1  0
 24 52  1  0
 51 52  1  0
 53 25  1  1
 52 53  1  0
 49 54  1  0
 53 54  1  0
 14 56  1  0
 55 56  1  0
M  END
