x2705-x2694
     RDKit          3D

 35 37  0  0  0  0  0  0  0  0999 V2000
    7.0540   -1.4420   21.6960 N   0  0  0  0  0  0  0  0  0  0  0  0
    6.7310   -4.3680   20.3170 C   0  0  0  0  0  0  0  0  0  0  0  0
    5.0310   -3.3690   21.3300 O   0  0  0  0  0  0  0  0  0  0  0  0
    6.8960   -3.4770   21.5630 C   0  0  0  0  0  0  0  0  0  0  0  0
    7.4460    1.9970   22.7020 N   0  0  0  0  0  0  0  0  0  0  0  0
    8.9160    0.8590   21.3860 O   0  0  0  0  0  0  0  0  0  0  0  0
    5.8730   -2.3570   21.4950 C   0  0  0  0  0  0  0  0  0  0  0  0
    6.7510    0.0440   21.5500 C   0  0  1  0  0  0  0  0  0  0  0  0
    7.7930    0.9580   21.8580 C   0  0  0  0  0  0  0  0  0  0  0  0
   10.2760    1.9160   23.9170 C   0  0  0  0  0  0  0  0  0  0  0  0
    9.4550    1.1850   24.7860 C   0  0  0  0  0  0  0  0  0  0  0  0
    6.2420    4.8260   21.9050 C   0  0  0  0  0  0  0  0  0  0  0  0
   12.0040   -1.5080   23.2190 C   0  0  0  0  0  0  0  0  0  0  0  0
   12.5140   -0.2290   23.5040 C   0  0  0  0  0  0  0  0  0  0  0  0
   12.5540   -2.4560   24.3190 C   0  0  0  0  0  0  0  0  0  0  0  0
   12.6820   -1.9520   21.9000 C   0  0  0  0  0  0  0  0  0  0  0  0
   10.7440    6.8010   23.7510 O   0  0  0  0  0  0  0  0  0  0  0  0
   11.6440    6.5950   24.5810 C   0  0  0  0  0  0  0  0  0  0  0  0
    6.3860    0.3940   17.8380 N   0  0  0  0  0  0  0  0  0  0  0  0
    5.2180    1.2570   17.7590 C   0  0  0  0  0  0  0  0  0  0  0  0
    4.5790    1.6790   18.9120 C   0  0  0  0  0  0  0  0  0  0  0  0
    5.0500    1.2930   20.1460 C   0  0  0  0  0  0  0  0  0  0  0  0
    6.2790    0.4010   20.2110 C   0  0  0  0  0  0  0  0  0  0  0  0
    6.8550    0.0090   19.0220 C   0  0  0  0  0  0  0  0  0  0  0  0
    9.7780   -1.8700   24.2630 N   0  0  0  0  0  0  0  0  0  0  0  0
    8.4160   -1.8650   23.8730 N   0  0  0  0  0  0  0  0  0  0  0  0
    8.3170   -1.5850   22.5580 C   0  0  0  0  0  0  0  0  0  0  0  0
    9.5980   -1.4050   22.0540 C   0  0  0  0  0  0  0  0  0  0  0  0
   10.4680   -1.5840   23.1220 C   0  0  0  0  0  0  0  0  0  0  0  0
    9.5820    3.1850   23.5150 C   0  0  0  0  0  0  0  0  0  0  0  0
   10.2500    4.3990   23.7080 C   0  0  0  0  0  0  0  0  0  0  0  0
    9.8440    5.7090   23.4310 C   0  0  0  0  0  0  0  0  0  0  0  0
    8.5790    5.7740   22.8640 C   0  0  0  0  0  0  0  0  0  0  0  0
    7.6570    4.5900   22.5540 C   0  0  0  0  0  0  0  0  0  0  0  0
    8.1740    3.2040   22.9030 C   0  0  0  0  0  0  0  0  0  0  0  0
  2  4  1  0
  1  7  1  0
  3  7  2  0
  4  7  1  0
  1  8  1  0
  5  9  1  0
  6  9  2  0
  8  9  1  6
 10 11  1  0
 13 14  1  0
 13 15  1  0
 13 16  1  0
 17 18  1  0
 19 20  2  0
 20 21  1  0
 21 22  2  0
  8 23  1  0
 22 23  1  0
 19 24  1  0
 23 24  2  0
 25 26  1  0
  1 27  1  0
 26 27  1  0
 27 28  2  0
 13 29  1  0
 25 29  2  0
 28 29  1  0
 10 30  1  0
 30 31  2  0
 17 32  1  0
 31 32  1  0
 32 33  2  0
 12 34  1  0
 33 34  1  0
  5 35  1  0
 30 35  1  0
 34 35  2  0
M  END
