x2703-x2705
     RDKit          3D

 34 36  0  0  0  0  0  0  0  0999 V2000
    6.9820   -1.5270   21.7750 N   0  0  0  0  0  0  0  0  0  0  0  0
    6.8840   -4.8820   20.5580 C   0  0  0  0  0  0  0  0  0  0  0  0
    4.8740   -3.0550   21.2390 O   0  0  0  0  0  0  0  0  0  0  0  0
    6.9700   -4.0460   21.8100 C   0  0  0  0  0  0  0  0  0  0  0  0
    7.4260    1.7660   23.1130 N   0  0  0  0  0  0  0  0  0  0  0  0
    8.0950    1.0560   21.4120 O   0  0  0  0  0  0  0  0  0  0  0  0
    6.1620   -2.7960   21.5820 C   0  0  0  0  0  0  0  0  0  0  0  0
    6.4290   -0.2430   21.6190 C   0  0  1  0  0  0  0  0  0  0  0  0
    7.2220    0.9470   22.2810 C   0  0  0  0  0  0  0  0  0  0  0  0
   10.2290    1.9150   23.9850 C   0  0  0  0  0  0  0  0  0  0  0  0
    9.4010    1.2040   24.8640 C   0  0  0  0  0  0  0  0  0  0  0  0
    6.1110    4.2250   22.0340 C   0  0  0  0  0  0  0  0  0  0  0  0
   12.0130   -1.3870   22.7970 C   0  0  0  0  0  0  0  0  0  0  0  0
   12.7200   -0.2600   23.5970 C   0  0  0  0  0  0  0  0  0  0  0  0
   12.8870   -1.8180   24.0130 C   0  0  0  0  0  0  0  0  0  0  0  0
   12.5630   -1.9200   21.6970 C   0  0  0  0  0  0  0  0  0  0  0  0
   12.2860   -2.8710   24.8710 C   0  0  0  0  0  0  0  0  0  0  0  0
    6.4410    0.4040   17.7800 N   0  0  0  0  0  0  0  0  0  0  0  0
    5.3350    1.1710   17.7690 C   0  0  0  0  0  0  0  0  0  0  0  0
    4.5850    1.4770   18.8990 C   0  0  0  0  0  0  0  0  0  0  0  0
    4.9720    0.9860   20.1470 C   0  0  0  0  0  0  0  0  0  0  0  0
    6.0590    0.2260   20.2430 C   0  0  0  0  0  0  0  0  0  0  0  0
    6.8350   -0.0840   18.9650 C   0  0  0  0  0  0  0  0  0  0  0  0
    9.8550   -1.8980   24.1190 N   0  0  0  0  0  0  0  0  0  0  0  0
    8.5020   -1.9190   23.7620 N   0  0  0  0  0  0  0  0  0  0  0  0
    8.2470   -1.6120   22.4530 C   0  0  0  0  0  0  0  0  0  0  0  0
    9.5340   -1.3790   21.9390 C   0  0  0  0  0  0  0  0  0  0  0  0
   10.4570   -1.5630   22.9710 C   0  0  0  0  0  0  0  0  0  0  0  0
    9.5030    3.1380   23.4660 C   0  0  0  0  0  0  0  0  0  0  0  0
   10.1860    4.3800   23.4210 C   0  0  0  0  0  0  0  0  0  0  0  0
    9.5390    5.5310   22.9390 C   0  0  0  0  0  0  0  0  0  0  0  0
    8.2150    5.3750   22.5090 C   0  0  0  0  0  0  0  0  0  0  0  0
    7.5260    4.1630   22.5460 C   0  0  0  0  0  0  0  0  0  0  0  0
    8.1640    3.0050   23.0420 C   0  0  0  0  0  0  0  0  0  0  0  0
  2  4  1  0
  1  7  1  0
  3  7  2  0
  4  7  1  0
  1  8  1  0
  5  9  1  0
  6  9  2  0
  8  9  1  6
 10 11  1  0
 13 14  1  0
 13 15  1  0
 13 16  1  0
 15 17  1  0
 18 19  2  0
 19 20  1  0
 20 21  2  0
  8 22  1  0
 21 22  1  0
 18 23  1  0
 22 23  2  0
 24 25  1  0
  1 26  1  0
 25 26  1  0
 26 27  2  0
 13 28  1  0
 24 28  2  0
 27 28  1  0
 10 29  1  0
 29 30  2  0
 30 31  1  0
 31 32  2  0
 12 33  1  0
 32 33  1  0
  5 34  1  0
 29 34  1  0
 33 34  2  0
M  END
