x2703-x1348-x2694-x2754
     RDKit          3D

 57 62  0  0  0  0  0  0  0  0999 V2000
    6.9420   -1.2820   21.7710 N   0  0  0  0  0  0  0  0  0  0  0  0
    6.8110   -4.2280   19.9310 C   0  0  0  0  0  0  0  0  0  0  0  0
    4.8190   -2.9420   21.1740 O   0  0  0  0  0  0  0  0  0  0  0  0
    7.0760   -3.6840   21.2700 C   0  0  1  0  0  0  0  0  0  0  0  0
    7.5290    2.3300   22.6170 N   0  0  0  0  0  0  0  0  0  0  0  0
    8.8670    1.2380   21.1560 O   0  0  0  0  0  0  0  0  0  0  0  0
    6.1370   -2.5470   21.3980 C   0  0  0  0  0  0  0  0  0  0  0  0
   11.1170    6.6220   23.9380 O   0  0  0  0  0  0  0  0  0  0  0  0
    6.6490    0.1480   21.5380 C   0  0  1  0  0  0  0  0  0  0  0  0
    7.7970    1.2680   21.7640 C   0  0  0  0  0  0  0  0  0  0  0  0
   10.1280    1.7980   24.0230 C   0  0  0  0  0  0  0  0  0  0  0  0
   11.8880    6.5220   25.1290 C   0  0  0  0  0  0  0  0  0  0  0  0
   12.0520   -1.5180   23.1560 C   0  0  0  0  0  0  0  0  0  0  0  0
   12.6080   -0.1880   23.7150 C   0  0  0  0  0  0  0  0  0  0  0  0
   12.7220   -1.7630   21.7870 C   0  0  0  0  0  0  0  0  0  0  0  0
   12.4960   -2.7210   24.0110 C   0  0  0  0  0  0  0  0  0  0  0  0
    9.2560    1.1600   25.0860 C   0  0  0  0  0  0  0  0  0  0  0  0
   13.2890   -2.4940   25.2780 C   0  0  0  0  0  0  0  0  0  0  0  0
    7.6710   -4.2820   26.6990 O   0  0  0  0  0  0  0  0  0  0  0  0
    4.6330   -2.6830   25.7280 C   0  0  0  0  0  0  0  0  0  0  0  0
    3.5050   -2.9220   25.3170 O   0  0  0  0  0  0  0  0  0  0  0  0
    5.1850   -2.9000   27.0310 N   0  0  0  0  0  0  0  0  0  0  0  0
    5.0850   -1.9750   28.0250 C   0  0  0  0  0  0  0  0  0  0  0  0
    6.3520    0.5210   17.8490 N   0  0  0  0  0  0  0  0  0  0  0  0
    5.1700    1.3450   17.7430 C   0  0  0  0  0  0  0  0  0  0  0  0
    4.4980    1.7230   18.8810 C   0  0  0  0  0  0  0  0  0  0  0  0
    4.9850    1.3140   20.1080 C   0  0  0  0  0  0  0  0  0  0  0  0
    6.1310    0.5340   20.2020 C   0  0  0  0  0  0  0  0  0  0  0  0
    6.7740    0.1570   19.0240 C   0  0  0  0  0  0  0  0  0  0  0  0
    8.3890   -1.6340   23.8110 N   0  0  0  0  0  0  0  0  0  0  0  0
    9.7600   -1.6840   24.1350 O   0  0  0  0  0  0  0  0  0  0  0  0
   10.5240   -1.5040   23.0210 C   0  0  0  0  0  0  0  0  0  0  0  0
    9.5680   -1.3450   22.0110 C   0  0  0  0  0  0  0  0  0  0  0  0
    8.2370   -1.4200   22.4780 C   0  0  0  0  0  0  0  0  0  0  0  0
    9.6710    3.1790   23.6050 C   0  0  0  0  0  0  0  0  0  0  0  0
   10.5600    4.2330   23.9280 C   0  0  0  0  0  0  0  0  0  0  0  0
   10.3030    5.5670   23.6360 C   0  0  0  0  0  0  0  0  0  0  0  0
    9.0020    5.9610   22.9120 C   0  0  0  0  0  0  0  0  0  0  0  0
    8.0330    4.8210   22.5500 C   0  0  0  0  0  0  0  0  0  0  0  0
    8.4440    3.4000   22.9440 C   0  0  0  0  0  0  0  0  0  0  0  0
    6.6600   -5.0950   25.9840 C   0  0  0  0  0  0  0  0  0  0  0  0
    6.4240   -5.0430   24.4990 C   0  0  0  0  0  0  0  0  0  0  0  0
    5.3010   -5.9360   23.8830 C   0  0  0  0  0  0  0  0  0  0  0  0
    4.3880   -6.8900   24.6700 C   0  0  0  0  0  0  0  0  0  0  0  0
    4.7230   -6.8640   26.2260 C   0  0  0  0  0  0  0  0  0  0  0  0
    5.8520   -5.9580   26.7820 C   0  0  0  0  0  0  0  0  0  0  0  0
    7.0750   -4.2840   23.5940 N   0  0  0  0  0  0  0  0  0  0  0  0
    6.5790   -4.4780   22.4240 C   0  0  0  0  0  0  0  0  0  0  0  0
    5.3060   -5.6210   22.2020 S   0  0  0  0  0  0  0  0  0  0  0  0
    7.1090   -4.3340   27.9260 C   0  0  0  0  0  0  0  0  0  0  0  0
    8.2480   -5.0500   28.1190 C   0  0  0  0  0  0  0  0  0  0  0  0
    9.0740   -4.9880   27.0120 C   0  0  0  0  0  0  0  0  0  0  0  0
    8.6230   -4.2160   25.9060 C   0  0  0  0  0  0  0  0  0  0  0  0
    7.3470   -3.5310   25.8960 C   0  0  0  0  0  0  0  0  0  0  0  0
    6.4590   -3.5770   27.0000 C   0  0  0  0  0  0  0  0  0  0  0  0
    5.9370    3.8890   21.6380 C   0  0  0  0  0  0  0  0  0  0  0  0
    6.1420    2.8210   22.5800 C   0  0  0  0  0  0  0  0  0  0  0  0
  4  2  1  6
  1  7  1  0
  3  7  2  0
  4  7  1  0
  1  9  1  0
  5 10  1  0
  6 10  2  0
  9 10  1  6
  8 12  1  0
 13 14  1  0
 13 15  1  0
 13 16  1  0
 11 17  1  0
 16 18  1  0
 20 21  2  0
 20 22  1  0
 22 23  1  0
 24 25  2  0
 25 26  1  0
 26 27  2  0
  9 28  1  0
 27 28  1  0
 24 29  1  0
 28 29  2  0
 30 31  1  0
 13 32  1  0
 31 32  1  0
 32 33  2  0
  1 34  1  0
 30 34  2  0
 33 34  1  0
 11 35  1  0
 35 36  2  0
  8 37  1  0
 36 37  1  0
 37 38  2  0
 38 39  1  0
  5 40  1  0
 35 40  1  0
 39 40  2  0
 19 41  1  0
 41 42  2  0
 42 43  1  0
 43 44  2  0
 44 45  1  0
 41 46  1  0
 45 46  2  0
 42 47  1  0
  4 48  1  0
 47 48  2  0
 43 49  1  0
 48 49  1  0
 19 50  1  0
 50 51  2  0
 51 52  1  0
 52 53  2  0
 53 54  1  0
 22 55  1  0
 50 55  1  0
 54 55  2  0
  5 57  1  0
 56 57  1  0
M  END
