x2705-x2193-x1384-x2694
     RDKit          3D

 54 60  0  0  0  0  0  0  0  0999 V2000
    6.7280   -1.6270   22.3340 C   0  0  2  0  0  0  0  0  0  0  0  0
    6.7440   -4.1510   19.9940 C   0  0  0  0  0  0  0  0  0  0  0  0
    4.8490   -3.1240   21.3170 O   0  0  0  0  0  0  0  0  0  0  0  0
    6.8620   -4.1050   21.4680 C   0  0  0  0  0  0  0  0  0  0  0  0
    7.6250    1.7790   22.8590 N   0  0  0  0  0  0  0  0  0  0  0  0
    8.6900    0.7540   20.9640 O   0  0  0  0  0  0  0  0  0  0  0  0
    6.1250   -2.9510   21.6810 C   0  0  0  0  0  0  0  0  0  0  0  0
    6.5060   -0.1530   21.6730 C   0  0  1  0  0  0  0  0  0  0  0  0
    7.7230    0.8090   21.8040 C   0  0  0  0  0  0  0  0  0  0  0  0
   10.0600    1.4880   24.4130 C   0  0  0  0  0  0  0  0  0  0  0  0
    9.1200    1.0620   25.5690 C   0  0  0  0  0  0  0  0  0  0  0  0
    6.8290    4.6130   21.6680 C   0  0  0  0  0  0  0  0  0  0  0  0
   11.9710   -1.5380   22.6070 C   0  0  0  0  0  0  0  0  0  0  0  0
   12.3860   -0.1120   22.9170 C   0  0  0  0  0  0  0  0  0  0  0  0
   12.7030   -2.3430   23.7150 C   0  0  0  0  0  0  0  0  0  0  0  0
   12.5800   -1.8920   21.2700 C   0  0  0  0  0  0  0  0  0  0  0  0
   10.8230    6.2630   23.9030 O   0  0  0  0  0  0  0  0  0  0  0  0
   12.0750    6.0400   24.5790 C   0  0  0  0  0  0  0  0  0  0  0  0
    6.1510    0.4000   17.8560 N   0  0  0  0  0  0  0  0  0  0  0  0
    4.8760    0.7260   17.8160 C   0  0  0  0  0  0  0  0  0  0  0  0
    4.0680    0.7960   18.9560 C   0  0  0  0  0  0  0  0  0  0  0  0
    4.5920    0.5270   20.1510 C   0  0  0  0  0  0  0  0  0  0  0  0
    5.9120    0.1630   20.2880 C   0  0  0  0  0  0  0  0  0  0  0  0
    6.6560    0.0970   19.0980 C   0  0  0  0  0  0  0  0  0  0  0  0
   10.0550   -2.1610   23.8790 N   0  0  0  0  0  0  0  0  0  0  0  0
    8.6850   -2.3180   24.0800 N   0  0  0  0  0  0  0  0  0  0  0  0
    8.2710   -1.7490   22.7250 C   0  0  0  0  0  0  0  0  0  0  0  0
    9.3310   -1.4010   22.0000 C   0  0  0  0  0  0  0  0  0  0  0  0
   10.4710   -1.6870   22.7920 C   0  0  0  0  0  0  0  0  0  0  0  0
    9.5970    2.8280   23.8470 C   0  0  0  0  0  0  0  0  0  0  0  0
   10.4370    3.9210   24.1360 C   0  0  0  0  0  0  0  0  0  0  0  0
   10.0910    5.1440   23.6420 C   0  0  0  0  0  0  0  0  0  0  0  0
    8.9640    5.3270   22.8390 C   0  0  0  0  0  0  0  0  0  0  0  0
    8.0450    4.2760   22.4990 C   0  0  0  0  0  0  0  0  0  0  0  0
    8.4430    2.9740   23.0880 C   0  0  0  0  0  0  0  0  0  0  0  0
    9.3290   -6.9020   26.3210 N   0  0  0  0  0  0  0  0  0  0  0  0
    8.9180   -6.0100   27.3860 C   0  0  0  0  0  0  0  0  0  0  0  0
    9.0240   -4.5260   27.0270 C   0  0  0  0  0  0  0  0  0  0  0  0
    8.8860   -4.1640   25.5840 N   0  0  0  0  0  0  0  0  0  0  0  0
    9.7890   -5.0220   24.9370 C   0  0  0  0  0  0  0  0  0  0  0  0
    9.3860   -6.3240   24.9880 C   0  0  0  0  0  0  0  0  0  0  0  0
    9.3530   -2.8090   25.2770 C   0  0  0  0  0  0  0  0  0  0  0  0
    6.7220   -3.9450   23.9140 O   0  0  0  0  0  0  0  0  0  0  0  0
    3.5610   -3.3940   25.3890 C   0  0  2  0  0  0  0  0  0  0  0  0
    3.8950   -3.3790   24.0570 C   0  0  2  0  0  0  0  0  0  0  0  0
    4.7370   -4.1040   24.6470 C   0  0  2  0  0  0  0  0  0  0  0  0
    4.4400   -5.6240   24.9080 C   0  0  0  0  0  0  0  0  0  0  0  0
    2.8060   -5.5660   25.2000 C   0  0  0  0  0  0  0  0  0  0  0  0
    2.3650   -4.2930   25.5420 C   0  0  0  0  0  0  0  0  0  0  0  0
    5.9790   -3.1070   24.8170 C   0  0  2  0  0  0  0  0  0  0  0  0
    4.4880   -3.1870   25.1930 C   0  0  0  0  0  0  0  0  0  0  0  0
    4.1410   -2.1300   25.8710 C   0  0  0  0  0  0  0  0  0  0  0  0
    5.7930   -1.6390   23.5890 C   0  0  0  0  0  0  0  0  0  0  0  0
    4.2680   -2.0470   23.4210 C   0  0  0  0  0  0  0  0  0  0  0  0
  2  4  1  0
  1  7  1  0
  3  7  2  0
  4  7  1  0
  1  8  1  0
  5  9  1  0
  6  9  2  0
  8  9  1  6
 10 11  1  0
 13 14  1  0
 13 15  1  0
 13 16  1  0
 17 18  1  0
 19 20  2  0
 20 21  1  0
 21 22  2  0
  8 23  1  0
 22 23  1  0
 19 24  1  0
 23 24  2  0
 25 26  1  0
  1 27  1  0
 26 27  1  0
 27 28  2  0
 13 29  1  0
 25 29  2  0
 28 29  1  0
 10 30  1  0
 30 31  2  0
 17 32  1  0
 31 32  1  0
 32 33  2  0
 12 34  1  0
 33 34  1  0
  5 35  1  0
 30 35  1  0
 34 35  2  0
 36 37  1  0
 37 38  1  0
 38 39  1  0
 39 40  1  0
 36 41  1  0
 40 41  1  0
 26 42  1  0
 39 42  1  0
 44 45  1  0
 44 46  1  0
 45 46  1  0
 46 47  1  6
 47 48  1  0
 44 49  1  6
 48 49  2  0
 50 43  1  6
 46 50  1  0
 50 51  1  0
 44 52  1  0
 51 52  2  0
  1 53  1  1
 45 54  1  1
 53 54  1  0
M  END
