x2705-x3117-x2694-x0771
     RDKit          3D

 54 59  0  0  0  0  0  0  0  0999 V2000
    6.8360   -1.4610   22.0590 C   0  0  1  0  0  0  0  0  0  0  0  0
    6.8380   -3.9200   19.9980 C   0  0  0  0  0  0  0  0  0  0  0  0
    4.8200   -3.0740   21.3700 O   0  0  0  0  0  0  0  0  0  0  0  0
    6.5570   -2.6580   19.9150 C   0  0  0  0  0  0  0  0  0  0  0  0
    7.4230    2.1510   22.9180 N   0  0  0  0  0  0  0  0  0  0  0  0
    8.6980    1.3190   21.0960 O   0  0  0  0  0  0  0  0  0  0  0  0
    5.9530   -2.4310   21.1510 C   0  0  0  0  0  0  0  0  0  0  0  0
    6.4600    0.0940   21.7470 C   0  0  1  0  0  0  0  0  0  0  0  0
    7.5510    1.1950   21.9460 C   0  0  0  0  0  0  0  0  0  0  0  0
   10.0900    1.8820   24.0400 C   0  0  0  0  0  0  0  0  0  0  0  0
    9.2290    1.1440   25.0590 C   0  0  0  0  0  0  0  0  0  0  0  0
    6.3370    4.7330   22.0440 C   0  0  0  0  0  0  0  0  0  0  0  0
   12.1000   -1.5880   23.1010 C   0  0  0  0  0  0  0  0  0  0  0  0
   12.6460   -0.2690   23.6710 C   0  0  0  0  0  0  0  0  0  0  0  0
   12.5790   -2.7730   23.9450 C   0  0  0  0  0  0  0  0  0  0  0  0
   12.7550   -1.8030   21.7210 C   0  0  0  0  0  0  0  0  0  0  0  0
   10.6800    6.8060   23.6430 O   0  0  0  0  0  0  0  0  0  0  0  0
   11.5860    6.6460   24.4840 C   0  0  0  0  0  0  0  0  0  0  0  0
   13.3890   -2.4650   25.1900 C   0  0  0  0  0  0  0  0  0  0  0  0
    0.6150   -1.3720   26.2580 C   0  0  0  0  0  0  0  0  0  0  0  0
    4.4330   -6.9690   25.5270 O   0  0  0  0  0  0  0  0  0  0  0  0
    6.0570   -5.3610   26.5370 O   0  0  0  0  0  0  0  0  0  0  0  0
    1.8710   -6.1620   24.8570 C   0  0  0  0  0  0  0  0  0  0  0  0
    5.0900   -5.6790   25.5130 S   0  0  0  0  0  0  0  0  0  0  0  0
    6.3600   -2.3940   23.1400 C   0  0  0  0  0  0  0  0  0  0  0  0
    6.4160    0.3900   17.9630 N   0  0  0  0  0  0  0  0  0  0  0  0
    5.1940    1.1770   17.7870 C   0  0  0  0  0  0  0  0  0  0  0  0
    4.4660    1.5300   18.9100 C   0  0  0  0  0  0  0  0  0  0  0  0
    4.8710    1.1700   20.1870 C   0  0  0  0  0  0  0  0  0  0  0  0
    6.0470    0.4290   20.3430 C   0  0  0  0  0  0  0  0  0  0  0  0
    6.7740    0.0650   19.1910 C   0  0  0  0  0  0  0  0  0  0  0  0
    9.8900   -1.3530   24.1530 N   0  0  0  0  0  0  0  0  0  0  0  0
    8.5570   -1.3240   23.8930 N   0  0  0  0  0  0  0  0  0  0  0  0
    8.3460   -1.4940   22.5250 C   0  0  0  0  0  0  0  0  0  0  0  0
    9.6460   -1.6320   22.0040 C   0  0  0  0  0  0  0  0  0  0  0  0
   10.5750   -1.5340   23.0310 C   0  0  0  0  0  0  0  0  0  0  0  0
    9.5230    3.2050   23.6240 C   0  0  0  0  0  0  0  0  0  0  0  0
   10.3300    4.5270   23.7850 C   0  0  0  0  0  0  0  0  0  0  0  0
    9.8250    5.7440   23.4100 C   0  0  0  0  0  0  0  0  0  0  0  0
    8.5190    5.7980   22.8390 C   0  0  0  0  0  0  0  0  0  0  0  0
    7.7080    4.5890   22.6590 C   0  0  0  0  0  0  0  0  0  0  0  0
    8.2340    3.3050   23.0730 C   0  0  0  0  0  0  0  0  0  0  0  0
    1.6910   -2.3940   26.0710 C   0  0  0  0  0  0  0  0  0  0  0  0
    1.3710   -3.6670   25.6020 C   0  0  0  0  0  0  0  0  0  0  0  0
    2.3640   -4.8340   25.3640 C   0  0  0  0  0  0  0  0  0  0  0  0
    3.8020   -4.4650   25.7000 C   0  0  0  0  0  0  0  0  0  0  0  0
    4.0880   -3.1700   26.1640 C   0  0  0  0  0  0  0  0  0  0  0  0
    3.0310   -2.0690   26.3700 C   0  0  0  0  0  0  0  0  0  0  0  0
    6.8830   -4.5180   21.4280 N   0  0  0  0  0  0  0  0  0  0  0  0
    6.0420   -5.7180   21.6570 C   0  0  0  0  0  0  0  0  0  0  0  0
    5.1050   -5.5980   22.6930 C   0  0  0  0  0  0  0  0  0  0  0  0
    5.8230   -5.4210   23.9920 N   0  0  0  0  0  0  0  0  0  0  0  0
    7.0030   -4.5490   23.9040 C   0  0  0  0  0  0  0  0  0  0  0  0
    7.0330   -3.7800   22.7820 C   0  0  2  0  0  0  0  0  0  0  0  0
  2  4  1  0
  1  7  1  0
  3  7  2  0
  4  7  1  0
  1  8  1  0
  5  9  1  0
  6  9  2  0
  8  9  1  6
 10 11  1  0
 13 14  1  0
 13 15  1  0
 13 16  1  0
 17 18  1  0
 15 19  1  0
 21 24  2  0
 22 24  2  0
  1 25  1  0
 26 27  2  0
 27 28  1  0
 28 29  2  0
  8 30  1  0
 29 30  1  0
 26 31  1  0
 30 31  2  0
 32 33  1  0
  1 34  1  6
 33 34  2  0
 34 35  1  0
 13 36  1  0
 32 36  1  0
 35 36  2  0
 10 37  1  0
 37 38  2  0
 17 39  1  0
 38 39  1  0
 39 40  2  0
 12 41  1  0
 40 41  1  0
  5 42  1  0
 37 42  1  0
 41 42  2  0
 20 43  1  0
 43 44  2  0
 23 45  1  0
 44 45  1  0
 24 46  1  0
 45 46  2  0
 46 47  1  0
 43 48  1  0
 47 48  2  0
  2 49  1  0
 49 50  1  0
 50 51  1  0
 24 52  1  0
 51 52  1  0
 52 53  1  0
 54 25  1  1
 49 54  1  0
 53 54  1  0
M  END
