x2703-x2776-x3115-x3124-x0734
     RDKit          3D

 51 56  0  0  0  0  0  0  0  0999 V2000
    6.9320   -1.6520   21.4710 C   0  0  1  0  0  0  0  0  0  0  0  0
    5.6970   -2.9810   19.3790 O   0  0  0  0  0  0  0  0  0  0  0  0
    7.5660    1.9960   22.7560 N   0  0  0  0  0  0  0  0  0  0  0  0
    8.7730    1.1480   20.9830 O   0  0  0  0  0  0  0  0  0  0  0  0
    6.5190   -2.8300   20.3940 C   0  0  0  0  0  0  0  0  0  0  0  0
   10.8180    6.5230   23.7000 O   0  0  0  0  0  0  0  0  0  0  0  0
    6.6490   -0.0480   21.2950 C   0  0  1  0  0  0  0  0  0  0  0  0
   13.1280   -2.3870   24.0970 O   0  0  0  0  0  0  0  0  0  0  0  0
    7.7630    1.0520   21.6590 C   0  0  0  0  0  0  0  0  0  0  0  0
   10.1760    1.7170   24.0780 C   0  0  0  0  0  0  0  0  0  0  0  0
   11.6670    6.3950   24.5920 C   0  0  0  0  0  0  0  0  0  0  0  0
   12.2390   -1.2950   24.2920 C   0  0  1  0  0  0  0  0  0  0  0  0
   12.8810   -0.0850   23.6090 C   0  0  0  0  0  0  0  0  0  0  0  0
   13.2210   -3.1340   25.2740 C   0  0  0  0  0  0  0  0  0  0  0  0
    8.2410    6.9120   22.3440 C   0  0  0  0  0  0  0  0  0  0  0  0
    9.2010    1.1330   25.0880 C   0  0  0  0  0  0  0  0  0  0  0  0
    6.6100    4.5920   21.8980 C   0  0  0  0  0  0  0  0  0  0  0  0
    4.9800   -4.6480   26.0910 N   0  0  0  0  0  0  0  0  0  0  0  0
    4.1570   -5.4210   25.5820 O   0  0  0  0  0  0  0  0  0  0  0  0
    4.7050   -3.6710   26.7960 O   0  0  0  0  0  0  0  0  0  0  0  0
    6.3360   -2.2750   22.7090 C   0  0  0  0  0  0  0  0  0  0  0  0
    6.3370    0.6720   17.6080 N   0  0  0  0  0  0  0  0  0  0  0  0
    5.2280    1.4300   17.6620 C   0  0  0  0  0  0  0  0  0  0  0  0
    4.5140    1.7430   18.7940 C   0  0  0  0  0  0  0  0  0  0  0  0
    4.9810    1.2470   19.9750 C   0  0  0  0  0  0  0  0  0  0  0  0
    6.1250    0.4650   19.9960 C   0  0  0  0  0  0  0  0  0  0  0  0
    6.7670    0.1950   18.7920 C   0  0  0  0  0  0  0  0  0  0  0  0
    9.6310    3.0370   23.6110 C   0  0  0  0  0  0  0  0  0  0  0  0
   10.4230    4.1890   23.8290 C   0  0  0  0  0  0  0  0  0  0  0  0
    9.9680    5.4670   23.4260 C   0  0  0  0  0  0  0  0  0  0  0  0
    8.7280    5.5570   22.7980 C   0  0  0  0  0  0  0  0  0  0  0  0
    7.9450    4.4200   22.5810 C   0  0  0  0  0  0  0  0  0  0  0  0
    8.3800    3.1390   22.9850 C   0  0  0  0  0  0  0  0  0  0  0  0
    9.5860   -2.1360   21.6530 C   0  0  0  0  0  0  0  0  0  0  0  0
   10.8450   -2.0430   22.3350 C   0  0  0  0  0  0  0  0  0  0  0  0
   10.9260   -1.4350   23.5850 C   0  0  0  0  0  0  0  0  0  0  0  0
    9.7320   -0.9630   24.1070 C   0  0  0  0  0  0  0  0  0  0  0  0
    8.5340   -1.0610   23.4130 C   0  0  0  0  0  0  0  0  0  0  0  0
    8.3750   -1.6340   22.1500 C   0  0  0  0  0  0  0  0  0  0  0  0
    6.3200   -5.0880   26.0810 C   0  0  0  0  0  0  0  0  0  0  0  0
    7.1410   -5.0280   24.8200 C   0  0  0  0  0  0  0  0  0  0  0  0
    8.5850   -5.5420   24.9050 C   0  0  0  0  0  0  0  0  0  0  0  0
    9.1280   -6.0840   26.2390 C   0  0  0  0  0  0  0  0  0  0  0  0
    8.3410   -6.1100   27.3890 C   0  0  0  0  0  0  0  0  0  0  0  0
    6.8910   -5.6170   27.3820 C   0  0  0  0  0  0  0  0  0  0  0  0
    7.3100   -4.0470   20.5480 C   0  0  2  0  0  0  0  0  0  0  0  0
    6.6130   -5.3490   21.1210 C   0  0  0  0  0  0  0  0  0  0  0  0
    5.9620   -5.3550   22.5660 C   0  0  0  0  0  0  0  0  0  0  0  0
    6.6550   -4.5280   23.6120 N   0  0  0  0  0  0  0  0  0  0  0  0
    7.3530   -3.3660   23.0550 C   0  0  1  0  0  0  0  0  0  0  0  0
    8.2310   -3.7820   21.8240 C   0  0  0  0  0  0  0  0  0  0  0  0
  1  5  1  0
  2  5  2  0
  1  7  1  0
  3  9  1  0
  4  9  2  0
  7  9  1  6
  6 11  1  0
  8 12  1  0
 12 13  1  6
  8 14  1  0
 10 16  1  0
 18 19  2  0
 18 20  1  0
  1 21  1  0
 22 23  2  0
 23 24  1  0
 24 25  2  0
  7 26  1  0
 25 26  1  0
 22 27  1  0
 26 27  2  0
 10 28  1  0
 28 29  2  0
  6 30  1  0
 29 30  1  0
 15 31  1  0
 30 31  2  0
 17 32  1  0
 31 32  1  0
  3 33  1  0
 28 33  1  0
 32 33  2  0
 34 35  2  0
 12 36  1  0
 35 36  1  0
 36 37  2  0
 37 38  1  0
  1 39  1  1
 34 39  1  0
 38 39  2  0
 18 40  1  0
 40 41  2  0
 41 42  1  0
 42 43  2  0
 43 44  1  0
 40 45  1  0
 44 45  2  0
 46  5  1  0
 46 47  1  1
 47 48  1  0
 41 49  1  0
 48 49  1  0
 50 21  1  6
 49 50  1  0
 46 51  1  0
 50 51  1  0
M  CHG  2  18   1  20  -1
M  END
