x2705-x1311-x2776-x0395
     RDKit          3D

 51 55  0  0  0  0  0  0  0  0999 V2000
    7.0700   -1.5710   21.7370 N   0  0  0  0  0  0  0  0  0  0  0  0
    6.8040   -4.9630   20.7090 C   0  0  0  0  0  0  0  0  0  0  0  0
    4.8620   -2.9920   21.1110 O   0  0  0  0  0  0  0  0  0  0  0  0
    6.6470   -4.1940   21.8380 C   0  0  2  0  0  0  0  0  0  0  0  0
    7.5320    1.8630   22.8120 N   0  0  0  0  0  0  0  0  0  0  0  0
    8.7470    1.2140   21.0680 O   0  0  0  0  0  0  0  0  0  0  0  0
    6.1480   -2.8150   21.5320 C   0  0  0  0  0  0  0  0  0  0  0  0
    6.7330   -0.1700   21.4860 C   0  0  1  0  0  0  0  0  0  0  0  0
    7.7620    0.9890   21.7640 C   0  0  0  0  0  0  0  0  0  0  0  0
   10.1290    2.1930   23.9910 C   0  0  0  0  0  0  0  0  0  0  0  0
    9.2940    1.2950   24.9630 C   0  0  0  0  0  0  0  0  0  0  0  0
    6.0710    4.1650   21.8420 C   0  0  0  0  0  0  0  0  0  0  0  0
   12.0250   -1.5040   23.4220 C   0  0  0  0  0  0  0  0  0  0  0  0
   12.4070   -0.2170   24.1760 C   0  0  0  0  0  0  0  0  0  0  0  0
   12.6360   -2.7210   24.1400 C   0  0  0  0  0  0  0  0  0  0  0  0
   12.7420   -1.4130   22.0660 C   0  0  0  0  0  0  0  0  0  0  0  0
   13.4420   -2.5340   25.4280 C   0  0  0  0  0  0  0  0  0  0  0  0
   10.6560    5.9600   23.8890 O   0  0  0  0  0  0  0  0  0  0  0  0
   11.8160    6.0860   24.7090 C   0  0  0  0  0  0  0  0  0  0  0  0
    9.6980   -5.7030   26.6060 C   0  0  0  0  0  0  0  0  0  0  0  0
    6.3770    0.3350   17.7960 N   0  0  0  0  0  0  0  0  0  0  0  0
    5.1940    1.1670   17.7660 C   0  0  0  0  0  0  0  0  0  0  0  0
    4.4450    1.5850   18.8320 C   0  0  0  0  0  0  0  0  0  0  0  0
    4.9300    1.1300   20.1760 C   0  0  0  0  0  0  0  0  0  0  0  0
    6.1890    0.2640   20.1700 C   0  0  0  0  0  0  0  0  0  0  0  0
    6.8520   -0.1040   19.0070 C   0  0  0  0  0  0  0  0  0  0  0  0
    9.6250   -1.7040   24.3590 N   0  0  0  0  0  0  0  0  0  0  0  0
    8.3320   -1.7210   23.8630 N   0  0  0  0  0  0  0  0  0  0  0  0
    8.3010   -1.6140   22.5170 C   0  0  0  0  0  0  0  0  0  0  0  0
    9.6330   -1.5280   22.1400 C   0  0  0  0  0  0  0  0  0  0  0  0
   10.4810   -1.5760   23.2590 C   0  0  0  0  0  0  0  0  0  0  0  0
    9.3990    3.4350   23.5290 C   0  0  0  0  0  0  0  0  0  0  0  0
   10.1650    4.6570   23.7780 C   0  0  0  0  0  0  0  0  0  0  0  0
    9.2470    5.6270   23.2300 C   0  0  0  0  0  0  0  0  0  0  0  0
    8.0030    5.4880   22.6390 C   0  0  0  0  0  0  0  0  0  0  0  0
    7.4250    4.2740   22.4880 C   0  0  0  0  0  0  0  0  0  0  0  0
    8.1170    3.1930   22.9400 C   0  0  0  0  0  0  0  0  0  0  0  0
    8.8260   -4.9300   23.0200 C   0  0  0  0  0  0  0  0  0  0  0  0
    9.5470   -5.2960   24.1630 C   0  0  0  0  0  0  0  0  0  0  0  0
    8.9540   -5.3010   25.3930 C   0  0  0  0  0  0  0  0  0  0  0  0
    7.6340   -4.9340   25.4900 C   0  0  0  0  0  0  0  0  0  0  0  0
    6.9310   -4.5810   24.3460 C   0  0  0  0  0  0  0  0  0  0  0  0
    7.5170   -4.5730   23.0750 C   0  0  0  0  0  0  0  0  0  0  0  0
    4.2660   -7.6520   25.1720 O   0  0  0  0  0  0  0  0  0  0  0  0
    2.2570   -6.0650   24.9590 O   0  0  0  0  0  0  0  0  0  0  0  0
    4.6900   -6.5120   22.2050 C   0  0  0  0  0  0  0  0  0  0  0  0
    5.5430   -5.9350   22.9690 C   0  0  0  0  0  0  0  0  0  0  0  0
    4.6710   -5.1690   23.6630 C   0  0  1  0  0  0  0  0  0  0  0  0
    3.5320   -6.5780   24.5370 S   0  0  0  0  0  0  0  0  0  0  0  0
    3.5610   -6.8810   22.8070 C   0  0  0  0  0  0  0  0  0  0  0  0
    5.4900   -4.2370   24.5200 C   0  0  0  0  0  0  0  0  0  0  0  0
  4  2  1  6
  1  7  1  0
  3  7  2  0
  4  7  1  0
  1  8  1  0
  5  9  1  0
  6  9  2  0
  8  9  1  6
 10 11  1  0
 13 14  1  0
 13 15  1  0
 13 16  1  0
 15 17  1  0
 18 19  1  0
 21 22  2  0
 22 23  1  0
 23 24  2  0
  8 25  1  0
 24 25  1  0
 21 26  1  0
 25 26  2  0
 27 28  1  0
  1 29  1  0
 28 29  1  0
 29 30  2  0
 13 31  1  0
 27 31  2  0
 30 31  1  0
 10 32  1  0
 18 33  1  0
 32 33  2  0
 33 34  1  0
 34 35  2  0
 12 36  1  0
 35 36  1  0
  5 37  1  0
 32 37  1  0
 36 37  2  0
 38 39  2  0
 20 40  1  0
 39 40  1  0
 40 41  2  0
 41 42  1  0
  4 43  1  0
 38 43  1  0
 42 43  2  0
 46 47  1  0
 47 48  1  0
 49 44  1  0
 45 49  1  0
 48 49  1  0
 46 50  2  0
 49 50  1  0
 42 51  1  0
 48 51  1  1
M  END
