x2705-x0755-x2694-x1384
     RDKit          3D

 52 57  0  0  0  0  0  0  0  0999 V2000
    6.4160   -2.2980   26.2470 O   0  0  0  0  0  0  0  0  0  0  0  0
    5.4030   -5.6100   27.0160 C   0  0  0  0  0  0  0  0  0  0  0  0
    7.2610   -3.9800   28.1060 O   0  0  0  0  0  0  0  0  0  0  0  0
    5.8490   -4.0370   27.3500 S   0  0  0  0  0  0  0  0  0  0  0  0
    2.6200   -3.7810   25.5360 C   0  0  1  0  0  0  0  0  0  0  0  0
    3.7260   -3.4080   25.1880 C   0  0  2  0  0  0  0  0  0  0  0  0
    4.0730   -3.2210   26.4010 C   0  0  2  0  0  0  0  0  0  0  0  0
    4.0940   -4.7870   26.4220 C   0  0  1  0  0  0  0  0  0  0  0  0
    3.6430   -4.9760   24.7850 C   0  0  0  0  0  0  0  0  0  0  0  0
    2.5710   -4.0740   24.3090 C   0  0  0  0  0  0  0  0  0  0  0  0
    5.1260   -2.6230   25.5390 C   0  0  2  0  0  0  0  0  0  0  0  0
    4.5830   -4.2100   25.5700 C   0  0  0  0  0  0  0  0  0  0  0  0
    3.1130   -5.1520   25.6690 C   0  0  0  0  0  0  0  0  0  0  0  0
    4.8400   -7.3610   25.3110 F   0  0  0  0  0  0  0  0  0  0  0  0
    4.6660   -6.8770   26.5740 C   0  0  0  0  0  0  0  0  0  0  0  0
    6.6900   -2.4450   22.5730 C   0  0  2  0  0  0  0  0  0  0  0  0
    6.9910   -5.3460   21.0440 C   0  0  0  0  0  0  0  0  0  0  0  0
    5.2940   -4.3920   21.1640 O   0  0  0  0  0  0  0  0  0  0  0  0
    6.7850   -4.4750   22.0060 C   0  0  0  0  0  0  0  0  0  0  0  0
    7.5440    1.0430   23.1820 N   0  0  0  0  0  0  0  0  0  0  0  0
    8.9030   -0.2960   21.9520 O   0  0  0  0  0  0  0  0  0  0  0  0
    5.7910   -3.4320   21.7310 C   0  0  0  0  0  0  0  0  0  0  0  0
    6.5590   -1.0190   22.0700 C   0  0  1  0  0  0  0  0  0  0  0  0
    7.7970   -0.0660   22.3910 C   0  0  0  0  0  0  0  0  0  0  0  0
   10.2250    1.1030   24.6360 C   0  0  0  0  0  0  0  0  0  0  0  0
    9.4450    0.6910   25.9660 C   0  0  0  0  0  0  0  0  0  0  0  0
    6.5540    3.2560   21.7630 C   0  0  0  0  0  0  0  0  0  0  0  0
   12.1040   -2.2440   22.4460 C   0  0  0  0  0  0  0  0  0  0  0  0
   12.2710   -0.8640   22.5810 C   0  0  0  0  0  0  0  0  0  0  0  0
   12.8050   -2.7540   23.4870 C   0  0  0  0  0  0  0  0  0  0  0  0
   12.3190   -2.4980   21.0060 C   0  0  0  0  0  0  0  0  0  0  0  0
   10.6130    5.8840   23.0690 O   0  0  0  0  0  0  0  0  0  0  0  0
   11.9490    5.8450   23.4630 C   0  0  0  0  0  0  0  0  0  0  0  0
    4.9680   -1.8060   18.6420 N   0  0  0  0  0  0  0  0  0  0  0  0
    5.4760   -0.6860   17.8900 C   0  0  0  0  0  0  0  0  0  0  0  0
    6.3370    0.2800   18.4520 C   0  0  0  0  0  0  0  0  0  0  0  0
    6.6840    0.1360   19.8060 C   0  0  0  0  0  0  0  0  0  0  0  0
    6.1890   -0.9310   20.6300 C   0  0  0  0  0  0  0  0  0  0  0  0
    5.3340   -1.8950   19.9960 C   0  0  0  0  0  0  0  0  0  0  0  0
   10.1910   -3.2750   23.7980 N   0  0  0  0  0  0  0  0  0  0  0  0
    8.7970   -3.3800   23.9130 N   0  0  0  0  0  0  0  0  0  0  0  0
    8.2110   -2.6270   22.7790 C   0  0  0  0  0  0  0  0  0  0  0  0
    9.4150   -2.1410   22.0070 C   0  0  0  0  0  0  0  0  0  0  0  0
   10.6480   -2.5200   22.7470 C   0  0  0  0  0  0  0  0  0  0  0  0
    9.5480    2.2360   23.8820 C   0  0  0  0  0  0  0  0  0  0  0  0
   10.3760    3.6090   23.8230 C   0  0  0  0  0  0  0  0  0  0  0  0
    9.8710    4.6800   23.1050 C   0  0  0  0  0  0  0  0  0  0  0  0
    8.6670    4.5770   22.4630 C   0  0  0  0  0  0  0  0  0  0  0  0
    7.9210    3.3700   22.5080 C   0  0  0  0  0  0  0  0  0  0  0  0
    8.3560    2.2350   23.1800 C   0  0  0  0  0  0  0  0  0  0  0  0
    4.3250   -2.5130   23.9760 C   0  0  0  0  0  0  0  0  0  0  0  0
    5.8230   -2.4340   23.9720 C   0  0  0  0  0  0  0  0  0  0  0  0
  2  4  2  0
  3  4  2  0
  5  6  1  0
  7  5  1  0
  6  7  1  0
  8  2  1  6
  7  8  1  1
  8  9  1  0
  5 10  1  1
  9 10  2  0
 11  1  1  1
  7 11  1  0
 11 12  1  0
  5 13  1  0
 12 13  2  0
  2 15  1  0
 14 15  1  0
 17 19  1  0
 16 22  1  0
 18 22  2  0
 19 22  1  0
 16 23  1  0
 20 24  1  0
 21 24  2  0
 23 24  1  6
 25 26  1  0
 28 29  1  0
 28 30  1  0
 28 31  1  0
 32 33  1  0
 34 35  2  0
 35 36  1  0
 36 37  2  0
 23 38  1  0
 37 38  1  0
 34 39  1  0
 38 39  2  0
 40 41  1  0
 16 42  1  0
 41 42  2  0
 42 43  1  0
 28 44  1  0
 40 44  1  0
 43 44  2  0
 25 45  1  0
 45 46  2  0
 32 47  1  0
 46 47  1  0
 47 48  2  0
 27 49  1  0
 48 49  1  0
 20 50  1  0
 45 50  1  0
 49 50  2  0
  6 51  1  6
 16 52  1  1
 51 52  1  0
M  END
