x2705-x1311-x0981-x1077
     RDKit          3D

 53 60  0  0  0  0  0  0  0  0999 V2000
    7.0380   -1.7670   21.7510 N   0  0  0  0  0  0  0  0  0  0  0  0
    6.5790   -5.2060   20.7350 C   0  0  0  0  0  0  0  0  0  0  0  0
    4.8360   -2.9660   21.0600 O   0  0  0  0  0  0  0  0  0  0  0  0
    6.3400   -4.4280   21.8600 C   0  0  2  0  0  0  0  0  0  0  0  0
    7.3750    1.8480   22.6790 N   0  0  0  0  0  0  0  0  0  0  0  0
    8.8300    0.7610   21.3700 O   0  0  0  0  0  0  0  0  0  0  0  0
    6.0520   -2.9560   21.5300 C   0  0  0  0  0  0  0  0  0  0  0  0
    6.6110   -0.2900   21.5480 C   0  0  1  0  0  0  0  0  0  0  0  0
    7.6990    0.7840   21.8490 C   0  0  0  0  0  0  0  0  0  0  0  0
   10.1340    1.9560   23.8870 C   0  0  0  0  0  0  0  0  0  0  0  0
    9.3440    1.1350   24.9200 C   0  0  0  0  0  0  0  0  0  0  0  0
    6.0950    4.3860   21.7990 C   0  0  0  0  0  0  0  0  0  0  0  0
   12.1090   -1.3840   23.3100 C   0  0  0  0  0  0  0  0  0  0  0  0
   12.4990    0.0150   23.8090 C   0  0  0  0  0  0  0  0  0  0  0  0
   12.6720   -2.3710   24.3490 C   0  0  0  0  0  0  0  0  0  0  0  0
   12.8400   -1.5670   21.9750 C   0  0  0  0  0  0  0  0  0  0  0  0
    1.5260   -8.3780   21.7810 C   0  0  0  0  0  0  0  0  0  0  0  0
    2.8140   -6.3710   22.8320 N   0  0  0  0  0  0  0  0  0  0  0  0
    0.6230   -6.2160   22.2270 O   0  0  0  0  0  0  0  0  0  0  0  0
    1.6350   -6.9100   22.2980 C   0  0  0  0  0  0  0  0  0  0  0  0
    2.3410   -8.7530   25.8960 N   0  0  0  0  0  0  0  0  0  0  0  0
    4.1120   -7.9380   24.6710 N   0  0  0  0  0  0  0  0  0  0  0  0
    2.7140   -5.5740   23.9500 C   0  0  1  0  0  0  0  0  0  0  0  0
    2.3030   -6.3440   25.1940 C   0  0  0  0  0  0  0  0  0  0  0  0
    2.9500   -7.7310   25.2590 C   0  0  0  0  0  0  0  0  0  0  0  0
    6.4130    0.3930   17.8410 N   0  0  0  0  0  0  0  0  0  0  0  0
    5.2730    1.1200   17.8050 C   0  0  0  0  0  0  0  0  0  0  0  0
    4.4910    1.4290   18.8860 C   0  0  0  0  0  0  0  0  0  0  0  0
    4.8900    0.9750   20.1360 C   0  0  0  0  0  0  0  0  0  0  0  0
    6.0680    0.2260   20.2360 C   0  0  0  0  0  0  0  0  0  0  0  0
    6.7810   -0.0380   19.0630 C   0  0  0  0  0  0  0  0  0  0  0  0
    9.6910   -1.5760   24.2630 N   0  0  0  0  0  0  0  0  0  0  0  0
    8.3690   -1.6810   23.8940 N   0  0  0  0  0  0  0  0  0  0  0  0
    8.2750   -1.6970   22.5410 C   0  0  0  0  0  0  0  0  0  0  0  0
    9.6230   -1.5920   22.1840 C   0  0  0  0  0  0  0  0  0  0  0  0
   10.5740   -1.5110   23.2140 C   0  0  0  0  0  0  0  0  0  0  0  0
    9.3740    3.1700   23.4110 C   0  0  0  0  0  0  0  0  0  0  0  0
   10.0390    4.3960   23.5670 C   0  0  0  0  0  0  0  0  0  0  0  0
    9.3680    5.7240   23.1130 C   0  0  0  0  0  0  0  0  0  0  0  0
    8.1060    5.5980   22.5610 C   0  0  0  0  0  0  0  0  0  0  0  0
    7.4650    4.3310   22.4210 C   0  0  0  0  0  0  0  0  0  0  0  0
    8.0860    3.0790   22.8470 C   0  0  0  0  0  0  0  0  0  0  0  0
    8.2740   -5.8040   22.9450 C   0  0  0  0  0  0  0  0  0  0  0  0
    9.2810   -6.1230   23.9080 C   0  0  0  0  0  0  0  0  0  0  0  0
    9.5080   -5.2970   25.0130 C   0  0  0  0  0  0  0  0  0  0  0  0
    8.6280   -4.0440   25.1390 C   0  0  0  0  0  0  0  0  0  0  0  0
    7.6060   -3.8220   24.0590 C   0  0  0  0  0  0  0  0  0  0  0  0
    7.4260   -4.6790   22.9750 C   0  0  0  0  0  0  0  0  0  0  0  0
    4.8890   -4.9170   22.5510 C   0  0  1  0  0  0  0  0  0  0  0  0
    4.8920   -4.1940   23.6900 C   0  0  0  0  0  0  0  0  0  0  0  0
    4.1290   -5.1780   24.0790 C   0  0  1  0  0  0  0  0  0  0  0  0
    4.9340   -6.7570   23.9320 S   0  0  2  0  0  0  0  0  0  0  0  0
    4.2780   -6.3700   22.3560 C   0  0  1  0  0  0  0  0  0  0  0  0
  4  2  1  6
  1  7  1  0
  3  7  2  0
  4  7  1  0
  1  8  1  0
  5  9  1  0
  6  9  2  0
  8  9  1  6
 10 11  1  0
 13 14  1  0
 13 15  1  0
 13 16  1  0
 17 20  1  0
 18 20  1  0
 19 20  2  0
 18 23  1  0
 23 24  1  1
 21 25  1  0
 22 25  2  0
 24 25  1  0
 26 27  2  0
 27 28  1  0
 28 29  2  0
  8 30  1  0
 29 30  1  0
 26 31  1  0
 30 31  2  0
 32 33  1  0
  1 34  1  0
 33 34  2  0
 34 35  1  0
 13 36  1  0
 32 36  1  0
 35 36  2  0
 10 37  1  0
 37 38  2  0
 38 39  1  0
 39 40  2  0
 12 41  1  0
 40 41  1  0
  5 42  1  0
 37 42  1  0
 41 42  2  0
 43 44  2  0
 44 45  1  0
 45 46  2  0
 46 47  1  0
  4 48  1  0
 43 48  1  0
 47 48  2  0
  4 49  1  0
 49 50  1  6
 23 51  1  0
 49 51  1  0
 51 50  1  1
 52 22  1  1
 51 52  1  0
 53 18  1  1
 49 53  1  0
 52 53  1  0
M  END
