x2703-x2694-x2705-x1380-x1348
     RDKit          3D

 55 60  0  0  0  0  0  0  0  0999 V2000
    7.0360   -1.4430   21.8650 N   0  0  0  0  0  0  0  0  0  0  0  0
    6.8740   -4.5370   20.1940 C   0  0  0  0  0  0  0  0  0  0  0  0
    4.8520   -3.0040   21.2210 O   0  0  0  0  0  0  0  0  0  0  0  0
    7.0610   -3.9030   21.5280 C   0  0  1  0  0  0  0  0  0  0  0  0
    7.5450    2.2490   22.6060 N   0  0  0  0  0  0  0  0  0  0  0  0
    9.0100    0.9350   21.4720 O   0  0  0  0  0  0  0  0  0  0  0  0
    6.1800   -2.6870   21.5210 C   0  0  0  0  0  0  0  0  0  0  0  0
   11.0670    6.6210   23.9570 O   0  0  0  0  0  0  0  0  0  0  0  0
    6.7160   -0.0120   21.6050 C   0  0  1  0  0  0  0  0  0  0  0  0
    7.8710    1.0880   21.8960 C   0  0  0  0  0  0  0  0  0  0  0  0
   10.0970    1.7180   24.0000 C   0  0  0  0  0  0  0  0  0  0  0  0
   11.8810    6.5020   25.1200 C   0  0  0  0  0  0  0  0  0  0  0  0
   12.2450   -1.3980   22.9310 C   0  0  0  0  0  0  0  0  0  0  0  0
   12.6620    0.0670   23.2090 C   0  0  0  0  0  0  0  0  0  0  0  0
   12.8040   -1.8150   21.5590 C   0  0  0  0  0  0  0  0  0  0  0  0
   13.0700   -2.2790   23.8820 C   0  0  0  0  0  0  0  0  0  0  0  0
    9.2150    1.1150   25.0700 C   0  0  0  0  0  0  0  0  0  0  0  0
   12.3210   -2.9370   24.9770 C   0  0  0  0  0  0  0  0  0  0  0  0
    7.0360   -5.5820   26.9810 O   0  0  0  0  0  0  0  0  0  0  0  0
    4.7060   -2.0390   25.6260 O   0  0  0  0  0  0  0  0  0  0  0  0
    4.9200   -3.4420   25.7250 C   0  0  0  0  0  0  0  0  0  0  0  0
    6.3690    0.4400   17.8430 N   0  0  0  0  0  0  0  0  0  0  0  0
    5.2440    1.2110   17.8010 C   0  0  0  0  0  0  0  0  0  0  0  0
    4.5610    1.5890   18.9250 C   0  0  0  0  0  0  0  0  0  0  0  0
    5.0390    1.1790   20.1510 C   0  0  0  0  0  0  0  0  0  0  0  0
    6.1930    0.3970   20.2340 C   0  0  0  0  0  0  0  0  0  0  0  0
    6.8220    0.0460   19.0460 C   0  0  0  0  0  0  0  0  0  0  0  0
    8.6610   -1.8250   23.8070 N   0  0  0  0  0  0  0  0  0  0  0  0
   10.0760   -1.7860   23.9910 O   0  0  0  0  0  0  0  0  0  0  0  0
   10.6940   -1.5040   22.9380 C   0  0  0  0  0  0  0  0  0  0  0  0
    9.6530   -1.3510   22.0070 C   0  0  0  0  0  0  0  0  0  0  0  0
    8.3650   -1.5390   22.5050 C   0  0  0  0  0  0  0  0  0  0  0  0
    9.6550    3.1130   23.6010 C   0  0  0  0  0  0  0  0  0  0  0  0
   10.4890    4.2030   23.9140 C   0  0  0  0  0  0  0  0  0  0  0  0
   10.2550    5.5590   23.6420 C   0  0  0  0  0  0  0  0  0  0  0  0
    9.0840    5.8920   22.9850 C   0  0  0  0  0  0  0  0  0  0  0  0
    8.0890    4.7630   22.5880 C   0  0  0  0  0  0  0  0  0  0  0  0
    8.4790    3.3050   22.9630 C   0  0  0  0  0  0  0  0  0  0  0  0
    5.9950   -5.9680   26.2060 C   0  0  0  0  0  0  0  0  0  0  0  0
    5.8810   -5.6190   24.7310 C   0  0  0  0  0  0  0  0  0  0  0  0
    4.7800   -6.0620   23.8900 C   0  0  0  0  0  0  0  0  0  0  0  0
    3.6640   -6.9240   24.5150 C   0  0  0  0  0  0  0  0  0  0  0  0
    3.7220   -7.3020   26.0210 C   0  0  0  0  0  0  0  0  0  0  0  0
    5.0030   -6.7410   26.8140 C   0  0  0  0  0  0  0  0  0  0  0  0
    6.8660   -4.8060   24.0240 N   0  0  0  0  0  0  0  0  0  0  0  0
    6.4040   -4.6860   22.6420 C   0  0  0  0  0  0  0  0  0  0  0  0
    4.9070   -5.5090   22.1870 S   0  0  0  0  0  0  0  0  0  0  0  0
    6.6610   -3.4020   27.3330 C   0  0  0  0  0  0  0  0  0  0  0  0
    6.8390   -4.7360   28.0410 C   0  0  1  0  0  0  0  0  0  0  0  0
    5.9320   -5.0810   28.9990 C   0  0  0  0  0  0  0  0  0  0  0  0
    5.0380   -4.0570   29.2300 C   0  0  0  0  0  0  0  0  0  0  0  0
    4.3820   -3.4760   28.1370 C   0  0  0  0  0  0  0  0  0  0  0  0
    5.2830   -3.2020   27.0320 N   0  0  0  0  0  0  0  0  0  0  0  0
    5.9510    3.9250   21.6960 C   0  0  0  0  0  0  0  0  0  0  0  0
    6.2040    2.7660   22.4600 C   0  0  0  0  0  0  0  0  0  0  0  0
  4  2  1  6
  1  7  1  0
  3  7  2  0
  4  7  1  0
  1  9  1  0
  5 10  1  0
  6 10  2  0
  9 10  1  6
  8 12  1  0
 13 14  1  0
 13 15  1  0
 13 16  1  0
 11 17  1  0
 16 18  1  0
 20 21  2  0
 22 23  2  0
 23 24  1  0
 24 25  2  0
  9 26  1  0
 25 26  1  0
 22 27  1  0
 26 27  2  0
 28 29  1  0
 13 30  1  0
 29 30  1  0
 30 31  2  0
  1 32  1  0
 28 32  2  0
 31 32  1  0
 11 33  1  0
 33 34  2  0
  8 35  1  0
 34 35  1  0
 35 36  2  0
 36 37  1  0
  5 38  1  0
 33 38  1  0
 37 38  2  0
 19 39  1  0
 39 40  2  0
 40 41  1  0
 41 42  2  0
 42 43  1  0
 39 44  1  0
 43 44  2  0
 40 45  1  0
  4 46  1  0
 45 46  2  0
 41 47  1  0
 46 47  1  0
 49 19  1  6
 48 49  1  0
 49 50  1  0
 50 51  1  0
 51 52  1  0
 21 53  1  0
 48 53  1  0
 52 53  1  0
  5 55  1  0
 54 55  1  0
M  END
