x2705-x1493-x0426-x2776
     RDKit          3D

 58 62  0  0  0  0  0  0  0  0999 V2000
    6.8610   -1.5150   22.0770 C   0  0  1  0  0  0  0  0  0  0  0  0
    6.5270   -4.5160   20.1280 C   0  0  0  0  0  0  0  0  0  0  0  0
    4.7600   -2.9010   21.1360 O   0  0  0  0  0  0  0  0  0  0  0  0
    6.5690   -4.1540   21.4100 C   0  0  2  0  0  0  0  0  0  0  0  0
    7.6250    1.9920   22.8650 N   0  0  0  0  0  0  0  0  0  0  0  0
    8.6820    1.2590   21.0740 O   0  0  0  0  0  0  0  0  0  0  0  0
    6.0120   -2.8110   21.5050 C   0  0  0  0  0  0  0  0  0  0  0  0
    6.5930   -0.0030   21.5490 C   0  0  1  0  0  0  0  0  0  0  0  0
    7.6990    1.0940   21.8230 C   0  0  0  0  0  0  0  0  0  0  0  0
   10.2020    2.3000   23.9620 C   0  0  0  0  0  0  0  0  0  0  0  0
    9.3330    1.3600   24.8360 C   0  0  0  0  0  0  0  0  0  0  0  0
    6.1470    4.3440   21.8970 C   0  0  0  0  0  0  0  0  0  0  0  0
   12.1430   -1.5670   23.1900 C   0  0  0  0  0  0  0  0  0  0  0  0
   12.7270   -0.2880   23.8440 C   0  0  0  0  0  0  0  0  0  0  0  0
   12.6240   -2.7960   23.9930 C   0  0  0  0  0  0  0  0  0  0  0  0
   12.7490   -1.6520   21.7790 C   0  0  0  0  0  0  0  0  0  0  0  0
   13.4450   -2.6010   25.2420 C   0  0  0  0  0  0  0  0  0  0  0  0
   10.8150    6.0500   23.8760 O   0  0  0  0  0  0  0  0  0  0  0  0
   11.8850    6.2720   24.7950 C   0  0  0  0  0  0  0  0  0  0  0  0
    2.2530    1.7760   23.8750 C   0  0  0  0  0  0  0  0  0  0  0  0
    2.1180    0.5480   23.8430 O   0  0  0  0  0  0  0  0  0  0  0  0
    3.3240    2.4150   23.2810 N   0  0  0  0  0  0  0  0  0  0  0  0
    4.2760    1.6790   22.4700 C   0  0  0  0  0  0  0  0  0  0  0  0
    3.7310    1.4360   21.0590 C   0  0  0  0  0  0  0  0  0  0  0  0
    2.8320    4.3030   25.2230 F   0  0  0  0  0  0  0  0  0  0  0  0
    5.0240   -6.0070   26.1210 C   0  0  0  0  0  0  0  0  0  0  0  0
    7.2440   -5.5270   26.3300 O   0  0  0  0  0  0  0  0  0  0  0  0
    6.2340   -5.5510   25.6280 C   0  0  0  0  0  0  0  0  0  0  0  0
    6.2040   -1.5930   23.4630 C   0  0  0  0  0  0  0  0  0  0  0  0
    6.4250    0.4640   17.9080 N   0  0  0  0  0  0  0  0  0  0  0  0
    5.1610    1.1630   17.6840 C   0  0  0  0  0  0  0  0  0  0  0  0
    4.3810    1.4060   18.7980 C   0  0  0  0  0  0  0  0  0  0  0  0
    4.7860    1.0320   20.0440 C   0  0  0  0  0  0  0  0  0  0  0  0
    6.0000    0.3980   20.2100 C   0  0  0  0  0  0  0  0  0  0  0  0
    6.8160    0.1020   19.1200 C   0  0  0  0  0  0  0  0  0  0  0  0
    9.9240   -1.2780   24.2690 N   0  0  0  0  0  0  0  0  0  0  0  0
    8.6220   -1.2860   23.9190 N   0  0  0  0  0  0  0  0  0  0  0  0
    8.3570   -1.5220   22.6080 C   0  0  0  0  0  0  0  0  0  0  0  0
    9.6640   -1.6860   22.1270 C   0  0  0  0  0  0  0  0  0  0  0  0
   10.6040   -1.5210   23.1570 C   0  0  0  0  0  0  0  0  0  0  0  0
    9.4850    3.5650   23.5160 C   0  0  0  0  0  0  0  0  0  0  0  0
   10.2820    4.7740   23.7590 C   0  0  0  0  0  0  0  0  0  0  0  0
    9.3640    5.7410   23.2320 C   0  0  0  0  0  0  0  0  0  0  0  0
    8.0940    5.6120   22.6570 C   0  0  0  0  0  0  0  0  0  0  0  0
    7.5100    4.3920   22.5240 C   0  0  0  0  0  0  0  0  0  0  0  0
    8.2180    3.3170   22.9700 C   0  0  0  0  0  0  0  0  0  0  0  0
    1.5760    3.8300   25.2240 C   0  0  0  0  0  0  0  0  0  0  0  0
    1.2300    2.6310   24.6000 C   0  0  0  0  0  0  0  0  0  0  0  0
   -0.0350    2.0230   24.5270 C   0  0  0  0  0  0  0  0  0  0  0  0
   -1.1570    2.6310   25.1310 C   0  0  0  0  0  0  0  0  0  0  0  0
   -0.8650    3.9640   25.8450 C   0  0  0  0  0  0  0  0  0  0  0  0
    0.5890    4.5630   25.8730 C   0  0  0  0  0  0  0  0  0  0  0  0
    6.2490   -5.1350   24.3020 N   0  0  0  0  0  0  0  0  0  0  0  0
    7.3460   -4.2930   23.8210 C   0  0  0  0  0  0  0  0  0  0  0  0
    7.6710   -4.6530   22.3570 C   0  0  1  0  0  0  0  0  0  0  0  0
    7.5510   -6.1020   22.2600 N   0  0  0  0  0  0  0  0  0  0  0  0
    6.1400   -6.5100   22.3860 C   0  0  0  0  0  0  0  0  0  0  0  0
    5.3770   -5.7270   23.2710 C   0  0  0  0  0  0  0  0  0  0  0  0
  4  2  1  6
  1  7  1  0
  3  7  2  0
  4  7  1  0
  1  8  1  0
  5  9  1  0
  6  9  2  0
  8  9  1  6
 10 11  1  0
 13 14  1  0
 13 15  1  0
 13 16  1  0
 15 17  1  0
 18 19  1  0
 20 21  2  0
 20 22  1  0
 22 23  1  0
 23 24  1  0
 26 28  1  0
 27 28  2  0
  1 29  1  1
 30 31  2  0
 31 32  1  0
 24 33  1  0
 32 33  2  0
  8 34  1  0
 33 34  1  0
 30 35  1  0
 34 35  2  0
 36 37  1  0
  1 38  1  0
 37 38  1  0
 38 39  2  0
 13 40  1  0
 36 40  2  0
 39 40  1  0
 10 41  1  0
 18 42  1  0
 41 42  2  0
 42 43  1  0
 43 44  2  0
 12 45  1  0
 44 45  1  0
  5 46  1  0
 41 46  1  0
 45 46  2  0
 25 47  1  0
 20 48  1  0
 47 48  2  0
 48 49  1  0
 49 50  2  0
 50 51  1  0
 47 52  1  0
 51 52  2  0
 28 53  1  0
 53 54  1  0
  4 55  1  0
 55 54  1  1
 55 56  1  0
 56 57  1  0
 53 58  1  0
 57 58  1  0
M  END
