x2703-x1308
     RDKit          3D

 50 55  0  0  0  0  0  0  0  0999 V2000
    6.8110   -1.5950   21.8700 C   0  0  1  0  0  0  0  0  0  0  0  0
    7.3550   -3.8970   20.3280 C   0  0  0  0  0  0  0  0  0  0  0  0
    4.6480   -3.0350   21.5980 O   0  0  0  0  0  0  0  0  0  0  0  0
    6.1650   -3.1260   19.9200 C   0  0  0  0  0  0  0  0  0  0  0  0
    7.3270    2.0160   23.0270 N   0  0  0  0  0  0  0  0  0  0  0  0
    8.7190    0.7190   21.3240 O   0  0  0  0  0  0  0  0  0  0  0  0
    5.7630   -2.5970   21.1850 C   0  0  0  0  0  0  0  0  0  0  0  0
    6.4220   -0.1290   21.8110 C   0  0  1  0  0  0  0  0  0  0  0  0
    7.5260    0.9130   22.0930 C   0  0  0  0  0  0  0  0  0  0  0  0
    9.9490    1.9410   24.0770 C   0  0  0  0  0  0  0  0  0  0  0  0
    9.0280    1.3200   25.1510 C   0  0  0  0  0  0  0  0  0  0  0  0
    5.9510    4.4480   21.8320 C   0  0  0  0  0  0  0  0  0  0  0  0
   11.9220   -1.5620   24.6610 C   0  0  0  0  0  0  0  0  0  0  0  0
   12.6720   -2.7390   24.7310 C   0  0  0  0  0  0  0  0  0  0  0  0
   13.1920   -1.5260   23.8910 C   0  0  0  0  0  0  0  0  0  0  0  0
    0.6280   -1.1050   26.5660 Cl  0  0  0  0  0  0  0  0  0  0  0  0
    6.1530   -5.4390   26.6250 O   0  0  0  0  0  0  0  0  0  0  0  0
    4.4580   -6.9610   25.5970 O   0  0  0  0  0  0  0  0  0  0  0  0
    5.1680   -5.7020   25.6110 S   0  0  0  0  0  0  0  0  0  0  0  0
    6.3020   -2.7060   22.7910 C   0  0  0  0  0  0  0  0  0  0  0  0
    6.3670    0.3430   17.9030 N   0  0  0  0  0  0  0  0  0  0  0  0
    5.1170    1.1410   17.8520 C   0  0  0  0  0  0  0  0  0  0  0  0
    4.4220    1.4220   19.0190 C   0  0  0  0  0  0  0  0  0  0  0  0
    4.8190    1.0140   20.2770 C   0  0  0  0  0  0  0  0  0  0  0  0
    5.9900    0.2720   20.3980 C   0  0  0  0  0  0  0  0  0  0  0  0
    6.8150   -0.1050   19.2230 C   0  0  0  0  0  0  0  0  0  0  0  0
   10.7820   -2.1080   22.4830 N   0  0  0  0  0  0  0  0  0  0  0  0
   10.7370   -1.6330   23.8610 C   0  0  0  0  0  0  0  0  0  0  0  0
    9.5360   -1.2360   24.4240 C   0  0  0  0  0  0  0  0  0  0  0  0
    8.3480   -1.2770   23.6700 C   0  0  0  0  0  0  0  0  0  0  0  0
    8.3530   -1.7180   22.3560 C   0  0  0  0  0  0  0  0  0  0  0  0
    9.5340   -2.1330   21.7760 C   0  0  0  0  0  0  0  0  0  0  0  0
    9.3810    3.2380   23.5380 C   0  0  0  0  0  0  0  0  0  0  0  0
   10.2360    4.3600   23.6130 C   0  0  0  0  0  0  0  0  0  0  0  0
    9.6440    5.6810   23.0520 C   0  0  0  0  0  0  0  0  0  0  0  0
    8.2000    5.6980   22.4540 C   0  0  0  0  0  0  0  0  0  0  0  0
    7.3390    4.4360   22.4100 C   0  0  0  0  0  0  0  0  0  0  0  0
    8.1000    3.2450   23.0200 C   0  0  0  0  0  0  0  0  0  0  0  0
    7.0660   -4.7660   21.5640 N   0  0  0  0  0  0  0  0  0  0  0  0
    7.2950   -3.9920   22.8260 C   0  0  2  0  0  0  0  0  0  0  0  0
    7.1670   -4.8110   23.9240 C   0  0  0  0  0  0  0  0  0  0  0  0
    5.8310   -5.4210   24.0340 N   0  0  0  0  0  0  0  0  0  0  0  0
    5.1070   -5.6710   22.7790 C   0  0  0  0  0  0  0  0  0  0  0  0
    5.9640   -5.7680   21.6430 C   0  0  0  0  0  0  0  0  0  0  0  0
    4.3480   -3.1480   26.2770 C   0  0  0  0  0  0  0  0  0  0  0  0
    3.3400   -2.0200   26.5220 C   0  0  0  0  0  0  0  0  0  0  0  0
    1.8120   -2.3120   26.2980 C   0  0  0  0  0  0  0  0  0  0  0  0
    1.4030   -3.7070   25.8380 C   0  0  0  0  0  0  0  0  0  0  0  0
    2.4920   -4.7510   25.6260 C   0  0  0  0  0  0  0  0  0  0  0  0
    3.9620   -4.4260   25.8620 C   0  0  0  0  0  0  0  0  0  0  0  0
  2  4  1  0
  1  7  1  0
  3  7  2  0
  4  7  1  0
  1  8  1  0
  5  9  1  0
  6  9  2  0
  8  9  1  6
 10 11  1  0
 13 14  1  0
 13 15  1  0
 17 19  2  0
 18 19  2  0
  1 20  1  0
 21 22  2  0
 22 23  1  0
 23 24  2  0
  8 25  1  0
 24 25  1  0
 21 26  1  0
 25 26  2  0
 13 28  1  0
 27 28  2  0
 28 29  1  0
 29 30  2  0
  1 31  1  6
 30 31  1  0
 27 32  1  0
 31 32  2  0
 10 33  1  0
 33 34  2  0
 34 35  1  0
 35 36  2  0
 12 37  1  0
 36 37  1  0
  5 38  1  0
 33 38  1  0
 37 38  2  0
  2 39  1  0
 40 20  1  1
 39 40  1  0
 40 41  1  0
 19 42  1  0
 41 42  1  0
 42 43  1  0
 39 44  1  0
 43 44  1  0
 45 46  2  0
 16 47  1  0
 46 47  1  0
 47 48  2  0
 48 49  1  0
 19 50  1  0
 45 50  1  0
 49 50  2  0
M  END
