x2705-x0689
     RDKit          3D

 49 54  0  0  0  0  0  0  0  0999 V2000
    6.9600   -1.3410   21.8200 C   0  0  2  0  0  0  0  0  0  0  0  0
    6.7820   -3.7710   20.1320 C   0  0  0  0  0  0  0  0  0  0  0  0
    4.9410   -3.0910   20.7510 O   0  0  0  0  0  0  0  0  0  0  0  0
    6.6660   -2.3080   20.2610 C   0  0  0  0  0  0  0  0  0  0  0  0
    7.5650    2.0470   22.9110 N   0  0  0  0  0  0  0  0  0  0  0  0
    8.6960    1.3020   21.0420 O   0  0  0  0  0  0  0  0  0  0  0  0
    5.7380   -2.3090   21.3600 C   0  0  0  0  0  0  0  0  0  0  0  0
    6.7720    0.1650   21.6330 C   0  0  1  0  0  0  0  0  0  0  0  0
    7.7470    1.1700   21.8170 C   0  0  0  0  0  0  0  0  0  0  0  0
   10.1660    2.0630   23.9910 C   0  0  0  0  0  0  0  0  0  0  0  0
    9.3620    1.3090   24.8570 C   0  0  0  0  0  0  0  0  0  0  0  0
    6.1140    4.6400   21.8800 C   0  0  0  0  0  0  0  0  0  0  0  0
   12.2100   -1.5450   23.1680 C   0  0  0  0  0  0  0  0  0  0  0  0
   12.6540   -0.2630   23.5590 C   0  0  0  0  0  0  0  0  0  0  0  0
   12.7270   -2.5230   24.2530 C   0  0  0  0  0  0  0  0  0  0  0  0
   12.8700   -1.8820   21.8200 C   0  0  0  0  0  0  0  0  0  0  0  0
    4.1200   -6.4030   25.7160 O   0  0  0  0  0  0  0  0  0  0  0  0
    5.7430   -4.6750   26.5830 O   0  0  0  0  0  0  0  0  0  0  0  0
    4.7710   -5.1140   25.6110 S   0  0  0  0  0  0  0  0  0  0  0  0
    6.3390   -1.8570   22.8390 C   0  0  0  0  0  0  0  0  0  0  0  0
    5.7490   -3.1580   22.6600 C   0  0  0  0  0  0  0  0  0  0  0  0
    6.3630    0.5040   17.8260 N   0  0  0  0  0  0  0  0  0  0  0  0
    5.1840    1.2860   17.7660 C   0  0  0  0  0  0  0  0  0  0  0  0
    4.4350    1.7310   19.0100 C   0  0  0  0  0  0  0  0  0  0  0  0
    4.9650    1.3490   20.2110 C   0  0  0  0  0  0  0  0  0  0  0  0
    6.2250    0.5280   20.2980 C   0  0  0  0  0  0  0  0  0  0  0  0
    6.8780    0.1240   19.1380 C   0  0  0  0  0  0  0  0  0  0  0  0
    9.8470   -1.9230   24.1910 N   0  0  0  0  0  0  0  0  0  0  0  0
    8.5480   -1.8630   23.7920 N   0  0  0  0  0  0  0  0  0  0  0  0
    8.3540   -1.5150   22.4830 C   0  0  0  0  0  0  0  0  0  0  0  0
    9.7980   -1.3430   22.0210 C   0  0  0  0  0  0  0  0  0  0  0  0
   10.6850   -1.5810   23.0440 C   0  0  0  0  0  0  0  0  0  0  0  0
    9.4960    3.3340   23.5290 C   0  0  0  0  0  0  0  0  0  0  0  0
   10.1700    4.5410   23.6390 C   0  0  0  0  0  0  0  0  0  0  0  0
    9.6630    5.9180   23.2210 C   0  0  0  0  0  0  0  0  0  0  0  0
    8.2680    5.8990   22.6240 C   0  0  0  0  0  0  0  0  0  0  0  0
    7.4910    4.5870   22.4860 C   0  0  0  0  0  0  0  0  0  0  0  0
    8.1930    3.3160   22.9810 C   0  0  0  0  0  0  0  0  0  0  0  0
    6.4520   -4.2890   21.6750 C   0  0  0  0  0  0  0  0  0  0  0  0
    5.6040   -5.5520   21.6070 C   0  0  0  0  0  0  0  0  0  0  0  0
    4.8370   -5.7420   22.9400 C   0  0  0  0  0  0  0  0  0  0  0  0
    5.5050   -5.0180   24.0560 N   0  0  0  0  0  0  0  0  0  0  0  0
    7.0090   -4.9140   24.0220 C   0  0  0  0  0  0  0  0  0  0  0  0
    7.5480   -4.7950   22.6070 C   0  0  0  0  0  0  0  0  0  0  0  0
    3.9030   -2.2680   25.9910 S   0  0  0  0  0  0  0  0  0  0  0  0
    3.4850   -3.8860   25.6150 C   0  0  0  0  0  0  0  0  0  0  0  0
    1.9930   -3.9440   25.3460 C   0  0  0  0  0  0  0  0  0  0  0  0
    1.3950   -2.7180   25.4770 C   0  0  0  0  0  0  0  0  0  0  0  0
    2.2810   -1.6980   25.8230 C   0  0  0  0  0  0  0  0  0  0  0  0
  2  4  1  0
  1  7  1  0
  3  7  2  0
  4  7  1  0
  1  8  1  0
  5  9  1  0
  6  9  2  0
  8  9  1  6
 10 11  1  0
 13 14  1  0
 13 15  1  0
 13 16  1  0
 17 19  2  0
 18 19  2  0
  1 20  1  0
 20 21  1  0
 22 23  2  0
 23 24  1  0
 24 25  2  0
  8 26  1  0
 25 26  1  0
 22 27  1  0
 26 27  2  0
 28 29  1  0
  1 30  1  6
 29 30  1  0
 30 31  2  0
 13 32  1  0
 28 32  2  0
 31 32  1  0
 10 33  1  0
 33 34  2  0
 34 35  1  0
 35 36  2  0
 12 37  1  0
 36 37  1  0
  5 38  1  0
 33 38  1  0
 37 38  2  0
  2 39  1  0
 39 21  1  0
 39 40  1  0
 40 41  1  0
 19 42  1  0
 41 42  1  0
 42 43  1  0
 39 44  1  0
 43 44  1  0
 19 46  1  0
 45 46  1  0
 46 47  2  0
 47 48  1  0
 45 49  1  0
 48 49  2  0
M  END
