x2705-x0708
     RDKit          3D

 36 40  0  0  0  0  0  0  0  0999 V2000
    6.9550   -1.5170   21.9010 N   0  0  0  0  0  0  0  0  0  0  0  0
    6.9560   -4.9580   20.7820 C   0  0  0  0  0  0  0  0  0  0  0  0
    4.8850   -3.0850   21.2590 O   0  0  0  0  0  0  0  0  0  0  0  0
    6.9710   -4.0230   21.9970 C   0  0  0  0  0  0  0  0  0  0  0  0
    7.2220    1.9130   22.8760 N   0  0  0  0  0  0  0  0  0  0  0  0
    8.3730    1.0050   21.1550 O   0  0  0  0  0  0  0  0  0  0  0  0
    6.1530   -2.7980   21.6770 C   0  0  0  0  0  0  0  0  0  0  0  0
    6.3970   -0.0930   21.6930 C   0  0  1  0  0  0  0  0  0  0  0  0
    7.3910    0.9360   21.8990 C   0  0  0  0  0  0  0  0  0  0  0  0
   10.0150    2.0140   24.1100 C   0  0  0  0  0  0  0  0  0  0  0  0
    9.2200    1.2800   25.0020 C   0  0  0  0  0  0  0  0  0  0  0  0
    6.0300    4.5150   21.8280 C   0  0  0  0  0  0  0  0  0  0  0  0
   12.3700   -1.8080   23.3590 C   0  0  0  0  0  0  0  0  0  0  0  0
   12.7720   -0.6140   23.6360 C   0  0  0  0  0  0  0  0  0  0  0  0
   12.6790   -2.6870   24.5830 C   0  0  0  0  0  0  0  0  0  0  0  0
   12.9940   -2.2190   22.0170 C   0  0  0  0  0  0  0  0  0  0  0  0
    6.3440    0.3810   17.7150 N   0  0  0  0  0  0  0  0  0  0  0  0
    5.1530    1.1780   17.7230 C   0  0  0  0  0  0  0  0  0  0  0  0
    4.4630    1.4730   18.8870 C   0  0  0  0  0  0  0  0  0  0  0  0
    4.8330    1.0610   20.1490 C   0  0  0  0  0  0  0  0  0  0  0  0
    5.9770    0.2930   20.3190 C   0  0  0  0  0  0  0  0  0  0  0  0
    6.7410   -0.0580   19.0540 C   0  0  0  0  0  0  0  0  0  0  0  0
   10.7850   -1.7240   23.0180 N   0  0  0  0  0  0  0  0  0  0  0  0
    9.5090   -2.3870   22.6240 N   0  0  0  0  0  0  0  0  0  0  0  0
    8.3230   -1.4820   22.3550 C   0  0  0  0  0  0  0  0  0  0  0  0
    9.0400   -0.2940   22.7270 C   0  0  0  0  0  0  0  0  0  0  0  0
   10.3170   -0.4490   23.0510 C   0  0  0  0  0  0  0  0  0  0  0  0
    9.2970    3.2210   23.5670 C   0  0  0  0  0  0  0  0  0  0  0  0
   10.0290    4.5790   23.6490 C   0  0  0  0  0  0  0  0  0  0  0  0
    9.3590    5.6820   23.1400 C   0  0  0  0  0  0  0  0  0  0  0  0
    8.0830    5.6490   22.5610 C   0  0  0  0  0  0  0  0  0  0  0  0
    7.3870    4.4440   22.4680 C   0  0  0  0  0  0  0  0  0  0  0  0
    8.0220    3.1560   23.0020 C   0  0  0  0  0  0  0  0  0  0  0  0
   11.4660   -0.6650   23.3140 C   0  0  0  0  0  0  0  0  0  0  0  0
   12.8110    0.1260   23.7350 C   0  0  0  0  0  0  0  0  0  0  0  0
   11.4650    0.4330   23.4480 C   0  0  0  0  0  0  0  0  0  0  0  0
  2  4  1  0
  1  7  1  0
  3  7  2  0
  4  7  1  0
  1  8  1  0
  5  9  1  0
  6  9  2  0
  8  9  1  6
 10 11  1  0
 13 14  1  0
 13 15  1  0
 13 16  1  0
 17 18  2  0
 18 19  1  0
 19 20  2  0
  8 21  1  0
 20 21  1  0
 17 22  1  0
 21 22  2  0
 23 24  1  0
  1 25  1  0
 24 25  1  0
 25 26  2  0
 23 27  1  0
 26 27  1  0
 10 28  1  0
 28 29  2  0
 29 30  1  0
 30 31  2  0
 12 32  1  0
 31 32  1  0
  5 33  1  0
 28 33  1  0
 32 33  2  0
 13 34  1  0
 23 34  1  0
 34 35  2  0
 14 36  1  0
 27 36  2  0
 35 36  1  0
M  END
