x2705-x1374-x2776-x0769
     RDKit          3D

 62 67  0  0  0  0  0  0  0  0999 V2000
    6.9980   -1.4720   21.6910 N   0  0  0  0  0  0  0  0  0  0  0  0
    6.9460   -4.9540   20.6290 C   0  0  0  0  0  0  0  0  0  0  0  0
    4.8830   -3.0210   21.1470 O   0  0  0  0  0  0  0  0  0  0  0  0
    6.8140   -4.0770   21.9290 C   0  0  2  0  0  0  0  0  0  0  0  0
    7.5680    1.9390   22.8140 N   0  0  0  0  0  0  0  0  0  0  0  0
    8.6980    1.1740   21.0460 O   0  0  0  0  0  0  0  0  0  0  0  0
    6.1850   -2.7850   21.5760 C   0  0  0  0  0  0  0  0  0  0  0  0
    6.5970   -0.0480   21.5650 C   0  0  1  0  0  0  0  0  0  0  0  0
    7.7180    1.0390   21.7810 C   0  0  0  0  0  0  0  0  0  0  0  0
   10.0970    2.2180   23.9690 C   0  0  0  0  0  0  0  0  0  0  0  0
    9.2410    1.3870   24.9730 C   0  0  0  0  0  0  0  0  0  0  0  0
    6.0820    4.3690   21.8350 C   0  0  0  0  0  0  0  0  0  0  0  0
   12.0750   -1.4860   23.2620 C   0  0  0  0  0  0  0  0  0  0  0  0
   12.6010   -0.2270   23.9870 C   0  0  0  0  0  0  0  0  0  0  0  0
   12.5360   -2.7560   24.0000 C   0  0  0  0  0  0  0  0  0  0  0  0
   12.7840   -1.5790   21.8980 C   0  0  0  0  0  0  0  0  0  0  0  0
   13.3360   -2.6200   25.2860 C   0  0  0  0  0  0  0  0  0  0  0  0
   10.7290    5.9810   23.9380 O   0  0  0  0  0  0  0  0  0  0  0  0
   11.8540    6.1800   24.7870 C   0  0  0  0  0  0  0  0  0  0  0  0
   10.6000   -3.9550   25.6230 C   0  0  0  0  0  0  0  0  0  0  0  0
    6.3060    0.4590   17.8610 N   0  0  0  0  0  0  0  0  0  0  0  0
    5.1550    1.1350   17.7450 C   0  0  0  0  0  0  0  0  0  0  0  0
    4.2610    1.5030   18.8960 C   0  0  0  0  0  0  0  0  0  0  0  0
    4.8000    1.0490   20.2200 C   0  0  0  0  0  0  0  0  0  0  0  0
    5.9910    0.3780   20.2640 C   0  0  0  0  0  0  0  0  0  0  0  0
    6.6910    0.1020   19.0980 C   0  0  0  0  0  0  0  0  0  0  0  0
    9.7700   -1.0020   24.1510 N   0  0  0  0  0  0  0  0  0  0  0  0
    8.4910   -1.0240   23.6760 N   0  0  0  0  0  0  0  0  0  0  0  0
    8.3170   -1.4270   22.3570 C   0  0  0  0  0  0  0  0  0  0  0  0
    9.6760   -1.6790   22.0280 C   0  0  0  0  0  0  0  0  0  0  0  0
   10.5320   -1.4050   23.1180 C   0  0  0  0  0  0  0  0  0  0  0  0
    9.3970    3.5020   23.5240 C   0  0  0  0  0  0  0  0  0  0  0  0
   10.1860    4.7090   23.7920 C   0  0  0  0  0  0  0  0  0  0  0  0
    9.2860    5.7080   23.2570 C   0  0  0  0  0  0  0  0  0  0  0  0
    8.0320    5.5700   22.6590 C   0  0  0  0  0  0  0  0  0  0  0  0
    7.4360    4.3670   22.4920 C   0  0  0  0  0  0  0  0  0  0  0  0
    8.1280    3.2880   22.9380 C   0  0  0  0  0  0  0  0  0  0  0  0
    9.5210   -4.2780   24.6350 C   0  0  0  0  0  0  0  0  0  0  0  0
    8.9810   -3.3100   23.8580 C   0  0  0  0  0  0  0  0  0  0  0  0
    7.9550   -3.4630   22.8900 C   0  0  0  0  0  0  0  0  0  0  0  0
    7.7820   -4.8520   23.0680 C   0  0  0  0  0  0  0  0  0  0  0  0
    8.1540   -6.0480   23.7310 C   0  0  0  0  0  0  0  0  0  0  0  0
    9.1260   -5.5410   24.5600 C   0  0  0  0  0  0  0  0  0  0  0  0
    1.4420   -6.9790   23.7210 O   0  0  0  0  0  0  0  0  0  0  0  0
    3.6500   -8.3860   24.0520 O   0  0  0  0  0  0  0  0  0  0  0  0
    6.1930   -4.2110   26.6040 O   0  0  0  0  0  0  0  0  0  0  0  0
    4.2920   -5.6400   27.4390 O   0  0  0  0  0  0  0  0  0  0  0  0
    5.4310   -1.5260   26.4540 F   0  0  0  0  0  0  0  0  0  0  0  0
    4.8400   -4.7000   26.4950 S   0  0  0  0  0  0  0  0  0  0  0  0
    4.5310   -5.3170   24.9120 C   0  0  0  0  0  0  0  0  0  0  0  0
    4.7990   -5.4360   23.4570 C   0  0  2  0  0  0  0  0  0  0  0  0
    3.7650   -6.0800   22.6620 C   0  0  0  0  0  0  0  0  0  0  0  0
    3.0120   -6.9720   23.9410 S   0  0  0  0  0  0  0  0  0  0  0  0
    3.5250   -6.1290   25.2470 C   0  0  0  0  0  0  0  0  0  0  0  0
    4.2110   -1.9870   26.3280 C   0  0  0  0  0  0  0  0  0  0  0  0
    3.7080   -3.4010   26.3220 C   0  0  0  0  0  0  0  0  0  0  0  0
    2.2190   -3.6820   26.1510 C   0  0  0  0  0  0  0  0  0  0  0  0
    1.3970   -2.5600   26.0130 C   0  0  0  0  0  0  0  0  0  0  0  0
    1.9070   -1.2670   26.0290 C   0  0  0  0  0  0  0  0  0  0  0  0
    3.2580   -1.0040   26.1790 C   0  0  0  0  0  0  0  0  0  0  0  0
    7.0830   -6.3020   22.7450 C   0  0  0  0  0  0  0  0  0  0  0  0
    5.9310   -6.3830   23.4740 C   0  0  0  0  0  0  0  0  0  0  0  0
  4  2  1  6
  1  7  1  0
  3  7  2  0
  4  7  1  0
  1  8  1  0
  5  9  1  0
  6  9  2  0
  8  9  1  6
 10 11  1  0
 13 14  1  0
 13 15  1  0
 13 16  1  0
 15 17  1  0
 18 19  1  0
 21 22  2  0
 22 23  1  0
 23 24  2  0
  8 25  1  0
 24 25  1  0
 21 26  1  0
 25 26  2  0
 27 28  1  0
  1 29  1  0
 28 29  1  0
 29 30  2  0
 13 31  1  0
 27 31  2  0
 30 31  1  0
 10 32  1  0
 18 33  1  0
 32 33  2  0
 33 34  1  0
 34 35  2  0
 12 36  1  0
 35 36  1  0
  5 37  1  0
 32 37  1  0
 36 37  2  0
 20 38  1  0
 38 39  2  0
  4 40  1  0
 39 40  1  0
 40 41  2  0
 41 42  1  0
 38 43  1  0
 42 43  2  0
 46 49  2  0
 47 49  2  0
 49 50  1  0
 50 51  1  0
 51 52  1  0
 53 44  1  0
 45 53  1  0
 52 53  1  0
 50 54  2  0
 53 54  1  0
 48 55  1  0
 49 56  1  0
 55 56  2  0
 56 57  1  0
 57 58  2  0
 58 59  1  0
 55 60  1  0
 59 60  2  0
 42 61  1  0
 51 62  1  1
 61 62  1  0
M  END
