x2703-x2776
     RDKit          3D

 36 38  0  0  0  0  0  0  0  0999 V2000
    6.9130   -1.6390   21.6590 N   0  0  0  0  0  0  0  0  0  0  0  0
    6.7400   -4.9500   20.4770 C   0  0  0  0  0  0  0  0  0  0  0  0
    4.8210   -2.9620   21.0750 O   0  0  0  0  0  0  0  0  0  0  0  0
    6.7450   -4.1220   21.7790 C   0  0  0  0  0  0  0  0  0  0  0  0
    7.4620    1.9670   22.6830 N   0  0  0  0  0  0  0  0  0  0  0  0
    8.9200    0.4840   21.5950 O   0  0  0  0  0  0  0  0  0  0  0  0
    6.0540   -2.8250   21.4720 C   0  0  0  0  0  0  0  0  0  0  0  0
   10.7700    6.4760   23.7220 O   0  0  0  0  0  0  0  0  0  0  0  0
    6.4960   -0.1930   21.5470 C   0  0  1  0  0  0  0  0  0  0  0  0
   12.3710   -2.8900   24.9230 O   0  0  0  0  0  0  0  0  0  0  0  0
    7.7600    0.7200   21.9220 C   0  0  0  0  0  0  0  0  0  0  0  0
   10.3270    1.8280   23.9730 C   0  0  0  0  0  0  0  0  0  0  0  0
   11.7680    6.3890   24.7450 C   0  0  0  0  0  0  0  0  0  0  0  0
   12.0650   -1.5580   24.5420 C   0  0  1  0  0  0  0  0  0  0  0  0
   13.1140   -1.0490   23.5370 C   0  0  0  0  0  0  0  0  0  0  0  0
   13.6160   -2.9880   25.4330 C   0  0  0  0  0  0  0  0  0  0  0  0
    9.5150    1.1400   24.8720 C   0  0  0  0  0  0  0  0  0  0  0  0
    6.4820    4.6290   21.9310 C   0  0  0  0  0  0  0  0  0  0  0  0
    6.3400    0.5440   17.7540 N   0  0  0  0  0  0  0  0  0  0  0  0
    5.2340    1.2980   17.7370 C   0  0  0  0  0  0  0  0  0  0  0  0
    4.5130    1.5740   18.8590 C   0  0  0  0  0  0  0  0  0  0  0  0
    4.9040    1.0880   20.0870 C   0  0  0  0  0  0  0  0  0  0  0  0
    6.0450    0.3070   20.2070 C   0  0  0  0  0  0  0  0  0  0  0  0
    6.6860    0.0910   18.9790 C   0  0  0  0  0  0  0  0  0  0  0  0
    9.5780    3.0340   23.5040 C   0  0  0  0  0  0  0  0  0  0  0  0
   10.4210    4.0470   23.7810 C   0  0  0  0  0  0  0  0  0  0  0  0
    9.9490    5.3160   23.4500 C   0  0  0  0  0  0  0  0  0  0  0  0
    8.6770    5.4770   22.8520 C   0  0  0  0  0  0  0  0  0  0  0  0
    7.8390    4.3840   22.5770 C   0  0  0  0  0  0  0  0  0  0  0  0
    8.3020    3.1140   22.9220 C   0  0  0  0  0  0  0  0  0  0  0  0
    9.3520   -2.0020   21.7950 C   0  0  0  0  0  0  0  0  0  0  0  0
   10.6140   -2.0080   22.3910 C   0  0  0  0  0  0  0  0  0  0  0  0
   10.7500   -1.6030   23.8710 C   0  0  0  0  0  0  0  0  0  0  0  0
    9.4150   -1.2360   24.5920 C   0  0  0  0  0  0  0  0  0  0  0  0
    8.0700   -1.2550   23.8610 C   0  0  0  0  0  0  0  0  0  0  0  0
    8.1780   -1.6620   22.3920 C   0  0  0  0  0  0  0  0  0  0  0  0
  2  4  1  0
  1  7  1  0
  3  7  2  0
  4  7  1  0
  1  9  1  0
  5 11  1  0
  6 11  2  0
  9 11  1  6
  8 13  1  0
 10 14  1  0
 14 15  1  6
 10 16  1  0
 12 17  1  0
 19 20  2  0
 20 21  1  0
 21 22  2  0
  9 23  1  0
 22 23  1  0
 19 24  1  0
 23 24  2  0
 12 25  1  0
 25 26  2  0
  8 27  1  0
 26 27  1  0
 27 28  2  0
 18 29  1  0
 28 29  1  0
  5 30  1  0
 25 30  1  0
 29 30  2  0
 31 32  2  0
 14 33  1  0
 32 33  1  0
 33 34  2  0
 34 35  1  0
  1 36  1  0
 31 36  1  0
 35 36  2  0
M  END
