x2705-x1380-x0786
     RDKit          3D

 56 61  0  0  0  0  0  0  0  0999 V2000
    3.5030   -8.2480   24.6910 O   0  0  0  0  0  0  0  0  0  0  0  0
    3.1220   -7.2290   24.1320 C   0  0  0  0  0  0  0  0  0  0  0  0
    5.8340   -4.6610   23.0780 C   0  0  0  0  0  0  0  0  0  0  0  0
    4.8320   -5.8590   23.0040 C   0  0  0  0  0  0  0  0  0  0  0  0
    4.0730   -6.1420   24.0840 C   0  0  0  0  0  0  0  0  0  0  0  0
    4.2450   -5.3000   25.2400 C   0  0  0  0  0  0  0  0  0  0  0  0
    5.2560   -4.1810   25.1660 C   0  0  0  0  0  0  0  0  0  0  0  0
    6.1460   -3.7330   24.1410 C   0  0  0  0  0  0  0  0  0  0  0  0
    1.4660   -5.6600   23.3470 C   0  0  0  0  0  0  0  0  0  0  0  0
    0.5290   -5.0700   24.3970 C   0  0  0  0  0  0  0  0  0  0  0  0
   -1.0210   -6.0130   24.5000 S   0  0  0  0  0  0  0  0  0  0  0  0
   -0.2480   -7.6430   24.7800 C   0  0  0  0  0  0  0  0  0  0  0  0
    0.7810   -8.0320   23.7170 C   0  0  0  0  0  0  0  0  0  0  0  0
    1.8620   -7.0500   23.5880 N   0  0  0  0  0  0  0  0  0  0  0  0
    7.8030   -4.3410   26.7020 C   0  0  0  0  0  0  0  0  0  0  0  0
    7.7460   -5.6500   27.4560 C   0  0  0  0  0  0  0  0  0  0  0  0
    7.1490   -5.3830   28.8360 C   0  0  0  0  0  0  0  0  0  0  0  0
    5.8250   -4.6190   28.7900 C   0  0  0  0  0  0  0  0  0  0  0  0
    5.9230   -3.3950   27.8820 C   0  0  0  0  0  0  0  0  0  0  0  0
    6.4340   -3.8490   26.5870 N   0  0  0  0  0  0  0  0  0  0  0  0
    6.2030   -2.9750   25.4370 C   0  0  1  0  0  0  0  0  0  0  0  0
    7.0700   -1.3300   21.4300 N   0  0  0  0  0  0  0  0  0  0  0  0
    6.7560   -4.0260   20.1220 C   0  0  0  0  0  0  0  0  0  0  0  0
    5.0290   -3.3000   21.2320 O   0  0  0  0  0  0  0  0  0  0  0  0
    6.9970   -3.2780   21.2100 C   0  0  0  0  0  0  0  0  0  0  0  0
    7.4410    2.0660   22.6950 N   0  0  0  0  0  0  0  0  0  0  0  0
    8.7720    1.1760   21.0550 O   0  0  0  0  0  0  0  0  0  0  0  0
    5.8790   -2.2610   21.3420 C   0  0  0  0  0  0  0  0  0  0  0  0
    6.7270    0.1440   21.3790 C   0  0  1  0  0  0  0  0  0  0  0  0
    7.7220    1.1310   21.6990 C   0  0  0  0  0  0  0  0  0  0  0  0
   10.0520    2.2040   23.9050 C   0  0  0  0  0  0  0  0  0  0  0  0
    9.1620    1.5870   24.7680 C   0  0  0  0  0  0  0  0  0  0  0  0
    6.1240    4.6060   21.7330 C   0  0  0  0  0  0  0  0  0  0  0  0
   11.9770   -1.6250   23.1270 C   0  0  0  0  0  0  0  0  0  0  0  0
   12.5310   -0.2490   23.5940 C   0  0  0  0  0  0  0  0  0  0  0  0
   12.4660   -2.6600   24.1480 C   0  0  0  0  0  0  0  0  0  0  0  0
   12.6960   -1.9680   21.8020 C   0  0  0  0  0  0  0  0  0  0  0  0
    6.2980    0.5820   17.6970 N   0  0  0  0  0  0  0  0  0  0  0  0
    5.1740    1.3170   17.7070 C   0  0  0  0  0  0  0  0  0  0  0  0
    4.4860    1.6900   18.8330 C   0  0  0  0  0  0  0  0  0  0  0  0
    4.9850    1.2980   20.0420 C   0  0  0  0  0  0  0  0  0  0  0  0
    6.1560    0.5460   20.0720 C   0  0  0  0  0  0  0  0  0  0  0  0
    6.7620    0.2100   18.8900 C   0  0  0  0  0  0  0  0  0  0  0  0
    9.6240   -1.3520   23.9750 N   0  0  0  0  0  0  0  0  0  0  0  0
    8.3800   -1.2730   23.4930 N   0  0  0  0  0  0  0  0  0  0  0  0
    8.3070   -1.4240   22.1760 C   0  0  0  0  0  0  0  0  0  0  0  0
    9.6420   -1.6160   21.8230 C   0  0  0  0  0  0  0  0  0  0  0  0
   10.4360   -1.5410   22.9760 C   0  0  0  0  0  0  0  0  0  0  0  0
    9.3570    3.4250   23.4030 C   0  0  0  0  0  0  0  0  0  0  0  0
   10.0120    4.6640   23.5400 C   0  0  0  0  0  0  0  0  0  0  0  0
    9.4070    5.8410   23.0950 C   0  0  0  0  0  0  0  0  0  0  0  0
    8.1460    5.7750   22.5150 C   0  0  0  0  0  0  0  0  0  0  0  0
    7.4830    4.5410   22.3750 C   0  0  0  0  0  0  0  0  0  0  0  0
    8.0800    3.3520   22.8150 C   0  0  0  0  0  0  0  0  0  0  0  0
    7.2680   -1.9370   25.5370 C   0  0  0  0  0  0  0  0  0  0  0  0
    7.2850   -1.0250   24.3690 C   0  0  0  0  0  0  0  0  0  0  0  0
  1  2  2  0
  3  4  2  0
  2  5  1  0
  4  5  1  0
  5  6  2  0
  6  7  1  0
  3  8  1  0
  7  8  2  0
  9 10  1  0
 10 11  1  0
 11 12  1  0
 12 13  1  0
  2 14  1  0
  9 14  1  0
 13 14  1  0
 15 16  1  0
 16 17  1  0
 17 18  1  0
 18 19  1  0
 15 20  1  0
 19 20  1  0
  8 21  1  0
 20 21  1  0
 23 25  1  0
 22 28  1  0
 24 28  2  0
 25 28  1  0
 22 29  1  0
 26 30  1  0
 27 30  2  0
 29 30  1  6
 31 32  1  0
 34 35  1  0
 34 36  1  0
 34 37  1  0
 38 39  2  0
 39 40  1  0
 40 41  2  0
 29 42  1  0
 41 42  1  0
 38 43  1  0
 42 43  2  0
 44 45  1  0
 22 46  1  0
 45 46  1  0
 46 47  2  0
 34 48  1  0
 44 48  2  0
 47 48  1  0
 31 49  1  0
 49 50  2  0
 50 51  1  0
 51 52  2  0
 33 53  1  0
 52 53  1  0
 26 54  1  0
 49 54  1  0
 53 54  2  0
 21 55  1  6
 45 56  1  0
 55 56  1  0
M  END
