x2705-x3124
     RDKit          3D

 34 36  0  0  0  0  0  0  0  0999 V2000
    7.0020   -1.6020   21.7640 N   0  0  0  0  0  0  0  0  0  0  0  0
    6.8270   -4.9110   20.4940 C   0  0  0  0  0  0  0  0  0  0  0  0
    4.8690   -3.0560   21.2290 O   0  0  0  0  0  0  0  0  0  0  0  0
    6.9000   -4.1140   21.8020 C   0  0  0  0  0  0  0  0  0  0  0  0
    7.3350    1.8360   22.7880 N   0  0  0  0  0  0  0  0  0  0  0  0
    8.7410    0.7290   21.3950 O   0  0  0  0  0  0  0  0  0  0  0  0
    6.1460   -2.8350   21.5730 C   0  0  0  0  0  0  0  0  0  0  0  0
    6.5890   -0.1330   21.5960 C   0  0  1  0  0  0  0  0  0  0  0  0
    7.6320    0.8030   21.9070 C   0  0  0  0  0  0  0  0  0  0  0  0
   10.2010    1.9820   23.9490 C   0  0  0  0  0  0  0  0  0  0  0  0
    9.3780    1.2210   24.7870 C   0  0  0  0  0  0  0  0  0  0  0  0
    6.0060    4.5490   21.8140 C   0  0  0  0  0  0  0  0  0  0  0  0
   11.9820   -1.5380   23.2060 C   0  0  0  0  0  0  0  0  0  0  0  0
   12.5290   -0.3500   23.7270 C   0  0  0  0  0  0  0  0  0  0  0  0
   12.4840   -2.7240   24.0560 C   0  0  0  0  0  0  0  0  0  0  0  0
   12.6490   -1.7640   21.8320 C   0  0  0  0  0  0  0  0  0  0  0  0
   13.3120   -2.4040   25.1330 C   0  0  0  0  0  0  0  0  0  0  0  0
    6.4020    0.3690   17.8360 N   0  0  0  0  0  0  0  0  0  0  0  0
    5.2180    1.2050   17.7740 C   0  0  0  0  0  0  0  0  0  0  0  0
    4.5040    1.5670   18.9000 C   0  0  0  0  0  0  0  0  0  0  0  0
    4.9220    1.1370   20.1430 C   0  0  0  0  0  0  0  0  0  0  0  0
    6.1670    0.2700   20.2490 C   0  0  0  0  0  0  0  0  0  0  0  0
    6.7840   -0.0310   19.0510 C   0  0  0  0  0  0  0  0  0  0  0  0
    9.7710   -1.5800   24.3180 N   0  0  0  0  0  0  0  0  0  0  0  0
    8.4020   -1.6060   23.9370 N   0  0  0  0  0  0  0  0  0  0  0  0
    8.2890   -1.6040   22.5910 C   0  0  0  0  0  0  0  0  0  0  0  0
    9.5670   -1.5820   22.0800 C   0  0  0  0  0  0  0  0  0  0  0  0
   10.4520   -1.5670   23.1340 C   0  0  0  0  0  0  0  0  0  0  0  0
    9.4510    3.1950   23.4670 C   0  0  0  0  0  0  0  0  0  0  0  0
   10.1130    4.4390   23.5690 C   0  0  0  0  0  0  0  0  0  0  0  0
    9.5790    5.6910   23.1670 C   0  0  0  0  0  0  0  0  0  0  0  0
    8.3070    5.6290   22.6360 C   0  0  0  0  0  0  0  0  0  0  0  0
    7.4400    4.4050   22.4430 C   0  0  0  0  0  0  0  0  0  0  0  0
    8.0260    3.0870   22.8870 C   0  0  0  0  0  0  0  0  0  0  0  0
  2  4  1  0
  1  7  1  0
  3  7  2  0
  4  7  1  0
  1  8  1  0
  5  9  1  0
  6  9  2  0
  8  9  1  6
 10 11  1  0
 13 14  1  0
 13 15  1  0
 13 16  1  0
 15 17  1  0
 18 19  2  0
 19 20  1  0
 20 21  2  0
  8 22  1  0
 21 22  1  0
 18 23  1  0
 22 23  2  0
 24 25  1  0
  1 26  1  0
 25 26  1  0
 26 27  2  0
 13 28  1  0
 24 28  2  0
 27 28  1  0
 10 29  1  0
 29 30  2  0
 30 31  1  0
 31 32  2  0
 12 33  1  0
 32 33  1  0
  5 34  1  0
 29 34  1  0
 33 34  2  0
M  END
