x2703-x3124
     RDKit          3D

 34 36  0  0  0  0  0  0  0  0999 V2000
    6.8500   -1.6430   21.8980 N   0  0  0  0  0  0  0  0  0  0  0  0
    6.7270   -4.9200   20.4940 C   0  0  0  0  0  0  0  0  0  0  0  0
    4.8140   -3.0120   21.2480 O   0  0  0  0  0  0  0  0  0  0  0  0
    6.8040   -4.1550   21.8260 C   0  0  0  0  0  0  0  0  0  0  0  0
    7.3050    1.8400   22.9140 N   0  0  0  0  0  0  0  0  0  0  0  0
    8.6880    0.5860   21.5140 O   0  0  0  0  0  0  0  0  0  0  0  0
    6.0540   -2.8620   21.6300 C   0  0  0  0  0  0  0  0  0  0  0  0
    6.3430   -0.2470   21.6760 C   0  0  1  0  0  0  0  0  0  0  0  0
    7.5690    0.7080   22.0050 C   0  0  0  0  0  0  0  0  0  0  0  0
    9.9980    1.8390   24.0540 C   0  0  0  0  0  0  0  0  0  0  0  0
    9.1030    1.1750   25.1190 C   0  0  0  0  0  0  0  0  0  0  0  0
    5.9470    4.2360   21.7950 C   0  0  0  0  0  0  0  0  0  0  0  0
   12.3010   -2.0540   23.8390 C   0  0  0  0  0  0  0  0  0  0  0  0
   12.6810   -2.6120   25.0380 C   0  0  0  0  0  0  0  0  0  0  0  0
   12.7590   -1.0150   24.9000 C   0  0  0  0  0  0  0  0  0  0  0  0
   13.2970   -2.1020   22.7060 C   0  0  0  0  0  0  0  0  0  0  0  0
    6.2910    0.3570   17.8930 N   0  0  0  0  0  0  0  0  0  0  0  0
    5.1680    1.0730   17.8100 C   0  0  0  0  0  0  0  0  0  0  0  0
    4.3800    1.3710   18.8840 C   0  0  0  0  0  0  0  0  0  0  0  0
    4.7570    0.9260   20.1390 C   0  0  0  0  0  0  0  0  0  0  0  0
    5.9260    0.1850   20.2990 C   0  0  0  0  0  0  0  0  0  0  0  0
    6.6460   -0.0690   19.1200 C   0  0  0  0  0  0  0  0  0  0  0  0
   10.5090   -2.0000   22.0340 N   0  0  0  0  0  0  0  0  0  0  0  0
   10.8460   -1.9530   23.4540 C   0  0  0  0  0  0  0  0  0  0  0  0
    9.7860   -1.8150   24.2860 C   0  0  0  0  0  0  0  0  0  0  0  0
    8.4650   -1.7210   23.8180 C   0  0  0  0  0  0  0  0  0  0  0  0
    8.1730   -1.7610   22.4520 C   0  0  0  0  0  0  0  0  0  0  0  0
    9.2310   -1.9040   21.6240 C   0  0  0  0  0  0  0  0  0  0  0  0
    9.3530    3.0980   23.5200 C   0  0  0  0  0  0  0  0  0  0  0  0
   10.0520    4.3020   23.5720 C   0  0  0  0  0  0  0  0  0  0  0  0
    9.6110    5.5570   23.1230 C   0  0  0  0  0  0  0  0  0  0  0  0
    8.2040    5.6070   22.4990 C   0  0  0  0  0  0  0  0  0  0  0  0
    7.3560    4.2940   22.4040 C   0  0  0  0  0  0  0  0  0  0  0  0
    8.0630    3.0510   22.9750 C   0  0  0  0  0  0  0  0  0  0  0  0
  2  4  1  0
  1  7  1  0
  3  7  2  0
  4  7  1  0
  1  8  1  0
  5  9  1  0
  6  9  2  0
  8  9  1  6
 10 11  1  0
 13 14  1  0
 13 15  1  0
 13 16  1  0
 17 18  2  0
 18 19  1  0
 19 20  2  0
  8 21  1  0
 20 21  1  0
 17 22  1  0
 21 22  2  0
 13 24  1  0
 23 24  2  0
 24 25  1  0
 25 26  2  0
  1 27  1  0
 26 27  1  0
 23 28  1  0
 27 28  2  0
 10 29  1  0
 29 30  2  0
 30 31  1  0
 31 32  2  0
 12 33  1  0
 32 33  1  0
  5 34  1  0
 29 34  1  0
 33 34  2  0
M  END
