x2703-x0734
     RDKit          3D

 47 51  0  0  0  0  0  0  0  0999 V2000
    6.7990   -1.5540   21.8100 N   0  0  0  0  0  0  0  0  0  0  0  0
    6.9060   -3.5300   19.5650 C   0  0  0  0  0  0  0  0  0  0  0  0
    4.7000   -2.9750   21.4430 O   0  0  0  0  0  0  0  0  0  0  0  0
    7.3710    1.7980   22.8560 N   0  0  0  0  0  0  0  0  0  0  0  0
    8.6090    0.5730   21.3440 O   0  0  0  0  0  0  0  0  0  0  0  0
    5.9770   -2.7580   21.4710 C   0  0  0  0  0  0  0  0  0  0  0  0
    6.4220   -0.2290   21.6090 C   0  0  1  0  0  0  0  0  0  0  0  0
    7.5670    0.7650   21.9600 C   0  0  0  0  0  0  0  0  0  0  0  0
   10.0130    1.9080   24.0960 C   0  0  0  0  0  0  0  0  0  0  0  0
    9.0790    1.3130   25.1480 C   0  0  0  0  0  0  0  0  0  0  0  0
    6.0310    4.3970   21.7050 C   0  0  0  0  0  0  0  0  0  0  0  0
   11.8810   -1.3480   24.5060 C   0  0  0  0  0  0  0  0  0  0  0  0
   12.6200   -2.7070   24.6860 C   0  0  0  0  0  0  0  0  0  0  0  0
   13.1260   -1.5030   23.7040 C   0  0  0  0  0  0  0  0  0  0  0  0
    5.0940   -4.7090   26.2340 N   0  0  0  0  0  0  0  0  0  0  0  0
    4.2110   -5.5410   25.5690 O   0  0  0  0  0  0  0  0  0  0  0  0
    4.7500   -3.5850   26.9460 O   0  0  0  0  0  0  0  0  0  0  0  0
    6.3570    0.4330   17.8170 N   0  0  0  0  0  0  0  0  0  0  0  0
    5.1170    1.2410   17.7850 C   0  0  0  0  0  0  0  0  0  0  0  0
    4.4060    1.4770   18.9460 C   0  0  0  0  0  0  0  0  0  0  0  0
    4.8210    0.9930   20.1600 C   0  0  0  0  0  0  0  0  0  0  0  0
    5.9780    0.2450   20.2590 C   0  0  0  0  0  0  0  0  0  0  0  0
    6.7670   -0.0700   19.1550 C   0  0  0  0  0  0  0  0  0  0  0  0
   10.6830   -1.7520   22.4480 N   0  0  0  0  0  0  0  0  0  0  0  0
   10.6910   -1.4330   23.7610 C   0  0  0  0  0  0  0  0  0  0  0  0
    9.5460   -1.1500   24.5010 C   0  0  0  0  0  0  0  0  0  0  0  0
    8.2060   -1.1950   23.8450 C   0  0  0  0  0  0  0  0  0  0  0  0
    8.1420   -1.5070   22.5430 C   0  0  0  0  0  0  0  0  0  0  0  0
    9.3220   -1.7870   21.8240 C   0  0  0  0  0  0  0  0  0  0  0  0
    9.3400    3.1370   23.5350 C   0  0  0  0  0  0  0  0  0  0  0  0
   10.0000    4.3540   23.6170 C   0  0  0  0  0  0  0  0  0  0  0  0
    9.4220    5.5090   23.1210 C   0  0  0  0  0  0  0  0  0  0  0  0
    8.1540    5.5040   22.5130 C   0  0  0  0  0  0  0  0  0  0  0  0
    7.3760    4.3090   22.3690 C   0  0  0  0  0  0  0  0  0  0  0  0
    8.0810    3.0510   22.9500 C   0  0  0  0  0  0  0  0  0  0  0  0
    6.4140   -5.1690   26.3250 C   0  0  0  0  0  0  0  0  0  0  0  0
    7.1820   -5.0280   25.0240 C   0  0  0  0  0  0  0  0  0  0  0  0
    8.6000   -5.5940   25.2860 C   0  0  0  0  0  0  0  0  0  0  0  0
    8.9920   -6.1060   26.5160 C   0  0  0  0  0  0  0  0  0  0  0  0
    8.1730   -6.1510   27.6190 C   0  0  0  0  0  0  0  0  0  0  0  0
    6.8830   -5.6860   27.5240 C   0  0  0  0  0  0  0  0  0  0  0  0
    6.7770   -3.9300   21.0360 C   0  0  0  0  0  0  0  0  0  0  0  0
    6.1030   -5.2740   21.4700 C   0  0  0  0  0  0  0  0  0  0  0  0
    5.7850   -5.2690   22.9890 C   0  0  0  0  0  0  0  0  0  0  0  0
    6.7290   -4.4950   23.8280 N   0  0  0  0  0  0  0  0  0  0  0  0
    7.6370   -3.4870   23.3010 C   0  0  0  0  0  0  0  0  0  0  0  0
    8.0450   -3.8670   21.9060 C   0  0  0  0  0  0  0  0  0  0  0  0
  1  6  1  0
  3  6  2  0
  1  7  1  0
  4  8  1  0
  5  8  2  0
  7  8  1  6
  9 10  1  0
 12 13  1  0
 12 14  1  0
 15 16  2  0
 15 17  1  0
 18 19  2  0
 19 20  1  0
 20 21  2  0
  7 22  1  0
 21 22  1  0
 18 23  1  0
 22 23  2  0
 12 25  1  0
 24 25  2  0
 25 26  1  0
 26 27  2  0
  1 28  1  0
 27 28  1  0
 24 29  1  0
 28 29  2  0
  9 30  1  0
 30 31  2  0
 31 32  1  0
 32 33  2  0
 11 34  1  0
 33 34  1  0
  4 35  1  0
 30 35  1  0
 34 35  2  0
 15 36  1  0
 36 37  2  0
 37 38  1  0
 38 39  2  0
 39 40  1  0
 36 41  1  0
 40 41  2  0
 42  2  1  0
  6 42  1  0
 42 43  1  0
 43 44  1  0
 37 45  1  0
 44 45  1  0
 45 46  1  0
 42 47  1  0
 46 47  1  0
M  CHG  2  15   1  17  -1
M  END
