x2705-x0981-x0978-x1077
     RDKit          3D

 54 57  0  0  0  0  0  0  0  0999 V2000
    7.0480   -1.6760   21.7480 N   0  0  0  0  0  0  0  0  0  0  0  0
    6.7150   -4.8130   20.3460 C   0  0  0  0  0  0  0  0  0  0  0  0
    4.8270   -2.9870   21.1890 O   0  0  0  0  0  0  0  0  0  0  0  0
    6.6780   -4.2980   21.5930 C   0  0  1  0  0  0  0  0  0  0  0  0
    7.4050    1.9660   22.6380 N   0  0  0  0  0  0  0  0  0  0  0  0
    8.8310    0.7970   21.3520 O   0  0  0  0  0  0  0  0  0  0  0  0
    6.1110   -2.8980   21.5110 C   0  0  0  0  0  0  0  0  0  0  0  0
    6.5900   -0.2350   21.5950 C   0  0  1  0  0  0  0  0  0  0  0  0
    7.7140    0.8770   21.8520 C   0  0  0  0  0  0  0  0  0  0  0  0
   10.2530    2.2010   23.6320 C   0  0  0  0  0  0  0  0  0  0  0  0
    9.6000    1.2240   24.4160 C   0  0  0  0  0  0  0  0  0  0  0  0
    5.8850    4.3900   21.8300 C   0  0  0  0  0  0  0  0  0  0  0  0
   12.0840   -1.4950   23.3040 C   0  0  0  0  0  0  0  0  0  0  0  0
   12.4870   -0.0190   23.8780 C   0  0  0  0  0  0  0  0  0  0  0  0
   12.6690   -2.5130   24.3150 C   0  0  0  0  0  0  0  0  0  0  0  0
   12.7870   -1.6750   21.9320 C   0  0  0  0  0  0  0  0  0  0  0  0
    1.2730   -8.3180   21.7140 C   0  0  0  0  0  0  0  0  0  0  0  0
    2.4980   -6.5660   22.9880 N   0  0  0  0  0  0  0  0  0  0  0  0
    0.7520   -5.9740   21.7690 O   0  0  0  0  0  0  0  0  0  0  0  0
    1.2680   -7.0190   22.5490 C   0  0  0  0  0  0  0  0  0  0  0  0
    2.8300   -7.9660   26.6680 N   0  0  0  0  0  0  0  0  0  0  0  0
    3.1730   -8.6390   24.4590 O   0  0  0  0  0  0  0  0  0  0  0  0
    3.4120   -5.8620   23.7390 C   0  0  1  0  0  0  0  0  0  0  0  0
    5.7530   -5.2260   22.4760 N   0  0  0  0  0  0  0  0  0  0  0  0
    4.0860   -3.7820   22.8160 O   0  0  0  0  0  0  0  0  0  0  0  0
    4.0370   -6.4910   24.9450 C   0  0  0  0  0  0  0  0  0  0  0  0
    3.3270   -7.7810   25.2910 C   0  0  0  0  0  0  0  0  0  0  0  0
    4.4720   -4.9290   22.9510 C   0  0  0  0  0  0  0  0  0  0  0  0
    0.1640   -7.0140   23.5930 C   0  0  0  0  0  0  0  0  0  0  0  0
    6.3820    0.3650   17.8210 N   0  0  0  0  0  0  0  0  0  0  0  0
    5.2790    1.1260   17.8050 C   0  0  0  0  0  0  0  0  0  0  0  0
    4.5380    1.4830   18.8820 C   0  0  0  0  0  0  0  0  0  0  0  0
    4.9850    1.0180   20.0920 C   0  0  0  0  0  0  0  0  0  0  0  0
    6.1310    0.2220   20.2250 C   0  0  0  0  0  0  0  0  0  0  0  0
    6.8820   -0.1520   19.1090 C   0  0  0  0  0  0  0  0  0  0  0  0
    9.5970   -1.8960   24.2180 N   0  0  0  0  0  0  0  0  0  0  0  0
    8.3630   -1.9460   23.8460 N   0  0  0  0  0  0  0  0  0  0  0  0
    8.3000   -1.7230   22.5110 C   0  0  0  0  0  0  0  0  0  0  0  0
    9.6390   -1.5300   22.0910 C   0  0  0  0  0  0  0  0  0  0  0  0
   10.5580   -1.6210   23.1440 C   0  0  0  0  0  0  0  0  0  0  0  0
    9.4370    3.3960   23.2410 C   0  0  0  0  0  0  0  0  0  0  0  0
   10.0450    4.6580   23.3610 C   0  0  0  0  0  0  0  0  0  0  0  0
    9.3830    5.8330   23.0180 C   0  0  0  0  0  0  0  0  0  0  0  0
    8.0710    5.8250   22.5280 C   0  0  0  0  0  0  0  0  0  0  0  0
    7.3210    4.4910   22.3630 C   0  0  0  0  0  0  0  0  0  0  0  0
    8.0980    3.2370   22.7660 C   0  0  0  0  0  0  0  0  0  0  0  0
    6.8890   -4.4440   25.0900 O   0  0  0  0  0  0  0  0  0  0  0  0
    7.4010   -5.5090   24.3190 C   0  0  2  0  0  0  0  0  0  0  0  0
    8.8150   -5.2710   23.8360 C   0  0  0  0  0  0  0  0  0  0  0  0
    9.8360   -4.9170   24.7270 C   0  0  0  0  0  0  0  0  0  0  0  0
    9.4370   -4.0570   25.8230 N   0  0  0  0  0  0  0  0  0  0  0  0
    8.5480   -4.6990   26.7770 C   0  0  0  0  0  0  0  0  0  0  0  0
    7.1840   -4.5780   26.4910 C   0  0  0  0  0  0  0  0  0  0  0  0
    6.4840   -6.0090   23.3430 C   0  0  0  0  0  0  0  0  0  0  0  0
  4  2  1  6
  1  7  1  0
  3  7  2  0
  4  7  1  0
  1  8  1  0
  5  9  1  0
  6  9  2  0
  8  9  1  6
 10 11  1  0
 13 14  1  0
 13 15  1  0
 13 16  1  0
 17 20  1  0
 18 20  1  0
 20 19  1  0
 18 23  1  0
  4 24  1  0
 23 26  1  6
 21 27  1  0
 22 27  2  0
 26 27  1  0
 23 28  1  0
 24 28  1  0
 25 28  2  0
 20 29  1  0
 30 31  2  0
 31 32  1  0
 32 33  2  0
  8 34  1  0
 33 34  1  0
 30 35  1  0
 34 35  2  0
 36 37  1  0
  1 38  1  0
 37 38  2  0
 38 39  1  0
 13 40  1  0
 36 40  1  0
 39 40  2  0
 10 41  1  0
 41 42  2  0
 42 43  1  0
 43 44  2  0
 12 45  1  0
 44 45  1  0
  5 46  1  0
 41 46  1  0
 45 46  2  0
 47 48  1  0
 48 49  1  0
 49 50  1  0
 50 51  1  0
 51 52  1  0
 47 53  1  0
 52 53  1  0
 24 54  1  0
 48 54  1  6
M  END
