x2705-x3117-x2694-x2754
     RDKit          3D

 51 56  0  0  0  0  0  0  0  0999 V2000
    7.1460   -1.5890   21.5480 C   0  0  2  0  0  0  0  0  0  0  0  0
    7.9070   -4.4450   21.1160 C   0  0  0  0  0  0  0  0  0  0  0  0
    4.9000   -3.0080   20.6480 O   0  0  0  0  0  0  0  0  0  0  0  0
    7.6450    1.9480   22.8170 N   0  0  0  0  0  0  0  0  0  0  0  0
    8.8020    1.1940   21.0520 O   0  0  0  0  0  0  0  0  0  0  0  0
    6.0520   -2.7990   21.2000 C   0  0  0  0  0  0  0  0  0  0  0  0
    6.6960   -0.0500   21.5070 C   0  0  1  0  0  0  0  0  0  0  0  0
    7.8180    1.0530   21.7710 C   0  0  0  0  0  0  0  0  0  0  0  0
   10.0830    1.9200   23.9390 C   0  0  0  0  0  0  0  0  0  0  0  0
    9.2330    1.2250   25.0050 C   0  0  0  0  0  0  0  0  0  0  0  0
    6.2210    4.6150   21.8870 C   0  0  0  0  0  0  0  0  0  0  0  0
   12.2440   -1.5750   23.1830 C   0  0  0  0  0  0  0  0  0  0  0  0
   12.7450   -0.2550   23.8070 C   0  0  0  0  0  0  0  0  0  0  0  0
   12.7420   -2.7910   23.9650 C   0  0  0  0  0  0  0  0  0  0  0  0
   12.8820   -1.7120   21.7910 C   0  0  0  0  0  0  0  0  0  0  0  0
   10.6770    6.7970   23.7680 O   0  0  0  0  0  0  0  0  0  0  0  0
   11.7200    6.4960   24.7060 C   0  0  0  0  0  0  0  0  0  0  0  0
   13.3570   -2.5480   25.3410 C   0  0  0  0  0  0  0  0  0  0  0  0
    4.7960   -3.5140   25.6760 C   0  0  0  0  0  0  0  0  0  0  0  0
    3.5770   -3.4650   25.5010 O   0  0  0  0  0  0  0  0  0  0  0  0
    5.4680   -3.2510   26.8690 N   0  0  0  0  0  0  0  0  0  0  0  0
    5.0970   -2.1570   27.7670 C   0  0  0  0  0  0  0  0  0  0  0  0
    6.3110    0.4140   17.8160 N   0  0  0  0  0  0  0  0  0  0  0  0
    5.1540    1.1080   17.7970 C   0  0  0  0  0  0  0  0  0  0  0  0
    4.4040    1.4540   18.9200 C   0  0  0  0  0  0  0  0  0  0  0  0
    4.8970    1.0630   20.1500 C   0  0  0  0  0  0  0  0  0  0  0  0
    6.0900    0.3620   20.2040 C   0  0  0  0  0  0  0  0  0  0  0  0
    6.7470    0.0590   19.0240 C   0  0  0  0  0  0  0  0  0  0  0  0
    9.9680   -1.1810   24.1270 N   0  0  0  0  0  0  0  0  0  0  0  0
    8.6870   -1.1980   23.6670 N   0  0  0  0  0  0  0  0  0  0  0  0
    8.5620   -1.5300   22.3270 C   0  0  0  0  0  0  0  0  0  0  0  0
    9.8910   -1.7290   22.0030 C   0  0  0  0  0  0  0  0  0  0  0  0
   10.7330   -1.5060   23.0790 C   0  0  0  0  0  0  0  0  0  0  0  0
    9.4530    3.2240   23.5250 C   0  0  0  0  0  0  0  0  0  0  0  0
   10.2120    4.3590   23.7680 C   0  0  0  0  0  0  0  0  0  0  0  0
    9.7840    5.7970   23.4390 C   0  0  0  0  0  0  0  0  0  0  0  0
    8.3810    5.8690   22.7780 C   0  0  0  0  0  0  0  0  0  0  0  0
    7.5950    4.5640   22.5360 C   0  0  0  0  0  0  0  0  0  0  0  0
    8.2590    3.2410   22.9740 C   0  0  0  0  0  0  0  0  0  0  0  0
    6.6750   -3.8870   21.8540 C   0  0  2  0  0  0  0  0  0  0  0  0
    6.8370   -2.6320   22.7690 C   0  0  2  0  0  0  0  0  0  0  0  0
    5.5830   -2.6130   23.6070 C   0  0  0  0  0  0  0  0  0  0  0  0
    5.6800   -3.8720   24.4870 C   0  0  2  0  0  0  0  0  0  0  0  0
    5.2530   -5.0960   23.6900 C   0  0  0  0  0  0  0  0  0  0  0  0
    5.5930   -4.9480   22.1990 C   0  0  0  0  0  0  0  0  0  0  0  0
    7.2190   -4.7670   27.7420 C   0  0  0  0  0  0  0  0  0  0  0  0
    8.5410   -5.2060   27.7940 C   0  0  0  0  0  0  0  0  0  0  0  0
    9.5190   -4.5820   27.0370 C   0  0  0  0  0  0  0  0  0  0  0  0
    9.1720   -3.5140   26.2240 C   0  0  0  0  0  0  0  0  0  0  0  0
    7.8480   -3.0720   26.1720 C   0  0  0  0  0  0  0  0  0  0  0  0
    6.8380   -3.6920   26.9310 C   0  0  0  0  0  0  0  0  0  0  0  0
  1  6  1  0
  3  6  2  0
  1  7  1  0
  4  8  1  0
  5  8  2  0
  7  8  1  6
  9 10  1  0
 12 13  1  0
 12 14  1  0
 12 15  1  0
 16 17  1  0
 14 18  1  0
 19 20  2  0
 19 21  1  0
 21 22  1  0
 23 24  2  0
 24 25  1  0
 25 26  2  0
  7 27  1  0
 26 27  1  0
 23 28  1  0
 27 28  2  0
 29 30  1  0
  1 31  1  1
 30 31  1  0
 31 32  2  0
 12 33  1  0
 29 33  2  0
 32 33  1  0
  9 34  1  0
 34 35  2  0
 16 36  1  0
 35 36  1  0
 36 37  2  0
 11 38  1  0
 37 38  1  0
  4 39  1  0
 34 39  1  0
 38 39  2  0
 40  2  1  6
  6 40  1  0
  1 41  1  0
 40 41  1  0
 41 42  1  6
 43 19  1  1
 42 43  1  0
 43 44  1  0
 40 45  1  0
 44 45  1  0
 46 47  2  0
 47 48  1  0
 48 49  2  0
 49 50  1  0
 21 51  1  0
 46 51  1  0
 50 51  2  0
M  END
