x2703-x1311
     RDKit          3D

 47 51  0  0  0  0  0  0  0  0999 V2000
    7.0050   -1.6860   21.5130 N   0  0  0  0  0  0  0  0  0  0  0  0
    6.9740   -5.2020   20.7060 C   0  0  0  0  0  0  0  0  0  0  0  0
    4.8590   -2.9870   21.0070 O   0  0  0  0  0  0  0  0  0  0  0  0
    6.5360   -4.3040   21.8710 C   0  0  2  0  0  0  0  0  0  0  0  0
    7.5120    1.5490   23.0450 N   0  0  0  0  0  0  0  0  0  0  0  0
    8.1300    0.8820   21.3090 O   0  0  0  0  0  0  0  0  0  0  0  0
    6.0980   -2.8910   21.4330 C   0  0  0  0  0  0  0  0  0  0  0  0
    6.4380   -0.3860   21.5190 C   0  0  1  0  0  0  0  0  0  0  0  0
    7.2780    0.7610   22.1930 C   0  0  0  0  0  0  0  0  0  0  0  0
   10.2200    1.8180   24.0150 C   0  0  0  0  0  0  0  0  0  0  0  0
    9.3530    1.1390   24.8820 C   0  0  0  0  0  0  0  0  0  0  0  0
    6.1000    3.9500   21.8800 C   0  0  0  0  0  0  0  0  0  0  0  0
   11.7830   -2.1800   24.6530 C   0  0  0  0  0  0  0  0  0  0  0  0
   13.2160   -2.4090   24.1740 C   0  0  0  0  0  0  0  0  0  0  0  0
   12.6890   -0.9120   24.7140 C   0  0  0  0  0  0  0  0  0  0  0  0
    6.5920    0.2730   18.0750 N   0  0  0  0  0  0  0  0  0  0  0  0
    5.3380    0.9990   17.8260 C   0  0  0  0  0  0  0  0  0  0  0  0
    4.3670    1.2830   18.7740 C   0  0  0  0  0  0  0  0  0  0  0  0
    4.6100    0.8600   20.0430 C   0  0  0  0  0  0  0  0  0  0  0  0
    5.7720    0.1960   20.3120 C   0  0  0  0  0  0  0  0  0  0  0  0
    6.8120   -0.1590   19.4720 C   0  0  0  0  0  0  0  0  0  0  0  0
   10.7090   -1.6440   22.5390 N   0  0  0  0  0  0  0  0  0  0  0  0
   10.6370   -2.0440   23.8290 C   0  0  0  0  0  0  0  0  0  0  0  0
    9.3130   -2.3710   24.4900 C   0  0  0  0  0  0  0  0  0  0  0  0
    8.0680   -2.2230   23.6080 C   0  0  0  0  0  0  0  0  0  0  0  0
    8.1910   -1.8150   22.2960 C   0  0  0  0  0  0  0  0  0  0  0  0
    9.5200   -1.5440   21.8400 C   0  0  0  0  0  0  0  0  0  0  0  0
    9.4830    3.0150   23.4540 C   0  0  0  0  0  0  0  0  0  0  0  0
   10.1190    4.2770   23.4230 C   0  0  0  0  0  0  0  0  0  0  0  0
    9.4210    5.3730   22.8980 C   0  0  0  0  0  0  0  0  0  0  0  0
    8.1160    5.2150   22.4060 C   0  0  0  0  0  0  0  0  0  0  0  0
    7.4980    3.9610   22.4420 C   0  0  0  0  0  0  0  0  0  0  0  0
    8.1720    2.8310   22.9770 C   0  0  0  0  0  0  0  0  0  0  0  0
    8.7580   -4.8210   22.9830 C   0  0  0  0  0  0  0  0  0  0  0  0
    9.5660   -5.0660   24.0970 C   0  0  0  0  0  0  0  0  0  0  0  0
    9.0750   -5.0420   25.3710 C   0  0  0  0  0  0  0  0  0  0  0  0
    7.7390   -4.7660   25.5600 C   0  0  0  0  0  0  0  0  0  0  0  0
    6.9180   -4.5250   24.4740 C   0  0  0  0  0  0  0  0  0  0  0  0
    7.4130   -4.5460   23.1580 C   0  0  0  0  0  0  0  0  0  0  0  0
    4.2860   -7.4770   25.2430 O   0  0  0  0  0  0  0  0  0  0  0  0
    2.2250   -5.8630   24.7310 O   0  0  0  0  0  0  0  0  0  0  0  0
    4.6220   -6.4940   22.2110 C   0  0  0  0  0  0  0  0  0  0  0  0
    5.3920   -5.7230   23.0180 C   0  0  0  0  0  0  0  0  0  0  0  0
    4.6070   -5.0090   23.8920 C   0  0  1  0  0  0  0  0  0  0  0  0
    3.5450   -6.3390   24.4040 S   0  0  0  0  0  0  0  0  0  0  0  0
    3.4850   -6.9530   22.7750 C   0  0  0  0  0  0  0  0  0  0  0  0
    5.4870   -4.2720   24.8660 C   0  0  0  0  0  0  0  0  0  0  0  0
  4  2  1  6
  1  7  1  0
  3  7  2  0
  4  7  1  0
  1  8  1  0
  5  9  1  0
  6  9  2  0
  8  9  1  6
 10 11  1  0
 13 14  1  0
 13 15  1  0
 16 17  2  0
 17 18  1  0
 18 19  2  0
  8 20  1  0
 19 20  1  0
 16 21  1  0
 20 21  2  0
 13 23  1  0
 22 23  2  0
 23 24  1  0
 24 25  2  0
  1 26  1  0
 25 26  1  0
 22 27  1  0
 26 27  2  0
 10 28  1  0
 28 29  2  0
 29 30  1  0
 30 31  2  0
 12 32  1  0
 31 32  1  0
  5 33  1  0
 28 33  1  0
 32 33  2  0
 34 35  2  0
 35 36  1  0
 36 37  2  0
 37 38  1  0
  4 39  1  0
 34 39  1  0
 38 39  2  0
 42 43  1  0
 43 44  1  0
 45 40  1  0
 41 45  1  0
 44 45  1  0
 42 46  2  0
 45 46  1  0
 38 47  1  0
 44 47  1  1
M  END
