x2703-x0820
     RDKit          3D

 44 49  0  0  0  0  0  0  0  0999 V2000
    7.2760   -1.8810   21.6020 C   0  0  2  0  0  0  0  0  0  0  0  0
    6.8690   -3.4190   19.6450 C   0  0  0  0  0  0  0  0  0  0  0  0
    4.9130   -3.3810   21.5330 O   0  0  0  0  0  0  0  0  0  0  0  0
    6.5860   -3.7710   21.1240 C   0  0  2  0  0  0  0  0  0  0  0  0
    7.4020    1.8670   22.9190 N   0  0  0  0  0  0  0  0  0  0  0  0
    9.0540    0.5670   21.4630 O   0  0  0  0  0  0  0  0  0  0  0  0
    5.8350   -2.5730   21.6380 C   0  0  0  0  0  0  0  0  0  0  0  0
    6.7810   -0.4260   21.7500 C   0  0  1  0  0  0  0  0  0  0  0  0
    7.7770    0.7140   22.0840 C   0  0  0  0  0  0  0  0  0  0  0  0
   10.0350    1.9030   24.0410 C   0  0  0  0  0  0  0  0  0  0  0  0
    9.1010    1.1920   25.0430 C   0  0  0  0  0  0  0  0  0  0  0  0
    5.9560    4.2980   21.7560 C   0  0  0  0  0  0  0  0  0  0  0  0
   12.0410   -1.5300   24.8560 C   0  0  0  0  0  0  0  0  0  0  0  0
   12.7550   -2.7230   25.0450 C   0  0  0  0  0  0  0  0  0  0  0  0
   13.3020   -1.6540   24.0830 C   0  0  0  0  0  0  0  0  0  0  0  0
    7.1680   -3.2610   22.4320 C   0  0  2  0  0  0  0  0  0  0  0  0
    6.4160    0.2810   17.8800 N   0  0  0  0  0  0  0  0  0  0  0  0
    5.1630    1.0640   17.9540 C   0  0  0  0  0  0  0  0  0  0  0  0
    4.5250    1.2940   19.1800 C   0  0  0  0  0  0  0  0  0  0  0  0
    5.0200    0.8180   20.4060 C   0  0  0  0  0  0  0  0  0  0  0  0
    6.2110    0.0750   20.4020 C   0  0  0  0  0  0  0  0  0  0  0  0
    6.9290   -0.2140   19.1480 C   0  0  0  0  0  0  0  0  0  0  0  0
   11.0630   -2.0450   22.6700 N   0  0  0  0  0  0  0  0  0  0  0  0
   10.8840   -1.6360   24.0480 C   0  0  0  0  0  0  0  0  0  0  0  0
    9.6110   -1.3570   24.5390 C   0  0  0  0  0  0  0  0  0  0  0  0
    8.4790   -1.4530   23.7130 C   0  0  0  0  0  0  0  0  0  0  0  0
    8.6400   -1.8330   22.4010 C   0  0  0  0  0  0  0  0  0  0  0  0
    9.8870   -2.1270   21.9010 C   0  0  0  0  0  0  0  0  0  0  0  0
    9.4050    3.1720   23.5020 C   0  0  0  0  0  0  0  0  0  0  0  0
   10.1920    4.3410   23.6000 C   0  0  0  0  0  0  0  0  0  0  0  0
    9.5770    5.6540   23.0610 C   0  0  0  0  0  0  0  0  0  0  0  0
    8.1460    5.6150   22.4440 C   0  0  0  0  0  0  0  0  0  0  0  0
    7.3330    4.3180   22.3590 C   0  0  0  0  0  0  0  0  0  0  0  0
    8.1290    3.1330   22.9580 C   0  0  0  0  0  0  0  0  0  0  0  0
    6.3000   -3.6660   23.7750 C   0  0  0  0  0  0  0  0  0  0  0  0
    6.8730   -3.9310   25.0590 C   0  0  0  0  0  0  0  0  0  0  0  0
    6.0540   -4.2770   26.1570 C   0  0  0  0  0  0  0  0  0  0  0  0
    4.6720   -4.3950   26.1050 C   0  0  0  0  0  0  0  0  0  0  0  0
    3.9720   -4.1350   24.7590 C   0  0  0  0  0  0  0  0  0  0  0  0
    4.8990   -3.7600   23.6040 C   0  0  0  0  0  0  0  0  0  0  0  0
    6.5670   -4.5840   27.6050 C   0  0  0  0  0  0  0  0  0  0  0  0
    8.0490   -4.5260   27.9110 C   0  0  0  0  0  0  0  0  0  0  0  0
    8.9060   -4.1570   26.7000 C   0  0  0  0  0  0  0  0  0  0  0  0
    8.2670   -3.8720   25.3220 C   0  0  0  0  0  0  0  0  0  0  0  0
  4  2  1  6
  1  7  1  0
  3  7  2  0
  4  7  1  0
  1  8  1  0
  5  9  1  0
  6  9  2  0
  8  9  1  6
 10 11  1  0
 13 14  1  0
 13 15  1  0
  1 16  1  0
  4 16  1  0
 17 18  2  0
 18 19  1  0
 19 20  2  0
  8 21  1  0
 20 21  1  0
 17 22  1  0
 21 22  2  0
 13 24  1  0
 23 24  2  0
 24 25  1  0
 25 26  2  0
  1 27  1  6
 26 27  1  0
 23 28  1  0
 27 28  2  0
 10 29  1  0
 29 30  2  0
 30 31  1  0
 31 32  2  0
 12 33  1  0
 32 33  1  0
  5 34  1  0
 29 34  1  0
 33 34  2  0
 16 35  1  1
 35 36  2  0
 36 37  1  0
 37 38  2  0
 38 39  1  0
 35 40  1  0
 39 40  2  0
 37 41  1  0
 41 42  2  0
 42 43  1  0
 36 44  1  0
 43 44  2  0
M  END
