x2703-x0978-x2694-x2754
     RDKit          3D

 63 68  0  0  0  0  0  0  0  0999 V2000
    7.0420   -1.4700   22.0480 C   0  0  2  0  0  0  0  0  0  0  0  0
    7.0710   -5.0850   21.1920 C   0  0  0  0  0  0  0  0  0  0  0  0
    4.9850   -3.1370   21.0700 O   0  0  0  0  0  0  0  0  0  0  0  0
    7.1830   -4.0660   22.0080 C   0  0  0  0  0  0  0  0  0  0  0  0
    7.5070    2.3710   22.5250 N   0  0  0  0  0  0  0  0  0  0  0  0
    9.0230    0.9820   21.4940 O   0  0  0  0  0  0  0  0  0  0  0  0
    6.2490   -2.8860   21.5950 C   0  0  0  0  0  0  0  0  0  0  0  0
   10.9570    6.6240   23.8480 O   0  0  0  0  0  0  0  0  0  0  0  0
    6.6980    0.0920   21.6500 C   0  0  1  0  0  0  0  0  0  0  0  0
    7.8780    1.1680   21.8800 C   0  0  0  0  0  0  0  0  0  0  0  0
   10.1050    1.6750   23.9850 C   0  0  0  0  0  0  0  0  0  0  0  0
   11.8710    6.5230   24.9470 C   0  0  0  0  0  0  0  0  0  0  0  0
   12.2790   -1.5020   23.0520 C   0  0  0  0  0  0  0  0  0  0  0  0
   12.8540   -0.1760   23.5820 C   0  0  0  0  0  0  0  0  0  0  0  0
   12.8090   -1.7860   21.6290 C   0  0  0  0  0  0  0  0  0  0  0  0
   12.8110   -2.6910   23.8750 C   0  0  0  0  0  0  0  0  0  0  0  0
    9.2600    1.0300   25.0800 C   0  0  0  0  0  0  0  0  0  0  0  0
   13.2820   -2.4730   25.2890 C   0  0  0  0  0  0  0  0  0  0  0  0
    2.3340   -5.5550   22.8980 N   0  0  0  0  0  0  0  0  0  0  0  0
    2.2990   -7.7330   24.5560 C   0  0  0  0  0  0  0  0  0  0  0  0
    4.6080   -7.9050   24.2070 O   0  0  0  0  0  0  0  0  0  0  0  0
    3.5160   -7.0230   24.1920 C   0  0  1  0  0  0  0  0  0  0  0  0
    5.7840   -5.9110   21.5540 N   0  0  0  0  0  0  0  0  0  0  0  0
    1.0640   -7.2330   22.1140 O   0  0  0  0  0  0  0  0  0  0  0  0
    3.5060   -6.3320   22.9600 C   0  0  2  0  0  0  0  0  0  0  0  0
    1.1210   -6.1160   22.6180 C   0  0  0  0  0  0  0  0  0  0  0  0
   -0.0730   -5.4600   22.8760 C   0  0  0  0  0  0  0  0  0  0  0  0
    4.8160   -5.4900   22.5470 C   0  0  0  0  0  0  0  0  0  0  0  0
    4.6550   -3.5880   25.3890 C   0  0  0  0  0  0  0  0  0  0  0  0
    3.7640   -4.3290   25.7960 O   0  0  0  0  0  0  0  0  0  0  0  0
    5.6380   -3.0060   26.3640 N   0  0  0  0  0  0  0  0  0  0  0  0
    5.1450   -2.2130   27.3210 C   0  0  0  0  0  0  0  0  0  0  0  0
    6.3700    0.3490   17.9150 N   0  0  0  0  0  0  0  0  0  0  0  0
    5.2610    1.1090   17.8420 C   0  0  0  0  0  0  0  0  0  0  0  0
    4.5610    1.5560   18.9390 C   0  0  0  0  0  0  0  0  0  0  0  0
    5.0140    1.2220   20.1930 C   0  0  0  0  0  0  0  0  0  0  0  0
    6.1700    0.4410   20.2760 C   0  0  0  0  0  0  0  0  0  0  0  0
    6.8670   -0.0170   19.1390 C   0  0  0  0  0  0  0  0  0  0  0  0
    8.7970   -1.7280   23.8970 N   0  0  0  0  0  0  0  0  0  0  0  0
   10.1730   -1.7320   24.1600 O   0  0  0  0  0  0  0  0  0  0  0  0
   10.7280   -1.5550   23.0850 C   0  0  0  0  0  0  0  0  0  0  0  0
    9.8380   -1.4250   22.0670 C   0  0  0  0  0  0  0  0  0  0  0  0
    8.5650   -1.5300   22.5530 C   0  0  0  0  0  0  0  0  0  0  0  0
    9.7050    3.1050   23.5900 C   0  0  0  0  0  0  0  0  0  0  0  0
   10.5360    4.1890   23.8940 C   0  0  0  0  0  0  0  0  0  0  0  0
   10.1990    5.5120   23.5650 C   0  0  0  0  0  0  0  0  0  0  0  0
    9.0280    5.7640   22.9110 C   0  0  0  0  0  0  0  0  0  0  0  0
    8.2090    4.7020   22.6010 C   0  0  0  0  0  0  0  0  0  0  0  0
    8.4980    3.3800   22.9160 C   0  0  0  0  0  0  0  0  0  0  0  0
    6.9850   -2.9430   23.7600 N   0  0  0  0  0  0  0  0  0  0  0  0
    6.5430   -1.7570   23.5000 C   0  0  2  0  0  0  0  0  0  0  0  0
    5.0960   -1.8820   23.8500 C   0  0  0  0  0  0  0  0  0  0  0  0
    4.6480   -3.2280   23.8720 C   0  0  1  0  0  0  0  0  0  0  0  0
    5.1960   -4.2940   23.0030 C   0  0  0  0  0  0  0  0  0  0  0  0
    6.5020   -3.7070   22.6300 C   0  0  0  0  0  0  0  0  0  0  0  0
    7.0670   -4.7460   27.5510 C   0  0  0  0  0  0  0  0  0  0  0  0
    8.4570   -5.2720   27.7650 C   0  0  0  0  0  0  0  0  0  0  0  0
    9.4770   -4.6770   27.1370 C   0  0  0  0  0  0  0  0  0  0  0  0
    9.3130   -3.6020   26.3010 C   0  0  0  0  0  0  0  0  0  0  0  0
    8.0490   -3.0810   26.0760 C   0  0  0  0  0  0  0  0  0  0  0  0
    6.9400   -3.6430   26.6870 C   0  0  0  0  0  0  0  0  0  0  0  0
    5.8810    4.0850   21.6160 C   0  0  0  0  0  0  0  0  0  0  0  0
    6.1390    2.9250   22.5790 C   0  0  0  0  0  0  0  0  0  0  0  0
  2  4  1  0
  1  7  1  0
  3  7  2  0
  4  7  1  0
  1  9  1  0
  5 10  1  0
  6 10  2  0
  9 10  1  6
  8 12  1  0
 13 14  1  0
 13 15  1  0
 13 16  1  0
 11 17  1  0
 16 18  1  0
 22 20  1  6
 21 22  1  0
  2 23  1  0
 25 19  1  1
 22 25  1  0
 19 26  1  0
 24 26  2  0
 26 27  1  0
 23 28  1  0
 25 28  1  0
 29 30  2  0
 29 31  1  0
 31 32  1  0
 33 34  2  0
 34 35  1  0
 35 36  2  0
  9 37  1  0
 36 37  1  0
 33 38  1  0
 37 38  2  0
 39 40  1  0
 13 41  1  0
 40 41  1  0
 41 42  2  0
  1 43  1  1
 39 43  2  0
 42 43  1  0
 11 44  1  0
 44 45  2  0
  8 46  1  0
 45 46  1  0
 46 47  2  0
 47 48  1  0
  5 49  1  0
 44 49  1  0
 48 49  2  0
  1 51  1  0
 50 51  1  0
 51 52  1  6
 53 29  1  1
 52 53  1  0
 28 54  2  0
 53 54  1  0
 50 55  1  0
 54 55  1  0
 56 57  2  0
 57 58  1  0
 58 59  2  0
 59 60  1  0
 31 61  1  0
 56 61  1  0
 60 61  2  0
  5 63  1  0
 62 63  1  0
M  END
