x2703-x2705-x2776-x0734
     RDKit          3D

 50 55  0  0  0  0  0  0  0  0999 V2000
    7.0920   -1.5470   21.5050 C   0  0  1  0  0  0  0  0  0  0  0  0
    5.7430   -3.0050   19.4740 O   0  0  0  0  0  0  0  0  0  0  0  0
    7.4790    2.0600   22.8470 N   0  0  0  0  0  0  0  0  0  0  0  0
    8.7310    1.2440   20.9810 O   0  0  0  0  0  0  0  0  0  0  0  0
    6.6000   -2.7740   20.4850 C   0  0  0  0  0  0  0  0  0  0  0  0
    6.6410   -0.0050   21.4170 C   0  0  1  0  0  0  0  0  0  0  0  0
    7.7370    1.1100   21.6910 C   0  0  0  0  0  0  0  0  0  0  0  0
   10.0470    2.2320   24.0270 C   0  0  0  0  0  0  0  0  0  0  0  0
    9.2000    1.3840   24.9560 C   0  0  0  0  0  0  0  0  0  0  0  0
    6.0440    4.2720   21.8460 C   0  0  0  0  0  0  0  0  0  0  0  0
   12.1810   -1.5950   23.3440 C   0  0  0  0  0  0  0  0  0  0  0  0
   12.5300   -0.3720   24.1370 C   0  0  0  0  0  0  0  0  0  0  0  0
   12.1400   -2.5110   24.5350 C   0  0  0  0  0  0  0  0  0  0  0  0
   12.8420   -1.8870   22.0590 C   0  0  0  0  0  0  0  0  0  0  0  0
   13.5730   -2.4150   24.2660 C   0  0  0  0  0  0  0  0  0  0  0  0
   10.7350    5.9770   23.9270 O   0  0  0  0  0  0  0  0  0  0  0  0
   11.8650    6.1720   24.7790 C   0  0  0  0  0  0  0  0  0  0  0  0
    5.0640   -4.6900   25.9520 N   0  0  0  0  0  0  0  0  0  0  0  0
    4.2470   -5.4980   25.4930 O   0  0  0  0  0  0  0  0  0  0  0  0
    4.7760   -3.7430   26.7010 O   0  0  0  0  0  0  0  0  0  0  0  0
    6.4620   -2.1920   22.7140 C   0  0  0  0  0  0  0  0  0  0  0  0
    6.3640    0.6430   17.6410 N   0  0  0  0  0  0  0  0  0  0  0  0
    5.1430    1.4460   17.6400 C   0  0  0  0  0  0  0  0  0  0  0  0
    4.3600    1.7600   18.8950 C   0  0  0  0  0  0  0  0  0  0  0  0
    4.8980    1.2320   20.1550 C   0  0  0  0  0  0  0  0  0  0  0  0
    6.0650    0.4890   20.1570 C   0  0  0  0  0  0  0  0  0  0  0  0
    6.7780    0.2030   18.8330 C   0  0  0  0  0  0  0  0  0  0  0  0
    9.8850   -0.9510   23.9730 N   0  0  0  0  0  0  0  0  0  0  0  0
    8.6410   -0.9730   23.4470 N   0  0  0  0  0  0  0  0  0  0  0  0
    8.5290   -1.5010   22.1630 C   0  0  0  0  0  0  0  0  0  0  0  0
    9.8740   -1.8180   21.9400 C   0  0  0  0  0  0  0  0  0  0  0  0
   10.6810   -1.4730   23.0470 C   0  0  0  0  0  0  0  0  0  0  0  0
    9.3850    3.5220   23.5630 C   0  0  0  0  0  0  0  0  0  0  0  0
   10.1760    4.7080   23.8050 C   0  0  0  0  0  0  0  0  0  0  0  0
    9.3000    5.7550   23.2480 C   0  0  0  0  0  0  0  0  0  0  0  0
    8.0360    5.6670   22.6400 C   0  0  0  0  0  0  0  0  0  0  0  0
    7.4270    4.4300   22.5010 C   0  0  0  0  0  0  0  0  0  0  0  0
    8.1120    3.3550   22.9730 C   0  0  0  0  0  0  0  0  0  0  0  0
    6.3970   -5.1100   25.9470 C   0  0  0  0  0  0  0  0  0  0  0  0
    7.1950   -4.9870   24.8030 C   0  0  0  0  0  0  0  0  0  0  0  0
    8.5360   -5.4360   24.8500 C   0  0  0  0  0  0  0  0  0  0  0  0
    9.0980   -6.0120   26.0340 C   0  0  0  0  0  0  0  0  0  0  0  0
    8.3240   -6.1320   27.1720 C   0  0  0  0  0  0  0  0  0  0  0  0
    6.8970   -5.6570   27.1270 C   0  0  0  0  0  0  0  0  0  0  0  0
    7.3580   -4.0020   20.6070 C   0  0  2  0  0  0  0  0  0  0  0  0
    6.6270   -5.2840   21.1640 C   0  0  0  0  0  0  0  0  0  0  0  0
    6.0340   -5.3060   22.6150 C   0  0  0  0  0  0  0  0  0  0  0  0
    6.6870   -4.4120   23.5960 N   0  0  0  0  0  0  0  0  0  0  0  0
    7.4580   -3.2970   23.0730 C   0  0  1  0  0  0  0  0  0  0  0  0
    8.2910   -3.7660   21.8180 C   0  0  0  0  0  0  0  0  0  0  0  0
  1  5  1  0
  2  5  2  0
  1  6  1  0
  3  7  1  0
  4  7  2  0
  6  7  1  6
  8  9  1  0
 11 12  1  0
 11 13  1  0
 11 14  1  0
 13 15  1  0
 16 17  1  0
 18 19  2  0
 18 20  1  0
  1 21  1  0
 22 23  2  0
 23 24  1  0
 24 25  2  0
  6 26  1  0
 25 26  1  0
 22 27  1  0
 26 27  2  0
 28 29  1  0
  1 30  1  1
 29 30  1  0
 30 31  2  0
 11 32  1  0
 28 32  2  0
 31 32  1  0
  8 33  1  0
 16 34  1  0
 33 34  2  0
 34 35  1  0
 35 36  2  0
 10 37  1  0
 36 37  1  0
  3 38  1  0
 33 38  1  0
 37 38  2  0
 18 39  1  0
 39 40  2  0
 40 41  1  0
 41 42  2  0
 42 43  1  0
 39 44  1  0
 43 44  2  0
 45  5  1  0
 45 46  1  1
 46 47  1  0
 40 48  1  0
 47 48  1  0
 49 21  1  6
 48 49  1  0
 45 50  1  0
 49 50  1  0
M  CHG  2  18   1  20  -1
M  END
