x2705-x1351-x1077
     RDKit          3D

 54 60  0  0  0  0  0  0  0  0999 V2000
    7.1780   -1.7220   21.8110 C   0  0  2  0  0  0  0  0  0  0  0  0
    6.9700   -5.0220   20.2640 C   0  0  0  0  0  0  0  0  0  0  0  0
    4.8950   -3.0120   20.9070 O   0  0  0  0  0  0  0  0  0  0  0  0
    7.3360    1.9890   22.6190 N   0  0  0  0  0  0  0  0  0  0  0  0
    8.8120    0.6020   21.5120 O   0  0  0  0  0  0  0  0  0  0  0  0
    6.1330   -2.9370   21.3430 C   0  0  0  0  0  0  0  0  0  0  0  0
    6.5780   -0.2330   21.7160 C   0  0  1  0  0  0  0  0  0  0  0  0
    7.6910    0.8230   21.9530 C   0  0  0  0  0  0  0  0  0  0  0  0
   10.1380    2.0360   23.9070 C   0  0  0  0  0  0  0  0  0  0  0  0
    9.3610    1.1950   24.9150 C   0  0  0  0  0  0  0  0  0  0  0  0
    6.0880    4.4500   21.8120 C   0  0  0  0  0  0  0  0  0  0  0  0
   12.2740   -1.4430   23.2860 C   0  0  0  0  0  0  0  0  0  0  0  0
   12.7120   -0.0640   23.7990 C   0  0  0  0  0  0  0  0  0  0  0  0
   12.7910   -2.4980   24.2840 C   0  0  0  0  0  0  0  0  0  0  0  0
   12.9440   -1.6630   21.9250 C   0  0  0  0  0  0  0  0  0  0  0  0
    6.1100   -2.2760   25.0640 N   0  0  0  0  0  0  0  0  0  0  0  0
    7.3860   -2.8510   26.9320 N   0  0  0  0  0  0  0  0  0  0  0  0
    6.5070   -2.0700   26.3490 C   0  0  0  0  0  0  0  0  0  0  0  0
    6.3540    0.3060   17.9480 N   0  0  0  0  0  0  0  0  0  0  0  0
    5.2250    1.0290   17.8980 C   0  0  0  0  0  0  0  0  0  0  0  0
    4.4660    1.3750   19.0050 C   0  0  0  0  0  0  0  0  0  0  0  0
    4.8990    0.9560   20.2550 C   0  0  0  0  0  0  0  0  0  0  0  0
    6.0710    0.2100   20.3460 C   0  0  0  0  0  0  0  0  0  0  0  0
    6.7660   -0.0970   19.1680 C   0  0  0  0  0  0  0  0  0  0  0  0
    9.9860   -1.3480   24.2570 N   0  0  0  0  0  0  0  0  0  0  0  0
    8.7120   -1.4300   23.7980 N   0  0  0  0  0  0  0  0  0  0  0  0
    8.5800   -1.6260   22.4310 C   0  0  0  0  0  0  0  0  0  0  0  0
    9.9340   -1.6620   22.0670 C   0  0  0  0  0  0  0  0  0  0  0  0
   10.7660   -1.4880   23.1850 C   0  0  0  0  0  0  0  0  0  0  0  0
    9.3550    3.2350   23.4410 C   0  0  0  0  0  0  0  0  0  0  0  0
   10.0110    4.4480   23.6370 C   0  0  0  0  0  0  0  0  0  0  0  0
    9.4220    5.6720   23.2530 C   0  0  0  0  0  0  0  0  0  0  0  0
    8.1240    5.6650   22.6500 C   0  0  0  0  0  0  0  0  0  0  0  0
    7.4570    4.3970   22.4560 C   0  0  0  0  0  0  0  0  0  0  0  0
    8.0940    3.1950   22.8620 C   0  0  0  0  0  0  0  0  0  0  0  0
    6.8990   -5.6630   25.0160 O   0  0  0  0  0  0  0  0  0  0  0  0
    7.9920   -5.7470   24.1180 C   0  0  0  0  0  0  0  0  0  0  0  0
    9.1770   -5.8840   24.8120 C   0  0  0  0  0  0  0  0  0  0  0  0
    9.8930   -4.7200   24.9250 C   0  0  0  0  0  0  0  0  0  0  0  0
    9.0560   -3.6320   25.3900 N   0  0  0  0  0  0  0  0  0  0  0  0
    8.1530   -4.0150   26.4900 C   0  0  2  0  0  0  0  0  0  0  0  0
    7.2770   -5.2360   26.3360 C   0  0  0  0  0  0  0  0  0  0  0  0
    6.7780   -4.3190   21.5700 C   0  0  2  0  0  0  0  0  0  0  0  0
    7.9370   -3.7680   22.3330 C   0  0  0  0  0  0  0  0  0  0  0  0
    6.9560   -2.9490   22.7830 C   0  0  1  0  0  0  0  0  0  0  0  0
    6.3830   -3.2900   24.1170 C   0  0  2  0  0  0  0  0  0  0  0  0
    5.3880   -4.2250   23.8380 C   0  0  0  0  0  0  0  0  0  0  0  0
    5.7520   -4.9940   22.5390 C   0  0  0  0  0  0  0  0  0  0  0  0
    5.5710   -1.0820   28.3750 C   0  0  0  0  0  0  0  0  0  0  0  0
    5.0340    0.1230   29.0540 C   0  0  0  0  0  0  0  0  0  0  0  0
    4.8720    1.5120   28.3900 C   0  0  0  0  0  0  0  0  0  0  0  0
    5.3140    1.5080   26.9740 C   0  0  0  0  0  0  0  0  0  0  0  0
    5.8210    0.3750   26.3340 C   0  0  0  0  0  0  0  0  0  0  0  0
    5.9540   -0.9410   27.0610 C   0  0  0  0  0  0  0  0  0  0  0  0
  1  6  1  0
  3  6  2  0
  1  7  1  0
  4  8  1  0
  5  8  2  0
  7  8  1  6
  9 10  1  0
 12 13  1  0
 12 14  1  0
 12 15  1  0
 16 18  1  0
 17 18  2  3
 19 20  2  0
 20 21  1  0
 21 22  2  0
  7 23  1  0
 22 23  1  0
 19 24  1  0
 23 24  2  0
 25 26  1  0
  1 27  1  1
 26 27  1  0
 27 28  2  0
 12 29  1  0
 25 29  2  0
 28 29  1  0
  9 30  1  0
 30 31  2  0
 31 32  1  0
 32 33  2  0
 11 34  1  0
 33 34  1  0
  4 35  1  0
 30 35  1  0
 34 35  2  0
 36 37  1  0
 37 38  1  0
 38 39  1  0
 39 40  1  0
 41 17  1  6
 40 41  1  0
 36 42  1  0
 41 42  1  0
 43  2  1  6
  6 43  1  0
 43 44  1  0
  1 45  1  0
 45 44  1  1
 46 16  1  6
 45 46  1  0
 46 47  1  0
 43 48  1  0
 47 48  1  0
 49 50  2  0
 50 51  1  0
 51 52  2  0
 52 53  1  0
 18 54  1  0
 49 54  1  0
 53 54  2  0
M  END
