x2705-x0731-x0689
     RDKit          3D

 55 64  0  0  0  0  0  0  0  0999 V2000
    6.9330   -1.4670   21.6780 C   0  0  1  0  0  0  0  0  0  0  0  0
    7.9190   -4.0960   20.8320 C   0  0  0  0  0  0  0  0  0  0  0  0
    4.8150   -2.8870   20.6570 O   0  0  0  0  0  0  0  0  0  0  0  0
    6.6700   -4.0200   21.1390 C   0  0  2  0  0  0  0  0  0  0  0  0
    7.4520    1.9830   22.8990 N   0  0  0  0  0  0  0  0  0  0  0  0
    8.7720    1.3300   20.9820 O   0  0  0  0  0  0  0  0  0  0  0  0
    6.0680   -2.7160   21.0580 C   0  0  0  0  0  0  0  0  0  0  0  0
    6.5640    0.0500   21.3680 C   0  0  1  0  0  0  0  0  0  0  0  0
    7.6290    1.1620   21.8030 C   0  0  0  0  0  0  0  0  0  0  0  0
   10.0700    2.0070   23.9450 C   0  0  0  0  0  0  0  0  0  0  0  0
    9.1750    1.2170   24.9330 C   0  0  0  0  0  0  0  0  0  0  0  0
    6.1250    4.3910   21.9430 C   0  0  0  0  0  0  0  0  0  0  0  0
   12.0360   -1.5270   23.0910 C   0  0  0  0  0  0  0  0  0  0  0  0
   12.4630   -0.2370   23.4440 C   0  0  0  0  0  0  0  0  0  0  0  0
   12.6200   -2.4760   24.1980 C   0  0  0  0  0  0  0  0  0  0  0  0
   12.7500   -1.8470   21.7600 C   0  0  0  0  0  0  0  0  0  0  0  0
    6.7360   -3.9800   26.8530 O   0  0  0  0  0  0  0  0  0  0  0  0
    5.8500   -6.3050   26.9470 O   0  0  0  0  0  0  0  0  0  0  0  0
    5.8150   -4.9510   26.4200 S   0  0  0  0  0  0  0  0  0  0  0  0
    6.0080   -1.7920   22.8840 C   0  0  0  0  0  0  0  0  0  0  0  0
    5.1260   -2.8410   22.4830 C   0  0  0  0  0  0  0  0  0  0  0  0
    3.4060   -5.1190   24.0370 O   0  0  0  0  0  0  0  0  0  0  0  0
    4.3860   -6.5700   25.7940 O   0  0  0  0  0  0  0  0  0  0  0  0
    4.5000   -6.0160   24.4690 S   0  0  0  0  0  0  0  0  0  0  0  0
    6.3580    0.6140   17.6450 N   0  0  0  0  0  0  0  0  0  0  0  0
    5.1860    1.4250   17.6310 C   0  0  0  0  0  0  0  0  0  0  0  0
    4.4440    1.7520   18.9030 C   0  0  0  0  0  0  0  0  0  0  0  0
    4.9470    1.2550   20.0740 C   0  0  0  0  0  0  0  0  0  0  0  0
    6.0950    0.4850   20.0690 C   0  0  0  0  0  0  0  0  0  0  0  0
    6.7510    0.1840   18.8670 C   0  0  0  0  0  0  0  0  0  0  0  0
    9.8540   -1.9850   24.1490 N   0  0  0  0  0  0  0  0  0  0  0  0
    8.5340   -1.9660   23.7350 N   0  0  0  0  0  0  0  0  0  0  0  0
    8.3030   -1.6190   22.4110 C   0  0  0  0  0  0  0  0  0  0  0  0
    9.6500   -1.4030   21.9550 C   0  0  0  0  0  0  0  0  0  0  0  0
   10.4960   -1.6370   23.0430 C   0  0  0  0  0  0  0  0  0  0  0  0
    9.4330    3.2750   23.4920 C   0  0  0  0  0  0  0  0  0  0  0  0
   10.2010    4.4390   23.6220 C   0  0  0  0  0  0  0  0  0  0  0  0
    9.5370    5.7370   23.1430 C   0  0  0  0  0  0  0  0  0  0  0  0
    8.1580    5.6210   22.5910 C   0  0  0  0  0  0  0  0  0  0  0  0
    7.5090    4.3820   22.5220 C   0  0  0  0  0  0  0  0  0  0  0  0
    8.1310    3.2180   22.9700 C   0  0  0  0  0  0  0  0  0  0  0  0
    1.9500   -2.7150   25.6090 C   0  0  0  0  0  0  0  0  0  0  0  0
    1.6800   -4.1630   25.7840 C   0  0  0  0  0  0  0  0  0  0  0  0
    3.0030   -4.8630   25.7720 C   0  0  0  0  0  0  0  0  0  0  0  0
    4.2200   -4.3130   26.3360 C   0  0  0  0  0  0  0  0  0  0  0  0
    3.4980   -3.1260   26.7870 C   0  0  2  0  0  0  0  0  0  0  0  0
    2.9520   -2.0770   26.1200 C   0  0  0  0  0  0  0  0  0  0  0  0
    5.8070   -5.2330   22.6950 C   0  0  1  0  0  0  0  0  0  0  0  0
    5.9840   -4.0250   22.4840 C   0  0  1  0  0  0  0  0  0  0  0  0
    6.4160   -4.1290   23.6940 C   0  0  1  0  0  0  0  0  0  0  0  0
    6.1440   -5.2690   24.3830 C   0  0  1  0  0  0  0  0  0  0  0  0
    6.7030   -6.2410   23.5870 C   0  0  1  0  0  0  0  0  0  0  0  0
    6.3680   -6.3190   22.2760 C   0  0  0  0  0  0  0  0  0  0  0  0
    2.1730    0.1020   26.0840 C   0  0  0  0  0  0  0  0  0  0  0  0
    3.3450   -0.6770   26.0690 C   0  0  0  0  0  0  0  0  0  0  0  0
  4  2  1  1
  1  7  1  0
  3  7  2  0
  4  7  1  0
  1  8  1  0
  5  9  1  0
  6  9  2  0
  8  9  1  6
 10 11  1  0
 13 14  1  0
 13 15  1  0
 13 16  1  0
 17 19  2  0
 18 19  2  0
  1 20  1  0
 20 21  1  0
 22 24  2  0
 23 24  2  0
 25 26  2  0
 26 27  1  0
 27 28  2  0
  8 29  1  0
 28 29  1  0
 25 30  1  0
 29 30  2  0
 31 32  1  0
  1 33  1  1
 32 33  1  0
 33 34  2  0
 13 35  1  0
 31 35  2  0
 34 35  1  0
 10 36  1  0
 36 37  2  0
 37 38  1  0
 38 39  2  0
 12 40  1  0
 39 40  1  0
  5 41  1  0
 36 41  1  0
 40 41  2  0
 42 43  1  0
 43 44  1  0
 19 45  1  0
 44 45  2  0
 42 46  1  0
 44 46  1  0
 46 45  1  6
 42 47  2  0
 46 47  1  0
  4 49  1  0
 49 21  1  1
 48 49  1  0
 48 50  1  0
 49 50  1  0
 51 19  1  0
 51 24  1  6
 50 51  1  1
 48 52  1  0
 51 52  1  0
 48 53  1  1
 52 53  1  1
 47 55  1  0
 54 55  1  0
M  END
