x2705-x1384-x2694-x0771
     RDKit          3D

 53 58  0  0  0  0  0  0  0  0999 V2000
    2.8350   -1.5330   25.0540 O   0  0  0  0  0  0  0  0  0  0  0  0
    4.6310   -3.0740   27.7360 C   0  0  0  0  0  0  0  0  0  0  0  0
    2.3760   -5.8000   25.3410 C   0  0  0  0  0  0  0  0  0  0  0  0
    4.6230   -3.2130   25.1540 C   0  0  1  0  0  0  0  0  0  0  0  0
    4.2890   -2.7200   23.9060 C   0  0  2  0  0  0  0  0  0  0  0  0
    3.2990   -3.6220   24.3570 C   0  0  1  0  0  0  0  0  0  0  0  0
    3.3900   -5.1680   24.3750 C   0  0  1  0  0  0  0  0  0  0  0  0
    4.8770   -5.7280   24.4800 C   0  0  0  0  0  0  0  0  0  0  0  0
    5.4510   -4.3760   24.9340 C   0  0  0  0  0  0  0  0  0  0  0  0
    2.3080   -2.8490   25.1880 C   0  0  1  0  0  0  0  0  0  0  0  0
    2.3590   -2.9190   26.6890 C   0  0  0  0  0  0  0  0  0  0  0  0
    3.8830   -3.0630   26.4980 C   0  0  0  0  0  0  0  0  0  0  0  0
    4.0600   -7.5830   25.3750 N   0  0  0  0  0  0  0  0  0  0  0  0
    6.0080   -5.8150   26.5260 O   0  0  0  0  0  0  0  0  0  0  0  0
    4.6070   -6.6800   26.7390 S   0  0  0  0  0  0  0  0  0  0  0  0
    4.2080   -6.9650   24.0460 C   0  0  0  0  0  0  0  0  0  0  0  0
    7.0220   -1.4340   21.9410 C   0  0  2  0  0  0  0  0  0  0  0  0
    7.4890   -3.3130   19.3060 C   0  0  0  0  0  0  0  0  0  0  0  0
    4.9180   -3.0630   21.1100 O   0  0  0  0  0  0  0  0  0  0  0  0
    7.2880   -3.6560   20.7540 C   0  0  0  0  0  0  0  0  0  0  0  0
    7.5050    2.0930   22.6830 N   0  0  0  0  0  0  0  0  0  0  0  0
    8.7380    1.1770   21.0520 O   0  0  0  0  0  0  0  0  0  0  0  0
    6.2300   -2.7570   21.2300 C   0  0  0  0  0  0  0  0  0  0  0  0
    6.7080    0.0860   21.4960 C   0  0  1  0  0  0  0  0  0  0  0  0
    7.7090    1.1090   21.7240 C   0  0  0  0  0  0  0  0  0  0  0  0
   10.1830    1.9450   23.9280 C   0  0  0  0  0  0  0  0  0  0  0  0
    9.4250    1.1350   24.7640 C   0  0  0  0  0  0  0  0  0  0  0  0
    6.3680    4.6620   21.9340 C   0  0  0  0  0  0  0  0  0  0  0  0
   12.2160   -1.5390   23.1390 C   0  0  0  0  0  0  0  0  0  0  0  0
   12.7100   -0.2580   23.4430 C   0  0  0  0  0  0  0  0  0  0  0  0
   12.7730   -2.5030   24.2110 C   0  0  0  0  0  0  0  0  0  0  0  0
   12.7550   -1.9460   21.7720 C   0  0  0  0  0  0  0  0  0  0  0  0
   10.5360    6.7470   23.7220 O   0  0  0  0  0  0  0  0  0  0  0  0
   11.6390    6.5430   24.6240 C   0  0  0  0  0  0  0  0  0  0  0  0
    6.3350    0.4050   17.7010 N   0  0  0  0  0  0  0  0  0  0  0  0
    5.2100    1.1160   17.7290 C   0  0  0  0  0  0  0  0  0  0  0  0
    4.5230    1.4930   18.8640 C   0  0  0  0  0  0  0  0  0  0  0  0
    4.9860    1.1540   20.1050 C   0  0  0  0  0  0  0  0  0  0  0  0
    6.1620    0.4250   20.1430 C   0  0  0  0  0  0  0  0  0  0  0  0
    6.7950    0.0670   18.9510 C   0  0  0  0  0  0  0  0  0  0  0  0
    9.8560   -1.6230   24.2770 N   0  0  0  0  0  0  0  0  0  0  0  0
    8.5430   -1.6000   23.9250 N   0  0  0  0  0  0  0  0  0  0  0  0
    8.4590   -1.5100   22.5670 C   0  0  0  0  0  0  0  0  0  0  0  0
    9.7940   -1.4880   22.1450 C   0  0  0  0  0  0  0  0  0  0  0  0
   10.6810   -1.5550   23.2120 C   0  0  0  0  0  0  0  0  0  0  0  0
    9.5250    3.2460   23.5210 C   0  0  0  0  0  0  0  0  0  0  0  0
   10.2320    4.4320   23.7530 C   0  0  0  0  0  0  0  0  0  0  0  0
    9.7080    5.6780   23.4150 C   0  0  0  0  0  0  0  0  0  0  0  0
    8.4310    5.7350   22.8140 C   0  0  0  0  0  0  0  0  0  0  0  0
    7.7290    4.5330   22.5830 C   0  0  0  0  0  0  0  0  0  0  0  0
    8.2660    3.2730   22.9370 C   0  0  0  0  0  0  0  0  0  0  0  0
    5.2940   -2.8640   22.9050 C   0  0  0  0  0  0  0  0  0  0  0  0
    6.2510   -1.7460   23.1850 C   0  0  0  0  0  0  0  0  0  0  0  0
  4  5  1  0
  6  4  1  0
  5  6  1  0
  7  3  1  1
  6  7  1  6
  7  8  1  0
  4  9  1  1
  8  9  2  0
 10  1  1  1
  6 10  1  0
 10 11  1  0
  2 12  1  0
  4 12  1  0
 11 12  2  0
 13 15  2  0
 14 15  2  0
  8 16  1  0
 13 16  1  0
 18 20  1  0
 17 23  1  0
 19 23  2  0
 20 23  1  0
 17 24  1  0
 21 25  1  0
 22 25  2  0
 24 25  1  6
 26 27  1  0
 29 30  1  0
 29 31  1  0
 29 32  1  0
 33 34  1  0
 35 36  2  0
 36 37  1  0
 37 38  2  0
 24 39  1  0
 38 39  1  0
 35 40  1  0
 39 40  2  0
 41 42  1  0
 17 43  1  0
 42 43  2  0
 43 44  1  0
 29 45  1  0
 41 45  1  0
 44 45  2  0
 26 46  1  0
 46 47  2  0
 33 48  1  0
 47 48  1  0
 48 49  2  0
 28 50  1  0
 49 50  1  0
 21 51  1  0
 46 51  1  0
 50 51  2  0
  5 52  1  6
 17 53  1  1
 52 53  1  0
M  END
