x2705-x3115-x2754-x1458
     RDKit          3D

 55 62  0  0  0  0  0  0  0  0999 V2000
    7.1010   -1.4630   21.4270 C   0  0  2  0  0  0  0  0  0  0  0  0
    7.8910   -4.2960   21.0000 C   0  0  0  0  0  0  0  0  0  0  0  0
    4.8500   -2.9320   20.6070 O   0  0  0  0  0  0  0  0  0  0  0  0
    7.4820    1.9140   22.7880 N   0  0  0  0  0  0  0  0  0  0  0  0
    8.8200    1.2570   20.9780 O   0  0  0  0  0  0  0  0  0  0  0  0
    6.0800   -2.7650   21.0750 C   0  0  0  0  0  0  0  0  0  0  0  0
    6.7240    0.0440   21.2720 C   0  0  1  0  0  0  0  0  0  0  0  0
    7.7970    1.0870   21.6260 C   0  0  0  0  0  0  0  0  0  0  0  0
   10.2050    2.0190   23.9770 C   0  0  0  0  0  0  0  0  0  0  0  0
    9.4260    1.2000   24.8390 C   0  0  0  0  0  0  0  0  0  0  0  0
    6.5610    5.5650   21.9090 C   0  0  0  0  0  0  0  0  0  0  0  0
   12.2290   -1.5280   23.1710 C   0  0  0  0  0  0  0  0  0  0  0  0
   12.7230   -0.2050   23.7830 C   0  0  0  0  0  0  0  0  0  0  0  0
   12.7420   -2.7500   23.9590 C   0  0  0  0  0  0  0  0  0  0  0  0
   12.8460   -1.6940   21.7740 C   0  0  0  0  0  0  0  0  0  0  0  0
   13.3450   -2.5320   25.3440 C   0  0  0  0  0  0  0  0  0  0  0  0
    5.0230   -4.1350   25.1440 C   0  0  0  0  0  0  0  0  0  0  0  0
    5.9210   -6.1460   27.8310 C   0  0  0  0  0  0  0  0  0  0  0  0
    6.2700   -4.5180   25.3470 C   0  0  0  0  0  0  0  0  0  0  0  0
    6.5890   -1.7750   22.7650 C   0  0  0  0  0  0  0  0  0  0  0  0
    4.0090   -3.5300   26.0080 C   0  0  0  0  0  0  0  0  0  0  0  0
    3.4630   -2.8200   26.8080 O   0  0  0  0  0  0  0  0  0  0  0  0
    5.1330   -2.7970   26.3210 N   0  0  0  0  0  0  0  0  0  0  0  0
    5.3200   -2.3180   27.5730 C   0  0  0  0  0  0  0  0  0  0  0  0
    6.3260    0.7230   17.6530 N   0  0  0  0  0  0  0  0  0  0  0  0
    5.2050    1.4700   17.6570 C   0  0  0  0  0  0  0  0  0  0  0  0
    4.4390    1.8200   18.7530 C   0  0  0  0  0  0  0  0  0  0  0  0
    4.9000    1.3400   20.0860 C   0  0  0  0  0  0  0  0  0  0  0  0
    6.1320    0.5490   20.0250 C   0  0  0  0  0  0  0  0  0  0  0  0
    6.7660    0.2770   18.8300 C   0  0  0  0  0  0  0  0  0  0  0  0
    9.9530   -1.6640   24.1160 N   0  0  0  0  0  0  0  0  0  0  0  0
    8.5390   -1.6440   23.5600 N   0  0  0  0  0  0  0  0  0  0  0  0
    8.4870   -1.5240   22.1730 C   0  0  0  0  0  0  0  0  0  0  0  0
    9.8610   -1.4680   21.8980 C   0  0  0  0  0  0  0  0  0  0  0  0
   10.7130   -1.5510   23.0250 C   0  0  0  0  0  0  0  0  0  0  0  0
    9.4100    3.2150   23.4910 C   0  0  0  0  0  0  0  0  0  0  0  0
    9.9310    4.4410   23.5830 C   0  0  0  0  0  0  0  0  0  0  0  0
    9.2440    5.5560   23.1390 C   0  0  0  0  0  0  0  0  0  0  0  0
    7.9670    5.7020   22.5370 C   0  0  0  0  0  0  0  0  0  0  0  0
    7.5810    4.3330   22.5330 C   0  0  0  0  0  0  0  0  0  0  0  0
    8.1750    3.1400   22.9490 C   0  0  0  0  0  0  0  0  0  0  0  0
    6.7130   -4.0100   21.5350 C   0  0  2  0  0  0  0  0  0  0  0  0
    6.6420   -3.2540   22.8580 C   0  0  1  0  0  0  0  0  0  0  0  0
    7.4570   -3.8950   23.6920 C   0  0  0  0  0  0  0  0  0  0  0  0
    6.8330   -5.0360   24.0880 C   0  0  2  0  0  0  0  0  0  0  0  0
    5.7230   -5.4760   23.1820 C   0  0  2  0  0  0  0  0  0  0  0  0
    5.9060   -5.3120   21.7820 C   0  0  0  0  0  0  0  0  0  0  0  0
    5.2620   -3.2240   23.0310 C   0  0  0  0  0  0  0  0  0  0  0  0
    4.7560   -4.4010   23.6980 C   0  0  2  0  0  0  0  0  0  0  0  0
    7.1170   -5.3440   27.4630 C   0  0  0  0  0  0  0  0  0  0  0  0
    8.2980   -5.3400   28.3220 C   0  0  0  0  0  0  0  0  0  0  0  0
    9.3920   -4.6440   28.0090 C   0  0  0  0  0  0  0  0  0  0  0  0
    9.4290   -3.9000   26.8630 C   0  0  0  0  0  0  0  0  0  0  0  0
    8.3680   -3.8690   26.0430 C   0  0  0  0  0  0  0  0  0  0  0  0
    7.2430   -4.5920   26.3420 C   0  0  0  0  0  0  0  0  0  0  0  0
  1  6  1  0
  3  6  2  0
  1  7  1  0
  4  8  1  0
  5  8  2  0
  7  8  1  6
  9 10  1  0
 12 13  1  0
 12 14  1  0
 12 15  1  0
 14 16  1  0
 17 19  2  0
  1 20  1  0
 17 21  1  0
 21 22  2  0
 21 23  1  0
 23 24  1  0
 25 26  2  0
 26 27  1  0
 27 28  2  0
  7 29  1  0
 28 29  1  0
 25 30  1  0
 29 30  2  0
 31 32  1  0
  1 33  1  1
 32 33  1  0
 33 34  2  0
 12 35  1  0
 31 35  2  0
 34 35  1  0
  9 36  1  0
 36 37  2  0
 37 38  1  0
 11 39  1  0
 38 39  2  0
 39 40  1  0
  4 41  1  0
 36 41  1  0
 40 41  2  0
 42  2  1  6
  6 42  1  0
 43 20  1  6
 42 43  1  0
 43 44  1  0
 45 19  1  1
 44 45  1  0
 45 46  1  0
 42 47  1  0
 46 47  1  6
 43 48  1  0
 49 17  1  1
 46 49  1  0
 48 49  1  0
 18 50  1  0
 50 51  2  0
 51 52  1  0
 52 53  2  0
 53 54  1  0
 19 55  1  0
 50 55  1  0
 54 55  2  0
M  END
