x2705-x0978-x2608-x1077
     RDKit          3D

 54 57  0  0  0  0  0  0  0  0999 V2000
    7.0490   -1.3850   21.6260 N   0  0  0  0  0  0  0  0  0  0  0  0
    7.2080   -4.9310   21.2780 C   0  0  0  0  0  0  0  0  0  0  0  0
    4.9110   -3.0110   21.0240 O   0  0  0  0  0  0  0  0  0  0  0  0
    7.0050   -3.6870   22.0540 C   0  0  0  0  0  0  0  0  0  0  0  0
    7.4100    2.1190   22.7490 N   0  0  0  0  0  0  0  0  0  0  0  0
    8.7060    1.2730   21.0650 O   0  0  0  0  0  0  0  0  0  0  0  0
    6.1850   -2.6080   21.4950 C   0  0  0  0  0  0  0  0  0  0  0  0
    6.6060    0.0560   21.4290 C   0  0  1  0  0  0  0  0  0  0  0  0
    7.6750    1.1940   21.7460 C   0  0  0  0  0  0  0  0  0  0  0  0
   10.2020    2.3520   23.7790 C   0  0  0  0  0  0  0  0  0  0  0  0
    9.4130    1.3620   24.5920 C   0  0  0  0  0  0  0  0  0  0  0  0
    5.9900    4.5280   21.8890 C   0  0  0  0  0  0  0  0  0  0  0  0
   12.0640   -1.4800   23.3550 C   0  0  0  0  0  0  0  0  0  0  0  0
   12.5670   -0.1700   23.9870 C   0  0  0  0  0  0  0  0  0  0  0  0
   12.5320   -2.6600   24.2230 C   0  0  0  0  0  0  0  0  0  0  0  0
   12.8430   -1.5520   22.0320 C   0  0  0  0  0  0  0  0  0  0  0  0
    2.3850   -5.4500   23.0090 N   0  0  0  0  0  0  0  0  0  0  0  0
    2.3910   -7.9620   24.3160 C   0  0  0  0  0  0  0  0  0  0  0  0
    4.7090   -8.0150   24.0910 O   0  0  0  0  0  0  0  0  0  0  0  0
    3.6650   -7.1220   24.3490 C   0  0  1  0  0  0  0  0  0  0  0  0
    6.1240   -5.8910   21.7820 N   0  0  0  0  0  0  0  0  0  0  0  0
    1.3320   -7.2670   22.1630 O   0  0  0  0  0  0  0  0  0  0  0  0
    3.7520   -5.8960   23.4120 C   0  0  1  0  0  0  0  0  0  0  0  0
    4.5170   -4.2520   21.9660 O   0  0  0  0  0  0  0  0  0  0  0  0
    1.2430   -6.1520   22.6590 C   0  0  0  0  0  0  0  0  0  0  0  0
   -0.1080   -5.5090   22.8750 C   0  0  0  0  0  0  0  0  0  0  0  0
    4.8510   -5.3670   22.3240 C   0  0  0  0  0  0  0  0  0  0  0  0
    6.2990    0.5610   17.7310 N   0  0  0  0  0  0  0  0  0  0  0  0
    5.1690    1.2860   17.7200 C   0  0  0  0  0  0  0  0  0  0  0  0
    4.4440    1.6240   18.8240 C   0  0  0  0  0  0  0  0  0  0  0  0
    4.9080    1.2100   20.0410 C   0  0  0  0  0  0  0  0  0  0  0  0
    6.0820    0.4700   20.1030 C   0  0  0  0  0  0  0  0  0  0  0  0
    6.7320    0.1650   18.9310 C   0  0  0  0  0  0  0  0  0  0  0  0
    9.6250   -1.7370   24.0640 N   0  0  0  0  0  0  0  0  0  0  0  0
    8.3470   -1.7140   23.6500 N   0  0  0  0  0  0  0  0  0  0  0  0
    8.3420   -1.4570   22.3300 C   0  0  0  0  0  0  0  0  0  0  0  0
    9.7330   -1.3100   21.9600 C   0  0  0  0  0  0  0  0  0  0  0  0
   10.5370   -1.4980   23.0950 C   0  0  0  0  0  0  0  0  0  0  0  0
    9.3810    3.5110   23.3420 C   0  0  0  0  0  0  0  0  0  0  0  0
    9.9950    4.7730   23.4400 C   0  0  0  0  0  0  0  0  0  0  0  0
    9.3230    5.9190   23.0450 C   0  0  0  0  0  0  0  0  0  0  0  0
    8.0270    5.8140   22.5460 C   0  0  0  0  0  0  0  0  0  0  0  0
    7.3860    4.5600   22.4400 C   0  0  0  0  0  0  0  0  0  0  0  0
    8.0670    3.3870   22.8480 C   0  0  0  0  0  0  0  0  0  0  0  0
   12.8400    2.0940   22.8470 C   0  0  0  0  0  0  0  0  0  0  0  0
   11.9100    1.1050   23.5100 C   0  0  0  0  0  0  0  0  0  0  0  0
    6.7400   -5.1320   25.0080 O   0  0  0  0  0  0  0  0  0  0  0  0
    7.5500   -5.7760   24.0140 C   0  0  2  0  0  0  0  0  0  0  0  0
    8.6580   -4.9160   23.4550 C   0  0  0  0  0  0  0  0  0  0  0  0
    9.8140   -4.8010   24.4310 C   0  0  0  0  0  0  0  0  0  0  0  0
    9.5300   -4.1300   25.6870 N   0  0  0  0  0  0  0  0  0  0  0  0
    8.7670   -4.9660   26.5990 C   0  0  0  0  0  0  0  0  0  0  0  0
    7.2320   -5.0270   26.3670 C   0  0  0  0  0  0  0  0  0  0  0  0
    6.7160   -6.5890   22.9320 C   0  0  0  0  0  0  0  0  0  0  0  0
  2  4  1  0
  1  7  1  0
  3  7  2  0
  4  7  1  0
  1  8  1  0
  5  9  1  0
  6  9  2  0
  8  9  1  6
 10 11  1  0
 13 14  1  0
 13 15  1  0
 13 16  1  0
 20 18  1  6
 19 20  1  0
  2 21  1  0
 23 17  1  6
 20 23  1  0
 17 25  1  0
 22 25  2  0
 25 26  1  0
 21 27  1  0
 23 27  1  0
 24 27  2  0
 28 29  2  0
 29 30  1  0
 30 31  2  0
  8 32  1  0
 31 32  1  0
 28 33  1  0
 32 33  2  0
 34 35  1  0
  1 36  1  0
 35 36  2  0
 36 37  1  0
 13 38  1  0
 34 38  1  0
 37 38  2  0
 10 39  1  0
 39 40  2  0
 40 41  1  0
 41 42  2  0
 12 43  1  0
 42 43  1  0
  5 44  1  0
 39 44  1  0
 43 44  2  0
 14 46  1  0
 45 46  1  0
 47 48  1  0
 48 49  1  0
 49 50  1  0
 50 51  1  0
 51 52  1  0
 47 53  1  0
 52 53  1  0
 21 54  1  0
 48 54  1  6
M  END
