x2705-x0978-x2694-x1384
     RDKit          3D

 54 60  0  0  0  0  0  0  0  0999 V2000
    6.9390   -1.3220   21.7530 N   0  0  0  0  0  0  0  0  0  0  0  0
    6.2150   -4.8460   21.0420 C   0  0  0  0  0  0  0  0  0  0  0  0
    4.7860   -2.9090   21.1710 O   0  0  0  0  0  0  0  0  0  0  0  0
    6.9930   -3.6880   21.2460 C   0  0  0  0  0  0  0  0  0  0  0  0
    7.4290    2.0870   22.9070 N   0  0  0  0  0  0  0  0  0  0  0  0
    8.5860    1.3490   21.0690 O   0  0  0  0  0  0  0  0  0  0  0  0
    6.1470   -2.6130   21.3810 C   0  0  0  0  0  0  0  0  0  0  0  0
    6.6180    0.0710   21.4910 C   0  0  1  0  0  0  0  0  0  0  0  0
    7.5560    1.1730   21.8480 C   0  0  0  0  0  0  0  0  0  0  0  0
   10.0850    1.8890   23.9920 C   0  0  0  0  0  0  0  0  0  0  0  0
    9.1910    1.2210   25.0050 C   0  0  0  0  0  0  0  0  0  0  0  0
    6.4120    4.5940   22.0760 C   0  0  0  0  0  0  0  0  0  0  0  0
   11.9660   -1.5290   23.2460 C   0  0  0  0  0  0  0  0  0  0  0  0
   12.5280   -0.1740   23.6210 C   0  0  0  0  0  0  0  0  0  0  0  0
   12.4680   -2.5060   24.2860 C   0  0  0  0  0  0  0  0  0  0  0  0
   12.5910   -1.8880   21.8940 C   0  0  0  0  0  0  0  0  0  0  0  0
   10.5960    6.6960   23.5900 O   0  0  0  0  0  0  0  0  0  0  0  0
   11.6910    6.7790   24.4670 C   0  0  0  0  0  0  0  0  0  0  0  0
    1.6680   -5.7480   23.4220 N   0  0  0  0  0  0  0  0  0  0  0  0
    2.2410   -8.3000   24.9160 C   0  0  0  0  0  0  0  0  0  0  0  0
    4.3700   -7.9890   24.1270 O   0  0  0  0  0  0  0  0  0  0  0  0
    2.9980   -7.7560   23.7520 C   0  0  2  0  0  0  0  0  0  0  0  0
    0.8240   -7.2710   21.9050 O   0  0  0  0  0  0  0  0  0  0  0  0
    2.9560   -6.2650   23.6270 C   0  0  1  0  0  0  0  0  0  0  0  0
    3.7660   -4.4030   24.0940 N   0  0  0  0  0  0  0  0  0  0  0  0
    0.6970   -6.2270   22.5560 C   0  0  0  0  0  0  0  0  0  0  0  0
   -0.5860   -5.4720   22.3730 C   0  0  0  0  0  0  0  0  0  0  0  0
    5.6640   -2.1250   26.1000 O   0  0  0  0  0  0  0  0  0  0  0  0
    6.3190    0.4010   17.7890 N   0  0  0  0  0  0  0  0  0  0  0  0
    5.1990    1.1390   17.7830 C   0  0  0  0  0  0  0  0  0  0  0  0
    4.5230    1.5200   18.8900 C   0  0  0  0  0  0  0  0  0  0  0  0
    4.9980    1.1490   20.0940 C   0  0  0  0  0  0  0  0  0  0  0  0
    6.1600    0.3940   20.1520 C   0  0  0  0  0  0  0  0  0  0  0  0
    6.7640    0.0500   18.9980 C   0  0  0  0  0  0  0  0  0  0  0  0
    9.6850   -1.6370   24.3100 N   0  0  0  0  0  0  0  0  0  0  0  0
    8.4130   -1.5860   23.8990 N   0  0  0  0  0  0  0  0  0  0  0  0
    8.2700   -1.4320   22.4490 C   0  0  0  0  0  0  0  0  0  0  0  0
    9.5850   -1.3980   22.0170 C   0  0  0  0  0  0  0  0  0  0  0  0
   10.4620   -1.5160   23.1130 C   0  0  0  0  0  0  0  0  0  0  0  0
    9.5120    3.1960   23.5800 C   0  0  0  0  0  0  0  0  0  0  0  0
   10.2950    4.3480   23.7520 C   0  0  0  0  0  0  0  0  0  0  0  0
    9.8210    5.5740   23.3960 C   0  0  0  0  0  0  0  0  0  0  0  0
    8.5400    5.6800   22.8340 C   0  0  0  0  0  0  0  0  0  0  0  0
    7.7840    4.5250   22.6720 C   0  0  0  0  0  0  0  0  0  0  0  0
    8.2550    3.2650   23.0540 C   0  0  0  0  0  0  0  0  0  0  0  0
    6.1350   -4.2830   23.6790 C   0  0  2  0  0  0  0  0  0  0  0  0
    5.0090   -4.6340   23.6790 C   0  0  0  0  0  0  0  0  0  0  0  0
    4.7770   -3.5090   24.0750 C   0  0  2  0  0  0  0  0  0  0  0  0
    3.5820   -3.9320   23.1890 C   0  0  0  0  0  0  0  0  0  0  0  0
    3.9940   -5.3150   22.9910 C   0  0  2  0  0  0  0  0  0  0  0  0
    5.5660   -5.2350   22.6200 C   0  0  1  0  0  0  0  0  0  0  0  0
    4.7330   -3.0830   25.6220 C   0  0  1  0  0  0  0  0  0  0  0  0
    5.2650   -4.1520   25.2700 C   0  0  0  0  0  0  0  0  0  0  0  0
    6.0090   -3.0430   24.3190 C   0  0  0  0  0  0  0  0  0  0  0  0
  2  4  1  0
  1  7  1  0
  3  7  2  0
  4  7  1  0
  1  8  1  0
  5  9  1  0
  6  9  2  0
  8  9  1  6
 10 11  1  0
 13 14  1  0
 13 15  1  0
 13 16  1  0
 17 18  1  0
 22 20  1  1
 21 22  1  0
 24 19  1  6
 22 24  1  0
 19 26  1  0
 23 26  2  0
 26 27  1  0
 29 30  2  0
 30 31  1  0
 31 32  2  0
  8 33  1  0
 32 33  1  0
 29 34  1  0
 33 34  2  0
 35 36  1  0
  1 37  1  0
 36 37  1  0
 37 38  2  0
 13 39  1  0
 35 39  2  0
 38 39  1  0
 10 40  1  0
 40 41  2  0
 17 42  1  0
 41 42  1  0
 42 43  2  0
 12 44  1  0
 43 44  1  0
  5 45  1  0
 40 45  1  0
 44 45  2  0
 25 47  2  0
 46 47  1  0
 46 48  1  0
 47 48  1  0
 48 49  1  6
 24 50  1  0
 50 25  1  0
 50 49  1  6
 51  2  1  6
 46 51  1  0
 50 51  1  0
 52 28  1  6
 48 52  1  0
 52 53  1  0
 46 54  1  1
 53 54  2  0
M  END
