x2703-x1380
     RDKit          3D

 46 51  0  0  0  0  0  0  0  0999 V2000
    6.9820   -1.8970   22.0250 C   0  0  2  0  0  0  0  0  0  0  0  0
    6.9090   -5.1830   20.4720 C   0  0  0  0  0  0  0  0  0  0  0  0
    4.8910   -3.0460   20.9750 O   0  0  0  0  0  0  0  0  0  0  0  0
    7.4460    1.9080   22.8920 N   0  0  0  0  0  0  0  0  0  0  0  0
    8.8600    0.6930   21.5590 O   0  0  0  0  0  0  0  0  0  0  0  0
    6.0400   -3.0860   21.5040 C   0  0  0  0  0  0  0  0  0  0  0  0
    6.6290   -0.4130   21.7860 C   0  0  1  0  0  0  0  0  0  0  0  0
    7.7280    0.6870   22.0390 C   0  0  0  0  0  0  0  0  0  0  0  0
   10.0840    1.9300   23.8850 C   0  0  0  0  0  0  0  0  0  0  0  0
    9.0800    1.0840   24.6760 C   0  0  0  0  0  0  0  0  0  0  0  0
    5.9770    4.3530   21.8520 C   0  0  0  0  0  0  0  0  0  0  0  0
   12.1280   -1.6150   24.6500 C   0  0  0  0  0  0  0  0  0  0  0  0
   12.8510   -2.7770   24.9490 C   0  0  0  0  0  0  0  0  0  0  0  0
   13.4090   -1.7820   23.8290 C   0  0  0  0  0  0  0  0  0  0  0  0
    4.3660   -2.3380   25.6580 O   0  0  0  0  0  0  0  0  0  0  0  0
    5.4790   -3.0700   25.3890 C   0  0  0  0  0  0  0  0  0  0  0  0
    6.3280    0.2250   17.9350 N   0  0  0  0  0  0  0  0  0  0  0  0
    5.1060    0.9910   17.8800 C   0  0  0  0  0  0  0  0  0  0  0  0
    4.4580    1.2220   19.0640 C   0  0  0  0  0  0  0  0  0  0  0  0
    4.9310    0.7660   20.2900 C   0  0  0  0  0  0  0  0  0  0  0  0
    6.1100    0.0300   20.4290 C   0  0  0  0  0  0  0  0  0  0  0  0
    6.7600   -0.2120   19.2110 C   0  0  0  0  0  0  0  0  0  0  0  0
   10.8260   -2.0300   22.4950 N   0  0  0  0  0  0  0  0  0  0  0  0
   10.8540   -1.7250   23.8670 C   0  0  0  0  0  0  0  0  0  0  0  0
    9.7250   -1.5140   24.5180 C   0  0  0  0  0  0  0  0  0  0  0  0
    8.5100   -1.5790   23.8840 C   0  0  0  0  0  0  0  0  0  0  0  0
    8.4290   -1.8800   22.5180 C   0  0  0  0  0  0  0  0  0  0  0  0
    9.6170   -2.1040   21.8740 C   0  0  0  0  0  0  0  0  0  0  0  0
    9.4240    3.2070   23.4180 C   0  0  0  0  0  0  0  0  0  0  0  0
   10.1260    4.4010   23.4920 C   0  0  0  0  0  0  0  0  0  0  0  0
    9.6500    5.6640   23.0890 C   0  0  0  0  0  0  0  0  0  0  0  0
    8.2170    5.7700   22.5010 C   0  0  0  0  0  0  0  0  0  0  0  0
    7.4060    4.4300   22.4110 C   0  0  0  0  0  0  0  0  0  0  0  0
    8.1260    3.1810   22.9180 C   0  0  0  0  0  0  0  0  0  0  0  0
    6.6660   -4.4190   21.7890 C   0  0  1  0  0  0  0  0  0  0  0  0
    5.7240   -5.2780   22.6320 C   0  0  0  0  0  0  0  0  0  0  0  0
    5.6730   -4.7060   23.8950 C   0  0  0  0  0  0  0  0  0  0  0  0
    5.7070   -3.3090   23.8860 C   0  0  2  0  0  0  0  0  0  0  0  0
    6.8900   -2.7800   23.3860 C   0  0  1  0  0  0  0  0  0  0  0  0
    7.7800   -3.9350   22.7570 C   0  0  0  0  0  0  0  0  0  0  0  0
    7.6710   -3.9970   26.1770 C   0  0  0  0  0  0  0  0  0  0  0  0
    8.0470   -5.2320   27.0850 C   0  0  0  0  0  0  0  0  0  0  0  0
    7.6080   -5.0640   28.5290 C   0  0  0  0  0  0  0  0  0  0  0  0
    6.1360   -4.6590   28.5960 C   0  0  0  0  0  0  0  0  0  0  0  0
    5.8810   -3.3850   27.7960 C   0  0  0  0  0  0  0  0  0  0  0  0
    6.2740   -3.5330   26.3940 N   0  0  0  0  0  0  0  0  0  0  0  0
  1  6  1  0
  3  6  2  0
  1  7  1  0
  4  8  1  0
  5  8  2  0
  7  8  1  6
  9 10  1  0
 12 13  1  0
 12 14  1  0
 15 16  2  0
 17 18  2  0
 18 19  1  0
 19 20  2  0
  7 21  1  0
 20 21  1  0
 17 22  1  0
 21 22  2  0
 12 24  1  0
 23 24  2  0
 24 25  1  0
 25 26  2  0
  1 27  1  6
 26 27  1  0
 23 28  1  0
 27 28  2  0
  9 29  1  0
 29 30  2  0
 30 31  1  0
 31 32  2  0
 11 33  1  0
 32 33  1  0
  4 34  1  0
 29 34  1  0
 33 34  2  0
 35  2  1  6
  6 35  1  0
 35 36  1  0
 36 37  1  0
 38 16  1  1
 37 38  1  0
  1 39  1  0
 38 39  1  0
 35 40  1  0
 39 40  1  6
 41 42  1  0
 42 43  1  0
 43 44  1  0
 44 45  1  0
 16 46  1  0
 41 46  1  0
 45 46  1  0
M  END
