x2703-x2694-x0691
     RDKit          3D

 55 60  0  0  0  0  0  0  0  0999 V2000
    6.8650   -1.3710   22.0450 C   0  0  1  0  0  0  0  0  0  0  0  0
    7.3390   -3.7210   20.3260 C   0  0  0  0  0  0  0  0  0  0  0  0
    4.7820   -2.9720   21.2740 O   0  0  0  0  0  0  0  0  0  0  0  0
    6.6910   -2.6850   19.9650 C   0  0  0  0  0  0  0  0  0  0  0  0
    7.4980    2.4840   22.6930 N   0  0  0  0  0  0  0  0  0  0  0  0
    8.9650    1.0130   21.6050 O   0  0  0  0  0  0  0  0  0  0  0  0
    5.9670   -2.3670   21.1430 C   0  0  0  0  0  0  0  0  0  0  0  0
   11.1720    6.6300   23.8340 O   0  0  0  0  0  0  0  0  0  0  0  0
    6.6620    0.2230   21.7300 C   0  0  1  0  0  0  0  0  0  0  0  0
    7.8250    1.2400   22.0050 C   0  0  0  0  0  0  0  0  0  0  0  0
   10.1100    1.7770   23.9930 C   0  0  0  0  0  0  0  0  0  0  0  0
   11.8720    6.4900   25.0700 C   0  0  0  0  0  0  0  0  0  0  0  0
   12.2780   -1.4110   22.8920 C   0  0  0  0  0  0  0  0  0  0  0  0
   12.6960    0.0800   23.1820 C   0  0  0  0  0  0  0  0  0  0  0  0
   12.8740   -1.8100   21.5340 C   0  0  0  0  0  0  0  0  0  0  0  0
   13.0300   -2.2630   23.9200 C   0  0  0  0  0  0  0  0  0  0  0  0
    9.1520    1.1810   25.0200 C   0  0  0  0  0  0  0  0  0  0  0  0
   12.1880   -2.9880   24.9110 C   0  0  0  0  0  0  0  0  0  0  0  0
    3.9960   -6.8890   25.3530 O   0  0  0  0  0  0  0  0  0  0  0  0
    5.7020   -5.4130   26.4440 O   0  0  0  0  0  0  0  0  0  0  0  0
    3.2830   -0.6770   25.9770 F   0  0  0  0  0  0  0  0  0  0  0  0
    4.7500   -5.6500   25.3820 S   0  0  0  0  0  0  0  0  0  0  0  0
    6.1230   -2.1090   23.1380 C   0  0  0  0  0  0  0  0  0  0  0  0
    5.6500   -3.4130   22.3940 C   0  0  0  0  0  0  0  0  0  0  0  0
    6.3670    0.4850   17.9340 N   0  0  0  0  0  0  0  0  0  0  0  0
    5.2380    1.2640   17.8240 C   0  0  0  0  0  0  0  0  0  0  0  0
    4.5680    1.6890   18.9760 C   0  0  0  0  0  0  0  0  0  0  0  0
    5.0250    1.3460   20.2350 C   0  0  0  0  0  0  0  0  0  0  0  0
    6.1680    0.5680   20.3310 C   0  0  0  0  0  0  0  0  0  0  0  0
    6.8010    0.1580   19.1630 C   0  0  0  0  0  0  0  0  0  0  0  0
    8.6570   -1.9210   23.8620 N   0  0  0  0  0  0  0  0  0  0  0  0
   10.0730   -1.9090   24.0410 O   0  0  0  0  0  0  0  0  0  0  0  0
   10.7380   -1.4990   22.8690 C   0  0  0  0  0  0  0  0  0  0  0  0
    9.7440   -1.2400   21.8940 C   0  0  0  0  0  0  0  0  0  0  0  0
    8.4030   -1.5210   22.5860 C   0  0  0  0  0  0  0  0  0  0  0  0
    9.7200    3.1890   23.6110 C   0  0  0  0  0  0  0  0  0  0  0  0
   10.6090    4.2480   23.8750 C   0  0  0  0  0  0  0  0  0  0  0  0
   10.2450    5.6720   23.5220 C   0  0  0  0  0  0  0  0  0  0  0  0
    9.0390    5.8970   22.9290 C   0  0  0  0  0  0  0  0  0  0  0  0
    8.1830    4.8390   22.6720 C   0  0  0  0  0  0  0  0  0  0  0  0
    8.4700    3.4880   22.9920 C   0  0  0  0  0  0  0  0  0  0  0  0
    2.9280   -1.9600   25.8270 C   0  0  0  0  0  0  0  0  0  0  0  0
    3.8940   -2.9570   25.6990 C   0  0  0  0  0  0  0  0  0  0  0  0
    3.5440   -4.3010   25.5430 C   0  0  0  0  0  0  0  0  0  0  0  0
    2.1740   -4.6390   25.5130 C   0  0  0  0  0  0  0  0  0  0  0  0
    1.1930   -3.6580   25.6390 C   0  0  0  0  0  0  0  0  0  0  0  0
    1.5720   -2.3270   25.7970 C   0  0  0  0  0  0  0  0  0  0  0  0
    6.6310   -4.3730   21.6020 C   0  0  0  0  0  0  0  0  0  0  0  0
    5.7600   -5.4890   21.4870 C   0  0  0  0  0  0  0  0  0  0  0  0
    4.9320   -5.6800   22.5690 C   0  0  0  0  0  0  0  0  0  0  0  0
    5.5540   -5.4050   23.8930 N   0  0  0  0  0  0  0  0  0  0  0  0
    6.9300   -4.8760   23.9650 C   0  0  0  0  0  0  0  0  0  0  0  0
    7.5850   -4.8250   22.7360 C   0  0  0  0  0  0  0  0  0  0  0  0
    5.9670    4.0040   21.6710 C   0  0  0  0  0  0  0  0  0  0  0  0
    6.1600    3.0840   22.7080 C   0  0  0  0  0  0  0  0  0  0  0  0
  2  4  1  0
  1  7  1  0
  3  7  2  0
  4  7  1  0
  1  9  1  0
  5 10  1  0
  6 10  2  0
  9 10  1  6
  8 12  1  0
 13 14  1  0
 13 15  1  0
 13 16  1  0
 11 17  1  0
 16 18  1  0
 19 22  2  0
 20 22  2  0
  1 23  1  0
 23 24  1  0
 25 26  2  0
 26 27  1  0
 27 28  2  0
  9 29  1  0
 28 29  1  0
 25 30  1  0
 29 30  2  0
 31 32  1  0
 13 33  1  0
 32 33  1  0
 33 34  2  0
  1 35  1  1
 31 35  2  0
 34 35  1  0
 11 36  1  0
 36 37  2  0
  8 38  1  0
 37 38  1  0
 38 39  2  0
 39 40  1  0
  5 41  1  0
 36 41  1  0
 40 41  2  0
 21 42  1  0
 42 43  2  0
 22 44  1  0
 43 44  1  0
 44 45  2  0
 45 46  1  0
 42 47  1  0
 46 47  2  0
  2 48  1  0
 48 24  1  0
 48 49  1  0
 49 50  1  0
 22 51  1  0
 50 51  1  0
 51 52  1  0
 48 53  1  0
 52 53  1  0
  5 55  1  0
 54 55  1  0
M  END
