x2705-x0755-x2776-x0771
     RDKit          3D

 61 69  0  0  0  0  0  0  0  0999 V2000
    2.1200   -5.3480   25.3700 N   0  0  0  0  0  0  0  0  0  0  0  0
    5.4140   -1.5740   26.0070 F   0  0  0  0  0  0  0  0  0  0  0  0
    0.2090   -0.9300   26.2620 C   0  0  0  0  0  0  0  0  0  0  0  0
    2.1100   -3.9950   25.6240 C   0  0  0  0  0  0  0  0  0  0  0  0
    3.4170   -3.1690   25.7510 C   0  0  0  0  0  0  0  0  0  0  0  0
    4.1540   -1.9790   25.9590 C   0  0  0  0  0  0  0  0  0  0  0  0
    2.8440   -1.3590   26.1090 C   0  0  0  0  0  0  0  0  0  0  0  0
    1.3500   -1.8500   26.0510 C   0  0  0  0  0  0  0  0  0  0  0  0
    1.0520   -3.2280   25.7920 C   0  0  0  0  0  0  0  0  0  0  0  0
    1.5300   -5.8720   24.1450 C   0  0  0  0  0  0  0  0  0  0  0  0
    6.9770   -1.3890   21.9120 C   0  0  1  0  0  0  0  0  0  0  0  0
    6.9280   -4.5030   20.5920 C   0  0  0  0  0  0  0  0  0  0  0  0
    5.1680   -3.4500   20.8410 O   0  0  0  0  0  0  0  0  0  0  0  0
    6.9250   -3.5320   21.5520 C   0  0  1  0  0  0  0  0  0  0  0  0
    7.5670    2.0470   22.8120 N   0  0  0  0  0  0  0  0  0  0  0  0
    8.8400    1.3140   21.0310 O   0  0  0  0  0  0  0  0  0  0  0  0
    5.8850   -2.4430   21.2870 C   0  0  0  0  0  0  0  0  0  0  0  0
    6.7340    0.1320   21.4980 C   0  0  1  0  0  0  0  0  0  0  0  0
    7.8430    1.2000   21.7390 C   0  0  0  0  0  0  0  0  0  0  0  0
   10.1340    2.1780   23.9720 C   0  0  0  0  0  0  0  0  0  0  0  0
    9.2420    1.3230   24.8410 C   0  0  0  0  0  0  0  0  0  0  0  0
    6.1380    4.3030   21.8890 C   0  0  0  0  0  0  0  0  0  0  0  0
   12.2650   -1.6050   22.9940 C   0  0  0  0  0  0  0  0  0  0  0  0
   12.7460   -0.2680   23.5940 C   0  0  0  0  0  0  0  0  0  0  0  0
   12.7460   -2.7680   23.8900 C   0  0  0  0  0  0  0  0  0  0  0  0
   12.9200   -1.7690   21.6180 C   0  0  0  0  0  0  0  0  0  0  0  0
   13.4440   -2.5000   25.2260 C   0  0  0  0  0  0  0  0  0  0  0  0
   10.7720    6.1270   23.9350 O   0  0  0  0  0  0  0  0  0  0  0  0
   11.8860    6.2740   24.8230 C   0  0  0  0  0  0  0  0  0  0  0  0
    4.0820   -5.3980   26.6030 N   0  0  0  0  0  0  0  0  0  0  0  0
    5.7900   -3.4320   26.4790 O   0  0  0  0  0  0  0  0  0  0  0  0
    4.9040   -4.3500   25.8130 S   0  0  1  0  0  0  0  0  0  0  0  0
    6.2290   -1.5280   23.2650 C   0  0  0  0  0  0  0  0  0  0  0  0
    5.5710   -2.7520   23.3730 C   0  0  0  0  0  0  0  0  0  0  0  0
    5.2430   -7.1950   26.5230 O   0  0  0  0  0  0  0  0  0  0  0  0
    7.5000   -6.0580   26.7970 O   0  0  0  0  0  0  0  0  0  0  0  0
    6.1300   -6.0610   26.3830 S   0  0  0  0  0  0  0  0  0  0  0  0
    6.3340    0.4380   17.7740 N   0  0  0  0  0  0  0  0  0  0  0  0
    5.2190    1.1950   17.7630 C   0  0  0  0  0  0  0  0  0  0  0  0
    4.5290    1.6320   18.8900 C   0  0  0  0  0  0  0  0  0  0  0  0
    5.0450    1.2600   20.1150 C   0  0  0  0  0  0  0  0  0  0  0  0
    6.1960    0.4890   20.1560 C   0  0  0  0  0  0  0  0  0  0  0  0
    6.8030    0.0950   18.9810 C   0  0  0  0  0  0  0  0  0  0  0  0
    9.9720   -2.1480   23.8600 N   0  0  0  0  0  0  0  0  0  0  0  0
    8.6360   -2.1420   23.6580 N   0  0  0  0  0  0  0  0  0  0  0  0
    8.3990   -1.6090   22.4570 C   0  0  0  0  0  0  0  0  0  0  0  0
    9.7300   -1.2450   21.8290 C   0  0  0  0  0  0  0  0  0  0  0  0
   10.7530   -1.6490   22.8710 C   0  0  0  0  0  0  0  0  0  0  0  0
    9.4780    3.4710   23.5560 C   0  0  0  0  0  0  0  0  0  0  0  0
   10.2840    4.8350   23.8160 C   0  0  0  0  0  0  0  0  0  0  0  0
    9.3490    5.7980   23.2790 C   0  0  0  0  0  0  0  0  0  0  0  0
    8.1010    5.6580   22.6940 C   0  0  0  0  0  0  0  0  0  0  0  0
    7.5450    4.4280   22.5500 C   0  0  0  0  0  0  0  0  0  0  0  0
    8.2000    3.3250   22.9710 C   0  0  0  0  0  0  0  0  0  0  0  0
    5.8660   -5.0710   22.9020 C   0  0  1  0  0  0  0  0  0  0  0  0
    6.4340   -3.9280   22.9320 C   0  0  1  0  0  0  0  0  0  0  0  0
    7.0390   -4.6530   24.0740 C   0  0  1  0  0  0  0  0  0  0  0  0
    5.8790   -5.3650   24.7930 C   0  0  2  0  0  0  0  0  0  0  0  0
    5.0810   -6.1180   23.7210 C   0  0  2  0  0  0  0  0  0  0  0  0
    5.5870   -6.2800   22.2330 C   0  0  0  0  0  0  0  0  0  0  0  0
    3.1230   -6.2410   25.9210 C   0  0  0  0  0  0  0  0  0  0  0  0
  1  4  1  0
  4  5  1  0
  2  6  1  0
  5  6  2  0
  5  7  1  0
  6  7  1  0
  3  8  1  0
  7  8  2  0
  4  9  2  0
  8  9  1  0
  1 10  1  0
 14 12  1  6
 11 17  1  0
 13 17  2  0
 14 17  1  0
 11 18  1  0
 15 19  1  0
 16 19  2  0
 18 19  1  6
 20 21  1  0
 23 24  1  0
 23 25  1  0
 23 26  1  0
 25 27  1  0
 28 29  1  0
 30 32  2  0
 31 32  2  0
 11 33  1  0
 33 34  1  0
 35 37  2  0
 36 37  2  0
 38 39  2  0
 39 40  1  0
 40 41  2  0
 18 42  1  0
 41 42  1  0
 38 43  1  0
 42 43  2  0
 44 45  1  0
 11 46  1  1
 45 46  2  0
 46 47  1  0
 23 48  1  0
 44 48  1  0
 47 48  2  0
 20 49  1  0
 28 50  1  0
 49 50  2  0
 50 51  1  0
 51 52  2  0
 22 53  1  0
 52 53  1  0
 15 54  1  0
 49 54  1  0
 53 54  2  0
 14 56  1  0
 56 34  1  1
 55 56  1  0
 55 57  1  0
 56 57  1  0
 32 58  1  6
 58 37  1  1
 57 58  1  1
 55 59  1  0
 58 59  1  0
 55 60  1  6
 59 60  1  6
  1 61  1  0
 30 61  1  0
M  END
