x2754-x0734
     RDKit          3D

 20 21  0  0  0  0  0  0  0  0999 V2000
    4.8720   -3.5440   25.3050 C   0  0  0  0  0  0  0  0  0  0  0  0
    3.8340   -2.9770   24.9620 O   0  0  0  0  0  0  0  0  0  0  0  0
    5.5800   -3.0680   26.4220 N   0  0  0  0  0  0  0  0  0  0  0  0
    5.1940   -4.5950   19.8810 O   0  0  0  0  0  0  0  0  0  0  0  0
    6.1920   -3.9970   20.2370 C   0  0  0  0  0  0  0  0  0  0  0  0
    7.0530   -3.2070   19.2500 C   0  0  0  0  0  0  0  0  0  0  0  0
    4.9570   -2.2630   27.4780 C   0  0  0  0  0  0  0  0  0  0  0  0
    4.3690   -4.8220   25.6620 O   0  0  0  0  0  0  0  0  0  0  0  0
    6.5870   -4.0640   21.5710 N   0  0  0  0  0  0  0  0  0  0  0  0
    6.9990   -2.8950   22.3560 C   0  0  0  0  0  0  0  0  0  0  0  0
    6.1370   -2.7290   23.4520 C   0  0  0  0  0  0  0  0  0  0  0  0
    5.7980   -3.8880   24.1650 C   0  0  0  0  0  0  0  0  0  0  0  0
    5.4290   -4.9880   23.3870 C   0  0  0  0  0  0  0  0  0  0  0  0
    6.2020   -5.3030   22.2670 C   0  0  0  0  0  0  0  0  0  0  0  0
    7.1530   -4.6800   27.5600 C   0  0  0  0  0  0  0  0  0  0  0  0
    8.4190   -5.2030   27.7900 C   0  0  0  0  0  0  0  0  0  0  0  0
    9.6240   -4.5980   27.0520 C   0  0  0  0  0  0  0  0  0  0  0  0
    9.5110   -3.4450   26.0720 C   0  0  0  0  0  0  0  0  0  0  0  0
    8.0550   -2.9530   25.9060 C   0  0  0  0  0  0  0  0  0  0  0  0
    6.9190   -3.6190   26.6820 C   0  0  0  0  0  0  0  0  0  0  0  0
  1  2  1  0
  1  3  1  0
  4  5  2  0
  5  6  1  0
  3  7  1  0
  1  8  1  0
  5  9  1  0
  9 10  1  0
 10 11  1  0
  1 12  1  0
 11 12  1  0
 12 13  1  0
  9 14  1  0
 13 14  1  0
 15 16  2  0
 16 17  1  0
 17 18  2  0
 18 19  1  0
  3 20  1  0
 15 20  1  0
 19 20  2  0
M  END
