x2754-x2608
     RDKit          3D

 36 39  0  0  0  0  0  0  0  0999 V2000
    4.9570   -3.2870   25.3480 C   0  0  0  0  0  0  0  0  0  0  0  0
    3.8140   -2.9520   25.0260 O   0  0  0  0  0  0  0  0  0  0  0  0
    5.5310   -3.0870   26.6090 N   0  0  0  0  0  0  0  0  0  0  0  0
    5.1660   -4.6600   19.8840 O   0  0  0  0  0  0  0  0  0  0  0  0
    6.1410   -4.0460   20.2540 C   0  0  0  0  0  0  0  0  0  0  0  0
    6.9860   -3.2390   19.2810 C   0  0  0  0  0  0  0  0  0  0  0  0
    5.0310   -2.0900   27.5630 C   0  0  0  0  0  0  0  0  0  0  0  0
    8.8190   -1.0990   22.4410 N   0  0  0  0  0  0  0  0  0  0  0  0
   12.7480    2.2100   22.8390 C   0  0  0  0  0  0  0  0  0  0  0  0
    8.4930    0.8240   21.2370 O   0  0  0  0  0  0  0  0  0  0  0  0
    6.9380   -0.8640   20.9270 N   0  0  0  0  0  0  0  0  0  0  0  0
    8.1420   -0.3220   21.5520 C   0  0  0  0  0  0  0  0  0  0  0  0
    6.1260   -1.7710   21.7140 C   0  0  0  0  0  0  0  0  0  0  0  0
    6.5370   -4.0900   21.5810 N   0  0  0  0  0  0  0  0  0  0  0  0
    6.9130   -2.9850   22.2370 C   0  0  2  0  0  0  0  0  0  0  0  0
    6.8680   -2.9410   23.7540 C   0  0  0  0  0  0  0  0  0  0  0  0
    5.8920   -4.0010   24.3420 C   0  0  2  0  0  0  0  0  0  0  0  0
    5.1380   -4.6170   23.3380 C   0  0  0  0  0  0  0  0  0  0  0  0
    5.9670   -5.0450   22.3190 C   0  0  0  0  0  0  0  0  0  0  0  0
    7.0640   -4.7120   27.6560 C   0  0  0  0  0  0  0  0  0  0  0  0
    8.3640   -5.2280   27.8570 C   0  0  0  0  0  0  0  0  0  0  0  0
    9.5070   -4.6760   27.2580 C   0  0  0  0  0  0  0  0  0  0  0  0
    9.3810   -3.5720   26.4220 C   0  0  0  0  0  0  0  0  0  0  0  0
    8.0150   -2.9750   26.1710 C   0  0  0  0  0  0  0  0  0  0  0  0
    6.8230   -3.6080   26.8390 C   0  0  0  0  0  0  0  0  0  0  0  0
   12.0030    0.9530   22.8990 C   0  0  0  0  0  0  0  0  0  0  0  0
   12.3620   -0.4910   23.2240 C   0  0  0  0  0  0  0  0  0  0  0  0
   11.2770   -1.3290   23.1010 C   0  0  0  0  0  0  0  0  0  0  0  0
   10.1300   -0.6390   22.7130 C   0  0  0  0  0  0  0  0  0  0  0  0
   10.3460    1.0310   22.5230 S   0  0  0  0  0  0  0  0  0  0  0  0
    6.1190    0.7660   17.6470 N   0  0  0  0  0  0  0  0  0  0  0  0
    6.7840   -0.0550   18.6460 C   0  0  0  0  0  0  0  0  0  0  0  0
    6.2440   -0.0470   19.9090 C   0  0  0  0  0  0  0  0  0  0  0  0
    5.1260    0.6550   20.3190 C   0  0  0  0  0  0  0  0  0  0  0  0
    4.4230    1.4650   19.4460 C   0  0  0  0  0  0  0  0  0  0  0  0
    4.9370    1.5500   18.0080 C   0  0  0  0  0  0  0  0  0  0  0  0
  1  2  2  0
  1  3  1  0
  4  5  2  0
  5  6  1  0
  3  7  1  0
  8 12  1  0
 10 12  2  0
 11 12  1  0
 11 13  1  0
  5 14  1  0
 15 13  1  6
 14 15  1  0
 15 16  1  0
 17  1  1  1
 16 17  1  0
 17 18  1  0
 14 19  1  0
 18 19  1  0
 20 21  2  0
 21 22  1  0
 22 23  2  0
 23 24  1  0
  3 25  1  0
 20 25  1  0
 24 25  2  0
  9 26  1  0
 26 27  2  0
 27 28  1  0
  8 29  1  0
 28 29  2  0
 26 30  1  0
 29 30  1  0
 31 32  2  0
 11 33  1  0
 32 33  1  0
 33 34  2  0
 34 35  1  0
 31 36  1  0
 35 36  2  0
M  END
