x2754-x3113-x0981
     RDKit          3D

 56 60  0  0  0  0  0  0  0  0999 V2000
    7.5150   -1.4500   21.8140 N   0  0  0  0  0  0  0  0  0  0  0  0
    8.2410    1.3810   23.2710 N   0  0  0  0  0  0  0  0  0  0  0  0
    8.8260    1.5780   21.0760 O   0  0  0  0  0  0  0  0  0  0  0  0
   11.7010    3.8370   22.4120 O   0  0  0  0  0  0  0  0  0  0  0  0
    7.1400   -0.0860   21.6500 C   0  0  1  0  0  0  0  0  0  0  0  0
    8.1500    1.0070   21.9370 C   0  0  0  0  0  0  0  0  0  0  0  0
    9.2370    2.4380   23.5150 C   0  0  0  0  0  0  0  0  0  0  0  0
   10.6550    1.9070   23.3590 C   0  0  0  0  0  0  0  0  0  0  0  0
   11.5820    3.0850   23.3600 C   0  0  0  0  0  0  0  0  0  0  0  0
   12.8780    4.5470   22.4900 C   0  0  0  0  0  0  0  0  0  0  0  0
   12.6450   -2.1260   24.2600 C   0  0  0  0  0  0  0  0  0  0  0  0
   13.4500   -2.1950   23.1300 C   0  0  0  0  0  0  0  0  0  0  0  0
   12.9550   -3.0620   25.4310 C   0  0  0  0  0  0  0  0  0  0  0  0
   12.8650   -0.7430   24.7750 C   0  0  0  0  0  0  0  0  0  0  0  0
    1.0960   -8.6790   21.3450 C   0  0  0  0  0  0  0  0  0  0  0  0
    2.6770   -7.3780   22.7350 N   0  0  0  0  0  0  0  0  0  0  0  0
    0.4550   -6.7200   22.1310 O   0  0  0  0  0  0  0  0  0  0  0  0
    1.3790   -7.5260   22.1020 C   0  0  0  0  0  0  0  0  0  0  0  0
    2.3810   -8.3830   26.5350 N   0  0  0  0  0  0  0  0  0  0  0  0
    3.8500   -8.2050   24.6580 O   0  0  0  0  0  0  0  0  0  0  0  0
    2.9200   -6.0730   23.3520 C   0  0  1  0  0  0  0  0  0  0  0  0
    5.3760   -5.9620   22.2200 N   0  0  0  0  0  0  0  0  0  0  0  0
    2.6490   -6.2820   24.8410 C   0  0  0  0  0  0  0  0  0  0  0  0
    2.9900   -7.6940   25.3570 C   0  0  0  0  0  0  0  0  0  0  0  0
    4.3000   -5.5060   23.0330 C   0  0  0  0  0  0  0  0  0  0  0  0
    4.7200   -3.1140   25.5650 C   0  0  0  0  0  0  0  0  0  0  0  0
    3.5830   -3.4390   25.8960 O   0  0  0  0  0  0  0  0  0  0  0  0
    5.6360   -2.7950   26.5110 N   0  0  0  0  0  0  0  0  0  0  0  0
    5.3430   -4.7960   19.9710 O   0  0  0  0  0  0  0  0  0  0  0  0
    6.2190   -4.0150   20.3300 C   0  0  0  0  0  0  0  0  0  0  0  0
    7.0120   -3.2170   19.3090 C   0  0  0  0  0  0  0  0  0  0  0  0
    5.1020   -2.0920   27.7050 C   0  0  0  0  0  0  0  0  0  0  0  0
    6.3860    0.2010   17.8860 N   0  0  0  0  0  0  0  0  0  0  0  0
    5.2830    0.9610   17.9580 C   0  0  0  0  0  0  0  0  0  0  0  0
    4.7260    1.3990   19.1490 C   0  0  0  0  0  0  0  0  0  0  0  0
    5.3610    1.0260   20.3340 C   0  0  0  0  0  0  0  0  0  0  0  0
    6.5080    0.2440   20.3050 C   0  0  0  0  0  0  0  0  0  0  0  0
    6.9410   -0.1230   19.0590 C   0  0  0  0  0  0  0  0  0  0  0  0
   10.0770   -1.2550   21.7810 C   0  0  0  0  0  0  0  0  0  0  0  0
   11.2430   -1.4380   22.3920 C   0  0  0  0  0  0  0  0  0  0  0  0
   11.2890   -2.0170   23.7060 C   0  0  0  0  0  0  0  0  0  0  0  0
   10.1050   -2.3890   24.3160 C   0  0  0  0  0  0  0  0  0  0  0  0
    8.8750   -2.2190   23.7120 C   0  0  0  0  0  0  0  0  0  0  0  0
    8.7640   -1.6480   22.4290 C   0  0  0  0  0  0  0  0  0  0  0  0
    6.6210   -3.8010   21.6520 N   0  0  0  0  0  0  0  0  0  0  0  0
    6.4690   -2.4220   22.2110 C   0  0  1  0  0  0  0  0  0  0  0  0
    6.3470   -2.4550   23.7180 C   0  0  0  0  0  0  0  0  0  0  0  0
    5.0130   -3.0600   24.0720 C   0  0  1  0  0  0  0  0  0  0  0  0
    4.9680   -4.3990   23.3530 C   0  0  0  0  0  0  0  0  0  0  0  0
    6.2300   -4.8740   22.5940 C   0  0  1  0  0  0  0  0  0  0  0  0
    6.9270   -4.6250   27.6080 C   0  0  0  0  0  0  0  0  0  0  0  0
    8.2800   -5.3410   27.8090 C   0  0  0  0  0  0  0  0  0  0  0  0
    9.3830   -4.8620   27.1220 C   0  0  0  0  0  0  0  0  0  0  0  0
    9.2630   -3.7650   26.2720 C   0  0  0  0  0  0  0  0  0  0  0  0
    8.0250   -3.1200   26.0950 C   0  0  0  0  0  0  0  0  0  0  0  0
    6.8510   -3.5190   26.7440 C   0  0  0  0  0  0  0  0  0  0  0  0
  1  5  1  0
  2  6  1  0
  3  6  2  0
  5  6  1  6
  2  7  1  0
  7  8  1  0
  4  9  1  0
  8  9  1  0
  4 10  1  0
 11 12  1  0
 11 13  1  0
 11 14  1  0
 15 18  1  0
 16 18  1  0
 17 18  2  0
 16 21  1  0
 21 23  1  1
 19 24  1  0
 20 24  2  0
 23 24  1  0
 21 25  1  0
 22 25  1  0
 26 27  2  0
 26 28  1  0
 29 30  2  0
 30 31  1  0
 28 32  1  0
 33 34  2  0
 34 35  1  0
 35 36  2  0
  5 37  1  0
 36 37  1  0
 33 38  1  0
 37 38  2  0
 39 40  2  0
 11 41  1  0
 40 41  1  0
 41 42  2  0
 42 43  1  0
  1 44  1  0
 39 44  1  0
 43 44  2  0
 30 45  1  0
 46  1  1  1
 45 46  1  0
 46 47  1  0
 48 26  1  1
 47 48  1  0
 25 49  2  0
 48 49  1  0
 50 22  1  6
 45 50  1  0
 49 50  1  0
 51 52  2  0
 52 53  1  0
 53 54  2  0
 54 55  1  0
 28 56  1  0
 51 56  1  0
 55 56  2  0
M  END
