x2754-x2600
     RDKit          3D

 38 41  0  0  0  0  0  0  0  0999 V2000
    4.9980   -3.1080   25.2950 C   0  0  0  0  0  0  0  0  0  0  0  0
    3.8300   -2.8510   24.9940 O   0  0  0  0  0  0  0  0  0  0  0  0
    5.5850   -2.8810   26.5480 N   0  0  0  0  0  0  0  0  0  0  0  0
    5.1550   -4.4920   19.8340 O   0  0  0  0  0  0  0  0  0  0  0  0
    6.1570   -3.8910   20.1800 C   0  0  0  0  0  0  0  0  0  0  0  0
    7.0580   -3.1530   19.1910 C   0  0  0  0  0  0  0  0  0  0  0  0
    4.9280   -2.1630   27.6440 C   0  0  0  0  0  0  0  0  0  0  0  0
   13.9890   -1.5660   20.4300 N   0  0  0  0  0  0  0  0  0  0  0  0
    8.1720   -0.1120   21.8180 C   0  0  0  0  0  0  0  0  0  0  0  0
    8.8340    0.8190   21.3410 O   0  0  0  0  0  0  0  0  0  0  0  0
    8.5540   -0.3810   23.1420 C   0  0  0  0  0  0  0  0  0  0  0  0
    7.1430   -0.8230   21.1720 N   0  0  0  0  0  0  0  0  0  0  0  0
   13.1230   -1.3690   21.5690 C   0  0  0  0  0  0  0  0  0  0  0  0
    6.4340   -1.5400   21.7790 C   0  0  0  0  0  0  0  0  0  0  0  0
    6.5240   -3.9150   21.5100 N   0  0  0  0  0  0  0  0  0  0  0  0
    7.0430   -2.7060   22.2950 C   0  0  2  0  0  0  0  0  0  0  0  0
    6.8230   -2.7920   23.6930 C   0  0  0  0  0  0  0  0  0  0  0  0
    5.9390   -3.7470   24.2570 C   0  0  2  0  0  0  0  0  0  0  0  0
    5.1970   -4.6110   23.2290 C   0  0  0  0  0  0  0  0  0  0  0  0
    6.1700   -4.9870   22.1570 C   0  0  0  0  0  0  0  0  0  0  0  0
    7.0690   -4.6620   27.6160 C   0  0  0  0  0  0  0  0  0  0  0  0
    8.4230   -5.3160   27.8490 C   0  0  0  0  0  0  0  0  0  0  0  0
    9.5830   -4.6570   27.1430 C   0  0  0  0  0  0  0  0  0  0  0  0
    9.3800   -3.4170   26.2610 C   0  0  0  0  0  0  0  0  0  0  0  0
    7.9310   -2.8980   26.1500 C   0  0  0  0  0  0  0  0  0  0  0  0
    6.8810   -3.5290   26.8100 C   0  0  0  0  0  0  0  0  0  0  0  0
    6.3820    0.5750   17.7450 N   0  0  0  0  0  0  0  0  0  0  0  0
    7.0010   -0.1170   18.6970 C   0  0  0  0  0  0  0  0  0  0  0  0
    6.5150   -0.1100   20.1300 C   0  0  0  0  0  0  0  0  0  0  0  0
    5.2620    0.7410   20.3790 C   0  0  0  0  0  0  0  0  0  0  0  0
    4.6430    1.4810   19.1990 C   0  0  0  0  0  0  0  0  0  0  0  0
    5.2880    1.3120   17.9870 C   0  0  0  0  0  0  0  0  0  0  0  0
   10.6220   -0.2140   24.6120 C   0  0  0  0  0  0  0  0  0  0  0  0
   12.0010   -0.3350   24.8140 C   0  0  0  0  0  0  0  0  0  0  0  0
   12.8150   -0.7220   23.7950 C   0  0  0  0  0  0  0  0  0  0  0  0
   12.2760   -1.0000   22.5690 C   0  0  0  0  0  0  0  0  0  0  0  0
   10.9240   -0.9130   22.3070 C   0  0  0  0  0  0  0  0  0  0  0  0
   10.0460   -0.5000   23.3640 C   0  0  0  0  0  0  0  0  0  0  0  0
  1  2  2  0
  1  3  1  0
  4  5  2  0
  5  6  1  0
  3  7  1  0
  9 10  2  0
  9 11  1  0
  9 12  1  0
  8 13  3  0
 12 14  1  0
  5 15  1  0
 16 14  1  6
 15 16  1  0
 16 17  1  0
 18  1  1  6
 17 18  1  0
 18 19  1  0
 15 20  1  0
 19 20  1  0
 21 22  2  0
 22 23  1  0
 23 24  2  0
 24 25  1  0
  3 26  1  0
 21 26  1  0
 25 26  2  0
 27 28  2  0
 12 29  1  0
 28 29  1  0
 29 30  2  0
 30 31  1  0
 27 32  1  0
 31 32  2  0
 33 34  2  0
 34 35  1  0
 13 36  1  0
 35 36  2  0
 36 37  1  0
 11 38  1  0
 33 38  1  0
 37 38  2  0
M  END
