x2754-x3117-x2703
     RDKit          3D

 49 53  0  0  0  0  0  0  0  0999 V2000
    7.3980   -1.5790   21.7250 N   0  0  0  0  0  0  0  0  0  0  0  0
    7.3350    2.0180   22.8570 N   0  0  0  0  0  0  0  0  0  0  0  0
    8.8520    1.3060   21.0010 O   0  0  0  0  0  0  0  0  0  0  0  0
    6.8380   -0.1760   21.6780 C   0  0  1  0  0  0  0  0  0  0  0  0
    7.7230    1.0640   21.8320 C   0  0  0  0  0  0  0  0  0  0  0  0
    9.9950    1.9780   23.9750 C   0  0  0  0  0  0  0  0  0  0  0  0
    9.1410    1.2120   24.9520 C   0  0  0  0  0  0  0  0  0  0  0  0
    6.0930    4.5170   21.8970 C   0  0  0  0  0  0  0  0  0  0  0  0
   12.3620   -1.9870   24.2810 C   0  0  0  0  0  0  0  0  0  0  0  0
   12.1800   -3.1170   25.3100 C   0  0  0  0  0  0  0  0  0  0  0  0
   12.6890   -0.6640   24.9450 C   0  0  0  0  0  0  0  0  0  0  0  0
   13.4680   -2.3610   23.2980 C   0  0  0  0  0  0  0  0  0  0  0  0
    4.5280   -3.1770   25.2540 C   0  0  0  0  0  0  0  0  0  0  0  0
    3.3210   -3.1120   25.4730 O   0  0  0  0  0  0  0  0  0  0  0  0
    5.4370   -2.8690   26.4020 N   0  0  0  0  0  0  0  0  0  0  0  0
    5.1090   -4.4770   19.8220 O   0  0  0  0  0  0  0  0  0  0  0  0
    6.0840   -3.8860   20.2340 C   0  0  0  0  0  0  0  0  0  0  0  0
    6.9750   -3.1370   19.2810 C   0  0  0  0  0  0  0  0  0  0  0  0
    4.9530   -2.0590   27.5280 C   0  0  0  0  0  0  0  0  0  0  0  0
    6.3500    0.2950   17.9490 N   0  0  0  0  0  0  0  0  0  0  0  0
    5.1490    0.9040   17.9230 C   0  0  0  0  0  0  0  0  0  0  0  0
    4.4100    1.1840   19.0480 C   0  0  0  0  0  0  0  0  0  0  0  0
    4.8760    0.8570   20.3040 C   0  0  0  0  0  0  0  0  0  0  0  0
    6.1170    0.2380   20.3720 C   0  0  0  0  0  0  0  0  0  0  0  0
    6.7980   -0.0220   19.1810 C   0  0  0  0  0  0  0  0  0  0  0  0
   11.0330   -1.3180   22.2570 N   0  0  0  0  0  0  0  0  0  0  0  0
   11.0780   -1.8590   23.6040 C   0  0  0  0  0  0  0  0  0  0  0  0
    9.9220   -2.2500   24.2360 C   0  0  0  0  0  0  0  0  0  0  0  0
    8.7190   -2.1400   23.5880 C   0  0  0  0  0  0  0  0  0  0  0  0
    8.6530   -1.6320   22.2950 C   0  0  0  0  0  0  0  0  0  0  0  0
    9.8300   -1.2380   21.6960 C   0  0  0  0  0  0  0  0  0  0  0  0
    9.3250    3.2510   23.4890 C   0  0  0  0  0  0  0  0  0  0  0  0
   10.0540    4.4310   23.5990 C   0  0  0  0  0  0  0  0  0  0  0  0
    9.4980    5.6310   23.1620 C   0  0  0  0  0  0  0  0  0  0  0  0
    8.2150    5.6460   22.6140 C   0  0  0  0  0  0  0  0  0  0  0  0
    7.4760    4.4670   22.5000 C   0  0  0  0  0  0  0  0  0  0  0  0
    8.0290    3.2560   22.9430 C   0  0  0  0  0  0  0  0  0  0  0  0
    6.4300   -3.9380   21.5900 N   0  0  0  0  0  0  0  0  0  0  0  0
    6.7070   -2.7010   22.3570 C   0  0  2  0  0  0  0  0  0  0  0  0
    5.6000   -2.3280   23.1350 C   0  0  0  0  0  0  0  0  0  0  0  0
    5.0200   -3.5570   23.8380 C   0  0  1  0  0  0  0  0  0  0  0  0
    5.8950   -4.7920   23.8770 C   0  0  0  0  0  0  0  0  0  0  0  0
    6.3240   -5.1420   22.4290 C   0  0  0  0  0  0  0  0  0  0  0  0
    6.8520   -4.7160   27.4090 C   0  0  0  0  0  0  0  0  0  0  0  0
    8.1130   -5.3220   27.6560 C   0  0  0  0  0  0  0  0  0  0  0  0
    9.3120   -4.7890   27.1780 C   0  0  0  0  0  0  0  0  0  0  0  0
    9.3320   -3.6360   26.4330 C   0  0  0  0  0  0  0  0  0  0  0  0
    8.0180   -2.9480   26.1410 C   0  0  0  0  0  0  0  0  0  0  0  0
    6.7120   -3.5140   26.6550 C   0  0  0  0  0  0  0  0  0  0  0  0
  1  4  1  0
  2  5  1  0
  3  5  2  0
  4  5  1  6
  6  7  1  0
  9 10  1  0
  9 11  1  0
  9 12  1  0
 13 14  2  0
 13 15  1  0
 16 17  2  0
 17 18  1  0
 15 19  1  0
 20 21  2  0
 21 22  1  0
 22 23  2  0
  4 24  1  0
 23 24  1  0
 20 25  1  0
 24 25  2  0
  9 27  1  0
 26 27  2  0
 27 28  1  0
 28 29  2  0
  1 30  1  0
 29 30  1  0
 26 31  1  0
 30 31  2  0
  6 32  1  0
 32 33  2  0
 33 34  1  0
 34 35  2  0
  8 36  1  0
 35 36  1  0
  2 37  1  0
 32 37  1  0
 36 37  2  0
 17 38  1  0
 39  1  1  6
 38 39  1  0
 39 40  1  0
 41 13  1  1
 40 41  1  0
 41 42  1  0
 38 43  1  0
 42 43  1  0
 44 45  2  0
 45 46  1  0
 46 47  2  0
 47 48  1  0
 15 49  1  0
 44 49  1  0
 48 49  2  0
M  END
