x2754-x1458
     RDKit          3D

 20 21  0  0  0  0  0  0  0  0999 V2000
    4.5680   -3.9660   25.9480 C   0  0  0  0  0  0  0  0  0  0  0  0
    5.1980   -4.5200   19.8610 O   0  0  0  0  0  0  0  0  0  0  0  0
    6.0350   -5.7690   28.0020 C   0  0  0  0  0  0  0  0  0  0  0  0
    5.9610   -3.4200   25.6770 C   0  0  2  0  0  0  0  0  0  0  0  0
    6.2610   -4.0430   20.2170 C   0  0  0  0  0  0  0  0  0  0  0  0
    7.1360   -3.2820   19.2460 C   0  0  0  0  0  0  0  0  0  0  0  0
    3.5410   -3.4840   25.4740 O   0  0  0  0  0  0  0  0  0  0  0  0
    5.7080   -1.9390   26.0420 C   0  0  0  0  0  0  0  0  0  0  0  0
    6.7480   -4.2180   21.4890 N   0  0  0  0  0  0  0  0  0  0  0  0
    7.4690   -3.0840   22.0680 C   0  0  0  0  0  0  0  0  0  0  0  0
    6.7290   -2.5590   23.3010 C   0  0  0  0  0  0  0  0  0  0  0  0
    6.4150   -3.7330   24.2010 C   0  0  0  0  0  0  0  0  0  0  0  0
    5.6030   -4.8160   23.4330 C   0  0  0  0  0  0  0  0  0  0  0  0
    6.3630   -5.3140   22.3700 C   0  0  0  0  0  0  0  0  0  0  0  0
    7.1860   -5.0050   27.4170 C   0  0  0  0  0  0  0  0  0  0  0  0
    8.4160   -5.3790   27.9320 C   0  0  0  0  0  0  0  0  0  0  0  0
    9.6280   -4.8070   27.5180 C   0  0  0  0  0  0  0  0  0  0  0  0
    9.6630   -3.8110   26.5480 C   0  0  0  0  0  0  0  0  0  0  0  0
    8.4580   -3.4220   26.0270 C   0  0  0  0  0  0  0  0  0  0  0  0
    7.1360   -4.0060   26.4360 C   0  0  0  0  0  0  0  0  0  0  0  0
  4  1  1  0
  2  5  2  0
  5  6  1  0
  1  7  2  0
  4  8  1  6
  5  9  1  0
  9 10  1  0
 10 11  1  0
  4 12  1  0
 11 12  1  0
 12 13  1  0
  9 14  1  0
 13 14  1  0
  3 15  1  0
 15 16  2  0
 16 17  1  0
 17 18  2  0
 18 19  1  0
  4 20  1  0
 15 20  1  0
 19 20  2  0
M  END
