x2754-x3110-x3113-x1458
     RDKit          3D

 56 61  0  0  0  0  0  0  0  0999 V2000
    8.0710    1.7180   23.3540 N   0  0  0  0  0  0  0  0  0  0  0  0
   13.4290    5.2550   22.8660 C   0  0  0  0  0  0  0  0  0  0  0  0
   12.0400    3.3710   22.3310 O   0  0  0  0  0  0  0  0  0  0  0  0
   12.4610    4.4590   21.9610 C   0  0  0  0  0  0  0  0  0  0  0  0
    7.4000   -0.9880   22.1580 N   0  0  0  0  0  0  0  0  0  0  0  0
   11.2280    4.4450   24.1670 O   0  0  0  0  0  0  0  0  0  0  0  0
   11.2630    3.4740   23.4300 C   0  0  0  0  0  0  0  0  0  0  0  0
    8.8010    1.9170   21.2000 O   0  0  0  0  0  0  0  0  0  0  0  0
   10.4260    2.2000   23.6060 C   0  0  0  0  0  0  0  0  0  0  0  0
    8.9810    2.6460   23.8140 C   0  0  0  0  0  0  0  0  0  0  0  0
    8.0340    1.3910   22.0140 C   0  0  0  0  0  0  0  0  0  0  0  0
    6.9890    0.3580   21.6970 C   0  0  1  0  0  0  0  0  0  0  0  0
   12.5880   -1.9620   24.3030 C   0  0  0  0  0  0  0  0  0  0  0  0
   12.7970   -0.6440   25.0090 C   0  0  0  0  0  0  0  0  0  0  0  0
   13.4980   -2.1570   23.0870 C   0  0  0  0  0  0  0  0  0  0  0  0
   12.8950   -3.0760   25.3010 C   0  0  0  0  0  0  0  0  0  0  0  0
    5.1210   -3.4830   25.5090 C   0  0  0  0  0  0  0  0  0  0  0  0
    6.1540   -5.7810   19.9110 O   0  0  0  0  0  0  0  0  0  0  0  0
    6.0510   -5.8430   27.6990 C   0  0  0  0  0  0  0  0  0  0  0  0
    6.4780   -4.1890   25.3000 C   0  0  0  0  0  0  0  0  0  0  0  0
    6.4170   -4.6500   20.2590 C   0  0  0  0  0  0  0  0  0  0  0  0
    7.1720   -3.5750   19.4020 C   0  0  0  0  0  0  0  0  0  0  0  0
    6.8800   -2.0970   21.3990 C   0  0  0  0  0  0  0  0  0  0  0  0
    3.8190   -2.8790   25.4400 C   0  0  0  0  0  0  0  0  0  0  0  0
    2.9080   -2.1150   25.6780 O   0  0  0  0  0  0  0  0  0  0  0  0
    4.4140   -2.0860   26.3770 N   0  0  0  0  0  0  0  0  0  0  0  0
    4.8190   -3.5910   20.8110 N   0  0  0  0  0  0  0  0  0  0  0  0
    5.5570   -2.9030   20.0110 C   0  0  0  0  0  0  0  0  0  0  0  0
    5.1440   -2.0390   19.0030 C   0  0  0  0  0  0  0  0  0  0  0  0
    4.9650   -2.3770   27.5670 C   0  0  0  0  0  0  0  0  0  0  0  0
    6.3440    0.2830   17.9250 N   0  0  0  0  0  0  0  0  0  0  0  0
    5.2520    1.0620   17.8280 C   0  0  0  0  0  0  0  0  0  0  0  0
    4.7320    1.5880   18.9960 C   0  0  0  0  0  0  0  0  0  0  0  0
    5.2460    1.3880   20.2720 C   0  0  0  0  0  0  0  0  0  0  0  0
    6.3790    0.5860   20.3540 C   0  0  0  0  0  0  0  0  0  0  0  0
    6.8880    0.0530   19.1700 C   0  0  0  0  0  0  0  0  0  0  0  0
    9.7560   -1.2610   21.8720 C   0  0  0  0  0  0  0  0  0  0  0  0
   11.0210   -1.5110   22.4000 C   0  0  0  0  0  0  0  0  0  0  0  0
   11.2210   -1.7460   23.7730 C   0  0  0  0  0  0  0  0  0  0  0  0
   10.0740   -1.7300   24.5810 C   0  0  0  0  0  0  0  0  0  0  0  0
    8.8410   -1.4780   24.0110 C   0  0  0  0  0  0  0  0  0  0  0  0
    8.6530   -1.2370   22.6660 C   0  0  0  0  0  0  0  0  0  0  0  0
    5.8080   -4.2680   21.5740 C   0  0  2  0  0  0  0  0  0  0  0  0
    6.4340   -3.2440   22.3180 C   0  0  1  0  0  0  0  0  0  0  0  0
    7.4420   -3.6590   23.1110 C   0  0  0  0  0  0  0  0  0  0  0  0
    6.8620   -4.7400   23.9810 C   0  0  2  0  0  0  0  0  0  0  0  0
    5.4680   -5.1170   23.6950 C   0  0  2  0  0  0  0  0  0  0  0  0
    5.3570   -5.3930   22.2230 C   0  0  0  0  0  0  0  0  0  0  0  0
    5.4360   -2.6960   23.1140 C   0  0  0  0  0  0  0  0  0  0  0  0
    4.8290   -3.7630   24.0240 C   0  0  2  0  0  0  0  0  0  0  0  0
    7.3430   -5.1960   27.3110 C   0  0  0  0  0  0  0  0  0  0  0  0
    8.3960   -5.4330   28.1340 C   0  0  0  0  0  0  0  0  0  0  0  0
    9.7780   -4.8640   27.8600 C   0  0  0  0  0  0  0  0  0  0  0  0
    9.9690   -3.9960   26.6240 C   0  0  0  0  0  0  0  0  0  0  0  0
    8.7330   -3.7650   25.7570 C   0  0  0  0  0  0  0  0  0  0  0  0
    7.4860   -4.4270   26.2010 C   0  0  0  0  0  0  0  0  0  0  0  0
  2  4  1  0
  3  4  1  0
  3  7  1  0
  6  7  2  0
  7  9  1  0
  1 10  1  0
  9 10  1  0
  1 11  1  0
  8 11  2  0
  5 12  1  0
 12 11  1  6
 13 14  1  0
 13 15  1  0
 13 16  1  0
 17 20  2  0
 18 21  2  0
 21 22  1  0
  5 23  1  0
 17 24  1  0
 24 25  2  0
 24 26  1  0
 27 28  2  3
 28 29  1  0
 26 30  1  0
 31 32  2  0
 32 33  1  0
 33 34  2  0
 12 35  1  0
 34 35  1  0
 31 36  1  0
 35 36  2  0
 37 38  2  0
 13 39  1  0
 38 39  1  0
 39 40  2  0
 40 41  1  0
  5 42  1  0
 37 42  1  0
 41 42  2  0
 21 43  1  0
 43 27  1  6
 44 23  1  6
 43 44  1  0
 44 45  1  0
 46 20  1  1
 45 46  1  0
 46 47  1  0
 43 48  1  0
 47 48  1  6
 44 49  1  0
 50 17  1  1
 47 50  1  0
 49 50  1  0
 19 51  1  0
 51 52  2  0
 52 53  1  0
 53 54  2  0
 54 55  1  0
 20 56  1  0
 51 56  1  0
 55 56  2  0
M  END
