x2754-x2776-x2694
     RDKit          3D

 50 54  0  0  0  0  0  0  0  0999 V2000
    7.2520   -1.3390   21.6230 N   0  0  0  0  0  0  0  0  0  0  0  0
    7.7480    1.8730   22.9480 N   0  0  0  0  0  0  0  0  0  0  0  0
    8.9480    1.2670   20.9560 O   0  0  0  0  0  0  0  0  0  0  0  0
   10.7330    6.7440   23.8420 O   0  0  0  0  0  0  0  0  0  0  0  0
    6.7860   -0.0200   21.5370 C   0  0  1  0  0  0  0  0  0  0  0  0
   13.8050   -2.8720   24.3090 O   0  0  0  0  0  0  0  0  0  0  0  0
    7.8690    1.0580   21.8320 C   0  0  0  0  0  0  0  0  0  0  0  0
   10.4180    1.6510   23.8290 C   0  0  0  0  0  0  0  0  0  0  0  0
   11.8120    6.7130   24.7800 C   0  0  0  0  0  0  0  0  0  0  0  0
   12.7700   -2.0000   23.9010 C   0  0  1  0  0  0  0  0  0  0  0  0
   13.0150   -0.4990   23.9900 C   0  0  0  0  0  0  0  0  0  0  0  0
   13.5900   -3.2000   25.6790 C   0  0  0  0  0  0  0  0  0  0  0  0
   12.1680   -2.1580   22.5420 C   0  0  0  0  0  0  0  0  0  0  0  0
    4.8930   -3.1290   25.3290 C   0  0  0  0  0  0  0  0  0  0  0  0
    3.6830   -2.9500   25.1780 O   0  0  0  0  0  0  0  0  0  0  0  0
    5.5260   -3.1850   26.6570 N   0  0  0  0  0  0  0  0  0  0  0  0
    5.2740   -4.4910   19.8550 O   0  0  0  0  0  0  0  0  0  0  0  0
    6.2200   -3.7700   20.1610 C   0  0  0  0  0  0  0  0  0  0  0  0
    7.1180   -3.1240   19.1210 C   0  0  0  0  0  0  0  0  0  0  0  0
    5.1770   -2.1340   27.4280 C   0  0  0  0  0  0  0  0  0  0  0  0
    6.4020    0.4820   17.7560 N   0  0  0  0  0  0  0  0  0  0  0  0
    5.2170    1.3240   17.7710 C   0  0  0  0  0  0  0  0  0  0  0  0
    4.6260    1.6490   18.9870 C   0  0  0  0  0  0  0  0  0  0  0  0
    5.0990    1.2270   20.2170 C   0  0  0  0  0  0  0  0  0  0  0  0
    6.2310    0.4350   20.1970 C   0  0  0  0  0  0  0  0  0  0  0  0
    6.8760    0.0540   19.0360 C   0  0  0  0  0  0  0  0  0  0  0  0
    9.7970    2.9860   23.5950 C   0  0  0  0  0  0  0  0  0  0  0  0
   10.6680    4.1980   23.8540 C   0  0  0  0  0  0  0  0  0  0  0  0
   10.0800    5.5580   23.6390 C   0  0  0  0  0  0  0  0  0  0  0  0
    8.6470    5.6490   23.1570 C   0  0  0  0  0  0  0  0  0  0  0  0
    7.8230    4.3800   22.9090 C   0  0  0  0  0  0  0  0  0  0  0  0
    8.4620    3.0940   23.1540 C   0  0  0  0  0  0  0  0  0  0  0  0
    9.6220   -1.7790   21.9770 C   0  0  0  0  0  0  0  0  0  0  0  0
   10.7990   -1.7620   22.9250 C   0  0  0  0  0  0  0  0  0  0  0  0
   10.6500   -1.3190   24.3770 C   0  0  0  0  0  0  0  0  0  0  0  0
    9.2710   -0.9050   24.7680 C   0  0  0  0  0  0  0  0  0  0  0  0
    8.2410   -0.9300   23.8770 C   0  0  0  0  0  0  0  0  0  0  0  0
    8.3650   -1.3650   22.4440 C   0  0  0  0  0  0  0  0  0  0  0  0
    6.5040   -3.5730   21.5020 N   0  0  0  0  0  0  0  0  0  0  0  0
    6.1650   -2.3290   22.0020 C   0  0  1  0  0  0  0  0  0  0  0  0
    5.7940   -2.1590   23.3480 C   0  0  0  0  0  0  0  0  0  0  0  0
    5.8240   -3.3160   24.1130 C   0  0  2  0  0  0  0  0  0  0  0  0
    5.5780   -4.5000   23.4350 C   0  0  0  0  0  0  0  0  0  0  0  0
    6.4090   -4.6300   22.3490 C   0  0  0  0  0  0  0  0  0  0  0  0
    7.1750   -4.7480   27.6380 C   0  0  0  0  0  0  0  0  0  0  0  0
    8.4970   -5.1950   27.7290 C   0  0  0  0  0  0  0  0  0  0  0  0
    9.5480   -4.6430   27.0370 C   0  0  0  0  0  0  0  0  0  0  0  0
    9.3000   -3.5890   26.2000 C   0  0  0  0  0  0  0  0  0  0  0  0
    7.8830   -3.0570   26.0590 C   0  0  0  0  0  0  0  0  0  0  0  0
    6.8560   -3.6690   26.7950 C   0  0  0  0  0  0  0  0  0  0  0  0
  1  5  1  0
  2  7  1  0
  3  7  2  0
  5  7  1  6
  4  9  1  0
  6 10  1  0
 10 11  1  6
  6 12  1  0
 10 13  1  0
 14 15  2  0
 14 16  1  0
 17 18  2  0
 18 19  1  0
 16 20  1  0
 21 22  2  0
 22 23  1  0
 23 24  2  0
  5 25  1  0
 24 25  1  0
 21 26  1  0
 25 26  2  0
  8 27  1  0
 27 28  2  0
  4 29  1  0
 28 29  1  0
 29 30  2  0
 30 31  1  0
  2 32  1  0
 27 32  1  0
 31 32  2  0
 13 34  1  0
 33 34  2  0
 34 35  1  0
 35 36  2  0
 36 37  1  0
  1 38  1  0
 33 38  1  0
 37 38  2  0
 18 39  1  0
 40  1  1  1
 39 40  1  0
 40 41  1  0
 42 14  1  1
 41 42  1  0
 42 43  1  0
 39 44  1  0
 43 44  1  0
 45 46  2  0
 46 47  1  0
 47 48  2  0
 48 49  1  0
 16 50  1  0
 45 50  1  0
 49 50  2  0
M  END
