x2754-x1458-x0678
     RDKit          3D

 38 41  0  0  0  0  0  0  0  0999 V2000
    4.4390   -3.8440   25.8080 C   0  0  0  0  0  0  0  0  0  0  0  0
    5.2820   -4.9040   19.9750 O   0  0  0  0  0  0  0  0  0  0  0  0
    6.0610   -5.9390   26.8250 C   0  0  0  0  0  0  0  0  0  0  0  0
    5.8050   -3.3850   25.3780 C   0  0  2  0  0  0  0  0  0  0  0  0
    6.2930   -4.3280   20.3340 C   0  0  0  0  0  0  0  0  0  0  0  0
    7.0150   -3.4020   19.3730 C   0  0  0  0  0  0  0  0  0  0  0  0
    3.2220   -3.9060   25.8450 O   0  0  0  0  0  0  0  0  0  0  0  0
    5.6620   -1.8840   25.0750 C   0  0  0  0  0  0  0  0  0  0  0  0
    9.3050    1.7850   21.4130 O   0  0  0  0  0  0  0  0  0  0  0  0
    8.7260    0.5890   21.9380 C   0  0  0  0  0  0  0  0  0  0  0  0
    9.1900   -0.0270   23.2790 C   0  0  0  0  0  0  0  0  0  0  0  0
    7.7010   -0.1150   21.3210 N   0  0  0  0  0  0  0  0  0  0  0  0
    6.8330   -2.2900   21.9460 C   0  0  0  0  0  0  0  0  0  0  0  0
    7.8930   -1.5220   21.1630 C   0  0  0  0  0  0  0  0  0  0  0  0
    6.8310   -4.5490   21.5940 N   0  0  0  0  0  0  0  0  0  0  0  0
    7.5060   -3.6040   22.2860 C   0  0  2  0  0  0  0  0  0  0  0  0
    7.5410   -3.6250   23.6650 C   0  0  0  0  0  0  0  0  0  0  0  0
    6.4040   -4.1990   24.2440 C   0  0  2  0  0  0  0  0  0  0  0  0
    5.5310   -4.8720   23.3910 C   0  0  0  0  0  0  0  0  0  0  0  0
    6.2270   -5.4560   22.3540 C   0  0  0  0  0  0  0  0  0  0  0  0
    6.9250   -4.7330   27.0970 C   0  0  0  0  0  0  0  0  0  0  0  0
    7.9540   -4.9720   28.1660 C   0  0  0  0  0  0  0  0  0  0  0  0
    8.8350   -3.8020   28.4960 C   0  0  0  0  0  0  0  0  0  0  0  0
    8.6720   -2.4680   27.7800 C   0  0  0  0  0  0  0  0  0  0  0  0
    7.6170   -2.3520   26.7170 C   0  0  0  0  0  0  0  0  0  0  0  0
    6.8160   -3.4810   26.4380 C   0  0  0  0  0  0  0  0  0  0  0  0
   10.8570   -1.3720   22.2460 C   0  0  0  0  0  0  0  0  0  0  0  0
   12.0790   -2.0520   22.4110 C   0  0  0  0  0  0  0  0  0  0  0  0
   13.1390   -1.2260   22.7400 C   0  0  0  0  0  0  0  0  0  0  0  0
   12.8820   -0.2130   23.7630 C   0  0  0  0  0  0  0  0  0  0  0  0
   11.4310    0.2020   23.9460 C   0  0  0  0  0  0  0  0  0  0  0  0
   10.4840   -0.6630   23.4040 C   0  0  0  0  0  0  0  0  0  0  0  0
    5.8590    1.3010   20.5280 C   0  0  0  0  0  0  0  0  0  0  0  0
    5.0290    1.7940   19.3580 C   0  0  0  0  0  0  0  0  0  0  0  0
    5.3760    1.2720   17.9860 C   0  0  0  0  0  0  0  0  0  0  0  0
    6.3630    0.4060   17.7680 N   0  0  0  0  0  0  0  0  0  0  0  0
    7.0860   -0.0220   18.8410 C   0  0  0  0  0  0  0  0  0  0  0  0
    6.8960    0.3940   20.3060 C   0  0  0  0  0  0  0  0  0  0  0  0
  4  1  1  0
  2  5  2  0
  5  6  1  0
  1  7  2  0
  4  8  1  6
  9 10  2  0
 10 11  1  0
 10 12  1  0
 12 14  1  0
 13 14  1  0
  5 15  1  0
 16 13  1  1
 15 16  1  0
 16 17  1  0
  4 18  1  0
 18 17  1  6
 18 19  1  0
 15 20  1  0
 19 20  1  0
  3 21  1  0
 21 22  2  0
 22 23  1  0
 23 24  2  0
 24 25  1  0
  4 26  1  0
 21 26  1  0
 25 26  2  0
 27 28  1  0
 28 29  1  0
 29 30  1  0
 30 31  1  0
 11 32  1  0
 27 32  1  0
 31 32  1  0
 33 34  2  0
 34 35  1  0
 35 36  2  0
 36 37  1  0
 12 38  1  0
 33 38  1  0
 37 38  2  0
M  END
