x2754-x2646
     RDKit          3D

 38 41  0  0  0  0  0  0  0  0999 V2000
    4.8690   -3.1260   25.3640 C   0  0  0  0  0  0  0  0  0  0  0  0
    3.6700   -2.9910   25.1110 O   0  0  0  0  0  0  0  0  0  0  0  0
    5.4560   -2.9920   26.6320 N   0  0  0  0  0  0  0  0  0  0  0  0
    5.3160   -4.7570   19.9640 O   0  0  0  0  0  0  0  0  0  0  0  0
    6.2300   -4.0250   20.3300 C   0  0  0  0  0  0  0  0  0  0  0  0
    7.0390   -3.2040   19.3300 C   0  0  0  0  0  0  0  0  0  0  0  0
    4.9920   -2.0260   27.6300 C   0  0  0  0  0  0  0  0  0  0  0  0
    4.5630    1.4490   21.5990 C   0  0  0  0  0  0  0  0  0  0  0  0
    8.6710    0.9020   21.7750 O   0  0  0  0  0  0  0  0  0  0  0  0
   13.3650   -2.1470   21.1370 Cl  0  0  0  0  0  0  0  0  0  0  0  0
    6.8230   -0.3840   21.2630 N   0  0  0  0  0  0  0  0  0  0  0  0
    8.0930   -0.1840   21.7470 C   0  0  0  0  0  0  0  0  0  0  0  0
    8.6790   -1.3550   22.1770 C   0  0  2  0  0  0  0  0  0  0  0  0
    7.9830   -2.3410   22.8800 C   0  0  0  0  0  0  0  0  0  0  0  0
    6.6270   -3.9450   21.6780 N   0  0  0  0  0  0  0  0  0  0  0  0
    6.7410   -2.6920   22.2910 C   0  0  1  0  0  0  0  0  0  0  0  0
    5.6950   -2.5840   23.1990 C   0  0  0  0  0  0  0  0  0  0  0  0
    5.8490   -3.4770   24.2400 C   0  0  2  0  0  0  0  0  0  0  0  0
    5.4810   -4.7990   23.5640 C   0  0  0  0  0  0  0  0  0  0  0  0
    6.4740   -5.0250   22.4430 C   0  0  0  0  0  0  0  0  0  0  0  0
    7.0540   -4.7380   27.5840 C   0  0  0  0  0  0  0  0  0  0  0  0
    8.4550   -5.3380   27.7660 C   0  0  0  0  0  0  0  0  0  0  0  0
    9.6010   -4.6070   27.0790 C   0  0  0  0  0  0  0  0  0  0  0  0
    9.2510   -3.3490   26.2760 C   0  0  0  0  0  0  0  0  0  0  0  0
    7.8030   -2.8760   26.1940 C   0  0  0  0  0  0  0  0  0  0  0  0
    6.7940   -3.5770   26.8330 C   0  0  0  0  0  0  0  0  0  0  0  0
    6.2990    0.6380   17.6170 N   0  0  0  0  0  0  0  0  0  0  0  0
    6.8040    0.0330   18.7000 C   0  0  0  0  0  0  0  0  0  0  0  0
    6.3600    0.1770   20.1250 C   0  0  0  0  0  0  0  0  0  0  0  0
    5.1890    1.1340   20.2790 C   0  0  0  0  0  0  0  0  0  0  0  0
    4.6530    1.7890   19.0140 C   0  0  0  0  0  0  0  0  0  0  0  0
    5.2390    1.5000   17.7910 C   0  0  0  0  0  0  0  0  0  0  0  0
   10.3880   -0.1110   23.7400 C   0  0  0  0  0  0  0  0  0  0  0  0
   11.7550    0.1190   23.9930 C   0  0  0  0  0  0  0  0  0  0  0  0
   12.7310   -0.4870   23.2180 C   0  0  0  0  0  0  0  0  0  0  0  0
   12.3560   -1.3360   22.1840 C   0  0  0  0  0  0  0  0  0  0  0  0
   11.0690   -1.5800   21.9210 C   0  0  0  0  0  0  0  0  0  0  0  0
   10.0450   -0.9770   22.6730 C   0  0  0  0  0  0  0  0  0  0  0  0
  1  2  2  0
  1  3  1  0
  4  5  2  0
  5  6  1  0
  3  7  1  0
  9 12  2  0
 11 12  1  0
 12 13  1  0
 13 14  1  1
  5 15  1  0
 16 14  1  1
 15 16  1  0
 16 17  1  0
 18  1  1  1
 17 18  1  0
 18 19  1  0
 15 20  1  0
 19 20  1  0
 21 22  2  0
 22 23  1  0
 23 24  2  0
 24 25  1  0
  3 26  1  0
 21 26  1  0
 25 26  2  0
 27 28  2  0
 11 29  1  0
 28 29  1  0
  8 30  1  0
 29 30  2  0
 30 31  1  0
 27 32  1  0
 31 32  2  0
 33 34  2  0
 34 35  1  0
 10 36  1  0
 35 36  2  0
 36 37  1  0
 13 38  1  0
 33 38  1  0
 37 38  2  0
M  END
