x2754-x1249
     RDKit          3D

 39 42  0  0  0  0  0  0  0  0999 V2000
    4.9360   -3.3380   25.3840 C   0  0  0  0  0  0  0  0  0  0  0  0
    3.8550   -2.5440   25.6080 N   0  0  0  0  0  0  0  0  0  0  0  0
    5.3570   -3.8760   26.5730 N   0  0  0  0  0  0  0  0  0  0  0  0
    5.2860   -4.8290   19.9630 O   0  0  0  0  0  0  0  0  0  0  0  0
    6.1810   -4.1140   20.3830 C   0  0  0  0  0  0  0  0  0  0  0  0
    6.9650   -3.2610   19.3930 C   0  0  0  0  0  0  0  0  0  0  0  0
    4.8550   -3.0970   27.7260 C   0  0  0  0  0  0  0  0  0  0  0  0
    8.1830    0.8060   24.7180 N   0  0  0  0  0  0  0  0  0  0  0  0
    7.4930    1.6800   23.8810 C   0  0  0  0  0  0  0  0  0  0  0  0
    8.0180    2.6580   23.3660 O   0  0  0  0  0  0  0  0  0  0  0  0
    9.5590    1.1010   25.0700 C   0  0  0  0  0  0  0  0  0  0  0  0
   13.5120   -2.5470   20.7620 N   0  0  0  0  0  0  0  0  0  0  0  0
   12.9560   -1.8650   21.4580 C   0  0  0  0  0  0  0  0  0  0  0  0
    3.0900   -1.7480   24.7050 C   0  0  0  0  0  0  0  0  0  0  0  0
    3.3020   -0.2920   25.0320 C   0  0  0  0  0  0  0  0  0  0  0  0
    6.5110   -4.1090   21.7380 N   0  0  0  0  0  0  0  0  0  0  0  0
    7.1960   -3.0090   22.4230 C   0  0  0  0  0  0  0  0  0  0  0  0
    6.7300   -2.8380   23.7300 C   0  0  0  0  0  0  0  0  0  0  0  0
    5.5970   -3.5910   23.9970 C   0  0  0  0  0  0  0  0  0  0  0  0
    5.8590   -4.9570   23.8510 C   0  0  0  0  0  0  0  0  0  0  0  0
    6.2330   -5.3070   22.5280 C   0  0  0  0  0  0  0  0  0  0  0  0
    7.0300   -5.3700   27.3570 C   0  0  0  0  0  0  0  0  0  0  0  0
    8.3550   -5.6690   27.6420 C   0  0  0  0  0  0  0  0  0  0  0  0
    9.4460   -4.6600   27.3920 C   0  0  0  0  0  0  0  0  0  0  0  0
    9.0710   -3.3080   26.8270 C   0  0  0  0  0  0  0  0  0  0  0  0
    7.6450   -3.0330   26.5430 C   0  0  0  0  0  0  0  0  0  0  0  0
    6.6540   -4.1300   26.8340 C   0  0  0  0  0  0  0  0  0  0  0  0
    3.7020    1.5150   23.5340 O   0  0  0  0  0  0  0  0  0  0  0  0
    4.3780    1.8220   22.3290 C   0  0  0  0  0  0  0  0  0  0  0  0
    5.5870    1.1430   22.3630 C   0  0  0  0  0  0  0  0  0  0  0  0
    6.1840    1.3300   23.7000 N   0  0  0  0  0  0  0  0  0  0  0  0
    5.5130    0.7430   24.8780 C   0  0  0  0  0  0  0  0  0  0  0  0
    4.3420    0.4170   24.1920 C   0  0  1  0  0  0  0  0  0  0  0  0
   11.7550    0.8410   23.8150 C   0  0  0  0  0  0  0  0  0  0  0  0
   12.6620    0.1970   22.9530 C   0  0  0  0  0  0  0  0  0  0  0  0
   12.1760   -1.1050   22.3250 C   0  0  0  0  0  0  0  0  0  0  0  0
   10.8060   -1.6460   22.6130 C   0  0  0  0  0  0  0  0  0  0  0  0
    9.9050   -0.9090   23.5400 C   0  0  0  0  0  0  0  0  0  0  0  0
   10.4590    0.3690   24.1320 C   0  0  0  0  0  0  0  0  0  0  0  0
  1  2  2  3
  1  3  1  0
  4  5  2  0
  5  6  1  0
  3  7  1  0
  8  9  1  0
  9 10  2  0
  8 11  1  0
 12 13  3  0
  2 14  1  0
 14 15  1  0
  5 16  1  0
 16 17  1  0
 17 18  1  0
  1 19  1  0
 18 19  1  0
 19 20  1  0
 16 21  1  0
 20 21  1  0
 22 23  2  0
 23 24  1  0
 24 25  2  0
 25 26  1  0
  3 27  1  0
 22 27  1  0
 26 27  2  0
 28 29  1  0
 29 30  1  0
  9 31  1  0
 30 31  1  0
 31 32  1  0
 33 15  1  1
 28 33  1  0
 32 33  1  0
 34 35  2  0
 13 36  1  0
 35 36  1  0
 36 37  2  0
 37 38  1  0
 11 39  1  0
 34 39  1  0
 38 39  2  0
M  END
