x2754-x3115-x3117
     RDKit          3D

 47 51  0  0  0  0  0  0  0  0999 V2000
    7.2870   -1.3820   21.7970 N   0  0  0  0  0  0  0  0  0  0  0  0
    7.7780    2.0440   22.8970 N   0  0  0  0  0  0  0  0  0  0  0  0
    8.8560    1.1370   21.0840 O   0  0  0  0  0  0  0  0  0  0  0  0
    6.7780    0.0100   21.6970 C   0  0  1  0  0  0  0  0  0  0  0  0
    7.9170    1.1040   21.8750 C   0  0  0  0  0  0  0  0  0  0  0  0
    7.2570    4.9430   22.0020 C   0  0  0  0  0  0  0  0  0  0  0  0
   12.5690   -1.9510   24.4520 C   0  0  0  0  0  0  0  0  0  0  0  0
   13.2980   -2.0410   23.1460 C   0  0  0  0  0  0  0  0  0  0  0  0
   13.0030   -3.1070   25.3550 C   0  0  0  0  0  0  0  0  0  0  0  0
   12.7270   -0.6140   25.1360 C   0  0  0  0  0  0  0  0  0  0  0  0
    5.0320   -3.2490   25.3010 C   0  0  0  0  0  0  0  0  0  0  0  0
    3.5970   -3.2090   25.4180 O   0  0  0  0  0  0  0  0  0  0  0  0
    5.4880   -3.2220   26.6270 N   0  0  0  0  0  0  0  0  0  0  0  0
    5.3370   -4.5610   19.9100 O   0  0  0  0  0  0  0  0  0  0  0  0
    6.2570   -3.8120   20.2440 C   0  0  0  0  0  0  0  0  0  0  0  0
    7.1310   -3.1400   19.1880 C   0  0  0  0  0  0  0  0  0  0  0  0
    5.0960   -2.1590   27.5760 C   0  0  0  0  0  0  0  0  0  0  0  0
    6.3040    0.4670   17.8010 N   0  0  0  0  0  0  0  0  0  0  0  0
    5.1770    1.2070   17.7610 C   0  0  0  0  0  0  0  0  0  0  0  0
    4.3750    1.6560   18.9460 C   0  0  0  0  0  0  0  0  0  0  0  0
    4.9220    1.2300   20.2900 C   0  0  0  0  0  0  0  0  0  0  0  0
    6.1890    0.4140   20.3860 C   0  0  0  0  0  0  0  0  0  0  0  0
    6.7630    0.1040   19.0120 C   0  0  0  0  0  0  0  0  0  0  0  0
    9.6430   -2.0710   21.8460 C   0  0  0  0  0  0  0  0  0  0  0  0
   11.0310   -2.2440   22.4580 C   0  0  0  0  0  0  0  0  0  0  0  0
   11.2540   -1.8730   23.7640 C   0  0  0  0  0  0  0  0  0  0  0  0
   10.0910   -1.3150   24.5670 C   0  0  0  0  0  0  0  0  0  0  0  0
    8.7260   -1.1450   23.9510 C   0  0  0  0  0  0  0  0  0  0  0  0
    8.5460   -1.5500   22.4950 C   0  0  0  0  0  0  0  0  0  0  0  0
    9.9400    5.2610   24.3210 O   0  0  0  0  0  0  0  0  0  0  0  0
   10.5630    4.0840   23.8580 C   0  0  0  0  0  0  0  0  0  0  0  0
    9.7590    2.9510   23.8160 C   0  0  0  0  0  0  0  0  0  0  0  0
    8.6930    3.1700   22.9360 C   0  0  2  0  0  0  0  0  0  0  0  0
    8.0930    4.4420   23.1790 C   0  0  1  0  0  0  0  0  0  0  0  0
    8.8980    5.5620   23.4730 C   0  0  0  0  0  0  0  0  0  0  0  0
    6.5740   -3.5800   21.5870 N   0  0  0  0  0  0  0  0  0  0  0  0
    6.2760   -2.3310   22.1180 C   0  0  1  0  0  0  0  0  0  0  0  0
    6.1950   -2.3690   23.4820 C   0  0  0  0  0  0  0  0  0  0  0  0
    5.1540   -3.2880   23.8840 C   0  0  1  0  0  0  0  0  0  0  0  0
    5.3390   -4.5800   23.3460 C   0  0  0  0  0  0  0  0  0  0  0  0
    6.5050   -4.6920   22.5510 C   0  0  0  0  0  0  0  0  0  0  0  0
    7.1120   -4.8390   27.6810 C   0  0  0  0  0  0  0  0  0  0  0  0
    8.4120   -5.2990   27.8390 C   0  0  0  0  0  0  0  0  0  0  0  0
    9.5800   -4.6710   27.1500 C   0  0  0  0  0  0  0  0  0  0  0  0
    9.1980   -3.4970   26.2750 C   0  0  0  0  0  0  0  0  0  0  0  0
    7.8750   -3.0560   26.1390 C   0  0  0  0  0  0  0  0  0  0  0  0
    6.8550   -3.7340   26.8410 C   0  0  0  0  0  0  0  0  0  0  0  0
  1  4  1  0
  2  5  1  0
  3  5  2  0
  4  5  1  6
  7  8  1  0
  7  9  1  0
  7 10  1  0
 11 12  2  0
 11 13  1  0
 14 15  2  0
 15 16  1  0
 13 17  1  0
 18 19  2  0
 19 20  1  0
 20 21  2  0
  4 22  1  0
 21 22  1  0
 18 23  1  0
 22 23  2  0
 24 25  2  0
  7 26  1  0
 25 26  1  0
 26 27  2  0
 27 28  1  0
  1 29  1  0
 24 29  1  0
 28 29  2  0
 30 31  1  0
 31 32  1  0
 33  2  1  1
 32 33  1  0
 34  6  1  6
 33 34  1  0
 30 35  1  0
 34 35  1  0
 15 36  1  0
 37  1  1  1
 36 37  1  0
 37 38  1  0
 39 11  1  1
 38 39  1  0
 39 40  1  0
 36 41  1  0
 40 41  1  0
 42 43  2  0
 43 44  1  0
 44 45  2  0
 45 46  1  0
 13 47  1  0
 42 47  1  0
 46 47  2  0
M  END
