x2754-x2705-x2694
     RDKit          3D

 50 54  0  0  0  0  0  0  0  0999 V2000
    7.6410   -1.4540   21.7900 N   0  0  0  0  0  0  0  0  0  0  0  0
    7.5380    2.1670   22.7200 N   0  0  0  0  0  0  0  0  0  0  0  0
    9.1350    1.2000   21.1560 O   0  0  0  0  0  0  0  0  0  0  0  0
    7.0170   -0.0750   21.6770 C   0  0  1  0  0  0  0  0  0  0  0  0
    7.9810    1.0980   21.8310 C   0  0  0  0  0  0  0  0  0  0  0  0
   10.4290    2.1160   23.7020 C   0  0  0  0  0  0  0  0  0  0  0  0
    9.6350    1.2260   24.3820 C   0  0  0  0  0  0  0  0  0  0  0  0
    6.1520    4.9790   22.0970 C   0  0  0  0  0  0  0  0  0  0  0  0
   12.4720   -1.4040   23.1710 C   0  0  0  0  0  0  0  0  0  0  0  0
   12.8380   -0.0920   23.4620 C   0  0  0  0  0  0  0  0  0  0  0  0
   13.0440   -2.3370   24.2720 C   0  0  0  0  0  0  0  0  0  0  0  0
   13.0180   -1.8720   21.8110 C   0  0  0  0  0  0  0  0  0  0  0  0
   10.5430    6.9790   23.6900 O   0  0  0  0  0  0  0  0  0  0  0  0
   11.6740    6.8570   24.5680 C   0  0  0  0  0  0  0  0  0  0  0  0
    4.7530   -3.1740   25.4320 C   0  0  0  0  0  0  0  0  0  0  0  0
    3.5330   -3.0710   25.2780 O   0  0  0  0  0  0  0  0  0  0  0  0
    5.4030   -3.0810   26.6400 N   0  0  0  0  0  0  0  0  0  0  0  0
    5.1960   -4.3120   19.7920 O   0  0  0  0  0  0  0  0  0  0  0  0
    6.2300   -3.7660   20.1650 C   0  0  0  0  0  0  0  0  0  0  0  0
    7.1990   -3.1260   19.1910 C   0  0  0  0  0  0  0  0  0  0  0  0
    5.0160   -2.1320   27.6700 C   0  0  0  0  0  0  0  0  0  0  0  0
    6.2970    0.2480   17.7750 N   0  0  0  0  0  0  0  0  0  0  0  0
    5.1060    1.0750   17.8340 C   0  0  0  0  0  0  0  0  0  0  0  0
    4.5780    1.4610   19.0490 C   0  0  0  0  0  0  0  0  0  0  0  0
    5.2680    1.0240   20.3340 C   0  0  0  0  0  0  0  0  0  0  0  0
    6.4200    0.2420   20.3350 C   0  0  0  0  0  0  0  0  0  0  0  0
    6.9650   -0.1820   18.9880 C   0  0  0  0  0  0  0  0  0  0  0  0
   10.1970   -1.7650   24.2360 N   0  0  0  0  0  0  0  0  0  0  0  0
    8.9150   -1.7570   23.8040 N   0  0  0  0  0  0  0  0  0  0  0  0
    8.8330   -1.4950   22.4780 C   0  0  0  0  0  0  0  0  0  0  0  0
   10.0710   -1.3120   22.0150 C   0  0  0  0  0  0  0  0  0  0  0  0
   10.9900   -1.4960   23.1860 C   0  0  0  0  0  0  0  0  0  0  0  0
    9.6530    3.4260   23.4160 C   0  0  0  0  0  0  0  0  0  0  0  0
   10.4010    4.5860   23.6630 C   0  0  0  0  0  0  0  0  0  0  0  0
    9.8440    5.8220   23.4430 C   0  0  0  0  0  0  0  0  0  0  0  0
    8.4170    5.9730   22.9130 C   0  0  0  0  0  0  0  0  0  0  0  0
    7.5430    4.7610   22.6220 C   0  0  0  0  0  0  0  0  0  0  0  0
    8.1980    3.4130   22.9050 C   0  0  0  0  0  0  0  0  0  0  0  0
    6.5990   -3.7840   21.5090 N   0  0  0  0  0  0  0  0  0  0  0  0
    6.8350   -2.5370   22.3000 C   0  0  2  0  0  0  0  0  0  0  0  0
    5.6660   -2.2610   23.2120 C   0  0  0  0  0  0  0  0  0  0  0  0
    5.6120   -3.4300   24.1880 C   0  0  2  0  0  0  0  0  0  0  0  0
    5.2350   -4.7170   23.4280 C   0  0  0  0  0  0  0  0  0  0  0  0
    6.1860   -4.9780   22.2560 C   0  0  0  0  0  0  0  0  0  0  0  0
    6.9690   -4.7160   27.6880 C   0  0  0  0  0  0  0  0  0  0  0  0
    8.3850   -5.3060   27.8350 C   0  0  0  0  0  0  0  0  0  0  0  0
    9.4740   -4.6810   26.9840 C   0  0  0  0  0  0  0  0  0  0  0  0
    9.2200   -3.6450   26.1230 C   0  0  0  0  0  0  0  0  0  0  0  0
    7.9360   -3.1270   26.0040 C   0  0  0  0  0  0  0  0  0  0  0  0
    6.7300   -3.6500   26.7980 C   0  0  0  0  0  0  0  0  0  0  0  0
  1  4  1  0
  2  5  1  0
  3  5  2  0
  4  5  1  6
  6  7  1  0
  9 10  1  0
  9 11  1  0
  9 12  1  0
 13 14  1  0
 15 16  2  0
 15 17  1  0
 18 19  2  0
 19 20  1  0
 17 21  1  0
 22 23  2  0
 23 24  1  0
 24 25  2  0
  4 26  1  0
 25 26  1  0
 22 27  1  0
 26 27  2  0
 28 29  1  0
  1 30  1  0
 29 30  2  0
 30 31  1  0
  9 32  1  0
 28 32  1  0
 31 32  2  0
  6 33  1  0
 33 34  2  0
 13 35  1  0
 34 35  1  0
 35 36  2  0
  8 37  1  0
 36 37  1  0
  2 38  1  0
 33 38  1  0
 37 38  2  0
 19 39  1  0
 40  1  1  6
 39 40  1  0
 40 41  1  0
 42 15  1  1
 41 42  1  0
 42 43  1  0
 39 44  1  0
 43 44  1  0
 45 46  2  0
 46 47  1  0
 47 48  2  0
 48 49  1  0
 17 50  1  0
 45 50  1  0
 49 50  2  0
M  END
