x2754-x2705-x0978
     RDKit          3D

 58 63  0  0  0  0  0  0  0  0999 V2000
    7.5320   -1.3740   21.7900 N   0  0  0  0  0  0  0  0  0  0  0  0
    7.5280    2.1150   22.8060 N   0  0  0  0  0  0  0  0  0  0  0  0
    9.0550    1.2880   21.0820 O   0  0  0  0  0  0  0  0  0  0  0  0
    6.9630    0.0080   21.6500 C   0  0  1  0  0  0  0  0  0  0  0  0
    7.9370    1.1440   21.8100 C   0  0  0  0  0  0  0  0  0  0  0  0
   10.2220    2.1220   23.9710 C   0  0  0  0  0  0  0  0  0  0  0  0
    9.3650    1.3420   24.7660 C   0  0  0  0  0  0  0  0  0  0  0  0
    6.0890    4.8070   21.8440 C   0  0  0  0  0  0  0  0  0  0  0  0
   12.4360   -1.4330   23.3060 C   0  0  0  0  0  0  0  0  0  0  0  0
   12.9030   -0.1560   23.5860 C   0  0  0  0  0  0  0  0  0  0  0  0
   12.9740   -2.4120   24.3830 C   0  0  0  0  0  0  0  0  0  0  0  0
   12.9180   -1.9200   21.9190 C   0  0  0  0  0  0  0  0  0  0  0  0
    1.9090   -5.8010   23.4920 N   0  0  0  0  0  0  0  0  0  0  0  0
    2.3170   -8.0780   25.1640 C   0  0  0  0  0  0  0  0  0  0  0  0
    4.5230   -8.0000   24.4690 O   0  0  0  0  0  0  0  0  0  0  0  0
    3.3800   -7.3140   24.6570 C   0  0  1  0  0  0  0  0  0  0  0  0
    4.8850   -5.5530   21.7140 N   0  0  0  0  0  0  0  0  0  0  0  0
    0.8230   -7.2240   21.9360 O   0  0  0  0  0  0  0  0  0  0  0  0
    3.0960   -6.5500   23.5360 C   0  0  2  0  0  0  0  0  0  0  0  0
    0.7960   -6.2450   22.6690 C   0  0  0  0  0  0  0  0  0  0  0  0
   -0.3600   -5.4520   22.7720 C   0  0  0  0  0  0  0  0  0  0  0  0
    4.2350   -5.5530   23.0060 C   0  0  0  0  0  0  0  0  0  0  0  0
    4.7810   -3.1610   25.4640 C   0  0  0  0  0  0  0  0  0  0  0  0
    3.5960   -2.8550   25.3240 O   0  0  0  0  0  0  0  0  0  0  0  0
    5.5030   -3.1030   26.7600 N   0  0  0  0  0  0  0  0  0  0  0  0
    5.4480   -4.5250   19.8760 O   0  0  0  0  0  0  0  0  0  0  0  0
    6.3940   -3.8280   20.2370 C   0  0  0  0  0  0  0  0  0  0  0  0
    7.2960   -3.1230   19.2340 C   0  0  0  0  0  0  0  0  0  0  0  0
    5.1110   -2.1410   27.6260 C   0  0  0  0  0  0  0  0  0  0  0  0
    6.3700    0.2220   17.9310 N   0  0  0  0  0  0  0  0  0  0  0  0
    5.2170    0.9230   17.8660 C   0  0  0  0  0  0  0  0  0  0  0  0
    4.4970    1.3810   18.9530 C   0  0  0  0  0  0  0  0  0  0  0  0
    5.0930    1.0570   20.3300 C   0  0  0  0  0  0  0  0  0  0  0  0
    6.2710    0.3510   20.3020 C   0  0  0  0  0  0  0  0  0  0  0  0
    6.8900   -0.0610   19.1380 C   0  0  0  0  0  0  0  0  0  0  0  0
   10.0790   -1.3750   24.3700 N   0  0  0  0  0  0  0  0  0  0  0  0
    8.7650   -1.3560   24.0240 N   0  0  0  0  0  0  0  0  0  0  0  0
    8.6940   -1.3800   22.6890 C   0  0  0  0  0  0  0  0  0  0  0  0
   10.0700   -1.4170   22.0970 C   0  0  0  0  0  0  0  0  0  0  0  0
   10.9400   -1.4110   23.3080 C   0  0  0  0  0  0  0  0  0  0  0  0
    9.5330    3.3930   23.5290 C   0  0  0  0  0  0  0  0  0  0  0  0
   10.2610    4.7270   23.6890 C   0  0  0  0  0  0  0  0  0  0  0  0
    9.6100    6.0310   23.2490 C   0  0  0  0  0  0  0  0  0  0  0  0
    8.2220    6.0220   22.6400 C   0  0  0  0  0  0  0  0  0  0  0  0
    7.4530    4.7030   22.4620 C   0  0  0  0  0  0  0  0  0  0  0  0
    8.1190    3.3980   22.9140 C   0  0  0  0  0  0  0  0  0  0  0  0
    6.5710   -3.7230   21.6030 N   0  0  0  0  0  0  0  0  0  0  0  0
    6.4840   -2.3530   22.1620 C   0  0  1  0  0  0  0  0  0  0  0  0
    6.2880   -2.3730   23.7020 C   0  0  0  0  0  0  0  0  0  0  0  0
    5.6130   -3.6340   24.2920 C   0  0  2  0  0  0  0  0  0  0  0  0
    5.0650   -4.5260   23.3840 C   0  0  0  0  0  0  0  0  0  0  0  0
    5.3670   -4.3220   22.0510 C   0  0  2  0  0  0  0  0  0  0  0  0
    7.0690   -4.7220   27.7430 C   0  0  0  0  0  0  0  0  0  0  0  0
    8.3650   -5.2520   27.8600 C   0  0  0  0  0  0  0  0  0  0  0  0
    9.4900   -4.6270   27.0500 C   0  0  0  0  0  0  0  0  0  0  0  0
    9.1890   -3.5610   26.2290 C   0  0  0  0  0  0  0  0  0  0  0  0
    7.8640   -3.0750   26.1580 C   0  0  0  0  0  0  0  0  0  0  0  0
    6.8180   -3.6370   26.8940 C   0  0  0  0  0  0  0  0  0  0  0  0
  1  4  1  0
  2  5  1  0
  3  5  2  0
  4  5  1  6
  6  7  1  0
  9 10  1  0
  9 11  1  0
  9 12  1  0
 16 14  1  6
 15 16  1  0
 19 13  1  1
 16 19  1  0
 13 20  1  0
 18 20  2  0
 20 21  1  0
 17 22  1  0
 19 22  1  0
 23 24  2  0
 23 25  1  0
 26 27  2  0
 27 28  1  0
 25 29  1  0
 30 31  2  0
 31 32  1  0
 32 33  2  0
  4 34  1  0
 33 34  1  0
 30 35  1  0
 34 35  2  0
 36 37  1  0
  1 38  1  0
 37 38  2  0
 38 39  1  0
  9 40  1  0
 36 40  1  0
 39 40  2  0
  6 41  1  0
 41 42  2  0
 42 43  1  0
 43 44  2  0
  8 45  1  0
 44 45  1  0
  2 46  1  0
 41 46  1  0
 45 46  2  0
 27 47  1  0
 48  1  1  1
 47 48  1  0
 48 49  1  0
 50 23  1  1
 49 50  1  0
 22 51  2  0
 50 51  1  0
 52 17  1  6
 47 52  1  0
 51 52  1  0
 53 54  2  0
 54 55  1  0
 55 56  2  0
 56 57  1  0
 25 58  1  0
 53 58  1  0
 57 58  2  0
M  END
