x2754-x1375
     RDKit          3D

 32 36  0  0  0  0  0  0  0  0999 V2000
    4.9140   -3.1130   25.2550 C   0  0  2  0  0  0  0  0  0  0  0  0
    3.5500   -3.4630   25.1350 O   0  0  0  0  0  0  0  0  0  0  0  0
    5.4820   -3.0580   26.5410 N   0  0  0  0  0  0  0  0  0  0  0  0
    5.1960   -4.4620   19.8090 O   0  0  0  0  0  0  0  0  0  0  0  0
    6.1520   -3.7790   20.1460 C   0  0  0  0  0  0  0  0  0  0  0  0
    7.0880   -3.1540   19.0780 C   0  0  0  0  0  0  0  0  0  0  0  0
    4.9660   -2.2120   27.4980 C   0  0  0  0  0  0  0  0  0  0  0  0
    2.4410   -6.6700   23.3000 O   0  0  0  0  0  0  0  0  0  0  0  0
    4.2270   -7.9970   24.4620 O   0  0  0  0  0  0  0  0  0  0  0  0
   11.0800   -4.2970   25.6990 F   0  0  0  0  0  0  0  0  0  0  0  0
    6.4450   -3.5620   21.4870 N   0  0  0  0  0  0  0  0  0  0  0  0
    6.7650   -2.5040   21.8030 C   0  0  0  0  0  0  0  0  0  0  0  0
    6.1490   -2.1380   23.1380 C   0  0  0  0  0  0  0  0  0  0  0  0
    5.7830   -3.3200   24.0290 C   0  0  2  0  0  0  0  0  0  0  0  0
    5.1170   -4.3390   23.3060 C   0  0  2  0  0  0  0  0  0  0  0  0
    6.3070   -4.5660   22.5280 C   0  0  2  0  0  0  0  0  0  0  0  0
    6.9350   -4.8430   27.6760 C   0  0  0  0  0  0  0  0  0  0  0  0
    8.1800   -5.3790   27.9570 C   0  0  0  0  0  0  0  0  0  0  0  0
    9.3270   -4.7950   27.4740 C   0  0  0  0  0  0  0  0  0  0  0  0
    9.2000   -3.6550   26.6920 C   0  0  0  0  0  0  0  0  0  0  0  0
    7.8600   -3.0150   26.3440 C   0  0  0  0  0  0  0  0  0  0  0  0
    6.7630   -3.6910   26.8930 C   0  0  0  0  0  0  0  0  0  0  0  0
    8.2240   -3.3910   23.6540 C   0  0  0  0  0  0  0  0  0  0  0  0
    9.3660   -3.3140   24.4120 C   0  0  0  0  0  0  0  0  0  0  0  0
    9.9680   -4.3930   24.9590 C   0  0  0  0  0  0  0  0  0  0  0  0
    9.3080   -5.7280   24.6820 C   0  0  0  0  0  0  0  0  0  0  0  0
    8.1480   -5.7330   23.8930 C   0  0  0  0  0  0  0  0  0  0  0  0
    7.5740   -4.5930   23.3710 C   0  0  0  0  0  0  0  0  0  0  0  0
    4.5070   -4.5330   24.7200 C   0  0  0  0  0  0  0  0  0  0  0  0
    5.1280   -5.9380   23.1210 C   0  0  0  0  0  0  0  0  0  0  0  0
    3.8250   -6.6750   24.0870 S   0  0  0  0  0  0  0  0  0  0  0  0
    3.8610   -5.5640   25.2780 C   0  0  0  0  0  0  0  0  0  0  0  0
  1  2  1  1
  1  3  1  0
  4  5  2  0
  5  6  1  0
  3  7  1  0
  5 11  1  0
 11 12  1  0
 12 13  1  0
  1 14  1  0
 14 13  1  6
 14 15  1  0
 11 16  1  0
 15 16  1  0
 17 18  2  0
 18 19  1  0
 19 20  2  0
 20 21  1  0
  3 22  1  0
 17 22  1  0
 21 22  2  0
 23 24  2  0
 10 25  1  0
 24 25  1  0
 25 26  2  0
 26 27  1  0
 16 28  1  1
 23 28  1  0
 27 28  2  0
  1 29  1  0
 15 29  1  0
 15 30  1  6
 31  8  1  0
  9 31  1  0
 30 31  1  0
 29 32  2  0
 31 32  1  0
M  END
