x2754-x0978-x2776
     RDKit          3D

 59 64  0  0  0  0  0  0  0  0999 V2000
    7.3320   -1.3460   21.8050 N   0  0  0  0  0  0  0  0  0  0  0  0
    7.7760    1.8790   23.0430 N   0  0  0  0  0  0  0  0  0  0  0  0
    8.9990    1.2440   21.0460 O   0  0  0  0  0  0  0  0  0  0  0  0
   10.7790    6.7450   23.8530 O   0  0  0  0  0  0  0  0  0  0  0  0
    6.8520   -0.0320   21.6950 C   0  0  1  0  0  0  0  0  0  0  0  0
   12.8060   -2.9620   24.4560 O   0  0  0  0  0  0  0  0  0  0  0  0
    7.9270    1.0490   21.9470 C   0  0  0  0  0  0  0  0  0  0  0  0
   10.6910    1.7340   23.7800 C   0  0  0  0  0  0  0  0  0  0  0  0
   11.8270    6.7260   24.8210 C   0  0  0  0  0  0  0  0  0  0  0  0
   12.3550   -1.6070   24.3620 C   0  0  1  0  0  0  0  0  0  0  0  0
   13.1940   -0.7700   23.4130 C   0  0  0  0  0  0  0  0  0  0  0  0
   13.3040   -3.3050   25.7340 C   0  0  0  0  0  0  0  0  0  0  0  0
    2.2640   -5.6450   22.8490 N   0  0  0  0  0  0  0  0  0  0  0  0
    2.1970   -8.1210   24.3270 C   0  0  0  0  0  0  0  0  0  0  0  0
    4.3860   -7.7170   24.1070 O   0  0  0  0  0  0  0  0  0  0  0  0
    3.2890   -7.2670   24.3980 C   0  0  1  0  0  0  0  0  0  0  0  0
    5.4210   -6.0310   22.3850 N   0  0  0  0  0  0  0  0  0  0  0  0
    0.9280   -7.5160   22.1170 O   0  0  0  0  0  0  0  0  0  0  0  0
    3.1520   -5.9940   23.8090 C   0  0  1  0  0  0  0  0  0  0  0  0
    1.0460   -6.2240   22.6960 C   0  0  0  0  0  0  0  0  0  0  0  0
   -0.1290   -5.5560   23.0540 C   0  0  0  0  0  0  0  0  0  0  0  0
    4.3790   -5.5410   23.2950 C   0  0  0  0  0  0  0  0  0  0  0  0
    4.6800   -3.1360   25.4760 C   0  0  0  0  0  0  0  0  0  0  0  0
    3.4950   -3.3440   25.7450 O   0  0  0  0  0  0  0  0  0  0  0  0
    5.6590   -2.8830   26.5650 N   0  0  0  0  0  0  0  0  0  0  0  0
    5.3190   -4.7020   19.9280 O   0  0  0  0  0  0  0  0  0  0  0  0
    6.1860   -3.8980   20.2460 C   0  0  0  0  0  0  0  0  0  0  0  0
    7.0290   -3.1830   19.1940 C   0  0  0  0  0  0  0  0  0  0  0  0
    5.1390   -2.1170   27.7380 C   0  0  0  0  0  0  0  0  0  0  0  0
    6.3520    0.3740   17.8580 N   0  0  0  0  0  0  0  0  0  0  0  0
    5.2060    1.0890   17.8100 C   0  0  0  0  0  0  0  0  0  0  0  0
    4.3700    1.5540   18.9700 C   0  0  0  0  0  0  0  0  0  0  0  0
    4.9410    1.1520   20.2960 C   0  0  0  0  0  0  0  0  0  0  0  0
    6.2290    0.3590   20.3850 C   0  0  0  0  0  0  0  0  0  0  0  0
    6.8570    0.0130   19.0440 C   0  0  0  0  0  0  0  0  0  0  0  0
    9.9390    3.0360   23.5950 C   0  0  0  0  0  0  0  0  0  0  0  0
   10.7060    4.1780   23.7980 C   0  0  0  0  0  0  0  0  0  0  0  0
   10.1170    5.5620   23.6620 C   0  0  0  0  0  0  0  0  0  0  0  0
    8.6600    5.6390   23.2790 C   0  0  0  0  0  0  0  0  0  0  0  0
    7.9220    4.3210   23.0790 C   0  0  0  0  0  0  0  0  0  0  0  0
    8.5680    3.0830   23.2450 C   0  0  0  0  0  0  0  0  0  0  0  0
    9.6040   -1.9660   21.8620 C   0  0  0  0  0  0  0  0  0  0  0  0
   10.8320   -2.0340   22.4750 C   0  0  0  0  0  0  0  0  0  0  0  0
   10.9910   -1.5420   23.7600 C   0  0  0  0  0  0  0  0  0  0  0  0
    9.9070   -0.9960   24.4340 C   0  0  0  0  0  0  0  0  0  0  0  0
    8.6610   -0.9240   23.8040 C   0  0  0  0  0  0  0  0  0  0  0  0
    8.5270   -1.4040   22.5130 C   0  0  0  0  0  0  0  0  0  0  0  0
    6.3880   -3.6890   21.6400 N   0  0  0  0  0  0  0  0  0  0  0  0
    6.2720   -2.3330   22.2740 C   0  0  1  0  0  0  0  0  0  0  0  0
    6.1330   -2.3590   23.6640 C   0  0  0  0  0  0  0  0  0  0  0  0
    5.0420   -3.1290   23.9930 C   0  0  1  0  0  0  0  0  0  0  0  0
    5.0600   -4.3840   23.4280 C   0  0  0  0  0  0  0  0  0  0  0  0
    6.2420   -4.8410   22.5780 C   0  0  1  0  0  0  0  0  0  0  0  0
    7.1120   -4.6060   27.5650 C   0  0  0  0  0  0  0  0  0  0  0  0
    8.3750   -5.1980   27.7090 C   0  0  0  0  0  0  0  0  0  0  0  0
    9.5580   -4.6130   26.9300 C   0  0  0  0  0  0  0  0  0  0  0  0
    9.3200   -3.5290   26.1200 C   0  0  0  0  0  0  0  0  0  0  0  0
    8.0290   -2.9830   26.0190 C   0  0  0  0  0  0  0  0  0  0  0  0
    6.9270   -3.4940   26.7200 C   0  0  0  0  0  0  0  0  0  0  0  0
  1  5  1  0
  2  7  1  0
  3  7  2  0
  5  7  1  6
  4  9  1  0
  6 10  1  0
 10 11  1  6
  6 12  1  0
 16 14  1  6
 15 16  1  0
 19 13  1  6
 16 19  1  0
 13 20  1  0
 18 20  2  0
 20 21  1  0
 17 22  1  0
 19 22  1  0
 23 24  2  0
 23 25  1  0
 26 27  2  0
 27 28  1  0
 25 29  1  0
 30 31  2  0
 31 32  1  0
 32 33  2  0
  5 34  1  0
 33 34  1  0
 30 35  1  0
 34 35  2  0
  8 36  1  0
 36 37  2  0
  4 38  1  0
 37 38  1  0
 38 39  2  0
 39 40  1  0
  2 41  1  0
 36 41  1  0
 40 41  2  0
 42 43  2  0
 10 44  1  0
 43 44  1  0
 44 45  2  0
 45 46  1  0
  1 47  1  0
 42 47  1  0
 46 47  2  0
 27 48  1  0
 49  1  1  1
 48 49  1  0
 49 50  1  0
 51 23  1  1
 50 51  1  0
 22 52  2  0
 51 52  1  0
 53 17  1  6
 48 53  1  0
 52 53  1  0
 54 55  2  0
 55 56  1  0
 56 57  2  0
 57 58  1  0
 25 59  1  0
 54 59  1  0
 58 59  2  0
M  END
