x2754-x0678
     RDKit          3D

 36 39  0  0  0  0  0  0  0  0999 V2000
    4.7990   -3.2320   25.3060 C   0  0  0  0  0  0  0  0  0  0  0  0
    3.5690   -3.2590   25.3450 O   0  0  0  0  0  0  0  0  0  0  0  0
    5.5800   -3.0160   26.4640 N   0  0  0  0  0  0  0  0  0  0  0  0
    5.2680   -4.6660   19.9190 O   0  0  0  0  0  0  0  0  0  0  0  0
    6.1870   -3.9450   20.2850 C   0  0  0  0  0  0  0  0  0  0  0  0
    7.0140   -3.1910   19.2600 C   0  0  0  0  0  0  0  0  0  0  0  0
    5.0570   -2.1950   27.5640 C   0  0  0  0  0  0  0  0  0  0  0  0
    9.1040    1.2880   21.2850 O   0  0  0  0  0  0  0  0  0  0  0  0
    8.6220    0.2410   21.7670 C   0  0  0  0  0  0  0  0  0  0  0  0
    9.2050   -0.3160   23.0700 C   0  0  0  0  0  0  0  0  0  0  0  0
    7.5670   -0.5010   21.2410 N   0  0  0  0  0  0  0  0  0  0  0  0
    6.7530   -1.2870   22.0020 C   0  0  0  0  0  0  0  0  0  0  0  0
    6.5140   -3.8360   21.6310 N   0  0  0  0  0  0  0  0  0  0  0  0
    7.2110   -2.7240   22.3520 C   0  0  2  0  0  0  0  0  0  0  0  0
    6.9120   -2.9360   23.8220 C   0  0  0  0  0  0  0  0  0  0  0  0
    5.4580   -3.4280   23.9220 C   0  0  1  0  0  0  0  0  0  0  0  0
    5.3620   -4.7320   23.4420 C   0  0  0  0  0  0  0  0  0  0  0  0
    6.2410   -5.0580   22.4200 C   0  0  0  0  0  0  0  0  0  0  0  0
    7.0790   -4.7060   27.4470 C   0  0  0  0  0  0  0  0  0  0  0  0
    8.3520   -5.2680   27.6720 C   0  0  0  0  0  0  0  0  0  0  0  0
    9.5140   -4.7090   27.1310 C   0  0  0  0  0  0  0  0  0  0  0  0
    9.3870   -3.5680   26.3510 C   0  0  0  0  0  0  0  0  0  0  0  0
    8.0770   -2.8760   26.0430 C   0  0  0  0  0  0  0  0  0  0  0  0
    6.8750   -3.5550   26.6720 C   0  0  0  0  0  0  0  0  0  0  0  0
   11.1370   -1.5860   22.2970 C   0  0  0  0  0  0  0  0  0  0  0  0
   12.5760   -1.9810   22.5910 C   0  0  0  0  0  0  0  0  0  0  0  0
   13.2490   -1.0870   23.4450 C   0  0  0  0  0  0  0  0  0  0  0  0
   12.5390   -0.3970   24.4470 C   0  0  0  0  0  0  0  0  0  0  0  0
   11.1660   -0.5950   24.4110 C   0  0  0  0  0  0  0  0  0  0  0  0
   10.7290   -0.5220   23.0950 C   0  0  0  0  0  0  0  0  0  0  0  0
    5.7390    0.9710   20.4660 C   0  0  0  0  0  0  0  0  0  0  0  0
    4.9890    1.5770   19.4440 C   0  0  0  0  0  0  0  0  0  0  0  0
    5.3960    1.2590   18.0100 C   0  0  0  0  0  0  0  0  0  0  0  0
    6.4040    0.4520   17.6860 N   0  0  0  0  0  0  0  0  0  0  0  0
    7.0980   -0.1150   18.7460 C   0  0  0  0  0  0  0  0  0  0  0  0
    6.8140    0.1120   20.1970 C   0  0  0  0  0  0  0  0  0  0  0  0
  1  2  2  0
  1  3  1  0
  4  5  2  0
  5  6  1  0
  3  7  1  0
  8  9  2  0
  9 10  1  0
  9 11  1  0
 11 12  1  0
  5 13  1  0
 14 12  1  6
 13 14  1  0
 14 15  1  0
 16  1  1  1
 15 16  1  0
 16 17  1  0
 13 18  1  0
 17 18  1  0
 19 20  2  0
 20 21  1  0
 21 22  2  0
 22 23  1  0
  3 24  1  0
 19 24  1  0
 23 24  2  0
 25 26  1  0
 26 27  1  0
 27 28  1  0
 28 29  1  0
 10 30  1  0
 25 30  1  0
 29 30  1  0
 31 32  2  0
 32 33  1  0
 33 34  2  0
 34 35  1  0
 11 36  1  0
 31 36  1  0
 35 36  2  0
M  END
