x2754-x3108
     RDKit          3D

 34 36  0  0  0  0  0  0  0  0999 V2000
    6.0070    1.7660   21.9590 C   0  0  0  0  0  0  0  0  0  0  0  0
    9.2600    1.9370   21.3350 O   0  0  0  0  0  0  0  0  0  0  0  0
    8.1830   -0.1170   21.2470 N   0  0  0  0  0  0  0  0  0  0  0  0
    7.9280   -0.0280   25.0200 O   0  0  0  0  0  0  0  0  0  0  0  0
    9.5880   -1.0120   23.3510 N   0  0  0  0  0  0  0  0  0  0  0  0
    9.1150    0.7830   21.7400 C   0  0  0  0  0  0  0  0  0  0  0  0
   10.0180    0.2640   22.8670 C   0  0  0  0  0  0  0  0  0  0  0  0
    8.3870   -1.0990   24.1880 C   0  0  0  0  0  0  0  0  0  0  0  0
    7.7180   -2.4620   24.0150 C   0  0  1  0  0  0  0  0  0  0  0  0
    4.7110   -3.1860   25.2460 C   0  0  0  0  0  0  0  0  0  0  0  0
    3.4990   -3.3350   25.4030 O   0  0  0  0  0  0  0  0  0  0  0  0
    5.5170   -2.7570   26.2750 N   0  0  0  0  0  0  0  0  0  0  0  0
    5.2340   -4.8100   19.9230 O   0  0  0  0  0  0  0  0  0  0  0  0
    6.0710   -4.0240   20.3040 C   0  0  0  0  0  0  0  0  0  0  0  0
    6.9900   -3.2860   19.3300 C   0  0  0  0  0  0  0  0  0  0  0  0
    4.9210   -2.2860   27.5440 C   0  0  0  0  0  0  0  0  0  0  0  0
    6.2660    0.0280   17.9900 N   0  0  0  0  0  0  0  0  0  0  0  0
    7.2470   -0.3250   19.0070 C   0  0  0  0  0  0  0  0  0  0  0  0
    7.1540    0.2470   20.2710 C   0  0  0  0  0  0  0  0  0  0  0  0
    6.1460    1.1230   20.5780 C   0  0  0  0  0  0  0  0  0  0  0  0
    5.1820    1.4820   19.6380 C   0  0  0  0  0  0  0  0  0  0  0  0
    5.2040    0.9630   18.3340 C   0  0  0  0  0  0  0  0  0  0  0  0
    9.6680   -5.6190   24.7820 N   0  0  0  0  0  0  0  0  0  0  0  0
    9.0390   -4.4330   24.2300 C   0  0  0  0  0  0  0  0  0  0  0  0
    8.1920   -3.5980   24.9030 C   0  0  0  0  0  0  0  0  0  0  0  0
    7.8350   -3.8730   26.3670 C   0  0  0  0  0  0  0  0  0  0  0  0
    8.4830   -5.1300   26.9930 C   0  0  0  0  0  0  0  0  0  0  0  0
    9.3980   -5.9240   26.0630 C   0  0  0  0  0  0  0  0  0  0  0  0
    6.2620   -3.7500   21.6530 N   0  0  0  0  0  0  0  0  0  0  0  0
    6.4180   -2.4020   22.1750 C   0  0  0  0  0  0  0  0  0  0  0  0
    6.2350   -2.4040   23.5420 C   0  0  1  0  0  0  0  0  0  0  0  0
    5.3930   -3.4520   23.8980 C   0  0  1  0  0  0  0  0  0  0  0  0
    5.7960   -4.7770   23.7180 C   0  0  0  0  0  0  0  0  0  0  0  0
    6.5620   -4.8860   22.5370 C   0  0  0  0  0  0  0  0  0  0  0  0
  2  6  2  0
  3  6  1  0
  5  7  1  0
  6  7  1  0
  4  8  2  0
  5  8  1  0
  9  8  1  1
 10 11  2  0
 10 12  1  0
 13 14  2  0
 14 15  1  0
 12 16  1  0
 17 18  2  0
  3 19  1  0
 18 19  1  0
  1 20  1  0
 19 20  2  0
 20 21  1  0
 17 22  1  0
 21 22  2  0
 23 24  2  0
  9 25  1  0
 24 25  1  0
 25 26  2  0
 26 27  1  0
 23 28  1  0
 27 28  2  0
 14 29  1  0
 29 30  1  0
  9 31  1  0
 31 30  1  6
 32 10  1  1
 31 32  1  0
 32 33  1  0
 29 34  1  0
 33 34  1  0
M  END
