x2754-x2649
     RDKit          3D

 39 42  0  0  0  0  0  0  0  0999 V2000
    4.5600   -3.3870   25.2730 C   0  0  0  0  0  0  0  0  0  0  0  0
    3.3460   -3.3620   25.4630 O   0  0  0  0  0  0  0  0  0  0  0  0
    5.4590   -3.0340   26.3200 N   0  0  0  0  0  0  0  0  0  0  0  0
    5.3380   -4.8700   19.9960 O   0  0  0  0  0  0  0  0  0  0  0  0
    6.2630   -4.2760   20.5430 C   0  0  0  0  0  0  0  0  0  0  0  0
    7.0180   -3.2730   19.6750 C   0  0  0  0  0  0  0  0  0  0  0  0
    4.9930   -2.1340   27.3830 C   0  0  0  0  0  0  0  0  0  0  0  0
    6.9030   -0.0210   21.0550 N   0  0  0  0  0  0  0  0  0  0  0  0
    7.9390   -1.4280   23.2700 C   0  0  0  0  0  0  0  0  0  0  0  0
    8.6680    1.3840   21.1820 O   0  0  0  0  0  0  0  0  0  0  0  0
   13.2690   -2.6000   21.1590 Cl  0  0  0  0  0  0  0  0  0  0  0  0
    8.7690   -0.8080   22.2270 C   0  0  1  0  0  0  0  0  0  0  0  0
    8.1370    0.2990   21.4590 C   0  0  0  0  0  0  0  0  0  0  0  0
    4.5990    1.5280   21.4740 C   0  0  0  0  0  0  0  0  0  0  0  0
    8.1340   -2.8570   22.8290 C   0  0  0  0  0  0  0  0  0  0  0  0
    6.5720   -4.6360   21.8920 N   0  0  0  0  0  0  0  0  0  0  0  0
    6.9240   -3.7290   22.9920 C   0  0  2  0  0  0  0  0  0  0  0  0
    5.8190   -2.9730   23.2510 C   0  0  0  0  0  0  0  0  0  0  0  0
    4.8930   -3.7940   23.8230 C   0  0  1  0  0  0  0  0  0  0  0  0
    5.3020   -5.1530   23.7930 C   0  0  0  0  0  0  0  0  0  0  0  0
    5.7680   -5.6580   22.5370 C   0  0  0  0  0  0  0  0  0  0  0  0
    6.9300   -4.7250   27.3000 C   0  0  0  0  0  0  0  0  0  0  0  0
    8.1970   -5.2600   27.5460 C   0  0  0  0  0  0  0  0  0  0  0  0
    9.4960   -4.6380   27.0300 C   0  0  0  0  0  0  0  0  0  0  0  0
    9.3850   -3.3580   26.1960 C   0  0  0  0  0  0  0  0  0  0  0  0
    7.9700   -2.8360   25.9750 C   0  0  0  0  0  0  0  0  0  0  0  0
    6.7670   -3.5610   26.5500 C   0  0  0  0  0  0  0  0  0  0  0  0
    6.2600    0.7640   17.5580 N   0  0  0  0  0  0  0  0  0  0  0  0
    5.1700    1.5240   17.7340 C   0  0  0  0  0  0  0  0  0  0  0  0
    4.6030    1.7890   18.9740 C   0  0  0  0  0  0  0  0  0  0  0  0
    5.1830    1.2570   20.1200 C   0  0  0  0  0  0  0  0  0  0  0  0
    6.3130    0.4850   19.9310 C   0  0  0  0  0  0  0  0  0  0  0  0
    6.8100    0.2580   18.6660 C   0  0  0  0  0  0  0  0  0  0  0  0
   10.5950    0.3950   23.5100 C   0  0  0  0  0  0  0  0  0  0  0  0
   12.0640    0.5080   23.7740 C   0  0  0  0  0  0  0  0  0  0  0  0
   13.0230   -0.4300   23.0500 C   0  0  0  0  0  0  0  0  0  0  0  0
   12.4510   -1.4640   22.0800 C   0  0  0  0  0  0  0  0  0  0  0  0
   10.9950   -1.4990   21.8940 C   0  0  0  0  0  0  0  0  0  0  0  0
   10.1450   -0.5500   22.6260 C   0  0  0  0  0  0  0  0  0  0  0  0
  1  2  2  0
  1  3  1  0
  4  5  2  0
  5  6  1  0
  3  7  1  0
 12  9  1  1
  8 13  1  0
 10 13  2  0
 12 13  1  0
  9 15  1  0
  5 16  1  0
 17 15  1  6
 16 17  1  0
 17 18  1  0
 19  1  1  1
 18 19  1  0
 19 20  1  0
 16 21  1  0
 20 21  1  0
 22 23  2  0
 23 24  1  0
 24 25  2  0
 25 26  1  0
  3 27  1  0
 22 27  1  0
 26 27  2  0
 28 29  2  0
 29 30  1  0
 14 31  1  0
 30 31  2  0
  8 32  1  0
 31 32  1  0
 28 33  1  0
 32 33  2  0
 34 35  2  0
 35 36  1  0
 11 37  1  0
 36 37  2  0
 37 38  1  0
 12 39  1  0
 34 39  1  0
 38 39  2  0
M  END
