x2754-x0981
     RDKit          3D

 30 32  0  0  0  0  0  0  0  0999 V2000
    1.2000   -8.6570   21.4550 C   0  0  0  0  0  0  0  0  0  0  0  0
    2.6050   -7.1370   22.8490 N   0  0  0  0  0  0  0  0  0  0  0  0
    0.4800   -6.4610   22.2420 O   0  0  0  0  0  0  0  0  0  0  0  0
    1.3740   -7.3070   22.2240 C   0  0  0  0  0  0  0  0  0  0  0  0
    2.4300   -8.2360   26.4990 N   0  0  0  0  0  0  0  0  0  0  0  0
    4.0500   -8.1830   24.5280 O   0  0  0  0  0  0  0  0  0  0  0  0
    2.9580   -5.9410   23.4970 C   0  0  1  0  0  0  0  0  0  0  0  0
    5.3110   -6.1600   22.0460 N   0  0  0  0  0  0  0  0  0  0  0  0
    2.8610   -6.1170   25.0290 C   0  0  0  0  0  0  0  0  0  0  0  0
    3.1150   -7.5890   25.3860 C   0  0  0  0  0  0  0  0  0  0  0  0
    4.4160   -5.6260   23.0520 C   0  0  0  0  0  0  0  0  0  0  0  0
    4.9110   -3.2570   25.1970 C   0  0  0  0  0  0  0  0  0  0  0  0
    3.7110   -3.1130   24.9290 O   0  0  0  0  0  0  0  0  0  0  0  0
    5.4410   -3.0410   26.4810 N   0  0  0  0  0  0  0  0  0  0  0  0
    5.2230   -4.5900   19.8930 O   0  0  0  0  0  0  0  0  0  0  0  0
    6.2320   -4.0300   20.2870 C   0  0  0  0  0  0  0  0  0  0  0  0
    7.0620   -3.2240   19.2970 C   0  0  0  0  0  0  0  0  0  0  0  0
    4.7580   -2.1700   27.4430 C   0  0  0  0  0  0  0  0  0  0  0  0
    6.6700   -4.1510   21.6020 N   0  0  0  0  0  0  0  0  0  0  0  0
    7.1060   -2.9290   22.2920 C   0  0  0  0  0  0  0  0  0  0  0  0
    6.2450   -2.5750   23.3300 C   0  0  0  0  0  0  0  0  0  0  0  0
    5.9110   -3.6830   24.1180 C   0  0  2  0  0  0  0  0  0  0  0  0
    5.4120   -4.7610   23.3620 C   0  0  0  0  0  0  0  0  0  0  0  0
    6.3000   -5.3140   22.4190 C   0  0  1  0  0  0  0  0  0  0  0  0
    6.9750   -4.8720   26.4770 C   0  0  0  0  0  0  0  0  0  0  0  0
    8.2880   -5.5020   26.9280 C   0  0  0  0  0  0  0  0  0  0  0  0
    9.2410   -4.7660   27.8400 C   0  0  0  0  0  0  0  0  0  0  0  0
    8.7640   -3.3820   28.2470 C   0  0  0  0  0  0  0  0  0  0  0  0
    7.4280   -2.8580   27.7200 C   0  0  0  0  0  0  0  0  0  0  0  0
    6.6050   -3.5860   26.8860 C   0  0  0  0  0  0  0  0  0  0  0  0
  1  4  1  0
  2  4  1  0
  3  4  2  0
  2  7  1  0
  7  9  1  1
  5 10  1  0
  6 10  2  0
  9 10  1  0
  7 11  1  0
  8 11  1  0
 12 13  2  0
 12 14  1  0
 15 16  2  0
 16 17  1  0
 14 18  1  0
 16 19  1  0
 19 20  1  0
 20 21  1  0
 22 12  1  1
 21 22  1  0
 11 23  2  0
 22 23  1  0
 24  8  1  6
 19 24  1  0
 23 24  1  0
 25 26  2  0
 26 27  1  0
 27 28  2  0
 28 29  1  0
 14 30  1  0
 25 30  1  0
 29 30  2  0
M  END
