x2754-x1493
     RDKit          3D

 22 23  0  0  0  0  0  0  0  0999 V2000
    4.9680   -3.1190   25.2680 C   0  0  0  0  0  0  0  0  0  0  0  0
    3.7720   -2.9120   25.0420 O   0  0  0  0  0  0  0  0  0  0  0  0
    5.5560   -2.9700   26.5350 N   0  0  0  0  0  0  0  0  0  0  0  0
    5.1810   -4.4750   19.8350 O   0  0  0  0  0  0  0  0  0  0  0  0
    6.2270   -3.9600   20.1890 C   0  0  0  0  0  0  0  0  0  0  0  0
    7.0920   -3.2000   19.1990 C   0  0  0  0  0  0  0  0  0  0  0  0
    4.8950   -2.1770   27.5740 C   0  0  0  0  0  0  0  0  0  0  0  0
    4.5240   -6.3450   26.9080 C   0  0  0  0  0  0  0  0  0  0  0  0
    6.6150   -5.4680   25.4080 N   0  0  0  0  0  0  0  0  0  0  0  0
    5.4650   -6.0730   25.7500 C   0  0  0  0  0  0  0  0  0  0  0  0
    6.6620   -4.1050   21.4940 N   0  0  0  0  0  0  0  0  0  0  0  0
    7.2610   -2.9310   22.1350 C   0  0  0  0  0  0  0  0  0  0  0  0
    6.3550   -2.4100   23.2630 C   0  0  0  0  0  0  0  0  0  0  0  0
    5.8870   -3.5710   24.1250 C   0  0  0  0  0  0  0  0  0  0  0  0
    5.2260   -4.6580   23.2340 C   0  0  0  0  0  0  0  0  0  0  0  0
    6.1790   -5.1740   22.3530 C   0  0  0  0  0  0  0  0  0  0  0  0
    7.3110   -4.7760   26.4000 C   0  0  0  0  0  0  0  0  0  0  0  0
    8.5270   -5.2830   26.8590 C   0  0  0  0  0  0  0  0  0  0  0  0
    9.2900   -4.6550   27.8360 C   0  0  0  0  0  0  0  0  0  0  0  0
    8.8440   -3.4680   28.3990 C   0  0  0  0  0  0  0  0  0  0  0  0
    7.6480   -2.9400   27.9710 C   0  0  0  0  0  0  0  0  0  0  0  0
    6.7890   -3.5700   26.9290 C   0  0  0  0  0  0  0  0  0  0  0  0
  1  2  2  0
  1  3  1  0
  4  5  2  0
  5  6  1  0
  3  7  1  0
  8 10  1  0
  9 10  2  3
  5 11  1  0
 11 12  1  0
 12 13  1  0
  1 14  1  0
 13 14  1  0
 14 15  1  0
 11 16  1  0
 15 16  1  0
  9 17  1  0
 17 18  2  0
 18 19  1  0
 19 20  2  0
 20 21  1  0
  3 22  1  0
 17 22  1  0
 21 22  2  0
M  END
