x2754-x1458-x2776
     RDKit          3D

 58 64  0  0  0  0  0  0  0  0999 V2000
    7.3050   -0.9100   21.9980 N   0  0  0  0  0  0  0  0  0  0  0  0
    7.8270    2.1640   23.0640 N   0  0  0  0  0  0  0  0  0  0  0  0
    9.0610    1.4470   21.0730 O   0  0  0  0  0  0  0  0  0  0  0  0
   10.8890    6.8930   23.8820 O   0  0  0  0  0  0  0  0  0  0  0  0
    6.8710    0.3620   21.7710 C   0  0  1  0  0  0  0  0  0  0  0  0
   12.2670   -2.8160   25.3070 O   0  0  0  0  0  0  0  0  0  0  0  0
    7.9800    1.3530   21.9780 C   0  0  0  0  0  0  0  0  0  0  0  0
   10.6930    1.8820   23.8040 C   0  0  0  0  0  0  0  0  0  0  0  0
   11.8720    6.8340   24.9110 C   0  0  0  0  0  0  0  0  0  0  0  0
   12.3400   -1.9330   24.2030 C   0  0  2  0  0  0  0  0  0  0  0  0
   12.9320   -0.5890   24.5310 C   0  0  0  0  0  0  0  0  0  0  0  0
   13.5590   -3.1980   25.6850 C   0  0  0  0  0  0  0  0  0  0  0  0
    5.2930   -3.3990   25.4920 C   0  0  0  0  0  0  0  0  0  0  0  0
    6.0020   -5.6690   19.9480 O   0  0  0  0  0  0  0  0  0  0  0  0
    6.0750   -5.7970   27.6290 C   0  0  0  0  0  0  0  0  0  0  0  0
    6.5120   -4.0190   25.2970 C   0  0  0  0  0  0  0  0  0  0  0  0
    6.4050   -4.5750   20.2780 C   0  0  0  0  0  0  0  0  0  0  0  0
    7.1860   -3.5650   19.3920 C   0  0  0  0  0  0  0  0  0  0  0  0
    6.9460   -2.0520   21.3430 C   0  0  0  0  0  0  0  0  0  0  0  0
    4.0360   -2.8280   25.4300 C   0  0  0  0  0  0  0  0  0  0  0  0
    2.9810   -2.3570   25.7810 O   0  0  0  0  0  0  0  0  0  0  0  0
    4.3370   -2.9790   26.8500 N   0  0  0  0  0  0  0  0  0  0  0  0
    4.9390   -3.5020   20.8860 N   0  0  0  0  0  0  0  0  0  0  0  0
    5.6580   -2.7880   20.0750 C   0  0  0  0  0  0  0  0  0  0  0  0
    5.0910   -1.9830   19.1390 C   0  0  0  0  0  0  0  0  0  0  0  0
    5.2260   -1.9950   27.4880 C   0  0  0  0  0  0  0  0  0  0  0  0
    6.3370    0.3580   17.9030 N   0  0  0  0  0  0  0  0  0  0  0  0
    5.2150    1.1110   17.7950 C   0  0  0  0  0  0  0  0  0  0  0  0
    4.4510    1.7180   18.9280 C   0  0  0  0  0  0  0  0  0  0  0  0
    5.0040    1.4590   20.2850 C   0  0  0  0  0  0  0  0  0  0  0  0
    6.2590    0.6290   20.4330 C   0  0  0  0  0  0  0  0  0  0  0  0
    6.8470    0.1130   19.1220 C   0  0  0  0  0  0  0  0  0  0  0  0
    9.9920    3.2140   23.6230 C   0  0  0  0  0  0  0  0  0  0  0  0
   10.7630    4.3430   23.8250 C   0  0  0  0  0  0  0  0  0  0  0  0
   10.1920    5.7410   23.6830 C   0  0  0  0  0  0  0  0  0  0  0  0
    8.7350    5.9080   23.2930 C   0  0  0  0  0  0  0  0  0  0  0  0
    8.0580    4.5660   23.1140 C   0  0  0  0  0  0  0  0  0  0  0  0
    8.6420    3.3130   23.2730 C   0  0  0  0  0  0  0  0  0  0  0  0
    9.4800   -1.6780   21.8090 C   0  0  0  0  0  0  0  0  0  0  0  0
   10.7350   -1.9450   22.3320 C   0  0  0  0  0  0  0  0  0  0  0  0
   10.9890   -1.6620   23.6660 C   0  0  0  0  0  0  0  0  0  0  0  0
   10.0110   -1.1220   24.4900 C   0  0  0  0  0  0  0  0  0  0  0  0
    8.7760   -0.8680   23.9370 C   0  0  0  0  0  0  0  0  0  0  0  0
    8.5050   -1.1310   22.6260 C   0  0  0  0  0  0  0  0  0  0  0  0
    5.9390   -4.1920   21.6600 C   0  0  2  0  0  0  0  0  0  0  0  0
    6.5380   -3.1390   22.3540 C   0  0  1  0  0  0  0  0  0  0  0  0
    7.4860   -3.5600   23.2050 C   0  0  0  0  0  0  0  0  0  0  0  0
    6.9470   -4.5550   23.9880 C   0  0  2  0  0  0  0  0  0  0  0  0
    5.6030   -5.0300   23.6590 C   0  0  2  0  0  0  0  0  0  0  0  0
    5.4490   -5.2920   22.3330 C   0  0  0  0  0  0  0  0  0  0  0  0
    5.4970   -2.5830   23.0810 C   0  0  0  0  0  0  0  0  0  0  0  0
    4.9570   -3.6830   24.0170 C   0  0  2  0  0  0  0  0  0  0  0  0
    7.3710   -5.1260   27.2820 C   0  0  0  0  0  0  0  0  0  0  0  0
    8.4650   -5.3640   28.0630 C   0  0  0  0  0  0  0  0  0  0  0  0
    9.6790   -4.7820   27.7630 C   0  0  0  0  0  0  0  0  0  0  0  0
    9.8090   -3.9400   26.6710 C   0  0  0  0  0  0  0  0  0  0  0  0
    8.7320   -3.6860   25.8920 C   0  0  0  0  0  0  0  0  0  0  0  0
    7.5350   -4.2840   26.1930 C   0  0  0  0  0  0  0  0  0  0  0  0
  1  5  1  0
  2  7  1  0
  3  7  2  0
  5  7  1  6
  4  9  1  0
  6 10  1  0
 10 11  1  1
  6 12  1  0
 13 16  2  0
 14 17  2  0
 17 18  1  0
  1 19  1  0
 13 20  1  0
 20 21  2  0
 20 22  1  0
 23 24  2  3
 24 25  1  0
 22 26  1  0
 27 28  2  0
 28 29  1  0
 29 30  2  0
  5 31  1  0
 30 31  1  0
 27 32  1  0
 31 32  2  0
  8 33  1  0
 33 34  2  0
  4 35  1  0
 34 35  1  0
 35 36  2  0
 36 37  1  0
  2 38  1  0
 33 38  1  0
 37 38  2  0
 39 40  2  0
 10 41  1  0
 40 41  1  0
 41 42  2  0
 42 43  1  0
  1 44  1  0
 39 44  1  0
 43 44  2  0
 17 45  1  0
 45 23  1  6
 46 19  1  6
 45 46  1  0
 46 47  1  0
 48 16  1  1
 47 48  1  0
 48 49  1  0
 45 50  1  0
 49 50  1  6
 46 51  1  0
 52 13  1  1
 49 52  1  0
 51 52  1  0
 15 53  1  0
 53 54  2  0
 54 55  1  0
 55 56  2  0
 56 57  1  0
 16 58  1  0
 53 58  1  0
 57 58  2  0
M  END
