x2754-x0104
     RDKit          3D

 37 40  0  0  0  0  0  0  0  0999 V2000
    4.7820   -3.0270   25.3830 C   0  0  0  0  0  0  0  0  0  0  0  0
    3.6290   -2.7010   25.0970 O   0  0  0  0  0  0  0  0  0  0  0  0
    5.3260   -3.0280   26.6830 N   0  0  0  0  0  0  0  0  0  0  0  0
    5.4190   -4.4560   19.9260 O   0  0  0  0  0  0  0  0  0  0  0  0
    6.4680   -3.9340   20.3410 C   0  0  0  0  0  0  0  0  0  0  0  0
    7.3540   -3.1960   19.3520 C   0  0  0  0  0  0  0  0  0  0  0  0
    5.0230   -2.0160   27.6950 C   0  0  0  0  0  0  0  0  0  0  0  0
    9.1350    6.5340   22.6450 C   0  0  0  0  0  0  0  0  0  0  0  0
   10.2790    6.1530   23.3560 C   0  0  0  0  0  0  0  0  0  0  0  0
   10.3520    6.3330   24.5600 O   0  0  0  0  0  0  0  0  0  0  0  0
   11.2800    5.5870   22.6230 N   0  0  0  0  0  0  0  0  0  0  0  0
   12.2700    4.7600   23.4300 C   0  0  0  0  0  0  0  0  0  0  0  0
   12.6130    3.5150   22.8860 C   0  0  0  0  0  0  0  0  0  0  0  0
   13.5830   -1.9300   21.8850 F   0  0  0  0  0  0  0  0  0  0  0  0
    8.3890   -1.9760   21.8200 C   0  0  0  0  0  0  0  0  0  0  0  0
    8.9580   -1.8240   23.1370 C   0  0  0  0  0  0  0  0  0  0  0  0
    6.9040   -4.0960   21.6980 N   0  0  0  0  0  0  0  0  0  0  0  0
    7.5330   -2.9920   22.5610 C   0  0  2  0  0  0  0  0  0  0  0  0
    6.3870   -2.4110   23.4220 C   0  0  0  0  0  0  0  0  0  0  0  0
    5.7640   -3.5020   24.2820 C   0  0  2  0  0  0  0  0  0  0  0  0
    5.2210   -4.5990   23.3400 C   0  0  0  0  0  0  0  0  0  0  0  0
    6.3230   -5.1290   22.4110 C   0  0  0  0  0  0  0  0  0  0  0  0
    6.6560   -4.7540   27.6490 C   0  0  0  0  0  0  0  0  0  0  0  0
    7.9770   -5.5580   27.7160 C   0  0  0  0  0  0  0  0  0  0  0  0
    9.0530   -5.0950   26.7270 C   0  0  0  0  0  0  0  0  0  0  0  0
    8.8540   -4.0290   25.8590 C   0  0  0  0  0  0  0  0  0  0  0  0
    7.5700   -3.2420   25.8170 C   0  0  0  0  0  0  0  0  0  0  0  0
    6.4840   -3.6900   26.7590 C   0  0  0  0  0  0  0  0  0  0  0  0
   11.6090    2.4100   23.1120 C   0  0  0  0  0  0  0  0  0  0  0  0
   10.1840    2.5780   23.6030 C   0  0  0  0  0  0  0  0  0  0  0  0
    9.5970    1.3360   23.6000 N   0  0  0  0  0  0  0  0  0  0  0  0
   10.5080    0.3780   23.1580 C   0  0  0  0  0  0  0  0  0  0  0  0
   11.7600    0.9900   22.8890 C   0  0  0  0  0  0  0  0  0  0  0  0
   10.2770   -1.0340   22.9610 C   0  0  0  0  0  0  0  0  0  0  0  0
   11.3740   -1.7610   22.5260 C   0  0  0  0  0  0  0  0  0  0  0  0
   12.6020   -1.1590   22.2970 C   0  0  0  0  0  0  0  0  0  0  0  0
   12.8240    0.1950   22.4700 C   0  0  0  0  0  0  0  0  0  0  0  0
  1  2  2  0
  1  3  1  0
  4  5  2  0
  5  6  1  0
  3  7  1  0
  8  9  1  0
  9 10  2  0
  9 11  1  0
 11 12  1  0
 12 13  1  0
 15 16  1  0
  5 17  1  0
 18 15  1  6
 17 18  1  0
 18 19  1  0
 20  1  1  6
 19 20  1  0
 20 21  1  0
 17 22  1  0
 21 22  1  0
 23 24  2  0
 24 25  1  0
 25 26  2  0
 26 27  1  0
  3 28  1  0
 23 28  1  0
 27 28  2  0
 13 29  1  0
 29 30  2  0
 30 31  1  0
 31 32  1  0
 29 33  1  0
 32 33  2  0
 16 34  1  0
 32 34  1  0
 34 35  2  0
 14 36  1  0
 35 36  1  0
 33 37  1  0
 36 37  2  0
M  END
