x2754-x0749
     RDKit          3D

 29 32  0  0  0  0  0  0  0  0999 V2000
    4.6410   -3.1300   25.1860 C   0  0  0  0  0  0  0  0  0  0  0  0
    3.4170   -3.0270   25.2050 O   0  0  0  0  0  0  0  0  0  0  0  0
    5.4210   -2.8760   26.3430 N   0  0  0  0  0  0  0  0  0  0  0  0
    5.1360   -4.5220   19.8470 O   0  0  0  0  0  0  0  0  0  0  0  0
    6.1240   -3.9830   20.3000 C   0  0  0  0  0  0  0  0  0  0  0  0
    7.0980   -3.2190   19.3960 C   0  0  0  0  0  0  0  0  0  0  0  0
    4.8700   -2.0620   27.4300 C   0  0  0  0  0  0  0  0  0  0  0  0
    6.3610   -4.1230   21.6710 N   0  0  0  0  0  0  0  0  0  0  0  0
    7.1400   -3.2710   22.5500 C   0  0  1  0  0  0  0  0  0  0  0  0
    6.2740   -2.6720   23.4670 C   0  0  0  0  0  0  0  0  0  0  0  0
    5.2360   -3.5420   23.8560 C   0  0  1  0  0  0  0  0  0  0  0  0
    5.3950   -4.9260   23.6260 C   0  0  0  0  0  0  0  0  0  0  0  0
    5.7420   -5.2880   22.3100 C   0  0  0  0  0  0  0  0  0  0  0  0
    6.7980   -4.7310   27.4070 C   0  0  0  0  0  0  0  0  0  0  0  0
    8.0200   -5.3530   27.7330 C   0  0  0  0  0  0  0  0  0  0  0  0
    9.3330   -4.6800   27.2530 C   0  0  0  0  0  0  0  0  0  0  0  0
    9.3240   -3.3920   26.4490 C   0  0  0  0  0  0  0  0  0  0  0  0
    7.9260   -2.8370   26.1730 C   0  0  0  0  0  0  0  0  0  0  0  0
    6.7000   -3.5430   26.6760 C   0  0  0  0  0  0  0  0  0  0  0  0
    9.8190   -2.5100   23.3300 N   0  0  0  0  0  0  0  0  0  0  0  0
    9.3320   -3.6470   23.7570 C   0  0  0  0  0  0  0  0  0  0  0  0
   10.3050   -4.5210   24.9270 S   0  0  0  0  0  0  0  0  0  0  0  0
   11.4940   -3.3870   24.9110 C   0  0  0  0  0  0  0  0  0  0  0  0
   11.0410   -2.2930   23.9340 C   0  0  0  0  0  0  0  0  0  0  0  0
   11.8270   -1.2080   23.7070 C   0  0  0  0  0  0  0  0  0  0  0  0
   13.1560   -1.0680   24.4100 C   0  0  0  0  0  0  0  0  0  0  0  0
   13.6070   -2.1730   25.3900 C   0  0  0  0  0  0  0  0  0  0  0  0
   12.6860   -3.3410   25.5960 C   0  0  0  0  0  0  0  0  0  0  0  0
    8.0550   -4.2250   23.3230 C   0  0  0  0  0  0  0  0  0  0  0  0
  1  2  2  0
  1  3  1  0
  4  5  2  0
  5  6  1  0
  3  7  1  0
  5  8  1  0
  8  9  1  0
  9 10  1  0
 11  1  1  1
 10 11  1  0
 11 12  1  0
  8 13  1  0
 12 13  1  0
 14 15  2  0
 15 16  1  0
 16 17  2  0
 17 18  1  0
  3 19  1  0
 14 19  1  0
 18 19  2  0
 20 21  2  0
 21 22  1  0
 22 23  1  0
 20 24  1  0
 23 24  2  0
 24 25  1  0
 25 26  2  0
 26 27  1  0
 23 28  1  0
 27 28  2  0
  9 29  1  1
 21 29  1  0
M  END
