x2754-x0434
     RDKit          3D

 36 39  0  0  0  0  0  0  0  0999 V2000
    4.7300   -3.2960   25.3830 C   0  0  0  0  0  0  0  0  0  0  0  0
    3.5190   -3.4440   25.5320 O   0  0  0  0  0  0  0  0  0  0  0  0
    5.5850   -2.9880   26.4640 N   0  0  0  0  0  0  0  0  0  0  0  0
    5.3440   -4.9200   19.9920 O   0  0  0  0  0  0  0  0  0  0  0  0
    6.1910   -4.1200   20.3620 C   0  0  0  0  0  0  0  0  0  0  0  0
    6.9470   -3.2820   19.3420 C   0  0  0  0  0  0  0  0  0  0  0  0
    5.1040   -2.1270   27.5520 C   0  0  0  0  0  0  0  0  0  0  0  0
    8.6810    0.9330   21.2840 O   0  0  0  0  0  0  0  0  0  0  0  0
    8.3350   -0.2190   21.5470 C   0  0  0  0  0  0  0  0  0  0  0  0
    9.0840   -1.0660   22.3220 N   0  0  0  0  0  0  0  0  0  0  0  0
    7.1350   -0.7160   21.0430 N   0  0  0  0  0  0  0  0  0  0  0  0
    6.3330   -1.6860   21.7680 C   0  0  0  0  0  0  0  0  0  0  0  0
    6.5440   -3.9680   21.7080 N   0  0  0  0  0  0  0  0  0  0  0  0
    6.9610   -2.9970   22.2380 C   0  0  2  0  0  0  0  0  0  0  0  0
    6.6970   -3.0080   23.7460 C   0  0  0  0  0  0  0  0  0  0  0  0
    5.2700   -3.4350   23.9400 C   0  0  1  0  0  0  0  0  0  0  0  0
    5.2490   -4.8630   23.3650 C   0  0  0  0  0  0  0  0  0  0  0  0
    6.3340   -5.0710   22.4850 C   0  0  0  0  0  0  0  0  0  0  0  0
    7.0670   -4.7180   27.4930 C   0  0  0  0  0  0  0  0  0  0  0  0
    8.3550   -5.2270   27.6630 C   0  0  0  0  0  0  0  0  0  0  0  0
    9.4910   -4.6490   27.0660 C   0  0  0  0  0  0  0  0  0  0  0  0
    9.3850   -3.5160   26.2550 C   0  0  0  0  0  0  0  0  0  0  0  0
    8.1150   -2.9870   26.0700 C   0  0  0  0  0  0  0  0  0  0  0  0
    6.8640   -3.5700   26.6900 C   0  0  0  0  0  0  0  0  0  0  0  0
   10.5160    0.4150   23.3710 C   0  0  0  0  0  0  0  0  0  0  0  0
   11.8720    0.9380   23.7140 C   0  0  0  0  0  0  0  0  0  0  0  0
   13.0310    0.1530   23.1610 C   0  0  0  0  0  0  0  0  0  0  0  0
   12.8170   -0.9810   22.3990 C   0  0  0  0  0  0  0  0  0  0  0  0
   11.5230   -1.4230   22.1090 C   0  0  0  0  0  0  0  0  0  0  0  0
   10.3980   -0.7240   22.5880 C   0  0  0  0  0  0  0  0  0  0  0  0
    5.3060    0.7370   20.3050 C   0  0  0  0  0  0  0  0  0  0  0  0
    4.6930    1.4190   19.2530 C   0  0  0  0  0  0  0  0  0  0  0  0
    5.1880    1.3700   17.9670 C   0  0  0  0  0  0  0  0  0  0  0  0
    6.2700    0.6820   17.5900 N   0  0  0  0  0  0  0  0  0  0  0  0
    6.9720   -0.0550   18.6120 C   0  0  0  0  0  0  0  0  0  0  0  0
    6.4550   -0.0130   20.0370 C   0  0  0  0  0  0  0  0  0  0  0  0
  1  2  2  0
  1  3  1  0
  4  5  2  0
  5  6  1  0
  3  7  1  0
  8  9  2  0
  9 10  1  0
  9 11  1  0
 11 12  1  0
  5 13  1  0
 14 12  1  6
 13 14  1  0
 14 15  1  0
 16  1  1  1
 15 16  1  0
 16 17  1  0
 13 18  1  0
 17 18  1  0
 19 20  2  0
 20 21  1  0
 21 22  2  0
 22 23  1  0
  3 24  1  0
 19 24  1  0
 23 24  2  0
 25 26  2  0
 26 27  1  0
 27 28  2  0
 28 29  1  0
 10 30  1  0
 25 30  1  0
 29 30  2  0
 31 32  2  0
 32 33  1  0
 33 34  2  0
 34 35  1  0
 11 36  1  0
 31 36  1  0
 35 36  2  0
M  END
