x2754-x2705-x2703
     RDKit          3D

 49 53  0  0  0  0  0  0  0  0999 V2000
    7.6550   -1.5060   21.8670 N   0  0  0  0  0  0  0  0  0  0  0  0
    7.4700    2.0350   22.8510 N   0  0  0  0  0  0  0  0  0  0  0  0
    9.0230    1.2100   21.1460 O   0  0  0  0  0  0  0  0  0  0  0  0
    6.9740   -0.1560   21.7060 C   0  0  1  0  0  0  0  0  0  0  0  0
    7.9020    1.0380   21.8810 C   0  0  0  0  0  0  0  0  0  0  0  0
   10.1970    2.0480   24.0150 C   0  0  0  0  0  0  0  0  0  0  0  0
    9.3700    1.3050   24.8810 C   0  0  0  0  0  0  0  0  0  0  0  0
    6.0370    4.7220   21.8390 C   0  0  0  0  0  0  0  0  0  0  0  0
   12.4850   -1.3810   23.1780 C   0  0  0  0  0  0  0  0  0  0  0  0
   12.9210   -0.0870   23.4380 C   0  0  0  0  0  0  0  0  0  0  0  0
   13.1110   -2.3310   24.2300 C   0  0  0  0  0  0  0  0  0  0  0  0
   12.9570   -1.8660   21.7910 C   0  0  0  0  0  0  0  0  0  0  0  0
   12.1210   -3.0190   25.1670 C   0  0  0  0  0  0  0  0  0  0  0  0
    4.5870   -3.2200   25.3850 C   0  0  0  0  0  0  0  0  0  0  0  0
    3.3580   -3.3010   25.5220 O   0  0  0  0  0  0  0  0  0  0  0  0
    5.4330   -2.9070   26.4390 N   0  0  0  0  0  0  0  0  0  0  0  0
    5.2430   -4.4390   19.8650 O   0  0  0  0  0  0  0  0  0  0  0  0
    6.2490   -3.8320   20.2330 C   0  0  0  0  0  0  0  0  0  0  0  0
    7.1350   -3.1250   19.2250 C   0  0  0  0  0  0  0  0  0  0  0  0
    4.9780   -2.1000   27.5600 C   0  0  0  0  0  0  0  0  0  0  0  0
    6.3390    0.2000   17.7760 N   0  0  0  0  0  0  0  0  0  0  0  0
    5.1410    1.0090   17.8340 C   0  0  0  0  0  0  0  0  0  0  0  0
    4.5870    1.3720   19.0330 C   0  0  0  0  0  0  0  0  0  0  0  0
    5.2390    0.9380   20.3350 C   0  0  0  0  0  0  0  0  0  0  0  0
    6.4040    0.1660   20.3460 C   0  0  0  0  0  0  0  0  0  0  0  0
    6.9900   -0.2400   19.0030 C   0  0  0  0  0  0  0  0  0  0  0  0
   10.1990   -1.1890   24.3620 N   0  0  0  0  0  0  0  0  0  0  0  0
    8.9110   -1.2300   23.9300 N   0  0  0  0  0  0  0  0  0  0  0  0
    8.8360   -1.4180   22.5850 C   0  0  0  0  0  0  0  0  0  0  0  0
   10.0730   -1.5060   22.1010 C   0  0  0  0  0  0  0  0  0  0  0  0
   10.9980   -1.3540   23.2730 C   0  0  0  0  0  0  0  0  0  0  0  0
    9.5000    3.3730   23.5380 C   0  0  0  0  0  0  0  0  0  0  0  0
   10.2430    4.5790   23.6900 C   0  0  0  0  0  0  0  0  0  0  0  0
    9.6000    5.7250   23.2530 C   0  0  0  0  0  0  0  0  0  0  0  0
    8.2260    5.8380   22.6400 C   0  0  0  0  0  0  0  0  0  0  0  0
    7.3990    4.5920   22.4570 C   0  0  0  0  0  0  0  0  0  0  0  0
    8.0760    3.3080   22.9360 C   0  0  0  0  0  0  0  0  0  0  0  0
    6.6590   -3.8340   21.5810 N   0  0  0  0  0  0  0  0  0  0  0  0
    6.8670   -2.5930   22.3940 C   0  0  2  0  0  0  0  0  0  0  0  0
    5.6480   -2.2550   23.2340 C   0  0  0  0  0  0  0  0  0  0  0  0
    5.0520   -3.4850   23.9330 C   0  0  1  0  0  0  0  0  0  0  0  0
    5.9200   -4.7570   23.7880 C   0  0  0  0  0  0  0  0  0  0  0  0
    6.3410   -5.0340   22.3470 C   0  0  0  0  0  0  0  0  0  0  0  0
    6.8890   -4.6610   27.4780 C   0  0  0  0  0  0  0  0  0  0  0  0
    8.2850   -5.2860   27.6910 C   0  0  0  0  0  0  0  0  0  0  0  0
    9.4420   -4.6110   26.9750 C   0  0  0  0  0  0  0  0  0  0  0  0
    9.2600   -3.5060   26.1790 C   0  0  0  0  0  0  0  0  0  0  0  0
    7.9980   -2.9600   26.0030 C   0  0  0  0  0  0  0  0  0  0  0  0
    6.7310   -3.5230   26.6550 C   0  0  0  0  0  0  0  0  0  0  0  0
  1  4  1  0
  2  5  1  0
  3  5  2  0
  4  5  1  6
  6  7  1  0
  9 10  1  0
  9 11  1  0
  9 12  1  0
 11 13  1  0
 14 15  2  0
 14 16  1  0
 17 18  2  0
 18 19  1  0
 16 20  1  0
 21 22  2  0
 22 23  1  0
 23 24  2  0
  4 25  1  0
 24 25  1  0
 21 26  1  0
 25 26  2  0
 27 28  1  0
  1 29  1  0
 28 29  2  0
 29 30  1  0
  9 31  1  0
 27 31  1  0
 30 31  2  0
  6 32  1  0
 32 33  2  0
 33 34  1  0
 34 35  2  0
  8 36  1  0
 35 36  1  0
  2 37  1  0
 32 37  1  0
 36 37  2  0
 18 38  1  0
 39  1  1  6
 38 39  1  0
 39 40  1  0
 41 14  1  1
 40 41  1  0
 41 42  1  0
 38 43  1  0
 42 43  1  0
 44 45  2  0
 45 46  1  0
 46 47  2  0
 47 48  1  0
 16 49  1  0
 44 49  1  0
 48 49  2  0
M  END
