x2754-x3080
     RDKit          3D

 39 42  0  0  0  0  0  0  0  0999 V2000
    9.7620   -0.5640   23.3120 N   0  0  0  0  0  0  0  0  0  0  0  0
   10.7170    0.5660   23.5060 C   0  0  0  0  0  0  0  0  0  0  0  0
    9.0430    1.3110   21.2040 O   0  0  0  0  0  0  0  0  0  0  0  0
    9.6450   -0.8980   21.9980 C   0  0  0  0  0  0  0  0  0  0  0  0
    7.4960   -0.4540   20.9070 N   0  0  0  0  0  0  0  0  0  0  0  0
    7.1770   -1.2270   23.9330 N   0  0  0  0  0  0  0  0  0  0  0  0
    8.7270    0.1160   21.3390 C   0  0  0  0  0  0  0  0  0  0  0  0
    8.8010    0.0570   25.5150 O   0  0  0  0  0  0  0  0  0  0  0  0
    5.2170    0.9490   21.8200 C   0  0  0  0  0  0  0  0  0  0  0  0
    8.6350   -0.9880   24.5230 S   0  0  2  0  0  0  0  0  0  0  0  0
    5.1700   -2.9000   25.2360 C   0  0  0  0  0  0  0  0  0  0  0  0
    3.7900   -2.6900   24.9150 O   0  0  0  0  0  0  0  0  0  0  0  0
    5.6700   -2.6310   26.4960 N   0  0  0  0  0  0  0  0  0  0  0  0
    5.3210   -4.7310   19.9640 O   0  0  0  0  0  0  0  0  0  0  0  0
    6.2970   -4.0970   20.3590 C   0  0  0  0  0  0  0  0  0  0  0  0
    7.0810   -3.2750   19.3620 C   0  0  0  0  0  0  0  0  0  0  0  0
    4.8910   -2.1280   27.4810 C   0  0  0  0  0  0  0  0  0  0  0  0
    6.2670    0.6210   17.6250 N   0  0  0  0  0  0  0  0  0  0  0  0
    5.1880    1.3160   17.9760 C   0  0  0  0  0  0  0  0  0  0  0  0
    4.7450    1.4750   19.4390 C   0  0  0  0  0  0  0  0  0  0  0  0
    5.5720    0.8420   20.3710 C   0  0  0  0  0  0  0  0  0  0  0  0
    6.6820    0.1460   19.9540 C   0  0  0  0  0  0  0  0  0  0  0  0
    6.9720    0.0620   18.6250 C   0  0  0  0  0  0  0  0  0  0  0  0
   11.4840   -1.5520   24.7970 N   0  0  0  0  0  0  0  0  0  0  0  0
   10.6840   -2.5400   25.2990 C   0  0  0  0  0  0  0  0  0  0  0  0
   11.1830   -3.7020   25.9060 C   0  0  0  0  0  0  0  0  0  0  0  0
   12.5840   -3.8240   26.0020 C   0  0  0  0  0  0  0  0  0  0  0  0
   13.5510   -2.7750   25.4780 C   0  0  0  0  0  0  0  0  0  0  0  0
   12.8270   -1.6090   24.8500 C   0  0  0  0  0  0  0  0  0  0  0  0
    8.3990   -3.3750   25.7170 C   0  0  0  0  0  0  0  0  0  0  0  0
    8.9550   -4.6070   26.3510 C   0  0  0  0  0  0  0  0  0  0  0  0
   10.3190   -4.7050   26.4140 C   0  0  0  0  0  0  0  0  0  0  0  0
    9.2880   -2.4320   25.2390 C   0  0  0  0  0  0  0  0  0  0  0  0
    6.7520   -4.1600   21.6720 N   0  0  0  0  0  0  0  0  0  0  0  0
    7.3690   -2.9750   22.2960 C   0  0  0  0  0  0  0  0  0  0  0  0
    6.5210   -2.4670   23.2800 C   0  0  1  0  0  0  0  0  0  0  0  0
    6.1820   -3.4720   24.2360 C   0  0  2  0  0  0  0  0  0  0  0  0
    5.5500   -4.6370   23.7360 C   0  0  0  0  0  0  0  0  0  0  0  0
    6.4030   -5.2190   22.6040 C   0  0  0  0  0  0  0  0  0  0  0  0
  1  2  1  0
  1  4  1  0
  3  7  2  0
  4  7  1  0
  5  7  1  0
 10  1  1  6
  6 10  2  0
  8 10  2  0
 11 12  2  0
 11 13  1  0
 14 15  2  0
 15 16  1  0
 13 17  1  0
 18 19  2  0
 19 20  1  0
  9 21  1  0
 20 21  2  0
  5 22  1  0
 21 22  1  0
 18 23  1  0
 22 23  2  0
 24 25  2  0
 25 26  1  0
 26 27  2  0
 27 28  1  0
 24 29  1  0
 28 29  2  0
 30 31  1  0
 26 32  1  0
 31 32  2  0
 10 33  1  0
 25 33  1  0
 30 33  2  0
 15 34  1  0
 34 35  1  0
 36  6  1  1
 35 36  1  0
 37 11  1  1
 36 37  1  0
 37 38  1  0
 34 39  1  0
 38 39  1  0
M  END
