x2754-x3117-x3113
     RDKit          3D

 50 55  0  0  0  0  0  0  0  0999 V2000
    7.5030   -1.4210   21.9570 N   0  0  0  0  0  0  0  0  0  0  0  0
    8.2940    1.6990   23.3060 N   0  0  0  0  0  0  0  0  0  0  0  0
    8.7900    1.3670   21.0920 O   0  0  0  0  0  0  0  0  0  0  0  0
   11.3990    3.7260   23.8610 N   0  0  0  0  0  0  0  0  0  0  0  0
    7.0770   -0.0720   21.8960 C   0  0  1  0  0  0  0  0  0  0  0  0
    8.1080    1.0260   22.0660 C   0  0  0  0  0  0  0  0  0  0  0  0
   10.5500    1.5910   22.9550 C   0  0  0  0  0  0  0  0  0  0  0  0
   11.5060    2.6260   23.2470 C   0  0  0  0  0  0  0  0  0  0  0  0
   11.7880    4.8430   23.1800 C   0  0  0  0  0  0  0  0  0  0  0  0
   12.6050   -2.0020   24.2690 C   0  0  0  0  0  0  0  0  0  0  0  0
   13.4540   -2.1900   23.1900 C   0  0  0  0  0  0  0  0  0  0  0  0
   12.9320   -3.0560   25.3190 C   0  0  0  0  0  0  0  0  0  0  0  0
   12.8970   -0.7340   24.8160 C   0  0  0  0  0  0  0  0  0  0  0  0
    4.6360   -3.2090   25.2970 C   0  0  0  0  0  0  0  0  0  0  0  0
    3.4370   -3.4360   25.4290 O   0  0  0  0  0  0  0  0  0  0  0  0
    5.5470   -2.8650   26.4440 N   0  0  0  0  0  0  0  0  0  0  0  0
    5.3070   -4.7300   19.9370 O   0  0  0  0  0  0  0  0  0  0  0  0
    6.1670   -3.9300   20.2880 C   0  0  0  0  0  0  0  0  0  0  0  0
    6.9930   -3.2000   19.2450 C   0  0  0  0  0  0  0  0  0  0  0  0
    4.9540   -2.1860   27.5920 C   0  0  0  0  0  0  0  0  0  0  0  0
    6.3980    0.2060   18.0220 N   0  0  0  0  0  0  0  0  0  0  0  0
    5.2780    0.9650   17.9470 C   0  0  0  0  0  0  0  0  0  0  0  0
    4.5180    1.5180   19.1730 C   0  0  0  0  0  0  0  0  0  0  0  0
    5.1550    1.1380   20.5350 C   0  0  0  0  0  0  0  0  0  0  0  0
    6.4250    0.2840   20.5510 C   0  0  0  0  0  0  0  0  0  0  0  0
    7.0060   -0.1590   19.3660 C   0  0  0  0  0  0  0  0  0  0  0  0
    9.9560   -1.3310   21.8590 C   0  0  0  0  0  0  0  0  0  0  0  0
   11.1840   -1.4890   22.4510 C   0  0  0  0  0  0  0  0  0  0  0  0
   11.2970   -1.9190   23.7490 C   0  0  0  0  0  0  0  0  0  0  0  0
   10.1670   -2.2230   24.4880 C   0  0  0  0  0  0  0  0  0  0  0  0
    8.9110   -2.0650   23.8850 C   0  0  0  0  0  0  0  0  0  0  0  0
    8.8120   -1.6170   22.5860 C   0  0  0  0  0  0  0  0  0  0  0  0
    9.3910    4.8690   24.3540 O   0  0  0  0  0  0  0  0  0  0  0  0
    9.9620    3.5450   24.2210 C   0  0  1  0  0  0  0  0  0  0  0  0
    9.3630    2.6110   23.2250 C   0  0  2  0  0  0  0  0  0  0  0  0
    9.0930    3.2930   22.1300 C   0  0  0  0  0  0  0  0  0  0  0  0
    8.2890    4.4780   22.4080 C   0  0  0  0  0  0  0  0  0  0  0  0
    8.9240    5.4740   23.1590 C   0  0  0  0  0  0  0  0  0  0  0  0
    6.4530   -3.6660   21.6110 N   0  0  0  0  0  0  0  0  0  0  0  0
    6.4310   -2.3600   22.2870 C   0  0  1  0  0  0  0  0  0  0  0  0
    6.3670   -2.6610   23.6360 C   0  0  0  0  0  0  0  0  0  0  0  0
    5.1600   -3.2780   23.9100 C   0  0  1  0  0  0  0  0  0  0  0  0
    5.3530   -4.7490   23.5390 C   0  0  0  0  0  0  0  0  0  0  0  0
    6.4800   -4.8440   22.4970 C   0  0  0  0  0  0  0  0  0  0  0  0
    6.8960   -4.6390   27.5630 C   0  0  0  0  0  0  0  0  0  0  0  0
    8.1970   -5.4010   27.8750 C   0  0  0  0  0  0  0  0  0  0  0  0
    9.4490   -4.8570   27.1360 C   0  0  0  0  0  0  0  0  0  0  0  0
    9.2160   -3.6570   26.2060 C   0  0  0  0  0  0  0  0  0  0  0  0
    7.9510   -3.0870   26.0440 C   0  0  0  0  0  0  0  0  0  0  0  0
    6.8050   -3.5420   26.6910 C   0  0  0  0  0  0  0  0  0  0  0  0
  1  5  1  0
  2  6  1  0
  3  6  2  0
  5  6  1  6
  4  8  1  0
  7  8  1  0
  4  9  1  0
 10 11  1  0
 10 12  1  0
 10 13  1  0
 14 15  2  0
 14 16  1  0
 17 18  2  0
 18 19  1  0
 16 20  1  0
 21 22  2  0
 22 23  1  0
 23 24  2  0
  5 25  1  0
 24 25  1  0
 21 26  1  0
 25 26  2  0
 27 28  2  0
 10 29  1  0
 28 29  1  0
 29 30  2  0
 30 31  1  0
  1 32  1  0
 27 32  1  0
 31 32  2  0
  4 34  1  0
 34 33  1  6
 35  2  1  1
  7 35  1  0
 34 35  1  0
 35 36  1  0
 36 37  1  0
 33 38  1  0
 37 38  1  0
 18 39  1  0
 40  1  1  1
 39 40  1  0
 40 41  1  0
 42 14  1  1
 41 42  1  0
 42 43  1  0
 39 44  1  0
 43 44  1  0
 45 46  2  0
 46 47  1  0
 47 48  2  0
 48 49  1  0
 16 50  1  0
 45 50  1  0
 49 50  2  0
M  END
