x2754-x2052
     RDKit          3D

 29 31  0  0  0  0  0  0  0  0999 V2000
    5.9410   -1.3700   25.1420 C   0  0  1  0  0  0  0  0  0  0  0  0
    4.8530   -2.0160   25.7690 N   0  0  0  0  0  0  0  0  0  0  0  0
    6.8200   -0.8300   26.0600 N   0  0  0  0  0  0  0  0  0  0  0  0
    5.4600   -4.4400   19.9050 O   0  0  0  0  0  0  0  0  0  0  0  0
    5.3520    2.3970   30.3710 O   0  0  0  0  0  0  0  0  0  0  0  0
    6.4170   -3.7050   20.2070 C   0  0  0  0  0  0  0  0  0  0  0  0
    7.2810   -3.1130   19.0680 C   0  0  0  0  0  0  0  0  0  0  0  0
    6.1720    3.3020   30.5360 C   0  0  0  0  0  0  0  0  0  0  0  0
    3.9390   -2.5080   24.7500 O   0  0  0  0  0  0  0  0  0  0  0  0
    5.1900   -3.0410   26.7320 N   0  0  0  0  0  0  0  0  0  0  0  0
    4.5550   -3.0340   27.8530 C   0  0  0  0  0  0  0  0  0  0  0  0
    6.8410   -3.3730   21.6020 N   0  0  0  0  0  0  0  0  0  0  0  0
    7.7170   -2.3730   21.8910 C   0  0  0  0  0  0  0  0  0  0  0  0
    7.1850   -1.4330   22.9860 C   0  0  0  0  0  0  0  0  0  0  0  0
    6.6540   -2.1540   24.0710 C   0  0  0  0  0  0  0  0  0  0  0  0
    5.9910   -3.3520   23.6960 C   0  0  0  0  0  0  0  0  0  0  0  0
    6.5530   -4.1210   22.6760 C   0  0  0  0  0  0  0  0  0  0  0  0
    6.2850    2.1110   28.2260 N   0  0  0  0  0  0  0  0  0  0  0  0
    6.6070    1.2700   27.2230 C   0  0  0  0  0  0  0  0  0  0  0  0
    6.4140   -0.0990   27.1550 C   0  0  0  0  0  0  0  0  0  0  0  0
    5.8070   -0.6940   28.2430 C   0  0  0  0  0  0  0  0  0  0  0  0
    5.3970    0.1530   29.4340 C   0  0  0  0  0  0  0  0  0  0  0  0
    5.6780    1.5470   29.3410 C   0  0  0  0  0  0  0  0  0  0  0  0
    6.9240   -4.8320   26.5160 C   0  0  0  0  0  0  0  0  0  0  0  0
    8.2050   -5.3440   26.7530 C   0  0  0  0  0  0  0  0  0  0  0  0
    9.1450   -4.6500   27.4250 C   0  0  0  0  0  0  0  0  0  0  0  0
    8.7250   -3.2880   27.9030 C   0  0  0  0  0  0  0  0  0  0  0  0
    7.4570   -2.8260   27.6420 C   0  0  0  0  0  0  0  0  0  0  0  0
    6.5060   -3.5540   26.9540 C   0  0  0  0  0  0  0  0  0  0  0  0
  1  2  1  0
  1  3  1  1
  4  6  2  0
  6  7  1  0
  5  8  1  0
  2  9  1  0
  2 10  1  0
 10 11  1  0
  6 12  1  0
 12 13  1  0
 13 14  1  0
  1 15  1  0
 14 15  1  0
 15 16  1  0
 12 17  1  0
 16 17  1  0
 18 19  2  0
  3 20  1  0
 19 20  1  0
 20 21  2  0
 21 22  1  0
  5 23  1  0
 18 23  1  0
 22 23  2  0
 24 25  2  0
 25 26  1  0
 26 27  2  0
 27 28  1  0
 10 29  1  0
 24 29  1  0
 28 29  2  0
M  END
