x2754-x2776-x0981
     RDKit          3D

 60 65  0  0  0  0  0  0  0  0999 V2000
    7.3590   -1.3310   21.8270 N   0  0  0  0  0  0  0  0  0  0  0  0
    7.7680    1.8920   23.0640 N   0  0  0  0  0  0  0  0  0  0  0  0
    8.9890    1.2520   21.0610 O   0  0  0  0  0  0  0  0  0  0  0  0
   10.7800    6.7400   23.8480 O   0  0  0  0  0  0  0  0  0  0  0  0
    6.8540   -0.0280   21.7250 C   0  0  1  0  0  0  0  0  0  0  0  0
   12.8290   -2.9640   24.4540 O   0  0  0  0  0  0  0  0  0  0  0  0
    7.9220    1.0590   21.9720 C   0  0  0  0  0  0  0  0  0  0  0  0
   10.6640    1.7350   23.8110 C   0  0  0  0  0  0  0  0  0  0  0  0
   11.8350    6.7170   24.8080 C   0  0  0  0  0  0  0  0  0  0  0  0
   12.3770   -1.6090   24.3660 C   0  0  1  0  0  0  0  0  0  0  0  0
   13.2060   -0.7690   23.4090 C   0  0  0  0  0  0  0  0  0  0  0  0
   13.2770   -3.3230   25.7460 C   0  0  0  0  0  0  0  0  0  0  0  0
    1.2440   -8.5350   21.6100 C   0  0  0  0  0  0  0  0  0  0  0  0
    2.6830   -7.0440   22.6790 N   0  0  0  0  0  0  0  0  0  0  0  0
    0.5190   -6.4770   22.3040 O   0  0  0  0  0  0  0  0  0  0  0  0
    1.4340   -7.2880   22.2220 C   0  0  0  0  0  0  0  0  0  0  0  0
    2.4550   -8.0650   26.4240 N   0  0  0  0  0  0  0  0  0  0  0  0
    4.1330   -8.2240   24.5600 O   0  0  0  0  0  0  0  0  0  0  0  0
    2.9770   -5.9770   23.4900 C   0  0  1  0  0  0  0  0  0  0  0  0
    5.2790   -5.9900   22.3290 N   0  0  0  0  0  0  0  0  0  0  0  0
    2.8870   -6.1960   24.8720 C   0  0  0  0  0  0  0  0  0  0  0  0
    3.1770   -7.4940   25.2640 C   0  0  0  0  0  0  0  0  0  0  0  0
    4.2600   -5.5130   23.1230 C   0  0  0  0  0  0  0  0  0  0  0  0
    4.7100   -3.2060   25.4580 C   0  0  0  0  0  0  0  0  0  0  0  0
    3.5780   -3.5970   25.7440 O   0  0  0  0  0  0  0  0  0  0  0  0
    5.6050   -2.8300   26.3860 N   0  0  0  0  0  0  0  0  0  0  0  0
    5.3010   -4.8200   19.9600 O   0  0  0  0  0  0  0  0  0  0  0  0
    6.1500   -4.0190   20.3190 C   0  0  0  0  0  0  0  0  0  0  0  0
    6.9780   -3.2310   19.3080 C   0  0  0  0  0  0  0  0  0  0  0  0
    5.2050   -2.0550   27.4240 C   0  0  0  0  0  0  0  0  0  0  0  0
    6.3790    0.3860   17.8750 N   0  0  0  0  0  0  0  0  0  0  0  0
    5.1690    1.2120   17.7580 C   0  0  0  0  0  0  0  0  0  0  0  0
    4.4410    1.6420   19.0030 C   0  0  0  0  0  0  0  0  0  0  0  0
    5.0010    1.2130   20.3230 C   0  0  0  0  0  0  0  0  0  0  0  0
    6.2540    0.3760   20.4150 C   0  0  0  0  0  0  0  0  0  0  0  0
    6.8630    0.0100   19.0750 C   0  0  0  0  0  0  0  0  0  0  0  0
    9.9260    3.0430   23.6140 C   0  0  0  0  0  0  0  0  0  0  0  0
   10.6990    4.1770   23.8120 C   0  0  0  0  0  0  0  0  0  0  0  0
   10.1150    5.5590   23.6620 C   0  0  0  0  0  0  0  0  0  0  0  0
    8.6610    5.6400   23.2710 C   0  0  0  0  0  0  0  0  0  0  0  0
    7.9050    4.3310   23.0760 C   0  0  0  0  0  0  0  0  0  0  0  0
    8.5590    3.0950   23.2590 C   0  0  0  0  0  0  0  0  0  0  0  0
    9.6270   -1.9490   21.8800 C   0  0  0  0  0  0  0  0  0  0  0  0
   10.8650   -2.0320   22.4740 C   0  0  0  0  0  0  0  0  0  0  0  0
   11.0190   -1.5420   23.7680 C   0  0  0  0  0  0  0  0  0  0  0  0
    9.9320   -0.9990   24.4340 C   0  0  0  0  0  0  0  0  0  0  0  0
    8.6870   -0.9170   23.8240 C   0  0  0  0  0  0  0  0  0  0  0  0
    8.5470   -1.3900   22.5320 C   0  0  0  0  0  0  0  0  0  0  0  0
    6.4880   -3.7610   21.6450 N   0  0  0  0  0  0  0  0  0  0  0  0
    6.3450   -2.3850   22.2460 C   0  0  1  0  0  0  0  0  0  0  0  0
    6.1630   -2.4690   23.6430 C   0  0  0  0  0  0  0  0  0  0  0  0
    4.9860   -3.1240   23.9480 C   0  0  1  0  0  0  0  0  0  0  0  0
    4.9650   -4.3750   23.3610 C   0  0  0  0  0  0  0  0  0  0  0  0
    6.1750   -4.8880   22.6140 C   0  0  1  0  0  0  0  0  0  0  0  0
    7.0200   -4.6330   27.4470 C   0  0  0  0  0  0  0  0  0  0  0  0
    8.2700   -5.2300   27.6430 C   0  0  0  0  0  0  0  0  0  0  0  0
    9.4990   -4.6550   26.9580 C   0  0  0  0  0  0  0  0  0  0  0  0
    9.3310   -3.5510   26.1560 C   0  0  0  0  0  0  0  0  0  0  0  0
    8.0430   -2.9920   25.9990 C   0  0  0  0  0  0  0  0  0  0  0  0
    6.8850   -3.4970   26.6180 C   0  0  0  0  0  0  0  0  0  0  0  0
  1  5  1  0
  2  7  1  0
  3  7  2  0
  5  7  1  6
  4  9  1  0
  6 10  1  0
 10 11  1  6
  6 12  1  0
 13 16  1  0
 14 16  1  0
 15 16  2  0
 14 19  1  0
 19 21  1  1
 17 22  1  0
 18 22  2  0
 21 22  1  0
 19 23  1  0
 20 23  1  0
 24 25  2  0
 24 26  1  0
 27 28  2  0
 28 29  1  0
 26 30  1  0
 31 32  2  0
 32 33  1  0
 33 34  2  0
  5 35  1  0
 34 35  1  0
 31 36  1  0
 35 36  2  0
  8 37  1  0
 37 38  2  0
  4 39  1  0
 38 39  1  0
 39 40  2  0
 40 41  1  0
  2 42  1  0
 37 42  1  0
 41 42  2  0
 43 44  2  0
 10 45  1  0
 44 45  1  0
 45 46  2  0
 46 47  1  0
  1 48  1  0
 43 48  1  0
 47 48  2  0
 28 49  1  0
 50  1  1  1
 49 50  1  0
 50 51  1  0
 52 24  1  1
 51 52  1  0
 23 53  2  0
 52 53  1  0
 54 20  1  6
 49 54  1  0
 53 54  1  0
 55 56  2  0
 56 57  1  0
 57 58  2  0
 58 59  1  0
 26 60  1  0
 55 60  1  0
 59 60  2  0
M  END
