x2754-x0395
     RDKit          3D

 29 31  0  0  0  0  0  0  0  0999 V2000
    4.5440   -3.1360   25.2990 C   0  0  0  0  0  0  0  0  0  0  0  0
    3.3280   -3.0830   25.4430 O   0  0  0  0  0  0  0  0  0  0  0  0
    5.4460   -2.8860   26.3600 N   0  0  0  0  0  0  0  0  0  0  0  0
    5.3790   -4.5140   19.9250 O   0  0  0  0  0  0  0  0  0  0  0  0
    6.3770   -3.9030   20.3260 C   0  0  0  0  0  0  0  0  0  0  0  0
    7.1930   -3.1550   19.2830 C   0  0  0  0  0  0  0  0  0  0  0  0
    5.0150   -2.1670   27.5680 C   0  0  0  0  0  0  0  0  0  0  0  0
    9.6270   -5.7740   27.1620 C   0  0  0  0  0  0  0  0  0  0  0  0
    6.7870   -3.9560   21.6820 N   0  0  0  0  0  0  0  0  0  0  0  0
    7.1240   -2.9360   22.5560 C   0  0  2  0  0  0  0  0  0  0  0  0
    5.9880   -2.3590   23.3950 C   0  0  0  0  0  0  0  0  0  0  0  0
    5.0640   -3.4840   23.8740 C   0  0  1  0  0  0  0  0  0  0  0  0
    5.7140   -4.8720   23.7770 C   0  0  0  0  0  0  0  0  0  0  0  0
    6.3160   -5.1670   22.3600 C   0  0  0  0  0  0  0  0  0  0  0  0
    7.0420   -4.5730   26.9850 C   0  0  0  0  0  0  0  0  0  0  0  0
    8.2460   -5.2860   27.1490 C   0  0  0  0  0  0  0  0  0  0  0  0
    9.1440   -4.3750   26.5190 C   0  0  0  0  0  0  0  0  0  0  0  0
    8.9690   -3.1430   25.9030 C   0  0  0  0  0  0  0  0  0  0  0  0
    7.7430   -2.5880   25.8240 C   0  0  0  0  0  0  0  0  0  0  0  0
    6.7810   -3.3490   26.3860 C   0  0  0  0  0  0  0  0  0  0  0  0
    8.4930   -0.6900   22.9850 C   0  0  0  0  0  0  0  0  0  0  0  0
   13.8000   -1.1690   21.9130 F   0  0  0  0  0  0  0  0  0  0  0  0
   10.0140   -0.7780   23.1240 C   0  0  2  0  0  0  0  0  0  0  0  0
   10.8040    0.5090   23.4610 C   0  0  0  0  0  0  0  0  0  0  0  0
   12.2510    0.2380   22.9860 C   0  0  0  0  0  0  0  0  0  0  0  0
   12.5870   -0.9550   22.3240 C   0  0  0  0  0  0  0  0  0  0  0  0
   11.6900   -1.9450   22.0540 C   0  0  0  0  0  0  0  0  0  0  0  0
   10.4170   -1.3240   21.8640 N   0  0  0  0  0  0  0  0  0  0  0  0
    7.9330   -1.7510   21.9610 C   0  0  0  0  0  0  0  0  0  0  0  0
  1  2  2  0
  1  3  1  0
  4  5  2  0
  5  6  1  0
  3  7  1  0
  5  9  1  0
  9 10  1  0
 10 11  1  0
 12  1  1  1
 11 12  1  0
 12 13  1  0
  9 14  1  0
 13 14  1  0
  8 16  1  0
 15 16  2  0
 16 17  1  0
 17 18  2  0
 18 19  1  0
  3 20  1  0
 15 20  1  0
 19 20  2  0
 23 21  1  6
 23 24  1  0
 24 25  1  0
 22 26  1  0
 25 26  2  0
 26 27  1  0
 23 28  1  0
 27 28  1  0
 10 29  1  6
 21 29  1  0
M  END
