x2764-x0991
     RDKit          3D

 23 24  0  0  0  0  0  0  0  0999 V2000
    8.3870   -1.4890   21.9880 N   0  0  0  0  0  0  0  0  0  0  0  0
    7.0500   -1.5770   21.3320 C   0  0  0  0  0  0  0  0  0  0  0  0
    6.3320   -2.5480   21.5210 O   0  0  0  0  0  0  0  0  0  0  0  0
    9.1460   -2.6060   22.6370 C   0  0  2  0  0  0  0  0  0  0  0  0
    6.6240    1.1600   22.1280 O   0  0  0  0  0  0  0  0  0  0  0  0
    7.8100    4.4180   22.5300 N   0  0  0  0  0  0  0  0  0  0  0  0
    7.6700    1.7610   22.3720 C   0  0  0  0  0  0  0  0  0  0  0  0
    7.7500    3.2620   22.4500 C   0  0  0  0  0  0  0  0  0  0  0  0
   10.2050   -4.8240   24.9170 N   0  0  0  0  0  0  0  0  0  0  0  0
    8.2760   -3.6560   23.4450 C   0  0  0  0  0  0  0  0  0  0  0  0
    8.1680   -4.3760   25.8820 N   0  0  0  0  0  0  0  0  0  0  0  0
    8.8700   -4.2740   24.7500 C   0  0  0  0  0  0  0  0  0  0  0  0
   12.7830   -1.3700   22.8140 N   0  0  0  0  0  0  0  0  0  0  0  0
   11.6760   -1.8090   22.2440 C   0  0  0  0  0  0  0  0  0  0  0  0
   10.4710   -2.1010   23.1570 C   0  0  0  0  0  0  0  0  0  0  0  0
   10.8660   -1.8080   24.4480 C   0  0  0  0  0  0  0  0  0  0  0  0
   12.5000   -1.2600   24.4480 S   0  0  0  0  0  0  0  0  0  0  0  0
    6.2330   -0.8510   19.0750 C   0  0  0  0  0  0  0  0  0  0  0  0
    5.6710    0.1430   18.0580 C   0  0  0  0  0  0  0  0  0  0  0  0
    5.4380    1.5530   18.5330 C   0  0  0  0  0  0  0  0  0  0  0  0
    5.7940    1.8560   19.9810 C   0  0  0  0  0  0  0  0  0  0  0  0
    6.3070    0.8710   20.8310 C   0  0  0  0  0  0  0  0  0  0  0  0
    6.5220   -0.4600   20.4110 C   0  0  0  0  0  0  0  0  0  0  0  0
  1  2  1  0
  2  3  2  0
  1  4  1  0
  5  7  1  0
  6  8  3  0
  7  8  1  0
  4 10  1  1
  9 12  2  3
 10 12  1  0
 11 12  1  0
 13 14  2  0
  4 15  1  0
 14 15  1  0
 15 16  2  0
 13 17  1  0
 16 17  1  0
 18 19  2  0
 19 20  1  0
 20 21  2  0
  5 22  1  0
 21 22  1  0
  2 23  1  0
 18 23  1  0
 22 23  2  0
M  END
