x2764-x0820
     RDKit          3D

 33 37  0  0  0  0  0  0  0  0999 V2000
    7.3180   -1.7310   22.1530 N   0  0  0  0  0  0  0  0  0  0  0  0
    7.0300   -1.9660   20.7160 C   0  0  0  0  0  0  0  0  0  0  0  0
    6.8750   -3.4110   19.8800 C   0  0  0  0  0  0  0  0  0  0  0  0
    8.2120   -2.5980   22.9160 C   0  0  1  0  0  0  0  0  0  0  0  0
    6.8590    0.7770   21.9640 O   0  0  0  0  0  0  0  0  0  0  0  0
    7.5990    4.1750   22.5140 N   0  0  0  0  0  0  0  0  0  0  0  0
    7.9850    1.5340   22.1510 C   0  0  0  0  0  0  0  0  0  0  0  0
    7.7350    3.0270   22.3460 C   0  0  0  0  0  0  0  0  0  0  0  0
    7.3270   -4.8880   21.8720 N   0  0  0  0  0  0  0  0  0  0  0  0
    5.8410   -5.3940   20.1730 O   0  0  0  0  0  0  0  0  0  0  0  0
    7.7050   -4.1010   23.0590 C   0  0  2  0  0  0  0  0  0  0  0  0
    6.6650   -4.5910   20.7170 C   0  0  0  0  0  0  0  0  0  0  0  0
   11.9410   -1.8090   22.4890 N   0  0  0  0  0  0  0  0  0  0  0  0
   10.7010   -2.1720   22.1080 C   0  0  0  0  0  0  0  0  0  0  0  0
    9.7280   -2.2180   23.0890 C   0  0  0  0  0  0  0  0  0  0  0  0
   10.2930   -1.8530   24.3610 C   0  0  0  0  0  0  0  0  0  0  0  0
   11.9600   -1.5050   24.1300 S   0  0  0  0  0  0  0  0  0  0  0  0
    6.2940   -0.8800   18.6900 C   0  0  0  0  0  0  0  0  0  0  0  0
    5.7720    0.3150   17.9150 C   0  0  0  0  0  0  0  0  0  0  0  0
    5.6610    1.6280   18.6350 C   0  0  0  0  0  0  0  0  0  0  0  0
    6.0520    1.7000   19.9540 C   0  0  0  0  0  0  0  0  0  0  0  0
    6.5280    0.5840   20.6460 C   0  0  0  0  0  0  0  0  0  0  0  0
    6.6380   -0.6960   20.0290 C   0  0  0  0  0  0  0  0  0  0  0  0
    6.6300   -4.2780   24.1000 C   0  0  0  0  0  0  0  0  0  0  0  0
    6.9740   -4.3760   25.4480 C   0  0  0  0  0  0  0  0  0  0  0  0
    5.9930   -4.5400   26.4310 C   0  0  0  0  0  0  0  0  0  0  0  0
    4.6470   -4.6080   26.0820 C   0  0  0  0  0  0  0  0  0  0  0  0
    4.2300   -4.5170   24.7530 C   0  0  0  0  0  0  0  0  0  0  0  0
    5.1470   -4.3530   23.7080 C   0  0  0  0  0  0  0  0  0  0  0  0
    6.3510   -4.6400   27.7840 C   0  0  0  0  0  0  0  0  0  0  0  0
    7.6840   -4.5820   28.1750 C   0  0  0  0  0  0  0  0  0  0  0  0
    8.6730   -4.4200   27.2210 C   0  0  0  0  0  0  0  0  0  0  0  0
    8.3220   -4.3170   25.8830 C   0  0  0  0  0  0  0  0  0  0  0  0
  1  2  1  0
  2  3  2  0
  1  4  1  0
  5  7  1  0
  6  8  3  0
  7  8  1  0
  4 11  1  0
  9 11  1  0
  3 12  1  0
  9 12  1  0
 10 12  2  0
 13 14  2  0
  4 15  1  6
 14 15  1  0
 15 16  2  0
 13 17  1  0
 16 17  1  0
 18 19  2  0
 19 20  1  0
 20 21  2  0
  5 22  1  0
 21 22  1  0
  2 23  1  0
 18 23  1  0
 22 23  2  0
 11 24  1  1
 24 25  2  0
 25 26  1  0
 26 27  2  0
 27 28  1  0
 24 29  1  0
 28 29  2  0
 26 30  1  0
 30 31  2  0
 31 32  1  0
 25 33  1  0
 32 33  2  0
M  END
