x2764-x2119
     RDKit          3D

 25 27  0  0  0  0  0  0  0  0999 V2000
    8.5860   -0.9440   21.8490 N   0  0  0  0  0  0  0  0  0  0  0  0
    7.5790   -1.1810   20.8110 C   0  0  2  0  0  0  0  0  0  0  0  0
    9.0460   -2.0370   22.7100 C   0  0  0  0  0  0  0  0  0  0  0  0
    6.7320    1.2530   22.0820 O   0  0  0  0  0  0  0  0  0  0  0  0
    7.7530    4.4730   22.6220 N   0  0  0  0  0  0  0  0  0  0  0  0
    7.9390    1.8310   22.3160 C   0  0  0  0  0  0  0  0  0  0  0  0
    7.8270    3.3230   22.4820 C   0  0  0  0  0  0  0  0  0  0  0  0
    5.7990   -5.3930   20.0080 N   0  0  0  0  0  0  0  0  0  0  0  0
    6.3910   -4.2460   19.9970 C   0  0  0  0  0  0  0  0  0  0  0  0
   12.8960   -1.6540   22.5530 N   0  0  0  0  0  0  0  0  0  0  0  0
   11.6750   -1.8490   22.0370 C   0  0  0  0  0  0  0  0  0  0  0  0
   10.4920   -1.8460   23.0350 C   0  0  0  0  0  0  0  0  0  0  0  0
   11.1730   -1.6050   24.3680 C   0  0  0  0  0  0  0  0  0  0  0  0
   12.8570   -1.4510   24.2210 S   0  0  0  0  0  0  0  0  0  0  0  0
    6.4720   -0.4020   18.8220 C   0  0  0  0  0  0  0  0  0  0  0  0
    5.6980    0.4350   17.9410 C   0  0  0  0  0  0  0  0  0  0  0  0
    5.1950    1.7430   18.5530 C   0  0  0  0  0  0  0  0  0  0  0  0
    5.5270    2.0790   19.9960 C   0  0  0  0  0  0  0  0  0  0  0  0
    6.3600    1.0750   20.7780 C   0  0  0  0  0  0  0  0  0  0  0  0
    6.7840   -0.1020   20.1670 C   0  0  0  0  0  0  0  0  0  0  0  0
    6.0660   -3.3480   21.0750 C   0  0  0  0  0  0  0  0  0  0  0  0
    5.0950   -3.7210   21.9700 N   0  0  0  0  0  0  0  0  0  0  0  0
    4.9640   -2.7220   22.9120 C   0  0  0  0  0  0  0  0  0  0  0  0
    5.8580   -1.7970   22.5170 C   0  0  0  0  0  0  0  0  0  0  0  0
    6.5810   -2.0730   21.4010 N   0  0  0  0  0  0  0  0  0  0  0  0
  2  1  1  1
  1  3  1  0
  4  6  1  0
  5  7  3  0
  6  7  1  0
  8  9  2  3
 10 11  2  0
  3 12  1  0
 11 12  1  0
 12 13  2  0
 10 14  1  0
 13 14  1  0
 15 16  2  0
 16 17  1  0
 17 18  2  0
  4 19  1  0
 18 19  1  0
  2 20  1  0
 15 20  1  0
 19 20  2  0
  9 21  1  0
 21 22  2  0
 22 23  1  0
 23 24  2  0
  2 25  1  0
 21 25  1  0
 24 25  1  0
M  END
