x2764-x0691
     RDKit          3D

 39 42  0  0  0  0  0  0  0  0999 V2000
    8.4680   -1.1940   21.7370 N   0  0  0  0  0  0  0  0  0  0  0  0
    7.0440   -1.2450   21.2920 C   0  0  0  0  0  0  0  0  0  0  0  0
    5.9190   -2.1560   21.6850 N   0  0  0  0  0  0  0  0  0  0  0  0
    9.1040   -2.2240   22.5790 C   0  0  0  0  0  0  0  0  0  0  0  0
    6.4370    1.4390   21.9850 O   0  0  0  0  0  0  0  0  0  0  0  0
    7.8580    4.4420   22.6150 N   0  0  0  0  0  0  0  0  0  0  0  0
    7.7050    1.7950   22.3330 C   0  0  0  0  0  0  0  0  0  0  0  0
    7.7930    3.2900   22.4880 C   0  0  0  0  0  0  0  0  0  0  0  0
    4.1130   -6.8840   25.9350 O   0  0  0  0  0  0  0  0  0  0  0  0
    5.7150   -5.2210   26.8980 O   0  0  0  0  0  0  0  0  0  0  0  0
    5.6380   -4.4220   19.8510 O   0  0  0  0  0  0  0  0  0  0  0  0
    6.5450   -4.2740   20.6550 C   0  0  0  0  0  0  0  0  0  0  0  0
    7.9080   -3.6850   20.3600 C   0  0  0  0  0  0  0  0  0  0  0  0
    3.2990   -0.6180   25.9720 F   0  0  0  0  0  0  0  0  0  0  0  0
    4.7930   -5.6090   25.8630 S   0  0  0  0  0  0  0  0  0  0  0  0
    6.0090   -3.2500   22.6910 C   0  0  0  0  0  0  0  0  0  0  0  0
   12.7360   -1.5400   22.5000 N   0  0  0  0  0  0  0  0  0  0  0  0
   11.5310   -1.8380   22.0180 C   0  0  0  0  0  0  0  0  0  0  0  0
   10.5130   -1.9000   22.9370 C   0  0  0  0  0  0  0  0  0  0  0  0
   10.9610   -1.6290   24.2560 C   0  0  0  0  0  0  0  0  0  0  0  0
   12.6430   -1.3310   24.1500 S   0  0  0  0  0  0  0  0  0  0  0  0
    6.3130   -0.7550   19.0360 C   0  0  0  0  0  0  0  0  0  0  0  0
    5.7190    0.1930   18.0100 C   0  0  0  0  0  0  0  0  0  0  0  0
    5.3990    1.5960   18.4800 C   0  0  0  0  0  0  0  0  0  0  0  0
    5.6560    1.9590   19.7910 C   0  0  0  0  0  0  0  0  0  0  0  0
    6.2010    1.0490   20.6940 C   0  0  0  0  0  0  0  0  0  0  0  0
    6.5130   -0.2620   20.3370 C   0  0  0  0  0  0  0  0  0  0  0  0
    2.9240   -1.9000   25.8760 C   0  0  0  0  0  0  0  0  0  0  0  0
    3.8570   -2.9760   25.9000 C   0  0  0  0  0  0  0  0  0  0  0  0
    3.5460   -4.3440   25.8090 C   0  0  0  0  0  0  0  0  0  0  0  0
    2.1950   -4.6170   25.6790 C   0  0  0  0  0  0  0  0  0  0  0  0
    1.1920   -3.6730   25.6430 C   0  0  0  0  0  0  0  0  0  0  0  0
    1.4470   -2.3090   25.7350 C   0  0  0  0  0  0  0  0  0  0  0  0
    6.2530   -4.6390   22.0800 C   0  0  0  0  0  0  0  0  0  0  0  0
    5.1470   -5.4810   22.1270 C   0  0  0  0  0  0  0  0  0  0  0  0
    4.9950   -6.2620   23.2460 C   0  0  0  0  0  0  0  0  0  0  0  0
    5.5470   -5.4870   24.3630 N   0  0  0  0  0  0  0  0  0  0  0  0
    7.0030   -5.1940   24.2350 C   0  0  0  0  0  0  0  0  0  0  0  0
    7.3830   -5.2870   22.8910 C   0  0  0  0  0  0  0  0  0  0  0  0
  1  2  1  0
  2  3  2  3
  1  4  1  0
  5  7  1  0
  6  8  3  0
  7  8  1  0
 11 12  2  0
 12 13  1  0
  9 15  2  0
 10 15  2  0
  3 16  1  0
 17 18  2  0
  4 19  1  0
 18 19  1  0
 19 20  2  0
 17 21  1  0
 20 21  1  0
 22 23  2  0
 23 24  1  0
 24 25  2  0
  5 26  1  0
 25 26  1  0
  2 27  1  0
 22 27  1  0
 26 27  2  0
 14 28  1  0
 28 29  2  0
 15 30  1  0
 29 30  1  0
 30 31  2  0
 31 32  1  0
 28 33  1  0
 32 33  2  0
 34 12  1  0
 16 34  1  0
 34 35  1  0
 35 36  1  0
 15 37  1  0
 36 37  1  0
 37 38  1  0
 34 39  1  0
 38 39  1  0
M  END
