x2764-x0689
     RDKit          3D

 35 38  0  0  0  0  0  0  0  0999 V2000
    7.6310   -1.9510   22.3230 N   0  0  0  0  0  0  0  0  0  0  0  0
    7.1600   -2.0890   20.8980 C   0  0  0  0  0  0  0  0  0  0  0  0
    6.7690   -3.4890   20.0380 C   0  0  0  0  0  0  0  0  0  0  0  0
    8.8560   -2.7300   22.6240 C   0  0  0  0  0  0  0  0  0  0  0  0
    7.0490    0.7780   22.0140 O   0  0  0  0  0  0  0  0  0  0  0  0
    7.5960    4.1890   22.5770 N   0  0  0  0  0  0  0  0  0  0  0  0
    8.1360    1.5820   22.1980 C   0  0  0  0  0  0  0  0  0  0  0  0
    7.8010    3.0550   22.4040 C   0  0  0  0  0  0  0  0  0  0  0  0
    5.6380   -5.4710   20.0660 O   0  0  0  0  0  0  0  0  0  0  0  0
    6.4190   -4.7780   20.7350 C   0  0  0  0  0  0  0  0  0  0  0  0
    3.8960   -6.3740   26.0180 O   0  0  0  0  0  0  0  0  0  0  0  0
    5.5740   -4.6550   26.7970 O   0  0  0  0  0  0  0  0  0  0  0  0
    4.6320   -5.1490   25.8170 S   0  0  0  0  0  0  0  0  0  0  0  0
   12.6220   -1.4530   22.4630 N   0  0  0  0  0  0  0  0  0  0  0  0
   11.3840   -2.0280   21.8980 C   0  0  0  0  0  0  0  0  0  0  0  0
   10.2960   -2.1120   22.9930 C   0  0  0  0  0  0  0  0  0  0  0  0
   10.7710   -1.6300   24.1980 C   0  0  0  0  0  0  0  0  0  0  0  0
   12.4030   -1.1140   24.0600 S   0  0  0  0  0  0  0  0  0  0  0  0
    6.3240   -0.9730   18.8040 C   0  0  0  0  0  0  0  0  0  0  0  0
    5.7870    0.1840   17.9730 C   0  0  0  0  0  0  0  0  0  0  0  0
    5.7050    1.5400   18.5970 C   0  0  0  0  0  0  0  0  0  0  0  0
    6.1940    1.6450   20.0350 C   0  0  0  0  0  0  0  0  0  0  0  0
    6.6710    0.5160   20.7180 C   0  0  0  0  0  0  0  0  0  0  0  0
    6.7400   -0.7920   20.1400 C   0  0  0  0  0  0  0  0  0  0  0  0
    6.8160   -5.2680   21.9510 N   0  0  0  0  0  0  0  0  0  0  0  0
    5.9310   -6.3340   22.3530 C   0  0  0  0  0  0  0  0  0  0  0  0
    4.9000   -6.0480   23.2420 C   0  0  0  0  0  0  0  0  0  0  0  0
    5.4450   -5.2370   24.3520 N   0  0  0  0  0  0  0  0  0  0  0  0
    6.4020   -4.1510   23.9930 C   0  0  0  0  0  0  0  0  0  0  0  0
    7.2700   -4.5740   22.9930 C   0  0  0  0  0  0  0  0  0  0  0  0
    3.8530   -2.2320   26.0380 S   0  0  0  0  0  0  0  0  0  0  0  0
    3.4000   -3.8690   25.7180 C   0  0  0  0  0  0  0  0  0  0  0  0
    2.0490   -3.8790   25.4230 C   0  0  0  0  0  0  0  0  0  0  0  0
    1.3660   -2.6870   25.4400 C   0  0  0  0  0  0  0  0  0  0  0  0
    2.2460   -1.6490   25.7730 C   0  0  0  0  0  0  0  0  0  0  0  0
  1  2  1  0
  2  3  2  3
  1  4  1  0
  5  7  1  0
  6  8  3  0
  7  8  1  0
  3 10  1  0
  9 10  2  0
 11 13  2  0
 12 13  2  0
 14 15  2  0
  4 16  1  0
 15 16  1  0
 16 17  2  0
 14 18  1  0
 17 18  1  0
 19 20  2  0
 20 21  1  0
 21 22  2  0
  5 23  1  0
 22 23  1  0
  2 24  1  0
 19 24  1  0
 23 24  2  0
 10 25  1  0
 25 26  1  0
 26 27  1  0
 13 28  1  0
 27 28  1  0
 28 29  1  0
 25 30  1  0
 29 30  1  0
 13 32  1  0
 31 32  1  0
 32 33  2  0
 33 34  1  0
 31 35  1  0
 34 35  2  0
M  END
