x2764-x1458
     RDKit          3D

 35 38  0  0  0  0  0  0  0  0999 V2000
    7.2850   -3.4430   26.7410 N   0  0  0  0  0  0  0  0  0  0  0  0
    8.8920   -5.3840   26.7880 C   0  0  0  0  0  0  0  0  0  0  0  0
    5.2060   -3.4090   25.5700 O   0  0  0  0  0  0  0  0  0  0  0  0
    7.7790   -4.6250   27.4860 C   0  0  0  0  0  0  0  0  0  0  0  0
    5.8720   -5.0830   20.0430 O   0  0  0  0  0  0  0  0  0  0  0  0
    6.6480   -5.5950   27.7580 C   0  0  0  0  0  0  0  0  0  0  0  0
    7.8930   -2.1640   27.0270 C   0  0  0  0  0  0  0  0  0  0  0  0
    6.4180   -3.6590   25.6050 C   0  0  0  0  0  0  0  0  0  0  0  0
    6.5880   -4.1120   20.3070 C   0  0  0  0  0  0  0  0  0  0  0  0
    7.3060   -3.3460   19.2180 C   0  0  0  0  0  0  0  0  0  0  0  0
    8.3020   -1.2230   21.2990 N   0  0  0  0  0  0  0  0  0  0  0  0
    7.0010   -1.2730   20.9860 C   0  0  0  0  0  0  0  0  0  0  0  0
    6.2150   -2.2640   21.2040 N   0  0  0  0  0  0  0  0  0  0  0  0
    9.0520   -2.3450   21.7700 C   0  0  2  0  0  0  0  0  0  0  0  0
    6.2730    1.4170   22.0710 O   0  0  0  0  0  0  0  0  0  0  0  0
    7.8590    4.6210   22.6490 N   0  0  0  0  0  0  0  0  0  0  0  0
    7.6580    1.7690   22.2510 C   0  0  0  0  0  0  0  0  0  0  0  0
    7.7730    3.2960   22.4480 C   0  0  0  0  0  0  0  0  0  0  0  0
    6.7250   -3.5420   21.7290 C   0  0  2  0  0  0  0  0  0  0  0  0
    8.1210   -3.4260   22.4210 C   0  0  2  0  0  0  0  0  0  0  0  0
    7.9290   -3.2570   23.7690 C   0  0  0  0  0  0  0  0  0  0  0  0
    7.1510   -4.2450   24.3890 C   0  0  2  0  0  0  0  0  0  0  0  0
    6.2550   -4.9560   23.5830 C   0  0  0  0  0  0  0  0  0  0  0  0
    5.7040   -4.2670   22.5050 C   0  0  0  0  0  0  0  0  0  0  0  0
   12.7240   -1.3170   22.4250 N   0  0  0  0  0  0  0  0  0  0  0  0
   11.5500   -1.9640   21.7700 C   0  0  0  0  0  0  0  0  0  0  0  0
   10.3100   -1.7640   22.3990 C   0  0  0  0  0  0  0  0  0  0  0  0
   10.4180   -0.9890   23.5540 C   0  0  0  0  0  0  0  0  0  0  0  0
   12.0630   -0.5620   23.7110 S   0  0  0  0  0  0  0  0  0  0  0  0
    6.1640   -0.3910   18.8830 C   0  0  0  0  0  0  0  0  0  0  0  0
    5.5890    0.5590   18.0460 C   0  0  0  0  0  0  0  0  0  0  0  0
    5.2400    1.7950   18.5860 C   0  0  0  0  0  0  0  0  0  0  0  0
    5.4750    2.0680   19.9360 C   0  0  0  0  0  0  0  0  0  0  0  0
    6.0550    1.1050   20.7590 C   0  0  0  0  0  0  0  0  0  0  0  0
    6.4000   -0.1390   20.2470 C   0  0  0  0  0  0  0  0  0  0  0  0
  1  4  1  0
  2  4  1  0
  4  6  1  0
  1  7  1  0
  1  8  1  0
  3  8  2  0
  5  9  2  0
  9 10  1  0
 11 12  1  0
 12 13  2  0
 11 14  1  0
 15 17  1  0
 16 18  3  0
 17 18  1  0
 19  9  1  6
 13 19  1  0
 14 20  1  0
 19 20  1  0
 20 21  1  1
 22  8  1  1
 21 22  1  0
 22 23  1  0
 19 24  1  0
 23 24  1  0
 25 26  2  0
 14 27  1  1
 26 27  1  0
 27 28  2  0
 25 29  1  0
 28 29  1  0
 30 31  2  0
 31 32  1  0
 32 33  2  0
 15 34  1  0
 33 34  1  0
 12 35  1  0
 30 35  1  0
 34 35  2  0
M  END
