x2764-x0995
     RDKit          3D

 20 21  0  0  0  0  0  0  0  0999 V2000
    8.6840   -1.3030   21.4460 N   0  0  0  0  0  0  0  0  0  0  0  0
    7.2700   -1.4230   21.0640 C   0  0  0  0  0  0  0  0  0  0  0  0
    6.6060   -2.3910   21.4190 O   0  0  0  0  0  0  0  0  0  0  0  0
    9.1600   -2.1750   22.5290 C   0  0  0  0  0  0  0  0  0  0  0  0
    6.3020    1.3420   22.0500 O   0  0  0  0  0  0  0  0  0  0  0  0
    7.8580    4.3910   22.6400 N   0  0  0  0  0  0  0  0  0  0  0  0
    7.4430    1.7990   22.1680 C   0  0  0  0  0  0  0  0  0  0  0  0
    7.6760    3.2650   22.4270 C   0  0  0  0  0  0  0  0  0  0  0  0
    4.4470    2.7730   18.6960 N   0  0  0  0  0  0  0  0  0  0  0  0
   12.9470   -1.5870   22.5970 N   0  0  0  0  0  0  0  0  0  0  0  0
   11.7750   -1.8500   21.9830 C   0  0  0  0  0  0  0  0  0  0  0  0
   10.5670   -1.9080   22.8760 C   0  0  0  0  0  0  0  0  0  0  0  0
   11.1850   -1.6220   24.2680 C   0  0  0  0  0  0  0  0  0  0  0  0
   12.8800   -1.3710   24.2490 S   0  0  0  0  0  0  0  0  0  0  0  0
    6.2900   -0.6430   18.9560 C   0  0  0  0  0  0  0  0  0  0  0  0
    5.5890    0.2350   18.1240 C   0  0  0  0  0  0  0  0  0  0  0  0
    4.9480    1.5630   18.2820 C   0  0  0  0  0  0  0  0  0  0  0  0
    5.3320    1.7850   19.7900 C   0  0  0  0  0  0  0  0  0  0  0  0
    6.0930    0.9070   20.7650 C   0  0  0  0  0  0  0  0  0  0  0  0
    6.5650   -0.3950   20.2660 C   0  0  0  0  0  0  0  0  0  0  0  0
  1  2  1  0
  2  3  2  0
  1  4  1  0
  5  7  1  0
  6  8  3  0
  7  8  1  0
 10 11  2  0
  4 12  1  0
 11 12  1  0
 12 13  2  0
 10 14  1  0
 13 14  1  0
 15 16  2  0
  9 17  1  0
 16 17  1  0
 17 18  2  0
  5 19  1  0
 18 19  1  0
  2 20  1  0
 15 20  1  0
 19 20  2  0
M  END
