x2764-x3117
     RDKit          3D

 33 35  0  0  0  0  0  0  0  0999 V2000
    6.6990   -1.5620   21.7680 N   0  0  0  0  0  0  0  0  0  0  0  0
    6.6160   -4.7290   20.3280 C   0  0  0  0  0  0  0  0  0  0  0  0
    4.6950   -2.9500   21.3700 O   0  0  0  0  0  0  0  0  0  0  0  0
    6.7570   -4.0190   21.6720 C   0  0  0  0  0  0  0  0  0  0  0  0
    7.8370    1.7270   22.6700 N   0  0  0  0  0  0  0  0  0  0  0  0
    8.3170    0.6490   21.2800 O   0  0  0  0  0  0  0  0  0  0  0  0
    5.9260   -2.7760   21.5910 C   0  0  0  0  0  0  0  0  0  0  0  0
    6.2970   -0.1700   21.6190 C   0  0  1  0  0  0  0  0  0  0  0  0
    7.3780    0.8430   22.0630 C   0  0  0  0  0  0  0  0  0  0  0  0
   12.5120   -1.8320   24.4780 C   0  0  0  0  0  0  0  0  0  0  0  0
   12.6320   -0.5380   25.2470 C   0  0  0  0  0  0  0  0  0  0  0  0
   13.4630   -1.7730   23.3000 C   0  0  0  0  0  0  0  0  0  0  0  0
   12.9400   -3.0510   25.2880 C   0  0  0  0  0  0  0  0  0  0  0  0
    7.9850   -1.6830   21.2730 N   0  0  0  0  0  0  0  0  0  0  0  0
    7.8340    3.1190   22.2090 C   0  0  0  0  0  0  0  0  0  0  0  0
    6.2610    0.4720   17.8610 N   0  0  0  0  0  0  0  0  0  0  0  0
    5.1900    1.2730   17.7370 C   0  0  0  0  0  0  0  0  0  0  0  0
    4.3170    1.6790   18.9050 C   0  0  0  0  0  0  0  0  0  0  0  0
    4.7500    1.1270   20.2400 C   0  0  0  0  0  0  0  0  0  0  0  0
    5.8710    0.3250   20.2710 C   0  0  0  0  0  0  0  0  0  0  0  0
    6.5690    0.0280   19.1020 C   0  0  0  0  0  0  0  0  0  0  0  0
    9.8150    5.3030   23.8390 O   0  0  0  0  0  0  0  0  0  0  0  0
   10.6490    4.1760   23.6020 C   0  0  0  0  0  0  0  0  0  0  0  0
    9.9260    3.0070   23.8230 C   0  0  0  0  0  0  0  0  0  0  0  0
    8.6590    3.3210   24.3450 C   0  0  0  0  0  0  0  0  0  0  0  0
    7.9170    4.0440   23.4260 C   0  0  1  0  0  0  0  0  0  0  0  0
    8.5920    5.2260   23.1050 C   0  0  0  0  0  0  0  0  0  0  0  0
   10.1540   -2.2540   21.7970 C   0  0  0  0  0  0  0  0  0  0  0  0
   11.2660   -2.3070   22.5410 C   0  0  0  0  0  0  0  0  0  0  0  0
   11.2100   -1.7570   23.7880 C   0  0  0  0  0  0  0  0  0  0  0  0
   10.0500   -1.1730   24.3040 C   0  0  0  0  0  0  0  0  0  0  0  0
    8.9220   -1.1310   23.5000 C   0  0  0  0  0  0  0  0  0  0  0  0
    8.9910   -1.6740   22.2130 C   0  0  0  0  0  0  0  0  0  0  0  0
  2  4  1  0
  1  7  1  0
  3  7  2  0
  4  7  1  0
  1  8  1  0
  5  9  1  0
  6  9  2  0
  8  9  1  6
 10 11  1  0
 10 12  1  0
 10 13  1  0
  1 14  1  0
  5 15  1  0
 16 17  2  0
 17 18  1  0
 18 19  2  0
  8 20  1  0
 19 20  1  0
 16 21  1  0
 20 21  2  0
 22 23  1  0
 23 24  1  0
 24 25  1  0
 26 15  1  6
 25 26  1  0
 22 27  1  0
 26 27  1  0
 28 29  2  0
 10 30  1  0
 29 30  1  0
 30 31  2  0
 31 32  1  0
 14 33  1  0
 28 33  1  0
 32 33  2  0
M  END
