x2764-x3124
     RDKit          3D

 28 29  0  0  0  0  0  0  0  0999 V2000
    6.6930   -1.6070   21.7580 N   0  0  0  0  0  0  0  0  0  0  0  0
    6.6480   -4.8380   20.4150 C   0  0  0  0  0  0  0  0  0  0  0  0
    4.7210   -2.9620   21.3200 O   0  0  0  0  0  0  0  0  0  0  0  0
    6.7540   -4.0690   21.7280 C   0  0  0  0  0  0  0  0  0  0  0  0
    7.7660    1.3450   23.1980 N   0  0  0  0  0  0  0  0  0  0  0  0
    8.0900    0.9710   21.4220 O   0  0  0  0  0  0  0  0  0  0  0  0
    5.9370   -2.8160   21.5810 C   0  0  0  0  0  0  0  0  0  0  0  0
    6.2620   -0.2280   21.6650 C   0  0  1  0  0  0  0  0  0  0  0  0
    7.2880    0.7100   22.3350 C   0  0  0  0  0  0  0  0  0  0  0  0
    7.9490    2.7940   22.9090 C   0  0  0  0  0  0  0  0  0  0  0  0
   12.5720   -2.0460   24.4750 C   0  0  0  0  0  0  0  0  0  0  0  0
   12.7130   -0.6610   25.0850 C   0  0  0  0  0  0  0  0  0  0  0  0
   13.5140   -2.2180   23.2870 C   0  0  0  0  0  0  0  0  0  0  0  0
   13.0210   -3.1090   25.4780 C   0  0  0  0  0  0  0  0  0  0  0  0
    8.0230   -1.7080   21.3670 N   0  0  0  0  0  0  0  0  0  0  0  0
    8.0080    4.1450   22.6460 N   0  0  0  0  0  0  0  0  0  0  0  0
    6.3590    0.5070   17.8950 N   0  0  0  0  0  0  0  0  0  0  0  0
    5.2970    1.3190   17.7350 C   0  0  0  0  0  0  0  0  0  0  0  0
    4.4060    1.6920   18.8960 C   0  0  0  0  0  0  0  0  0  0  0  0
    4.7710    1.1220   20.2420 C   0  0  0  0  0  0  0  0  0  0  0  0
    5.8860    0.3090   20.3050 C   0  0  0  0  0  0  0  0  0  0  0  0
    6.6250    0.0320   19.1430 C   0  0  0  0  0  0  0  0  0  0  0  0
   10.1720   -1.4240   21.8240 C   0  0  0  0  0  0  0  0  0  0  0  0
   11.2740   -1.5150   22.5780 C   0  0  0  0  0  0  0  0  0  0  0  0
   11.2320   -2.0570   23.8550 C   0  0  0  0  0  0  0  0  0  0  0  0
   10.0180   -2.5150   24.3810 C   0  0  0  0  0  0  0  0  0  0  0  0
    8.9090   -2.3990   23.5480 C   0  0  0  0  0  0  0  0  0  0  0  0
    8.9670   -1.8640   22.2650 C   0  0  0  0  0  0  0  0  0  0  0  0
  2  4  1  0
  1  7  1  0
  3  7  2  0
  4  7  1  0
  1  8  1  0
  5  9  1  0
  6  9  2  0
  8  9  1  6
  5 10  1  0
 11 12  1  0
 11 13  1  0
 11 14  1  0
  1 15  1  0
 10 16  3  0
 17 18  2  0
 18 19  1  0
 19 20  2  0
  8 21  1  0
 20 21  1  0
 17 22  1  0
 21 22  2  0
 23 24  2  0
 11 25  1  0
 24 25  1  0
 25 26  2  0
 26 27  1  0
 15 28  1  0
 23 28  1  0
 27 28  2  0
M  END
