x2764-x3298
     RDKit          3D

 30 32  0  0  0  0  0  0  0  0999 V2000
    7.1110    2.0440   22.5540 N   0  0  0  0  0  0  0  0  0  0  0  0
    7.2360   -0.2460   21.4570 C   0  0  1  0  0  0  0  0  0  0  0  0
    6.4370   -0.5930   22.3150 O   0  0  0  0  0  0  0  0  0  0  0  0
    7.8480    1.1070   21.6960 C   0  0  0  0  0  0  0  0  0  0  0  0
    9.0520    1.2950   23.6510 N   0  0  0  0  0  0  0  0  0  0  0  0
    8.9040    1.4060   21.1260 O   0  0  0  0  0  0  0  0  0  0  0  0
   10.9840    1.9390   24.6980 O   0  0  0  0  0  0  0  0  0  0  0  0
    9.8730   -0.1640   25.7030 O   0  0  0  0  0  0  0  0  0  0  0  0
   13.7150   -1.8470   20.8520 F   0  0  0  0  0  0  0  0  0  0  0  0
   10.2480    0.7380   24.6250 S   0  0  0  0  0  0  0  0  0  0  0  0
    8.2940   -1.2010   21.2500 N   0  0  0  0  0  0  0  0  0  0  0  0
    8.4660   -2.2090   22.2950 C   0  0  0  0  0  0  0  0  0  0  0  0
    6.3210    0.2940   17.6950 N   0  0  0  0  0  0  0  0  0  0  0  0
    6.9280   -0.0760   18.8240 C   0  0  0  0  0  0  0  0  0  0  0  0
    6.4500    0.1660   20.2240 C   0  0  0  0  0  0  0  0  0  0  0  0
    5.1230    0.8930   20.3960 C   0  0  0  0  0  0  0  0  0  0  0  0
    4.4330    1.3110   19.0810 C   0  0  0  0  0  0  0  0  0  0  0  0
    5.1850    0.9320   17.8120 C   0  0  0  0  0  0  0  0  0  0  0  0
    7.5940    4.5260   22.5920 C   0  0  0  0  0  0  0  0  0  0  0  0
    8.4900    5.6290   22.9170 C   0  0  0  0  0  0  0  0  0  0  0  0
    9.8100    5.1940   23.5760 C   0  0  0  0  0  0  0  0  0  0  0  0
   10.0720    3.7230   23.8400 C   0  0  0  0  0  0  0  0  0  0  0  0
    8.9980    2.7190   23.4530 C   0  0  0  0  0  0  0  0  0  0  0  0
    7.8730    3.1600   22.8580 C   0  0  0  0  0  0  0  0  0  0  0  0
   12.4880    0.4950   23.2690 C   0  0  0  0  0  0  0  0  0  0  0  0
   13.2910   -0.1190   22.3800 C   0  0  0  0  0  0  0  0  0  0  0  0
   12.9180   -1.2940   21.7380 C   0  0  0  0  0  0  0  0  0  0  0  0
   11.6930   -1.9000   22.0030 C   0  0  0  0  0  0  0  0  0  0  0  0
   10.8970   -1.2550   22.9110 C   0  0  0  0  0  0  0  0  0  0  0  0
   11.2720   -0.0920   23.5210 C   0  0  0  0  0  0  0  0  0  0  0  0
  2  3  1  1
  1  4  1  0
  2  4  1  0
  4  6  2  0
 10  5  1  0
  7 10  2  0
  8 10  2  0
  2 11  1  0
 11 12  1  0
 13 14  2  0
  2 15  1  0
 14 15  1  0
 15 16  2  0
 16 17  1  0
 13 18  1  0
 17 18  2  0
 19 20  2  0
 20 21  1  0
 21 22  2  0
  5 23  1  0
 22 23  1  0
  1 24  1  0
 19 24  1  0
 23 24  2  0
 25 26  2  0
  9 27  1  0
 26 27  1  0
 27 28  2  0
 28 29  1  0
 10 30  1  0
 25 30  1  0
 29 30  2  0
M  END
