x2764-x0678
     RDKit          3D

 21 22  0  0  0  0  0  0  0  0999 V2000
    8.5040   -1.0280   21.9050 N   0  0  1  0  0  0  0  0  0  0  0  0
    7.1730   -1.2330   21.2710 C   0  0  0  0  0  0  0  0  0  0  0  0
    6.5360   -2.2660   21.4600 O   0  0  0  0  0  0  0  0  0  0  0  0
    9.3480   -2.2100   22.0590 C   0  0  0  0  0  0  0  0  0  0  0  0
    6.4640    1.5030   22.1310 O   0  0  0  0  0  0  0  0  0  0  0  0
    7.8480    4.6630   22.5930 N   0  0  0  0  0  0  0  0  0  0  0  0
    7.5390    2.0340   22.3860 C   0  0  0  0  0  0  0  0  0  0  0  0
    7.7130    3.5200   22.4910 C   0  0  0  0  0  0  0  0  0  0  0  0
    9.1730    0.0190   21.2750 O   0  0  0  0  0  0  0  0  0  0  0  0
    8.2320   -0.4870   23.2050 C   0  0  0  0  0  0  0  0  0  0  0  0
   13.1640   -1.5900   22.7370 N   0  0  0  0  0  0  0  0  0  0  0  0
   11.9860   -1.8480   21.9240 C   0  0  0  0  0  0  0  0  0  0  0  0
   10.6660   -1.9510   22.6940 C   0  0  0  0  0  0  0  0  0  0  0  0
   11.0770   -1.7340   24.1500 C   0  0  0  0  0  0  0  0  0  0  0  0
   12.7570   -1.4780   24.3560 S   0  0  0  0  0  0  0  0  0  0  0  0
    6.3080   -0.6240   19.0550 C   0  0  0  0  0  0  0  0  0  0  0  0
    5.6970    0.1820   18.0240 C   0  0  0  0  0  0  0  0  0  0  0  0
    5.3020    1.5990   18.4500 C   0  0  0  0  0  0  0  0  0  0  0  0
    5.5660    2.0630   19.8740 C   0  0  0  0  0  0  0  0  0  0  0  0
    6.2210    1.0720   20.8180 C   0  0  0  0  0  0  0  0  0  0  0  0
    6.5540   -0.2020   20.3870 C   0  0  0  0  0  0  0  0  0  0  0  0
  1  2  1  0
  2  3  2  0
  1  4  1  0
  5  7  1  0
  6  8  3  0
  7  8  1  0
  1  9  1  0
  1 10  1  1
 11 12  2  0
  4 13  1  0
 12 13  1  0
 13 14  2  0
 11 15  1  0
 14 15  1  0
 16 17  2  0
 17 18  1  0
 18 19  2  0
  5 20  1  0
 19 20  1  0
  2 21  1  0
 16 21  1  0
 20 21  2  0
M  CHG  2   1   1   9  -1
M  END
