x2764-x0981
     RDKit          3D

 36 37  0  0  0  0  0  0  0  0999 V2000
    1.2250   -8.7120   21.4020 C   0  0  0  0  0  0  0  0  0  0  0  0
    2.8010   -7.2770   22.8700 N   0  0  0  0  0  0  0  0  0  0  0  0
    0.3950   -6.5300   22.1640 O   0  0  0  0  0  0  0  0  0  0  0  0
    1.4970   -7.4440   22.2000 C   0  0  0  0  0  0  0  0  0  0  0  0
    2.4920   -8.7290   25.8810 N   0  0  0  0  0  0  0  0  0  0  0  0
    3.8160   -8.1570   24.7130 O   0  0  0  0  0  0  0  0  0  0  0  0
    3.1470   -6.0360   23.5730 C   0  0  1  0  0  0  0  0  0  0  0  0
    5.4400   -6.0290   22.3750 N   0  0  0  0  0  0  0  0  0  0  0  0
    5.0000   -4.5250   24.1470 O   0  0  0  0  0  0  0  0  0  0  0  0
    2.8650   -6.2640   25.0370 C   0  0  0  0  0  0  0  0  0  0  0  0
    2.8640   -7.7450   25.3720 C   0  0  0  0  0  0  0  0  0  0  0  0
    4.6110   -5.4310   23.4200 C   0  0  0  0  0  0  0  0  0  0  0  0
    6.7280   -5.4300   21.8590 C   0  0  1  0  0  0  0  0  0  0  0  0
    6.6230   -5.3480   20.3580 C   0  0  0  0  0  0  0  0  0  0  0  0
    5.6540   -6.3130   19.7640 C   0  0  0  0  0  0  0  0  0  0  0  0
    8.5050   -1.3800   21.3810 N   0  0  0  0  0  0  0  0  0  0  0  0
    7.1740   -1.3410   21.1400 C   0  0  0  0  0  0  0  0  0  0  0  0
    6.2660   -2.1160   21.6720 N   0  0  0  0  0  0  0  0  0  0  0  0
    9.0020   -2.1130   22.4110 C   0  0  0  0  0  0  0  0  0  0  0  0
    6.5610    1.2070   21.9860 O   0  0  0  0  0  0  0  0  0  0  0  0
    7.9500    4.3750   22.9080 N   0  0  0  0  0  0  0  0  0  0  0  0
    7.7990    1.8850   22.3110 C   0  0  0  0  0  0  0  0  0  0  0  0
    7.6230    3.3920   22.0440 C   0  0  0  0  0  0  0  0  0  0  0  0
    7.2320   -4.1400   22.5580 C   0  0  0  0  0  0  0  0  0  0  0  0
    6.3310   -3.1100   22.5830 C   0  0  0  0  0  0  0  0  0  0  0  0
   12.7300   -1.5760   22.5170 N   0  0  0  0  0  0  0  0  0  0  0  0
   11.5360   -1.8090   21.9880 C   0  0  0  0  0  0  0  0  0  0  0  0
   10.4600   -1.8500   22.8500 C   0  0  0  0  0  0  0  0  0  0  0  0
   10.8490   -1.6290   24.1670 C   0  0  0  0  0  0  0  0  0  0  0  0
   12.5500   -1.3980   24.1610 S   0  0  0  0  0  0  0  0  0  0  0  0
    6.3470   -0.6660   18.8860 C   0  0  0  0  0  0  0  0  0  0  0  0
    5.7690    0.2640   18.0320 C   0  0  0  0  0  0  0  0  0  0  0  0
    5.4430    1.5340   18.4850 C   0  0  0  0  0  0  0  0  0  0  0  0
    5.6940    1.9040   19.8060 C   0  0  0  0  0  0  0  0  0  0  0  0
    6.2780    0.9570   20.6700 C   0  0  0  0  0  0  0  0  0  0  0  0
    6.5990   -0.3270   20.2110 C   0  0  0  0  0  0  0  0  0  0  0  0
  1  4  1  0
  2  4  1  0
  3  4  2  0
  2  7  1  0
  7 10  1  1
  5 11  1  0
  6 11  2  0
 10 11  1  0
  7 12  1  0
  8 12  1  0
  9 12  2  0
  8 13  1  0
 13 14  1  6
 14 15  2  3
 16 17  1  0
 17 18  2  3
 16 19  1  0
 20 22  1  0
 21 23  3  0
 22 23  1  0
 13 24  1  0
 18 25  1  0
 24 25  1  0
 26 27  2  0
 19 28  1  0
 27 28  1  0
 28 29  2  0
 26 30  1  0
 29 30  1  0
 31 32  2  0
 32 33  1  0
 33 34  2  0
 20 35  1  0
 34 35  1  0
 17 36  1  0
 31 36  1  0
 35 36  2  0
M  END
