x2764-x2608
     RDKit          3D

 24 26  0  0  0  0  0  0  0  0999 V2000
    8.2790   -1.7710   21.1860 N   0  0  0  0  0  0  0  0  0  0  0  0
    7.1700   -0.9840   21.3490 C   0  0  1  0  0  0  0  0  0  0  0  0
    6.5840   -1.0980   22.4080 O   0  0  0  0  0  0  0  0  0  0  0  0
    8.6990   -2.7350   22.2130 C   0  0  0  0  0  0  0  0  0  0  0  0
    6.3190    1.6510   21.9140 O   0  0  0  0  0  0  0  0  0  0  0  0
    7.7880    4.6840   22.6850 N   0  0  0  0  0  0  0  0  0  0  0  0
    7.4340    2.0990   22.1710 C   0  0  0  0  0  0  0  0  0  0  0  0
    7.6360    3.5570   22.4640 C   0  0  0  0  0  0  0  0  0  0  0  0
    9.2430    0.6550   21.8550 O   0  0  0  0  0  0  0  0  0  0  0  0
    8.5690   -0.3360   21.5740 C   0  0  0  0  0  0  0  0  0  0  0  0
   11.9450   -0.9470   22.8740 N   0  0  0  0  0  0  0  0  0  0  0  0
   10.7830   -1.2160   22.1440 C   0  0  0  0  0  0  0  0  0  0  0  0
    9.9930   -2.2740   22.7750 C   0  0  0  0  0  0  0  0  0  0  0  0
   10.8270   -2.6580   23.9990 C   0  0  0  0  0  0  0  0  0  0  0  0
   12.3230   -1.7820   24.2810 S   0  0  0  0  0  0  0  0  0  0  0  0
    6.2850   -0.7110   19.0410 C   0  0  0  0  0  0  0  0  0  0  0  0
    5.6370   -0.0070   17.9670 C   0  0  0  0  0  0  0  0  0  0  0  0
    5.1520    1.4320   18.2260 C   0  0  0  0  0  0  0  0  0  0  0  0
    5.3980    1.9940   19.6140 C   0  0  0  0  0  0  0  0  0  0  0  0
    6.0970    1.1100   20.6340 C   0  0  0  0  0  0  0  0  0  0  0  0
    6.5000   -0.1730   20.3140 C   0  0  0  0  0  0  0  0  0  0  0  0
   12.8090    1.9540   22.9100 C   0  0  0  0  0  0  0  0  0  0  0  0
   13.0780   -0.4430   23.3650 C   0  0  0  0  0  0  0  0  0  0  0  0
   12.2970    0.6910   23.5740 C   0  0  0  0  0  0  0  0  0  0  0  0
  1  2  1  0
  2  3  1  1
  1  4  1  0
  5  7  1  0
  6  8  3  0
  7  8  1  0
  1 10  1  0
  2 10  1  0
  9 10  2  0
 11 12  1  0
  4 13  1  0
 12 13  2  0
 13 14  1  0
 11 15  1  0
 14 15  2  0
 16 17  2  0
 17 18  1  0
 18 19  2  0
  5 20  1  0
 19 20  1  0
  2 21  1  0
 16 21  1  0
 20 21  2  0
 15 23  1  0
 22 24  1  0
 23 24  1  0
M  END
