x2764-x1077
     RDKit          3D

 31 33  0  0  0  0  0  0  0  0999 V2000
    8.5350   -1.2130   21.7490 N   0  0  0  0  0  0  0  0  0  0  0  0
    7.1830   -1.4880   21.2090 C   0  0  0  0  0  0  0  0  0  0  0  0
    6.5570   -2.5140   21.4370 O   0  0  0  0  0  0  0  0  0  0  0  0
    9.0800   -1.7470   23.0020 C   0  0  2  0  0  0  0  0  0  0  0  0
    6.3740    1.4730   22.0920 O   0  0  0  0  0  0  0  0  0  0  0  0
    7.5530    4.7100   22.7150 N   0  0  0  0  0  0  0  0  0  0  0  0
    7.4310    2.1120   22.1720 C   0  0  0  0  0  0  0  0  0  0  0  0
    7.4860    3.5780   22.4780 C   0  0  0  0  0  0  0  0  0  0  0  0
   12.8750   -1.4160   22.4660 N   0  0  0  0  0  0  0  0  0  0  0  0
   11.6220   -1.6780   22.1090 C   0  0  0  0  0  0  0  0  0  0  0  0
   10.5260   -1.5160   23.1300 C   0  0  0  0  0  0  0  0  0  0  0  0
   11.2370   -1.0500   24.4170 C   0  0  0  0  0  0  0  0  0  0  0  0
   12.9030   -0.9460   24.0750 S   0  0  0  0  0  0  0  0  0  0  0  0
    6.3000   -0.7500   19.0140 C   0  0  0  0  0  0  0  0  0  0  0  0
    5.7140    0.1140   18.0830 C   0  0  0  0  0  0  0  0  0  0  0  0
    5.2960    1.4690   18.3540 C   0  0  0  0  0  0  0  0  0  0  0  0
    5.5450    1.9310   19.7990 C   0  0  0  0  0  0  0  0  0  0  0  0
    6.1820    0.9920   20.8170 C   0  0  0  0  0  0  0  0  0  0  0  0
    6.5610   -0.4200   20.3500 C   0  0  0  0  0  0  0  0  0  0  0  0
   10.1450    1.9680   22.3490 N   0  0  0  0  0  0  0  0  0  0  0  0
    9.9020    0.6570   22.1680 C   0  0  0  0  0  0  0  0  0  0  0  0
    8.6860    0.2140   21.7280 C   0  0  0  0  0  0  0  0  0  0  0  0
    6.6400   -5.6520   25.3650 O   0  0  0  0  0  0  0  0  0  0  0  0
    7.1860   -5.4930   24.0490 C   0  0  0  0  0  0  0  0  0  0  0  0
    8.5260   -5.7970   23.8650 C   0  0  0  0  0  0  0  0  0  0  0  0
    9.3930   -5.6800   24.9560 C   0  0  0  0  0  0  0  0  0  0  0  0
    9.4150   -4.3700   25.5470 N   0  0  0  0  0  0  0  0  0  0  0  0
    8.1890   -4.0710   26.2900 C   0  0  0  0  0  0  0  0  0  0  0  0
    7.3730   -5.1740   26.5060 C   0  0  0  0  0  0  0  0  0  0  0  0
    8.7860   -3.1190   23.5750 C   0  0  0  0  0  0  0  0  0  0  0  0
    9.7690   -3.3870   24.5580 C   0  0  0  0  0  0  0  0  0  0  0  0
  1  2  1  0
  2  3  2  0
  1  4  1  0
  5  7  1  0
  6  8  3  0
  7  8  1  0
  9 10  2  0
  4 11  1  0
 10 11  1  0
 11 12  2  0
  9 13  1  0
 12 13  1  0
 14 15  2  0
 15 16  1  0
 16 17  2  0
  5 18  1  0
 17 18  1  0
  2 19  1  0
 14 19  1  0
 18 19  2  0
 20 21  3  0
  1 22  1  0
 21 22  1  0
 23 24  1  0
 24 25  1  0
 25 26  1  0
 26 27  1  0
 27 28  1  0
 23 29  1  0
 28 29  1  0
  4 30  1  6
 27 31  1  0
 30 31  1  0
M  END
