x2764-x0072
     RDKit          3D

 25 26  0  0  0  0  0  0  0  0999 V2000
    8.3120   -1.2600   22.0450 N   0  0  0  0  0  0  0  0  0  0  0  0
    7.0410   -1.4510   21.3030 C   0  0  0  0  0  0  0  0  0  0  0  0
    6.3890   -2.4800   21.4280 O   0  0  0  0  0  0  0  0  0  0  0  0
    9.1600   -2.3550   22.5720 C   0  0  2  0  0  0  0  0  0  0  0  0
    6.5620    1.2480   22.0910 O   0  0  0  0  0  0  0  0  0  0  0  0
    7.8400    4.4630   22.5840 N   0  0  0  0  0  0  0  0  0  0  0  0
    7.6240    1.8150   22.3480 C   0  0  0  0  0  0  0  0  0  0  0  0
    7.7460    3.3100   22.4720 C   0  0  0  0  0  0  0  0  0  0  0  0
    6.7540   -4.9380   26.0430 C   0  0  0  0  0  0  0  0  0  0  0  0
    8.4220   -4.4150   26.0550 S   0  0  0  0  0  0  0  0  0  0  0  0
    9.0850   -5.5780   25.5260 O   0  0  0  0  0  0  0  0  0  0  0  0
    8.7320   -3.9030   27.3580 O   0  0  0  0  0  0  0  0  0  0  0  0
    8.5190   -3.1240   24.8970 N   0  0  0  0  0  0  0  0  0  0  0  0
    8.4000   -3.3280   23.4490 C   0  0  0  0  0  0  0  0  0  0  0  0
   12.8800   -1.3400   22.7820 N   0  0  0  0  0  0  0  0  0  0  0  0
   11.7300   -1.7540   22.1720 C   0  0  0  0  0  0  0  0  0  0  0  0
   10.5060   -1.9120   23.0860 C   0  0  0  0  0  0  0  0  0  0  0  0
   10.8930   -1.5800   24.3750 C   0  0  0  0  0  0  0  0  0  0  0  0
   12.5570   -1.1400   24.4000 S   0  0  0  0  0  0  0  0  0  0  0  0
    6.2220   -0.7740   19.0460 C   0  0  0  0  0  0  0  0  0  0  0  0
    5.6450    0.2140   18.0410 C   0  0  0  0  0  0  0  0  0  0  0  0
    5.3760    1.6230   18.4940 C   0  0  0  0  0  0  0  0  0  0  0  0
    5.7210    1.9390   19.9430 C   0  0  0  0  0  0  0  0  0  0  0  0
    6.2510    0.9610   20.7930 C   0  0  0  0  0  0  0  0  0  0  0  0
    6.4950   -0.3670   20.3740 C   0  0  0  0  0  0  0  0  0  0  0  0
  1  2  1  0
  2  3  2  0
  1  4  1  0
  5  7  1  0
  6  8  3  0
  7  8  1  0
  9 10  1  0
 10 11  2  0
 10 12  2  0
 10 13  1  0
  4 14  1  1
 13 14  1  0
 15 16  2  0
  4 17  1  0
 16 17  1  0
 17 18  2  0
 15 19  1  0
 18 19  1  0
 20 21  2  0
 21 22  1  0
 22 23  2  0
  5 24  1  0
 23 24  1  0
  2 25  1  0
 20 25  1  0
 24 25  2  0
M  END
