x2764-x0978
     RDKit          3D

 34 35  0  0  0  0  0  0  0  0999 V2000
    1.8760   -5.7130   23.0820 N   0  0  0  0  0  0  0  0  0  0  0  0
    1.9960   -8.4350   24.2930 C   0  0  0  0  0  0  0  0  0  0  0  0
    4.2170   -7.8490   24.9360 O   0  0  0  0  0  0  0  0  0  0  0  0
    2.9610   -7.2920   24.5580 C   0  0  1  0  0  0  0  0  0  0  0  0
    5.4830   -5.7520   22.4060 N   0  0  0  0  0  0  0  0  0  0  0  0
    0.6920   -7.5090   22.0780 O   0  0  0  0  0  0  0  0  0  0  0  0
    3.1330   -6.4360   23.3120 C   0  0  2  0  0  0  0  0  0  0  0  0
    4.5910   -4.7450   24.3800 O   0  0  0  0  0  0  0  0  0  0  0  0
    0.6970   -6.3640   22.5200 C   0  0  0  0  0  0  0  0  0  0  0  0
   -0.5270   -5.4670   22.5400 C   0  0  0  0  0  0  0  0  0  0  0  0
    4.4490   -5.5370   23.4570 C   0  0  0  0  0  0  0  0  0  0  0  0
    6.5020   -4.7600   21.8950 C   0  0  1  0  0  0  0  0  0  0  0  0
    6.4760   -4.9440   20.3690 C   0  0  0  0  0  0  0  0  0  0  0  0
    5.6400   -6.1340   19.8900 C   0  0  0  0  0  0  0  0  0  0  0  0
    8.5970   -1.6900   21.5080 N   0  0  0  0  0  0  0  0  0  0  0  0
    7.2190   -1.6370   21.2450 C   0  0  0  0  0  0  0  0  0  0  0  0
    6.2550   -2.3640   21.7100 N   0  0  0  0  0  0  0  0  0  0  0  0
    9.1990   -2.4010   22.6360 C   0  0  0  0  0  0  0  0  0  0  0  0
    7.0360    1.1560   21.9060 O   0  0  0  0  0  0  0  0  0  0  0  0
    7.0900    4.0490   23.7250 N   0  0  0  0  0  0  0  0  0  0  0  0
    7.8580    2.3300   21.7790 C   0  0  0  0  0  0  0  0  0  0  0  0
    7.4430    3.2960   22.9060 C   0  0  0  0  0  0  0  0  0  0  0  0
    6.4020   -3.3550   22.5920 C   0  0  0  0  0  0  0  0  0  0  0  0
   12.8220   -1.7870   22.4060 N   0  0  0  0  0  0  0  0  0  0  0  0
   11.5480   -1.9840   21.9500 C   0  0  0  0  0  0  0  0  0  0  0  0
   10.5830   -2.1770   22.9160 C   0  0  0  0  0  0  0  0  0  0  0  0
   11.1490   -2.1280   24.1660 C   0  0  0  0  0  0  0  0  0  0  0  0
   12.8410   -1.8490   24.0910 S   0  0  0  0  0  0  0  0  0  0  0  0
    6.2220   -1.0260   19.0550 C   0  0  0  0  0  0  0  0  0  0  0  0
    5.7020   -0.1270   18.1390 C   0  0  0  0  0  0  0  0  0  0  0  0
    5.6290    1.2110   18.4880 C   0  0  0  0  0  0  0  0  0  0  0  0
    6.0840    1.6290   19.7510 C   0  0  0  0  0  0  0  0  0  0  0  0
    6.6160    0.7210   20.6790 C   0  0  0  0  0  0  0  0  0  0  0  0
    6.6770   -0.6150   20.3060 C   0  0  0  0  0  0  0  0  0  0  0  0
  4  2  1  6
  3  4  1  0
  7  1  1  1
  4  7  1  0
  1  9  1  0
  6  9  2  0
  9 10  1  0
  5 11  1  0
  7 11  1  0
  8 11  2  0
  5 12  1  0
 12 13  1  6
 13 14  2  3
 15 16  1  0
 16 17  2  3
 15 18  1  0
 19 21  1  0
 20 22  3  0
 21 22  1  0
 12 23  1  0
 17 23  1  0
 24 25  2  0
 18 26  1  0
 25 26  1  0
 26 27  2  0
 24 28  1  0
 27 28  1  0
 29 30  2  0
 30 31  1  0
 31 32  2  0
 19 33  1  0
 32 33  1  0
 16 34  1  0
 29 34  1  0
 33 34  2  0
M  END
