x2764-x0305
     RDKit          3D

 26 27  0  0  0  0  0  0  0  0999 V2000
    8.2040   -1.3730   21.9050 N   0  0  0  0  0  0  0  0  0  0  0  0
    6.9130   -1.5010   21.2180 C   0  0  0  0  0  0  0  0  0  0  0  0
    6.2250   -2.5060   21.3380 O   0  0  0  0  0  0  0  0  0  0  0  0
    8.8170   -2.3910   22.7700 C   0  0  0  0  0  0  0  0  0  0  0  0
    6.4760    1.3200   22.1170 O   0  0  0  0  0  0  0  0  0  0  0  0
    7.8400    4.4820   22.5470 N   0  0  0  0  0  0  0  0  0  0  0  0
    7.5700    1.8340   22.3580 C   0  0  0  0  0  0  0  0  0  0  0  0
    7.7250    3.3300   22.4570 C   0  0  0  0  0  0  0  0  0  0  0  0
   13.3560   -1.4730   21.2880 C   0  0  0  0  0  0  0  0  0  0  0  0
   14.1630   -1.2120   20.1840 N   0  0  0  0  0  0  0  0  0  0  0  0
   12.3950   -1.5210   22.2760 N   0  0  0  0  0  0  0  0  0  0  0  0
   11.2440   -1.9650   21.9060 C   0  0  0  0  0  0  0  0  0  0  0  0
   10.2240   -1.9680   22.9440 C   0  0  0  0  0  0  0  0  0  0  0  0
   11.0370   -1.4280   24.0800 C   0  0  0  0  0  0  0  0  0  0  0  0
   12.7050   -1.0080   23.8310 S   0  0  0  0  0  0  0  0  0  0  0  0
    6.1440   -0.7490   19.0250 C   0  0  0  0  0  0  0  0  0  0  0  0
    5.6320    0.1280   18.0110 C   0  0  0  0  0  0  0  0  0  0  0  0
    5.3590    1.5720   18.4220 C   0  0  0  0  0  0  0  0  0  0  0  0
    5.6560    1.9850   19.8580 C   0  0  0  0  0  0  0  0  0  0  0  0
    6.2040    0.9190   20.8020 C   0  0  0  0  0  0  0  0  0  0  0  0
    6.4140   -0.3850   20.3590 C   0  0  0  0  0  0  0  0  0  0  0  0
    8.0120   -0.1540   27.6400 C   0  0  0  0  0  0  0  0  0  0  0  0
    8.3340   -0.1470   26.2980 C   0  0  0  0  0  0  0  0  0  0  0  0
    9.7480    0.2130   26.0830 N   0  0  0  0  0  0  0  0  0  0  0  0
   11.6720   -0.9340   25.1710 C   0  0  0  0  0  0  0  0  0  0  0  0
   10.3610   -0.4720   24.9330 C   0  0  0  0  0  0  0  0  0  0  0  0
  1  2  1  0
  2  3  2  0
  1  4  1  0
  5  7  1  0
  6  8  3  0
  7  8  1  0
  9 10  3  0
  9 11  1  0
 11 12  1  0
  4 13  1  0
 12 13  2  0
 13 14  1  0
 11 15  1  0
 14 15  2  0
 16 17  2  0
 17 18  1  0
 18 19  2  0
  5 20  1  0
 19 20  1  0
  2 21  1  0
 16 21  1  0
 20 21  2  0
 22 23  1  0
 23 24  1  0
 15 25  1  0
 24 26  1  0
 25 26  1  0
M  END
