x2764-x0354
     RDKit          3D

 32 34  0  0  0  0  0  0  0  0999 V2000
    8.6580   -1.0930   21.3880 N   0  0  0  0  0  0  0  0  0  0  0  0
    7.2680   -1.2990   20.9350 C   0  0  0  0  0  0  0  0  0  0  0  0
    6.6230   -2.3070   21.2060 O   0  0  0  0  0  0  0  0  0  0  0  0
    9.0210   -1.5200   22.7400 C   0  0  2  0  0  0  0  0  0  0  0  0
    6.4140    1.4200   22.0700 O   0  0  0  0  0  0  0  0  0  0  0  0
    7.9100    4.5180   22.5960 N   0  0  0  0  0  0  0  0  0  0  0  0
    7.5360    1.9060   22.2170 C   0  0  0  0  0  0  0  0  0  0  0  0
    7.7530    3.3800   22.4260 C   0  0  0  0  0  0  0  0  0  0  0  0
   12.8780   -1.7160   22.5340 N   0  0  0  0  0  0  0  0  0  0  0  0
   11.6360   -1.7210   22.0700 C   0  0  0  0  0  0  0  0  0  0  0  0
   10.4790   -1.5540   23.0150 C   0  0  0  0  0  0  0  0  0  0  0  0
   11.1500   -1.4180   24.4080 C   0  0  0  0  0  0  0  0  0  0  0  0
   12.8470   -1.5150   24.1970 S   0  0  0  0  0  0  0  0  0  0  0  0
    6.3400   -0.5120   18.8080 C   0  0  0  0  0  0  0  0  0  0  0  0
    5.6940    0.4000   17.9750 C   0  0  0  0  0  0  0  0  0  0  0  0
    5.2290    1.6990   18.3860 C   0  0  0  0  0  0  0  0  0  0  0  0
    5.4800    2.0830   19.8520 C   0  0  0  0  0  0  0  0  0  0  0  0
    6.1850    1.0900   20.7590 C   0  0  0  0  0  0  0  0  0  0  0  0
    6.6000   -0.2420   20.1550 C   0  0  0  0  0  0  0  0  0  0  0  0
    7.7270   -2.1230   25.2300 N   0  0  0  0  0  0  0  0  0  0  0  0
    7.3660   -0.5210   27.4390 O   0  0  0  0  0  0  0  0  0  0  0  0
    8.4970   -1.0710   25.5840 C   0  0  0  0  0  0  0  0  0  0  0  0
    8.1610   -0.0010   26.3790 C   0  0  0  0  0  0  0  0  0  0  0  0
    5.7120    3.7680   30.9730 C   0  0  0  0  0  0  0  0  0  0  0  0
    7.6310    1.7330   28.4050 C   0  0  0  0  0  0  0  0  0  0  0  0
    7.2420    2.7880   29.2610 C   0  0  0  0  0  0  0  0  0  0  0  0
    6.1070    2.6290   30.0740 C   0  0  0  0  0  0  0  0  0  0  0  0
    5.4280    1.4180   29.9830 C   0  0  0  0  0  0  0  0  0  0  0  0
    5.7800    0.3640   29.1590 C   0  0  0  0  0  0  0  0  0  0  0  0
    6.8810    0.4030   28.3080 C   0  0  0  0  0  0  0  0  0  0  0  0
    8.2860   -2.8090   23.0660 C   0  0  0  0  0  0  0  0  0  0  0  0
    8.4290   -3.1080   24.4040 C   0  0  0  0  0  0  0  0  0  0  0  0
  1  2  1  0
  2  3  2  0
  1  4  1  0
  5  7  1  0
  6  8  3  0
  7  8  1  0
  9 10  2  0
  4 11  1  0
 10 11  1  0
 11 12  2  0
  9 13  1  0
 12 13  1  0
 14 15  2  0
 15 16  1  0
 16 17  2  0
  5 18  1  0
 17 18  1  0
  2 19  1  0
 14 19  1  0
 18 19  2  0
 20 22  2  3
 21 23  1  0
 22 23  1  0
 25 26  2  0
 24 27  1  0
 26 27  1  0
 27 28  2  0
 28 29  1  0
 21 30  1  0
 25 30  1  0
 29 30  2  0
  4 31  1  6
 20 32  1  0
 31 32  1  0
M  END
