x2764-x0731
     RDKit          3D

 37 40  0  0  0  0  0  0  0  0999 V2000
    7.6810   -1.8710   22.2380 N   0  0  0  0  0  0  0  0  0  0  0  0
    7.1660   -2.0480   20.8280 C   0  0  0  0  0  0  0  0  0  0  0  0
    6.7810   -3.4650   19.9930 C   0  0  0  0  0  0  0  0  0  0  0  0
    8.8920   -2.6760   22.5510 C   0  0  0  0  0  0  0  0  0  0  0  0
    7.0170    0.7690   21.9970 O   0  0  0  0  0  0  0  0  0  0  0  0
    7.5960    4.1730   22.5930 N   0  0  0  0  0  0  0  0  0  0  0  0
    8.1110    1.5790   22.1060 C   0  0  0  0  0  0  0  0  0  0  0  0
    7.7900    3.0440   22.3760 C   0  0  0  0  0  0  0  0  0  0  0  0
    0.9040   -1.0070   26.0320 C   0  0  0  0  0  0  0  0  0  0  0  0
    6.3140   -4.9940   26.8420 O   0  0  0  0  0  0  0  0  0  0  0  0
    4.5390   -6.5510   26.0080 O   0  0  0  0  0  0  0  0  0  0  0  0
    5.6850   -5.4760   20.0840 O   0  0  0  0  0  0  0  0  0  0  0  0
    6.5040   -4.7640   20.7030 C   0  0  0  0  0  0  0  0  0  0  0  0
    5.2900   -5.3240   25.8820 S   0  0  0  0  0  0  0  0  0  0  0  0
   12.5630   -1.4480   22.4220 N   0  0  0  0  0  0  0  0  0  0  0  0
   11.3000   -2.0010   21.9490 C   0  0  0  0  0  0  0  0  0  0  0  0
   10.2800   -2.0950   22.8620 C   0  0  0  0  0  0  0  0  0  0  0  0
   10.7160   -1.6030   24.1210 C   0  0  0  0  0  0  0  0  0  0  0  0
   12.3570   -1.0870   24.0280 S   0  0  0  0  0  0  0  0  0  0  0  0
    6.3450   -0.9740   18.7880 C   0  0  0  0  0  0  0  0  0  0  0  0
    5.8020    0.2070   17.9990 C   0  0  0  0  0  0  0  0  0  0  0  0
    5.7200    1.5410   18.6800 C   0  0  0  0  0  0  0  0  0  0  0  0
    6.1510    1.6390   19.9860 C   0  0  0  0  0  0  0  0  0  0  0  0
    6.6470    0.5340   20.7000 C   0  0  0  0  0  0  0  0  0  0  0  0
    6.7420   -0.7690   20.1230 C   0  0  0  0  0  0  0  0  0  0  0  0
    1.9900   -2.0620   25.9770 C   0  0  0  0  0  0  0  0  0  0  0  0
    1.8020   -3.3440   25.4260 C   0  0  0  0  0  0  0  0  0  0  0  0
    2.8530   -4.2540   25.4360 C   0  0  0  0  0  0  0  0  0  0  0  0
    4.1120   -3.9960   25.9590 C   0  0  0  0  0  0  0  0  0  0  0  0
    4.3480   -2.7370   26.5030 C   0  0  0  0  0  0  0  0  0  0  0  0
    3.3710   -1.7320   26.5530 C   0  0  0  0  0  0  0  0  0  0  0  0
    7.0470   -5.2240   21.8760 N   0  0  0  0  0  0  0  0  0  0  0  0
    7.5970   -4.3920   22.9360 C   0  0  0  0  0  0  0  0  0  0  0  0
    6.6130   -4.0010   23.8290 C   0  0  0  0  0  0  0  0  0  0  0  0
    5.9110   -5.2170   24.3330 N   0  0  0  0  0  0  0  0  0  0  0  0
    5.3760   -6.1100   23.2590 C   0  0  0  0  0  0  0  0  0  0  0  0
    6.3900   -6.4350   22.3630 C   0  0  0  0  0  0  0  0  0  0  0  0
  1  2  1  0
  2  3  2  3
  1  4  1  0
  5  7  1  0
  6  8  3  0
  7  8  1  0
  3 13  1  0
 12 13  2  0
 10 14  2  0
 11 14  2  0
 15 16  2  0
  4 17  1  0
 16 17  1  0
 17 18  2  0
 15 19  1  0
 18 19  1  0
 20 21  2  0
 21 22  1  0
 22 23  2  0
  5 24  1  0
 23 24  1  0
  2 25  1  0
 20 25  1  0
 24 25  2  0
  9 26  1  0
 26 27  2  0
 27 28  1  0
 14 29  1  0
 28 29  2  0
 29 30  1  0
 26 31  1  0
 30 31  2  0
 13 32  1  0
 32 33  1  0
 33 34  1  0
 14 35  1  0
 34 35  1  0
 35 36  1  0
 32 37  1  0
 36 37  1  0
M  END
