x2764-x0734
     RDKit          3D

 37 41  0  0  0  0  0  0  0  0999 V2000
    8.3520   -0.9020   22.0750 N   0  0  0  0  0  0  0  0  0  0  0  0
    7.1200   -1.0950   21.2590 C   0  0  0  0  0  0  0  0  0  0  0  0
    6.3060   -2.3140   21.0710 N   0  0  0  0  0  0  0  0  0  0  0  0
    8.6920   -1.7910   23.2110 C   0  0  2  0  0  0  0  0  0  0  0  0
    6.2860    1.5550   22.1670 O   0  0  0  0  0  0  0  0  0  0  0  0
    7.8180    4.5460   22.5640 N   0  0  0  0  0  0  0  0  0  0  0  0
    7.5900    1.9000   22.3620 C   0  0  0  0  0  0  0  0  0  0  0  0
    7.7210    3.3940   22.4700 C   0  0  0  0  0  0  0  0  0  0  0  0
    5.3850   -4.8160   26.3200 N   0  0  0  0  0  0  0  0  0  0  0  0
    4.7820   -5.7130   25.7080 O   0  0  0  0  0  0  0  0  0  0  0  0
    4.8500   -3.7960   26.7840 O   0  0  0  0  0  0  0  0  0  0  0  0
    5.5040   -5.0450   19.9680 O   0  0  0  0  0  0  0  0  0  0  0  0
    6.2460   -4.0960   20.1340 C   0  0  0  0  0  0  0  0  0  0  0  0
    7.0090   -3.3440   19.0620 C   0  0  0  0  0  0  0  0  0  0  0  0
   12.5240   -1.8100   22.6910 N   0  0  0  0  0  0  0  0  0  0  0  0
   11.2530   -1.7650   22.3080 C   0  0  0  0  0  0  0  0  0  0  0  0
   10.1920   -1.8520   23.4290 C   0  0  0  0  0  0  0  0  0  0  0  0
   10.8660   -1.9710   24.6250 C   0  0  0  0  0  0  0  0  0  0  0  0
   12.5650   -1.9600   24.3460 S   0  0  0  0  0  0  0  0  0  0  0  0
    6.3010   -0.4120   19.0500 C   0  0  0  0  0  0  0  0  0  0  0  0
    5.6440    0.5190   18.0420 C   0  0  0  0  0  0  0  0  0  0  0  0
    5.1990    1.8660   18.5530 C   0  0  0  0  0  0  0  0  0  0  0  0
    5.4640    2.1680   20.0330 C   0  0  0  0  0  0  0  0  0  0  0  0
    6.0810    1.2210   20.8570 C   0  0  0  0  0  0  0  0  0  0  0  0
    6.4820   -0.0250   20.3990 C   0  0  0  0  0  0  0  0  0  0  0  0
    6.8410   -4.8590   26.3170 C   0  0  0  0  0  0  0  0  0  0  0  0
    7.6040   -4.3550   25.2610 C   0  0  0  0  0  0  0  0  0  0  0  0
    9.0050   -4.4380   25.3280 C   0  0  0  0  0  0  0  0  0  0  0  0
    9.6170   -5.0150   26.4470 C   0  0  0  0  0  0  0  0  0  0  0  0
    8.8330   -5.5070   27.4940 C   0  0  0  0  0  0  0  0  0  0  0  0
    7.4380   -5.4370   27.4430 C   0  0  0  0  0  0  0  0  0  0  0  0
    6.4640   -3.5590   21.4910 C   0  0  2  0  0  0  0  0  0  0  0  0
    5.4850   -4.0690   22.3410 C   0  0  0  0  0  0  0  0  0  0  0  0
    5.8920   -4.5460   23.6010 C   0  0  0  0  0  0  0  0  0  0  0  0
    7.0520   -3.7650   24.1150 N   0  0  0  0  0  0  0  0  0  0  0  0
    7.7030   -3.0310   23.1540 C   0  0  2  0  0  0  0  0  0  0  0  0
    7.8320   -3.7830   22.0470 C   0  0  0  0  0  0  0  0  0  0  0  0
  1  2  1  0
  2  3  2  0
  1  4  1  0
  5  7  1  0
  6  8  3  0
  7  8  1  0
  9 10  2  0
  9 11  1  0
 12 13  2  0
 13 14  1  0
 15 16  2  0
  4 17  1  6
 16 17  1  0
 17 18  2  0
 15 19  1  0
 18 19  1  0
 20 21  2  0
 21 22  1  0
 22 23  2  0
  5 24  1  0
 23 24  1  0
  2 25  1  0
 20 25  1  0
 24 25  2  0
  9 26  1  0
 26 27  2  0
 27 28  1  0
 28 29  2  0
 29 30  1  0
 26 31  1  0
 30 31  2  0
  3 32  1  0
 32 13  1  6
 32 33  1  0
 33 34  1  0
 27 35  1  0
 34 35  1  0
  4 36  1  0
 36 35  1  1
 32 37  1  0
 36 37  1  0
M  CHG  2   9   1  11  -1
M  END
