x2764-x0426
     RDKit          3D

 31 33  0  0  0  0  0  0  0  0999 V2000
    8.6930   -1.1700   21.5410 N   0  0  0  0  0  0  0  0  0  0  0  0
    7.3310   -1.3750   21.0160 C   0  0  0  0  0  0  0  0  0  0  0  0
    6.7110   -2.4050   21.2610 O   0  0  0  0  0  0  0  0  0  0  0  0
    9.2060   -2.1040   22.5580 C   0  0  0  0  0  0  0  0  0  0  0  0
    6.2230    1.0030   22.1720 O   0  0  0  0  0  0  0  0  0  0  0  0
    7.7990    4.1350   22.5130 N   0  0  0  0  0  0  0  0  0  0  0  0
    7.3380    1.4930   22.4350 C   0  0  0  0  0  0  0  0  0  0  0  0
    7.5910    2.9890   22.4710 C   0  0  0  0  0  0  0  0  0  0  0  0
    2.1420    1.9050   23.6860 C   0  0  0  0  0  0  0  0  0  0  0  0
    2.1880    0.6760   23.7280 O   0  0  0  0  0  0  0  0  0  0  0  0
    3.0730    2.6510   22.8530 N   0  0  0  0  0  0  0  0  0  0  0  0
    4.4280    2.2860   22.4580 C   0  0  0  0  0  0  0  0  0  0  0  0
    4.7600    2.8280   21.0130 C   0  0  0  0  0  0  0  0  0  0  0  0
    2.7480    4.2990   25.1750 F   0  0  0  0  0  0  0  0  0  0  0  0
   12.8520   -1.5930   22.4940 N   0  0  0  0  0  0  0  0  0  0  0  0
   11.6400   -1.8470   22.0130 C   0  0  0  0  0  0  0  0  0  0  0  0
   10.6120   -1.8370   22.9190 C   0  0  0  0  0  0  0  0  0  0  0  0
   11.0550   -1.5470   24.2320 C   0  0  0  0  0  0  0  0  0  0  0  0
   12.7470   -1.3270   24.1390 S   0  0  0  0  0  0  0  0  0  0  0  0
    6.5100   -0.5890   18.8400 C   0  0  0  0  0  0  0  0  0  0  0  0
    5.7300    0.4390   18.0160 C   0  0  0  0  0  0  0  0  0  0  0  0
    5.1300    1.6200   18.7460 C   0  0  0  0  0  0  0  0  0  0  0  0
    5.3350    1.7060   20.1120 C   0  0  0  0  0  0  0  0  0  0  0  0
    6.0700    0.7730   20.8260 C   0  0  0  0  0  0  0  0  0  0  0  0
    6.6240   -0.3490   20.2290 C   0  0  0  0  0  0  0  0  0  0  0  0
    1.4990    3.8190   25.2050 C   0  0  0  0  0  0  0  0  0  0  0  0
    1.1450    2.6300   24.4830 C   0  0  0  0  0  0  0  0  0  0  0  0
   -0.1780    2.1550   24.5380 C   0  0  0  0  0  0  0  0  0  0  0  0
   -1.1310    2.8210   25.2740 C   0  0  0  0  0  0  0  0  0  0  0  0
   -0.8760    3.9630   25.9890 C   0  0  0  0  0  0  0  0  0  0  0  0
    0.3910    4.5310   26.0170 C   0  0  0  0  0  0  0  0  0  0  0  0
  1  2  1  0
  2  3  2  0
  1  4  1  0
  5  7  1  0
  6  8  3  0
  7  8  1  0
  9 10  2  0
  9 11  1  0
 11 12  1  0
 12 13  1  0
 15 16  2  0
  4 17  1  0
 16 17  1  0
 17 18  2  0
 15 19  1  0
 18 19  1  0
 20 21  2  0
 21 22  1  0
 13 23  1  0
 22 23  2  0
  5 24  1  0
 23 24  1  0
  2 25  1  0
 20 25  1  0
 24 25  2  0
 14 26  1  0
  9 27  1  0
 26 27  2  0
 27 28  1  0
 28 29  2  0
 29 30  1  0
 26 31  1  0
 30 31  2  0
M  END
