x2779-x2600
     RDKit          3D

 28 31  0  0  0  0  0  0  0  0999 V2000
   13.6100   -2.8200   20.6860 N   0  0  0  0  0  0  0  0  0  0  0  0
    7.8800   -0.4980   21.5930 C   0  0  1  0  0  0  0  0  0  0  0  0
    8.5230   -0.0570   20.7030 O   0  0  0  0  0  0  0  0  0  0  0  0
    8.7750   -0.8780   22.7380 C   0  0  2  0  0  0  0  0  0  0  0  0
    6.6360   -0.0160   21.6600 N   0  0  0  0  0  0  0  0  0  0  0  0
   13.1410   -1.8660   21.5160 C   0  0  0  0  0  0  0  0  0  0  0  0
    7.3680   -2.9880   18.7750 C   0  0  0  0  0  0  0  0  0  0  0  0
    5.4880   -4.0770   19.7340 O   0  0  0  0  0  0  0  0  0  0  0  0
    6.3790   -3.2180   19.8870 C   0  0  0  0  0  0  0  0  0  0  0  0
    9.7000   -2.9550   23.8760 C   0  0  0  0  0  0  0  0  0  0  0  0
    6.2970    0.5630   17.9180 N   0  0  0  0  0  0  0  0  0  0  0  0
    6.7830    0.1190   19.0850 C   0  0  0  0  0  0  0  0  0  0  0  0
    6.1600    0.4040   20.4680 C   0  0  0  0  0  0  0  0  0  0  0  0
    4.9030    1.2400   20.4550 C   0  0  0  0  0  0  0  0  0  0  0  0
    4.4250    1.6990   19.0600 C   0  0  0  0  0  0  0  0  0  0  0  0
    5.1810    1.3100   17.9340 C   0  0  0  0  0  0  0  0  0  0  0  0
   10.6350    0.6880   23.8380 C   0  0  0  0  0  0  0  0  0  0  0  0
   12.0300    0.8560   23.8320 C   0  0  0  0  0  0  0  0  0  0  0  0
   12.9460    0.0800   23.1100 C   0  0  0  0  0  0  0  0  0  0  0  0
   12.4440   -0.9400   22.3400 C   0  0  0  0  0  0  0  0  0  0  0  0
   11.1220   -1.1220   22.3230 C   0  0  0  0  0  0  0  0  0  0  0  0
   10.1200   -0.3290   23.0610 C   0  0  0  0  0  0  0  0  0  0  0  0
    6.5300   -2.4740   21.0680 N   0  0  0  0  0  0  0  0  0  0  0  0
    7.6660   -1.9360   21.4110 C   0  0  2  0  0  0  0  0  0  0  0  0
    8.7080   -2.6840   21.7260 C   0  0  0  0  0  0  0  0  0  0  0  0
    8.5650   -2.4270   23.0480 C   0  0  2  0  0  0  0  0  0  0  0  0
    7.2170   -2.7700   23.3890 C   0  0  0  0  0  0  0  0  0  0  0  0
    6.2740   -3.0400   22.2860 C   0  0  0  0  0  0  0  0  0  0  0  0
  2  3  1  6
  2  4  1  0
  2  5  1  0
  1  6  3  0
  7  9  1  0
  8  9  2  0
 11 12  2  0
  5 13  1  0
 12 13  1  0
 13 14  2  0
 14 15  1  0
 11 16  1  0
 15 16  2  0
 17 18  2  0
 18 19  1  0
  6 20  1  0
 19 20  2  0
 20 21  1  0
  4 22  1  6
 17 22  1  0
 21 22  2  0
  9 23  1  0
  2 24  1  0
 24 23  1  1
 24 25  1  0
  4 26  1  0
 26 10  1  1
 25 26  1  0
 26 27  1  0
 23 28  1  0
 27 28  1  0
M  END
