x2776-x2694
     RDKit          3D

 35 37  0  0  0  0  0  0  0  0999 V2000
    6.9800   -1.3530   21.4720 N   0  0  0  0  0  0  0  0  0  0  0  0
    6.9360   -4.5840   20.6840 C   0  0  0  0  0  0  0  0  0  0  0  0
    5.0400   -3.3140   21.1680 O   0  0  0  0  0  0  0  0  0  0  0  0
    6.8180   -3.3900   21.6240 C   0  0  0  0  0  0  0  0  0  0  0  0
    7.8360    1.8950   22.8630 N   0  0  0  0  0  0  0  0  0  0  0  0
    8.9930    1.1630   21.0560 O   0  0  0  0  0  0  0  0  0  0  0  0
    5.8310   -2.2740   21.2720 C   0  0  0  0  0  0  0  0  0  0  0  0
   10.7800    6.5900   23.8780 O   0  0  0  0  0  0  0  0  0  0  0  0
    6.7600    0.1440   21.3620 C   0  0  1  0  0  0  0  0  0  0  0  0
   13.6990   -2.5390   24.1740 O   0  0  0  0  0  0  0  0  0  0  0  0
    7.9890    1.0850   21.7360 C   0  0  0  0  0  0  0  0  0  0  0  0
   10.5340    1.7750   23.8830 C   0  0  0  0  0  0  0  0  0  0  0  0
   11.8230    6.4490   24.8430 C   0  0  0  0  0  0  0  0  0  0  0  0
   12.6150   -1.6970   23.8080 C   0  0  1  0  0  0  0  0  0  0  0  0
   12.9910   -0.2510   23.6070 C   0  0  0  0  0  0  0  0  0  0  0  0
   13.4960   -3.0190   25.4940 C   0  0  0  0  0  0  0  0  0  0  0  0
   11.9080   -2.1020   22.5240 C   0  0  0  0  0  0  0  0  0  0  0  0
    6.3210    0.6900   17.7160 N   0  0  0  0  0  0  0  0  0  0  0  0
    5.2190    1.4320   17.6720 C   0  0  0  0  0  0  0  0  0  0  0  0
    4.4540    1.8330   18.9010 C   0  0  0  0  0  0  0  0  0  0  0  0
    4.9250    1.4200   20.1300 C   0  0  0  0  0  0  0  0  0  0  0  0
    6.0720    0.6670   20.1380 C   0  0  0  0  0  0  0  0  0  0  0  0
    6.7090    0.3340   18.9460 C   0  0  0  0  0  0  0  0  0  0  0  0
    9.8480    3.0840   23.5940 C   0  0  0  0  0  0  0  0  0  0  0  0
   10.5720    4.2610   23.8380 C   0  0  0  0  0  0  0  0  0  0  0  0
    9.9890    5.4970   23.5970 C   0  0  0  0  0  0  0  0  0  0  0  0
    8.6770    5.5460   23.1000 C   0  0  0  0  0  0  0  0  0  0  0  0
    7.9490    4.3780   22.8490 C   0  0  0  0  0  0  0  0  0  0  0  0
    8.5240    3.1310   23.0950 C   0  0  0  0  0  0  0  0  0  0  0  0
    9.4150   -1.7550   21.9500 C   0  0  0  0  0  0  0  0  0  0  0  0
   10.4690   -1.8840   22.8560 C   0  0  0  0  0  0  0  0  0  0  0  0
   10.1810   -1.7900   24.2080 C   0  0  0  0  0  0  0  0  0  0  0  0
    8.8990   -1.5720   24.6550 C   0  0  0  0  0  0  0  0  0  0  0  0
    7.8540   -1.4440   23.7670 C   0  0  0  0  0  0  0  0  0  0  0  0
    8.0920   -1.5310   22.3950 C   0  0  0  0  0  0  0  0  0  0  0  0
  2  4  1  0
  1  7  1  0
  3  7  2  0
  4  7  1  0
  1  9  1  0
  5 11  1  0
  6 11  2  0
  9 11  1  6
  8 13  1  0
 10 14  1  0
 14 15  1  6
 10 16  1  0
 14 17  1  0
 18 19  2  0
 19 20  1  0
 20 21  2  0
  9 22  1  0
 21 22  1  0
 18 23  1  0
 22 23  2  0
 12 24  1  0
 24 25  2  0
  8 26  1  0
 25 26  1  0
 26 27  2  0
 27 28  1  0
  5 29  1  0
 24 29  1  0
 28 29  2  0
 17 31  1  0
 30 31  2  0
 31 32  1  0
 32 33  2  0
 33 34  1  0
  1 35  1  0
 30 35  1  0
 34 35  2  0
M  END
