x2776-x0786
     RDKit          3D

 48 52  0  0  0  0  0  0  0  0999 V2000
    6.9290   -1.4780   21.6300 N   0  0  0  0  0  0  0  0  0  0  0  0
    6.8900   -5.0330   20.8120 C   0  0  0  0  0  0  0  0  0  0  0  0
    4.8520   -2.9650   20.9930 O   0  0  0  0  0  0  0  0  0  0  0  0
    6.7510   -3.9730   21.8820 C   0  0  1  0  0  0  0  0  0  0  0  0
    7.7710    1.8080   22.9080 N   0  0  0  0  0  0  0  0  0  0  0  0
    8.7930    1.1410   20.9970 O   0  0  0  0  0  0  0  0  0  0  0  0
    6.0860   -2.7060   21.4520 C   0  0  0  0  0  0  0  0  0  0  0  0
   10.7550    6.5280   23.8330 O   0  0  0  0  0  0  0  0  0  0  0  0
    6.6210    0.0120   21.4330 C   0  0  1  0  0  0  0  0  0  0  0  0
   12.3250   -2.9230   24.8890 O   0  0  0  0  0  0  0  0  0  0  0  0
    7.8420    1.0110   21.7580 C   0  0  0  0  0  0  0  0  0  0  0  0
   10.5220    1.7130   23.8880 C   0  0  0  0  0  0  0  0  0  0  0  0
   11.7980    6.4220   24.8050 C   0  0  0  0  0  0  0  0  0  0  0  0
   11.9460   -1.5980   24.5270 C   0  0  1  0  0  0  0  0  0  0  0  0
   13.0400   -0.9870   23.6610 C   0  0  0  0  0  0  0  0  0  0  0  0
   13.6270   -2.9710   25.4160 C   0  0  0  0  0  0  0  0  0  0  0  0
    3.7730   -8.0680   24.8210 O   0  0  0  0  0  0  0  0  0  0  0  0
    3.3550   -7.0280   24.3190 C   0  0  0  0  0  0  0  0  0  0  0  0
    6.3540    0.6040   17.7680 N   0  0  0  0  0  0  0  0  0  0  0  0
    5.2340    1.3030   17.7010 C   0  0  0  0  0  0  0  0  0  0  0  0
    4.3710    1.6630   18.8740 C   0  0  0  0  0  0  0  0  0  0  0  0
    4.7850    1.2450   20.1250 C   0  0  0  0  0  0  0  0  0  0  0  0
    5.9660    0.5300   20.1790 C   0  0  0  0  0  0  0  0  0  0  0  0
    6.6890    0.2360   19.0130 C   0  0  0  0  0  0  0  0  0  0  0  0
    9.8150    3.0100   23.5960 C   0  0  0  0  0  0  0  0  0  0  0  0
   10.5320    4.1930   23.8130 C   0  0  0  0  0  0  0  0  0  0  0  0
    9.9580    5.4310   23.5750 C   0  0  0  0  0  0  0  0  0  0  0  0
    8.6370    5.4730   23.0990 C   0  0  0  0  0  0  0  0  0  0  0  0
    7.9050    4.3010   22.8730 C   0  0  0  0  0  0  0  0  0  0  0  0
    8.4750    3.0470   23.1190 C   0  0  0  0  0  0  0  0  0  0  0  0
    9.3660   -2.0690   21.7850 C   0  0  0  0  0  0  0  0  0  0  0  0
   10.5850   -2.0990   22.4720 C   0  0  0  0  0  0  0  0  0  0  0  0
   10.6460   -1.6070   23.7700 C   0  0  0  0  0  0  0  0  0  0  0  0
    9.5040   -1.1070   24.3760 C   0  0  0  0  0  0  0  0  0  0  0  0
    8.2860   -1.0740   23.6900 C   0  0  0  0  0  0  0  0  0  0  0  0
    8.2020   -1.5500   22.3670 C   0  0  0  0  0  0  0  0  0  0  0  0
    5.9150   -4.4290   23.0510 C   0  0  0  0  0  0  0  0  0  0  0  0
    5.0720   -5.5440   23.0370 C   0  0  0  0  0  0  0  0  0  0  0  0
    4.2620   -5.8620   24.3030 C   0  0  0  0  0  0  0  0  0  0  0  0
    4.4000   -5.0390   25.4110 C   0  0  0  0  0  0  0  0  0  0  0  0
    5.2630   -3.9450   25.3590 C   0  0  0  0  0  0  0  0  0  0  0  0
    6.0020   -3.6420   24.2150 C   0  0  0  0  0  0  0  0  0  0  0  0
    1.5080   -5.6050   23.3770 C   0  0  0  0  0  0  0  0  0  0  0  0
    0.7110   -5.0650   24.3890 C   0  0  0  0  0  0  0  0  0  0  0  0
   -0.7570   -6.0260   24.1790 S   0  0  0  0  0  0  0  0  0  0  0  0
   -0.1600   -7.4990   24.7390 C   0  0  0  0  0  0  0  0  0  0  0  0
    1.1350   -7.9930   24.0060 C   0  0  0  0  0  0  0  0  0  0  0  0
    2.0770   -6.8940   23.7790 N   0  0  0  0  0  0  0  0  0  0  0  0
  4  2  1  6
  1  7  1  0
  3  7  2  0
  4  7  1  0
  1  9  1  0
  5 11  1  0
  6 11  2  0
  9 11  1  6
  8 13  1  0
 10 14  1  0
 14 15  1  6
 10 16  1  0
 17 18  2  0
 19 20  2  0
 20 21  1  0
 21 22  2  0
  9 23  1  0
 22 23  1  0
 19 24  1  0
 23 24  2  0
 12 25  1  0
 25 26  2  0
  8 27  1  0
 26 27  1  0
 27 28  2  0
 28 29  1  0
  5 30  1  0
 25 30  1  0
 29 30  2  0
 31 32  2  0
 14 33  1  0
 32 33  1  0
 33 34  2  0
 34 35  1  0
  1 36  1  0
 31 36  1  0
 35 36  2  0
  4 37  1  0
 37 38  2  0
 18 39  1  0
 38 39  1  0
 39 40  2  0
 40 41  1  0
 37 42  1  0
 41 42  2  0
 43 44  1  0
 44 45  1  0
 45 46  1  0
 46 47  1  0
 18 48  1  0
 43 48  1  0
 47 48  1  0
M  END
