x2779-x2908
     RDKit          3D

 28 31  0  0  0  0  0  0  0  0999 V2000
    4.3160    0.6280   21.6480 C   0  0  0  0  0  0  0  0  0  0  0  0
    6.1580    0.8400   17.7990 N   0  0  0  0  0  0  0  0  0  0  0  0
    6.8050   -0.1600   18.4980 C   0  0  0  0  0  0  0  0  0  0  0  0
    6.0100   -0.0720   19.8050 C   0  0  0  0  0  0  0  0  0  0  0  0
    4.8770    0.7820   20.2770 C   0  0  0  0  0  0  0  0  0  0  0  0
    4.3400    1.7940   19.3000 C   0  0  0  0  0  0  0  0  0  0  0  0
    5.1190    1.7020   18.0400 C   0  0  0  0  0  0  0  0  0  0  0  0
    7.5840    0.9320   21.4360 O   0  0  0  0  0  0  0  0  0  0  0  0
   13.3020   -1.8870   21.3340 Cl  0  0  0  0  0  0  0  0  0  0  0  0
    8.6680   -0.7530   22.8850 N   0  0  0  0  0  0  0  0  0  0  0  0
    7.8770   -0.2260   21.6990 C   0  0  0  0  0  0  0  0  0  0  0  0
    7.3330   -3.0680   18.7250 C   0  0  0  0  0  0  0  0  0  0  0  0
    5.5070   -4.2040   19.7890 O   0  0  0  0  0  0  0  0  0  0  0  0
    6.3590   -3.3040   19.8910 C   0  0  0  0  0  0  0  0  0  0  0  0
    9.8180   -2.8060   23.3770 C   0  0  0  0  0  0  0  0  0  0  0  0
   10.5420    0.6510   23.7890 C   0  0  0  0  0  0  0  0  0  0  0  0
   11.9110    0.8940   23.8010 C   0  0  0  0  0  0  0  0  0  0  0  0
   12.7710    0.1160   23.0530 C   0  0  0  0  0  0  0  0  0  0  0  0
   12.2990   -0.9110   22.2790 C   0  0  0  0  0  0  0  0  0  0  0  0
   10.9580   -1.1690   22.2440 C   0  0  0  0  0  0  0  0  0  0  0  0
   10.0710   -0.3960   22.9940 C   0  0  0  0  0  0  0  0  0  0  0  0
    6.5010   -2.4790   21.0430 N   0  0  0  0  0  0  0  0  0  0  0  0
    7.5520   -1.4470   20.7670 C   0  0  2  0  0  0  0  0  0  0  0  0
    8.7740   -2.1470   21.4020 C   0  0  0  0  0  0  0  0  0  0  0  0
    8.5980   -2.0810   22.7620 C   0  0  2  0  0  0  0  0  0  0  0  0
    7.4790   -2.7830   23.2170 C   0  0  0  0  0  0  0  0  0  0  0  0
    6.6850   -3.3470   22.2120 C   0  0  0  0  0  0  0  0  0  0  0  0
    7.4120   -1.2110   19.3600 C   0  0  0  0  0  0  0  0  0  0  0  0
  2  3  2  0
  3  4  1  0
  1  5  1  0
  4  5  2  0
  5  6  1  0
  2  7  1  0
  6  7  2  0
  8 11  2  0
 10 11  1  0
 12 14  1  0
 13 14  2  0
 16 17  2  0
 17 18  1  0
  9 19  1  0
 18 19  2  0
 19 20  1  0
 10 21  1  0
 16 21  1  0
 20 21  2  0
 14 22  1  0
 11 23  1  0
 22 23  1  0
 23 24  1  0
 10 25  1  0
 25 15  1  1
 24 25  1  0
 25 26  1  0
 22 27  1  0
 26 27  1  0
  3 28  1  0
 23 28  1  6
M  END
