x2776-x0769
     RDKit          3D

 52 57  0  0  0  0  0  0  0  0999 V2000
    6.5230   -1.2200   22.2740 C   0  0  1  0  0  0  0  0  0  0  0  0
    6.6170   -4.2330   20.0990 C   0  0  0  0  0  0  0  0  0  0  0  0
    4.4740   -2.9060   21.6920 O   0  0  0  0  0  0  0  0  0  0  0  0
    6.0230   -2.8360   20.0860 C   0  0  0  0  0  0  0  0  0  0  0  0
    7.8570    1.9750   22.9210 N   0  0  0  0  0  0  0  0  0  0  0  0
    8.8550    1.2500   21.0060 O   0  0  0  0  0  0  0  0  0  0  0  0
    5.5810   -2.2830   21.4110 C   0  0  0  0  0  0  0  0  0  0  0  0
   10.8660    6.6400   23.8630 O   0  0  0  0  0  0  0  0  0  0  0  0
    6.7250    0.2070   21.5230 C   0  0  1  0  0  0  0  0  0  0  0  0
   12.6630   -2.8530   24.3210 O   0  0  0  0  0  0  0  0  0  0  0  0
    7.9250    1.1810   21.8020 C   0  0  0  0  0  0  0  0  0  0  0  0
   10.5810    1.8050   23.8800 C   0  0  0  0  0  0  0  0  0  0  0  0
   11.8310    6.4790   24.9010 C   0  0  0  0  0  0  0  0  0  0  0  0
   12.1600   -1.5100   24.2740 C   0  0  1  0  0  0  0  0  0  0  0  0
   13.0310   -0.6970   23.3280 C   0  0  0  0  0  0  0  0  0  0  0  0
   13.1740   -3.2140   25.5920 C   0  0  0  0  0  0  0  0  0  0  0  0
    6.0350   -5.0830   26.7240 O   0  0  0  0  0  0  0  0  0  0  0  0
    4.1610   -6.4940   25.8720 O   0  0  0  0  0  0  0  0  0  0  0  0
    5.6740   -2.3810   26.1810 F   0  0  0  0  0  0  0  0  0  0  0  0
    4.9900   -5.3110   25.7510 S   0  0  0  0  0  0  0  0  0  0  0  0
    7.2130   -2.4200   21.8040 C   0  0  0  0  0  0  0  0  0  0  0  0
    6.2770   -3.5060   22.3050 C   0  0  0  0  0  0  0  0  0  0  0  0
    6.3250    0.4660   17.7590 N   0  0  0  0  0  0  0  0  0  0  0  0
    5.2240    1.2330   17.7440 C   0  0  0  0  0  0  0  0  0  0  0  0
    4.5630    1.6730   18.8470 C   0  0  0  0  0  0  0  0  0  0  0  0
    5.0720    1.3120   20.0680 C   0  0  0  0  0  0  0  0  0  0  0  0
    6.2170    0.5270   20.1470 C   0  0  0  0  0  0  0  0  0  0  0  0
    6.8020    0.1230   18.9650 C   0  0  0  0  0  0  0  0  0  0  0  0
    9.8960    3.1160   23.6010 C   0  0  0  0  0  0  0  0  0  0  0  0
   10.6140    4.3130   23.8190 C   0  0  0  0  0  0  0  0  0  0  0  0
   10.0510    5.5700   23.5920 C   0  0  0  0  0  0  0  0  0  0  0  0
    8.7440    5.6330   23.1230 C   0  0  0  0  0  0  0  0  0  0  0  0
    8.0150    4.4530   22.8960 C   0  0  0  0  0  0  0  0  0  0  0  0
    8.5710    3.1860   23.1320 C   0  0  0  0  0  0  0  0  0  0  0  0
    9.1000   -1.5440   21.9590 C   0  0  0  0  0  0  0  0  0  0  0  0
   10.4290   -1.6210   22.4040 C   0  0  0  0  0  0  0  0  0  0  0  0
   10.7330   -1.4540   23.7530 C   0  0  0  0  0  0  0  0  0  0  0  0
    9.6760   -1.2160   24.6290 C   0  0  0  0  0  0  0  0  0  0  0  0
    8.3380   -1.1380   24.1970 C   0  0  0  0  0  0  0  0  0  0  0  0
    8.0000   -1.2970   22.8410 C   0  0  0  0  0  0  0  0  0  0  0  0
    4.3730   -2.6310   26.0110 C   0  0  0  0  0  0  0  0  0  0  0  0
    3.8940   -3.9200   25.7990 C   0  0  0  0  0  0  0  0  0  0  0  0
    2.5200   -4.1020   25.6320 C   0  0  0  0  0  0  0  0  0  0  0  0
    1.6430   -3.0130   25.6800 C   0  0  0  0  0  0  0  0  0  0  0  0
    2.1360   -1.7290   25.8950 C   0  0  0  0  0  0  0  0  0  0  0  0
    3.5030   -1.5400   26.0590 C   0  0  0  0  0  0  0  0  0  0  0  0
    6.5220   -4.7970   21.5970 C   0  0  0  0  0  0  0  0  0  0  0  0
    5.3000   -5.7270   21.8150 C   0  0  0  0  0  0  0  0  0  0  0  0
    5.1490   -6.2750   23.2220 C   0  0  0  0  0  0  0  0  0  0  0  0
    5.7290   -5.3540   24.2110 N   0  0  0  0  0  0  0  0  0  0  0  0
    7.1820   -5.0950   24.0550 C   0  0  0  0  0  0  0  0  0  0  0  0
    7.6380   -5.2190   22.5820 C   0  0  0  0  0  0  0  0  0  0  0  0
  2  4  1  0
  1  7  1  0
  3  7  2  0
  4  7  1  0
  1  9  1  0
  5 11  1  0
  6 11  2  0
  9 11  1  6
  8 13  1  0
 10 14  1  0
 14 15  1  6
 10 16  1  0
 17 20  2  0
 18 20  2  0
  1 21  1  0
 21 22  1  0
 23 24  2  0
 24 25  1  0
 25 26  2  0
  9 27  1  0
 26 27  1  0
 23 28  1  0
 27 28  2  0
 12 29  1  0
 29 30  2  0
  8 31  1  0
 30 31  1  0
 31 32  2  0
 32 33  1  0
  5 34  1  0
 29 34  1  0
 33 34  2  0
 35 36  2  0
 14 37  1  0
 36 37  1  0
 37 38  2  0
 38 39  1  0
  1 40  1  1
 35 40  1  0
 39 40  2  0
 19 41  1  0
 20 42  1  0
 41 42  2  0
 42 43  1  0
 43 44  2  0
 44 45  1  0
 41 46  1  0
 45 46  2  0
  2 47  1  0
 47 22  1  0
 47 48  1  0
 48 49  1  0
 20 50  1  0
 49 50  1  0
 50 51  1  0
 47 52  1  0
 51 52  1  0
M  END
