x2776-x3117
     RDKit          3D

 35 37  0  0  0  0  0  0  0  0999 V2000
    6.8750   -1.5600   21.7970 N   0  0  0  0  0  0  0  0  0  0  0  0
    6.8380   -5.0120   20.5740 C   0  0  0  0  0  0  0  0  0  0  0  0
    4.8280   -2.9850   21.1260 O   0  0  0  0  0  0  0  0  0  0  0  0
    6.7550   -4.1030   21.7810 C   0  0  0  0  0  0  0  0  0  0  0  0
    7.6960    1.8500   22.8180 N   0  0  0  0  0  0  0  0  0  0  0  0
    8.9890    0.6220   21.3540 O   0  0  0  0  0  0  0  0  0  0  0  0
    6.0610   -2.7890   21.5400 C   0  0  0  0  0  0  0  0  0  0  0  0
   10.7620    6.5150   23.7860 O   0  0  0  0  0  0  0  0  0  0  0  0
    6.6140   -0.0750   21.5310 C   0  0  1  0  0  0  0  0  0  0  0  0
   12.3600   -2.9450   24.8630 O   0  0  0  0  0  0  0  0  0  0  0  0
    7.9020    0.8140   21.8850 C   0  0  0  0  0  0  0  0  0  0  0  0
   10.4340    1.7020   23.9000 C   0  0  0  0  0  0  0  0  0  0  0  0
   11.7950    6.4010   24.7670 C   0  0  0  0  0  0  0  0  0  0  0  0
   12.1180   -1.7070   24.2020 C   0  0  0  0  0  0  0  0  0  0  0  0
   13.1850   -1.4910   23.1470 C   0  0  0  0  0  0  0  0  0  0  0  0
   13.6400   -2.9860   25.4460 C   0  0  0  0  0  0  0  0  0  0  0  0
   12.3170   -0.5440   25.1500 C   0  0  0  0  0  0  0  0  0  0  0  0
    6.3830    0.5400   17.8380 N   0  0  0  0  0  0  0  0  0  0  0  0
    5.2660    1.2530   17.7330 C   0  0  0  0  0  0  0  0  0  0  0  0
    4.4130    1.6000   18.9210 C   0  0  0  0  0  0  0  0  0  0  0  0
    4.8210    1.1700   20.1710 C   0  0  0  0  0  0  0  0  0  0  0  0
    5.9920    0.4460   20.2500 C   0  0  0  0  0  0  0  0  0  0  0  0
    6.7110    0.1600   19.0830 C   0  0  0  0  0  0  0  0  0  0  0  0
    9.7640    3.0060   23.5640 C   0  0  0  0  0  0  0  0  0  0  0  0
   10.5110    4.1780   23.7960 C   0  0  0  0  0  0  0  0  0  0  0  0
    9.9600    5.4230   23.5170 C   0  0  0  0  0  0  0  0  0  0  0  0
    8.6600    5.4840   22.9910 C   0  0  0  0  0  0  0  0  0  0  0  0
    7.9090    4.3260   22.7520 C   0  0  0  0  0  0  0  0  0  0  0  0
    8.4420    3.0680   23.0380 C   0  0  0  0  0  0  0  0  0  0  0  0
    9.3160   -2.0510   21.7110 C   0  0  0  0  0  0  0  0  0  0  0  0
   10.5930   -2.0930   22.2660 C   0  0  0  0  0  0  0  0  0  0  0  0
   10.7510   -1.7000   23.5830 C   0  0  0  0  0  0  0  0  0  0  0  0
    9.6550   -1.2880   24.3340 C   0  0  0  0  0  0  0  0  0  0  0  0
    8.3780   -1.2500   23.7700 C   0  0  0  0  0  0  0  0  0  0  0  0
    8.1970   -1.6290   22.4320 C   0  0  0  0  0  0  0  0  0  0  0  0
  2  4  1  0
  1  7  1  0
  3  7  2  0
  4  7  1  0
  1  9  1  0
  5 11  1  0
  6 11  2  0
  9 11  1  6
  8 13  1  0
 14 10  1  0
 14 15  1  0
 10 16  1  0
 14 17  1  0
 18 19  2  0
 19 20  1  0
 20 21  2  0
  9 22  1  0
 21 22  1  0
 18 23  1  0
 22 23  2  0
 12 24  1  0
 24 25  2  0
  8 26  1  0
 25 26  1  0
 26 27  2  0
 27 28  1  0
  5 29  1  0
 24 29  1  0
 28 29  2  0
 30 31  2  0
 14 32  1  0
 31 32  1  0
 32 33  2  0
 33 34  1  0
  1 35  1  0
 30 35  1  0
 34 35  2  0
M  END
