x2779-x2643
     RDKit          3D

 26 29  0  0  0  0  0  0  0  0999 V2000
    7.3280   -3.0810   18.8150 C   0  0  0  0  0  0  0  0  0  0  0  0
    5.5330   -4.2810   19.8460 O   0  0  0  0  0  0  0  0  0  0  0  0
    6.4140   -3.4110   20.0040 C   0  0  0  0  0  0  0  0  0  0  0  0
    9.7360   -3.0940   23.7430 C   0  0  0  0  0  0  0  0  0  0  0  0
   13.3490    0.8300   22.8880 Cl  0  0  0  0  0  0  0  0  0  0  0  0
    7.7970    0.2610   22.5730 O   0  0  0  0  0  0  0  0  0  0  0  0
    8.0270   -1.0150   21.9720 C   0  0  0  0  0  0  0  0  0  0  0  0
    6.6360   -2.6950   21.2070 N   0  0  0  0  0  0  0  0  0  0  0  0
    7.4680   -1.9130   21.0610 C   0  0  2  0  0  0  0  0  0  0  0  0
    8.8170   -2.2960   21.7150 C   0  0  2  0  0  0  0  0  0  0  0  0
    8.7310   -3.1010   22.8130 N   0  0  0  0  0  0  0  0  0  0  0  0
    7.9550   -3.9660   22.7830 C   0  0  0  0  0  0  0  0  0  0  0  0
    6.7240   -3.3920   22.5120 C   0  0  0  0  0  0  0  0  0  0  0  0
   12.0260   -2.0810   23.2200 C   0  0  0  0  0  0  0  0  0  0  0  0
   10.7230   -1.9540   23.5220 C   0  0  0  0  0  0  0  0  0  0  0  0
   10.2540   -0.3650   23.6250 S   0  0  0  0  0  0  0  0  0  0  0  0
   11.7740    0.4410   23.2620 C   0  0  0  0  0  0  0  0  0  0  0  0
   12.6150   -0.7060   23.0740 C   0  0  0  0  0  0  0  0  0  0  0  0
    6.2750    1.1820   17.7390 N   0  0  0  0  0  0  0  0  0  0  0  0
    7.0130    0.6290   18.7360 C   0  0  0  0  0  0  0  0  0  0  0  0
    5.9430    0.7390   19.8710 C   0  0  0  0  0  0  0  0  0  0  0  0
    4.5610    1.2640   19.9480 C   0  0  0  0  0  0  0  0  0  0  0  0
    3.9890    1.8410   18.7450 C   0  0  0  0  0  0  0  0  0  0  0  0
    4.9410    1.7770   17.6060 C   0  0  0  0  0  0  0  0  0  0  0  0
    7.4010   -1.1330   19.8600 C   0  0  0  0  0  0  0  0  0  0  0  0
    7.3610    0.1830   19.9490 C   0  0  0  0  0  0  0  0  0  0  0  0
  1  3  1  0
  2  3  2  0
  6  7  2  0
  3  8  1  0
  7  9  1  0
  8  9  1  0
 10  7  1  1
  9 10  1  0
  4 11  1  0
 10 11  1  0
 11 12  1  0
  8 13  1  0
 12 13  1  0
  4 15  1  0
 14 15  2  0
 15 16  1  0
  5 17  1  0
 16 17  1  0
 14 18  1  0
 17 18  2  0
 19 20  2  0
 20 21  1  0
 21 22  2  0
 22 23  1  0
 19 24  1  0
 23 24  2  0
  9 25  1  6
 20 26  1  0
 25 26  1  0
M  END
