x2776-x1308-x2694
     RDKit          3D

 53 58  0  0  0  0  0  0  0  0999 V2000
    6.6450   -1.2900   21.9060 C   0  0  1  0  0  0  0  0  0  0  0  0
    6.6310   -3.9610   19.9700 C   0  0  0  0  0  0  0  0  0  0  0  0
    4.7410   -2.9750   21.3500 O   0  0  0  0  0  0  0  0  0  0  0  0
    6.1690   -2.5980   19.6950 C   0  0  0  0  0  0  0  0  0  0  0  0
    7.8110    1.4800   23.2340 N   0  0  0  0  0  0  0  0  0  0  0  0
    8.7260    0.3880   21.2580 O   0  0  0  0  0  0  0  0  0  0  0  0
    5.7990   -2.3100   20.9950 C   0  0  0  0  0  0  0  0  0  0  0  0
   10.6130    6.5530   23.5830 O   0  0  0  0  0  0  0  0  0  0  0  0
    6.1330    0.1660   21.6860 C   0  0  1  0  0  0  0  0  0  0  0  0
   13.6700   -2.5380   24.0630 O   0  0  0  0  0  0  0  0  0  0  0  0
    7.5910    0.6470   22.0680 C   0  0  0  0  0  0  0  0  0  0  0  0
   10.6000    1.4990   23.9300 C   0  0  0  0  0  0  0  0  0  0  0  0
   11.6860    6.5550   24.5390 C   0  0  0  0  0  0  0  0  0  0  0  0
   12.7240   -1.6680   23.6400 C   0  0  1  0  0  0  0  0  0  0  0  0
   13.0910   -0.4020   23.2140 C   0  0  0  0  0  0  0  0  0  0  0  0
   13.3940   -2.9680   25.3290 C   0  0  0  0  0  0  0  0  0  0  0  0
   11.9560   -2.0330   22.3970 C   0  0  0  0  0  0  0  0  0  0  0  0
    0.6520   -1.1830   26.3700 Cl  0  0  0  0  0  0  0  0  0  0  0  0
    6.2440   -5.3310   26.8070 O   0  0  0  0  0  0  0  0  0  0  0  0
    4.5760   -6.8300   25.7550 O   0  0  0  0  0  0  0  0  0  0  0  0
    5.3070   -5.5820   25.7510 S   0  0  0  0  0  0  0  0  0  0  0  0
    5.8880   -1.9970   22.9520 C   0  0  0  0  0  0  0  0  0  0  0  0
    5.3480   -3.3590   22.3490 C   0  0  0  0  0  0  0  0  0  0  0  0
    6.3650    0.7860   17.7820 N   0  0  0  0  0  0  0  0  0  0  0  0
    5.2740    1.6000   17.5780 C   0  0  0  0  0  0  0  0  0  0  0  0
    4.3870    1.9690   18.7330 C   0  0  0  0  0  0  0  0  0  0  0  0
    4.6740    1.4780   20.1150 C   0  0  0  0  0  0  0  0  0  0  0  0
    5.8990    0.5970   20.2970 C   0  0  0  0  0  0  0  0  0  0  0  0
    6.6150    0.3360   19.1200 C   0  0  0  0  0  0  0  0  0  0  0  0
    9.9440    2.8330   23.6530 C   0  0  0  0  0  0  0  0  0  0  0  0
   10.6830    4.0370   23.7560 C   0  0  0  0  0  0  0  0  0  0  0  0
   10.0140    5.2340   23.5010 C   0  0  0  0  0  0  0  0  0  0  0  0
    8.6540    5.2540   23.1330 C   0  0  0  0  0  0  0  0  0  0  0  0
    7.9500    4.0210   23.0350 C   0  0  0  0  0  0  0  0  0  0  0  0
    8.5890    2.8020   23.3020 C   0  0  0  0  0  0  0  0  0  0  0  0
    9.3970   -1.7470   21.9520 C   0  0  0  0  0  0  0  0  0  0  0  0
   10.5490   -1.7320   22.7800 C   0  0  0  0  0  0  0  0  0  0  0  0
   10.4580   -1.4010   24.1220 C   0  0  0  0  0  0  0  0  0  0  0  0
    9.2640   -1.0770   24.6810 C   0  0  0  0  0  0  0  0  0  0  0  0
    8.1360   -1.0780   23.9020 C   0  0  0  0  0  0  0  0  0  0  0  0
    8.1610   -1.4030   22.5440 C   0  0  0  0  0  0  0  0  0  0  0  0
    6.4330   -4.2740   21.6060 C   0  0  0  0  0  0  0  0  0  0  0  0
    7.4440   -4.3720   22.5460 C   0  0  0  0  0  0  0  0  0  0  0  0
    6.8800   -4.2250   23.8400 C   0  0  0  0  0  0  0  0  0  0  0  0
    6.0910   -5.4510   24.2340 N   0  0  0  0  0  0  0  0  0  0  0  0
    5.4050   -6.0110   23.1900 C   0  0  0  0  0  0  0  0  0  0  0  0
    5.8760   -5.7260   21.7630 C   0  0  0  0  0  0  0  0  0  0  0  0
    4.4380   -3.0090   26.2520 C   0  0  0  0  0  0  0  0  0  0  0  0
    3.3570   -1.9530   26.4050 C   0  0  0  0  0  0  0  0  0  0  0  0
    1.9030   -2.3440   26.1820 C   0  0  0  0  0  0  0  0  0  0  0  0
    1.6220   -3.6710   25.8300 C   0  0  0  0  0  0  0  0  0  0  0  0
    2.6140   -4.6570   25.6840 C   0  0  0  0  0  0  0  0  0  0  0  0
    4.0860   -4.3170   25.9090 C   0  0  0  0  0  0  0  0  0  0  0  0
  2  4  1  0
  1  7  1  0
  3  7  2  0
  4  7  1  0
  1  9  1  0
  5 11  1  0
  6 11  2  0
  9 11  1  6
  8 13  1  0
 10 14  1  0
 14 15  1  6
 10 16  1  0
 14 17  1  0
 19 21  2  0
 20 21  2  0
  1 22  1  0
 22 23  1  0
 24 25  2  0
 25 26  1  0
 26 27  2  0
  9 28  1  0
 27 28  1  0
 24 29  1  0
 28 29  2  0
 12 30  1  0
 30 31  2  0
  8 32  1  0
 31 32  1  0
 32 33  2  0
 33 34  1  0
  5 35  1  0
 30 35  1  0
 34 35  2  0
 17 37  1  0
 36 37  2  0
 37 38  1  0
 38 39  2  0
 39 40  1  0
  1 41  1  1
 36 41  1  0
 40 41  2  0
  2 42  1  0
 42 23  1  0
 42 43  1  0
 43 44  1  0
 21 45  1  0
 44 45  1  0
 45 46  1  0
 42 47  1  0
 46 47  1  0
 48 49  2  0
 18 50  1  0
 49 50  1  0
 50 51  2  0
 51 52  1  0
 21 53  1  0
 48 53  1  0
 52 53  2  0
M  END
