x2776-x1458-x1358
     RDKit          3D

 56 62  0  0  0  0  0  0  0  0999 V2000
    6.9810   -1.6080   21.5520 C   0  0  2  0  0  0  0  0  0  0  0  0
    6.9600   -5.0420   20.6950 C   0  0  0  0  0  0  0  0  0  0  0  0
    4.8170   -2.9180   20.6490 O   0  0  0  0  0  0  0  0  0  0  0  0
    7.6840    1.9430   22.8440 N   0  0  0  0  0  0  0  0  0  0  0  0
    8.8330    1.1180   20.9900 O   0  0  0  0  0  0  0  0  0  0  0  0
    5.9760   -2.8870   21.1930 C   0  0  0  0  0  0  0  0  0  0  0  0
   10.7440    6.6220   23.8630 O   0  0  0  0  0  0  0  0  0  0  0  0
    6.7040   -0.0240   21.4450 C   0  0  1  0  0  0  0  0  0  0  0  0
   12.4240   -2.9600   24.9460 O   0  0  0  0  0  0  0  0  0  0  0  0
    7.8530    1.0170   21.7070 C   0  0  0  0  0  0  0  0  0  0  0  0
   10.3720    1.7700   23.9790 C   0  0  0  0  0  0  0  0  0  0  0  0
   11.7970    6.4470   24.8100 C   0  0  0  0  0  0  0  0  0  0  0  0
   12.4260   -2.2450   23.7160 C   0  0  2  0  0  0  0  0  0  0  0  0
   12.9700   -0.8500   23.9180 C   0  0  0  0  0  0  0  0  0  0  0  0
   13.6980   -2.9780   25.5170 C   0  0  0  0  0  0  0  0  0  0  0  0
    7.1180   -3.1640   26.7360 N   0  0  0  0  0  0  0  0  0  0  0  0
    9.0440   -4.6840   27.2310 C   0  0  0  0  0  0  0  0  0  0  0  0
    4.8050   -2.8720   25.3870 N   0  0  0  0  0  0  0  0  0  0  0  0
    7.6010   -4.2990   27.6360 C   0  0  0  0  0  0  0  0  0  0  0  0
    6.8010   -5.5390   27.5300 C   0  0  0  0  0  0  0  0  0  0  0  0
    6.2160   -3.5400   25.6340 C   0  0  0  0  0  0  0  0  0  0  0  0
    6.6770   -2.1930   22.9050 C   0  0  0  0  0  0  0  0  0  0  0  0
    5.8020   -2.7970   25.8550 N   0  0  0  0  0  0  0  0  0  0  0  0
    6.0480   -0.5700   25.3850 O   0  0  0  0  0  0  0  0  0  0  0  0
    4.4860   -3.6040   24.2810 N   0  0  0  0  0  0  0  0  0  0  0  0
    5.5790   -3.7210   24.7730 C   0  0  0  0  0  0  0  0  0  0  0  0
    6.3200    0.6080   17.7650 N   0  0  0  0  0  0  0  0  0  0  0  0
    5.2640    1.3080   17.7480 C   0  0  0  0  0  0  0  0  0  0  0  0
    4.4430    1.7000   18.9720 C   0  0  0  0  0  0  0  0  0  0  0  0
    4.9490    1.2350   20.1600 C   0  0  0  0  0  0  0  0  0  0  0  0
    6.1070    0.4820   20.1560 C   0  0  0  0  0  0  0  0  0  0  0  0
    6.7490    0.1900   18.9620 C   0  0  0  0  0  0  0  0  0  0  0  0
    9.7320    3.0610   23.6280 C   0  0  0  0  0  0  0  0  0  0  0  0
   10.4990    4.3040   23.8810 C   0  0  0  0  0  0  0  0  0  0  0  0
    9.9380    5.5460   23.5720 C   0  0  0  0  0  0  0  0  0  0  0  0
    8.6500    5.6250   23.0120 C   0  0  0  0  0  0  0  0  0  0  0  0
    7.9290    4.4280   22.7760 C   0  0  0  0  0  0  0  0  0  0  0  0
    8.4360    3.1410   23.0760 C   0  0  0  0  0  0  0  0  0  0  0  0
    9.5790   -1.2430   21.5440 C   0  0  0  0  0  0  0  0  0  0  0  0
   10.8140   -1.4220   22.0890 C   0  0  0  0  0  0  0  0  0  0  0  0
   11.0030   -2.1300   23.2030 C   0  0  0  0  0  0  0  0  0  0  0  0
    9.9300   -2.6900   23.8050 C   0  0  0  0  0  0  0  0  0  0  0  0
    8.6690   -2.5160   23.2710 C   0  0  0  0  0  0  0  0  0  0  0  0
    8.4450   -1.7770   22.1000 C   0  0  0  0  0  0  0  0  0  0  0  0
    6.5150   -4.2520   21.6920 C   0  0  2  0  0  0  0  0  0  0  0  0
    7.4470   -3.5370   22.6890 C   0  0  2  0  0  0  0  0  0  0  0  0
    7.7180   -4.1040   23.8820 C   0  0  0  0  0  0  0  0  0  0  0  0
    6.6080   -4.6140   24.4940 C   0  0  1  0  0  0  0  0  0  0  0  0
    5.7560   -5.5630   23.6750 C   0  0  0  0  0  0  0  0  0  0  0  0
    5.4450   -5.1580   22.3640 C   0  0  0  0  0  0  0  0  0  0  0  0
    6.2790   -0.6690   26.7260 C   0  0  0  0  0  0  0  0  0  0  0  0
    6.7950   -1.9190   27.4370 C   0  0  0  0  0  0  0  0  0  0  0  0
    6.9790   -1.9240   28.7400 C   0  0  0  0  0  0  0  0  0  0  0  0
    6.6680   -0.6260   29.4810 C   0  0  0  0  0  0  0  0  0  0  0  0
    6.2130    0.4800   28.8200 C   0  0  0  0  0  0  0  0  0  0  0  0
    6.0100    0.4850   27.4610 C   0  0  0  0  0  0  0  0  0  0  0  0
  1  6  1  0
  3  6  2  0
  1  8  1  0
  4 10  1  0
  5 10  2  0
  8 10  1  6
  7 12  1  0
  9 13  1  0
 13 14  1  1
  9 15  1  0
 16 19  1  0
 17 19  1  0
 19 20  1  0
 16 21  1  0
 18 21  2  0
  1 22  1  0
 18 25  1  0
 23 26  1  0
 25 26  2  0
 27 28  2  0
 28 29  1  0
 29 30  2  0
  8 31  1  0
 30 31  1  0
 27 32  1  0
 31 32  2  0
 11 33  1  0
 33 34  2  0
  7 35  1  0
 34 35  1  0
 35 36  2  0
 36 37  1  0
  4 38  1  0
 33 38  1  0
 37 38  2  0
 39 40  2  0
 13 41  1  0
 40 41  1  0
 41 42  2  0
 42 43  1  0
  1 44  1  6
 39 44  1  0
 43 44  2  0
 45  2  1  6
  6 45  1  0
 46 22  1  1
 45 46  1  0
 46 47  1  0
 48 21  1  0
 26 48  1  0
 48 47  1  6
 48 49  1  0
 45 50  1  0
 49 50  1  0
 24 51  1  0
 16 52  1  0
 51 52  2  0
 52 53  1  0
 53 54  2  0
 54 55  1  0
 51 56  1  0
 55 56  2  0
M  END
