x2779-x0831
     RDKit          3D

 18 19  0  0  0  0  0  0  0  0999 V2000
   12.2390   -2.2210   22.5020 C   0  0  0  0  0  0  0  0  0  0  0  0
    5.4070   -4.2570   19.7920 O   0  0  0  0  0  0  0  0  0  0  0  0
   10.0130   -2.3260   23.5220 C   0  0  0  0  0  0  0  0  0  0  0  0
    6.2940   -3.4180   19.9930 C   0  0  0  0  0  0  0  0  0  0  0  0
    7.2290   -3.0460   18.8570 C   0  0  0  0  0  0  0  0  0  0  0  0
   12.1950   -0.7570   22.9330 C   0  0  0  0  0  0  0  0  0  0  0  0
   10.8100   -1.0580   23.5100 C   0  0  0  0  0  0  0  0  0  0  0  0
   10.2980    0.0920   24.0780 C   0  0  0  0  0  0  0  0  0  0  0  0
   10.9970    1.2930   24.0690 C   0  0  0  0  0  0  0  0  0  0  0  0
   12.2690    1.4920   23.5110 C   0  0  0  0  0  0  0  0  0  0  0  0
   12.9120    0.4080   22.9140 C   0  0  0  0  0  0  0  0  0  0  0  0
    6.4740   -2.8310   21.2360 N   0  0  0  0  0  0  0  0  0  0  0  0
    6.2210   -1.4300   21.6650 C   0  0  0  0  0  0  0  0  0  0  0  0
    7.3880   -0.6530   21.5760 C   0  0  0  0  0  0  0  0  0  0  0  0
    8.6000   -1.5930   21.5880 C   0  0  0  0  0  0  0  0  0  0  0  0
    8.7770   -2.1240   22.9640 N   0  0  0  0  0  0  0  0  0  0  0  0
    7.5580   -2.7810   23.4660 C   0  0  0  0  0  0  0  0  0  0  0  0
    7.0580   -3.6500   22.3160 C   0  0  0  0  0  0  0  0  0  0  0  0
  2  4  2  0
  4  5  1  0
  1  6  1  0
  3  7  1  0
  6  7  2  0
  7  8  1  0
  8  9  2  0
  9 10  1  0
  6 11  1  0
 10 11  2  0
  4 12  1  0
 12 13  1  0
 13 14  1  0
 14 15  1  0
  3 16  1  0
 15 16  1  0
 16 17  1  0
 12 18  1  0
 17 18  1  0
M  END
