x2776-x2646
     RDKit          3D

 37 39  0  0  0  0  0  0  0  0999 V2000
    6.9200   -1.5250   21.6430 N   0  0  0  0  0  0  0  0  0  0  0  0
    6.7530   -4.7500   20.3580 C   0  0  0  0  0  0  0  0  0  0  0  0
    4.8140   -2.9510   21.0910 O   0  0  0  0  0  0  0  0  0  0  0  0
    6.8390   -3.9940   21.6690 C   0  0  0  0  0  0  0  0  0  0  0  0
    8.1270    1.5420   22.8910 N   0  0  0  0  0  0  0  0  0  0  0  0
    8.2800    1.3470   21.0270 O   0  0  0  0  0  0  0  0  0  0  0  0
    6.0690   -2.7410   21.4390 C   0  0  0  0  0  0  0  0  0  0  0  0
   10.6310    6.5620   23.6860 O   0  0  0  0  0  0  0  0  0  0  0  0
    6.5740   -0.0980   21.4520 C   0  0  1  0  0  0  0  0  0  0  0  0
   12.1320   -2.8230   25.1030 O   0  0  0  0  0  0  0  0  0  0  0  0
    7.6190    0.9350   22.0110 C   0  0  0  0  0  0  0  0  0  0  0  0
   10.8000    1.5620   23.8530 C   0  0  0  0  0  0  0  0  0  0  0  0
   11.5780    6.6240   24.4810 C   0  0  0  0  0  0  0  0  0  0  0  0
   11.8690   -1.4910   24.6380 C   0  0  1  0  0  0  0  0  0  0  0  0
   12.8740   -1.0490   23.8170 C   0  0  0  0  0  0  0  0  0  0  0  0
   13.4550   -3.0410   25.5460 C   0  0  0  0  0  0  0  0  0  0  0  0
    4.3370    1.6700   21.3900 C   0  0  0  0  0  0  0  0  0  0  0  0
    6.4050    0.5180   17.7400 N   0  0  0  0  0  0  0  0  0  0  0  0
    5.2650    1.4560   17.6360 C   0  0  0  0  0  0  0  0  0  0  0  0
    4.5930    1.8010   18.9460 C   0  0  0  0  0  0  0  0  0  0  0  0
    5.0680    1.2580   20.1050 C   0  0  0  0  0  0  0  0  0  0  0  0
    6.1370    0.4050   20.1110 C   0  0  0  0  0  0  0  0  0  0  0  0
    6.7750    0.0500   18.9450 C   0  0  0  0  0  0  0  0  0  0  0  0
   10.0940    2.8690   23.5530 C   0  0  0  0  0  0  0  0  0  0  0  0
   10.7110    4.1240   23.7500 C   0  0  0  0  0  0  0  0  0  0  0  0
   10.0660    5.3220   23.4880 C   0  0  0  0  0  0  0  0  0  0  0  0
    8.7570    5.2980   22.9940 C   0  0  0  0  0  0  0  0  0  0  0  0
    8.0760    4.0760   22.7700 C   0  0  0  0  0  0  0  0  0  0  0  0
    8.6570    2.8110   23.0260 C   0  0  0  0  0  0  0  0  0  0  0  0
    9.3700   -2.0270   21.8430 C   0  0  0  0  0  0  0  0  0  0  0  0
   10.5620   -2.0170   22.5600 C   0  0  0  0  0  0  0  0  0  0  0  0
   10.5810   -1.5360   23.8650 C   0  0  0  0  0  0  0  0  0  0  0  0
    9.3980   -1.0900   24.4310 C   0  0  0  0  0  0  0  0  0  0  0  0
    8.2200   -1.1110   23.6910 C   0  0  0  0  0  0  0  0  0  0  0  0
    8.1550   -1.5650   22.3770 C   0  0  0  0  0  0  0  0  0  0  0  0
   13.2600   -1.7970   21.2480 Cl  0  0  0  0  0  0  0  0  0  0  0  0
   13.2420   -2.2300   22.9600 C   0  0  0  0  0  0  0  0  0  0  0  0
  2  4  1  0
  1  7  1  0
  3  7  2  0
  4  7  1  0
  1  9  1  0
  5 11  1  0
  6 11  2  0
  9 11  1  6
  8 13  1  0
 10 14  1  0
 14 15  1  6
 10 16  1  0
 18 19  2  0
 19 20  1  0
 17 21  1  0
 20 21  2  0
  9 22  1  0
 21 22  1  0
 18 23  1  0
 22 23  2  0
 12 24  1  0
 24 25  2  0
  8 26  1  0
 25 26  1  0
 26 27  2  0
 27 28  1  0
  5 29  1  0
 24 29  1  0
 28 29  2  0
 30 31  2  0
 14 32  1  0
 31 32  1  0
 32 33  2  0
 33 34  1  0
  1 35  1  0
 30 35  1  0
 34 35  2  0
 15 37  1  0
 36 37  1  0
M  END
