x2779-x2052
     RDKit          3D

 27 29  0  0  0  0  0  0  0  0999 V2000
    5.6980   -1.5220   25.2300 C   0  0  0  0  0  0  0  0  0  0  0  0
    4.5080   -1.5060   25.5380 O   0  0  0  0  0  0  0  0  0  0  0  0
    6.6700   -0.9480   26.0510 N   0  0  0  0  0  0  0  0  0  0  0  0
    5.5090   -4.4340   19.9080 O   0  0  0  0  0  0  0  0  0  0  0  0
    5.4870    2.1290   30.6100 O   0  0  0  0  0  0  0  0  0  0  0  0
    6.4680   -3.7070   20.1990 C   0  0  0  0  0  0  0  0  0  0  0  0
    7.3320   -3.1130   19.0710 C   0  0  0  0  0  0  0  0  0  0  0  0
    6.0840    3.4220   30.6760 C   0  0  0  0  0  0  0  0  0  0  0  0
    6.8110   -3.4470   21.5430 N   0  0  0  0  0  0  0  0  0  0  0  0
    7.5460   -2.2660   21.8050 C   0  0  1  0  0  0  0  0  0  0  0  0
    7.0540   -1.4470   22.9920 C   0  0  0  0  0  0  0  0  0  0  0  0
    6.0870   -2.1760   23.9360 C   0  0  1  0  0  0  0  0  0  0  0  0
    6.3750   -3.6940   24.0080 C   0  0  0  0  0  0  0  0  0  0  0  0
    6.6920   -4.3810   22.6760 C   0  0  0  0  0  0  0  0  0  0  0  0
    6.5980    2.0270   28.4810 N   0  0  0  0  0  0  0  0  0  0  0  0
    6.9020    1.1870   27.2730 C   0  0  0  0  0  0  0  0  0  0  0  0
    6.4130   -0.1170   27.1700 C   0  0  0  0  0  0  0  0  0  0  0  0
    5.6300   -0.6420   28.2130 C   0  0  0  0  0  0  0  0  0  0  0  0
    5.3370    0.1320   29.3500 C   0  0  0  0  0  0  0  0  0  0  0  0
    5.8190    1.4360   29.4630 C   0  0  0  0  0  0  0  0  0  0  0  0
    9.5980   -2.8040   23.2170 C   0  0  0  0  0  0  0  0  0  0  0  0
   11.6560   -1.3020   22.2080 C   0  0  0  0  0  0  0  0  0  0  0  0
   10.8580   -2.0250   23.2860 C   0  0  0  0  0  0  0  0  0  0  0  0
   11.7770   -1.7350   24.7510 S   0  0  0  0  0  0  0  0  0  0  0  0
   12.9030   -0.8320   23.9620 C   0  0  0  0  0  0  0  0  0  0  0  0
   12.7470   -0.6710   22.6250 C   0  0  0  0  0  0  0  0  0  0  0  0
    9.0060   -2.5780   21.9710 C   0  0  0  0  0  0  0  0  0  0  0  0
  1  2  2  0
  1  3  1  0
  4  6  2  0
  6  7  1  0
  5  8  1  0
  6  9  1  0
  9 10  1  0
 10 11  1  0
 12  1  1  1
 11 12  1  0
 12 13  1  0
  9 14  1  0
 13 14  1  0
 15 16  2  0
  3 17  1  0
 16 17  1  0
 17 18  2  0
 18 19  1  0
  5 20  1  0
 15 20  1  0
 19 20  2  0
 21 23  1  0
 22 23  2  0
 23 24  1  0
 24 25  1  0
 22 26  1  0
 25 26  2  0
 10 27  1  1
 21 27  1  0
M  END
