x2776-x0691
     RDKit          3D

 52 57  0  0  0  0  0  0  0  0999 V2000
    6.6740   -1.4000   21.8960 C   0  0  1  0  0  0  0  0  0  0  0  0
    6.5740   -4.1170   20.0300 C   0  0  0  0  0  0  0  0  0  0  0  0
    4.6620   -2.9030   21.3650 O   0  0  0  0  0  0  0  0  0  0  0  0
    6.0450   -2.8110   19.7230 C   0  0  0  0  0  0  0  0  0  0  0  0
    7.8040    1.9320   22.9950 N   0  0  0  0  0  0  0  0  0  0  0  0
    8.6470    1.2760   20.9710 O   0  0  0  0  0  0  0  0  0  0  0  0
    5.7630   -2.3320   21.0020 C   0  0  0  0  0  0  0  0  0  0  0  0
   10.8580    6.6150   23.8090 O   0  0  0  0  0  0  0  0  0  0  0  0
    6.5670    0.1890   21.5880 C   0  0  1  0  0  0  0  0  0  0  0  0
   12.3760   -2.9260   24.8500 O   0  0  0  0  0  0  0  0  0  0  0  0
    7.7770    1.1770   21.8430 C   0  0  0  0  0  0  0  0  0  0  0  0
   10.5680    1.7720   23.8810 C   0  0  0  0  0  0  0  0  0  0  0  0
   11.8050    6.5240   24.8720 C   0  0  0  0  0  0  0  0  0  0  0  0
   12.0310   -1.6120   24.4180 C   0  0  1  0  0  0  0  0  0  0  0  0
   13.1010   -1.0580   23.4860 C   0  0  0  0  0  0  0  0  0  0  0  0
   13.6420   -2.9570   25.4520 C   0  0  0  0  0  0  0  0  0  0  0  0
    4.1170   -6.8440   25.7250 O   0  0  0  0  0  0  0  0  0  0  0  0
    5.7460   -5.2360   26.7280 O   0  0  0  0  0  0  0  0  0  0  0  0
    3.2700   -0.6540   25.9750 F   0  0  0  0  0  0  0  0  0  0  0  0
    4.7990   -5.5680   25.6890 S   0  0  0  0  0  0  0  0  0  0  0  0
    5.8830   -2.0340   23.0320 C   0  0  0  0  0  0  0  0  0  0  0  0
    5.3910   -3.4330   22.5170 C   0  0  0  0  0  0  0  0  0  0  0  0
    6.3180    0.5670   17.8100 N   0  0  0  0  0  0  0  0  0  0  0  0
    5.2210    1.3380   17.7540 C   0  0  0  0  0  0  0  0  0  0  0  0
    4.5090    1.7570   18.8400 C   0  0  0  0  0  0  0  0  0  0  0  0
    4.9490    1.3730   20.0860 C   0  0  0  0  0  0  0  0  0  0  0  0
    6.0860    0.5810   20.2100 C   0  0  0  0  0  0  0  0  0  0  0  0
    6.7290    0.2030   19.0370 C   0  0  0  0  0  0  0  0  0  0  0  0
    9.8770    3.0790   23.6110 C   0  0  0  0  0  0  0  0  0  0  0  0
   10.6040    4.2780   23.7990 C   0  0  0  0  0  0  0  0  0  0  0  0
   10.0370    5.5350   23.5760 C   0  0  0  0  0  0  0  0  0  0  0  0
    8.7180    5.5940   23.1460 C   0  0  0  0  0  0  0  0  0  0  0  0
    7.9810    4.4130   22.9500 C   0  0  0  0  0  0  0  0  0  0  0  0
    8.5360    3.1450   23.1800 C   0  0  0  0  0  0  0  0  0  0  0  0
    9.2830   -2.0430   21.7540 C   0  0  0  0  0  0  0  0  0  0  0  0
   10.5460   -2.0770   22.3790 C   0  0  0  0  0  0  0  0  0  0  0  0
   10.7090   -1.6240   23.6950 C   0  0  0  0  0  0  0  0  0  0  0  0
    9.5940   -1.1540   24.3640 C   0  0  0  0  0  0  0  0  0  0  0  0
    8.3540   -1.1220   23.7430 C   0  0  0  0  0  0  0  0  0  0  0  0
    8.1480   -1.5570   22.4170 C   0  0  0  0  0  0  0  0  0  0  0  0
    2.9410   -1.9490   25.8640 C   0  0  0  0  0  0  0  0  0  0  0  0
    3.8740   -2.9640   25.8290 C   0  0  0  0  0  0  0  0  0  0  0  0
    3.5410   -4.3020   25.7170 C   0  0  0  0  0  0  0  0  0  0  0  0
    2.1860   -4.6370   25.6310 C   0  0  0  0  0  0  0  0  0  0  0  0
    1.2130   -3.6320   25.6640 C   0  0  0  0  0  0  0  0  0  0  0  0
    1.5910   -2.2870   25.7830 C   0  0  0  0  0  0  0  0  0  0  0  0
    6.3350   -4.4280   21.6460 C   0  0  0  0  0  0  0  0  0  0  0  0
    5.6370   -5.8090   21.7060 C   0  0  0  0  0  0  0  0  0  0  0  0
    4.8490   -6.0020   23.0010 C   0  0  0  0  0  0  0  0  0  0  0  0
    5.5520   -5.4170   24.1700 N   0  0  0  0  0  0  0  0  0  0  0  0
    6.9650   -4.9390   24.0640 C   0  0  0  0  0  0  0  0  0  0  0  0
    7.4750   -4.7770   22.6250 C   0  0  0  0  0  0  0  0  0  0  0  0
  2  4  1  0
  1  7  1  0
  3  7  2  0
  4  7  1  0
  1  9  1  0
  5 11  1  0
  6 11  2  0
  9 11  1  6
  8 13  1  0
 10 14  1  0
 14 15  1  6
 10 16  1  0
 17 20  2  0
 18 20  2  0
  1 21  1  0
 21 22  1  0
 23 24  2  0
 24 25  1  0
 25 26  2  0
  9 27  1  0
 26 27  1  0
 23 28  1  0
 27 28  2  0
 12 29  1  0
 29 30  2  0
  8 31  1  0
 30 31  1  0
 31 32  2  0
 32 33  1  0
  5 34  1  0
 29 34  1  0
 33 34  2  0
 35 36  2  0
 14 37  1  0
 36 37  1  0
 37 38  2  0
 38 39  1  0
  1 40  1  1
 35 40  1  0
 39 40  2  0
 19 41  1  0
 41 42  2  0
 20 43  1  0
 42 43  1  0
 43 44  2  0
 44 45  1  0
 41 46  1  0
 45 46  2  0
  2 47  1  0
 47 22  1  0
 47 48  1  0
 48 49  1  0
 20 50  1  0
 49 50  1  0
 50 51  1  0
 47 52  1  0
 51 52  1  0
M  END
