x2776-x0689
     RDKit          3D

 50 55  0  0  0  0  0  0  0  0999 V2000
    6.6770   -1.4020   21.8850 C   0  0  1  0  0  0  0  0  0  0  0  0
    6.5050   -4.1370   20.0360 C   0  0  0  0  0  0  0  0  0  0  0  0
    4.6490   -2.9080   21.4040 O   0  0  0  0  0  0  0  0  0  0  0  0
    5.9780   -2.8310   19.7380 C   0  0  0  0  0  0  0  0  0  0  0  0
    7.8010    1.9290   22.9950 N   0  0  0  0  0  0  0  0  0  0  0  0
    8.6520    1.2670   20.9770 O   0  0  0  0  0  0  0  0  0  0  0  0
    5.7410   -2.3370   21.0180 C   0  0  0  0  0  0  0  0  0  0  0  0
   10.8520    6.6120   23.8240 O   0  0  0  0  0  0  0  0  0  0  0  0
    6.5680    0.1870   21.5860 C   0  0  1  0  0  0  0  0  0  0  0  0
   12.3620   -2.9540   24.8350 O   0  0  0  0  0  0  0  0  0  0  0  0
    7.7780    1.1720   21.8450 C   0  0  0  0  0  0  0  0  0  0  0  0
   10.5640    1.7720   23.8980 C   0  0  0  0  0  0  0  0  0  0  0  0
   11.8130    6.5050   24.8730 C   0  0  0  0  0  0  0  0  0  0  0  0
   12.0280   -1.6350   24.4100 C   0  0  1  0  0  0  0  0  0  0  0  0
   13.0930   -1.0820   23.4740 C   0  0  0  0  0  0  0  0  0  0  0  0
   13.6300   -2.9990   25.4280 C   0  0  0  0  0  0  0  0  0  0  0  0
    4.1990   -6.4400   25.7600 O   0  0  0  0  0  0  0  0  0  0  0  0
    5.7530   -4.6640   26.5870 O   0  0  0  0  0  0  0  0  0  0  0  0
    4.8590   -5.1660   25.5720 S   0  0  0  0  0  0  0  0  0  0  0  0
    5.8990   -2.0330   23.0290 C   0  0  0  0  0  0  0  0  0  0  0  0
    5.3700   -3.4140   22.5020 C   0  0  0  0  0  0  0  0  0  0  0  0
    6.3150    0.5800   17.8100 N   0  0  0  0  0  0  0  0  0  0  0  0
    5.2210    1.3530   17.7550 C   0  0  0  0  0  0  0  0  0  0  0  0
    4.5080    1.7720   18.8440 C   0  0  0  0  0  0  0  0  0  0  0  0
    4.9480    1.3820   20.0910 C   0  0  0  0  0  0  0  0  0  0  0  0
    6.0830    0.5890   20.2120 C   0  0  0  0  0  0  0  0  0  0  0  0
    6.7250    0.2120   19.0370 C   0  0  0  0  0  0  0  0  0  0  0  0
    9.8690    3.0760   23.6210 C   0  0  0  0  0  0  0  0  0  0  0  0
   10.5950    4.2770   23.8130 C   0  0  0  0  0  0  0  0  0  0  0  0
   10.0300    5.5310   23.5860 C   0  0  0  0  0  0  0  0  0  0  0  0
    8.7140    5.5930   23.1460 C   0  0  0  0  0  0  0  0  0  0  0  0
    7.9770    4.4100   22.9470 C   0  0  0  0  0  0  0  0  0  0  0  0
    8.5310    3.1430   23.1820 C   0  0  0  0  0  0  0  0  0  0  0  0
    9.2850   -2.0610   21.7470 C   0  0  0  0  0  0  0  0  0  0  0  0
   10.5450   -2.0990   22.3750 C   0  0  0  0  0  0  0  0  0  0  0  0
   10.7080   -1.6420   23.6880 C   0  0  0  0  0  0  0  0  0  0  0  0
    9.5950   -1.1620   24.3540 C   0  0  0  0  0  0  0  0  0  0  0  0
    8.3580   -1.1260   23.7300 C   0  0  0  0  0  0  0  0  0  0  0  0
    8.1500   -1.5650   22.4060 C   0  0  0  0  0  0  0  0  0  0  0  0
    6.2610   -4.4630   21.6420 C   0  0  0  0  0  0  0  0  0  0  0  0
    5.6670   -5.7080   21.7720 C   0  0  0  0  0  0  0  0  0  0  0  0
    4.9950   -5.9540   22.9630 C   0  0  0  0  0  0  0  0  0  0  0  0
    5.6520   -5.1960   24.0590 N   0  0  0  0  0  0  0  0  0  0  0  0
    7.0970   -4.8090   23.9140 C   0  0  0  0  0  0  0  0  0  0  0  0
    7.5050   -4.6390   22.5680 C   0  0  0  0  0  0  0  0  0  0  0  0
    3.9810   -2.3150   25.9270 S   0  0  0  0  0  0  0  0  0  0  0  0
    3.5440   -3.9460   25.5610 C   0  0  0  0  0  0  0  0  0  0  0  0
    2.1890   -4.1090   25.3040 C   0  0  0  0  0  0  0  0  0  0  0  0
    1.4220   -2.7700   25.4230 C   0  0  0  0  0  0  0  0  0  0  0  0
    2.4000   -1.6740   25.7840 C   0  0  0  0  0  0  0  0  0  0  0  0
  2  4  1  0
  1  7  1  0
  3  7  2  0
  4  7  1  0
  1  9  1  0
  5 11  1  0
  6 11  2  0
  9 11  1  6
  8 13  1  0
 10 14  1  0
 14 15  1  6
 10 16  1  0
 17 19  2  0
 18 19  2  0
  1 20  1  0
 20 21  1  0
 22 23  2  0
 23 24  1  0
 24 25  2  0
  9 26  1  0
 25 26  1  0
 22 27  1  0
 26 27  2  0
 12 28  1  0
 28 29  2  0
  8 30  1  0
 29 30  1  0
 30 31  2  0
 31 32  1  0
  5 33  1  0
 28 33  1  0
 32 33  2  0
 34 35  2  0
 14 36  1  0
 35 36  1  0
 36 37  2  0
 37 38  1  0
  1 39  1  1
 34 39  1  0
 38 39  2  0
  2 40  1  0
 40 21  1  0
 40 41  1  0
 41 42  1  0
 19 43  1  0
 42 43  1  0
 43 44  1  0
 40 45  1  0
 44 45  1  0
 19 47  1  0
 46 47  1  0
 47 48  2  0
 48 49  1  0
 46 50  1  0
 49 50  2  0
M  END
