x2776-x0981
     RDKit          3D

 46 48  0  0  0  0  0  0  0  0999 V2000
    6.9190   -1.7500   21.7090 N   0  0  0  0  0  0  0  0  0  0  0  0
    6.6990   -5.1640   20.3430 C   0  0  0  0  0  0  0  0  0  0  0  0
    4.7760   -2.9230   21.0940 O   0  0  0  0  0  0  0  0  0  0  0  0
    6.3760   -4.4200   21.6280 C   0  0  1  0  0  0  0  0  0  0  0  0
    7.6670    1.7650   22.7830 N   0  0  0  0  0  0  0  0  0  0  0  0
    9.0030    0.5140   21.3780 O   0  0  0  0  0  0  0  0  0  0  0  0
    5.9870   -2.9370   21.4790 C   0  0  0  0  0  0  0  0  0  0  0  0
   10.7560    6.4810   23.7980 O   0  0  0  0  0  0  0  0  0  0  0  0
    6.6380   -0.2360   21.5180 C   0  0  1  0  0  0  0  0  0  0  0  0
   12.4060   -2.9220   24.9180 O   0  0  0  0  0  0  0  0  0  0  0  0
    7.9010    0.7010   21.8800 C   0  0  0  0  0  0  0  0  0  0  0  0
   10.4250    1.6460   23.9200 C   0  0  0  0  0  0  0  0  0  0  0  0
   11.7860    6.3630   24.7830 C   0  0  0  0  0  0  0  0  0  0  0  0
   12.0020   -1.6160   24.5250 C   0  0  1  0  0  0  0  0  0  0  0  0
   13.0520   -1.0130   23.6040 C   0  0  0  0  0  0  0  0  0  0  0  0
   13.6830   -2.9440   25.4940 C   0  0  0  0  0  0  0  0  0  0  0  0
    1.3510   -8.4800   21.7150 C   0  0  0  0  0  0  0  0  0  0  0  0
    2.8970   -6.9720   22.6990 N   0  0  0  0  0  0  0  0  0  0  0  0
    0.4580   -6.4080   22.3490 O   0  0  0  0  0  0  0  0  0  0  0  0
    1.6260   -7.2480   22.2980 C   0  0  0  0  0  0  0  0  0  0  0  0
    2.4670   -8.0560   26.1570 N   0  0  0  0  0  0  0  0  0  0  0  0
    4.0440   -8.1040   24.5320 O   0  0  0  0  0  0  0  0  0  0  0  0
    3.1570   -5.8250   23.6060 C   0  0  1  0  0  0  0  0  0  0  0  0
    5.1590   -5.2150   22.0990 N   0  0  0  0  0  0  0  0  0  0  0  0
    5.2750   -4.8180   24.3300 O   0  0  0  0  0  0  0  0  0  0  0  0
    3.0630   -6.1200   24.9820 C   0  0  0  0  0  0  0  0  0  0  0  0
    3.2360   -7.4720   25.1880 C   0  0  0  0  0  0  0  0  0  0  0  0
    4.6270   -5.2500   23.3830 C   0  0  0  0  0  0  0  0  0  0  0  0
    6.3740    0.4660   17.8170 N   0  0  0  0  0  0  0  0  0  0  0  0
    5.2620    1.2260   17.8030 C   0  0  0  0  0  0  0  0  0  0  0  0
    4.5240    1.5500   18.9230 C   0  0  0  0  0  0  0  0  0  0  0  0
    4.9550    1.0730   20.1410 C   0  0  0  0  0  0  0  0  0  0  0  0
    6.1150    0.2840   20.1970 C   0  0  0  0  0  0  0  0  0  0  0  0
    6.7900    0.0010   19.0140 C   0  0  0  0  0  0  0  0  0  0  0  0
    9.7400    2.9380   23.5620 C   0  0  0  0  0  0  0  0  0  0  0  0
   10.4750    4.1220   23.8000 C   0  0  0  0  0  0  0  0  0  0  0  0
    9.9520    5.3920   23.5180 C   0  0  0  0  0  0  0  0  0  0  0  0
    8.6600    5.4340   22.9770 C   0  0  0  0  0  0  0  0  0  0  0  0
    7.9150    4.2630   22.7300 C   0  0  0  0  0  0  0  0  0  0  0  0
    8.4250    2.9800   23.0160 C   0  0  0  0  0  0  0  0  0  0  0  0
    9.3830   -2.1480   21.8110 C   0  0  0  0  0  0  0  0  0  0  0  0
   10.6240   -2.1190   22.4640 C   0  0  0  0  0  0  0  0  0  0  0  0
   10.7050   -1.6860   23.7870 C   0  0  0  0  0  0  0  0  0  0  0  0
    9.3890   -1.2760   24.4460 C   0  0  0  0  0  0  0  0  0  0  0  0
    8.2030   -1.3310   23.7460 C   0  0  0  0  0  0  0  0  0  0  0  0
    8.1810   -1.7590   22.4160 C   0  0  0  0  0  0  0  0  0  0  0  0
  4  2  1  6
  1  7  1  0
  3  7  2  0
  4  7  1  0
  1  9  1  0
  5 11  1  0
  6 11  2  0
  9 11  1  6
  8 13  1  0
 10 14  1  0
 14 15  1  6
 10 16  1  0
 17 20  1  0
 18 20  1  0
 19 20  2  0
 18 23  1  0
  4 24  1  0
 23 26  1  1
 21 27  1  0
 22 27  2  0
 26 27  1  0
 23 28  1  0
 24 28  1  0
 25 28  2  0
 29 30  2  0
 30 31  1  0
 31 32  2  0
  9 33  1  0
 32 33  1  0
 29 34  1  0
 33 34  2  0
 12 35  1  0
 35 36  2  0
  8 37  1  0
 36 37  1  0
 37 38  2  0
 38 39  1  0
  5 40  1  0
 35 40  1  0
 39 40  2  0
 41 42  2  0
 14 43  1  0
 42 43  1  0
 43 44  2  0
 44 45  1  0
  1 46  1  0
 41 46  1  0
 45 46  2  0
M  END
