x2776-x0426
     RDKit          3D

 46 49  0  0  0  0  0  0  0  0999 V2000
    6.8470   -1.5520   21.8590 N   0  0  0  0  0  0  0  0  0  0  0  0
    6.7930   -4.9650   20.4980 C   0  0  0  0  0  0  0  0  0  0  0  0
    4.8060   -2.9690   21.1610 O   0  0  0  0  0  0  0  0  0  0  0  0
    6.7510   -4.0930   21.7320 C   0  0  0  0  0  0  0  0  0  0  0  0
    7.6100    1.8960   22.8190 N   0  0  0  0  0  0  0  0  0  0  0  0
    8.9020    0.6760   21.3480 O   0  0  0  0  0  0  0  0  0  0  0  0
    6.0450   -2.7750   21.5600 C   0  0  0  0  0  0  0  0  0  0  0  0
   10.7810    6.5230   23.7590 O   0  0  0  0  0  0  0  0  0  0  0  0
    6.5480   -0.0760   21.5860 C   0  0  1  0  0  0  0  0  0  0  0  0
   12.2910   -2.7280   25.1980 O   0  0  0  0  0  0  0  0  0  0  0  0
    7.8200    0.8520   21.8980 C   0  0  0  0  0  0  0  0  0  0  0  0
   10.4860    1.6890   23.8910 C   0  0  0  0  0  0  0  0  0  0  0  0
   11.7890    6.4170   24.7660 C   0  0  0  0  0  0  0  0  0  0  0  0
   12.2460   -1.9360   24.0180 C   0  0  2  0  0  0  0  0  0  0  0  0
   12.7980   -0.5620   24.3340 C   0  0  0  0  0  0  0  0  0  0  0  0
   13.6200   -3.0250   25.5540 C   0  0  0  0  0  0  0  0  0  0  0  0
    2.3310    1.8450   23.7980 C   0  0  0  0  0  0  0  0  0  0  0  0
    2.2520    0.4280   23.7470 O   0  0  0  0  0  0  0  0  0  0  0  0
    3.3760    2.5560   23.1890 N   0  0  0  0  0  0  0  0  0  0  0  0
    4.2820    1.9660   22.3840 C   0  0  0  0  0  0  0  0  0  0  0  0
    3.6890    1.2380   21.1740 C   0  0  0  0  0  0  0  0  0  0  0  0
    2.7500    4.3590   25.2480 F   0  0  0  0  0  0  0  0  0  0  0  0
    6.4490    0.5680   17.8690 N   0  0  0  0  0  0  0  0  0  0  0  0
    5.2560    1.1460   17.7810 C   0  0  0  0  0  0  0  0  0  0  0  0
    4.3740    1.3670   18.7930 C   0  0  0  0  0  0  0  0  0  0  0  0
    4.7430    0.9680   20.0620 C   0  0  0  0  0  0  0  0  0  0  0  0
    6.0020    0.3670   20.2500 C   0  0  0  0  0  0  0  0  0  0  0  0
    6.7900    0.1920   19.1150 C   0  0  0  0  0  0  0  0  0  0  0  0
    9.7730    2.9810   23.5540 C   0  0  0  0  0  0  0  0  0  0  0  0
   10.5070    4.1790   23.7650 C   0  0  0  0  0  0  0  0  0  0  0  0
    9.9660    5.4410   23.5010 C   0  0  0  0  0  0  0  0  0  0  0  0
    8.6700    5.5020   23.0070 C   0  0  0  0  0  0  0  0  0  0  0  0
    7.9240    4.3250   22.7870 C   0  0  0  0  0  0  0  0  0  0  0  0
    8.4500    3.0460   23.0570 C   0  0  0  0  0  0  0  0  0  0  0  0
    9.2720   -2.0300   21.6770 C   0  0  0  0  0  0  0  0  0  0  0  0
   10.5600   -2.1130   22.2080 C   0  0  0  0  0  0  0  0  0  0  0  0
   10.8250   -1.8300   23.5380 C   0  0  0  0  0  0  0  0  0  0  0  0
    9.7400   -1.4570   24.3420 C   0  0  0  0  0  0  0  0  0  0  0  0
    8.4480   -1.3790   23.7940 C   0  0  0  0  0  0  0  0  0  0  0  0
    8.1750   -1.6590   22.4400 C   0  0  0  0  0  0  0  0  0  0  0  0
    1.5230    3.8210   25.2080 C   0  0  0  0  0  0  0  0  0  0  0  0
    1.2780    2.6170   24.5250 C   0  0  0  0  0  0  0  0  0  0  0  0
   -0.0270    2.1430   24.5470 C   0  0  0  0  0  0  0  0  0  0  0  0
   -1.0460    2.8040   25.1990 C   0  0  0  0  0  0  0  0  0  0  0  0
   -0.7980    3.9810   25.8640 C   0  0  0  0  0  0  0  0  0  0  0  0
    0.4920    4.5190   25.8860 C   0  0  0  0  0  0  0  0  0  0  0  0
  2  4  1  0
  1  7  1  0
  3  7  2  0
  4  7  1  0
  1  9  1  0
  5 11  1  0
  6 11  2  0
  9 11  1  6
  8 13  1  0
 10 14  1  0
 14 15  1  1
 10 16  1  0
 17 18  2  0
 17 19  1  0
 19 20  1  0
 20 21  1  0
 23 24  2  0
 24 25  1  0
 21 26  1  0
 25 26  2  0
  9 27  1  0
 26 27  1  0
 23 28  1  0
 27 28  2  0
 12 29  1  0
 29 30  2  0
  8 31  1  0
 30 31  1  0
 31 32  2  0
 32 33  1  0
  5 34  1  0
 29 34  1  0
 33 34  2  0
 35 36  2  0
 14 37  1  0
 36 37  1  0
 37 38  2  0
 38 39  1  0
  1 40  1  0
 35 40  1  0
 39 40  2  0
 22 41  1  0
 17 42  1  0
 41 42  2  0
 42 43  1  0
 43 44  2  0
 44 45  1  0
 41 46  1  0
 45 46  2  0
M  END
