x2776-x2569
     RDKit          3D

 37 39  0  0  0  0  0  0  0  0999 V2000
    6.8610   -1.5140   21.7500 N   0  0  0  0  0  0  0  0  0  0  0  0
    6.7770   -4.8350   20.3380 C   0  0  0  0  0  0  0  0  0  0  0  0
    4.7950   -2.9640   21.1880 O   0  0  0  0  0  0  0  0  0  0  0  0
    6.7980   -4.0340   21.6100 C   0  0  0  0  0  0  0  0  0  0  0  0
    7.7110    1.8540   22.8460 N   0  0  0  0  0  0  0  0  0  0  0  0
    8.9570    0.6710   21.3170 O   0  0  0  0  0  0  0  0  0  0  0  0
    6.0550   -2.7420   21.5040 C   0  0  0  0  0  0  0  0  0  0  0  0
   10.8200    6.5190   23.7340 O   0  0  0  0  0  0  0  0  0  0  0  0
    6.5960   -0.0320   21.5170 C   0  0  1  0  0  0  0  0  0  0  0  0
   12.2420   -2.8340   25.0920 O   0  0  0  0  0  0  0  0  0  0  0  0
    7.8850    0.8490   21.8780 C   0  0  0  0  0  0  0  0  0  0  0  0
   10.4870    1.6990   23.8750 C   0  0  0  0  0  0  0  0  0  0  0  0
   11.8280    6.4140   24.7400 C   0  0  0  0  0  0  0  0  0  0  0  0
   11.8250   -1.5200   24.7120 C   0  0  1  0  0  0  0  0  0  0  0  0
   12.8550   -0.9890   23.7810 C   0  0  0  0  0  0  0  0  0  0  0  0
   13.6010   -2.9320   25.4640 C   0  0  0  0  0  0  0  0  0  0  0  0
    6.3280    0.5950   17.7730 N   0  0  0  0  0  0  0  0  0  0  0  0
    5.2250    1.3710   17.6930 C   0  0  0  0  0  0  0  0  0  0  0  0
    4.4910    1.7230   18.7740 C   0  0  0  0  0  0  0  0  0  0  0  0
    4.9480    1.2320   20.1050 C   0  0  0  0  0  0  0  0  0  0  0  0
    6.0850    0.4490   20.1920 C   0  0  0  0  0  0  0  0  0  0  0  0
    6.7280    0.1580   18.9980 C   0  0  0  0  0  0  0  0  0  0  0  0
    9.8070    2.9980   23.5450 C   0  0  0  0  0  0  0  0  0  0  0  0
   10.5600    4.1820   23.7550 C   0  0  0  0  0  0  0  0  0  0  0  0
   10.0050    5.4360   23.4840 C   0  0  0  0  0  0  0  0  0  0  0  0
    8.7090    5.5040   22.9940 C   0  0  0  0  0  0  0  0  0  0  0  0
    7.9560    4.3280   22.7780 C   0  0  0  0  0  0  0  0  0  0  0  0
    8.4770    3.0590   23.0490 C   0  0  0  0  0  0  0  0  0  0  0  0
    9.2880   -1.9570   21.9020 C   0  0  0  0  0  0  0  0  0  0  0  0
   10.4960   -1.9600   22.5990 C   0  0  0  0  0  0  0  0  0  0  0  0
   10.5420   -1.5520   23.9410 C   0  0  0  0  0  0  0  0  0  0  0  0
    9.3570   -1.1640   24.5490 C   0  0  0  0  0  0  0  0  0  0  0  0
    8.1540   -1.1630   23.8580 C   0  0  0  0  0  0  0  0  0  0  0  0
    8.0910   -1.5500   22.5190 C   0  0  0  0  0  0  0  0  0  0  0  0
   13.7590   -1.3280   20.5450 N   0  0  0  0  0  0  0  0  0  0  0  0
   13.4460   -1.6540   21.5720 C   0  0  0  0  0  0  0  0  0  0  0  0
   13.1950   -2.0900   22.8360 C   0  0  0  0  0  0  0  0  0  0  0  0
  2  4  1  0
  1  7  1  0
  3  7  2  0
  4  7  1  0
  1  9  1  0
  5 11  1  0
  6 11  2  0
  9 11  1  6
  8 13  1  0
 10 14  1  0
 14 15  1  6
 10 16  1  0
 17 18  2  0
 18 19  1  0
 19 20  2  0
  9 21  1  0
 20 21  1  0
 17 22  1  0
 21 22  2  0
 12 23  1  0
 23 24  2  0
  8 25  1  0
 24 25  1  0
 25 26  2  0
 26 27  1  0
  5 28  1  0
 23 28  1  0
 27 28  2  0
 29 30  2  0
 14 31  1  0
 30 31  1  0
 31 32  2  0
 32 33  1  0
  1 34  1  0
 29 34  1  0
 33 34  2  0
 35 36  3  0
 15 37  1  0
 36 37  1  0
M  END
