x2779-x0540
     RDKit          3D

 34 37  0  0  0  0  0  0  0  0999 V2000
    2.8590    1.4460   24.5680 O   0  0  0  0  0  0  0  0  0  0  0  0
    2.9680    2.1550   23.5660 C   0  0  0  0  0  0  0  0  0  0  0  0
    4.0330    1.9810   22.6490 N   0  0  0  0  0  0  0  0  0  0  0  0
    5.0890    1.1420   23.0030 C   0  0  0  0  0  0  0  0  0  0  0  0
    5.2500   -0.2860   22.4320 C   0  0  0  0  0  0  0  0  0  0  0  0
    2.0930    3.1790   23.2200 N   0  0  0  0  0  0  0  0  0  0  0  0
    7.2840   -2.9940   18.8390 C   0  0  0  0  0  0  0  0  0  0  0  0
    5.4400   -4.1480   19.7790 O   0  0  0  0  0  0  0  0  0  0  0  0
    6.3360   -3.3110   19.9740 C   0  0  0  0  0  0  0  0  0  0  0  0
   10.0420   -2.7600   23.4200 C   0  0  0  0  0  0  0  0  0  0  0  0
    6.5170   -0.2990   21.4780 C   0  0  2  0  0  0  0  0  0  0  0  0
    6.0660    0.2890   20.1470 C   0  0  0  0  0  0  0  0  0  0  0  0
    6.8790    0.0460   18.8870 C   0  0  0  0  0  0  0  0  0  0  0  0
    6.3900    0.6730   17.6390 N   0  0  0  0  0  0  0  0  0  0  0  0
    5.1410    1.4730   17.7650 C   0  0  0  0  0  0  0  0  0  0  0  0
    4.4500    1.6340   18.9520 C   0  0  0  0  0  0  0  0  0  0  0  0
    4.8990    1.0540   20.1300 C   0  0  0  0  0  0  0  0  0  0  0  0
    0.7410    4.5500   24.4370 C   0  0  0  0  0  0  0  0  0  0  0  0
   -0.4590    4.7730   25.1320 C   0  0  0  0  0  0  0  0  0  0  0  0
   -1.5670    4.6140   24.2930 C   0  0  0  0  0  0  0  0  0  0  0  0
   -1.6330    3.2960   23.8480 C   0  0  0  0  0  0  0  0  0  0  0  0
   -0.4620    3.0050   22.9290 C   0  0  0  0  0  0  0  0  0  0  0  0
    0.7860    3.2950   23.8010 C   0  0  0  0  0  0  0  0  0  0  0  0
    6.5290   -2.6690   21.2190 N   0  0  0  0  0  0  0  0  0  0  0  0
    7.3310   -1.5820   21.2070 C   0  0  2  0  0  0  0  0  0  0  0  0
    8.6170   -1.6580   21.7790 C   0  0  0  0  0  0  0  0  0  0  0  0
    8.6420   -2.4080   23.0610 N   0  0  0  0  0  0  0  0  0  0  0  0
    7.9590   -3.5700   22.9090 C   0  0  0  0  0  0  0  0  0  0  0  0
    6.6680   -3.3660   22.3590 C   0  0  0  0  0  0  0  0  0  0  0  0
   12.3880   -1.6850   22.9710 C   0  0  0  0  0  0  0  0  0  0  0  0
   11.0340   -1.6360   23.2720 C   0  0  0  0  0  0  0  0  0  0  0  0
   10.5180   -0.0130   23.4820 S   0  0  0  0  0  0  0  0  0  0  0  0
   12.0550    0.6220   23.1860 C   0  0  0  0  0  0  0  0  0  0  0  0
   12.9580   -0.3850   22.9250 C   0  0  0  0  0  0  0  0  0  0  0  0
  1  2  2  0
  2  3  1  0
  3  4  1  0
  4  5  1  0
  2  6  1  0
  7  9  1  0
  8  9  2  0
 11  5  1  1
 11 12  1  0
 12 13  2  0
 13 14  1  0
 14 15  2  0
 15 16  1  0
 12 17  1  0
 16 17  2  0
 18 19  1  0
 19 20  1  0
 20 21  1  0
 21 22  1  0
  6 23  1  0
 18 23  1  0
 22 23  1  0
  9 24  1  0
 11 25  1  0
 24 25  1  0
 25 26  1  1
 10 27  1  0
 26 27  1  0
 27 28  1  0
 24 29  1  0
 28 29  1  0
 10 31  1  0
 30 31  2  0
 31 32  1  0
 32 33  1  0
 30 34  1  0
 33 34  2  0
M  END
