x2779-x3108
     RDKit          3D

 35 40  0  0  0  0  0  0  0  0999 V2000
    5.8460    1.5050   21.9240 C   0  0  0  0  0  0  0  0  0  0  0  0
    8.9030    1.7510   20.9050 O   0  0  0  0  0  0  0  0  0  0  0  0
    7.7480   -0.2930   21.0390 N   0  0  0  0  0  0  0  0  0  0  0  0
    8.4600    0.1960   25.5580 O   0  0  0  0  0  0  0  0  0  0  0  0
    9.2390   -0.8230   23.3200 C   0  0  1  0  0  0  0  0  0  0  0  0
    8.5860    0.7290   21.5020 C   0  0  0  0  0  0  0  0  0  0  0  0
    9.1010    0.5310   22.8730 C   0  0  0  0  0  0  0  0  0  0  0  0
    8.5500   -0.8670   24.6280 C   0  0  0  0  0  0  0  0  0  0  0  0
    7.8500   -2.1410   24.9260 C   0  0  2  0  0  0  0  0  0  0  0  0
    7.5090   -2.9100   18.6350 C   0  0  0  0  0  0  0  0  0  0  0  0
    5.5370   -3.7660   19.5840 O   0  0  0  0  0  0  0  0  0  0  0  0
    6.5670   -3.0730   19.7830 C   0  0  0  0  0  0  0  0  0  0  0  0
    6.1380    0.3190   17.6890 N   0  0  0  0  0  0  0  0  0  0  0  0
    7.0400   -0.2340   18.6980 C   0  0  0  0  0  0  0  0  0  0  0  0
    6.8960    0.1800   20.0030 C   0  0  0  0  0  0  0  0  0  0  0  0
    5.9600    1.0860   20.4850 C   0  0  0  0  0  0  0  0  0  0  0  0
    5.0750    1.6480   19.5960 C   0  0  0  0  0  0  0  0  0  0  0  0
    5.1430    1.2740   18.1320 C   0  0  0  0  0  0  0  0  0  0  0  0
   10.2680   -5.0800   25.6820 N   0  0  0  0  0  0  0  0  0  0  0  0
    9.7160   -3.8350   25.1370 C   0  0  0  0  0  0  0  0  0  0  0  0
    8.3410   -3.4030   25.5230 C   0  0  0  0  0  0  0  0  0  0  0  0
    7.5300   -4.2470   26.4720 C   0  0  0  0  0  0  0  0  0  0  0  0
    8.1490   -5.5280   26.9950 C   0  0  0  0  0  0  0  0  0  0  0  0
    9.5660   -5.8740   26.5220 C   0  0  0  0  0  0  0  0  0  0  0  0
    6.9050   -2.5620   21.0720 N   0  0  0  0  0  0  0  0  0  0  0  0
    7.9910   -1.6880   21.3540 C   0  0  2  0  0  0  0  0  0  0  0  0
    8.4610   -1.9990   22.6480 C   0  0  2  0  0  0  0  0  0  0  0  0
    7.4870   -2.3590   23.5410 N   0  0  0  0  0  0  0  0  0  0  0  0
    6.8560   -3.4770   23.2570 C   0  0  0  0  0  0  0  0  0  0  0  0
    7.0160   -3.6280   21.9010 C   0  0  0  0  0  0  0  0  0  0  0  0
   11.6890   -1.3340   22.5340 C   0  0  0  0  0  0  0  0  0  0  0  0
   10.7040   -0.9940   23.4740 C   0  0  0  0  0  0  0  0  0  0  0  0
   11.3020   -0.7100   25.0460 S   0  0  0  0  0  0  0  0  0  0  0  0
   12.8630   -1.0550   24.4270 C   0  0  0  0  0  0  0  0  0  0  0  0
   12.9720   -1.3680   23.0920 C   0  0  0  0  0  0  0  0  0  0  0  0
  2  6  2  0
  3  6  1  0
  5  7  1  0
  6  7  1  0
  4  8  2  0
  5  8  1  0
  8  9  1  0
 10 12  1  0
 11 12  2  0
 13 14  2  0
  3 15  1  0
 14 15  1  0
  1 16  1  0
 15 16  2  0
 16 17  1  0
 13 18  1  0
 17 18  2  0
 19 20  2  0
  9 21  1  6
 20 21  1  0
 21 22  2  0
 22 23  1  0
 19 24  1  0
 23 24  2  0
 12 25  1  0
 26  3  1  1
 25 26  1  0
  5 27  1  0
 26 27  1  0
  9 28  1  0
 27 28  1  1
 28 29  1  0
 25 30  1  0
 29 30  1  0
  5 32  1  1
 31 32  2  0
 32 33  1  0
 33 34  1  0
 31 35  1  0
 34 35  2  0
M  END
