x2779-x1382
     RDKit          3D

 18 19  0  0  0  0  0  0  0  0999 V2000
   13.3700   -2.2010   21.0460 Cl  0  0  0  0  0  0  0  0  0  0  0  0
    7.8050   -0.5640   23.3350 C   0  0  0  0  0  0  0  0  0  0  0  0
    7.4160   -1.2210   19.8670 O   0  0  0  0  0  0  0  0  0  0  0  0
    7.5030   -3.6890   20.2570 C   0  0  0  0  0  0  0  0  0  0  0  0
    5.2880   -3.6450   19.3450 O   0  0  0  0  0  0  0  0  0  0  0  0
    6.0750   -4.1420   20.1260 C   0  0  0  0  0  0  0  0  0  0  0  0
    9.9960   -1.2240   23.0720 C   0  0  0  0  0  0  0  0  0  0  0  0
   11.0030   -1.8410   22.1470 C   0  0  0  0  0  0  0  0  0  0  0  0
   12.4060   -1.4220   22.1600 C   0  0  0  0  0  0  0  0  0  0  0  0
   12.8950   -0.3510   23.1150 C   0  0  0  0  0  0  0  0  0  0  0  0
   11.8410    0.2530   24.0570 C   0  0  0  0  0  0  0  0  0  0  0  0
   10.3870   -0.2370   23.9840 C   0  0  0  0  0  0  0  0  0  0  0  0
    6.4790   -2.2230   21.7900 N   0  0  0  0  0  0  0  0  0  0  0  0
    7.5640   -2.2300   20.8620 C   0  0  2  0  0  0  0  0  0  0  0  0
    8.7440   -1.9530   21.4890 C   0  0  0  0  0  0  0  0  0  0  0  0
    8.5910   -1.7440   22.8530 C   0  0  2  0  0  0  0  0  0  0  0  0
    8.1000   -2.9200   23.4000 C   0  0  0  0  0  0  0  0  0  0  0  0
    6.8230   -3.1230   22.8540 C   0  0  0  0  0  0  0  0  0  0  0  0
  4  6  1  0
  5  6  2  0
  7  8  2  0
  1  9  1  0
  8  9  1  0
  9 10  2  0
 10 11  1  0
  7 12  1  0
 11 12  2  0
 14  3  1  6
  4 14  1  0
 13 14  1  0
 14 15  1  0
 16  2  1  6
  7 16  1  0
 15 16  1  0
 16 17  1  0
 13 18  1  0
 17 18  1  0
M  END
