x2776-x0734
     RDKit          3D

 48 53  0  0  0  0  0  0  0  0999 V2000
    6.9160   -1.5430   21.4850 C   0  0  1  0  0  0  0  0  0  0  0  0
    5.6690   -2.9900   19.4080 O   0  0  0  0  0  0  0  0  0  0  0  0
    7.6710    1.8160   22.8440 N   0  0  0  0  0  0  0  0  0  0  0  0
    8.6930    1.1080   20.9140 O   0  0  0  0  0  0  0  0  0  0  0  0
    6.5000   -2.7730   20.4270 C   0  0  0  0  0  0  0  0  0  0  0  0
   10.6850    6.5570   23.8790 O   0  0  0  0  0  0  0  0  0  0  0  0
    6.5810   -0.0450   21.3420 C   0  0  1  0  0  0  0  0  0  0  0  0
   12.4410   -2.7700   24.8120 O   0  0  0  0  0  0  0  0  0  0  0  0
    7.7420    0.9640   21.6610 C   0  0  0  0  0  0  0  0  0  0  0  0
   10.4590    1.5870   23.8630 C   0  0  0  0  0  0  0  0  0  0  0  0
   11.6730    6.5140   24.6250 C   0  0  0  0  0  0  0  0  0  0  0  0
   12.0900   -1.4280   24.4640 C   0  0  1  0  0  0  0  0  0  0  0  0
   13.1300   -0.8740   23.4780 C   0  0  0  0  0  0  0  0  0  0  0  0
   13.6800   -2.8720   25.4600 C   0  0  0  0  0  0  0  0  0  0  0  0
    5.0330   -4.6930   25.9650 N   0  0  0  0  0  0  0  0  0  0  0  0
    4.2120   -5.4970   25.5040 O   0  0  0  0  0  0  0  0  0  0  0  0
    4.7450   -3.7620   26.7290 O   0  0  0  0  0  0  0  0  0  0  0  0
    6.3120   -2.2280   22.6550 C   0  0  0  0  0  0  0  0  0  0  0  0
    6.3430    0.7510   17.6140 N   0  0  0  0  0  0  0  0  0  0  0  0
    5.1760    1.5960   17.5960 C   0  0  0  0  0  0  0  0  0  0  0  0
    4.4210    1.8960   18.8690 C   0  0  0  0  0  0  0  0  0  0  0  0
    4.9500    1.2910   20.1460 C   0  0  0  0  0  0  0  0  0  0  0  0
    6.0850    0.5070   20.0460 C   0  0  0  0  0  0  0  0  0  0  0  0
    6.6930    0.2870   18.8220 C   0  0  0  0  0  0  0  0  0  0  0  0
    9.7640    2.9300   23.5840 C   0  0  0  0  0  0  0  0  0  0  0  0
   10.5170    4.0820   23.8370 C   0  0  0  0  0  0  0  0  0  0  0  0
   10.0120    5.3790   23.6370 C   0  0  0  0  0  0  0  0  0  0  0  0
    8.7010    5.4950   23.1500 C   0  0  0  0  0  0  0  0  0  0  0  0
    7.9740    4.3160   22.9020 C   0  0  0  0  0  0  0  0  0  0  0  0
    8.4440    3.0110   23.1010 C   0  0  0  0  0  0  0  0  0  0  0  0
    9.5470   -2.0630   21.7380 C   0  0  0  0  0  0  0  0  0  0  0  0
   10.7410   -2.0120   22.4840 C   0  0  0  0  0  0  0  0  0  0  0  0
   10.7750   -1.4320   23.7440 C   0  0  0  0  0  0  0  0  0  0  0  0
    9.6130   -0.9000   24.2540 C   0  0  0  0  0  0  0  0  0  0  0  0
    8.4600   -0.9660   23.4830 C   0  0  0  0  0  0  0  0  0  0  0  0
    8.3420   -1.5350   22.2070 C   0  0  0  0  0  0  0  0  0  0  0  0
    6.4160   -5.1090   25.9050 C   0  0  0  0  0  0  0  0  0  0  0  0
    7.1980   -5.0160   24.7380 C   0  0  0  0  0  0  0  0  0  0  0  0
    8.5480   -5.4430   24.7440 C   0  0  0  0  0  0  0  0  0  0  0  0
    9.1900   -5.9860   25.8990 C   0  0  0  0  0  0  0  0  0  0  0  0
    8.3480   -6.0790   27.1630 C   0  0  0  0  0  0  0  0  0  0  0  0
    6.9270   -5.6120   27.1010 C   0  0  0  0  0  0  0  0  0  0  0  0
    7.3180   -3.9410   20.5680 C   0  0  2  0  0  0  0  0  0  0  0  0
    6.5640   -5.2520   21.0820 C   0  0  0  0  0  0  0  0  0  0  0  0
    6.0760   -5.3490   22.4400 C   0  0  0  0  0  0  0  0  0  0  0  0
    6.7740   -4.4960   23.4630 N   0  0  0  0  0  0  0  0  0  0  0  0
    7.3870   -3.2880   22.9560 C   0  0  1  0  0  0  0  0  0  0  0  0
    8.1900   -3.5520   21.7810 C   0  0  0  0  0  0  0  0  0  0  0  0
  1  5  1  0
  2  5  2  0
  1  7  1  0
  3  9  1  0
  4  9  2  0
  7  9  1  6
  6 11  1  0
  8 12  1  0
 12 13  1  6
  8 14  1  0
 15 16  2  0
 15 17  1  0
  1 18  1  0
 19 20  2  0
 20 21  1  0
 21 22  2  0
  7 23  1  0
 22 23  1  0
 19 24  1  0
 23 24  2  0
 10 25  1  0
 25 26  2  0
  6 27  1  0
 26 27  1  0
 27 28  2  0
 28 29  1  0
  3 30  1  0
 25 30  1  0
 29 30  2  0
 31 32  2  0
 12 33  1  0
 32 33  1  0
 33 34  2  0
 34 35  1  0
  1 36  1  1
 31 36  1  0
 35 36  2  0
 15 37  1  0
 37 38  2  0
 38 39  1  0
 39 40  2  0
 40 41  1  0
 37 42  1  0
 41 42  2  0
 43  5  1  0
 43 44  1  1
 44 45  1  0
 38 46  1  0
 45 46  1  0
 47 18  1  6
 46 47  1  0
 43 48  1  0
 47 48  1  0
M  CHG  2  15   1  17  -1
M  END
