x2776-x0771
     RDKit          3D

 53 58  0  0  0  0  0  0  0  0999 V2000
    6.7110   -1.3910   21.8530 C   0  0  1  0  0  0  0  0  0  0  0  0
    6.5840   -4.0710   19.9780 C   0  0  0  0  0  0  0  0  0  0  0  0
    4.6700   -2.9160   21.3820 O   0  0  0  0  0  0  0  0  0  0  0  0
    6.0140   -2.7750   19.7110 C   0  0  0  0  0  0  0  0  0  0  0  0
    7.8210    1.9370   22.9890 N   0  0  0  0  0  0  0  0  0  0  0  0
    8.6090    1.2780   20.9460 O   0  0  0  0  0  0  0  0  0  0  0  0
    5.7600   -2.3240   20.9990 C   0  0  0  0  0  0  0  0  0  0  0  0
   10.8840    6.5830   23.7810 O   0  0  0  0  0  0  0  0  0  0  0  0
    6.5410    0.1990   21.6060 C   0  0  1  0  0  0  0  0  0  0  0  0
   12.4390   -2.9680   24.8290 O   0  0  0  0  0  0  0  0  0  0  0  0
    7.7590    1.1830   21.8350 C   0  0  0  0  0  0  0  0  0  0  0  0
   10.5840    1.7650   23.8750 C   0  0  0  0  0  0  0  0  0  0  0  0
   11.8410    6.4850   24.8340 C   0  0  0  0  0  0  0  0  0  0  0  0
   12.1000   -1.6470   24.4210 C   0  0  1  0  0  0  0  0  0  0  0  0
   13.1120   -1.1240   23.4080 C   0  0  0  0  0  0  0  0  0  0  0  0
   13.6870   -2.9910   25.4620 C   0  0  0  0  0  0  0  0  0  0  0  0
    0.4810   -1.4920   26.2190 C   0  0  0  0  0  0  0  0  0  0  0  0
    4.3460   -6.9060   25.5490 O   0  0  0  0  0  0  0  0  0  0  0  0
    5.9520   -5.3760   26.6680 O   0  0  0  0  0  0  0  0  0  0  0  0
    2.0860   -6.0200   25.0140 C   0  0  0  0  0  0  0  0  0  0  0  0
    5.0490   -5.6430   25.5840 S   0  0  0  0  0  0  0  0  0  0  0  0
    5.8990   -2.0990   22.9330 C   0  0  0  0  0  0  0  0  0  0  0  0
    5.4520   -3.3570   22.4450 C   0  0  0  0  0  0  0  0  0  0  0  0
    6.3170    0.5520   17.8410 N   0  0  0  0  0  0  0  0  0  0  0  0
    5.2110    1.3080   17.7790 C   0  0  0  0  0  0  0  0  0  0  0  0
    4.4650    1.7350   18.8760 C   0  0  0  0  0  0  0  0  0  0  0  0
    4.9040    1.3590   20.1310 C   0  0  0  0  0  0  0  0  0  0  0  0
    6.0400    0.5920   20.2320 C   0  0  0  0  0  0  0  0  0  0  0  0
    6.7250    0.1970   19.0690 C   0  0  0  0  0  0  0  0  0  0  0  0
    9.9000    3.0770   23.6000 C   0  0  0  0  0  0  0  0  0  0  0  0
   10.6270    4.2530   23.7830 C   0  0  0  0  0  0  0  0  0  0  0  0
   10.0560    5.5090   23.5510 C   0  0  0  0  0  0  0  0  0  0  0  0
    8.7290    5.5970   23.1160 C   0  0  0  0  0  0  0  0  0  0  0  0
    7.9990    4.4140   22.9300 C   0  0  0  0  0  0  0  0  0  0  0  0
    8.5540    3.1470   23.1660 C   0  0  0  0  0  0  0  0  0  0  0  0
    9.3450   -2.0450   21.8210 C   0  0  0  0  0  0  0  0  0  0  0  0
   10.6040   -2.0790   22.4730 C   0  0  0  0  0  0  0  0  0  0  0  0
   10.7360   -1.6090   23.7860 C   0  0  0  0  0  0  0  0  0  0  0  0
    9.6520   -1.1200   24.4730 C   0  0  0  0  0  0  0  0  0  0  0  0
    8.3070   -1.0930   23.7450 C   0  0  0  0  0  0  0  0  0  0  0  0
    8.1720   -1.5450   22.4340 C   0  0  0  0  0  0  0  0  0  0  0  0
    1.6270   -2.4450   26.0720 C   0  0  0  0  0  0  0  0  0  0  0  0
    1.4320   -3.7420   25.6340 C   0  0  0  0  0  0  0  0  0  0  0  0
    2.4860   -4.6520   25.5020 C   0  0  0  0  0  0  0  0  0  0  0  0
    3.8380   -4.3500   25.7960 C   0  0  0  0  0  0  0  0  0  0  0  0
    4.0900   -3.0500   26.2320 C   0  0  0  0  0  0  0  0  0  0  0  0
    2.9080   -2.0490   26.3740 C   0  0  0  0  0  0  0  0  0  0  0  0
    6.3660   -4.3820   21.5620 C   0  0  0  0  0  0  0  0  0  0  0  0
    5.7860   -5.6410   21.6220 C   0  0  0  0  0  0  0  0  0  0  0  0
    5.3280   -6.2150   22.9530 C   0  0  0  0  0  0  0  0  0  0  0  0
    5.8140   -5.4190   24.0850 N   0  0  0  0  0  0  0  0  0  0  0  0
    7.1510   -4.7900   23.9680 C   0  0  0  0  0  0  0  0  0  0  0  0
    7.5820   -4.6380   22.4960 C   0  0  0  0  0  0  0  0  0  0  0  0
  2  4  1  0
  1  7  1  0
  3  7  2  0
  4  7  1  0
  1  9  1  0
  5 11  1  0
  6 11  2  0
  9 11  1  6
  8 13  1  0
 10 14  1  0
 14 15  1  6
 10 16  1  0
 18 21  2  0
 19 21  2  0
  1 22  1  0
 22 23  1  0
 24 25  2  0
 25 26  1  0
 26 27  2  0
  9 28  1  0
 27 28  1  0
 24 29  1  0
 28 29  2  0
 12 30  1  0
 30 31  2  0
  8 32  1  0
 31 32  1  0
 32 33  2  0
 33 34  1  0
  5 35  1  0
 30 35  1  0
 34 35  2  0
 36 37  2  0
 14 38  1  0
 37 38  1  0
 38 39  2  0
 39 40  1  0
  1 41  1  1
 36 41  1  0
 40 41  2  0
 17 42  1  0
 42 43  2  0
 20 44  1  0
 43 44  1  0
 21 45  1  0
 44 45  2  0
 45 46  1  0
 42 47  1  0
 46 47  2  0
  2 48  1  0
 48 23  1  0
 48 49  1  0
 49 50  1  0
 21 51  1  0
 50 51  1  0
 51 52  1  0
 48 53  1  0
 52 53  1  0
M  END
