x2776-x2649
     RDKit          3D

 38 40  0  0  0  0  0  0  0  0999 V2000
    6.9420   -1.5890   21.5640 N   0  0  0  0  0  0  0  0  0  0  0  0
    6.8170   -5.0280   20.4900 C   0  0  0  0  0  0  0  0  0  0  0  0
    4.8220   -2.9580   21.0550 O   0  0  0  0  0  0  0  0  0  0  0  0
    6.7130   -4.1180   21.6950 C   0  0  0  0  0  0  0  0  0  0  0  0
    7.7210    1.8210   22.7560 N   0  0  0  0  0  0  0  0  0  0  0  0
    9.0740    0.5760   21.3690 O   0  0  0  0  0  0  0  0  0  0  0  0
    6.0710   -2.7880   21.4160 C   0  0  0  0  0  0  0  0  0  0  0  0
   10.7380    6.5130   23.8350 O   0  0  0  0  0  0  0  0  0  0  0  0
    6.6890   -0.0950   21.4000 C   0  0  1  0  0  0  0  0  0  0  0  0
   12.0730   -2.9440   25.1840 O   0  0  0  0  0  0  0  0  0  0  0  0
    7.9610    0.7800   21.8310 C   0  0  0  0  0  0  0  0  0  0  0  0
   10.4480    1.6960   23.9180 C   0  0  0  0  0  0  0  0  0  0  0  0
   11.7900    6.3850   24.7950 C   0  0  0  0  0  0  0  0  0  0  0  0
   11.5250   -1.6310   24.9520 C   0  0  1  0  0  0  0  0  0  0  0  0
   12.6350   -0.7940   24.4610 C   0  0  0  0  0  0  0  0  0  0  0  0
   13.4700   -2.9860   25.4720 C   0  0  0  0  0  0  0  0  0  0  0  0
    4.2140    1.7300   21.3550 C   0  0  0  0  0  0  0  0  0  0  0  0
    6.3460    0.5630   17.7340 N   0  0  0  0  0  0  0  0  0  0  0  0
    5.2870    1.3650   17.6900 C   0  0  0  0  0  0  0  0  0  0  0  0
    4.5370    1.7710   18.9230 C   0  0  0  0  0  0  0  0  0  0  0  0
    4.9780    1.2960   20.1450 C   0  0  0  0  0  0  0  0  0  0  0  0
    6.0740    0.4800   20.1500 C   0  0  0  0  0  0  0  0  0  0  0  0
    6.7110    0.1420   18.9560 C   0  0  0  0  0  0  0  0  0  0  0  0
    9.7690    2.9920   23.5670 C   0  0  0  0  0  0  0  0  0  0  0  0
   10.4880    4.1730   23.8190 C   0  0  0  0  0  0  0  0  0  0  0  0
    9.9490    5.4200   23.5370 C   0  0  0  0  0  0  0  0  0  0  0  0
    8.6590    5.4710   22.9780 C   0  0  0  0  0  0  0  0  0  0  0  0
    7.9270    4.3050   22.7160 C   0  0  0  0  0  0  0  0  0  0  0  0
    8.4570    3.0430   23.0040 C   0  0  0  0  0  0  0  0  0  0  0  0
    9.3730   -2.1250   21.8820 C   0  0  0  0  0  0  0  0  0  0  0  0
   10.5180   -2.1450   22.6850 C   0  0  0  0  0  0  0  0  0  0  0  0
   10.3970   -1.6820   23.9900 C   0  0  0  0  0  0  0  0  0  0  0  0
    9.1980   -1.2290   24.4830 C   0  0  0  0  0  0  0  0  0  0  0  0
    8.0710   -1.2110   23.6900 C   0  0  0  0  0  0  0  0  0  0  0  0
    8.1460   -1.6560   22.3740 C   0  0  0  0  0  0  0  0  0  0  0  0
   13.0840   -2.3060   20.9700 Cl  0  0  0  0  0  0  0  0  0  0  0  0
   13.1960   -1.5600   23.3410 C   0  0  0  0  0  0  0  0  0  0  0  0
   13.0520   -0.9930   22.1220 C   0  0  0  0  0  0  0  0  0  0  0  0
  2  4  1  0
  1  7  1  0
  3  7  2  0
  4  7  1  0
  1  9  1  0
  5 11  1  0
  6 11  2  0
  9 11  1  6
  8 13  1  0
 10 14  1  0
 14 15  1  6
 10 16  1  0
 18 19  2  0
 19 20  1  0
 17 21  1  0
 20 21  2  0
  9 22  1  0
 21 22  1  0
 18 23  1  0
 22 23  2  0
 12 24  1  0
 24 25  2  0
  8 26  1  0
 25 26  1  0
 26 27  2  0
 27 28  1  0
  5 29  1  0
 24 29  1  0
 28 29  2  0
 30 31  2  0
 14 32  1  0
 31 32  1  0
 32 33  2  0
 33 34  1  0
  1 35  1  0
 30 35  1  0
 34 35  2  0
 15 37  1  0
 36 38  1  0
 37 38  1  0
M  END
