x2779-x0736
     RDKit          3D

 22 24  0  0  0  0  0  0  0  0999 V2000
    7.3460   -3.0220   18.9010 C   0  0  0  0  0  0  0  0  0  0  0  0
    5.3920   -4.1040   19.7260 O   0  0  0  0  0  0  0  0  0  0  0  0
    6.3660   -3.3860   19.9840 C   0  0  0  0  0  0  0  0  0  0  0  0
    5.9150   -2.4160   25.0790 O   0  0  0  0  0  0  0  0  0  0  0  0
    7.1040   -2.2560   24.8560 C   0  0  0  0  0  0  0  0  0  0  0  0
    9.9780   -2.4950   22.7190 C   0  0  0  0  0  0  0  0  0  0  0  0
    6.6040   -2.9320   21.2910 N   0  0  0  0  0  0  0  0  0  0  0  0
    7.6460   -2.0150   21.5540 C   0  0  0  0  0  0  0  0  0  0  0  0
    8.5150   -2.1490   22.8170 C   0  0  1  0  0  0  0  0  0  0  0  0
    7.8480   -2.8790   23.7770 N   0  0  0  0  0  0  0  0  0  0  0  0
    7.2570   -4.1850   23.3380 C   0  0  0  0  0  0  0  0  0  0  0  0
    6.1330   -3.8080   22.3600 C   0  0  0  0  0  0  0  0  0  0  0  0
    8.3410   -0.2140   25.0800 O   0  0  0  0  0  0  0  0  0  0  0  0
    7.9540   -1.3850   25.6780 C   0  0  0  0  0  0  0  0  0  0  0  0
    8.5150   -1.5000   27.0850 C   0  0  0  0  0  0  0  0  0  0  0  0
    9.2180   -0.3410   27.1910 C   0  0  0  0  0  0  0  0  0  0  0  0
    9.1180    0.4200   26.0180 C   0  0  0  0  0  0  0  0  0  0  0  0
   12.2070   -1.2430   22.3740 C   0  0  0  0  0  0  0  0  0  0  0  0
   10.9630   -1.3620   22.9930 C   0  0  0  0  0  0  0  0  0  0  0  0
   10.6750   -0.0700   24.1150 S   0  0  0  0  0  0  0  0  0  0  0  0
   12.2460    0.6150   23.7170 C   0  0  0  0  0  0  0  0  0  0  0  0
   12.9970   -0.0600   22.7930 C   0  0  0  0  0  0  0  0  0  0  0  0
  1  3  1  0
  2  3  2  0
  4  5  2  0
  3  7  1  0
  7  8  1  0
  9  6  1  6
  8  9  1  0
  5 10  1  0
  9 10  1  0
 10 11  1  0
  7 12  1  0
 11 12  1  0
  5 14  1  0
 13 14  1  0
 14 15  2  0
 15 16  1  0
 13 17  1  0
 16 17  2  0
  6 19  1  0
 18 19  2  0
 19 20  1  0
 20 21  1  0
 18 22  1  0
 21 22  2  0
M  END
