x2779-x0705
     RDKit          3D

 24 26  0  0  0  0  0  0  0  0999 V2000
    1.1650   -2.6310   27.7810 C   0  0  0  0  0  0  0  0  0  0  0  0
    7.3480   -1.5330   26.3940 O   0  0  0  0  0  0  0  0  0  0  0  0
    5.6850   -3.4380   19.5590 O   0  0  0  0  0  0  0  0  0  0  0  0
    6.4370   -1.8540   25.6580 C   0  0  0  0  0  0  0  0  0  0  0  0
    6.7010   -3.3210   20.3190 C   0  0  0  0  0  0  0  0  0  0  0  0
    7.8640   -3.8560   19.7220 C   0  0  0  0  0  0  0  0  0  0  0  0
    9.3110   -2.7120   22.5530 C   0  0  0  0  0  0  0  0  0  0  0  0
    2.4810   -2.4090   27.2250 C   0  0  0  0  0  0  0  0  0  0  0  0
    2.7790   -1.5020   26.2290 C   0  0  0  0  0  0  0  0  0  0  0  0
    4.0410   -1.3330   25.7400 C   0  0  0  0  0  0  0  0  0  0  0  0
    5.1020   -2.0610   26.2120 C   0  0  0  0  0  0  0  0  0  0  0  0
    4.8660   -2.9980   27.2210 C   0  0  0  0  0  0  0  0  0  0  0  0
    3.5570   -3.1690   27.7240 C   0  0  0  0  0  0  0  0  0  0  0  0
    6.8180   -2.9000   21.6480 N   0  0  0  0  0  0  0  0  0  0  0  0
    6.0630   -3.6410   22.6310 C   0  0  0  0  0  0  0  0  0  0  0  0
    5.4570   -2.6060   23.5300 C   0  0  0  0  0  0  0  0  0  0  0  0
    6.5560   -2.0280   24.3210 N   0  0  0  0  0  0  0  0  0  0  0  0
    7.5260   -1.2740   23.4870 C   0  0  0  0  0  0  0  0  0  0  0  0
    7.9330   -2.0300   22.2180 C   0  0  1  0  0  0  0  0  0  0  0  0
   11.9670   -1.8570   22.3260 C   0  0  0  0  0  0  0  0  0  0  0  0
   10.5070   -1.7490   22.7650 C   0  0  0  0  0  0  0  0  0  0  0  0
   10.4860   -0.2090   23.5980 S   0  0  0  0  0  0  0  0  0  0  0  0
   12.1020    0.2070   23.3960 C   0  0  0  0  0  0  0  0  0  0  0  0
   12.8040   -0.7600   22.6940 C   0  0  0  0  0  0  0  0  0  0  0  0
  2  4  2  0
  3  5  2  0
  5  6  1  0
  1  8  1  0
  8  9  2  0
  9 10  1  0
  4 11  1  0
 10 11  2  0
 11 12  1  0
  8 13  1  0
 12 13  2  0
  5 14  1  0
 14 15  1  0
 15 16  1  0
  4 17  1  0
 16 17  1  0
 17 18  1  0
 19  7  1  1
 14 19  1  0
 18 19  1  0
  7 21  1  0
 20 21  2  0
 21 22  1  0
 22 23  1  0
 20 24  1  0
 23 24  2  0
M  END
