x2776-x0395
     RDKit          3D

 41 44  0  0  0  0  0  0  0  0999 V2000
    6.8200   -1.5980   22.0570 N   0  0  0  0  0  0  0  0  0  0  0  0
    6.7360   -4.7900   20.2890 C   0  0  0  0  0  0  0  0  0  0  0  0
    4.7820   -2.9760   21.2520 O   0  0  0  0  0  0  0  0  0  0  0  0
    6.7900   -4.0720   21.6040 C   0  0  0  0  0  0  0  0  0  0  0  0
    7.7840    1.8130   22.9040 N   0  0  0  0  0  0  0  0  0  0  0  0
    9.0630    0.5960   21.4240 O   0  0  0  0  0  0  0  0  0  0  0  0
    6.0310   -2.7820   21.6240 C   0  0  0  0  0  0  0  0  0  0  0  0
   10.7930    6.5040   23.8420 O   0  0  0  0  0  0  0  0  0  0  0  0
    6.6860   -0.1060   21.6570 C   0  0  1  0  0  0  0  0  0  0  0  0
   12.5320   -1.9180   25.2460 O   0  0  0  0  0  0  0  0  0  0  0  0
    7.9840    0.7780   21.9740 C   0  0  0  0  0  0  0  0  0  0  0  0
   10.5270    1.6950   23.9010 C   0  0  0  0  0  0  0  0  0  0  0  0
   11.8160    6.3690   24.8310 C   0  0  0  0  0  0  0  0  0  0  0  0
   12.2620   -2.0100   23.8680 C   0  0  2  0  0  0  0  0  0  0  0  0
   12.9690   -0.9840   23.0590 C   0  0  0  0  0  0  0  0  0  0  0  0
   13.4110   -2.9760   25.6200 C   0  0  0  0  0  0  0  0  0  0  0  0
    8.3780   -5.4850   26.4650 C   0  0  0  0  0  0  0  0  0  0  0  0
    6.4390    0.4280   17.9270 N   0  0  0  0  0  0  0  0  0  0  0  0
    5.3120    1.1190   17.8040 C   0  0  0  0  0  0  0  0  0  0  0  0
    4.4590    1.4820   18.9880 C   0  0  0  0  0  0  0  0  0  0  0  0
    4.8750    1.0860   20.2510 C   0  0  0  0  0  0  0  0  0  0  0  0
    6.0580    0.3790   20.3510 C   0  0  0  0  0  0  0  0  0  0  0  0
    6.7760    0.0820   19.1850 C   0  0  0  0  0  0  0  0  0  0  0  0
    9.8410    2.9970   23.6000 C   0  0  0  0  0  0  0  0  0  0  0  0
   10.5730    4.1770   23.8280 C   0  0  0  0  0  0  0  0  0  0  0  0
    9.9960    5.4140   23.5730 C   0  0  0  0  0  0  0  0  0  0  0  0
    8.6800    5.4620   23.0770 C   0  0  0  0  0  0  0  0  0  0  0  0
    7.9450    4.2930   22.8460 C   0  0  0  0  0  0  0  0  0  0  0  0
    8.5070    3.0430   23.1080 C   0  0  0  0  0  0  0  0  0  0  0  0
    9.2430   -1.6350   21.7210 C   0  0  0  0  0  0  0  0  0  0  0  0
   10.5840   -1.8550   22.0540 C   0  0  0  0  0  0  0  0  0  0  0  0
   10.8340   -2.0400   23.4140 C   0  0  0  0  0  0  0  0  0  0  0  0
    9.8300   -2.2760   24.2950 C   0  0  0  0  0  0  0  0  0  0  0  0
    8.5330   -2.3920   23.8660 C   0  0  2  0  0  0  0  0  0  0  0  0
    8.1750   -1.8860   22.5820 C   0  0  0  0  0  0  0  0  0  0  0  0
    8.3270   -4.2570   25.6360 C   0  0  0  0  0  0  0  0  0  0  0  0
    7.9860   -2.9960   26.0640 N   0  0  0  0  0  0  0  0  0  0  0  0
    7.6940   -2.1810   25.0790 N   0  0  0  0  0  0  0  0  0  0  0  0
    8.6800   -4.1640   23.9550 S   0  0  0  0  0  0  0  0  0  0  0  0
   13.8180   -1.0480   20.8350 F   0  0  0  0  0  0  0  0  0  0  0  0
   13.0900   -1.7110   21.7250 C   0  0  0  0  0  0  0  0  0  0  0  0
  2  4  1  0
  1  7  1  0
  3  7  2  0
  4  7  1  0
  1  9  1  0
  5 11  1  0
  6 11  2  0
  9 11  1  6
  8 13  1  0
 10 14  1  0
 14 15  1  6
 10 16  1  0
 18 19  2  0
 19 20  1  0
 20 21  2  0
  9 22  1  0
 21 22  1  0
 18 23  1  0
 22 23  2  0
 12 24  1  0
 24 25  2  0
  8 26  1  0
 25 26  1  0
 26 27  2  0
 27 28  1  0
  5 29  1  0
 24 29  1  0
 28 29  2  0
 30 31  1  0
 14 32  1  0
 31 32  1  0
 32 33  2  0
 34 33  1  1
  1 35  1  0
 30 35  2  0
 34 35  1  0
 17 36  1  0
 36 37  1  0
 34 38  1  0
 37 38  2  0
 34 39  1  0
 36 39  2  0
 15 41  1  0
 40 41  1  0
M  END
