x2779-x1093
     RDKit          3D

 27 30  0  0  0  0  0  0  0  0999 V2000
    7.3420   -3.0020   18.7950 C   0  0  0  0  0  0  0  0  0  0  0  0
    5.5260   -4.1760   19.8010 O   0  0  0  0  0  0  0  0  0  0  0  0
    6.3820   -3.2780   19.9400 C   0  0  0  0  0  0  0  0  0  0  0  0
    9.5030   -2.3480   23.8690 C   0  0  0  0  0  0  0  0  0  0  0  0
   13.6240   -2.2040   23.9370 C   0  0  0  0  0  0  0  0  0  0  0  0
    7.8900    0.8840   22.0810 O   0  0  0  0  0  0  0  0  0  0  0  0
    7.2910   -0.2020   22.1350 C   0  0  0  0  0  0  0  0  0  0  0  0
    6.4890   -2.4970   21.1500 N   0  0  0  0  0  0  0  0  0  0  0  0
    7.4730   -1.3670   21.1600 C   0  0  2  0  0  0  0  0  0  0  0  0
    8.8670   -1.8970   21.5200 C   0  0  0  0  0  0  0  0  0  0  0  0
    8.7240   -2.6820   22.7970 N   0  0  0  0  0  0  0  0  0  0  0  0
    7.8090   -3.6580   22.7430 C   0  0  0  0  0  0  0  0  0  0  0  0
    6.5420   -3.2940   22.3020 C   0  0  0  0  0  0  0  0  0  0  0  0
   11.9080   -1.7210   23.7530 C   0  0  0  0  0  0  0  0  0  0  0  0
   10.6460   -1.3240   23.6130 C   0  0  0  0  0  0  0  0  0  0  0  0
   10.6270    0.2690   23.1860 S   0  0  0  0  0  0  0  0  0  0  0  0
   12.3420    0.2840   23.2290 C   0  0  0  0  0  0  0  0  0  0  0  0
   13.1520   -0.8530   23.5570 C   0  0  0  0  0  0  0  0  0  0  0  0
    6.5470    0.3680   17.8920 N   0  0  0  0  0  0  0  0  0  0  0  0
    7.3390   -0.5100   18.6460 C   0  0  0  0  0  0  0  0  0  0  0  0
    6.9920   -0.5670   19.9560 C   0  0  0  0  0  0  0  0  0  0  0  0
    5.9420    0.3170   20.0580 C   0  0  0  0  0  0  0  0  0  0  0  0
    5.6450    0.8510   18.7790 C   0  0  0  0  0  0  0  0  0  0  0  0
    4.6230    1.7130   18.4960 N   0  0  0  0  0  0  0  0  0  0  0  0
    3.9080    2.1490   19.5320 C   0  0  0  0  0  0  0  0  0  0  0  0
    4.1860    1.6510   20.9130 C   0  0  0  0  0  0  0  0  0  0  0  0
    5.1930    0.7390   21.0930 C   0  0  0  0  0  0  0  0  0  0  0  0
  1  3  1  0
  2  3  2  0
  6  7  2  0
  3  8  1  0
  9  7  1  1
  8  9  1  0
  9 10  1  0
  4 11  1  0
 10 11  1  0
 11 12  1  0
  8 13  1  0
 12 13  1  0
  4 15  1  0
 14 15  2  0
 15 16  1  0
 16 17  1  0
  5 18  1  0
 14 18  1  0
 17 18  2  0
 19 20  1  0
  9 21  1  0
 20 21  2  0
 21 22  1  0
 19 23  2  0
 22 23  1  0
 23 24  1  0
 24 25  1  0
 25 26  2  0
 22 27  2  0
 26 27  1  0
M  END
