x2779-x2569
     RDKit          3D

 28 31  0  0  0  0  0  0  0  0999 V2000
    7.8460   -0.4290   21.5550 C   0  0  1  0  0  0  0  0  0  0  0  0
    8.4640   -0.0190   20.6470 O   0  0  0  0  0  0  0  0  0  0  0  0
    8.7940   -0.8670   22.6400 C   0  0  2  0  0  0  0  0  0  0  0  0
   13.4590   -2.1740   20.8460 N   0  0  0  0  0  0  0  0  0  0  0  0
    6.6540    0.1690   21.7040 N   0  0  0  0  0  0  0  0  0  0  0  0
   13.6140   -1.7440   22.1310 C   0  0  0  0  0  0  0  0  0  0  0  0
    7.2470   -2.9790   18.7880 C   0  0  0  0  0  0  0  0  0  0  0  0
    5.4350   -4.2300   19.7750 O   0  0  0  0  0  0  0  0  0  0  0  0
    6.2760   -3.3380   19.8980 C   0  0  0  0  0  0  0  0  0  0  0  0
    9.6790   -2.9660   23.8300 C   0  0  0  0  0  0  0  0  0  0  0  0
   11.8350    1.4490   23.2570 N   0  0  0  0  0  0  0  0  0  0  0  0
   12.8300    0.6180   22.9480 C   0  0  0  0  0  0  0  0  0  0  0  0
   12.5750   -0.8000   22.5030 C   0  0  0  0  0  0  0  0  0  0  0  0
   11.2130   -1.2890   22.4120 C   0  0  0  0  0  0  0  0  0  0  0  0
   10.1480   -0.3020   22.7770 C   0  0  0  0  0  0  0  0  0  0  0  0
   10.5560    0.9790   23.1640 C   0  0  0  0  0  0  0  0  0  0  0  0
    6.3600    0.5690   17.9490 N   0  0  0  0  0  0  0  0  0  0  0  0
    6.7470    0.2540   19.2060 C   0  0  0  0  0  0  0  0  0  0  0  0
    6.0540    0.5960   20.4050 C   0  0  0  0  0  0  0  0  0  0  0  0
    4.8670    1.3080   20.3110 C   0  0  0  0  0  0  0  0  0  0  0  0
    4.4850    1.6220   19.0220 C   0  0  0  0  0  0  0  0  0  0  0  0
    5.2080    1.2670   17.9090 C   0  0  0  0  0  0  0  0  0  0  0  0
    6.4270   -2.5420   21.1360 N   0  0  0  0  0  0  0  0  0  0  0  0
    7.4910   -1.9230   21.4760 C   0  0  1  0  0  0  0  0  0  0  0  0
    8.7690   -2.6060   21.7280 C   0  0  0  0  0  0  0  0  0  0  0  0
    8.6110   -2.3570   23.0260 C   0  0  2  0  0  0  0  0  0  0  0  0
    7.2890   -2.8070   23.4100 C   0  0  0  0  0  0  0  0  0  0  0  0
    6.3640   -3.2080   22.3290 C   0  0  0  0  0  0  0  0  0  0  0  0
  1  2  1  6
  1  3  1  0
  1  5  1  0
  4  6  3  0
  7  9  1  0
  8  9  2  0
 11 12  2  0
  6 13  1  0
 12 13  1  0
 13 14  2  0
  3 15  1  6
 14 15  1  0
 11 16  1  0
 15 16  2  0
 17 18  2  0
  5 19  1  0
 18 19  1  0
 19 20  2  0
 20 21  1  0
 17 22  1  0
 21 22  2  0
  9 23  1  0
  1 24  1  0
 24 23  1  6
 24 25  1  0
  3 26  1  0
 26 10  1  1
 25 26  1  0
 26 27  1  0
 23 28  1  0
 27 28  1  0
M  END
