x2779-x0946
     RDKit          3D

 25 27  0  0  0  0  0  0  0  0999 V2000
    7.3210   -3.0000   18.7950 C   0  0  0  0  0  0  0  0  0  0  0  0
    5.4250   -4.1050   19.7320 O   0  0  0  0  0  0  0  0  0  0  0  0
    6.3580   -3.3110   19.9240 C   0  0  0  0  0  0  0  0  0  0  0  0
   10.0630   -3.0030   22.7960 C   0  0  0  0  0  0  0  0  0  0  0  0
    9.0110    5.2900   22.6330 N   0  0  0  0  0  0  0  0  0  0  0  0
    9.9170    5.6570   24.9100 O   0  0  0  0  0  0  0  0  0  0  0  0
   11.2950    6.5690   23.0080 O   0  0  0  0  0  0  0  0  0  0  0  0
   10.4420    5.5450   23.5620 S   0  0  0  0  0  0  0  0  0  0  0  0
    6.5640   -2.7120   21.1640 N   0  0  0  0  0  0  0  0  0  0  0  0
    7.3460   -1.5280   21.2080 C   0  0  0  0  0  0  0  0  0  0  0  0
    8.6020   -1.6130   21.8000 C   0  0  0  0  0  0  0  0  0  0  0  0
    8.7380   -2.6200   22.7370 N   0  0  0  0  0  0  0  0  0  0  0  0
    7.8140   -3.7410   22.6920 C   0  0  0  0  0  0  0  0  0  0  0  0
    6.6030   -3.3880   22.1020 C   0  0  0  0  0  0  0  0  0  0  0  0
   11.7340   -1.1300   22.5230 C   0  0  0  0  0  0  0  0  0  0  0  0
   10.7800   -1.7720   23.2340 C   0  0  0  0  0  0  0  0  0  0  0  0
   10.4490   -1.0250   24.6810 S   0  0  0  0  0  0  0  0  0  0  0  0
   11.5450    0.2570   24.4550 C   0  0  0  0  0  0  0  0  0  0  0  0
   12.1510   -0.0030   23.1980 C   0  0  0  0  0  0  0  0  0  0  0  0
   12.6730    0.9670   23.4550 C   0  0  0  0  0  0  0  0  0  0  0  0
   13.0970    2.3310   22.7710 C   0  0  0  0  0  0  0  0  0  0  0  0
   12.5260    3.7840   22.7060 C   0  0  0  0  0  0  0  0  0  0  0  0
   11.2700    4.0030   23.4300 C   0  0  0  0  0  0  0  0  0  0  0  0
   10.7730    2.7970   24.0620 C   0  0  0  0  0  0  0  0  0  0  0  0
   11.4810    1.4940   24.0220 C   0  0  0  0  0  0  0  0  0  0  0  0
  1  3  1  0
  2  3  2  0
  8  5  1  0
  6  8  2  0
  7  8  2  0
  3  9  1  0
  9 10  1  0
 10 11  1  0
  4 12  1  0
 11 12  1  0
 12 13  1  0
  9 14  1  0
 13 14  1  0
  4 16  1  0
 15 16  2  0
 16 17  1  0
 17 18  1  0
 15 19  1  0
 18 19  2  0
 18 20  1  0
 20 21  2  0
 21 22  1  0
  8 23  1  0
 22 23  2  0
 23 24  1  0
 20 25  1  0
 24 25  2  0
M  END
