x2779-x0981
     RDKit          3D

 29 30  0  0  0  0  0  0  0  0999 V2000
    1.2230   -8.7880   21.2950 C   0  0  0  0  0  0  0  0  0  0  0  0
    2.7430   -7.1920   22.7790 N   0  0  0  0  0  0  0  0  0  0  0  0
    0.5890   -6.6010   22.3260 O   0  0  0  0  0  0  0  0  0  0  0  0
    1.4210   -7.4870   22.1330 C   0  0  0  0  0  0  0  0  0  0  0  0
    2.3120   -8.2350   26.4570 N   0  0  0  0  0  0  0  0  0  0  0  0
    3.9670   -8.1920   24.6300 O   0  0  0  0  0  0  0  0  0  0  0  0
    2.9760   -6.0090   23.4840 C   0  0  1  0  0  0  0  0  0  0  0  0
    5.3940   -6.2000   22.5680 N   0  0  0  0  0  0  0  0  0  0  0  0
    4.7920   -4.5060   24.0600 O   0  0  0  0  0  0  0  0  0  0  0  0
    2.6820   -6.2430   24.9730 C   0  0  0  0  0  0  0  0  0  0  0  0
    2.9610   -7.5370   25.3690 C   0  0  0  0  0  0  0  0  0  0  0  0
    4.4430   -5.4920   23.4170 C   0  0  0  0  0  0  0  0  0  0  0  0
    5.8910   -5.3600   21.4720 C   0  0  0  0  0  0  0  0  0  0  0  0
    7.3700   -3.0480   18.7080 C   0  0  0  0  0  0  0  0  0  0  0  0
    5.3920   -3.9760   19.6730 O   0  0  0  0  0  0  0  0  0  0  0  0
    6.4860   -3.4430   19.8870 C   0  0  0  0  0  0  0  0  0  0  0  0
    9.6720   -2.7090   23.5950 C   0  0  0  0  0  0  0  0  0  0  0  0
    7.2420   -4.5830   21.7130 C   0  0  0  0  0  0  0  0  0  0  0  0
    7.0930   -3.2440   21.3000 C   0  0  0  0  0  0  0  0  0  0  0  0
    8.3010   -2.2990   21.1260 C   0  0  0  0  0  0  0  0  0  0  0  0
    8.4410   -1.2680   22.2300 C   0  0  0  0  0  0  0  0  0  0  0  0
    8.3770   -2.0100   23.4740 N   0  0  0  0  0  0  0  0  0  0  0  0
    7.2580   -2.8110   23.5390 C   0  0  0  0  0  0  0  0  0  0  0  0
    6.3190   -2.7630   22.2770 C   0  0  0  0  0  0  0  0  0  0  0  0
   11.9870   -1.6000   22.5660 C   0  0  0  0  0  0  0  0  0  0  0  0
   10.7920   -1.6930   23.5240 C   0  0  0  0  0  0  0  0  0  0  0  0
   10.8260   -0.3760   24.6380 S   0  0  0  0  0  0  0  0  0  0  0  0
   12.2460    0.2610   23.9320 C   0  0  0  0  0  0  0  0  0  0  0  0
   12.7780   -0.4600   22.8520 C   0  0  0  0  0  0  0  0  0  0  0  0
  1  4  1  0
  2  4  1  0
  3  4  2  0
  2  7  1  0
  7 10  1  1
  5 11  1  0
  6 11  2  0
 10 11  1  0
  7 12  1  0
  8 12  1  0
  9 12  2  0
  8 13  1  0
 14 16  1  0
 15 16  2  0
 13 18  1  0
 19 16  1  0
 18 19  1  0
 19 20  1  0
 20 21  1  0
 17 22  1  0
 21 22  1  0
 22 23  1  0
 19 24  1  0
 23 24  1  0
 17 26  1  0
 25 26  2  0
 26 27  1  0
 27 28  1  0
 25 29  1  0
 28 29  2  0
M  END
