x2776-x0978
     RDKit          3D

 45 47  0  0  0  0  0  0  0  0999 V2000
    6.9180   -1.7390   21.7490 N   0  0  0  0  0  0  0  0  0  0  0  0
    6.7700   -5.1750   20.4420 C   0  0  0  0  0  0  0  0  0  0  0  0
    4.7950   -2.9700   21.1610 O   0  0  0  0  0  0  0  0  0  0  0  0
    6.5200   -4.3990   21.7210 C   0  0  1  0  0  0  0  0  0  0  0  0
    7.6680    1.7690   22.7930 N   0  0  0  0  0  0  0  0  0  0  0  0
    8.9930    0.5240   21.3700 O   0  0  0  0  0  0  0  0  0  0  0  0
    6.0180   -2.9460   21.5430 C   0  0  0  0  0  0  0  0  0  0  0  0
   10.7540    6.4870   23.7980 O   0  0  0  0  0  0  0  0  0  0  0  0
    6.6340   -0.2280   21.5360 C   0  0  1  0  0  0  0  0  0  0  0  0
   12.4050   -2.9150   24.9190 O   0  0  0  0  0  0  0  0  0  0  0  0
    7.8970    0.7080   21.8840 C   0  0  0  0  0  0  0  0  0  0  0  0
   10.4360    1.6560   23.9110 C   0  0  0  0  0  0  0  0  0  0  0  0
   11.7840    6.3600   24.7830 C   0  0  0  0  0  0  0  0  0  0  0  0
   12.0090   -1.6090   24.5070 C   0  0  1  0  0  0  0  0  0  0  0  0
   13.0610   -1.0310   23.5750 C   0  0  0  0  0  0  0  0  0  0  0  0
   13.6860   -2.9330   25.4900 C   0  0  0  0  0  0  0  0  0  0  0  0
    2.0120   -5.5370   23.0530 N   0  0  0  0  0  0  0  0  0  0  0  0
    2.3290   -7.9650   24.6600 C   0  0  0  0  0  0  0  0  0  0  0  0
    4.5330   -7.6880   24.6700 O   0  0  0  0  0  0  0  0  0  0  0  0
    3.3050   -6.9930   24.5160 C   0  0  1  0  0  0  0  0  0  0  0  0
    5.6030   -5.3270   22.5000 N   0  0  0  0  0  0  0  0  0  0  0  0
    0.9250   -7.3040   22.0510 O   0  0  0  0  0  0  0  0  0  0  0  0
    3.3140   -6.1930   23.2070 C   0  0  2  0  0  0  0  0  0  0  0  0
    4.1830   -3.9310   23.6030 O   0  0  0  0  0  0  0  0  0  0  0  0
    0.8960   -6.1980   22.5690 C   0  0  0  0  0  0  0  0  0  0  0  0
   -0.2830   -5.4890   22.7080 C   0  0  0  0  0  0  0  0  0  0  0  0
    4.3980   -5.0380   23.1300 C   0  0  0  0  0  0  0  0  0  0  0  0
    6.3740    0.4420   17.8270 N   0  0  0  0  0  0  0  0  0  0  0  0
    5.2640    1.2080   17.8030 C   0  0  0  0  0  0  0  0  0  0  0  0
    4.5290    1.5430   18.9210 C   0  0  0  0  0  0  0  0  0  0  0  0
    4.9600    1.0730   20.1420 C   0  0  0  0  0  0  0  0  0  0  0  0
    6.1150    0.2800   20.2060 C   0  0  0  0  0  0  0  0  0  0  0  0
    6.7870   -0.0140   19.0260 C   0  0  0  0  0  0  0  0  0  0  0  0
    9.7450    2.9440   23.5600 C   0  0  0  0  0  0  0  0  0  0  0  0
   10.4780    4.1310   23.7940 C   0  0  0  0  0  0  0  0  0  0  0  0
    9.9500    5.3990   23.5190 C   0  0  0  0  0  0  0  0  0  0  0  0
    8.6550    5.4420   22.9850 C   0  0  0  0  0  0  0  0  0  0  0  0
    7.9110    4.2670   22.7420 C   0  0  0  0  0  0  0  0  0  0  0  0
    8.4260    2.9870   23.0240 C   0  0  0  0  0  0  0  0  0  0  0  0
    9.3740   -2.1550   21.8200 C   0  0  0  0  0  0  0  0  0  0  0  0
   10.6160   -2.1270   22.4620 C   0  0  0  0  0  0  0  0  0  0  0  0
   10.7040   -1.6750   23.7760 C   0  0  0  0  0  0  0  0  0  0  0  0
    9.4060   -1.2390   24.4610 C   0  0  0  0  0  0  0  0  0  0  0  0
    8.2170   -1.2970   23.7560 C   0  0  0  0  0  0  0  0  0  0  0  0
    8.1890   -1.7480   22.4350 C   0  0  0  0  0  0  0  0  0  0  0  0
  4  2  1  6
  1  7  1  0
  3  7  2  0
  4  7  1  0
  1  9  1  0
  5 11  1  0
  6 11  2  0
  9 11  1  6
  8 13  1  0
 10 14  1  0
 14 15  1  6
 10 16  1  0
 20 18  1  6
 19 20  1  0
  4 21  1  0
 23 17  1  1
 20 23  1  0
 17 25  1  0
 22 25  2  0
 25 26  1  0
 21 27  1  0
 23 27  1  0
 24 27  2  0
 28 29  2  0
 29 30  1  0
 30 31  2  0
  9 32  1  0
 31 32  1  0
 28 33  1  0
 32 33  2  0
 12 34  1  0
 34 35  2  0
  8 36  1  0
 35 36  1  0
 36 37  2  0
 37 38  1  0
  5 39  1  0
 34 39  1  0
 38 39  2  0
 40 41  2  0
 14 42  1  0
 41 42  1  0
 42 43  2  0
 43 44  1  0
  1 45  1  0
 40 45  1  0
 44 45  2  0
M  END
