x2779-x0434
     RDKit          3D

 25 28  0  0  0  0  0  0  0  0999 V2000
    7.3570   -3.0720   18.7020 C   0  0  0  0  0  0  0  0  0  0  0  0
    5.5950   -4.2430   19.8230 O   0  0  0  0  0  0  0  0  0  0  0  0
    6.4800   -3.3670   19.9330 C   0  0  0  0  0  0  0  0  0  0  0  0
   10.2190   -2.5540   23.4140 C   0  0  0  0  0  0  0  0  0  0  0  0
    7.5520    0.8980   21.3460 O   0  0  0  0  0  0  0  0  0  0  0  0
    7.8070   -0.4740   21.6600 C   0  0  0  0  0  0  0  0  0  0  0  0
    8.3210   -1.0040   22.9140 N   0  0  0  0  0  0  0  0  0  0  0  0
    6.7260   -2.6230   21.1180 N   0  0  0  0  0  0  0  0  0  0  0  0
    7.7220   -1.6000   20.8710 C   0  0  2  0  0  0  0  0  0  0  0  0
    9.0620   -2.1380   21.3470 C   0  0  0  0  0  0  0  0  0  0  0  0
    8.8900   -2.3390   22.6940 C   0  0  1  0  0  0  0  0  0  0  0  0
    7.9450   -3.3340   22.9360 C   0  0  0  0  0  0  0  0  0  0  0  0
    6.6160   -3.0820   22.5370 C   0  0  0  0  0  0  0  0  0  0  0  0
   12.5440   -1.5470   22.9260 C   0  0  0  0  0  0  0  0  0  0  0  0
   11.1450   -1.4680   23.2420 C   0  0  0  0  0  0  0  0  0  0  0  0
   10.4820    0.1210   23.4340 S   0  0  0  0  0  0  0  0  0  0  0  0
   12.0800    0.7320   23.1060 C   0  0  0  0  0  0  0  0  0  0  0  0
   13.1330   -0.2540   22.8360 C   0  0  0  0  0  0  0  0  0  0  0  0
    4.4820    1.1980   20.2450 C   0  0  0  0  0  0  0  0  0  0  0  0
    4.3430    1.8920   18.9340 C   0  0  0  0  0  0  0  0  0  0  0  0
    5.2560    1.5620   17.7830 C   0  0  0  0  0  0  0  0  0  0  0  0
    6.3280    0.5330   17.9170 N   0  0  0  0  0  0  0  0  0  0  0  0
    6.4540   -0.1560   19.2350 C   0  0  0  0  0  0  0  0  0  0  0  0
    5.5560    0.1370   20.4420 C   0  0  0  0  0  0  0  0  0  0  0  0
    7.4860   -1.1880   19.3920 C   0  0  0  0  0  0  0  0  0  0  0  0
  1  3  1  0
  2  3  2  0
  5  6  2  0
  6  7  1  0
  3  8  1  0
  6  9  1  0
  8  9  1  0
  9 10  1  0
 11  4  1  1
  7 11  1  0
 10 11  1  0
 11 12  1  0
  8 13  1  0
 12 13  1  0
  4 15  1  0
 14 15  2  0
 15 16  1  0
 16 17  1  0
 14 18  1  0
 17 18  2  0
 19 20  2  0
 20 21  1  0
 21 22  2  0
 22 23  1  0
 19 24  1  0
 23 24  2  0
  9 25  1  6
 23 25  1  0
M  END
