x2776-x2643
     RDKit          3D

 34 36  0  0  0  0  0  0  0  0999 V2000
    6.9340   -1.6300   21.1630 N   0  0  0  0  0  0  0  0  0  0  0  0
    7.0210   -5.1120   20.8330 C   0  0  0  0  0  0  0  0  0  0  0  0
    4.8440   -2.9920   21.0320 O   0  0  0  0  0  0  0  0  0  0  0  0
    6.7720   -4.0320   21.8650 C   0  0  0  0  0  0  0  0  0  0  0  0
    7.8100    1.8230   22.8840 N   0  0  0  0  0  0  0  0  0  0  0  0
    8.4260    1.3010   20.7380 O   0  0  0  0  0  0  0  0  0  0  0  0
    6.0900   -2.8020   21.3270 C   0  0  0  0  0  0  0  0  0  0  0  0
   10.7880    6.5540   23.7900 O   0  0  0  0  0  0  0  0  0  0  0  0
    6.8010   -0.2620   21.7920 C   0  0  1  0  0  0  0  0  0  0  0  0
   12.2750   -2.9550   24.7100 O   0  0  0  0  0  0  0  0  0  0  0  0
    7.7690    1.0210   21.7330 C   0  0  0  0  0  0  0  0  0  0  0  0
   10.5700    1.7290   23.8500 C   0  0  0  0  0  0  0  0  0  0  0  0
   11.7910    6.4360   24.8000 C   0  0  0  0  0  0  0  0  0  0  0  0
   11.9970   -1.5920   24.4200 C   0  0  1  0  0  0  0  0  0  0  0  0
   13.1010   -1.0650   23.5170 C   0  0  0  0  0  0  0  0  0  0  0  0
   13.5470   -3.0510   25.3150 C   0  0  0  0  0  0  0  0  0  0  0  0
    6.4220    0.3670   17.9990 N   0  0  0  0  0  0  0  0  0  0  0  0
    5.3610    1.2000   17.9120 C   0  0  0  0  0  0  0  0  0  0  0  0
    4.6710    1.6350   19.0040 C   0  0  0  0  0  0  0  0  0  0  0  0
    5.1710    1.1290   20.3430 C   0  0  0  0  0  0  0  0  0  0  0  0
    6.2740    0.2680   20.4400 C   0  0  0  0  0  0  0  0  0  0  0  0
    6.8450   -0.0690   19.2210 C   0  0  0  0  0  0  0  0  0  0  0  0
    9.8580    3.0210   23.5570 C   0  0  0  0  0  0  0  0  0  0  0  0
   10.5820    4.2180   23.7730 C   0  0  0  0  0  0  0  0  0  0  0  0
    9.9890    5.4600   23.5320 C   0  0  0  0  0  0  0  0  0  0  0  0
    8.6800    5.5040   23.0650 C   0  0  0  0  0  0  0  0  0  0  0  0
    7.9580    4.3090   22.8450 C   0  0  0  0  0  0  0  0  0  0  0  0
    8.5230    3.0540   23.0870 C   0  0  0  0  0  0  0  0  0  0  0  0
    9.2810   -1.1650   21.7430 C   0  0  0  0  0  0  0  0  0  0  0  0
   10.5150   -1.4850   22.3500 C   0  0  0  0  0  0  0  0  0  0  0  0
   10.6820   -1.3190   23.7340 C   0  0  0  0  0  0  0  0  0  0  0  0
    9.5910   -0.8650   24.4680 C   0  0  0  0  0  0  0  0  0  0  0  0
    8.3730   -0.5510   23.8640 C   0  0  0  0  0  0  0  0  0  0  0  0
    8.1820   -0.6750   22.4830 C   0  0  0  0  0  0  0  0  0  0  0  0
  2  4  1  0
  1  7  1  0
  3  7  2  0
  4  7  1  0
  9  1  1  6
  5 11  1  0
  6 11  2  0
  9 11  1  0
  8 13  1  0
 10 14  1  0
 14 15  1  6
 10 16  1  0
 17 18  2  0
 18 19  1  0
 19 20  2  0
  9 21  1  0
 20 21  1  0
 17 22  1  0
 21 22  2  0
 12 23  1  0
 23 24  2  0
  8 25  1  0
 24 25  1  0
 25 26  2  0
 26 27  1  0
  5 28  1  0
 23 28  1  0
 27 28  2  0
 29 30  2  0
 14 31  1  0
 30 31  1  0
 31 32  2  0
 32 33  1  0
  9 34  1  0
 29 34  1  0
 33 34  2  0
M  END
