x2776-x1382
     RDKit          3D

 37 39  0  0  0  0  0  0  0  0999 V2000
    6.9070   -1.5580   21.6340 N   0  0  0  0  0  0  0  0  0  0  0  0
    6.8130   -5.0170   20.5520 C   0  0  0  0  0  0  0  0  0  0  0  0
    4.8170   -2.9570   21.0820 O   0  0  0  0  0  0  0  0  0  0  0  0
    6.7090   -4.1000   21.7500 C   0  0  0  0  0  0  0  0  0  0  0  0
    7.6970    1.8360   22.8160 N   0  0  0  0  0  0  0  0  0  0  0  0
    8.9880    0.6330   21.3380 O   0  0  0  0  0  0  0  0  0  0  0  0
    6.0560   -2.7750   21.4650 C   0  0  0  0  0  0  0  0  0  0  0  0
   10.7960    6.4980   23.7880 O   0  0  0  0  0  0  0  0  0  0  0  0
    6.6210   -0.0690   21.4790 C   0  0  1  0  0  0  0  0  0  0  0  0
   12.3530   -3.0150   24.8480 O   0  0  0  0  0  0  0  0  0  0  0  0
    7.9000    0.8170   21.8650 C   0  0  0  0  0  0  0  0  0  0  0  0
   10.4670    1.6790   23.8950 C   0  0  0  0  0  0  0  0  0  0  0  0
   11.8310    6.3580   24.7640 C   0  0  0  0  0  0  0  0  0  0  0  0
   11.7600   -1.7270   24.7250 C   0  0  1  0  0  0  0  0  0  0  0  0
   12.7790   -0.7470   24.2120 C   0  0  0  0  0  0  0  0  0  0  0  0
   13.6340   -2.9470   25.4250 C   0  0  0  0  0  0  0  0  0  0  0  0
    6.3260    0.6350   17.7530 N   0  0  0  0  0  0  0  0  0  0  0  0
    5.2180    1.4060   17.6880 C   0  0  0  0  0  0  0  0  0  0  0  0
    4.4850    1.7340   18.7790 C   0  0  0  0  0  0  0  0  0  0  0  0
    4.9490    1.2210   20.1010 C   0  0  0  0  0  0  0  0  0  0  0  0
    6.0920    0.4430   20.1710 C   0  0  0  0  0  0  0  0  0  0  0  0
    6.7280    0.1800   18.9710 C   0  0  0  0  0  0  0  0  0  0  0  0
    9.7870    2.9770   23.5600 C   0  0  0  0  0  0  0  0  0  0  0  0
   10.5370    4.1620   23.7910 C   0  0  0  0  0  0  0  0  0  0  0  0
    9.9870    5.4140   23.5160 C   0  0  0  0  0  0  0  0  0  0  0  0
    8.6990    5.4860   23.0020 C   0  0  0  0  0  0  0  0  0  0  0  0
    7.9520    4.3090   22.7690 C   0  0  0  0  0  0  0  0  0  0  0  0
    8.4660    3.0410   23.0420 C   0  0  0  0  0  0  0  0  0  0  0  0
    9.3140   -2.1090   21.8490 C   0  0  0  0  0  0  0  0  0  0  0  0
   10.5050   -2.1580   22.5720 C   0  0  0  0  0  0  0  0  0  0  0  0
   10.5280   -1.7220   23.8900 C   0  0  0  0  0  0  0  0  0  0  0  0
    9.3560   -1.2560   24.4610 C   0  0  0  0  0  0  0  0  0  0  0  0
    8.1720   -1.2080   23.7460 C   0  0  0  0  0  0  0  0  0  0  0  0
    8.1230   -1.6280   22.4220 C   0  0  0  0  0  0  0  0  0  0  0  0
   12.6700   -2.3710   21.1420 Cl  0  0  0  0  0  0  0  0  0  0  0  0
   12.5650   -0.3130   22.7830 C   0  0  0  0  0  0  0  0  0  0  0  0
   13.3980   -1.0110   21.9520 C   0  0  0  0  0  0  0  0  0  0  0  0
  2  4  1  0
  1  7  1  0
  3  7  2  0
  4  7  1  0
  1  9  1  0
  5 11  1  0
  6 11  2  0
  9 11  1  6
  8 13  1  0
 10 14  1  0
 14 15  1  6
 10 16  1  0
 17 18  2  0
 18 19  1  0
 19 20  2  0
  9 21  1  0
 20 21  1  0
 17 22  1  0
 21 22  2  0
 12 23  1  0
 23 24  2  0
  8 25  1  0
 24 25  1  0
 25 26  2  0
 26 27  1  0
  5 28  1  0
 23 28  1  0
 27 28  2  0
 29 30  2  0
 14 31  1  0
 30 31  1  0
 31 32  2  0
 32 33  1  0
  1 34  1  0
 29 34  1  0
 33 34  2  0
 15 36  1  0
 35 37  1  0
 36 37  1  0
M  END
