x2779-x1249
     RDKit          3D

 28 30  0  0  0  0  0  0  0  0999 V2000
    8.0420    0.7220   24.9860 N   0  0  0  0  0  0  0  0  0  0  0  0
    7.3760    1.5210   23.9470 C   0  0  0  0  0  0  0  0  0  0  0  0
    8.0600    2.6020   23.2940 O   0  0  0  0  0  0  0  0  0  0  0  0
    9.3570    1.3430   25.2450 C   0  0  0  0  0  0  0  0  0  0  0  0
   13.7360   -1.4300   20.6400 N   0  0  0  0  0  0  0  0  0  0  0  0
   13.0510   -2.0220   21.7250 C   0  0  0  0  0  0  0  0  0  0  0  0
    7.3580   -3.0410   18.7940 C   0  0  0  0  0  0  0  0  0  0  0  0
    5.4450   -4.1210   19.7470 O   0  0  0  0  0  0  0  0  0  0  0  0
    6.3940   -3.3340   19.9190 C   0  0  0  0  0  0  0  0  0  0  0  0
   10.3340   -2.9560   22.8440 C   0  0  0  0  0  0  0  0  0  0  0  0
    3.2540    0.9210   23.5870 O   0  0  0  0  0  0  0  0  0  0  0  0
    3.9960    0.9460   22.3790 C   0  0  0  0  0  0  0  0  0  0  0  0
    5.2740    1.4700   22.4880 C   0  0  0  0  0  0  0  0  0  0  0  0
    6.0340    1.1070   23.6890 N   0  0  0  0  0  0  0  0  0  0  0  0
    5.2640    0.7890   24.7640 C   0  0  0  0  0  0  0  0  0  0  0  0
    4.0030    0.2170   24.5880 C   0  0  0  0  0  0  0  0  0  0  0  0
   11.7400    1.1770   23.8090 C   0  0  0  0  0  0  0  0  0  0  0  0
   12.6340    0.4430   23.0040 C   0  0  0  0  0  0  0  0  0  0  0  0
   12.2790   -0.9940   22.6030 C   0  0  0  0  0  0  0  0  0  0  0  0
   10.9710   -1.6250   23.0740 C   0  0  0  0  0  0  0  0  0  0  0  0
   10.1570   -0.7640   23.9040 C   0  0  0  0  0  0  0  0  0  0  0  0
   10.5220    0.6140   24.2710 C   0  0  0  0  0  0  0  0  0  0  0  0
    6.6680   -2.7060   21.1420 N   0  0  0  0  0  0  0  0  0  0  0  0
    7.3400   -1.3920   21.2330 C   0  0  0  0  0  0  0  0  0  0  0  0
    8.7080   -1.5380   21.8790 C   0  0  0  0  0  0  0  0  0  0  0  0
    8.9730   -2.7770   22.3380 N   0  0  0  0  0  0  0  0  0  0  0  0
    7.9770   -3.5490   22.8310 C   0  0  0  0  0  0  0  0  0  0  0  0
    6.6640   -3.4530   22.2610 C   0  0  0  0  0  0  0  0  0  0  0  0
  1  2  1  0
  2  3  2  0
  1  4  1  0
  5  6  3  0
  7  9  1  0
  8  9  2  0
 11 12  1  0
 12 13  1  0
  2 14  1  0
 13 14  1  0
 14 15  1  0
 11 16  1  0
 15 16  1  0
 17 18  2  0
  6 19  1  0
 18 19  1  0
 10 20  1  0
 19 20  2  0
 20 21  1  0
  4 22  1  0
 17 22  1  0
 21 22  2  0
  9 23  1  0
 23 24  1  0
 24 25  1  0
 10 26  1  0
 25 26  1  0
 26 27  1  0
 23 28  1  0
 27 28  1  0
M  END
