x2779-x2608
     RDKit          3D

 26 29  0  0  0  0  0  0  0  0999 V2000
    7.3110   -3.0630   18.7830 C   0  0  0  0  0  0  0  0  0  0  0  0
    5.5640   -4.2850   19.8550 O   0  0  0  0  0  0  0  0  0  0  0  0
    6.4340   -3.3980   19.9920 C   0  0  0  0  0  0  0  0  0  0  0  0
    9.9730   -2.5260   23.8610 C   0  0  0  0  0  0  0  0  0  0  0  0
    7.9210    0.7440   22.5570 O   0  0  0  0  0  0  0  0  0  0  0  0
    8.1420   -0.5370   21.9690 C   0  0  0  0  0  0  0  0  0  0  0  0
   12.3320    2.0840   23.0960 C   0  0  0  0  0  0  0  0  0  0  0  0
    6.6710   -2.6660   21.1820 N   0  0  0  0  0  0  0  0  0  0  0  0
    7.6570   -1.6460   20.9820 C   0  0  2  0  0  0  0  0  0  0  0  0
    8.8900   -1.7720   21.7490 C   0  0  2  0  0  0  0  0  0  0  0  0
    8.9960   -2.7320   22.8850 N   0  0  0  0  0  0  0  0  0  0  0  0
    7.8510   -3.6310   23.0910 C   0  0  0  0  0  0  0  0  0  0  0  0
    6.6320   -3.3000   22.5090 C   0  0  0  0  0  0  0  0  0  0  0  0
   12.2040   -1.6920   22.8590 C   0  0  0  0  0  0  0  0  0  0  0  0
   10.9400   -1.5150   23.5040 C   0  0  0  0  0  0  0  0  0  0  0  0
   10.5230    0.1300   23.8930 S   0  0  0  0  0  0  0  0  0  0  0  0
   12.0370    0.6380   23.1550 C   0  0  0  0  0  0  0  0  0  0  0  0
   12.8820   -0.4710   22.6360 C   0  0  0  0  0  0  0  0  0  0  0  0
    5.4340    1.0090   17.5930 N   0  0  0  0  0  0  0  0  0  0  0  0
    5.9480   -0.2450   18.1860 C   0  0  0  0  0  0  0  0  0  0  0  0
    5.4220    0.0220   19.6000 C   0  0  0  0  0  0  0  0  0  0  0  0
    4.6500    1.1350   20.2190 C   0  0  0  0  0  0  0  0  0  0  0  0
    4.2420    2.2840   19.4230 C   0  0  0  0  0  0  0  0  0  0  0  0
    4.7250    2.1120   18.0020 C   0  0  0  0  0  0  0  0  0  0  0  0
    7.4940   -0.9750   19.6410 C   0  0  0  0  0  0  0  0  0  0  0  0
    6.2800   -1.3080   19.0870 C   0  0  0  0  0  0  0  0  0  0  0  0
  1  3  1  0
  2  3  2  0
  5  6  2  0
  3  8  1  0
  6  9  1  0
  8  9  1  0
 10  6  1  1
  9 10  1  0
  4 11  1  0
 10 11  1  0
 11 12  1  0
  8 13  1  0
 12 13  1  0
  4 15  1  0
 14 15  2  0
 15 16  1  0
  7 17  1  0
 16 17  1  0
 14 18  1  0
 17 18  2  0
 19 20  2  0
 20 21  1  0
 21 22  2  0
 22 23  1  0
 19 24  1  0
 23 24  2  0
  9 25  1  6
 20 26  1  0
 25 26  1  0
M  END
