x2779-x3110
     RDKit          3D

 35 38  0  0  0  0  0  0  0  0999 V2000
    8.1510    1.2080   23.2800 N   0  0  0  0  0  0  0  0  0  0  0  0
   13.3920    5.1310   22.8500 C   0  0  0  0  0  0  0  0  0  0  0  0
   12.0810    3.3720   22.4250 O   0  0  0  0  0  0  0  0  0  0  0  0
   12.3470    4.4890   21.9680 C   0  0  0  0  0  0  0  0  0  0  0  0
   10.9340    4.3770   24.1300 O   0  0  0  0  0  0  0  0  0  0  0  0
   11.1740    3.4050   23.4330 C   0  0  0  0  0  0  0  0  0  0  0  0
    8.7730    1.3680   21.0910 O   0  0  0  0  0  0  0  0  0  0  0  0
   10.4990    2.0720   23.5750 C   0  0  0  0  0  0  0  0  0  0  0  0
    8.9700    2.2740   23.6970 C   0  0  0  0  0  0  0  0  0  0  0  0
    8.2110    0.6910   21.9840 C   0  0  0  0  0  0  0  0  0  0  0  0
    7.4980   -0.6940   21.6530 C   0  0  1  0  0  0  0  0  0  0  0  0
   12.1710   -2.0650   24.2150 C   0  0  0  0  0  0  0  0  0  0  0  0
   12.5860   -0.7610   24.8870 C   0  0  0  0  0  0  0  0  0  0  0  0
   13.3060   -2.4040   23.2450 C   0  0  0  0  0  0  0  0  0  0  0  0
   11.9560   -3.1420   25.0690 C   0  0  0  0  0  0  0  0  0  0  0  0
    7.5200   -3.0430   18.5370 C   0  0  0  0  0  0  0  0  0  0  0  0
    5.7630   -4.0590   19.7620 O   0  0  0  0  0  0  0  0  0  0  0  0
    6.6770   -3.2000   19.7310 C   0  0  0  0  0  0  0  0  0  0  0  0
    9.3870   -1.6460   23.2100 C   0  0  0  0  0  0  0  0  0  0  0  0
    6.4580    0.1160   18.1550 N   0  0  0  0  0  0  0  0  0  0  0  0
    5.1860    0.8570   18.2070 C   0  0  0  0  0  0  0  0  0  0  0  0
    4.5920    1.1110   19.4470 C   0  0  0  0  0  0  0  0  0  0  0  0
    5.1890    0.6660   20.7790 C   0  0  0  0  0  0  0  0  0  0  0  0
    6.5100   -0.0840   20.5560 C   0  0  0  0  0  0  0  0  0  0  0  0
    7.0840   -0.3340   19.2970 C   0  0  0  0  0  0  0  0  0  0  0  0
    9.3240   -0.8990   21.7050 C   0  0  1  0  0  0  0  0  0  0  0  0
   10.4910   -1.2740   22.2920 C   0  0  0  0  0  0  0  0  0  0  0  0
   10.8470   -1.7590   23.4990 C   0  0  0  0  0  0  0  0  0  0  0  0
    9.5190   -1.8900   24.0880 C   0  0  0  0  0  0  0  0  0  0  0  0
    8.5340   -1.2480   23.1640 C   0  0  1  0  0  0  0  0  0  0  0  0
    8.8010   -0.1130   22.5810 C   0  0  0  0  0  0  0  0  0  0  0  0
    7.1070   -2.2360   20.7790 C   0  0  0  0  0  0  0  0  0  0  0  0
    8.3830   -1.7360   20.9000 C   0  0  0  0  0  0  0  0  0  0  0  0
    7.0140   -1.4600   23.1040 C   0  0  0  0  0  0  0  0  0  0  0  0
    6.2810   -1.8760   21.9100 C   0  0  0  0  0  0  0  0  0  0  0  0
  2  4  1  0
  3  4  1  0
  3  6  1  0
  5  6  2  0
  6  8  1  0
  1  9  1  0
  8  9  1  0
  1 10  1  0
  7 10  2  0
 11 10  1  6
 12 13  1  0
 12 14  1  0
 12 15  1  0
 16 18  1  0
 17 18  2  0
 20 21  2  0
 21 22  1  0
 22 23  2  0
 11 24  1  0
 23 24  1  0
 20 25  1  0
 24 25  2  0
 19 27  1  0
 26 27  1  0
 12 28  1  0
 27 28  2  0
 28 29  1  0
 26 30  1  0
 30 29  1  1
 26 31  1  6
 30 31  1  0
 18 32  1  0
 11 33  1  0
 26 33  1  0
 32 33  2  0
 30 34  1  0
 32 35  1  0
 34 35  2  0
M  END
