x2776-x1458-x3117-x2694-x2754
     RDKit          3D

 57 64  0  0  0  0  0  0  0  0999 V2000
    7.0500   -1.4610   21.4370 C   0  0  2  0  0  0  0  0  0  0  0  0
    6.6490   -4.2940   20.3770 C   0  0  0  0  0  0  0  0  0  0  0  0
    4.8810   -2.9790   20.7000 O   0  0  0  0  0  0  0  0  0  0  0  0
    7.6680    1.8950   22.8610 N   0  0  0  0  0  0  0  0  0  0  0  0
    8.9120    1.2410   20.9920 O   0  0  0  0  0  0  0  0  0  0  0  0
    6.0950   -2.7940   21.1660 C   0  0  0  0  0  0  0  0  0  0  0  0
   10.7620    6.5840   23.8860 O   0  0  0  0  0  0  0  0  0  0  0  0
    6.7720    0.0900   21.2450 C   0  0  1  0  0  0  0  0  0  0  0  0
   13.8280   -2.4920   24.2520 O   0  0  0  0  0  0  0  0  0  0  0  0
    7.8990    1.0880   21.6510 C   0  0  0  0  0  0  0  0  0  0  0  0
   10.5320    1.7170   23.8130 C   0  0  0  0  0  0  0  0  0  0  0  0
   11.8020    6.4760   24.8540 C   0  0  0  0  0  0  0  0  0  0  0  0
   12.7700   -1.6480   23.8110 C   0  0  0  0  0  0  0  0  0  0  0  0
   13.0850   -0.2100   23.5090 C   0  0  0  0  0  0  0  0  0  0  0  0
   13.5320   -3.0180   25.5400 C   0  0  0  0  0  0  0  0  0  0  0  0
   12.0980   -2.2020   22.5990 C   0  0  0  0  0  0  0  0  0  0  0  0
   12.4130   -0.8150   24.8340 C   0  0  0  0  0  0  0  0  0  0  0  0
    4.7690   -3.6120   25.1640 C   0  0  0  0  0  0  0  0  0  0  0  0
    6.5230   -6.0610   27.9950 C   0  0  0  0  0  0  0  0  0  0  0  0
    6.0780   -3.8210   25.8660 C   0  0  0  0  0  0  0  0  0  0  0  0
    6.6360   -1.6040   22.8010 C   0  0  0  0  0  0  0  0  0  0  0  0
    3.6350   -2.8950   25.7350 C   0  0  0  0  0  0  0  0  0  0  0  0
    2.9780   -3.5740   24.9630 O   0  0  0  0  0  0  0  0  0  0  0  0
    4.7140   -2.3700   26.4090 N   0  0  0  0  0  0  0  0  0  0  0  0
    4.7810   -2.2960   27.7480 C   0  0  0  0  0  0  0  0  0  0  0  0
    6.3050    0.7100   17.5260 N   0  0  0  0  0  0  0  0  0  0  0  0
    5.1920    1.4940   17.6230 C   0  0  0  0  0  0  0  0  0  0  0  0
    4.5090    1.8620   18.7580 C   0  0  0  0  0  0  0  0  0  0  0  0
    4.9650    1.4280   19.9880 C   0  0  0  0  0  0  0  0  0  0  0  0
    6.2030    0.5640   19.9780 C   0  0  0  0  0  0  0  0  0  0  0  0
    6.7850    0.2630   18.6750 C   0  0  0  0  0  0  0  0  0  0  0  0
    9.8070    3.0240   23.5660 C   0  0  0  0  0  0  0  0  0  0  0  0
   10.5650    4.1860   23.8150 C   0  0  0  0  0  0  0  0  0  0  0  0
    9.9450    5.4230   23.6070 C   0  0  0  0  0  0  0  0  0  0  0  0
    8.6210    5.4880   23.1560 C   0  0  0  0  0  0  0  0  0  0  0  0
    7.9030    4.3160   22.9180 C   0  0  0  0  0  0  0  0  0  0  0  0
    8.4610    3.0710   23.1160 C   0  0  0  0  0  0  0  0  0  0  0  0
    9.6580   -1.9320   21.8720 C   0  0  0  0  0  0  0  0  0  0  0  0
   10.6800   -1.8400   22.8000 C   0  0  0  0  0  0  0  0  0  0  0  0
   10.4650   -1.3630   24.0810 C   0  0  0  0  0  0  0  0  0  0  0  0
    9.2090   -0.9660   24.4150 C   0  0  0  0  0  0  0  0  0  0  0  0
    8.2240   -1.0380   23.5210 C   0  0  0  0  0  0  0  0  0  0  0  0
    8.3870   -1.5080   22.2410 C   0  0  0  0  0  0  0  0  0  0  0  0
    6.9260   -3.9660   21.6710 C   0  0  2  0  0  0  0  0  0  0  0  0
    6.5010   -3.0790   22.8810 C   0  0  1  0  0  0  0  0  0  0  0  0
    7.3380   -3.5690   23.9760 C   0  0  0  0  0  0  0  0  0  0  0  0
    6.6310   -4.5200   24.5720 C   0  0  2  0  0  0  0  0  0  0  0  0
    5.5580   -5.1510   23.8660 C   0  0  2  0  0  0  0  0  0  0  0  0
    6.0400   -5.1760   22.3540 C   0  0  0  0  0  0  0  0  0  0  0  0
    5.1170   -3.2010   22.8340 C   0  0  0  0  0  0  0  0  0  0  0  0
    4.6780   -4.2100   23.8110 C   0  0  2  0  0  0  0  0  0  0  0  0
    7.6000   -5.2260   27.3850 C   0  0  0  0  0  0  0  0  0  0  0  0
    8.9030   -5.4010   27.7240 C   0  0  0  0  0  0  0  0  0  0  0  0
    9.9160   -4.6700   27.1970 C   0  0  0  0  0  0  0  0  0  0  0  0
    9.7730   -3.6750   26.2810 C   0  0  0  0  0  0  0  0  0  0  0  0
    8.5370   -3.3460   25.8160 C   0  0  0  0  0  0  0  0  0  0  0  0
    7.3660   -4.1200   26.3420 C   0  0  0  0  0  0  0  0  0  0  0  0
  1  6  1  0
  3  6  2  0
  1  8  1  0
  4 10  1  0
  5 10  2  0
  8 10  1  6
  7 12  1  0
 13  9  1  0
 13 14  1  0
  9 15  1  0
 13 16  1  0
 13 17  1  0
 18 20  2  0
  1 21  1  0
 18 22  1  0
 22 23  2  0
 22 24  1  0
 24 25  1  0
 26 27  2  0
 27 28  1  0
 28 29  2  0
  8 30  1  0
 29 30  1  0
 26 31  1  0
 30 31  2  0
 11 32  1  0
 32 33  2  0
  7 34  1  0
 33 34  1  0
 34 35  2  0
 35 36  1  0
  4 37  1  0
 32 37  1  0
 36 37  2  0
 16 39  1  0
 38 39  2  0
 39 40  1  0
 40 41  2  0
 41 42  1  0
  1 43  1  1
 38 43  1  0
 42 43  2  0
 44  2  1  1
  6 44  1  0
 45 21  1  6
 44 45  1  0
 45 46  1  0
 47 20  1  1
 46 47  1  0
 47 48  1  0
 44 49  1  0
 48 49  1  6
 45 50  1  0
 51 18  1  1
 48 51  1  0
 50 51  1  0
 19 52  1  0
 52 53  2  0
 53 54  1  0
 54 55  2  0
 55 56  1  0
 20 57  1  0
 52 57  1  0
 56 57  2  0
M  END
