x2776-x0731
     RDKit          3D

 52 57  0  0  0  0  0  0  0  0999 V2000
    6.6370   -1.3560   21.9430 C   0  0  1  0  0  0  0  0  0  0  0  0
    6.6230   -4.0180   19.9580 C   0  0  0  0  0  0  0  0  0  0  0  0
    4.7030   -2.9200   21.3100 O   0  0  0  0  0  0  0  0  0  0  0  0
    6.1430   -2.6840   19.7130 C   0  0  0  0  0  0  0  0  0  0  0  0
    7.7980    1.9590   23.0210 N   0  0  0  0  0  0  0  0  0  0  0  0
    8.5800    1.2980   20.9660 O   0  0  0  0  0  0  0  0  0  0  0  0
    5.7990   -2.2850   20.9950 C   0  0  0  0  0  0  0  0  0  0  0  0
   10.8780    6.6010   23.8000 O   0  0  0  0  0  0  0  0  0  0  0  0
    6.5090    0.2330   21.6630 C   0  0  1  0  0  0  0  0  0  0  0  0
   12.3620   -2.9170   24.8710 O   0  0  0  0  0  0  0  0  0  0  0  0
    7.7360    1.2100   21.8680 C   0  0  0  0  0  0  0  0  0  0  0  0
   10.5640    1.7910   23.8870 C   0  0  0  0  0  0  0  0  0  0  0  0
   11.8070    6.5200   24.8810 C   0  0  0  0  0  0  0  0  0  0  0  0
   11.9850   -1.6040   24.4650 C   0  0  1  0  0  0  0  0  0  0  0  0
   13.0570   -1.0180   23.5520 C   0  0  0  0  0  0  0  0  0  0  0  0
   13.6460   -2.9510   25.4340 C   0  0  0  0  0  0  0  0  0  0  0  0
    1.0370   -0.9500   26.1100 C   0  0  0  0  0  0  0  0  0  0  0  0
    6.1220   -4.9810   26.6640 O   0  0  0  0  0  0  0  0  0  0  0  0
    4.5030   -6.6180   25.7600 O   0  0  0  0  0  0  0  0  0  0  0  0
    5.1900   -5.3520   25.6440 S   0  0  0  0  0  0  0  0  0  0  0  0
    5.9540   -2.1700   23.0430 C   0  0  0  0  0  0  0  0  0  0  0  0
    5.4310   -3.3690   22.3980 C   0  0  0  0  0  0  0  0  0  0  0  0
    6.3420    0.5500   17.8750 N   0  0  0  0  0  0  0  0  0  0  0  0
    5.2260    1.2900   17.7840 C   0  0  0  0  0  0  0  0  0  0  0  0
    4.4830    1.7010   18.8650 C   0  0  0  0  0  0  0  0  0  0  0  0
    4.8730    1.3620   20.1560 C   0  0  0  0  0  0  0  0  0  0  0  0
    6.0280    0.6070   20.2730 C   0  0  0  0  0  0  0  0  0  0  0  0
    6.7170    0.2250   19.1260 C   0  0  0  0  0  0  0  0  0  0  0  0
    9.8760    3.1030   23.6170 C   0  0  0  0  0  0  0  0  0  0  0  0
   10.6220    4.2790   23.8020 C   0  0  0  0  0  0  0  0  0  0  0  0
   10.0510    5.5270   23.5760 C   0  0  0  0  0  0  0  0  0  0  0  0
    8.7220    5.6000   23.1490 C   0  0  0  0  0  0  0  0  0  0  0  0
    7.9620    4.4380   22.9570 C   0  0  0  0  0  0  0  0  0  0  0  0
    8.5290    3.1740   23.1930 C   0  0  0  0  0  0  0  0  0  0  0  0
    9.3370   -2.1640   21.6990 C   0  0  0  0  0  0  0  0  0  0  0  0
   10.5800   -2.1740   22.3810 C   0  0  0  0  0  0  0  0  0  0  0  0
   10.6820   -1.6400   23.6850 C   0  0  0  0  0  0  0  0  0  0  0  0
    9.6010   -1.0960   24.3640 C   0  0  0  0  0  0  0  0  0  0  0  0
    8.3740   -1.0700   23.7190 C   0  0  0  0  0  0  0  0  0  0  0  0
    8.1950   -1.6250   22.2940 C   0  0  0  0  0  0  0  0  0  0  0  0
    2.0550   -2.0350   25.9700 C   0  0  0  0  0  0  0  0  0  0  0  0
    1.7410   -3.2560   25.3910 C   0  0  0  0  0  0  0  0  0  0  0  0
    2.6770   -4.2670   25.2750 C   0  0  0  0  0  0  0  0  0  0  0  0
    3.9690   -4.0760   25.7440 C   0  0  0  0  0  0  0  0  0  0  0  0
    4.3060   -2.8480   26.3200 C   0  0  0  0  0  0  0  0  0  0  0  0
    3.3640   -1.8400   26.4330 C   0  0  0  0  0  0  0  0  0  0  0  0
    6.4360   -4.3460   21.5710 C   0  0  0  0  0  0  0  0  0  0  0  0
    7.5760   -4.5470   22.5180 C   0  0  0  0  0  0  0  0  0  0  0  0
    7.1780   -4.5640   23.8560 C   0  0  0  0  0  0  0  0  0  0  0  0
    5.8790   -5.2460   24.0860 N   0  0  0  0  0  0  0  0  0  0  0  0
    5.3570   -6.1530   23.0370 C   0  0  0  0  0  0  0  0  0  0  0  0
    5.8620   -5.7870   21.6470 C   0  0  0  0  0  0  0  0  0  0  0  0
  2  4  1  0
  1  7  1  0
  3  7  2  0
  4  7  1  0
  1  9  1  0
  5 11  1  0
  6 11  2  0
  9 11  1  6
  8 13  1  0
 10 14  1  0
 14 15  1  6
 10 16  1  0
 18 20  2  0
 19 20  2  0
  1 21  1  0
 21 22  1  0
 23 24  2  0
 24 25  1  0
 25 26  2  0
  9 27  1  0
 26 27  1  0
 23 28  1  0
 27 28  2  0
 12 29  1  0
 29 30  2  0
  8 31  1  0
 30 31  1  0
 31 32  2  0
 32 33  1  0
  5 34  1  0
 29 34  1  0
 33 34  2  0
 35 36  2  0
 14 37  1  0
 36 37  1  0
 37 38  2  0
 38 39  1  0
  1 40  1  6
 35 40  1  0
 39 40  2  0
 17 41  1  0
 41 42  2  0
 42 43  1  0
 20 44  1  0
 43 44  2  0
 44 45  1  0
 41 46  1  0
 45 46  2  0
  2 47  1  0
 47 22  1  0
 47 48  1  0
 48 49  1  0
 20 50  1  0
 49 50  1  0
 50 51  1  0
 47 52  1  0
 51 52  1  0
M  END
