x2776-x0995
     RDKit          3D

 35 37  0  0  0  0  0  0  0  0999 V2000
    6.8770   -1.5660   21.8690 N   0  0  0  0  0  0  0  0  0  0  0  0
    6.8280   -4.9700   20.5220 C   0  0  0  0  0  0  0  0  0  0  0  0
    4.8200   -2.9860   21.1720 O   0  0  0  0  0  0  0  0  0  0  0  0
    6.7590   -4.1130   21.7630 C   0  0  0  0  0  0  0  0  0  0  0  0
    7.7060    1.8610   22.8420 N   0  0  0  0  0  0  0  0  0  0  0  0
    9.0420    0.5990   21.4400 O   0  0  0  0  0  0  0  0  0  0  0  0
    6.0630   -2.7920   21.5770 C   0  0  0  0  0  0  0  0  0  0  0  0
   10.7770    6.5400   23.7970 O   0  0  0  0  0  0  0  0  0  0  0  0
    6.6620   -0.0840   21.5750 C   0  0  1  0  0  0  0  0  0  0  0  0
   12.3510   -2.7400   25.1990 O   0  0  0  0  0  0  0  0  0  0  0  0
    7.9410    0.8070   21.9390 C   0  0  0  0  0  0  0  0  0  0  0  0
   10.4690    1.7220   23.9050 C   0  0  0  0  0  0  0  0  0  0  0  0
   11.7920    6.4060   24.7950 C   0  0  0  0  0  0  0  0  0  0  0  0
   12.2580   -1.9760   24.0090 C   0  0  2  0  0  0  0  0  0  0  0  0
   12.8030   -0.5900   24.2880 C   0  0  0  0  0  0  0  0  0  0  0  0
   13.6890   -2.9930   25.5400 C   0  0  0  0  0  0  0  0  0  0  0  0
    3.3820    2.3610   18.8210 N   0  0  0  0  0  0  0  0  0  0  0  0
    6.3350    0.4730   17.8390 N   0  0  0  0  0  0  0  0  0  0  0  0
    5.2190    1.2320   17.8230 C   0  0  0  0  0  0  0  0  0  0  0  0
    4.4800    1.6150   18.8980 C   0  0  0  0  0  0  0  0  0  0  0  0
    5.0010    1.1320   20.2000 C   0  0  0  0  0  0  0  0  0  0  0  0
    6.1510    0.3590   20.2360 C   0  0  0  0  0  0  0  0  0  0  0  0
    6.8000    0.0340   19.0480 C   0  0  0  0  0  0  0  0  0  0  0  0
    9.7840    3.0180   23.5730 C   0  0  0  0  0  0  0  0  0  0  0  0
   10.5270    4.2060   23.7990 C   0  0  0  0  0  0  0  0  0  0  0  0
    9.9680    5.4560   23.5270 C   0  0  0  0  0  0  0  0  0  0  0  0
    8.6770    5.5180   23.0200 C   0  0  0  0  0  0  0  0  0  0  0  0
    7.9370    4.3390   22.7900 C   0  0  0  0  0  0  0  0  0  0  0  0
    8.4600    3.0710   23.0610 C   0  0  0  0  0  0  0  0  0  0  0  0
    9.2620   -2.0190   21.7040 C   0  0  0  0  0  0  0  0  0  0  0  0
   10.5650   -2.1200   22.1870 C   0  0  0  0  0  0  0  0  0  0  0  0
   10.8410   -1.8690   23.5200 C   0  0  0  0  0  0  0  0  0  0  0  0
    9.7710   -1.5180   24.3470 C   0  0  0  0  0  0  0  0  0  0  0  0
    8.4590   -1.4170   23.8640 C   0  0  0  0  0  0  0  0  0  0  0  0
    8.1830   -1.6660   22.5140 C   0  0  0  0  0  0  0  0  0  0  0  0
  2  4  1  0
  1  7  1  0
  3  7  2  0
  4  7  1  0
  1  9  1  0
  5 11  1  0
  6 11  2  0
  9 11  1  6
  8 13  1  0
 10 14  1  0
 14 15  1  1
 10 16  1  0
 18 19  2  0
 17 20  1  0
 19 20  1  0
 20 21  2  0
  9 22  1  0
 21 22  1  0
 18 23  1  0
 22 23  2  0
 12 24  1  0
 24 25  2  0
  8 26  1  0
 25 26  1  0
 26 27  2  0
 27 28  1  0
  5 29  1  0
 24 29  1  0
 28 29  2  0
 30 31  2  0
 14 32  1  0
 31 32  1  0
 32 33  2  0
 33 34  1  0
  1 35  1  0
 30 35  1  0
 34 35  2  0
M  END
