x2776-x2052-x0820
     RDKit          3D

 58 66  0  0  0  0  0  0  0  0999 V2000
    7.0650   -1.7520   22.0090 S   0  0  0  0  0  0  0  0  0  0  0  0
    7.1380   -4.5930   20.9290 C   0  0  0  0  0  0  0  0  0  0  0  0
    4.9980   -3.3200   20.1400 O   0  0  0  0  0  0  0  0  0  0  0  0
    6.6180   -3.5210   21.6230 C   0  0  2  0  0  0  0  0  0  0  0  0
    7.8690    1.8690   22.9380 N   0  0  0  0  0  0  0  0  0  0  0  0
    9.0110    1.1920   21.0820 O   0  0  0  0  0  0  0  0  0  0  0  0
    5.7600   -2.6240   20.8260 C   0  0  0  0  0  0  0  0  0  0  0  0
   10.7690    6.6220   23.9130 O   0  0  0  0  0  0  0  0  0  0  0  0
    6.8850    0.0510   21.4490 C   0  0  1  0  0  0  0  0  0  0  0  0
   13.0670   -1.7520   25.1660 O   0  0  0  0  0  0  0  0  0  0  0  0
    8.0230    1.0340   21.7790 C   0  0  0  0  0  0  0  0  0  0  0  0
   10.3920    1.7440   23.9220 C   0  0  0  0  0  0  0  0  0  0  0  0
   11.8430    6.5910   24.8420 C   0  0  0  0  0  0  0  0  0  0  0  0
   12.8990   -1.4740   23.8260 C   0  0  2  0  0  0  0  0  0  0  0  0
   13.1030    0.0690   23.4020 C   0  0  0  0  0  0  0  0  0  0  0  0
   13.3870   -3.0860   25.2610 C   0  0  0  0  0  0  0  0  0  0  0  0
    6.9150   -3.2440   22.9160 C   0  0  2  0  0  0  0  0  0  0  0  0
    5.6570   -1.7100   25.7580 C   0  0  0  0  0  0  0  0  0  0  0  0
    4.5180   -2.0020   26.1160 O   0  0  0  0  0  0  0  0  0  0  0  0
    6.5160   -0.8690   26.5650 N   0  0  0  0  0  0  0  0  0  0  0  0
    5.3120    2.4480   30.6470 O   0  0  0  0  0  0  0  0  0  0  0  0
    6.1710    3.5760   30.8390 C   0  0  0  0  0  0  0  0  0  0  0  0
    6.3120    0.6080   17.7290 N   0  0  0  0  0  0  0  0  0  0  0  0
    5.1900    1.4130   17.6540 C   0  0  0  0  0  0  0  0  0  0  0  0
    4.4620    1.8450   18.8870 C   0  0  0  0  0  0  0  0  0  0  0  0
    5.0710    1.3450   20.1590 C   0  0  0  0  0  0  0  0  0  0  0  0
    6.3170    0.4750   20.1400 C   0  0  0  0  0  0  0  0  0  0  0  0
    6.8000    0.1920   18.9010 C   0  0  0  0  0  0  0  0  0  0  0  0
    9.8080    3.0680   23.6450 C   0  0  0  0  0  0  0  0  0  0  0  0
   10.5330    4.2570   23.8830 C   0  0  0  0  0  0  0  0  0  0  0  0
    9.9750    5.5150   23.6280 C   0  0  0  0  0  0  0  0  0  0  0  0
    8.6790    5.5790   23.1130 C   0  0  0  0  0  0  0  0  0  0  0  0
    7.9760    4.3900   22.8790 C   0  0  0  0  0  0  0  0  0  0  0  0
    8.5070    3.1240   23.1370 C   0  0  0  0  0  0  0  0  0  0  0  0
    9.9970   -2.3010   21.7070 C   0  0  0  0  0  0  0  0  0  0  0  0
   11.2880   -2.2000   22.1790 C   0  0  0  0  0  0  0  0  0  0  0  0
   11.5180   -1.5920   23.3970 C   0  0  0  0  0  0  0  0  0  0  0  0
   10.3880   -1.0300   24.2690 C   0  0  0  0  0  0  0  0  0  0  0  0
    9.1650   -1.1610   23.7250 C   0  0  0  0  0  0  0  0  0  0  0  0
    8.9820   -1.7770   22.4670 C   0  0  0  0  0  0  0  0  0  0  0  0
    6.3220   -4.4600   25.0060 C   0  0  2  0  0  0  0  0  0  0  0  0
    5.4580   -4.7730   26.0940 C   0  0  0  0  0  0  0  0  0  0  0  0
    4.0450   -4.7040   26.0100 C   0  0  0  0  0  0  0  0  0  0  0  0
    3.5510   -4.2960   24.7640 C   0  0  0  0  0  0  0  0  0  0  0  0
    4.5180   -3.6200   23.7550 C   0  0  0  0  0  0  0  0  0  0  0  0
    6.0080   -5.2480   27.4550 C   0  0  0  0  0  0  0  0  0  0  0  0
    7.3110   -5.6960   27.5400 C   0  0  0  0  0  0  0  0  0  0  0  0
    8.1970   -5.6850   26.2750 C   0  0  0  0  0  0  0  0  0  0  0  0
    7.6530   -5.0490   25.0960 C   0  0  0  0  0  0  0  0  0  0  0  0
    6.3460   -1.2190   23.5210 C   0  0  0  0  0  0  0  0  0  0  0  0
    6.1840   -2.1380   24.5080 C   0  0  2  0  0  0  0  0  0  0  0  0
    5.9170   -3.3680   24.0130 C   0  0  2  0  0  0  0  0  0  0  0  0
    6.2630    2.0280   28.5140 N   0  0  0  0  0  0  0  0  0  0  0  0
    6.6250    1.1650   27.3490 C   0  0  0  0  0  0  0  0  0  0  0  0
    6.2110   -0.0150   27.5760 C   0  0  0  0  0  0  0  0  0  0  0  0
    5.5180   -0.6980   28.6010 C   0  0  0  0  0  0  0  0  0  0  0  0
    5.1820    0.0940   29.6710 C   0  0  0  0  0  0  0  0  0  0  0  0
    5.6060    1.5720   29.5910 C   0  0  0  0  0  0  0  0  0  0  0  0
  1  4  1  0
  4  2  1  6
  1  7  1  0
  3  7  2  0
  4  7  1  0
  1  9  1  0
  5 11  1  0
  6 11  2  0
  9 11  1  6
  8 13  1  0
 10 14  1  0
 14 15  1  1
 10 16  1  0
 17  1  1  6
  4 17  1  0
 18 19  2  0
 18 20  1  0
 21 22  1  0
 23 24  2  0
 24 25  1  0
 25 26  2  0
  9 27  1  0
 26 27  1  0
 23 28  1  0
 27 28  2  0
 12 29  1  0
 29 30  2  0
  8 31  1  0
 30 31  1  0
 31 32  2  0
 32 33  1  0
  5 34  1  0
 29 34  1  0
 33 34  2  0
 35 36  2  0
 14 37  1  0
 36 37  1  0
 37 38  2  0
 38 39  1  0
  1 40  1  0
 35 40  1  0
 39 40  2  0
 41 42  1  0
 42 43  2  0
 43 44  1  0
 44 45  2  0
 42 46  1  0
 46 47  2  0
 47 48  1  0
 41 49  1  1
 48 49  2  0
  1 50  1  0
 51 18  1  1
 50 51  1  0
 17 52  1  0
 41 52  1  0
 52 45  1  6
 51 52  1  0
 53 54  2  0
 20 55  1  0
 54 55  1  0
 55 56  2  0
 56 57  1  0
 21 58  1  0
 53 58  1  0
 57 58  2  0
M  END
