x2779-x1386
     RDKit          3D

 15 16  0  0  0  0  0  0  0  0999 V2000
    7.2690   -2.9700   18.7190 C   0  0  0  0  0  0  0  0  0  0  0  0
    5.4310   -4.0870   19.7280 O   0  0  0  0  0  0  0  0  0  0  0  0
    6.3310   -3.2450   19.8550 C   0  0  0  0  0  0  0  0  0  0  0  0
   10.1480   -2.6990   23.5570 C   0  0  0  0  0  0  0  0  0  0  0  0
    6.5580   -2.5320   21.0420 N   0  0  0  0  0  0  0  0  0  0  0  0
    7.5300   -1.4430   21.1000 C   0  0  0  0  0  0  0  0  0  0  0  0
    8.9030   -1.7370   21.7290 C   0  0  0  0  0  0  0  0  0  0  0  0
    8.8260   -2.4370   23.0100 N   0  0  0  0  0  0  0  0  0  0  0  0
    7.8600   -3.4180   23.2220 C   0  0  0  0  0  0  0  0  0  0  0  0
    6.6060   -3.2920   22.3240 C   0  0  0  0  0  0  0  0  0  0  0  0
   12.2770   -1.3060   22.6350 C   0  0  0  0  0  0  0  0  0  0  0  0
   11.0480   -1.5430   23.5230 C   0  0  0  0  0  0  0  0  0  0  0  0
   10.8090   -0.1890   24.5660 S   0  0  0  0  0  0  0  0  0  0  0  0
   12.2390    0.5910   23.8320 C   0  0  0  0  0  0  0  0  0  0  0  0
   12.9040   -0.1030   22.8480 C   0  0  0  0  0  0  0  0  0  0  0  0
  1  3  1  0
  2  3  2  0
  3  5  1  0
  5  6  1  0
  6  7  1  0
  4  8  1  0
  7  8  1  0
  8  9  1  0
  5 10  1  0
  9 10  1  0
  4 12  1  0
 11 12  2  0
 12 13  1  0
 13 14  1  0
 11 15  1  0
 14 15  2  0
M  END
