x2776-x1384
     RDKit          3D

 46 51  0  0  0  0  0  0  0  0999 V2000
    6.7890   -1.4290   21.8790 C   0  0  2  0  0  0  0  0  0  0  0  0
    7.4100   -3.2550   19.0940 C   0  0  0  0  0  0  0  0  0  0  0  0
    4.8360   -2.9720   21.0390 O   0  0  0  0  0  0  0  0  0  0  0  0
    6.9440   -3.6660   20.4440 C   0  0  0  0  0  0  0  0  0  0  0  0
    7.8690    1.9210   22.9530 N   0  0  0  0  0  0  0  0  0  0  0  0
    8.7730    1.2590   20.9710 O   0  0  0  0  0  0  0  0  0  0  0  0
    6.1120   -2.6580   21.1020 C   0  0  0  0  0  0  0  0  0  0  0  0
   10.8070    6.5690   23.8290 O   0  0  0  0  0  0  0  0  0  0  0  0
    6.6760    0.1590   21.5110 C   0  0  1  0  0  0  0  0  0  0  0  0
   12.3720   -2.9130   24.8030 O   0  0  0  0  0  0  0  0  0  0  0  0
    7.8770    1.1530   21.8030 C   0  0  0  0  0  0  0  0  0  0  0  0
   10.5440    1.7550   23.8820 C   0  0  0  0  0  0  0  0  0  0  0  0
   11.8150    6.4550   24.8340 C   0  0  0  0  0  0  0  0  0  0  0  0
   12.0880   -1.5880   24.3670 C   0  0  1  0  0  0  0  0  0  0  0  0
   13.1750   -1.0840   23.4340 C   0  0  0  0  0  0  0  0  0  0  0  0
   13.6240   -2.9810   25.4350 C   0  0  0  0  0  0  0  0  0  0  0  0
    6.3960    0.5140   17.7630 N   0  0  0  0  0  0  0  0  0  0  0  0
    5.2140    1.3600   17.6630 C   0  0  0  0  0  0  0  0  0  0  0  0
    4.5110    1.7650   18.9160 C   0  0  0  0  0  0  0  0  0  0  0  0
    4.9740    1.3660   20.1500 C   0  0  0  0  0  0  0  0  0  0  0  0
    6.1100    0.5800   20.1790 C   0  0  0  0  0  0  0  0  0  0  0  0
    6.7660    0.1810   19.0080 C   0  0  0  0  0  0  0  0  0  0  0  0
    9.8440    3.0600   23.5960 C   0  0  0  0  0  0  0  0  0  0  0  0
   10.5710    4.2410   23.8080 C   0  0  0  0  0  0  0  0  0  0  0  0
    9.9990    5.4820   23.5750 C   0  0  0  0  0  0  0  0  0  0  0  0
    8.6750    5.5350   23.1100 C   0  0  0  0  0  0  0  0  0  0  0  0
    7.9370    4.3650   22.8890 C   0  0  0  0  0  0  0  0  0  0  0  0
    8.5050    3.1120   23.1300 C   0  0  0  0  0  0  0  0  0  0  0  0
    9.3690   -2.0760   21.7830 C   0  0  0  0  0  0  0  0  0  0  0  0
   10.6290   -2.0950   22.4120 C   0  0  0  0  0  0  0  0  0  0  0  0
   10.7440   -1.5860   23.7110 C   0  0  0  0  0  0  0  0  0  0  0  0
    9.6460   -1.0850   24.3670 C   0  0  0  0  0  0  0  0  0  0  0  0
    8.4150   -1.0660   23.7450 C   0  0  0  0  0  0  0  0  0  0  0  0
    8.2460   -1.5540   22.4370 C   0  0  0  0  0  0  0  0  0  0  0  0
    3.6520   -1.7470   26.3820 O   0  0  0  0  0  0  0  0  0  0  0  0
    5.3320   -4.4870   25.2050 C   0  0  1  0  0  0  0  0  0  0  0  0
    5.7710   -3.4720   24.6650 C   0  0  2  0  0  0  0  0  0  0  0  0
    4.1200   -3.6210   24.6650 C   0  0  1  0  0  0  0  0  0  0  0  0
    3.3080   -4.3480   23.6420 C   0  0  0  0  0  0  0  0  0  0  0  0
    4.0320   -5.4620   23.5460 C   0  0  0  0  0  0  0  0  0  0  0  0
    5.0240   -5.4990   24.3280 C   0  0  0  0  0  0  0  0  0  0  0  0
    3.2240   -3.0580   26.0450 C   0  0  1  0  0  0  0  0  0  0  0  0
    3.7610   -3.9160   27.0110 C   0  0  0  0  0  0  0  0  0  0  0  0
    4.3390   -3.9600   25.9380 C   0  0  0  0  0  0  0  0  0  0  0  0
    6.0550   -1.8200   23.1210 C   0  0  0  0  0  0  0  0  0  0  0  0
    6.3560   -3.2870   23.3660 C   0  0  0  0  0  0  0  0  0  0  0  0
  2  4  1  0
  1  7  1  0
  3  7  2  0
  4  7  1  0
  1  9  1  0
  5 11  1  0
  6 11  2  0
  9 11  1  6
  8 13  1  0
 10 14  1  0
 14 15  1  6
 10 16  1  0
 17 18  2  0
 18 19  1  0
 19 20  2  0
  9 21  1  0
 20 21  1  0
 17 22  1  0
 21 22  2  0
 12 23  1  0
 23 24  2  0
  8 25  1  0
 24 25  1  0
 25 26  2  0
 26 27  1  0
  5 28  1  0
 23 28  1  0
 27 28  2  0
 29 30  2  0
 14 31  1  0
 30 31  1  0
 31 32  2  0
 32 33  1  0
  1 34  1  0
 29 34  1  0
 33 34  2  0
 36 37  1  0
 36 38  1  0
 37 38  1  0
 38 39  1  6
 39 40  1  0
 36 41  1  6
 40 41  2  0
 42 35  1  1
 38 42  1  0
 42 43  1  0
 36 44  1  0
 43 44  2  0
  1 45  1  1
 37 46  1  6
 45 46  1  0
M  END
