x2908-x0759
     RDKit          3D

 27 30  0  0  0  0  0  0  0  0999 V2000
    4.6760    0.7960   21.6820 C   0  0  0  0  0  0  0  0  0  0  0  0
    8.7020    1.3630   21.0390 O   0  0  0  0  0  0  0  0  0  0  0  0
   13.1620   -2.4280   21.3180 Cl  0  0  0  0  0  0  0  0  0  0  0  0
    7.2200   -0.6690   20.9220 N   0  0  0  0  0  0  0  0  0  0  0  0
    8.7130   -0.5560   22.5840 N   0  0  0  0  0  0  0  0  0  0  0  0
    8.2210    0.0780   21.5060 C   0  0  0  0  0  0  0  0  0  0  0  0
    5.3740   -4.1560   19.7590 O   0  0  0  0  0  0  0  0  0  0  0  0
    6.3390   -3.4220   20.0100 C   0  0  0  0  0  0  0  0  0  0  0  0
    7.2730   -2.9960   18.9160 C   0  0  0  0  0  0  0  0  0  0  0  0
    6.2530    0.5700   17.5910 N   0  0  0  0  0  0  0  0  0  0  0  0
    6.8920   -0.0470   18.6030 C   0  0  0  0  0  0  0  0  0  0  0  0
    6.5080   -0.0510   19.9240 C   0  0  0  0  0  0  0  0  0  0  0  0
    5.2050    0.7200   20.2880 C   0  0  0  0  0  0  0  0  0  0  0  0
    4.5420    1.3560   19.2500 C   0  0  0  0  0  0  0  0  0  0  0  0
    5.1360    1.2520   17.8540 C   0  0  0  0  0  0  0  0  0  0  0  0
   10.6430    0.4630   23.7750 C   0  0  0  0  0  0  0  0  0  0  0  0
   12.0180    0.4920   23.9390 C   0  0  0  0  0  0  0  0  0  0  0  0
   12.8430   -0.4790   23.1170 C   0  0  0  0  0  0  0  0  0  0  0  0
   12.2440   -1.3500   22.2480 C   0  0  0  0  0  0  0  0  0  0  0  0
   10.8630   -1.3660   22.0980 C   0  0  0  0  0  0  0  0  0  0  0  0
   10.0710   -0.4830   22.8360 C   0  0  0  0  0  0  0  0  0  0  0  0
    6.6250   -3.0260   21.3150 N   0  0  0  0  0  0  0  0  0  0  0  0
    6.8340   -1.7800   21.8300 C   0  0  1  0  0  0  0  0  0  0  0  0
    7.7780   -1.6600   22.8310 C   0  0  1  0  0  0  0  0  0  0  0  0
    8.4630   -2.9210   22.9720 O   0  0  0  0  0  0  0  0  0  0  0  0
    7.5150   -3.9510   23.3130 C   0  0  0  0  0  0  0  0  0  0  0  0
    6.4710   -4.0580   22.3510 C   0  0  0  0  0  0  0  0  0  0  0  0
  2  6  2  0
  4  6  1  0
  5  6  1  0
  7  8  2  0
  8  9  1  0
 10 11  2  0
  4 12  1  0
 11 12  1  0
  1 13  1  0
 12 13  2  0
 13 14  1  0
 10 15  1  0
 14 15  2  0
 16 17  2  0
 17 18  1  0
  3 19  1  0
 18 19  2  0
 19 20  1  0
  5 21  1  0
 16 21  1  0
 20 21  2  0
  8 22  1  0
 23  4  1  6
 22 23  1  0
  5 24  1  0
 23 24  1  0
 24 25  1  6
 25 26  1  0
 22 27  1  0
 26 27  1  0
M  END
