x2908-x0107
     RDKit          3D

 18 19  0  0  0  0  0  0  0  0999 V2000
    4.6990    1.3680   21.6350 C   0  0  0  0  0  0  0  0  0  0  0  0
    8.7750    1.4180   21.1710 O   0  0  0  0  0  0  0  0  0  0  0  0
   13.1660   -2.3440   21.3180 Cl  0  0  0  0  0  0  0  0  0  0  0  0
    7.1070   -0.4210   21.0720 N   0  0  0  0  0  0  0  0  0  0  0  0
    8.6960   -0.5530   22.6610 N   0  0  0  0  0  0  0  0  0  0  0  0
    8.1940    0.1720   21.6320 C   0  0  0  0  0  0  0  0  0  0  0  0
    6.2000    0.6070   17.5320 N   0  0  0  0  0  0  0  0  0  0  0  0
    6.7970    0.0310   18.5730 C   0  0  0  0  0  0  0  0  0  0  0  0
    6.3760    0.2230   19.9670 C   0  0  0  0  0  0  0  0  0  0  0  0
    5.1980    1.1110   20.2510 C   0  0  0  0  0  0  0  0  0  0  0  0
    4.5720    1.7130   19.1670 C   0  0  0  0  0  0  0  0  0  0  0  0
    5.1560    1.4080   17.7660 C   0  0  0  0  0  0  0  0  0  0  0  0
   10.6160    0.5030   23.7160 C   0  0  0  0  0  0  0  0  0  0  0  0
   12.1310    0.5650   23.8360 C   0  0  0  0  0  0  0  0  0  0  0  0
   12.9370   -0.3110   23.1020 C   0  0  0  0  0  0  0  0  0  0  0  0
   12.3130   -1.2330   22.2690 C   0  0  0  0  0  0  0  0  0  0  0  0
   10.8120   -1.2880   22.1560 C   0  0  0  0  0  0  0  0  0  0  0  0
   10.0400   -0.4310   22.8670 C   0  0  0  0  0  0  0  0  0  0  0  0
  2  6  2  0
  4  6  1  0
  5  6  1  0
  7  8  2  0
  4  9  1  0
  8  9  1  0
  1 10  1  0
  9 10  2  0
 10 11  1  0
  7 12  1  0
 11 12  2  0
 13 14  2  0
 14 15  1  0
  3 16  1  0
 15 16  2  0
 16 17  1  0
  5 18  1  0
 13 18  1  0
 17 18  2  0
M  END
