x2908-x0678
     RDKit          3D

 18 19  0  0  0  0  0  0  0  0999 V2000
    4.7060    1.3200   21.6160 C   0  0  0  0  0  0  0  0  0  0  0  0
    8.7770    1.4060   21.1590 O   0  0  0  0  0  0  0  0  0  0  0  0
   13.1770   -2.2960   21.3190 Cl  0  0  0  0  0  0  0  0  0  0  0  0
    7.1250   -0.4420   21.0250 N   0  0  0  0  0  0  0  0  0  0  0  0
    8.6840   -0.5660   22.6500 N   0  0  0  0  0  0  0  0  0  0  0  0
    8.1960    0.1560   21.6080 C   0  0  0  0  0  0  0  0  0  0  0  0
    6.2090    0.6350   17.4980 N   0  0  0  0  0  0  0  0  0  0  0  0
    6.8130    0.0450   18.5300 C   0  0  0  0  0  0  0  0  0  0  0  0
    6.3910    0.2160   19.9270 C   0  0  0  0  0  0  0  0  0  0  0  0
    5.2080    1.0890   20.2280 C   0  0  0  0  0  0  0  0  0  0  0  0
    4.5750    1.7030   19.1560 C   0  0  0  0  0  0  0  0  0  0  0  0
    5.1600    1.4270   17.7480 C   0  0  0  0  0  0  0  0  0  0  0  0
   10.5870    0.4980   23.7310 C   0  0  0  0  0  0  0  0  0  0  0  0
   12.1030    0.5700   23.8580 C   0  0  0  0  0  0  0  0  0  0  0  0
   12.9230   -0.2860   23.1230 C   0  0  0  0  0  0  0  0  0  0  0  0
   12.3140   -1.2050   22.2760 C   0  0  0  0  0  0  0  0  0  0  0  0
   10.8110   -1.2730   22.1530 C   0  0  0  0  0  0  0  0  0  0  0  0
   10.0260   -0.4330   22.8680 C   0  0  0  0  0  0  0  0  0  0  0  0
  2  6  2  0
  4  6  1  0
  5  6  1  0
  7  8  2  0
  4  9  1  0
  8  9  1  0
  1 10  1  0
  9 10  2  0
 10 11  1  0
  7 12  1  0
 11 12  2  0
 13 14  2  0
 14 15  1  0
  3 16  1  0
 15 16  2  0
 16 17  1  0
  5 18  1  0
 13 18  1  0
 17 18  2  0
M  END
