x2908-x2912
     RDKit          3D

 20 21  0  0  0  0  0  0  0  0999 V2000
    7.0650   -0.7680   21.1800 N   0  0  0  0  0  0  0  0  0  0  0  0
    7.6090   -0.5980   24.1700 C   0  0  0  0  0  0  0  0  0  0  0  0
    8.8800    0.8200   21.4860 O   0  0  0  0  0  0  0  0  0  0  0  0
    8.4120   -0.9660   22.9410 C   0  0  1  0  0  0  0  0  0  0  0  0
    8.1490   -0.2670   21.8600 C   0  0  0  0  0  0  0  0  0  0  0  0
   13.6180   -2.8680   20.6420 N   0  0  0  0  0  0  0  0  0  0  0  0
    4.8880    1.2480   21.8370 C   0  0  0  0  0  0  0  0  0  0  0  0
   13.0580   -1.9620   21.4640 C   0  0  0  0  0  0  0  0  0  0  0  0
    6.2440    0.4680   17.6860 N   0  0  0  0  0  0  0  0  0  0  0  0
    5.2100    1.4320   17.9100 C   0  0  0  0  0  0  0  0  0  0  0  0
    4.7560    1.6790   19.3860 C   0  0  0  0  0  0  0  0  0  0  0  0
    5.3480    0.9780   20.4380 C   0  0  0  0  0  0  0  0  0  0  0  0
    6.4350   -0.0230   20.1030 C   0  0  0  0  0  0  0  0  0  0  0  0
    6.8430   -0.2520   18.8130 C   0  0  0  0  0  0  0  0  0  0  0  0
   10.5640    0.4130   23.7720 C   0  0  0  0  0  0  0  0  0  0  0  0
   12.0650    0.7150   23.7990 C   0  0  0  0  0  0  0  0  0  0  0  0
   12.8860   -0.0730   23.0340 C   0  0  0  0  0  0  0  0  0  0  0  0
   12.3270   -1.1080   22.2720 C   0  0  0  0  0  0  0  0  0  0  0  0
   10.9670   -1.3630   22.2610 C   0  0  0  0  0  0  0  0  0  0  0  0
   10.0650   -0.6260   22.9920 C   0  0  0  0  0  0  0  0  0  0  0  0
  4  2  1  1
  1  5  1  0
  3  5  2  0
  4  5  1  0
  6  8  3  0
  9 10  2  0
 10 11  1  0
  7 12  1  0
 11 12  2  0
  1 13  1  0
 12 13  1  0
  9 14  1  0
 13 14  2  0
 15 16  2  0
 16 17  1  0
  8 18  1  0
 17 18  2  0
 18 19  1  0
  4 20  1  0
 15 20  1  0
 19 20  2  0
M  END
