x2908-x2964
     RDKit          3D

 19 20  0  0  0  0  0  0  0  0999 V2000
    4.6600    1.2580   21.6160 C   0  0  0  0  0  0  0  0  0  0  0  0
    8.8020    1.4300   21.1750 O   0  0  0  0  0  0  0  0  0  0  0  0
   13.1920   -2.2880   21.3140 Cl  0  0  0  0  0  0  0  0  0  0  0  0
    7.1580   -0.4300   21.0760 N   0  0  0  0  0  0  0  0  0  0  0  0
    8.7170   -0.5410   22.6790 N   0  0  0  0  0  0  0  0  0  0  0  0
    8.2290    0.1780   21.6380 C   0  0  0  0  0  0  0  0  0  0  0  0
    3.4190    2.3720   19.0040 N   0  0  0  0  0  0  0  0  0  0  0  0
    6.2520    0.5650   17.5050 N   0  0  0  0  0  0  0  0  0  0  0  0
    6.8670    0.0150   18.5660 C   0  0  0  0  0  0  0  0  0  0  0  0
    6.4140    0.1860   19.9640 C   0  0  0  0  0  0  0  0  0  0  0  0
    5.1900    1.0150   20.2450 C   0  0  0  0  0  0  0  0  0  0  0  0
    4.5720    1.5610   19.1380 C   0  0  0  0  0  0  0  0  0  0  0  0
    5.1730    1.2990   17.7500 C   0  0  0  0  0  0  0  0  0  0  0  0
   10.6270    0.5120   23.7310 C   0  0  0  0  0  0  0  0  0  0  0  0
   12.1350    0.5830   23.8440 C   0  0  0  0  0  0  0  0  0  0  0  0
   12.9380   -0.2770   23.1050 C   0  0  0  0  0  0  0  0  0  0  0  0
   12.3210   -1.2010   22.2650 C   0  0  0  0  0  0  0  0  0  0  0  0
   10.8170   -1.2830   22.1390 C   0  0  0  0  0  0  0  0  0  0  0  0
   10.0610   -0.4230   22.8730 C   0  0  0  0  0  0  0  0  0  0  0  0
  2  6  2  0
  4  6  1  0
  5  6  1  0
  8  9  2  0
  4 10  1  0
  9 10  1  0
  1 11  1  0
 10 11  2  0
  7 12  1  0
 11 12  1  0
  8 13  1  0
 12 13  2  0
 14 15  2  0
 15 16  1  0
  3 17  1  0
 16 17  2  0
 17 18  1  0
  5 19  1  0
 14 19  1  0
 18 19  2  0
M  END
