x2908-x0434
     RDKit          3D

 18 19  0  0  0  0  0  0  0  0999 V2000
    4.7140    1.3330   21.6170 C   0  0  0  0  0  0  0  0  0  0  0  0
    8.7710    1.4120   21.1630 O   0  0  0  0  0  0  0  0  0  0  0  0
   13.1800   -2.2970   21.3120 Cl  0  0  0  0  0  0  0  0  0  0  0  0
    7.1210   -0.4380   21.0310 N   0  0  0  0  0  0  0  0  0  0  0  0
    8.6880   -0.5630   22.6480 N   0  0  0  0  0  0  0  0  0  0  0  0
    8.1960    0.1600   21.6110 C   0  0  0  0  0  0  0  0  0  0  0  0
    6.2050    0.6310   17.5010 N   0  0  0  0  0  0  0  0  0  0  0  0
    6.8060    0.0420   18.5330 C   0  0  0  0  0  0  0  0  0  0  0  0
    6.3890    0.2160   19.9310 C   0  0  0  0  0  0  0  0  0  0  0  0
    5.2100    1.0960   20.2300 C   0  0  0  0  0  0  0  0  0  0  0  0
    4.5790    1.7070   19.1570 C   0  0  0  0  0  0  0  0  0  0  0  0
    5.1600    1.4250   17.7490 C   0  0  0  0  0  0  0  0  0  0  0  0
   10.5960    0.5030   23.7250 C   0  0  0  0  0  0  0  0  0  0  0  0
   12.1120    0.5740   23.8510 C   0  0  0  0  0  0  0  0  0  0  0  0
   12.9280   -0.2840   23.1150 C   0  0  0  0  0  0  0  0  0  0  0  0
   12.3160   -1.2050   22.2670 C   0  0  0  0  0  0  0  0  0  0  0  0
   10.8140   -1.2720   22.1480 C   0  0  0  0  0  0  0  0  0  0  0  0
   10.0330   -0.4280   22.8640 C   0  0  0  0  0  0  0  0  0  0  0  0
  2  6  2  0
  4  6  1  0
  5  6  1  0
  7  8  2  0
  4  9  1  0
  8  9  1  0
  1 10  1  0
  9 10  2  0
 10 11  1  0
  7 12  1  0
 11 12  2  0
 13 14  2  0
 14 15  1  0
  3 16  1  0
 15 16  2  0
 16 17  1  0
  5 18  1  0
 13 18  1  0
 17 18  2  0
M  END
