x2908-x2562
     RDKit          3D

 24 26  0  0  0  0  0  0  0  0999 V2000
    8.3730    0.1420   21.3360 C   0  0  0  0  0  0  0  0  0  0  0  0
    8.4840    1.3530   21.0610 O   0  0  0  0  0  0  0  0  0  0  0  0
    7.1840   -0.6660   20.8890 C   0  0  0  0  0  0  0  0  0  0  0  0
   12.1210    2.8260   23.3770 O   0  0  0  0  0  0  0  0  0  0  0  0
    9.3360   -0.6500   22.0840 N   0  0  0  0  0  0  0  0  0  0  0  0
   12.9100    6.8780   22.4170 O   0  0  0  0  0  0  0  0  0  0  0  0
    4.8690    1.1930   21.8000 C   0  0  0  0  0  0  0  0  0  0  0  0
   13.0270   -2.2530   22.0120 Cl  0  0  0  0  0  0  0  0  0  0  0  0
    4.6520    1.6860   19.1970 N   0  0  0  0  0  0  0  0  0  0  0  0
    5.1470    1.4180   17.9560 C   0  0  0  0  0  0  0  0  0  0  0  0
    6.1550    0.5900   17.6470 N   0  0  0  0  0  0  0  0  0  0  0  0
    6.7860   -0.0720   18.6430 C   0  0  0  0  0  0  0  0  0  0  0  0
    6.4740    0.0370   19.9810 C   0  0  0  0  0  0  0  0  0  0  0  0
    5.3080    0.9910   20.3200 C   0  0  0  0  0  0  0  0  0  0  0  0
   12.4650    4.6240   21.7560 N   0  0  0  0  0  0  0  0  0  0  0  0
   13.4200    5.6600   22.1930 C   0  0  2  0  0  0  0  0  0  0  0  0
   13.4950    4.7610   23.3390 C   0  0  0  0  0  0  0  0  0  0  0  0
   13.0940    3.6230   22.7090 C   0  0  1  0  0  0  0  0  0  0  0  0
   11.6350   -1.2730   22.1530 C   0  0  0  0  0  0  0  0  0  0  0  0
   12.9120   -0.4500   22.5140 C   0  0  0  0  0  0  0  0  0  0  0  0
   13.0250    0.8470   22.8910 C   0  0  0  0  0  0  0  0  0  0  0  0
   11.9570    1.6720   23.0270 C   0  0  0  0  0  0  0  0  0  0  0  0
   10.7590    1.1090   22.7510 C   0  0  0  0  0  0  0  0  0  0  0  0
   10.6620   -0.2350   22.3530 C   0  0  0  0  0  0  0  0  0  0  0  0
  1  2  2  0
  1  3  1  0
  1  5  1  0
  9 10  2  0
 10 11  1  0
 11 12  2  0
  3 13  1  0
 12 13  1  0
  7 14  1  0
  9 14  1  0
 13 14  2  0
 16  6  1  1
 15 16  1  0
 16 17  1  0
 18  4  1  1
 15 18  1  0
 17 18  1  0
  8 19  1  0
 19 20  2  0
 20 21  1  0
  4 22  1  0
 21 22  2  0
 22 23  1  0
  5 24  1  0
 19 24  1  0
 23 24  2  0
M  END
