x2908-x1348
     RDKit          3D

 35 38  0  0  0  0  0  0  0  0999 V2000
    6.9840   -3.7720   21.4200 N   0  0  0  0  0  0  0  0  0  0  0  0
    7.8640   -5.2810   27.5300 C   0  0  0  0  0  0  0  0  0  0  0  0
    7.4390   -4.6840   26.5360 O   0  0  0  0  0  0  0  0  0  0  0  0
    5.3820   -4.3360   19.8360 O   0  0  0  0  0  0  0  0  0  0  0  0
    6.4620   -3.8190   20.1290 C   0  0  0  0  0  0  0  0  0  0  0  0
    7.3580   -3.2180   19.0710 C   0  0  0  0  0  0  0  0  0  0  0  0
    4.4780    1.4460   21.5040 C   0  0  0  0  0  0  0  0  0  0  0  0
    8.5960    1.4740   21.0630 O   0  0  0  0  0  0  0  0  0  0  0  0
   13.1610   -2.3770   21.3350 Cl  0  0  0  0  0  0  0  0  0  0  0  0
    7.1060   -0.2790   20.9260 N   0  0  0  0  0  0  0  0  0  0  0  0
    8.6970   -0.2430   22.5670 N   0  0  0  0  0  0  0  0  0  0  0  0
    8.1620    0.3940   21.5000 C   0  0  0  0  0  0  0  0  0  0  0  0
    7.6240   -2.6020   21.7250 C   0  0  0  0  0  0  0  0  0  0  0  0
    7.4540   -1.6350   20.5420 C   0  0  0  0  0  0  0  0  0  0  0  0
    6.3950   -5.3860   25.9540 C   0  0  0  0  0  0  0  0  0  0  0  0
    6.0910   -5.2850   24.4590 C   0  0  0  0  0  0  0  0  0  0  0  0
    5.0700   -5.9580   23.8100 C   0  0  0  0  0  0  0  0  0  0  0  0
    4.2570   -6.7870   24.5840 C   0  0  0  0  0  0  0  0  0  0  0  0
    4.5320   -6.9100   26.1090 C   0  0  0  0  0  0  0  0  0  0  0  0
    5.5730   -6.2190   26.7290 C   0  0  0  0  0  0  0  0  0  0  0  0
    6.8830   -4.4710   23.7300 N   0  0  0  0  0  0  0  0  0  0  0  0
    6.4320   -4.5130   22.4350 C   0  0  0  0  0  0  0  0  0  0  0  0
    5.1010   -5.5520   22.1430 S   0  0  0  0  0  0  0  0  0  0  0  0
    6.3180    0.7440   17.6140 N   0  0  0  0  0  0  0  0  0  0  0  0
    6.8460    0.2140   18.7250 C   0  0  0  0  0  0  0  0  0  0  0  0
    6.3000    0.4130   19.9830 C   0  0  0  0  0  0  0  0  0  0  0  0
    5.1800    1.1540   20.1880 C   0  0  0  0  0  0  0  0  0  0  0  0
    4.6020    1.7190   19.0460 C   0  0  0  0  0  0  0  0  0  0  0  0
    5.2130    1.4850   17.7920 C   0  0  0  0  0  0  0  0  0  0  0  0
   10.6450    0.6710   23.5950 C   0  0  0  0  0  0  0  0  0  0  0  0
   12.0310    0.6720   23.7570 C   0  0  0  0  0  0  0  0  0  0  0  0
   12.8460   -0.2440   23.0850 C   0  0  0  0  0  0  0  0  0  0  0  0
   12.2560   -1.1860   22.2350 C   0  0  0  0  0  0  0  0  0  0  0  0
   10.8900   -1.1540   22.1030 C   0  0  0  0  0  0  0  0  0  0  0  0
   10.0660   -0.2650   22.7410 C   0  0  0  0  0  0  0  0  0  0  0  0
  2  3  1  0
  1  5  1  0
  4  5  2  0
  5  6  1  0
  8 12  2  0
 10 12  1  0
 11 12  1  0
  1 13  1  0
 10 14  1  0
 13 14  1  0
  3 15  1  0
 15 16  2  0
 16 17  1  0
 17 18  2  0
 18 19  1  0
 15 20  1  0
 19 20  2  0
 16 21  1  0
  1 22  1  0
 21 22  2  0
 17 23  1  0
 22 23  1  0
 24 25  2  0
 10 26  1  0
 25 26  1  0
  7 27  1  0
 26 27  2  0
 27 28  1  0
 24 29  1  0
 28 29  2  0
 30 31  2  0
 31 32  1  0
  9 33  1  0
 32 33  2  0
 33 34  1  0
 11 35  1  0
 30 35  1  0
 34 35  2  0
M  END
