x2908-x0692
     RDKit          3D

 29 32  0  0  0  0  0  0  0  0999 V2000
    7.8530    0.6870   22.5760 O   0  0  0  0  0  0  0  0  0  0  0  0
    7.8560   -0.4410   22.1040 C   0  0  0  0  0  0  0  0  0  0  0  0
    5.3620   -4.1400   19.7380 O   0  0  0  0  0  0  0  0  0  0  0  0
    8.6620   -2.6590   24.3070 C   0  0  0  0  0  0  0  0  0  0  0  0
    6.1680   -3.2050   19.8590 C   0  0  0  0  0  0  0  0  0  0  0  0
    7.1570   -2.9890   18.7300 C   0  0  0  0  0  0  0  0  0  0  0  0
    6.2030   -2.3820   21.0180 N   0  0  0  0  0  0  0  0  0  0  0  0
    7.3620   -1.4980   21.0940 C   0  0  2  0  0  0  0  0  0  0  0  0
    8.3380   -1.8740   22.0180 C   0  0  2  0  0  0  0  0  0  0  0  0
    7.8610   -2.5000   23.1180 N   0  0  0  0  0  0  0  0  0  0  0  0
    6.9390   -3.6010   22.7670 C   0  0  0  0  0  0  0  0  0  0  0  0
    5.7910   -2.9860   22.2780 C   0  0  0  0  0  0  0  0  0  0  0  0
   12.9480   -2.4530   21.6940 Cl  0  0  0  0  0  0  0  0  0  0  0  0
   11.1910    2.4660   23.6820 C   0  0  0  0  0  0  0  0  0  0  0  0
   10.4820    1.3690   23.2710 C   0  0  0  0  0  0  0  0  0  0  0  0
   11.9020    1.1610   23.1750 C   0  0  0  0  0  0  0  0  0  0  0  0
   12.6940   -0.0460   22.6890 C   0  0  0  0  0  0  0  0  0  0  0  0
   12.0370   -1.1230   22.2620 C   0  0  0  0  0  0  0  0  0  0  0  0
   10.6460   -1.0610   22.3110 C   0  0  0  0  0  0  0  0  0  0  0  0
   10.0120    0.0810   22.7780 C   0  0  0  0  0  0  0  0  0  0  0  0
    9.6580   -2.1290   21.9030 C   0  0  0  0  0  0  0  0  0  0  0  0
    4.8730    1.4230   21.6180 C   0  0  0  0  0  0  0  0  0  0  0  0
    6.0140    0.3550   17.8460 N   0  0  0  0  0  0  0  0  0  0  0  0
    6.9590   -0.3110   18.7980 C   0  0  0  0  0  0  0  0  0  0  0  0
    6.3490    0.2210   20.0090 C   0  0  0  0  0  0  0  0  0  0  0  0
    5.2490    1.0720   20.2200 C   0  0  0  0  0  0  0  0  0  0  0  0
    4.5400    1.5730   19.1890 C   0  0  0  0  0  0  0  0  0  0  0  0
    4.9920    1.1660   18.0160 C   0  0  0  0  0  0  0  0  0  0  0  0
    7.7070   -0.8120   19.8530 C   0  0  0  0  0  0  0  0  0  0  0  0
  1  2  2  0
  3  5  2  0
  5  6  1  0
  5  7  1  0
  2  8  1  0
  7  8  1  0
  2  9  1  0
  8  9  1  0
  4 10  1  0
  9 10  1  0
 10 11  1  0
  7 12  1  0
 11 12  1  0
 14 15  1  0
 15 16  2  0
 16 17  1  0
 13 18  1  0
 17 18  2  0
 18 19  1  0
 15 20  1  0
 19 20  2  0
  9 21  1  6
 19 21  1  0
 23 24  2  0
 24 25  1  0
 22 26  1  0
 25 26  2  0
 26 27  1  0
 23 28  1  0
 27 28  2  0
  8 29  1  6
 24 29  1  0
M  END
