x2908-x2643
     RDKit          3D

 19 20  0  0  0  0  0  0  0  0999 V2000
    4.2440    0.9850   21.4720 C   0  0  0  0  0  0  0  0  0  0  0  0
    8.4540    1.0530   21.3370 O   0  0  0  0  0  0  0  0  0  0  0  0
   13.1000   -2.5570   21.3310 Cl  0  0  0  0  0  0  0  0  0  0  0  0
    6.7660   -0.7030   21.0700 N   0  0  0  0  0  0  0  0  0  0  0  0
    8.4600   -1.0900   22.5470 N   0  0  0  0  0  0  0  0  0  0  0  0
    7.8910   -0.2350   21.6630 C   0  0  0  0  0  0  0  0  0  0  0  0
   13.3850    0.7620   23.0950 Cl  0  0  0  0  0  0  0  0  0  0  0  0
    6.3090    0.6970   17.5590 N   0  0  0  0  0  0  0  0  0  0  0  0
    6.7770    0.0230   18.6080 C   0  0  0  0  0  0  0  0  0  0  0  0
    6.1660    0.0530   19.9460 C   0  0  0  0  0  0  0  0  0  0  0  0
    4.9370    0.8840   20.1520 C   0  0  0  0  0  0  0  0  0  0  0  0
    4.4400    1.5830   19.0610 C   0  0  0  0  0  0  0  0  0  0  0  0
    5.2080    1.4490   17.7200 C   0  0  0  0  0  0  0  0  0  0  0  0
   10.2940    0.2730   23.1850 C   0  0  0  0  0  0  0  0  0  0  0  0
   11.7550    0.7370   23.2780 C   0  0  0  0  0  0  0  0  0  0  0  0
   12.4740   -0.3200   22.6290 C   0  0  0  0  0  0  0  0  0  0  0  0
   12.0200   -1.4730   22.0460 C   0  0  0  0  0  0  0  0  0  0  0  0
   10.5850   -1.7580   22.0280 C   0  0  0  0  0  0  0  0  0  0  0  0
    9.7950   -0.8680   22.5940 C   0  0  0  0  0  0  0  0  0  0  0  0
  2  6  2  0
  4  6  1  0
  5  6  1  0
  8  9  2  0
  4 10  1  0
  9 10  1  0
  1 11  1  0
 10 11  2  0
 11 12  1  0
  8 13  1  0
 12 13  2  0
  7 15  1  0
 14 15  2  0
 15 16  1  0
  3 17  1  0
 16 17  2  0
 17 18  1  0
  5 19  1  0
 14 19  1  0
 18 19  2  0
M  END
