x2908-x2754-x3110-x1458
     RDKit          3D

 59 64  0  0  0  0  0  0  0  0999 V2000
    8.0220    1.8540   23.2860 N   0  0  0  0  0  0  0  0  0  0  0  0
   13.3950    5.2090   22.9410 C   0  0  0  0  0  0  0  0  0  0  0  0
   12.0610    3.3030   22.3780 O   0  0  0  0  0  0  0  0  0  0  0  0
   12.4870    4.5810   21.9060 C   0  0  0  0  0  0  0  0  0  0  0  0
    7.3900   -0.9970   22.0830 N   0  0  0  0  0  0  0  0  0  0  0  0
   11.0190    4.3400   24.1310 O   0  0  0  0  0  0  0  0  0  0  0  0
   11.2190    3.3560   23.4350 C   0  0  0  0  0  0  0  0  0  0  0  0
    8.7260    1.8370   21.0330 O   0  0  0  0  0  0  0  0  0  0  0  0
   10.5660    2.0190   23.6270 C   0  0  0  0  0  0  0  0  0  0  0  0
    9.1740    2.0940   23.9860 C   0  0  0  0  0  0  0  0  0  0  0  0
    7.9780    1.4120   21.9120 C   0  0  0  0  0  0  0  0  0  0  0  0
    6.8870    0.3650   21.7310 C   0  0  1  0  0  0  0  0  0  0  0  0
   12.4330   -2.0360   24.5740 C   0  0  0  0  0  0  0  0  0  0  0  0
   12.7580   -0.7240   25.2270 C   0  0  0  0  0  0  0  0  0  0  0  0
   13.3480   -2.1830   23.4310 C   0  0  0  0  0  0  0  0  0  0  0  0
   12.7610   -3.2260   25.4800 C   0  0  0  0  0  0  0  0  0  0  0  0
    4.5530    1.8700   21.4730 C   0  0  0  0  0  0  0  0  0  0  0  0
    5.2900   -3.4270   25.4190 C   0  0  0  0  0  0  0  0  0  0  0  0
    6.0720   -5.6900   19.9330 O   0  0  0  0  0  0  0  0  0  0  0  0
    5.9510   -5.8680   27.6050 C   0  0  0  0  0  0  0  0  0  0  0  0
    6.4340   -4.1260   25.2700 C   0  0  0  0  0  0  0  0  0  0  0  0
    6.4160   -4.5970   20.3130 C   0  0  0  0  0  0  0  0  0  0  0  0
    7.1920   -3.5600   19.4230 C   0  0  0  0  0  0  0  0  0  0  0  0
    6.9680   -2.1640   21.3770 C   0  0  0  0  0  0  0  0  0  0  0  0
    4.0270   -2.7300   25.3670 C   0  0  0  0  0  0  0  0  0  0  0  0
    3.0230   -2.1740   25.7490 O   0  0  0  0  0  0  0  0  0  0  0  0
    4.3310   -2.8740   26.7030 N   0  0  0  0  0  0  0  0  0  0  0  0
    4.8730   -3.5930   20.8940 N   0  0  0  0  0  0  0  0  0  0  0  0
    5.6940   -2.8060   20.0890 C   0  0  0  0  0  0  0  0  0  0  0  0
    5.0520   -2.0680   19.2330 C   0  0  0  0  0  0  0  0  0  0  0  0
    5.1150   -2.0120   27.3570 C   0  0  0  0  0  0  0  0  0  0  0  0
    6.3760    0.2830   17.8270 N   0  0  0  0  0  0  0  0  0  0  0  0
    5.2360    1.0650   17.8830 C   0  0  0  0  0  0  0  0  0  0  0  0
    4.6170    1.5920   19.0350 C   0  0  0  0  0  0  0  0  0  0  0  0
    5.2060    1.3150   20.2430 C   0  0  0  0  0  0  0  0  0  0  0  0
    6.3560    0.5570   20.3470 C   0  0  0  0  0  0  0  0  0  0  0  0
    6.9560    0.0200   19.1540 C   0  0  0  0  0  0  0  0  0  0  0  0
    9.6260   -1.7390   21.8800 C   0  0  0  0  0  0  0  0  0  0  0  0
   10.9710   -2.0620   22.3980 C   0  0  0  0  0  0  0  0  0  0  0  0
   11.1030   -1.8170   23.9050 C   0  0  0  0  0  0  0  0  0  0  0  0
   10.0350   -1.3600   24.6570 C   0  0  0  0  0  0  0  0  0  0  0  0
    8.8420   -1.1030   24.0580 C   0  0  0  0  0  0  0  0  0  0  0  0
    8.6470   -1.2760   22.7250 C   0  0  0  0  0  0  0  0  0  0  0  0
    5.8770   -4.2510   21.6520 C   0  0  2  0  0  0  0  0  0  0  0  0
    6.4930   -3.2570   22.3250 C   0  0  1  0  0  0  0  0  0  0  0  0
    7.4050   -3.6900   23.1460 C   0  0  0  0  0  0  0  0  0  0  0  0
    6.8420   -4.7940   24.0110 C   0  0  2  0  0  0  0  0  0  0  0  0
    5.4390   -5.1130   23.6660 C   0  0  2  0  0  0  0  0  0  0  0  0
    5.3820   -5.4040   22.3700 C   0  0  0  0  0  0  0  0  0  0  0  0
    5.4910   -2.6780   23.0670 C   0  0  0  0  0  0  0  0  0  0  0  0
    4.8760   -3.7200   23.9620 C   0  0  2  0  0  0  0  0  0  0  0  0
    7.2580   -5.2140   27.2930 C   0  0  0  0  0  0  0  0  0  0  0  0
    8.4080   -5.4740   28.1750 C   0  0  0  0  0  0  0  0  0  0  0  0
    9.7120   -4.8190   27.8230 C   0  0  0  0  0  0  0  0  0  0  0  0
    9.8010   -3.9950   26.7050 C   0  0  0  0  0  0  0  0  0  0  0  0
    8.6810   -3.8110   25.9550 C   0  0  0  0  0  0  0  0  0  0  0  0
    7.4710   -4.3960   26.2230 C   0  0  0  0  0  0  0  0  0  0  0  0
   13.2740   -1.9010   20.9410 Cl  0  0  0  0  0  0  0  0  0  0  0  0
   13.2250   -1.0600   22.4600 C   0  0  0  0  0  0  0  0  0  0  0  0
  2  4  1  0
  3  4  1  0
  3  7  1  0
  6  7  2  0
  7  9  1  0
  1 10  1  0
  9 10  1  0
  1 11  1  0
  8 11  2  0
  5 12  1  0
 12 11  1  6
 13 14  1  0
 13 15  1  0
 13 16  1  0
 18 21  2  0
 19 22  2  0
 22 23  1  0
  5 24  1  0
 18 25  1  0
 25 26  2  0
 25 27  1  0
 28 29  2  3
 29 30  1  0
 27 31  1  0
 32 33  2  0
 33 34  1  0
 17 35  1  0
 34 35  2  0
 12 36  1  0
 35 36  1  0
 32 37  1  0
 36 37  2  0
 38 39  2  0
 13 40  1  0
 39 40  1  0
 40 41  2  0
 41 42  1  0
  5 43  1  0
 38 43  1  0
 42 43  2  0
 22 44  1  0
 44 28  1  6
 45 24  1  6
 44 45  1  0
 45 46  1  0
 47 21  1  1
 46 47  1  0
 47 48  1  0
 44 49  1  0
 48 49  1  6
 45 50  1  0
 51 18  1  1
 48 51  1  0
 50 51  1  0
 20 52  1  0
 52 53  2  0
 53 54  1  0
 54 55  2  0
 55 56  1  0
 21 57  1  0
 52 57  1  0
 56 57  2  0
 15 59  1  0
 58 59  1  0
M  END
