x2908-x2646
     RDKit          3D

 18 19  0  0  0  0  0  0  0  0999 V2000
    4.9030    1.1180   21.8100 C   0  0  0  0  0  0  0  0  0  0  0  0
    8.5050    1.2460   21.0110 O   0  0  0  0  0  0  0  0  0  0  0  0
   13.1720   -2.5460   21.5600 Cl  0  0  0  0  0  0  0  0  0  0  0  0
    7.0460   -0.5920   21.0430 N   0  0  0  0  0  0  0  0  0  0  0  0
    8.8030   -0.5610   22.4410 N   0  0  0  0  0  0  0  0  0  0  0  0
    8.0840    0.0240   21.4840 C   0  0  0  0  0  0  0  0  0  0  0  0
    6.2740    0.6360   17.4790 N   0  0  0  0  0  0  0  0  0  0  0  0
    6.8200   -0.0030   18.5240 C   0  0  0  0  0  0  0  0  0  0  0  0
    6.3590    0.1550   20.0150 C   0  0  0  0  0  0  0  0  0  0  0  0
    5.3400    0.9670   20.3850 C   0  0  0  0  0  0  0  0  0  0  0  0
    4.6650    1.7310   19.2270 C   0  0  0  0  0  0  0  0  0  0  0  0
    5.1650    1.5350   17.8130 C   0  0  0  0  0  0  0  0  0  0  0  0
   10.6710    0.8010   23.1260 C   0  0  0  0  0  0  0  0  0  0  0  0
   12.1690    1.0110   23.2530 C   0  0  0  0  0  0  0  0  0  0  0  0
   12.9670   -0.1710   22.7100 C   0  0  0  0  0  0  0  0  0  0  0  0
   12.3200   -1.2430   22.1910 C   0  0  0  0  0  0  0  0  0  0  0  0
   10.9560   -1.3750   22.1090 C   0  0  0  0  0  0  0  0  0  0  0  0
   10.1600   -0.3530   22.5770 C   0  0  0  0  0  0  0  0  0  0  0  0
  2  6  2  0
  4  6  1  0
  5  6  1  0
  7  8  2  0
  4  9  1  0
  8  9  1  0
  1 10  1  0
  9 10  2  0
 10 11  1  0
  7 12  1  0
 11 12  2  0
 13 14  2  0
 14 15  1  0
  3 16  1  0
 15 16  2  0
 16 17  1  0
  5 18  1  0
 13 18  1  0
 17 18  2  0
M  END
