x2908-x3115
     RDKit          3D

 32 33  0  0  0  0  0  0  0  0999 V2000
    6.9330   -1.7940   21.7520 N   0  0  0  0  0  0  0  0  0  0  0  0
    6.6880   -4.9800   20.4530 C   0  0  0  0  0  0  0  0  0  0  0  0
    4.8320   -3.0390   21.2350 O   0  0  0  0  0  0  0  0  0  0  0  0
    6.7270   -4.2880   21.7930 C   0  0  0  0  0  0  0  0  0  0  0  0
    7.3300    1.5960   22.9640 N   0  0  0  0  0  0  0  0  0  0  0  0
    8.8400    0.6330   21.5140 O   0  0  0  0  0  0  0  0  0  0  0  0
    6.0740   -2.9700   21.5740 C   0  0  0  0  0  0  0  0  0  0  0  0
    8.4720    5.1740   23.0160 O   0  0  0  0  0  0  0  0  0  0  0  0
    6.6250   -0.3000   21.5670 C   0  0  1  0  0  0  0  0  0  0  0  0
    7.7220    0.6690   22.0140 C   0  0  0  0  0  0  0  0  0  0  0  0
    8.1710    2.7190   23.2020 C   0  0  0  0  0  0  0  0  0  0  0  0
    7.7800    4.0420   22.4660 C   0  0  0  0  0  0  0  0  0  0  0  0
    8.3250    6.3080   22.2700 C   0  0  0  0  0  0  0  0  0  0  0  0
   12.1160   -1.8240   24.4690 C   0  0  0  0  0  0  0  0  0  0  0  0
   13.2710   -2.1220   23.7670 C   0  0  0  0  0  0  0  0  0  0  0  0
   12.9090   -2.9950   25.1120 C   0  0  0  0  0  0  0  0  0  0  0  0
   12.3140   -0.5040   25.1620 C   0  0  0  0  0  0  0  0  0  0  0  0
    4.2750    1.6350   21.3700 C   0  0  0  0  0  0  0  0  0  0  0  0
    6.2660    0.2650   17.7750 N   0  0  0  0  0  0  0  0  0  0  0  0
    5.2150    1.1440   17.7830 C   0  0  0  0  0  0  0  0  0  0  0  0
    4.5770    1.5700   18.9470 C   0  0  0  0  0  0  0  0  0  0  0  0
    5.0150    1.1030   20.1840 C   0  0  0  0  0  0  0  0  0  0  0  0
    6.0620    0.2260   20.2740 C   0  0  0  0  0  0  0  0  0  0  0  0
    6.6830   -0.1980   19.1050 C   0  0  0  0  0  0  0  0  0  0  0  0
    9.3950   -1.5090   21.8110 C   0  0  0  0  0  0  0  0  0  0  0  0
   10.6380   -1.5120   22.4370 C   0  0  0  0  0  0  0  0  0  0  0  0
   10.7400   -1.8850   23.7730 C   0  0  0  0  0  0  0  0  0  0  0  0
    9.5850   -2.2750   24.4600 C   0  0  0  0  0  0  0  0  0  0  0  0
    8.3230   -2.2730   23.8230 C   0  0  0  0  0  0  0  0  0  0  0  0
    8.2160   -1.8720   22.4710 C   0  0  0  0  0  0  0  0  0  0  0  0
   13.3880   -1.5660   21.1740 Cl  0  0  0  0  0  0  0  0  0  0  0  0
   13.0320   -2.6690   22.3950 C   0  0  0  0  0  0  0  0  0  0  0  0
  2  4  1  0
  1  7  1  0
  3  7  2  0
  4  7  1  0
  1  9  1  0
  5 10  1  0
  6 10  2  0
  9 10  1  6
  5 11  1  0
  8 12  1  0
 11 12  1  0
  8 13  1  0
 14 15  1  0
 14 16  1  0
 14 17  1  0
 19 20  2  0
 20 21  1  0
 18 22  1  0
 21 22  2  0
  9 23  1  0
 22 23  1  0
 19 24  1  0
 23 24  2  0
 25 26  2  0
 14 27  1  0
 26 27  1  0
 27 28  2  0
 28 29  1  0
  1 30  1  0
 25 30  1  0
 29 30  2  0
 15 32  1  0
 31 32  1  0
M  END
