x2908-x0981
     RDKit          3D

 36 37  0  0  0  0  0  0  0  0999 V2000
    1.2900   -8.6430   21.4960 C   0  0  0  0  0  0  0  0  0  0  0  0
    2.7870   -7.0530   22.8220 N   0  0  0  0  0  0  0  0  0  0  0  0
    0.4040   -6.4630   22.2170 O   0  0  0  0  0  0  0  0  0  0  0  0
    1.5450   -7.3350   22.2370 C   0  0  0  0  0  0  0  0  0  0  0  0
    2.2630   -8.2830   26.2010 N   0  0  0  0  0  0  0  0  0  0  0  0
    3.9520   -8.1530   24.6050 O   0  0  0  0  0  0  0  0  0  0  0  0
    3.0200   -5.8810   23.5520 C   0  0  1  0  0  0  0  0  0  0  0  0
    5.2380   -5.6120   22.1760 N   0  0  0  0  0  0  0  0  0  0  0  0
    5.0610   -4.7650   24.3190 O   0  0  0  0  0  0  0  0  0  0  0  0
    2.7180   -6.1910   24.9970 C   0  0  0  0  0  0  0  0  0  0  0  0
    3.0480   -7.6500   25.2450 C   0  0  0  0  0  0  0  0  0  0  0  0
    4.5370   -5.3700   23.3910 C   0  0  0  0  0  0  0  0  0  0  0  0
    6.3770   -4.9440   21.7880 C   0  0  1  0  0  0  0  0  0  0  0  0
    6.4710   -5.0550   20.2720 C   0  0  0  0  0  0  0  0  0  0  0  0
    5.6870   -6.2360   19.8040 C   0  0  0  0  0  0  0  0  0  0  0  0
    4.6210    1.3940   21.5090 C   0  0  0  0  0  0  0  0  0  0  0  0
    8.6600    1.3720   21.1230 O   0  0  0  0  0  0  0  0  0  0  0  0
   13.1780   -2.3830   21.3770 Cl  0  0  0  0  0  0  0  0  0  0  0  0
    6.9720   -0.3250   21.0190 N   0  0  0  0  0  0  0  0  0  0  0  0
    8.7040   -0.3310   22.6030 N   0  0  0  0  0  0  0  0  0  0  0  0
    8.1700    0.3220   21.5750 C   0  0  0  0  0  0  0  0  0  0  0  0
    6.5210   -3.6290   22.2870 C   0  0  0  0  0  0  0  0  0  0  0  0
    6.0790   -2.5710   21.4880 C   0  0  0  0  0  0  0  0  0  0  0  0
    7.0340   -1.6890   20.9150 C   0  0  0  0  0  0  0  0  0  0  0  0
    6.2850    0.5920   17.6130 N   0  0  0  0  0  0  0  0  0  0  0  0
    6.8190    0.0480   18.7200 C   0  0  0  0  0  0  0  0  0  0  0  0
    6.3320    0.2680   20.0100 C   0  0  0  0  0  0  0  0  0  0  0  0
    5.2340    1.0820   20.1810 C   0  0  0  0  0  0  0  0  0  0  0  0
    4.6530    1.6600   19.0530 C   0  0  0  0  0  0  0  0  0  0  0  0
    5.2280    1.3770   17.8140 C   0  0  0  0  0  0  0  0  0  0  0  0
   10.6310    0.5790   23.6540 C   0  0  0  0  0  0  0  0  0  0  0  0
   12.0060    0.6010   23.8380 C   0  0  0  0  0  0  0  0  0  0  0  0
   12.8210   -0.2950   23.1590 C   0  0  0  0  0  0  0  0  0  0  0  0
   12.2490   -1.2250   22.2850 C   0  0  0  0  0  0  0  0  0  0  0  0
   10.8810   -1.2400   22.1100 C   0  0  0  0  0  0  0  0  0  0  0  0
   10.0730   -0.3520   22.7780 C   0  0  0  0  0  0  0  0  0  0  0  0
  1  4  1  0
  2  4  1  0
  3  4  2  0
  2  7  1  0
  7 10  1  1
  5 11  1  0
  6 11  2  0
 10 11  1  0
  7 12  1  0
  8 12  1  0
  9 12  2  0
  8 13  1  0
 13 14  1  6
 14 15  2  3
 17 21  2  0
 19 21  1  0
 20 21  1  0
 13 22  1  0
 22 23  1  0
 19 24  1  0
 23 24  1  0
 25 26  2  0
 19 27  1  0
 26 27  1  0
 16 28  1  0
 27 28  2  0
 28 29  1  0
 25 30  1  0
 29 30  2  0
 31 32  2  0
 32 33  1  0
 18 34  1  0
 33 34  2  0
 34 35  1  0
 20 36  1  0
 31 36  1  0
 35 36  2  0
M  END
