x2908-x3110
     RDKit          3D

 35 36  0  0  0  0  0  0  0  0999 V2000
    8.0640    0.9730   23.2360 N   0  0  0  0  0  0  0  0  0  0  0  0
   13.3670    5.1610   22.9050 C   0  0  0  0  0  0  0  0  0  0  0  0
   11.9840    3.2440   22.4320 O   0  0  0  0  0  0  0  0  0  0  0  0
   12.3790    4.5380   21.9470 C   0  0  0  0  0  0  0  0  0  0  0  0
    7.0420   -1.7830   21.6900 N   0  0  0  0  0  0  0  0  0  0  0  0
   10.8440    4.2370   24.1320 O   0  0  0  0  0  0  0  0  0  0  0  0
   11.0650    3.2670   23.4250 C   0  0  0  0  0  0  0  0  0  0  0  0
    8.6050    1.3330   21.0730 O   0  0  0  0  0  0  0  0  0  0  0  0
   10.3440    1.9440   23.5520 C   0  0  0  0  0  0  0  0  0  0  0  0
    4.8860   -3.0500   21.1070 O   0  0  0  0  0  0  0  0  0  0  0  0
    8.8370    2.1200   23.7070 C   0  0  0  0  0  0  0  0  0  0  0  0
    7.8830    0.7220   21.8850 C   0  0  0  0  0  0  0  0  0  0  0  0
    6.7180   -0.2990   21.4830 C   0  0  1  0  0  0  0  0  0  0  0  0
    6.1640   -2.9610   21.4200 C   0  0  0  0  0  0  0  0  0  0  0  0
    6.8520   -4.3130   21.5500 C   0  0  0  0  0  0  0  0  0  0  0  0
    8.2520   -4.3940   20.9470 C   0  0  0  0  0  0  0  0  0  0  0  0
   12.1850   -1.9260   24.4470 C   0  0  0  0  0  0  0  0  0  0  0  0
   12.3690   -0.6250   25.2130 C   0  0  0  0  0  0  0  0  0  0  0  0
   13.3320   -1.9400   23.4880 C   0  0  0  0  0  0  0  0  0  0  0  0
   12.5160   -3.1090   25.3610 C   0  0  0  0  0  0  0  0  0  0  0  0
    4.4390    1.5540   21.4060 C   0  0  0  0  0  0  0  0  0  0  0  0
    6.3030    0.3210   17.7650 N   0  0  0  0  0  0  0  0  0  0  0  0
    5.2680    1.1760   17.7920 C   0  0  0  0  0  0  0  0  0  0  0  0
    4.6440    1.5850   18.9350 C   0  0  0  0  0  0  0  0  0  0  0  0
    5.1100    1.0970   20.1480 C   0  0  0  0  0  0  0  0  0  0  0  0
    6.1930    0.2020   20.1640 C   0  0  0  0  0  0  0  0  0  0  0  0
    6.7430   -0.1500   18.9450 C   0  0  0  0  0  0  0  0  0  0  0  0
    9.4500   -1.5010   21.7650 C   0  0  0  0  0  0  0  0  0  0  0  0
   10.6890   -1.5320   22.3960 C   0  0  0  0  0  0  0  0  0  0  0  0
   10.8230   -1.9320   23.7290 C   0  0  0  0  0  0  0  0  0  0  0  0
    9.6450   -2.3160   24.3830 C   0  0  0  0  0  0  0  0  0  0  0  0
    8.3920   -2.2900   23.7450 C   0  0  0  0  0  0  0  0  0  0  0  0
    8.2880   -1.8710   22.4150 C   0  0  0  0  0  0  0  0  0  0  0  0
   13.3570   -1.7360   20.9630 Cl  0  0  0  0  0  0  0  0  0  0  0  0
   13.2350   -0.8610   22.4660 C   0  0  0  0  0  0  0  0  0  0  0  0
  2  4  1  0
  3  4  1  0
  3  7  1  0
  6  7  2  0
  7  9  1  0
  1 11  1  0
  9 11  1  0
  1 12  1  0
  8 12  2  0
  5 13  1  0
 13 12  1  6
  5 14  1  0
 10 14  2  0
 14 15  1  0
 15 16  1  0
 17 18  1  0
 17 19  1  0
 17 20  1  0
 22 23  2  0
 23 24  1  0
 21 25  1  0
 24 25  2  0
 13 26  1  0
 25 26  1  0
 22 27  1  0
 26 27  2  0
 28 29  2  0
 17 30  1  0
 29 30  1  0
 30 31  2  0
 31 32  1  0
  5 33  1  0
 28 33  1  0
 32 33  2  0
 19 35  1  0
 34 35  1  0
M  END
