x2908-x0771
     RDKit          3D

 40 43  0  0  0  0  0  0  0  0999 V2000
    0.5860   -1.4590   26.0790 C   0  0  0  0  0  0  0  0  0  0  0  0
    4.4500   -6.9200   25.8460 O   0  0  0  0  0  0  0  0  0  0  0  0
    6.0550   -5.3020   26.9080 O   0  0  0  0  0  0  0  0  0  0  0  0
    5.8090   -4.5190   19.8690 O   0  0  0  0  0  0  0  0  0  0  0  0
    2.0100   -6.1310   25.0700 C   0  0  0  0  0  0  0  0  0  0  0  0
    6.6810   -4.1030   20.6130 C   0  0  0  0  0  0  0  0  0  0  0  0
    8.0470   -3.5660   20.2460 C   0  0  0  0  0  0  0  0  0  0  0  0
    5.1090   -5.6350   25.8760 S   0  0  0  0  0  0  0  0  0  0  0  0
    4.4800    1.2890   21.4680 C   0  0  0  0  0  0  0  0  0  0  0  0
    8.5840    1.3060   21.0640 O   0  0  0  0  0  0  0  0  0  0  0  0
   13.1980   -2.2260   21.3670 Cl  0  0  0  0  0  0  0  0  0  0  0  0
    6.8980   -0.3240   21.1920 N   0  0  0  0  0  0  0  0  0  0  0  0
    8.7070   -0.4940   22.5600 N   0  0  0  0  0  0  0  0  0  0  0  0
    8.0950    0.2720   21.5470 C   0  0  0  0  0  0  0  0  0  0  0  0
    6.1960   -2.4650   22.1720 C   0  0  0  0  0  0  0  0  0  0  0  0
    6.8880   -1.7860   21.1460 C   0  0  0  0  0  0  0  0  0  0  0  0
    1.6920   -2.4600   26.0150 C   0  0  0  0  0  0  0  0  0  0  0  0
    1.4360   -3.7720   25.5990 C   0  0  0  0  0  0  0  0  0  0  0  0
    2.4160   -4.7570   25.5300 C   0  0  0  0  0  0  0  0  0  0  0  0
    3.8570   -4.3720   25.9370 C   0  0  0  0  0  0  0  0  0  0  0  0
    4.0580   -3.0560   26.3300 C   0  0  0  0  0  0  0  0  0  0  0  0
    3.0150   -2.1040   26.3760 C   0  0  0  0  0  0  0  0  0  0  0  0
    6.3350   -4.0220   22.0860 C   0  0  0  0  0  0  0  0  0  0  0  0
    5.1370   -4.7200   22.2750 C   0  0  0  0  0  0  0  0  0  0  0  0
    5.0760   -5.7600   23.1770 C   0  0  0  0  0  0  0  0  0  0  0  0
    5.8800   -5.4830   24.3850 N   0  0  0  0  0  0  0  0  0  0  0  0
    7.0430   -4.5700   24.2930 C   0  0  0  0  0  0  0  0  0  0  0  0
    7.4490   -4.5710   22.9480 C   0  0  0  0  0  0  0  0  0  0  0  0
    6.3390    0.5850   17.7050 N   0  0  0  0  0  0  0  0  0  0  0  0
    6.8740    0.0360   18.8040 C   0  0  0  0  0  0  0  0  0  0  0  0
    6.2880    0.2560   20.0510 C   0  0  0  0  0  0  0  0  0  0  0  0
    5.1480    1.0270   20.1600 C   0  0  0  0  0  0  0  0  0  0  0  0
    4.5860    1.5930   19.0210 C   0  0  0  0  0  0  0  0  0  0  0  0
    5.2310    1.3400   17.8130 C   0  0  0  0  0  0  0  0  0  0  0  0
   10.6090    0.5560   23.6870 C   0  0  0  0  0  0  0  0  0  0  0  0
   11.9810    0.6240   23.8550 C   0  0  0  0  0  0  0  0  0  0  0  0
   12.8070   -0.2360   23.1440 C   0  0  0  0  0  0  0  0  0  0  0  0
   12.2450   -1.1590   22.2710 C   0  0  0  0  0  0  0  0  0  0  0  0
   10.8810   -1.2330   22.1010 C   0  0  0  0  0  0  0  0  0  0  0  0
   10.0620   -0.3710   22.8070 C   0  0  0  0  0  0  0  0  0  0  0  0
  4  6  2  0
  6  7  1  0
  2  8  2  0
  3  8  2  0
 10 14  2  0
 12 14  1  0
 13 14  1  0
 12 16  1  0
 15 16  1  0
  1 17  1  0
 17 18  2  0
  5 19  1  0
 18 19  1  0
  8 20  1  0
 19 20  2  0
 20 21  1  0
 17 22  1  0
 21 22  2  0
 23  6  1  0
 15 23  1  0
 23 24  1  0
 24 25  1  0
  8 26  1  0
 25 26  1  0
 26 27  1  0
 23 28  1  0
 27 28  1  0
 29 30  2  0
 12 31  1  0
 30 31  1  0
  9 32  1  0
 31 32  2  0
 32 33  1  0
 29 34  1  0
 33 34  2  0
 35 36  2  0
 36 37  1  0
 11 38  1  0
 37 38  2  0
 38 39  1  0
 13 40  1  0
 35 40  1  0
 39 40  2  0
M  END
