x2908-x2572
     RDKit          3D

 19 20  0  0  0  0  0  0  0  0999 V2000
    4.8450    1.2880   21.7470 C   0  0  0  0  0  0  0  0  0  0  0  0
    8.9260    1.4170   21.2620 O   0  0  0  0  0  0  0  0  0  0  0  0
    7.1970   -0.3890   21.1140 N   0  0  0  0  0  0  0  0  0  0  0  0
   13.5910   -3.1260   20.7000 N   0  0  0  0  0  0  0  0  0  0  0  0
    8.2820    0.2010   21.7180 C   0  0  0  0  0  0  0  0  0  0  0  0
    8.6850   -0.4550   22.7640 C   0  0  0  0  0  0  0  0  0  0  0  0
   13.0270   -2.1710   21.4530 C   0  0  0  0  0  0  0  0  0  0  0  0
    6.2780    0.5490   17.6430 N   0  0  0  0  0  0  0  0  0  0  0  0
    6.8830    0.0130   18.7180 C   0  0  0  0  0  0  0  0  0  0  0  0
    6.5480    0.1620   20.0450 C   0  0  0  0  0  0  0  0  0  0  0  0
    5.3160    1.0460   20.3500 C   0  0  0  0  0  0  0  0  0  0  0  0
    4.6660    1.6120   19.2640 C   0  0  0  0  0  0  0  0  0  0  0  0
    5.2110    1.3250   17.8670 C   0  0  0  0  0  0  0  0  0  0  0  0
   10.7670    0.6550   23.7070 C   0  0  0  0  0  0  0  0  0  0  0  0
   12.1470    0.7260   23.7790 C   0  0  0  0  0  0  0  0  0  0  0  0
   12.9640   -0.2810   22.9760 C   0  0  0  0  0  0  0  0  0  0  0  0
   12.3300   -1.2170   22.2180 C   0  0  0  0  0  0  0  0  0  0  0  0
   10.9420   -1.2750   22.1550 C   0  0  0  0  0  0  0  0  0  0  0  0
   10.1680   -0.3590   22.8800 C   0  0  0  0  0  0  0  0  0  0  0  0
  2  5  2  0
  3  5  1  0
  5  6  1  0
  4  7  3  0
  8  9  2  0
  3 10  1  0
  9 10  1  0
  1 11  1  0
 10 11  2  0
 11 12  1  0
  8 13  1  0
 12 13  2  0
 14 15  2  0
 15 16  1  0
  7 17  1  0
 16 17  2  0
 17 18  1  0
  6 19  1  0
 14 19  1  0
 18 19  2  0
M  END
