x2908-x2581
     RDKit          3D

 34 37  0  0  0  0  0  0  0  0999 V2000
   10.1410   -2.6950   23.7670 C   0  0  0  0  0  0  0  0  0  0  0  0
   10.4780   -1.3280   24.1850 N   0  0  0  0  0  0  0  0  0  0  0  0
   10.3650    3.2320   22.0900 N   0  0  0  0  0  0  0  0  0  0  0  0
   11.1720    3.3450   24.2440 O   0  0  0  0  0  0  0  0  0  0  0  0
   11.1250    3.9520   22.9740 C   0  0  0  0  0  0  0  0  0  0  0  0
   11.7420    5.0780   22.7140 C   0  0  0  0  0  0  0  0  0  0  0  0
    4.9680    1.1920   21.5610 C   0  0  0  0  0  0  0  0  0  0  0  0
    7.3410   -0.3270   20.7360 N   0  0  0  0  0  0  0  0  0  0  0  0
    8.8830    1.5750   21.3690 N   0  0  0  0  0  0  0  0  0  0  0  0
    9.9010    1.9240   22.2080 C   0  0  0  0  0  0  0  0  0  0  0  0
   10.4810    1.0470   23.1500 C   0  0  0  0  0  0  0  0  0  0  0  0
    9.9480   -0.4120   23.2650 C   0  0  0  0  0  0  0  0  0  0  0  0
    8.9350   -0.8040   22.4500 C   0  0  0  0  0  0  0  0  0  0  0  0
    8.3430    0.1590   21.4670 C   0  0  0  0  0  0  0  0  0  0  0  0
    9.7530    6.6840   22.7640 C   0  0  0  0  0  0  0  0  0  0  0  0
    9.0730    7.7670   23.2970 C   0  0  0  0  0  0  0  0  0  0  0  0
    9.6930    8.5130   24.4770 C   0  0  0  0  0  0  0  0  0  0  0  0
   10.9130    8.0930   24.9920 C   0  0  0  0  0  0  0  0  0  0  0  0
   11.5860    6.9760   24.4270 C   0  0  0  0  0  0  0  0  0  0  0  0
   11.0250    6.2710   23.3210 C   0  0  0  0  0  0  0  0  0  0  0  0
    9.0510    9.6190   25.0390 C   0  0  0  0  0  0  0  0  0  0  0  0
    9.5710   10.3280   26.0940 C   0  0  0  0  0  0  0  0  0  0  0  0
   10.8000    9.9190   26.6320 C   0  0  0  0  0  0  0  0  0  0  0  0
   11.4650    8.7980   26.0750 C   0  0  0  0  0  0  0  0  0  0  0  0
    6.2330    0.7530   17.4940 N   0  0  0  0  0  0  0  0  0  0  0  0
    6.8970    0.1920   18.4890 C   0  0  0  0  0  0  0  0  0  0  0  0
    6.5510    0.3010   19.7980 C   0  0  0  0  0  0  0  0  0  0  0  0
    5.4230    1.0340   20.1400 C   0  0  0  0  0  0  0  0  0  0  0  0
    4.6870    1.6490   19.1250 C   0  0  0  0  0  0  0  0  0  0  0  0
    5.1530    1.4730   17.8130 C   0  0  0  0  0  0  0  0  0  0  0  0
   13.1440   -2.0600   21.0440 Cl  0  0  0  0  0  0  0  0  0  0  0  0
   11.8730   -1.1140   24.5500 C   0  0  0  0  0  0  0  0  0  0  0  0
   12.6420   -0.9940   23.4140 C   0  0  0  0  0  0  0  0  0  0  0  0
   13.0230   -2.1600   22.7900 C   0  0  0  0  0  0  0  0  0  0  0  0
  1  2  1  0
  3  5  1  0
  4  5  2  0
  5  6  1  0
  3 10  1  0
  9 10  2  0
 10 11  1  0
  2 12  1  0
 11 12  2  0
 12 13  1  0
  8 14  1  0
  9 14  1  0
 13 14  2  0
 15 16  2  0
 16 17  1  0
 17 18  2  0
 18 19  1  0
  6 20  1  0
 15 20  1  0
 19 20  2  0
 17 21  1  0
 21 22  2  0
 22 23  1  0
 18 24  1  0
 23 24  2  0
 25 26  2  0
  8 27  1  0
 26 27  1  0
  7 28  1  0
 27 28  2  0
 28 29  1  0
 25 30  1  0
 29 30  2  0
  2 32  1  0
 32 33  1  0
 31 34  1  0
 33 34  1  0
M  END
