x2908-x0995
     RDKit          3D

 19 20  0  0  0  0  0  0  0  0999 V2000
    4.6670    1.2560   21.6230 C   0  0  0  0  0  0  0  0  0  0  0  0
    8.8000    1.4180   21.1760 O   0  0  0  0  0  0  0  0  0  0  0  0
   13.1970   -2.2820   21.3090 Cl  0  0  0  0  0  0  0  0  0  0  0  0
    7.1570   -0.4360   21.0760 N   0  0  0  0  0  0  0  0  0  0  0  0
    8.7170   -0.5470   22.6800 N   0  0  0  0  0  0  0  0  0  0  0  0
    8.2250    0.1710   21.6400 C   0  0  0  0  0  0  0  0  0  0  0  0
    3.4290    2.3720   19.0130 N   0  0  0  0  0  0  0  0  0  0  0  0
    6.2530    0.5680   17.5100 N   0  0  0  0  0  0  0  0  0  0  0  0
    6.8660    0.0120   18.5660 C   0  0  0  0  0  0  0  0  0  0  0  0
    6.4170    0.1810   19.9620 C   0  0  0  0  0  0  0  0  0  0  0  0
    5.1950    1.0140   20.2480 C   0  0  0  0  0  0  0  0  0  0  0  0
    4.5820    1.5590   19.1460 C   0  0  0  0  0  0  0  0  0  0  0  0
    5.1770    1.3030   17.7560 C   0  0  0  0  0  0  0  0  0  0  0  0
   10.6260    0.5090   23.7320 C   0  0  0  0  0  0  0  0  0  0  0  0
   12.1360    0.5840   23.8460 C   0  0  0  0  0  0  0  0  0  0  0  0
   12.9380   -0.2740   23.1040 C   0  0  0  0  0  0  0  0  0  0  0  0
   12.3260   -1.1970   22.2660 C   0  0  0  0  0  0  0  0  0  0  0  0
   10.8210   -1.2830   22.1420 C   0  0  0  0  0  0  0  0  0  0  0  0
   10.0600   -0.4250   22.8760 C   0  0  0  0  0  0  0  0  0  0  0  0
  2  6  2  0
  4  6  1  0
  5  6  1  0
  8  9  2  0
  4 10  1  0
  9 10  1  0
  1 11  1  0
 10 11  2  0
  7 12  1  0
 11 12  1  0
  8 13  1  0
 12 13  2  0
 14 15  2  0
 15 16  1  0
  3 17  1  0
 16 17  2  0
 17 18  1  0
  5 19  1  0
 14 19  1  0
 18 19  2  0
M  END
