x2908-x0387
     RDKit          3D

 26 28  0  0  0  0  0  0  0  0999 V2000
    4.7580    1.2530   21.6220 C   0  0  0  0  0  0  0  0  0  0  0  0
    8.8430    1.1790   21.1770 O   0  0  0  0  0  0  0  0  0  0  0  0
   13.5450   -1.5050   21.0670 Cl  0  0  0  0  0  0  0  0  0  0  0  0
    7.0660   -0.5620   20.9320 N   0  0  0  0  0  0  0  0  0  0  0  0
    8.7670   -1.1030   22.2480 N   0  0  0  0  0  0  0  0  0  0  0  0
    8.2460   -0.1200   21.4520 C   0  0  0  0  0  0  0  0  0  0  0  0
    8.7910   -4.4850   27.9050 O   0  0  0  0  0  0  0  0  0  0  0  0
    9.0810   -1.3580   24.9360 C   0  0  0  0  0  0  0  0  0  0  0  0
    6.2030    0.6840   17.4760 N   0  0  0  0  0  0  0  0  0  0  0  0
    6.8130   -0.0030   18.5690 C   0  0  0  0  0  0  0  0  0  0  0  0
    6.3460    0.1740   19.9640 C   0  0  0  0  0  0  0  0  0  0  0  0
    5.2910    1.0150   20.2400 C   0  0  0  0  0  0  0  0  0  0  0  0
    4.6540    1.7420   19.0240 C   0  0  0  0  0  0  0  0  0  0  0  0
    5.1700    1.5140   17.7500 C   0  0  0  0  0  0  0  0  0  0  0  0
   10.2820   -1.3320   24.0410 C   0  0  0  0  0  0  0  0  0  0  0  0
   11.5860   -1.4320   24.5530 C   0  0  0  0  0  0  0  0  0  0  0  0
   12.6780   -1.4670   23.7070 C   0  0  0  0  0  0  0  0  0  0  0  0
   12.3630   -1.4110   22.2430 C   0  0  0  0  0  0  0  0  0  0  0  0
   11.0930   -1.2940   21.8410 C   0  0  0  0  0  0  0  0  0  0  0  0
   10.0610   -1.2410   22.7040 C   0  0  0  0  0  0  0  0  0  0  0  0
    8.8180   -4.6020   26.4880 C   0  0  1  0  0  0  0  0  0  0  0  0
    8.0520   -3.5280   25.9150 C   0  0  0  0  0  0  0  0  0  0  0  0
    8.4950   -2.8070   24.7970 C   0  0  2  0  0  0  0  0  0  0  0  0
    9.5850   -3.5280   24.1810 N   0  0  0  0  0  0  0  0  0  0  0  0
   10.6320   -3.6690   25.1630 C   0  0  0  0  0  0  0  0  0  0  0  0
   10.2810   -4.7010   26.0370 C   0  0  0  0  0  0  0  0  0  0  0  0
  2  6  2  0
  4  6  1  0
  5  6  1  0
  9 10  2  0
  4 11  1  0
 10 11  1  0
  1 12  1  0
 11 12  2  0
 12 13  1  0
  9 14  1  0
 13 14  2  0
  8 15  1  0
 15 16  2  0
 16 17  1  0
  3 18  1  0
 17 18  2  0
 18 19  1  0
  5 20  1  0
 15 20  1  0
 19 20  2  0
 21  7  1  1
 21 22  1  0
 23  8  1  1
 22 23  1  0
 23 24  1  0
 24 25  1  0
 21 26  1  0
 25 26  1  0
M  END
