x2908-x2776
     RDKit          3D

 37 39  0  0  0  0  0  0  0  0999 V2000
    6.9160   -1.5940   21.6740 N   0  0  0  0  0  0  0  0  0  0  0  0
    6.7240   -4.8880   20.4600 C   0  0  0  0  0  0  0  0  0  0  0  0
    4.8320   -2.9760   21.0810 O   0  0  0  0  0  0  0  0  0  0  0  0
    6.7730   -4.0940   21.7480 C   0  0  0  0  0  0  0  0  0  0  0  0
    7.7090    1.8530   22.7930 N   0  0  0  0  0  0  0  0  0  0  0  0
    9.0670    0.6040   21.4180 O   0  0  0  0  0  0  0  0  0  0  0  0
    6.0720   -2.8070   21.4700 C   0  0  0  0  0  0  0  0  0  0  0  0
   10.7720    6.5390   23.8280 O   0  0  0  0  0  0  0  0  0  0  0  0
    6.7380   -0.0700   21.4670 C   0  0  1  0  0  0  0  0  0  0  0  0
   12.2620   -2.8600   25.0900 O   0  0  0  0  0  0  0  0  0  0  0  0
    7.9580    0.8100   21.8870 C   0  0  0  0  0  0  0  0  0  0  0  0
   10.4620    1.6880   23.8940 C   0  0  0  0  0  0  0  0  0  0  0  0
   11.8030    6.3950   24.8080 C   0  0  0  0  0  0  0  0  0  0  0  0
   11.8500   -1.5470   24.6890 C   0  0  1  0  0  0  0  0  0  0  0  0
   12.9160   -1.0400   23.7550 C   0  0  0  0  0  0  0  0  0  0  0  0
   13.6140   -2.9320   25.4990 C   0  0  0  0  0  0  0  0  0  0  0  0
    4.1770    1.7350   21.3050 C   0  0  0  0  0  0  0  0  0  0  0  0
    6.3370    0.4620   17.7770 N   0  0  0  0  0  0  0  0  0  0  0  0
    5.2530    1.2450   17.7440 C   0  0  0  0  0  0  0  0  0  0  0  0
    4.5610    1.6460   18.8450 C   0  0  0  0  0  0  0  0  0  0  0  0
    4.9950    1.2380   20.1000 C   0  0  0  0  0  0  0  0  0  0  0  0
    6.1210    0.4300   20.1870 C   0  0  0  0  0  0  0  0  0  0  0  0
    6.7470    0.0710   18.9880 C   0  0  0  0  0  0  0  0  0  0  0  0
    9.7770    2.9940   23.5620 C   0  0  0  0  0  0  0  0  0  0  0  0
   10.5070    4.1750   23.8040 C   0  0  0  0  0  0  0  0  0  0  0  0
    9.9650    5.4600   23.5410 C   0  0  0  0  0  0  0  0  0  0  0  0
    8.6700    5.5100   23.0150 C   0  0  0  0  0  0  0  0  0  0  0  0
    7.9360    4.3370   22.7660 C   0  0  0  0  0  0  0  0  0  0  0  0
    8.4590    3.0590   23.0330 C   0  0  0  0  0  0  0  0  0  0  0  0
    9.3690   -2.1060   21.8740 C   0  0  0  0  0  0  0  0  0  0  0  0
   10.5560   -2.0860   22.6070 C   0  0  0  0  0  0  0  0  0  0  0  0
   10.5750   -1.6000   23.9110 C   0  0  0  0  0  0  0  0  0  0  0  0
    9.3990   -1.1520   24.4820 C   0  0  0  0  0  0  0  0  0  0  0  0
    8.2160   -1.1740   23.7440 C   0  0  0  0  0  0  0  0  0  0  0  0
    8.1730   -1.6410   22.4220 C   0  0  0  0  0  0  0  0  0  0  0  0
   13.2630   -1.7710   21.1910 Cl  0  0  0  0  0  0  0  0  0  0  0  0
   13.2830   -2.2070   22.8940 C   0  0  0  0  0  0  0  0  0  0  0  0
  2  4  1  0
  1  7  1  0
  3  7  2  0
  4  7  1  0
  1  9  1  0
  5 11  1  0
  6 11  2  0
  9 11  1  6
  8 13  1  0
 10 14  1  0
 14 15  1  6
 10 16  1  0
 18 19  2  0
 19 20  1  0
 17 21  1  0
 20 21  2  0
  9 22  1  0
 21 22  1  0
 18 23  1  0
 22 23  2  0
 12 24  1  0
 24 25  2  0
  8 26  1  0
 25 26  1  0
 26 27  2  0
 27 28  1  0
  5 29  1  0
 24 29  1  0
 28 29  2  0
 30 31  2  0
 14 32  1  0
 31 32  1  0
 32 33  2  0
 33 34  1  0
  1 35  1  0
 30 35  1  0
 34 35  2  0
 15 37  1  0
 36 37  1  0
M  END
