x2908-x2754
     RDKit          3D

 38 41  0  0  0  0  0  0  0  0999 V2000
    4.6350   -3.2820   25.2180 C   0  0  0  0  0  0  0  0  0  0  0  0
    3.4300   -3.1560   25.0260 O   0  0  0  0  0  0  0  0  0  0  0  0
    5.2410   -3.2230   26.4650 N   0  0  0  0  0  0  0  0  0  0  0  0
    5.2310   -4.6640   19.9180 O   0  0  0  0  0  0  0  0  0  0  0  0
    6.1630   -3.9900   20.3360 C   0  0  0  0  0  0  0  0  0  0  0  0
    7.0330   -3.2320   19.3510 C   0  0  0  0  0  0  0  0  0  0  0  0
    4.6160   -2.2020   27.3130 C   0  0  0  0  0  0  0  0  0  0  0  0
    4.3850    0.8320   21.4310 C   0  0  0  0  0  0  0  0  0  0  0  0
    8.5420    1.1550   21.1000 O   0  0  0  0  0  0  0  0  0  0  0  0
   13.2130   -2.3440   21.2570 Cl  0  0  0  0  0  0  0  0  0  0  0  0
    7.0330   -0.6610   20.8920 N   0  0  0  0  0  0  0  0  0  0  0  0
    8.6740   -0.5420   22.7310 N   0  0  0  0  0  0  0  0  0  0  0  0
    8.1170    0.0690   21.5540 C   0  0  0  0  0  0  0  0  0  0  0  0
    6.2200   -1.4980   21.8270 C   0  0  0  0  0  0  0  0  0  0  0  0
    6.4640   -3.9560   21.7020 N   0  0  0  0  0  0  0  0  0  0  0  0
    7.0120   -2.7200   22.3150 C   0  0  2  0  0  0  0  0  0  0  0  0
    6.7590   -2.8160   23.8140 C   0  0  0  0  0  0  0  0  0  0  0  0
    5.3830   -3.5250   23.8910 C   0  0  1  0  0  0  0  0  0  0  0  0
    5.4540   -4.8570   23.6030 C   0  0  0  0  0  0  0  0  0  0  0  0
    6.3030   -5.0770   22.5080 C   0  0  0  0  0  0  0  0  0  0  0  0
    6.7800   -5.0060   27.1920 C   0  0  0  0  0  0  0  0  0  0  0  0
    8.0510   -5.5200   27.5120 C   0  0  0  0  0  0  0  0  0  0  0  0
    9.1950   -4.7680   27.4390 C   0  0  0  0  0  0  0  0  0  0  0  0
    9.0280   -3.3270   26.9870 C   0  0  0  0  0  0  0  0  0  0  0  0
    7.7010   -2.7470   26.6400 C   0  0  0  0  0  0  0  0  0  0  0  0
    6.5120   -3.6820   26.7620 C   0  0  0  0  0  0  0  0  0  0  0  0
    6.3250    0.7880   17.5190 N   0  0  0  0  0  0  0  0  0  0  0  0
    6.8780    0.1200   18.5380 C   0  0  0  0  0  0  0  0  0  0  0  0
    6.3160    0.0630   19.9210 C   0  0  0  0  0  0  0  0  0  0  0  0
    5.1280    0.7550   20.1230 C   0  0  0  0  0  0  0  0  0  0  0  0
    4.5080    1.5090   18.9530 C   0  0  0  0  0  0  0  0  0  0  0  0
    5.1790    1.4630   17.7230 C   0  0  0  0  0  0  0  0  0  0  0  0
   10.6170    0.6010   23.6770 C   0  0  0  0  0  0  0  0  0  0  0  0
   12.0710    0.7330   23.7600 C   0  0  0  0  0  0  0  0  0  0  0  0
   12.9420   -0.2340   22.9630 C   0  0  0  0  0  0  0  0  0  0  0  0
   12.3470   -1.2290   22.1760 C   0  0  0  0  0  0  0  0  0  0  0  0
   10.8600   -1.3430   22.1060 C   0  0  0  0  0  0  0  0  0  0  0  0
   10.0250   -0.3770   22.8900 C   0  0  0  0  0  0  0  0  0  0  0  0
  1  2  2  0
  1  3  1  0
  4  5  2  0
  5  6  1  0
  3  7  1  0
  9 13  2  0
 11 13  1  0
 12 13  1  0
 11 14  1  0
  5 15  1  0
 16 14  1  6
 15 16  1  0
 16 17  1  0
 18  1  1  1
 17 18  1  0
 18 19  1  0
 15 20  1  0
 19 20  1  0
 21 22  2  0
 22 23  1  0
 23 24  2  0
 24 25  1  0
  3 26  1  0
 21 26  1  0
 25 26  2  0
 27 28  2  0
 11 29  1  0
 28 29  1  0
  8 30  1  0
 29 30  2  0
 30 31  1  0
 27 32  1  0
 31 32  2  0
 33 34  2  0
 34 35  1  0
 10 36  1  0
 35 36  2  0
 36 37  1  0
 12 38  1  0
 33 38  1  0
 37 38  2  0
M  END
