x2908-x3110-x2754
     RDKit          3D

 50 53  0  0  0  0  0  0  0  0999 V2000
    8.0380    1.0880   23.1920 N   0  0  0  0  0  0  0  0  0  0  0  0
   13.3710    5.1470   22.9080 C   0  0  0  0  0  0  0  0  0  0  0  0
   12.0110    3.2570   22.4810 O   0  0  0  0  0  0  0  0  0  0  0  0
   12.3990    4.5080   21.9340 C   0  0  0  0  0  0  0  0  0  0  0  0
    7.0920   -1.7310   21.4880 N   0  0  0  0  0  0  0  0  0  0  0  0
   10.9070    4.3000   24.1870 O   0  0  0  0  0  0  0  0  0  0  0  0
   11.0920    3.3290   23.4730 C   0  0  0  0  0  0  0  0  0  0  0  0
    8.5680    1.3410   21.0260 O   0  0  0  0  0  0  0  0  0  0  0  0
   10.2930    2.0060   23.5890 C   0  0  0  0  0  0  0  0  0  0  0  0
    4.9870   -3.1280   20.8900 O   0  0  0  0  0  0  0  0  0  0  0  0
    8.8050    2.2820   23.5920 C   0  0  0  0  0  0  0  0  0  0  0  0
    7.8480    0.7660   21.8700 C   0  0  0  0  0  0  0  0  0  0  0  0
    6.7040   -0.2610   21.4520 C   0  0  1  0  0  0  0  0  0  0  0  0
    6.2440   -2.9500   21.3170 C   0  0  0  0  0  0  0  0  0  0  0  0
    7.9790   -4.7740   21.0890 C   0  0  0  0  0  0  0  0  0  0  0  0
   12.2020   -1.8790   24.4880 C   0  0  0  0  0  0  0  0  0  0  0  0
   12.3960   -0.5880   25.2570 C   0  0  0  0  0  0  0  0  0  0  0  0
   13.3540   -1.8550   23.5400 C   0  0  0  0  0  0  0  0  0  0  0  0
   12.4690   -3.1010   25.3670 C   0  0  0  0  0  0  0  0  0  0  0  0
    4.4890    1.5170   21.5190 C   0  0  0  0  0  0  0  0  0  0  0  0
    4.8430   -3.4140   25.3660 C   0  0  0  0  0  0  0  0  0  0  0  0
    3.6590   -3.1170   25.1490 O   0  0  0  0  0  0  0  0  0  0  0  0
    5.4710   -3.2090   26.5960 N   0  0  0  0  0  0  0  0  0  0  0  0
    5.0180   -2.1040   27.4390 C   0  0  0  0  0  0  0  0  0  0  0  0
    6.3790    0.4610   17.7500 N   0  0  0  0  0  0  0  0  0  0  0  0
    5.2650    1.3920   17.6870 C   0  0  0  0  0  0  0  0  0  0  0  0
    4.5830    1.7720   18.9730 C   0  0  0  0  0  0  0  0  0  0  0  0
    5.1400    1.1450   20.2250 C   0  0  0  0  0  0  0  0  0  0  0  0
    6.2030    0.2830   20.1560 C   0  0  0  0  0  0  0  0  0  0  0  0
    6.7730   -0.0280   18.9410 C   0  0  0  0  0  0  0  0  0  0  0  0
    9.5180   -2.2440   21.7540 C   0  0  0  0  0  0  0  0  0  0  0  0
   10.7360   -2.2890   22.4430 C   0  0  0  0  0  0  0  0  0  0  0  0
   10.8640   -1.8510   23.7510 C   0  0  0  0  0  0  0  0  0  0  0  0
    9.6770   -1.3810   24.2840 C   0  0  0  0  0  0  0  0  0  0  0  0
    8.4680   -1.3440   23.5610 C   0  0  0  0  0  0  0  0  0  0  0  0
    8.3530   -1.7820   22.2450 C   0  0  0  0  0  0  0  0  0  0  0  0
    6.9460   -4.2220   21.7960 C   0  0  1  0  0  0  0  0  0  0  0  0
    7.5480   -3.6890   23.0910 C   0  0  0  0  0  0  0  0  0  0  0  0
    6.5840   -3.0600   23.8590 C   0  0  0  0  0  0  0  0  0  0  0  0
    5.6800   -4.0230   24.3140 C   0  0  2  0  0  0  0  0  0  0  0  0
    5.0460   -4.7580   23.2910 C   0  0  0  0  0  0  0  0  0  0  0  0
    5.8520   -5.2620   22.2290 C   0  0  0  0  0  0  0  0  0  0  0  0
    7.0740   -4.8340   27.6750 C   0  0  0  0  0  0  0  0  0  0  0  0
    8.3990   -5.2320   27.8020 C   0  0  0  0  0  0  0  0  0  0  0  0
    9.4540   -4.6080   27.1650 C   0  0  0  0  0  0  0  0  0  0  0  0
    9.2030   -3.5180   26.3460 C   0  0  0  0  0  0  0  0  0  0  0  0
    7.8800   -3.0750   26.1860 C   0  0  0  0  0  0  0  0  0  0  0  0
    6.8330   -3.7360   26.8460 C   0  0  0  0  0  0  0  0  0  0  0  0
   13.3330   -1.7580   20.9830 Cl  0  0  0  0  0  0  0  0  0  0  0  0
   13.1890   -0.8430   22.4590 C   0  0  0  0  0  0  0  0  0  0  0  0
  2  4  1  0
  3  4  1  0
  3  7  1  0
  6  7  2  0
  7  9  1  0
  1 11  1  0
  9 11  1  0
  1 12  1  0
  8 12  2  0
  5 13  1  0
 13 12  1  6
  5 14  1  0
 10 14  2  0
 16 17  1  0
 16 18  1  0
 16 19  1  0
 21 22  2  0
 21 23  1  0
 23 24  1  0
 25 26  2  0
 26 27  1  0
 20 28  1  0
 27 28  2  0
 13 29  1  0
 28 29  1  0
 25 30  1  0
 29 30  2  0
 31 32  2  0
 16 33  1  0
 32 33  1  0
 33 34  2  0
 34 35  1  0
  5 36  1  0
 31 36  1  0
 35 36  2  0
 37 14  1  0
 37 15  1  6
 37 38  1  0
 38 39  1  0
 40 21  1  6
 39 40  1  0
 40 41  1  0
 37 42  1  0
 41 42  1  0
 43 44  2  0
 44 45  1  0
 45 46  2  0
 46 47  1  0
 23 48  1  0
 43 48  1  0
 47 48  2  0
 18 50  1  0
 49 50  1  0
M  END
