x2908-x1308
     RDKit          3D

 39 42  0  0  0  0  0  0  0  0999 V2000
    7.0950   -3.3870   19.7460 C   0  0  0  0  0  0  0  0  0  0  0  0
    5.3870   -4.9960   20.0170 O   0  0  0  0  0  0  0  0  0  0  0  0
    0.7040   -1.2210   26.3060 Cl  0  0  0  0  0  0  0  0  0  0  0  0
    6.3480   -4.4410   20.5340 C   0  0  0  0  0  0  0  0  0  0  0  0
    6.3750   -5.1400   26.9650 O   0  0  0  0  0  0  0  0  0  0  0  0
    4.7410   -6.9580   26.2390 O   0  0  0  0  0  0  0  0  0  0  0  0
    5.3670   -5.5130   26.0070 S   0  0  0  0  0  0  0  0  0  0  0  0
    4.6850    1.1350   21.5230 C   0  0  0  0  0  0  0  0  0  0  0  0
    8.7510    1.1640   21.2450 O   0  0  0  0  0  0  0  0  0  0  0  0
   13.2700   -2.1870   21.3630 Cl  0  0  0  0  0  0  0  0  0  0  0  0
    7.0000   -0.4580   20.9350 N   0  0  0  0  0  0  0  0  0  0  0  0
    8.7990   -0.7700   22.4780 N   0  0  0  0  0  0  0  0  0  0  0  0
    8.2570    0.0570   21.5570 C   0  0  0  0  0  0  0  0  0  0  0  0
    7.2570   -2.5490   22.4420 C   0  0  0  0  0  0  0  0  0  0  0  0
    8.5600   -2.1450   22.1640 C   0  0  0  0  0  0  0  0  0  0  0  0
    6.7270   -4.8480   21.8280 N   0  0  0  0  0  0  0  0  0  0  0  0
    7.1380   -4.0410   22.8600 C   0  0  2  0  0  0  0  0  0  0  0  0
    6.2680   -4.0320   23.9560 C   0  0  0  0  0  0  0  0  0  0  0  0
    5.9980   -5.4200   24.4050 N   0  0  0  0  0  0  0  0  0  0  0  0
    5.2780   -6.1510   23.3250 C   0  0  0  0  0  0  0  0  0  0  0  0
    6.1390   -6.1420   22.2280 C   0  0  0  0  0  0  0  0  0  0  0  0
    4.3790   -2.9960   26.4320 C   0  0  0  0  0  0  0  0  0  0  0  0
    3.2420   -1.9760   26.4990 C   0  0  0  0  0  0  0  0  0  0  0  0
    1.9690   -2.3900   26.2080 C   0  0  0  0  0  0  0  0  0  0  0  0
    1.6870   -3.7230   25.8420 C   0  0  0  0  0  0  0  0  0  0  0  0
    2.7350   -4.6930   25.7730 C   0  0  0  0  0  0  0  0  0  0  0  0
    4.0670   -4.3060   26.0750 C   0  0  0  0  0  0  0  0  0  0  0  0
    6.2770    0.6760   17.5570 N   0  0  0  0  0  0  0  0  0  0  0  0
    6.8180    0.0750   18.6330 C   0  0  0  0  0  0  0  0  0  0  0  0
    6.3310    0.2070   19.9110 C   0  0  0  0  0  0  0  0  0  0  0  0
    5.2000    1.0090   20.0980 C   0  0  0  0  0  0  0  0  0  0  0  0
    4.6240    1.6370   19.0060 C   0  0  0  0  0  0  0  0  0  0  0  0
    5.2010    1.4440   17.7560 C   0  0  0  0  0  0  0  0  0  0  0  0
   10.5730    0.5020   23.6410 C   0  0  0  0  0  0  0  0  0  0  0  0
   11.9520    0.6810   23.8270 C   0  0  0  0  0  0  0  0  0  0  0  0
   12.8260   -0.1560   23.1230 C   0  0  0  0  0  0  0  0  0  0  0  0
   12.3340   -1.1310   22.2730 C   0  0  0  0  0  0  0  0  0  0  0  0
   11.0080   -1.2900   22.1090 C   0  0  0  0  0  0  0  0  0  0  0  0
   10.1210   -0.4940   22.7690 C   0  0  0  0  0  0  0  0  0  0  0  0
  1  4  1  0
  2  4  2  0
  5  7  2  0
  6  7  2  0
  9 13  2  0
 11 13  1  0
 12 13  1  0
 12 15  1  0
 14 15  1  0
  4 16  1  0
 17 14  1  6
 16 17  1  0
 17 18  1  0
  7 19  1  0
 18 19  1  0
 19 20  1  0
 16 21  1  0
 20 21  1  0
 22 23  2  0
  3 24  1  0
 23 24  1  0
 24 25  2  0
 25 26  1  0
  7 27  1  0
 22 27  1  0
 26 27  2  0
 28 29  2  0
 11 30  1  0
 29 30  1  0
  8 31  1  0
 30 31  2  0
 31 32  1  0
 28 33  1  0
 32 33  2  0
 34 35  2  0
 35 36  1  0
 10 37  1  0
 36 37  2  0
 37 38  1  0
 12 39  1  0
 34 39  1  0
 38 39  2  0
M  END
