x2908-x1493
     RDKit          3D

 32 34  0  0  0  0  0  0  0  0999 V2000
    4.8070    1.1980   21.5990 C   0  0  0  0  0  0  0  0  0  0  0  0
    8.7330    1.2070   21.1860 O   0  0  0  0  0  0  0  0  0  0  0  0
   13.2200   -2.5800   21.3260 Cl  0  0  0  0  0  0  0  0  0  0  0  0
    7.0000   -0.5670   20.9260 N   0  0  0  0  0  0  0  0  0  0  0  0
    8.6530   -0.9910   22.3880 N   0  0  0  0  0  0  0  0  0  0  0  0
    8.1350   -0.0850   21.4980 C   0  0  0  0  0  0  0  0  0  0  0  0
    5.2450   -5.8100   26.0450 C   0  0  0  0  0  0  0  0  0  0  0  0
    7.5270   -5.1810   25.7850 O   0  0  0  0  0  0  0  0  0  0  0  0
    6.4010   -5.1630   25.3120 C   0  0  0  0  0  0  0  0  0  0  0  0
    5.1850   -4.6470   19.8960 O   0  0  0  0  0  0  0  0  0  0  0  0
    6.2640   -4.3710   20.3650 C   0  0  0  0  0  0  0  0  0  0  0  0
    7.1240   -3.3320   19.6770 C   0  0  0  0  0  0  0  0  0  0  0  0
    7.8730   -1.3580   23.6260 C   0  0  0  0  0  0  0  0  0  0  0  0
    7.8720   -2.7450   23.9440 C   0  0  0  0  0  0  0  0  0  0  0  0
    6.2230    0.6280   17.5260 N   0  0  0  0  0  0  0  0  0  0  0  0
    6.7450    0.0060   18.5880 C   0  0  0  0  0  0  0  0  0  0  0  0
    6.3640    0.1230   19.9080 C   0  0  0  0  0  0  0  0  0  0  0  0
    5.3070    0.9840   20.2070 C   0  0  0  0  0  0  0  0  0  0  0  0
    4.6400    1.7420   19.0530 C   0  0  0  0  0  0  0  0  0  0  0  0
    5.1260    1.5300   17.7990 C   0  0  0  0  0  0  0  0  0  0  0  0
   10.5400    0.3910   23.2160 C   0  0  0  0  0  0  0  0  0  0  0  0
   11.9490    0.5950   23.3050 C   0  0  0  0  0  0  0  0  0  0  0  0
   12.8350   -0.3140   22.7400 C   0  0  0  0  0  0  0  0  0  0  0  0
   12.3080   -1.4050   22.0910 C   0  0  0  0  0  0  0  0  0  0  0  0
   10.9600   -1.5820   22.0210 C   0  0  0  0  0  0  0  0  0  0  0  0
   10.0220   -0.7360   22.5520 C   0  0  0  0  0  0  0  0  0  0  0  0
    6.0100   -4.5590   24.0200 N   0  0  0  0  0  0  0  0  0  0  0  0
    6.7710   -3.6540   23.3190 C   0  0  2  0  0  0  0  0  0  0  0  0
    7.4940   -4.3750   22.4600 C   0  0  0  0  0  0  0  0  0  0  0  0
    6.7030   -5.0030   21.5220 N   0  0  0  0  0  0  0  0  0  0  0  0
    5.9100   -5.9450   22.0720 C   0  0  0  0  0  0  0  0  0  0  0  0
    5.1370   -5.3650   23.1130 C   0  0  0  0  0  0  0  0  0  0  0  0
  2  6  2  0
  4  6  1  0
  5  6  1  0
  7  9  1  0
  8  9  2  0
 10 11  2  0
 11 12  1  0
  5 13  1  0
 13 14  1  0
 15 16  2  0
  4 17  1  0
 16 17  1  0
  1 18  1  0
 17 18  2  0
 18 19  1  0
 15 20  1  0
 19 20  2  0
 21 22  2  0
 22 23  1  0
  3 24  1  0
 23 24  2  0
 24 25  1  0
  5 26  1  0
 21 26  1  0
 25 26  2  0
  9 27  1  0
 28 14  1  1
 27 28  1  0
 28 29  1  0
 11 30  1  0
 29 30  1  0
 30 31  1  0
 27 32  1  0
 31 32  1  0
M  END
