x2908-x1412
     RDKit          3D

 34 38  0  0  0  0  0  0  0  0999 V2000
    4.8530    0.9890   21.6780 C   0  0  0  0  0  0  0  0  0  0  0  0
    8.8020    1.3280   21.1290 O   0  0  0  0  0  0  0  0  0  0  0  0
   13.2840   -1.9910   21.2670 Cl  0  0  0  0  0  0  0  0  0  0  0  0
    7.2600   -0.6380   20.9140 N   0  0  0  0  0  0  0  0  0  0  0  0
    8.7860   -0.7360   22.5920 N   0  0  0  0  0  0  0  0  0  0  0  0
    8.2900    0.0290   21.5300 C   0  0  0  0  0  0  0  0  0  0  0  0
    7.3330   -2.9720   18.9140 C   0  0  0  0  0  0  0  0  0  0  0  0
    5.2920   -4.0050   19.6420 O   0  0  0  0  0  0  0  0  0  0  0  0
    6.2940   -3.3550   19.9270 C   0  0  0  0  0  0  0  0  0  0  0  0
    8.4090   -1.5100   25.1210 O   0  0  0  0  0  0  0  0  0  0  0  0
    8.3870   -2.6810   24.7410 C   0  0  0  0  0  0  0  0  0  0  0  0
    6.2280    0.5910   17.5490 N   0  0  0  0  0  0  0  0  0  0  0  0
    6.9830   -0.1220   18.5170 C   0  0  0  0  0  0  0  0  0  0  0  0
    6.4860    0.0330   19.9640 C   0  0  0  0  0  0  0  0  0  0  0  0
    5.3720    0.8040   20.2880 C   0  0  0  0  0  0  0  0  0  0  0  0
    4.6140    1.5350   19.1950 C   0  0  0  0  0  0  0  0  0  0  0  0
    5.0700    1.4030   17.9010 C   0  0  0  0  0  0  0  0  0  0  0  0
   10.5660    0.5640   23.7920 C   0  0  0  0  0  0  0  0  0  0  0  0
   12.0670    0.7030   23.8600 C   0  0  0  0  0  0  0  0  0  0  0  0
   12.8930   -0.0680   23.1010 C   0  0  0  0  0  0  0  0  0  0  0  0
   12.3230   -1.0120   22.2420 C   0  0  0  0  0  0  0  0  0  0  0  0
   10.9430   -1.1880   22.1330 C   0  0  0  0  0  0  0  0  0  0  0  0
   10.1100   -0.3870   22.9120 C   0  0  0  0  0  0  0  0  0  0  0  0
    6.5020   -3.0350   21.2640 N   0  0  0  0  0  0  0  0  0  0  0  0
    7.1080   -1.7660   21.7730 C   0  0  1  0  0  0  0  0  0  0  0  0
    8.3370   -2.0730   22.3160 C   0  0  2  0  0  0  0  0  0  0  0  0
    8.1910   -3.0440   23.4070 N   0  0  0  0  0  0  0  0  0  0  0  0
    7.5710   -4.1860   23.0720 C   0  0  0  0  0  0  0  0  0  0  0  0
    6.4860   -3.9950   22.2060 C   0  0  0  0  0  0  0  0  0  0  0  0
    9.3610   -4.9520   25.4070 C   0  0  0  0  0  0  0  0  0  0  0  0
    8.5570   -3.8450   25.6700 C   0  0  0  0  0  0  0  0  0  0  0  0
    7.7670   -3.9430   27.1780 S   0  0  0  0  0  0  0  0  0  0  0  0
    8.4920   -5.4610   27.4990 C   0  0  0  0  0  0  0  0  0  0  0  0
    9.3380   -5.9070   26.4630 C   0  0  0  0  0  0  0  0  0  0  0  0
  2  6  2  0
  4  6  1  0
  5  6  1  0
  7  9  1  0
  8  9  2  0
 10 11  2  0
 12 13  2  0
  4 14  1  0
 13 14  1  0
  1 15  1  0
 14 15  2  0
 15 16  1  0
 12 17  1  0
 16 17  2  0
 18 19  2  0
 19 20  1  0
  3 21  1  0
 20 21  2  0
 21 22  1  0
  5 23  1  0
 18 23  1  0
 22 23  2  0
  9 24  1  0
 25  4  1  6
 24 25  1  0
 26  5  1  1
 25 26  1  0
 11 27  1  0
 26 27  1  0
 27 28  1  0
 24 29  1  0
 28 29  1  0
 11 31  1  0
 30 31  2  0
 31 32  1  0
 32 33  1  0
 30 34  1  0
 33 34  2  0
M  END
