x2908-x2608
     RDKit          3D

 19 20  0  0  0  0  0  0  0  0999 V2000
    4.6580    1.3220   21.5700 C   0  0  0  0  0  0  0  0  0  0  0  0
    8.5350    1.2350   21.1150 O   0  0  0  0  0  0  0  0  0  0  0  0
   13.1630   -2.4460   21.5970 Cl  0  0  0  0  0  0  0  0  0  0  0  0
    6.8640   -0.5980   20.9650 N   0  0  0  0  0  0  0  0  0  0  0  0
    8.5620   -0.8710   22.4170 N   0  0  0  0  0  0  0  0  0  0  0  0
    7.9790   -0.0550   21.5010 C   0  0  0  0  0  0  0  0  0  0  0  0
   13.0210    1.2040   23.2440 C   0  0  0  0  0  0  0  0  0  0  0  0
    6.1540    0.6390   17.4660 N   0  0  0  0  0  0  0  0  0  0  0  0
    6.7060   -0.0690   18.5790 C   0  0  0  0  0  0  0  0  0  0  0  0
    6.2140    0.1490   19.9590 C   0  0  0  0  0  0  0  0  0  0  0  0
    5.1990    1.0450   20.2060 C   0  0  0  0  0  0  0  0  0  0  0  0
    4.6270    1.7880   18.9740 C   0  0  0  0  0  0  0  0  0  0  0  0
    5.1550    1.5240   17.7160 C   0  0  0  0  0  0  0  0  0  0  0  0
   10.2990    0.4800   23.0330 C   0  0  0  0  0  0  0  0  0  0  0  0
   11.5620    1.0410   23.2360 C   0  0  0  0  0  0  0  0  0  0  0  0
   12.3790   -0.0200   22.7340 C   0  0  0  0  0  0  0  0  0  0  0  0
   12.0010   -1.3630   22.1420 C   0  0  0  0  0  0  0  0  0  0  0  0
   10.7450   -1.6870   22.0350 C   0  0  0  0  0  0  0  0  0  0  0  0
    9.8990   -0.7380   22.4880 C   0  0  0  0  0  0  0  0  0  0  0  0
  2  6  2  0
  4  6  1  0
  5  6  1  0
  8  9  2  0
  4 10  1  0
  9 10  1  0
  1 11  1  0
 10 11  2  0
 11 12  1  0
  8 13  1  0
 12 13  2  0
  7 15  1  0
 14 15  2  0
 15 16  1  0
  3 17  1  0
 16 17  2  0
 17 18  1  0
  5 19  1  0
 14 19  1  0
 18 19  2  0
M  END
