x2908-x0689
     RDKit          3D

 37 40  0  0  0  0  0  0  0  0999 V2000
    7.0600   -3.3300   19.6080 C   0  0  0  0  0  0  0  0  0  0  0  0
    5.6650   -5.2250   20.0180 O   0  0  0  0  0  0  0  0  0  0  0  0
    6.3130   -4.3050   20.4970 C   0  0  0  0  0  0  0  0  0  0  0  0
    4.0590   -6.3630   26.2120 O   0  0  0  0  0  0  0  0  0  0  0  0
    5.7270   -4.6040   27.0130 O   0  0  0  0  0  0  0  0  0  0  0  0
    4.7370   -5.1340   25.8860 S   0  0  0  0  0  0  0  0  0  0  0  0
    4.5330    1.1690   21.3750 C   0  0  0  0  0  0  0  0  0  0  0  0
    8.4130    0.9850   21.2080 O   0  0  0  0  0  0  0  0  0  0  0  0
   13.2180   -2.2010   21.3720 Cl  0  0  0  0  0  0  0  0  0  0  0  0
    6.7960   -0.7370   20.9220 N   0  0  0  0  0  0  0  0  0  0  0  0
    8.6340   -0.7690   22.5880 N   0  0  0  0  0  0  0  0  0  0  0  0
    8.0020   -0.1130   21.5910 C   0  0  0  0  0  0  0  0  0  0  0  0
    6.2540   -2.6330   22.4210 C   0  0  0  0  0  0  0  0  0  0  0  0
    5.9400   -1.7490   21.3910 C   0  0  0  0  0  0  0  0  0  0  0  0
    6.2040   -4.1570   22.0430 C   0  0  0  0  0  0  0  0  0  0  0  0
    4.9850   -4.7910   22.2820 C   0  0  0  0  0  0  0  0  0  0  0  0
    4.9740   -5.9160   23.3030 C   0  0  0  0  0  0  0  0  0  0  0  0
    5.6090   -5.3180   24.4550 N   0  0  0  0  0  0  0  0  0  0  0  0
    6.9690   -4.7730   24.2950 C   0  0  0  0  0  0  0  0  0  0  0  0
    7.2820   -4.8090   22.9150 C   0  0  0  0  0  0  0  0  0  0  0  0
    3.9120   -2.2530   26.0530 S   0  0  0  0  0  0  0  0  0  0  0  0
    3.4740   -3.8840   25.7340 C   0  0  0  0  0  0  0  0  0  0  0  0
    2.1380   -3.9660   25.3980 C   0  0  0  0  0  0  0  0  0  0  0  0
    1.4770   -2.7420   25.4050 C   0  0  0  0  0  0  0  0  0  0  0  0
    2.3230   -1.6780   25.7510 C   0  0  0  0  0  0  0  0  0  0  0  0
    6.3010    0.6320   17.5450 N   0  0  0  0  0  0  0  0  0  0  0  0
    6.7460   -0.0600   18.6140 C   0  0  0  0  0  0  0  0  0  0  0  0
    6.2370    0.0460   19.8790 C   0  0  0  0  0  0  0  0  0  0  0  0
    5.1780    0.9300   20.1060 C   0  0  0  0  0  0  0  0  0  0  0  0
    4.7050    1.6450   18.9960 C   0  0  0  0  0  0  0  0  0  0  0  0
    5.2840    1.4670   17.7660 C   0  0  0  0  0  0  0  0  0  0  0  0
   10.4830    0.4360   23.6500 C   0  0  0  0  0  0  0  0  0  0  0  0
   11.8560    0.6200   23.8110 C   0  0  0  0  0  0  0  0  0  0  0  0
   12.7700   -0.1830   23.1230 C   0  0  0  0  0  0  0  0  0  0  0  0
   12.2420   -1.1660   22.2780 C   0  0  0  0  0  0  0  0  0  0  0  0
   10.8960   -1.3530   22.1160 C   0  0  0  0  0  0  0  0  0  0  0  0
   10.0070   -0.5580   22.7930 C   0  0  0  0  0  0  0  0  0  0  0  0
  1  3  1  0
  2  3  2  0
  4  6  2  0
  5  6  2  0
  8 12  2  0
 10 12  1  0
 11 12  1  0
 10 14  1  0
 13 14  1  0
 15  3  1  0
 13 15  1  0
 15 16  1  0
 16 17  1  0
  6 18  1  0
 17 18  1  0
 18 19  1  0
 15 20  1  0
 19 20  1  0
  6 22  1  0
 21 22  1  0
 22 23  2  0
 23 24  1  0
 21 25  1  0
 24 25  2  0
 26 27  2  0
 10 28  1  0
 27 28  1  0
  7 29  1  0
 28 29  2  0
 29 30  1  0
 26 31  1  0
 30 31  2  0
 32 33  2  0
 33 34  1  0
  9 35  1  0
 34 35  2  0
 35 36  1  0
 11 37  1  0
 32 37  1  0
 36 37  2  0
M  END
