x2910-x0991
     RDKit          3D

 29 31  0  0  0  0  0  0  0  0999 V2000
    7.3070   -1.5640   21.7530 N   0  0  0  0  0  0  0  0  0  0  0  0
   10.0180    2.3440   23.9240 C   0  0  0  0  0  0  0  0  0  0  0  0
    9.9870    1.1200   24.0750 O   0  0  0  0  0  0  0  0  0  0  0  0
    9.5060   -1.4010   23.4280 O   0  0  0  0  0  0  0  0  0  0  0  0
    5.3220   -2.9900   20.9410 O   0  0  0  0  0  0  0  0  0  0  0  0
    6.3160    1.3470   16.8060 O   0  0  0  0  0  0  0  0  0  0  0  0
    9.1630   -2.5660   23.1130 C   0  0  2  0  0  0  0  0  0  0  0  0
    8.3280   -2.5880   21.8380 C   0  0  0  0  0  0  0  0  0  0  0  0
    6.0930   -1.7920   20.9600 C   0  0  0  0  0  0  0  0  0  0  0  0
    9.9660   -5.0310   24.8980 N   0  0  0  0  0  0  0  0  0  0  0  0
    8.3480   -3.2090   24.2860 C   0  0  0  0  0  0  0  0  0  0  0  0
    8.1010   -4.4650   25.9880 N   0  0  0  0  0  0  0  0  0  0  0  0
    8.8230   -4.2850   25.0950 C   0  0  0  0  0  0  0  0  0  0  0  0
   10.9800    0.4190   23.4620 C   0  0  0  0  0  0  0  0  0  0  0  0
   10.7540   -0.9140   23.0880 C   0  0  0  0  0  0  0  0  0  0  0  0
   11.7520   -1.6600   22.4370 C   0  0  0  0  0  0  0  0  0  0  0  0
   13.0190   -1.1700   22.1310 C   0  0  0  0  0  0  0  0  0  0  0  0
   13.3960    0.1330   22.4590 C   0  0  0  0  0  0  0  0  0  0  0  0
   12.3400    0.9760   23.1490 C   0  0  0  0  0  0  0  0  0  0  0  0
    4.7740    1.7680   18.4400 N   0  0  0  0  0  0  0  0  0  0  0  0
    4.1910    1.5040   19.5740 C   0  0  0  0  0  0  0  0  0  0  0  0
    4.5630    0.3260   20.5140 C   0  0  0  0  0  0  0  0  0  0  0  0
    5.6790   -0.6390   20.1320 C   0  0  0  0  0  0  0  0  0  0  0  0
    6.2900   -0.2610   18.8070 C   0  0  0  0  0  0  0  0  0  0  0  0
    5.7700    0.9620   18.0350 C   0  0  0  0  0  0  0  0  0  0  0  0
    3.0890    2.4490   19.9330 C   0  0  0  0  0  0  0  0  0  0  0  0
    2.3740    2.3040   21.1160 C   0  0  0  0  0  0  0  0  0  0  0  0
    2.6800    1.1750   22.1040 C   0  0  0  0  0  0  0  0  0  0  0  0
    3.7830    0.1820   21.7960 C   0  0  0  0  0  0  0  0  0  0  0  0
  2  3  1  0
  4  7  1  0
  1  8  1  0
  7  8  1  6
  1  9  1  0
  5  9  2  0
  7 11  1  0
 10 13  2  3
 11 13  1  0
 12 13  1  0
  3 14  1  0
  4 15  1  0
 14 15  2  0
 15 16  1  0
 16 17  2  0
 17 18  1  0
 14 19  1  0
 18 19  2  0
 20 21  2  0
 21 22  1  0
  9 23  1  0
 22 23  2  0
 23 24  1  0
  6 25  1  0
 20 25  1  0
 24 25  2  0
 21 26  1  0
 26 27  2  0
 27 28  1  0
 22 29  1  0
 28 29  2  0
M  END
