x2912-x1384
     RDKit          3D

 37 41  0  0  0  0  0  0  0  0999 V2000
    7.1610   -0.0200   21.2030 N   0  0  0  0  0  0  0  0  0  0  0  0
    7.9560   -0.2810   24.0390 C   0  0  0  0  0  0  0  0  0  0  0  0
    8.8850    1.4210   21.1780 O   0  0  0  0  0  0  0  0  0  0  0  0
    8.6520   -0.6080   22.7220 C   0  0  1  0  0  0  0  0  0  0  0  0
    8.1700    0.3370   21.5990 C   0  0  0  0  0  0  0  0  0  0  0  0
   13.6090   -3.2840   20.5780 N   0  0  0  0  0  0  0  0  0  0  0  0
    4.8340    1.5700   21.6560 C   0  0  0  0  0  0  0  0  0  0  0  0
   13.0640   -2.2850   21.3440 C   0  0  0  0  0  0  0  0  0  0  0  0
    6.0830   -3.1700   21.8660 N   0  0  0  0  0  0  0  0  0  0  0  0
    7.7150   -4.2860   20.6220 C   0  0  0  0  0  0  0  0  0  0  0  0
    5.4450   -4.1720   19.8190 O   0  0  0  0  0  0  0  0  0  0  0  0
    6.2830   -3.8810   20.6940 C   0  0  0  0  0  0  0  0  0  0  0  0
    6.3860   -0.9580   21.9390 C   0  0  0  0  0  0  0  0  0  0  0  0
    6.8890   -2.2030   22.1390 C   0  0  0  0  0  0  0  0  0  0  0  0
    6.3040    0.5700   17.6900 N   0  0  0  0  0  0  0  0  0  0  0  0
    5.2160    1.3300   17.9080 C   0  0  0  0  0  0  0  0  0  0  0  0
    4.7160    1.6680   19.1470 C   0  0  0  0  0  0  0  0  0  0  0  0
    5.3660    1.2130   20.2860 C   0  0  0  0  0  0  0  0  0  0  0  0
    6.4960    0.4360   20.1020 C   0  0  0  0  0  0  0  0  0  0  0  0
    6.8910    0.1580   18.8170 C   0  0  0  0  0  0  0  0  0  0  0  0
   10.6550    0.6480   23.6800 C   0  0  0  0  0  0  0  0  0  0  0  0
   12.1750    0.7900   23.7530 C   0  0  0  0  0  0  0  0  0  0  0  0
   13.0270   -0.1810   22.9780 C   0  0  0  0  0  0  0  0  0  0  0  0
   12.3460   -1.2650   22.1570 C   0  0  0  0  0  0  0  0  0  0  0  0
   10.9760   -1.3170   22.1470 C   0  0  0  0  0  0  0  0  0  0  0  0
   10.1260   -0.4750   22.8150 C   0  0  0  0  0  0  0  0  0  0  0  0
    3.0990   -3.7830   26.3510 O   0  0  0  0  0  0  0  0  0  0  0  0
    5.3910   -4.2040   24.5300 C   0  0  1  0  0  0  0  0  0  0  0  0
    4.7150   -4.1360   23.2830 C   0  0  1  0  0  0  0  0  0  0  0  0
    3.8460   -4.1980   24.1790 C   0  0  1  0  0  0  0  0  0  0  0  0
    3.4250   -5.5730   24.2210 C   0  0  0  0  0  0  0  0  0  0  0  0
    4.5410   -6.3090   24.6210 C   0  0  0  0  0  0  0  0  0  0  0  0
    5.6580   -5.5120   24.8120 C   0  0  0  0  0  0  0  0  0  0  0  0
    3.4110   -3.1560   25.1460 C   0  0  2  0  0  0  0  0  0  0  0  0
    4.4690   -2.5010   25.6250 C   0  0  0  0  0  0  0  0  0  0  0  0
    5.9010   -3.0100   25.3760 C   0  0  0  0  0  0  0  0  0  0  0  0
    4.8470   -3.0280   22.5190 C   0  0  0  0  0  0  0  0  0  0  0  0
  4  2  1  1
  1  5  1  0
  3  5  2  0
  4  5  1  0
  6  8  3  0
  9 12  1  0
 10 12  1  0
 11 12  2  0
  1 13  1  0
  9 14  1  0
 13 14  1  0
 15 16  2  0
 16 17  1  0
  7 18  1  0
 17 18  2  0
  1 19  1  0
 18 19  1  0
 15 20  1  0
 19 20  2  0
 21 22  2  0
 22 23  1  0
  8 24  1  0
 23 24  2  0
 24 25  1  0
  4 26  1  0
 21 26  1  0
 25 26  2  0
 28 29  1  0
 28 30  1  0
 29 30  1  0
 30 31  1  6
 31 32  1  0
 28 33  1  6
 32 33  2  0
 34 27  1  1
 30 34  1  0
 34 35  1  0
 28 36  1  0
 35 36  2  0
  9 37  1  0
 29 37  1  1
M  END
