x2912-x0820
     RDKit          3D

 37 40  0  0  0  0  0  0  0  0999 V2000
    6.9450   -0.3670   21.2230 N   0  0  0  0  0  0  0  0  0  0  0  0
    8.1770   -0.3970   24.2360 C   0  0  0  0  0  0  0  0  0  0  0  0
    8.9340    1.2840   21.3200 O   0  0  0  0  0  0  0  0  0  0  0  0
    8.7790   -0.7370   22.8670 C   0  0  2  0  0  0  0  0  0  0  0  0
    8.2010    0.1290   21.7480 C   0  0  0  0  0  0  0  0  0  0  0  0
   13.6470   -3.2970   20.5750 N   0  0  0  0  0  0  0  0  0  0  0  0
    4.8420    1.3200   21.6800 C   0  0  0  0  0  0  0  0  0  0  0  0
   13.1240   -2.1810   21.3870 C   0  0  0  0  0  0  0  0  0  0  0  0
    6.7720   -5.1090   21.8310 N   0  0  0  0  0  0  0  0  0  0  0  0
    7.1320   -2.7340   22.6030 C   0  0  0  0  0  0  0  0  0  0  0  0
    5.3800   -5.3640   20.0240 O   0  0  0  0  0  0  0  0  0  0  0  0
    7.1280   -4.0940   22.8800 C   0  0  1  0  0  0  0  0  0  0  0  0
    6.2770   -4.7300   20.5700 C   0  0  0  0  0  0  0  0  0  0  0  0
    6.8320   -3.5480   19.7620 C   0  0  0  0  0  0  0  0  0  0  0  0
    8.5370   -2.1670   22.4540 C   0  0  0  0  0  0  0  0  0  0  0  0
    6.2150    0.5970   17.5350 N   0  0  0  0  0  0  0  0  0  0  0  0
    5.2010    1.4020   17.9070 C   0  0  0  0  0  0  0  0  0  0  0  0
    4.7320    1.6580   19.1860 C   0  0  0  0  0  0  0  0  0  0  0  0
    5.3190    1.0620   20.2860 C   0  0  0  0  0  0  0  0  0  0  0  0
    6.3790    0.2120   20.0220 C   0  0  0  0  0  0  0  0  0  0  0  0
    6.7890   -0.0000   18.7200 C   0  0  0  0  0  0  0  0  0  0  0  0
   10.7780    0.5330   23.6380 C   0  0  0  0  0  0  0  0  0  0  0  0
   12.2710    0.7440   23.6400 C   0  0  0  0  0  0  0  0  0  0  0  0
   13.0400   -0.1300   22.9120 C   0  0  0  0  0  0  0  0  0  0  0  0
   12.4750   -1.1700   22.2040 C   0  0  0  0  0  0  0  0  0  0  0  0
   11.1100   -1.3560   22.2030 C   0  0  0  0  0  0  0  0  0  0  0  0
   10.2520   -0.5150   22.9070 C   0  0  0  0  0  0  0  0  0  0  0  0
    6.2330   -4.2770   24.0620 C   0  0  0  0  0  0  0  0  0  0  0  0
    6.8190   -4.3220   25.3310 C   0  0  0  0  0  0  0  0  0  0  0  0
    5.9730   -4.4870   26.4050 C   0  0  0  0  0  0  0  0  0  0  0  0
    4.6000   -4.5990   26.2050 C   0  0  0  0  0  0  0  0  0  0  0  0
    4.0430   -4.5500   24.9210 C   0  0  0  0  0  0  0  0  0  0  0  0
    4.8590   -4.3860   23.8150 C   0  0  0  0  0  0  0  0  0  0  0  0
    6.4680   -4.5470   27.7250 C   0  0  0  0  0  0  0  0  0  0  0  0
    7.8350   -4.4410   27.9630 C   0  0  0  0  0  0  0  0  0  0  0  0
    8.7270   -4.2720   26.8970 C   0  0  0  0  0  0  0  0  0  0  0  0
    8.2140   -4.2130   25.6010 C   0  0  0  0  0  0  0  0  0  0  0  0
  4  2  1  1
  1  5  1  0
  3  5  2  0
  4  5  1  0
  6  8  3  0
  9 12  1  0
 12 10  1  6
  9 13  1  0
 11 13  2  0
 13 14  1  0
  4 15  1  0
 10 15  1  0
 16 17  2  0
 17 18  1  0
  7 19  1  0
 18 19  2  0
  1 20  1  0
 19 20  1  0
 16 21  1  0
 20 21  2  0
 22 23  2  0
 23 24  1  0
  8 25  1  0
 24 25  2  0
 25 26  1  0
  4 27  1  0
 22 27  1  0
 26 27  2  0
 12 28  1  0
 28 29  2  0
 29 30  1  0
 30 31  2  0
 31 32  1  0
 28 33  1  0
 32 33  2  0
 30 34  1  0
 34 35  2  0
 35 36  1  0
 29 37  1  0
 36 37  2  0
M  END
