x2912-x2964
     RDKit          3D

 21 22  0  0  0  0  0  0  0  0999 V2000
    7.0160   -0.6280   21.1470 N   0  0  0  0  0  0  0  0  0  0  0  0
    7.8450   -0.7440   24.2910 C   0  0  0  0  0  0  0  0  0  0  0  0
    9.0500    0.8790   21.5400 O   0  0  0  0  0  0  0  0  0  0  0  0
    8.6190   -1.1200   23.0270 C   0  0  1  0  0  0  0  0  0  0  0  0
    8.2220   -0.2340   21.8440 C   0  0  0  0  0  0  0  0  0  0  0  0
   14.0670   -1.3760   20.3080 N   0  0  0  0  0  0  0  0  0  0  0  0
    4.7730    1.2190   21.6460 C   0  0  0  0  0  0  0  0  0  0  0  0
   13.2370   -1.3140   21.4750 C   0  0  0  0  0  0  0  0  0  0  0  0
    3.5920    2.4790   19.6010 N   0  0  0  0  0  0  0  0  0  0  0  0
    6.3030    0.4980   17.6710 N   0  0  0  0  0  0  0  0  0  0  0  0
    5.1840    1.4090   17.8620 C   0  0  0  0  0  0  0  0  0  0  0  0
    4.7330    1.5900   19.1880 C   0  0  0  0  0  0  0  0  0  0  0  0
    5.3630    0.9100   20.2590 C   0  0  0  0  0  0  0  0  0  0  0  0
    6.4090    0.0630   19.9870 C   0  0  0  0  0  0  0  0  0  0  0  0
    6.8320   -0.1100   18.7360 C   0  0  0  0  0  0  0  0  0  0  0  0
   10.6310   -0.5930   24.5250 C   0  0  0  0  0  0  0  0  0  0  0  0
   12.0030   -0.4690   24.7290 C   0  0  0  0  0  0  0  0  0  0  0  0
   12.8790   -0.7090   23.7190 C   0  0  0  0  0  0  0  0  0  0  0  0
   12.3790   -1.0780   22.5140 C   0  0  0  0  0  0  0  0  0  0  0  0
   11.0220   -1.2120   22.3040 C   0  0  0  0  0  0  0  0  0  0  0  0
   10.0920   -0.9730   23.2960 C   0  0  0  0  0  0  0  0  0  0  0  0
  4  2  1  1
  1  5  1  0
  3  5  2  0
  4  5  1  0
  6  8  3  0
 10 11  2  0
  9 12  1  0
 11 12  1  0
  7 13  1  0
 12 13  2  0
  1 14  1  0
 13 14  1  0
 10 15  1  0
 14 15  2  0
 16 17  2  0
 17 18  1  0
  8 19  1  0
 18 19  2  0
 19 20  1  0
  4 21  1  0
 16 21  1  0
 20 21  2  0
M  END
