x2912-x1336
     RDKit          3D

 39 44  0  0  0  0  0  0  0  0999 V2000
    6.0780   -5.1900   28.9390 C   0  0  0  0  0  0  0  0  0  0  0  0
    8.2820   -1.1370   24.2150 N   0  0  0  0  0  0  0  0  0  0  0  0
    6.1320   -1.0370   25.5590 O   0  0  0  0  0  0  0  0  0  0  0  0
    5.8190   -4.5210   20.0020 O   0  0  0  0  0  0  0  0  0  0  0  0
    9.7050   -3.5110   24.7590 C   0  0  0  0  0  0  0  0  0  0  0  0
    6.8360   -3.7960   20.2490 C   0  0  0  0  0  0  0  0  0  0  0  0
    7.4770   -3.1580   19.0400 C   0  0  0  0  0  0  0  0  0  0  0  0
    6.9440   -1.9640   24.8050 S   0  0  2  0  0  0  0  0  0  0  0  0
    6.8650   -0.2710   21.8340 N   0  0  0  0  0  0  0  0  0  0  0  0
    8.8920    0.9660   22.0210 O   0  0  0  0  0  0  0  0  0  0  0  0
    8.7170   -1.1830   22.8630 C   0  0  2  0  0  0  0  0  0  0  0  0
    8.1730   -0.0220   22.2010 C   0  0  0  0  0  0  0  0  0  0  0  0
   14.1340   -1.3750   20.2530 N   0  0  0  0  0  0  0  0  0  0  0  0
    4.5840    1.5160   21.6910 C   0  0  0  0  0  0  0  0  0  0  0  0
   13.3750   -1.3630   21.2760 C   0  0  0  0  0  0  0  0  0  0  0  0
    7.0280   -4.7920   27.8780 C   0  0  0  0  0  0  0  0  0  0  0  0
    6.6470   -3.7980   27.0160 C   0  0  0  0  0  0  0  0  0  0  0  0
    7.5480   -3.3030   25.8830 C   0  0  0  0  0  0  0  0  0  0  0  0
    8.8200   -3.9520   25.7950 C   0  0  0  0  0  0  0  0  0  0  0  0
    9.1350   -4.9710   26.7200 C   0  0  0  0  0  0  0  0  0  0  0  0
    8.2700   -5.3790   27.7270 C   0  0  0  0  0  0  0  0  0  0  0  0
    7.4900   -3.5550   21.5320 N   0  0  0  0  0  0  0  0  0  0  0  0
    6.9250   -4.2770   22.6540 C   0  0  0  0  0  0  0  0  0  0  0  0
    5.7740   -3.5480   22.9750 C   0  0  0  0  0  0  0  0  0  0  0  0
    6.1240   -2.1610   23.2880 N   0  0  0  0  0  0  0  0  0  0  0  0
    6.8890   -1.5840   22.2960 C   0  0  2  0  0  0  0  0  0  0  0  0
    7.9580   -2.1550   21.7990 C   0  0  1  0  0  0  0  0  0  0  0  0
    6.4100    0.1720   18.1220 N   0  0  0  0  0  0  0  0  0  0  0  0
    5.3490    0.9990   18.1170 C   0  0  0  0  0  0  0  0  0  0  0  0
    4.7190    1.4600   19.2560 C   0  0  0  0  0  0  0  0  0  0  0  0
    5.1790    1.0710   20.5310 C   0  0  0  0  0  0  0  0  0  0  0  0
    6.2980    0.1920   20.5840 C   0  0  0  0  0  0  0  0  0  0  0  0
    6.8660   -0.2180   19.3520 C   0  0  0  0  0  0  0  0  0  0  0  0
   10.7060   -0.4830   24.3300 C   0  0  0  0  0  0  0  0  0  0  0  0
   12.0590   -0.3110   24.4920 C   0  0  0  0  0  0  0  0  0  0  0  0
   12.9150   -0.6120   23.4840 C   0  0  0  0  0  0  0  0  0  0  0  0
   12.4000   -1.0930   22.3240 C   0  0  0  0  0  0  0  0  0  0  0  0
   11.0860   -1.3070   22.0790 C   0  0  0  0  0  0  0  0  0  0  0  0
   10.1870   -1.0130   23.0410 C   0  0  0  0  0  0  0  0  0  0  0  0
  4  6  2  0
  6  7  1  0
  2  8  2  0
  3  8  2  0
  2 11  1  0
  9 12  1  0
 10 12  2  0
 11 12  1  0
 13 15  3  0
  1 16  1  0
 16 17  2  0
  8 18  1  1
 17 18  1  0
  5 19  1  0
 18 19  2  0
 19 20  1  0
 16 21  1  0
 20 21  2  0
  6 22  1  0
 22 23  1  0
 23 24  1  0
  8 25  1  0
 24 25  1  0
 26  9  1  1
 25 26  1  0
 11 27  1  0
 27 22  1  1
 26 27  1  0
 28 29  2  0
 29 30  1  0
 14 31  1  0
 30 31  2  0
  9 32  1  0
 31 32  1  0
 28 33  1  0
 32 33  2  0
 34 35  2  0
 35 36  1  0
 15 37  1  0
 36 37  2  0
 37 38  1  0
 11 39  1  1
 34 39  1  0
 38 39  2  0
M  END
