x2912-x0770
     RDKit          3D

 30 33  0  0  0  0  0  0  0  0999 V2000
    8.0640   -1.6280   24.3060 C   0  0  0  0  0  0  0  0  0  0  0  0
    6.9590    0.8530   22.0960 O   0  0  0  0  0  0  0  0  0  0  0  0
    8.5390   -0.8340   23.1920 C   0  0  1  0  0  0  0  0  0  0  0  0
    7.5100   -0.3760   22.2020 C   0  0  0  0  0  0  0  0  0  0  0  0
   13.7070   -2.3880   20.6590 N   0  0  0  0  0  0  0  0  0  0  0  0
   13.0310   -1.5840   21.5740 C   0  0  0  0  0  0  0  0  0  0  0  0
    7.2540   -2.9430   18.7840 C   0  0  0  0  0  0  0  0  0  0  0  0
    5.4760   -4.1540   19.8060 O   0  0  0  0  0  0  0  0  0  0  0  0
    6.2360   -3.1690   19.9370 C   0  0  0  0  0  0  0  0  0  0  0  0
    9.2430   -3.6100   23.9820 C   0  0  0  0  0  0  0  0  0  0  0  0
   10.4380    0.7480   23.9200 C   0  0  0  0  0  0  0  0  0  0  0  0
   11.7900    1.0660   23.8370 C   0  0  0  0  0  0  0  0  0  0  0  0
   12.6410    0.2910   23.0690 C   0  0  0  0  0  0  0  0  0  0  0  0
   12.0960   -0.7750   22.4070 C   0  0  0  0  0  0  0  0  0  0  0  0
   10.7840   -1.0780   22.4850 C   0  0  0  0  0  0  0  0  0  0  0  0
    9.9330   -0.3370   23.2330 C   0  0  0  0  0  0  0  0  0  0  0  0
    6.1910   -2.2790   21.0880 N   0  0  0  0  0  0  0  0  0  0  0  0
    7.3600   -1.6110   21.3390 C   0  0  2  0  0  0  0  0  0  0  0  0
    8.4650   -2.5680   21.9130 C   0  0  0  0  0  0  0  0  0  0  0  0
    8.0460   -2.8620   23.4220 C   0  0  2  0  0  0  0  0  0  0  0  0
    6.7140   -3.5980   23.3530 C   0  0  0  0  0  0  0  0  0  0  0  0
    5.7390   -3.0120   22.3020 C   0  0  0  0  0  0  0  0  0  0  0  0
    4.8930    1.4380   21.4710 C   0  0  0  0  0  0  0  0  0  0  0  0
    6.1900    0.1070   18.0000 N   0  0  0  0  0  0  0  0  0  0  0  0
    5.1280    0.8880   18.0290 C   0  0  0  0  0  0  0  0  0  0  0  0
    4.6360    1.3710   19.1430 C   0  0  0  0  0  0  0  0  0  0  0  0
    5.3290    0.9880   20.2160 C   0  0  0  0  0  0  0  0  0  0  0  0
    6.4560    0.1720   20.1480 C   0  0  0  0  0  0  0  0  0  0  0  0
    7.1450   -0.4560   19.0150 C   0  0  0  0  0  0  0  0  0  0  0  0
    7.8340   -0.7930   20.2100 C   0  0  0  0  0  0  0  0  0  0  0  0
  1  3  1  0
  2  4  2  0
  3  4  1  0
  5  6  3  0
  7  9  1  0
  8  9  2  0
 11 12  2  0
 12 13  1  0
  6 14  1  0
 13 14  2  0
 14 15  1  0
  3 16  1  1
 11 16  1  0
 15 16  2  0
  9 17  1  0
  4 18  1  0
 17 18  1  0
 18 19  1  0
  1 20  1  0
 20 10  1  1
 19 20  1  0
 20 21  1  0
 17 22  1  0
 21 22  1  0
 24 25  2  0
 25 26  1  0
 23 27  1  0
 26 27  2  0
 27 28  1  0
 24 29  1  0
 28 29  2  0
 18 30  1  6
 29 30  1  0
M  END
