x2912-x1380
     RDKit          3D

 39 43  0  0  0  0  0  0  0  0999 V2000
    7.2250   -0.3240   21.2990 N   0  0  0  0  0  0  0  0  0  0  0  0
    8.0440   -0.8790   24.0970 C   0  0  0  0  0  0  0  0  0  0  0  0
    8.9440    1.1370   21.3310 O   0  0  0  0  0  0  0  0  0  0  0  0
    8.7530   -0.9980   22.7710 C   0  0  1  0  0  0  0  0  0  0  0  0
    8.2500    0.0100   21.7130 C   0  0  0  0  0  0  0  0  0  0  0  0
   13.6500   -3.1960   20.5950 N   0  0  0  0  0  0  0  0  0  0  0  0
    4.9940    1.2630   21.7800 C   0  0  0  0  0  0  0  0  0  0  0  0
   13.1190   -2.1740   21.3360 C   0  0  0  0  0  0  0  0  0  0  0  0
    7.0340   -3.3240   19.4130 C   0  0  0  0  0  0  0  0  0  0  0  0
    5.3100   -4.8470   19.9840 O   0  0  0  0  0  0  0  0  0  0  0  0
    6.2870   -4.2240   20.3800 C   0  0  0  0  0  0  0  0  0  0  0  0
    4.6360   -3.5660   25.5610 O   0  0  0  0  0  0  0  0  0  0  0  0
    5.9520   -3.2170   25.4360 C   0  0  2  0  0  0  0  0  0  0  0  0
    7.1560   -2.0140   24.4930 C   0  0  1  0  0  0  0  0  0  0  0  0
    5.9210   -1.6760   25.0700 C   0  0  0  0  0  0  0  0  0  0  0  0
    6.2390    0.5480   17.6670 N   0  0  0  0  0  0  0  0  0  0  0  0
    5.1570    1.3300   17.9860 C   0  0  0  0  0  0  0  0  0  0  0  0
    4.7500    1.5610   19.2850 C   0  0  0  0  0  0  0  0  0  0  0  0
    5.4230    1.0180   20.3680 C   0  0  0  0  0  0  0  0  0  0  0  0
    6.5380    0.2180   20.1450 C   0  0  0  0  0  0  0  0  0  0  0  0
    6.9080    0.0090   18.6820 C   0  0  0  0  0  0  0  0  0  0  0  0
   10.6530    0.5750   23.6780 C   0  0  0  0  0  0  0  0  0  0  0  0
   12.1470    0.8260   23.6620 C   0  0  0  0  0  0  0  0  0  0  0  0
   12.9800   -0.1510   22.8350 C   0  0  0  0  0  0  0  0  0  0  0  0
   12.3620   -1.1940   22.1520 C   0  0  0  0  0  0  0  0  0  0  0  0
   11.0080   -1.3370   22.2250 C   0  0  0  0  0  0  0  0  0  0  0  0
   10.2010   -0.5120   22.9370 C   0  0  0  0  0  0  0  0  0  0  0  0
    6.7670   -4.3700   21.6780 N   0  0  0  0  0  0  0  0  0  0  0  0
    6.3800   -5.3510   22.5420 C   0  0  0  0  0  0  0  0  0  0  0  0
    5.5380   -4.7850   23.5040 C   0  0  0  0  0  0  0  0  0  0  0  0
    6.4370   -3.8950   24.1630 C   0  0  1  0  0  0  0  0  0  0  0  0
    6.6520   -2.8600   23.3350 C   0  0  2  0  0  0  0  0  0  0  0  0
    7.4690   -3.2470   22.3060 C   0  0  0  0  0  0  0  0  0  0  0  0
    7.8740   -4.1660   26.8310 C   0  0  0  0  0  0  0  0  0  0  0  0
    7.6740   -5.4170   27.4000 C   0  0  0  0  0  0  0  0  0  0  0  0
    6.9750   -5.3780   28.7600 C   0  0  0  0  0  0  0  0  0  0  0  0
    5.7490   -4.8490   28.4330 C   0  0  0  0  0  0  0  0  0  0  0  0
    5.7340   -3.5490   27.9360 C   0  0  0  0  0  0  0  0  0  0  0  0
    6.5860   -3.4890   26.7260 N   0  0  0  0  0  0  0  0  0  0  0  0
  4  2  1  1
  1  5  1  0
  3  5  2  0
  4  5  1  0
  6  8  3  0
  9 11  1  0
 10 11  2  0
 13 12  1  1
 14  2  1  6
 13 15  1  0
 14 15  1  0
 16 17  2  0
 17 18  1  0
  7 19  1  0
 18 19  2  0
  1 20  1  0
 19 20  1  0
 16 21  1  0
 20 21  2  0
 22 23  2  0
 23 24  1  0
  8 25  1  0
 24 25  2  0
 25 26  1  0
  4 27  1  0
 22 27  1  0
 26 27  2  0
 11 28  1  0
 28 29  1  0
 29 30  1  0
 13 31  1  0
 31 30  1  6
 14 32  1  0
 31 32  1  0
 28 33  1  0
 32 33  1  6
 34 35  1  0
 35 36  1  0
 36 37  1  0
 37 38  1  0
 13 39  1  0
 34 39  1  0
 38 39  1  0
M  END
