x2910-x1425
     RDKit          3D

 41 45  0  0  0  0  0  0  0  0999 V2000
    7.0770   -1.7840   21.5760 N   0  0  0  0  0  0  0  0  0  0  0  0
    9.9680    2.2790   23.8550 C   0  0  0  0  0  0  0  0  0  0  0  0
    9.7340    1.1000   23.5620 O   0  0  0  0  0  0  0  0  0  0  0  0
    9.3200   -1.4410   22.7070 O   0  0  0  0  0  0  0  0  0  0  0  0
    5.0650   -2.6780   20.8660 O   0  0  0  0  0  0  0  0  0  0  0  0
    6.4120    1.3780   16.7500 O   0  0  0  0  0  0  0  0  0  0  0  0
    9.0640   -2.6290   22.3560 C   0  0  0  0  0  0  0  0  0  0  0  0
    5.8530   -1.7530   20.8560 C   0  0  0  0  0  0  0  0  0  0  0  0
    1.3460   -2.3610   28.3390 C   0  0  0  0  0  0  0  0  0  0  0  0
    2.7650   -2.3180   28.4400 O   0  0  0  0  0  0  0  0  0  0  0  0
    5.4780   -4.6550   19.9700 O   0  0  0  0  0  0  0  0  0  0  0  0
    6.5070   -4.0300   20.2710 C   0  0  0  0  0  0  0  0  0  0  0  0
    7.3090   -3.2670   19.2430 C   0  0  0  0  0  0  0  0  0  0  0  0
   10.8000    0.3740   23.1180 C   0  0  0  0  0  0  0  0  0  0  0  0
   10.6120   -0.9580   22.6630 C   0  0  0  0  0  0  0  0  0  0  0  0
   11.7050   -1.7070   22.2040 C   0  0  0  0  0  0  0  0  0  0  0  0
   13.0000   -1.2100   22.1620 C   0  0  0  0  0  0  0  0  0  0  0  0
   13.3630    0.0710   22.5650 C   0  0  0  0  0  0  0  0  0  0  0  0
   12.2090    0.9170   23.0740 C   0  0  0  0  0  0  0  0  0  0  0  0
    4.7500    1.9000   18.3940 N   0  0  0  0  0  0  0  0  0  0  0  0
    4.0610    1.6180   19.6260 C   0  0  0  0  0  0  0  0  0  0  0  0
    4.4040    0.4150   20.4800 C   0  0  0  0  0  0  0  0  0  0  0  0
    5.4890   -0.5470   20.0510 C   0  0  0  0  0  0  0  0  0  0  0  0
    6.2210   -0.2550   18.7490 C   0  0  0  0  0  0  0  0  0  0  0  0
    5.8040    1.0090   17.9490 C   0  0  0  0  0  0  0  0  0  0  0  0
    2.9900    2.5580   20.0410 C   0  0  0  0  0  0  0  0  0  0  0  0
    2.2710    2.3770   21.2190 C   0  0  0  0  0  0  0  0  0  0  0  0
    2.5420    1.1920   22.1680 C   0  0  0  0  0  0  0  0  0  0  0  0
    3.6360    0.2200   21.7520 C   0  0  0  0  0  0  0  0  0  0  0  0
    3.4980   -2.7160   27.2700 C   0  0  0  0  0  0  0  0  0  0  0  0
    4.7550   -1.9010   26.9630 C   0  0  0  0  0  0  0  0  0  0  0  0
    5.4890   -2.2710   25.8150 C   0  0  0  0  0  0  0  0  0  0  0  0
    5.1130   -3.3320   24.9730 C   0  0  0  0  0  0  0  0  0  0  0  0
    3.9670   -4.0380   25.3060 C   0  0  0  0  0  0  0  0  0  0  0  0
    3.1770   -3.7600   26.4020 C   0  0  0  0  0  0  0  0  0  0  0  0
    7.0840   -4.0390   21.5620 N   0  0  0  0  0  0  0  0  0  0  0  0
    7.4740   -2.9210   22.2920 C   0  0  2  0  0  0  0  0  0  0  0  0
    7.0960   -2.8540   23.6240 C   0  0  0  0  0  0  0  0  0  0  0  0
    5.8450   -3.6380   23.8870 N   0  0  0  0  0  0  0  0  0  0  0  0
    5.7690   -5.0210   23.3840 C   0  0  0  0  0  0  0  0  0  0  0  0
    6.7530   -5.1820   22.4030 C   0  0  0  0  0  0  0  0  0  0  0  0
  2  3  1  0
  4  7  1  0
  1  8  1  0
  5  8  2  0
  9 10  1  0
 11 12  2  0
 12 13  1  0
  3 14  1  0
  4 15  1  0
 14 15  2  0
 15 16  1  0
 16 17  2  0
 17 18  1  0
 14 19  1  0
 18 19  2  0
 20 21  2  0
 21 22  1  0
  8 23  1  0
 22 23  2  0
 23 24  1  0
  6 25  1  0
 20 25  1  0
 24 25  2  0
 21 26  1  0
 26 27  2  0
 27 28  1  0
 22 29  1  0
 28 29  2  0
 10 30  1  0
 30 31  2  0
 31 32  1  0
 32 33  2  0
 33 34  1  0
 30 35  1  0
 34 35  2  0
 12 36  1  0
 37  1  1  0
 37  7  1  1
 36 37  1  0
 37 38  1  0
 33 39  1  0
 38 39  1  0
 39 40  1  0
 36 41  1  0
 40 41  1  0
M  END
