x2910-x2572
     RDKit          3D

 30 33  0  0  0  0  0  0  0  0999 V2000
    7.5020   -1.5470   21.6680 N   0  0  0  0  0  0  0  0  0  0  0  0
   10.1870    2.9400   23.6440 C   0  0  0  0  0  0  0  0  0  0  0  0
   10.1200    1.5330   23.8580 O   0  0  0  0  0  0  0  0  0  0  0  0
    9.5010   -0.9960   22.7360 N   0  0  0  0  0  0  0  0  0  0  0  0
    5.3720   -2.8110   20.9520 O   0  0  0  0  0  0  0  0  0  0  0  0
    6.3720    1.2820   16.8450 O   0  0  0  0  0  0  0  0  0  0  0  0
    9.2420   -2.4250   22.8990 C   0  0  0  0  0  0  0  0  0  0  0  0
    7.8470   -2.6640   22.5020 C   0  0  0  0  0  0  0  0  0  0  0  0
    6.1880   -1.6460   20.9180 C   0  0  0  0  0  0  0  0  0  0  0  0
    3.7200    1.1940   20.7840 C   0  0  0  0  0  0  0  0  0  0  0  0
    8.5590    0.8240   21.1930 O   0  0  0  0  0  0  0  0  0  0  0  0
    8.4710   -0.4870   21.7850 C   0  0  0  0  0  0  0  0  0  0  0  0
   13.5960   -2.8930   20.7330 N   0  0  0  0  0  0  0  0  0  0  0  0
   12.6820   -2.2580   21.4410 C   0  0  0  0  0  0  0  0  0  0  0  0
   11.1320    0.8210   23.3060 C   0  0  0  0  0  0  0  0  0  0  0  0
   10.7670   -0.5180   22.7150 C   0  0  0  0  0  0  0  0  0  0  0  0
   11.5020   -1.5370   22.0530 C   0  0  0  0  0  0  0  0  0  0  0  0
   12.7820   -0.8670   22.1410 C   0  0  0  0  0  0  0  0  0  0  0  0
   13.2610    0.3530   22.6540 C   0  0  0  0  0  0  0  0  0  0  0  0
   12.4380    1.2380   23.2510 C   0  0  0  0  0  0  0  0  0  0  0  0
    4.7350    1.7470   18.5920 N   0  0  0  0  0  0  0  0  0  0  0  0
    4.1570    1.4510   19.8040 C   0  0  0  0  0  0  0  0  0  0  0  0
    4.6530    0.3140   20.5880 C   0  0  0  0  0  0  0  0  0  0  0  0
    5.7060   -0.4640   20.0930 C   0  0  0  0  0  0  0  0  0  0  0  0
    6.3100   -0.1050   18.7510 C   0  0  0  0  0  0  0  0  0  0  0  0
    5.8230    0.9740   18.0400 C   0  0  0  0  0  0  0  0  0  0  0  0
    3.0880    2.3370   20.1610 C   0  0  0  0  0  0  0  0  0  0  0  0
    2.4070    2.1680   21.3500 C   0  0  0  0  0  0  0  0  0  0  0  0
    2.8990    1.1200   22.0330 C   0  0  0  0  0  0  0  0  0  0  0  0
    3.9410    0.0500   21.9600 C   0  0  0  0  0  0  0  0  0  0  0  0
  2  3  1  0
  4  7  1  0
  1  8  1  0
  7  8  1  0
  1  9  1  0
  5  9  2  0
  1 12  1  0
  4 12  1  0
 11 12  2  0
 13 14  3  0
  3 15  1  0
  4 16  1  0
 15 16  2  0
 14 17  1  0
 16 17  1  0
 17 18  2  0
 18 19  1  0
 15 20  1  0
 19 20  2  0
 21 22  2  0
 22 23  1  0
  9 24  1  0
 23 24  2  0
 24 25  1  0
  6 26  1  0
 21 26  1  0
 25 26  2  0
 22 27  1  0
 27 28  2  0
 10 29  1  0
 28 29  1  0
 23 30  1  0
 29 30  2  0
M  END
