x2910-x0072
     RDKit          3D

 31 33  0  0  0  0  0  0  0  0999 V2000
    6.7570   -1.5130   21.8610 N   0  0  0  0  0  0  0  0  0  0  0  0
    9.8880    2.1770   23.8940 C   0  0  0  0  0  0  0  0  0  0  0  0
    9.8130    0.9440   23.9250 O   0  0  0  0  0  0  0  0  0  0  0  0
    9.6200   -1.9180   23.3170 N   0  0  0  0  0  0  0  0  0  0  0  0
    5.2280   -3.0610   20.6570 O   0  0  0  0  0  0  0  0  0  0  0  0
    6.3010    1.3930   16.7500 O   0  0  0  0  0  0  0  0  0  0  0  0
    9.0920   -2.1050   22.0770 C   0  0  0  0  0  0  0  0  0  0  0  0
    7.6410   -2.5350   22.3000 C   0  0  0  0  0  0  0  0  0  0  0  0
    5.8020   -1.7710   20.8170 C   0  0  0  0  0  0  0  0  0  0  0  0
    6.8300   -4.8960   26.1730 C   0  0  0  0  0  0  0  0  0  0  0  0
    8.5630   -4.4940   26.0060 S   0  0  0  0  0  0  0  0  0  0  0  0
    9.2830   -5.6540   25.5630 O   0  0  0  0  0  0  0  0  0  0  0  0
    9.0110   -4.0170   27.2760 O   0  0  0  0  0  0  0  0  0  0  0  0
    8.6490   -3.2240   24.8560 N   0  0  0  0  0  0  0  0  0  0  0  0
    9.6610   -2.9660   24.2880 C   0  0  0  0  0  0  0  0  0  0  0  0
   10.8980    0.2880   23.4310 C   0  0  0  0  0  0  0  0  0  0  0  0
   10.8420   -1.1010   23.1190 C   0  0  0  0  0  0  0  0  0  0  0  0
   11.9410   -1.7770   22.5990 C   0  0  0  0  0  0  0  0  0  0  0  0
   13.1510   -1.1860   22.3490 C   0  0  0  0  0  0  0  0  0  0  0  0
   13.3970    0.1490   22.5980 C   0  0  0  0  0  0  0  0  0  0  0  0
   12.2350    0.9480   23.1640 C   0  0  0  0  0  0  0  0  0  0  0  0
    4.7450    1.8660   18.3640 N   0  0  0  0  0  0  0  0  0  0  0  0
    4.1360    1.6110   19.4850 C   0  0  0  0  0  0  0  0  0  0  0  0
    4.4290    0.4050   20.3890 C   0  0  0  0  0  0  0  0  0  0  0  0
    5.4860   -0.6070   19.9990 C   0  0  0  0  0  0  0  0  0  0  0  0
    6.1490   -0.2510   18.6960 C   0  0  0  0  0  0  0  0  0  0  0  0
    5.7060    1.0180   17.9510 C   0  0  0  0  0  0  0  0  0  0  0  0
    3.0800    2.5790   19.8950 C   0  0  0  0  0  0  0  0  0  0  0  0
    2.3660    2.4110   21.0810 C   0  0  0  0  0  0  0  0  0  0  0  0
    2.5460    1.2690   22.0990 C   0  0  0  0  0  0  0  0  0  0  0  0
    3.6210    0.3000   21.6510 C   0  0  0  0  0  0  0  0  0  0  0  0
  2  3  1  0
  4  7  1  0
  1  8  1  0
  7  8  1  0
  1  9  1  0
  5  9  2  0
 10 11  1  0
 11 12  2  0
 11 13  2  0
 11 14  1  0
  4 15  1  0
 14 15  1  0
  3 16  1  0
  4 17  1  0
 16 17  2  0
 17 18  1  0
 18 19  2  0
 19 20  1  0
 16 21  1  0
 20 21  2  0
 22 23  2  0
 23 24  1  0
  9 25  1  0
 24 25  2  0
 25 26  1  0
  6 27  1  0
 22 27  1  0
 26 27  2  0
 23 28  1  0
 28 29  2  0
 29 30  1  0
 24 31  1  0
 30 31  2  0
M  END
