x2910-x0731
     RDKit          3D

 45 49  0  0  0  0  0  0  0  0999 V2000
    7.2080   -1.1330   21.5230 N   0  0  0  0  0  0  0  0  0  0  0  0
   10.1770    2.4880   23.7310 C   0  0  0  0  0  0  0  0  0  0  0  0
    9.9730    1.2710   23.6920 O   0  0  0  0  0  0  0  0  0  0  0  0
    9.4420   -1.1710   22.9850 O   0  0  0  0  0  0  0  0  0  0  0  0
    5.1860   -2.5210   20.8560 O   0  0  0  0  0  0  0  0  0  0  0  0
    6.3470    1.2970   16.6080 O   0  0  0  0  0  0  0  0  0  0  0  0
    9.1830   -2.2360   22.4050 C   0  0  0  0  0  0  0  0  0  0  0  0
    7.7510   -2.3680   21.8770 C   0  0  1  0  0  0  0  0  0  0  0  0
    5.9750   -1.3370   20.8280 C   0  0  0  0  0  0  0  0  0  0  0  0
    1.0240   -1.1240   25.9970 C   0  0  0  0  0  0  0  0  0  0  0  0
    6.6050   -4.6110   26.8770 O   0  0  0  0  0  0  0  0  0  0  0  0
    4.8770   -6.6260   26.5130 O   0  0  0  0  0  0  0  0  0  0  0  0
    5.6670   -5.2590   20.0370 O   0  0  0  0  0  0  0  0  0  0  0  0
    6.4580   -4.4390   20.5100 C   0  0  0  0  0  0  0  0  0  0  0  0
    7.1810   -3.4510   19.5540 C   0  0  0  0  0  0  0  0  0  0  0  0
    5.4460   -5.2380   25.9900 S   0  0  0  0  0  0  0  0  0  0  0  0
    6.8130   -3.1360   22.5960 C   0  0  0  0  0  0  0  0  0  0  0  0
   11.0240    0.5400   23.2130 C   0  0  0  0  0  0  0  0  0  0  0  0
   10.7390   -0.7760   22.8290 C   0  0  0  0  0  0  0  0  0  0  0  0
   11.6680   -1.6890   22.3130 C   0  0  0  0  0  0  0  0  0  0  0  0
   13.1030   -1.1740   22.1650 C   0  0  0  0  0  0  0  0  0  0  0  0
   13.4420    0.2430   22.5690 C   0  0  0  0  0  0  0  0  0  0  0  0
   12.2950    1.0690   23.1100 C   0  0  0  0  0  0  0  0  0  0  0  0
    4.8070    2.0760   18.2340 N   0  0  0  0  0  0  0  0  0  0  0  0
    4.1560    2.0260   19.5120 C   0  0  0  0  0  0  0  0  0  0  0  0
    4.5400    0.9020   20.4400 C   0  0  0  0  0  0  0  0  0  0  0  0
    5.5370   -0.1350   20.0050 C   0  0  0  0  0  0  0  0  0  0  0  0
    6.1380    0.0470   18.6460 C   0  0  0  0  0  0  0  0  0  0  0  0
    5.7860    1.0940   17.8500 C   0  0  0  0  0  0  0  0  0  0  0  0
    3.2130    2.9900   19.8730 C   0  0  0  0  0  0  0  0  0  0  0  0
    2.5020    3.0170   21.2170 C   0  0  0  0  0  0  0  0  0  0  0  0
    2.8800    1.9140   22.1980 C   0  0  0  0  0  0  0  0  0  0  0  0
    3.8990    0.8970   21.7420 C   0  0  0  0  0  0  0  0  0  0  0  0
    2.1250   -2.2010   25.9580 C   0  0  0  0  0  0  0  0  0  0  0  0
    1.8610   -3.4650   25.4030 C   0  0  0  0  0  0  0  0  0  0  0  0
    2.8620   -4.4370   25.3820 C   0  0  0  0  0  0  0  0  0  0  0  0
    4.1160   -4.1350   25.9160 C   0  0  0  0  0  0  0  0  0  0  0  0
    4.3990   -2.8770   26.4640 C   0  0  0  0  0  0  0  0  0  0  0  0
    3.3950   -1.9060   26.4830 C   0  0  0  0  0  0  0  0  0  0  0  0
    6.5860   -4.4500   22.0720 C   0  0  0  0  0  0  0  0  0  0  0  0
    7.4930   -5.3220   22.6320 C   0  0  0  0  0  0  0  0  0  0  0  0
    7.4160   -5.2500   24.0410 C   0  0  0  0  0  0  0  0  0  0  0  0
    6.0250   -5.4970   24.4290 N   0  0  0  0  0  0  0  0  0  0  0  0
    5.1880   -5.9890   23.3740 C   0  0  0  0  0  0  0  0  0  0  0  0
    5.1870   -5.0010   22.4410 C   0  0  0  0  0  0  0  0  0  0  0  0
  2  3  1  0
  4  7  1  0
  1  8  1  0
  8  7  1  1
  1  9  1  0
  5  9  2  0
 13 14  2  0
 14 15  1  0
 11 16  2  0
 12 16  2  0
  8 17  1  0
  3 18  1  0
  4 19  1  0
 18 19  2  0
 19 20  1  0
 20 21  2  0
 21 22  1  0
 18 23  1  0
 22 23  2  0
 24 25  2  0
 25 26  1  0
  9 27  1  0
 26 27  2  0
 27 28  1  0
  6 29  1  0
 24 29  1  0
 28 29  2  0
 25 30  1  0
 30 31  2  0
 31 32  1  0
 26 33  1  0
 32 33  2  0
 10 34  1  0
 34 35  2  0
 35 36  1  0
 16 37  1  0
 36 37  2  0
 37 38  1  0
 34 39  1  0
 38 39  2  0
 40 14  1  0
 17 40  1  0
 40 41  1  0
 41 42  1  0
 16 43  1  0
 42 43  1  0
 43 44  1  0
 40 45  1  0
 44 45  1  0
M  END
