x2910-x0387
     RDKit          3D

 33 36  0  0  0  0  0  0  0  0999 V2000
    7.0480   -1.2670   21.7920 N   0  0  0  0  0  0  0  0  0  0  0  0
   10.3580    2.7810   23.5510 C   0  0  0  0  0  0  0  0  0  0  0  0
   10.2320    1.3650   23.6850 O   0  0  0  0  0  0  0  0  0  0  0  0
    9.5830   -0.9290   23.0290 O   0  0  0  0  0  0  0  0  0  0  0  0
    5.2150   -2.5260   20.8910 O   0  0  0  0  0  0  0  0  0  0  0  0
    6.4420    1.2530   16.9630 O   0  0  0  0  0  0  0  0  0  0  0  0
    9.3560   -1.9310   22.3750 C   0  0  2  0  0  0  0  0  0  0  0  0
    8.1530   -2.1330   21.5710 C   0  0  0  0  0  0  0  0  0  0  0  0
    5.8650   -1.4910   20.9000 C   0  0  0  0  0  0  0  0  0  0  0  0
   11.1600    0.6850   23.2520 C   0  0  0  0  0  0  0  0  0  0  0  0
   10.7490   -0.5920   22.9000 C   0  0  0  0  0  0  0  0  0  0  0  0
   11.7070   -1.4970   22.3840 C   0  0  0  0  0  0  0  0  0  0  0  0
   13.0400   -1.1250   22.2270 C   0  0  0  0  0  0  0  0  0  0  0  0
   13.3880    0.3000   22.6380 C   0  0  0  0  0  0  0  0  0  0  0  0
   12.4470    1.1730   23.1420 C   0  0  0  0  0  0  0  0  0  0  0  0
    4.8170    1.7970   18.4130 N   0  0  0  0  0  0  0  0  0  0  0  0
    4.1570    1.5650   19.5370 C   0  0  0  0  0  0  0  0  0  0  0  0
    4.4860    0.4870   20.3830 C   0  0  0  0  0  0  0  0  0  0  0  0
    5.5330   -0.3480   19.9930 C   0  0  0  0  0  0  0  0  0  0  0  0
    6.2700   -0.1570   18.8080 C   0  0  0  0  0  0  0  0  0  0  0  0
    5.9060    0.9380   18.0070 C   0  0  0  0  0  0  0  0  0  0  0  0
    3.0090    2.4790   19.9470 C   0  0  0  0  0  0  0  0  0  0  0  0
    2.2450    2.2360   21.2350 C   0  0  0  0  0  0  0  0  0  0  0  0
    2.6180    1.1670   22.0300 C   0  0  0  0  0  0  0  0  0  0  0  0
    3.7710    0.2670   21.5900 C   0  0  0  0  0  0  0  0  0  0  0  0
    8.8700   -4.3940   27.6220 O   0  0  0  0  0  0  0  0  0  0  0  0
    9.1400   -5.0760   26.4810 C   0  0  0  0  0  0  0  0  0  0  0  0
    8.1130   -4.8350   25.5940 C   0  0  0  0  0  0  0  0  0  0  0  0
    8.1760   -3.3310   25.2990 C   0  0  0  0  0  0  0  0  0  0  0  0
    9.4860   -2.9850   24.7120 N   0  0  0  0  0  0  0  0  0  0  0  0
   10.6670   -3.6360   25.2840 C   0  0  0  0  0  0  0  0  0  0  0  0
   10.4250   -4.7730   26.0610 C   0  0  0  0  0  0  0  0  0  0  0  0
    9.4980   -3.1690   23.2660 C   0  0  0  0  0  0  0  0  0  0  0  0
  2  3  1  0
  4  7  1  0
  1  8  1  0
  7  8  1  1
  1  9  1  0
  5  9  2  0
  3 10  1  0
  4 11  1  0
 10 11  2  0
 11 12  1  0
 12 13  2  0
 13 14  1  0
 10 15  1  0
 14 15  2  0
 16 17  2  0
 17 18  1  0
  9 19  1  0
 18 19  2  0
 19 20  1  0
  6 21  1  0
 16 21  1  0
 20 21  2  0
 17 22  1  0
 22 23  2  0
 23 24  1  0
 18 25  1  0
 24 25  2  0
 26 27  1  0
 27 28  1  0
 28 29  1  0
 29 30  1  0
 30 31  1  0
 27 32  1  0
 31 32  1  0
  7 33  1  0
 30 33  1  0
M  END
