x2912-x1311
     RDKit          3D

 40 43  0  0  0  0  0  0  0  0999 V2000
    7.1380   -0.3610   21.1750 N   0  0  0  0  0  0  0  0  0  0  0  0
    7.9750   -0.3670   24.1400 C   0  0  0  0  0  0  0  0  0  0  0  0
    8.7530    1.2340   21.2250 O   0  0  0  0  0  0  0  0  0  0  0  0
    8.6040   -0.7740   22.8170 C   0  0  1  0  0  0  0  0  0  0  0  0
    8.0980    0.0920   21.6390 C   0  0  0  0  0  0  0  0  0  0  0  0
   13.7190   -2.5380   20.6480 N   0  0  0  0  0  0  0  0  0  0  0  0
    4.6540    1.5950   21.6490 C   0  0  0  0  0  0  0  0  0  0  0  0
   13.1340   -1.6730   21.4820 C   0  0  0  0  0  0  0  0  0  0  0  0
    5.7180   -4.7510   20.0330 O   0  0  0  0  0  0  0  0  0  0  0  0
    6.5830   -4.6000   20.9280 C   0  0  0  0  0  0  0  0  0  0  0  0
    8.0880   -4.4100   20.6830 C   0  0  0  0  0  0  0  0  0  0  0  0
    6.2230   -4.5490   22.4150 C   0  0  2  0  0  0  0  0  0  0  0  0
    4.0870   -7.6520   25.1090 O   0  0  0  0  0  0  0  0  0  0  0  0
    2.1780   -5.9870   24.6570 O   0  0  0  0  0  0  0  0  0  0  0  0
    6.7990   -1.7580   21.2320 C   0  0  0  0  0  0  0  0  0  0  0  0
    6.6640   -2.3510   22.4660 C   0  0  0  0  0  0  0  0  0  0  0  0
    5.6440   -3.2770   22.5440 C   0  0  0  0  0  0  0  0  0  0  0  0
    6.2970    0.6270   17.6050 N   0  0  0  0  0  0  0  0  0  0  0  0
    5.1840    1.4970   17.9150 C   0  0  0  0  0  0  0  0  0  0  0  0
    4.7470    1.7350   19.1990 C   0  0  0  0  0  0  0  0  0  0  0  0
    5.2600    1.2210   20.3840 C   0  0  0  0  0  0  0  0  0  0  0  0
    6.4610    0.2810   20.1360 C   0  0  0  0  0  0  0  0  0  0  0  0
    6.8650    0.0770   18.6700 C   0  0  0  0  0  0  0  0  0  0  0  0
   10.4730    0.5840   23.7820 C   0  0  0  0  0  0  0  0  0  0  0  0
   11.9460    0.9010   23.8660 C   0  0  0  0  0  0  0  0  0  0  0  0
   12.8300    0.1670   23.1190 C   0  0  0  0  0  0  0  0  0  0  0  0
   12.3240   -0.8290   22.3270 C   0  0  0  0  0  0  0  0  0  0  0  0
   10.9800   -1.1060   22.2590 C   0  0  0  0  0  0  0  0  0  0  0  0
   10.0510   -0.4250   22.9590 C   0  0  0  0  0  0  0  0  0  0  0  0
    8.2920   -5.7920   23.0390 C   0  0  0  0  0  0  0  0  0  0  0  0
    9.3540   -5.9490   23.8870 C   0  0  0  0  0  0  0  0  0  0  0  0
    9.5830   -5.1140   24.9550 C   0  0  0  0  0  0  0  0  0  0  0  0
    8.7220   -4.0250   25.2360 C   0  0  0  0  0  0  0  0  0  0  0  0
    7.6790   -3.9030   24.3730 C   0  0  0  0  0  0  0  0  0  0  0  0
    7.4400   -4.7480   23.2970 C   0  0  0  0  0  0  0  0  0  0  0  0
    4.6510   -6.3750   22.1480 C   0  0  0  0  0  0  0  0  0  0  0  0
    5.3690   -5.7130   23.0260 C   0  0  2  0  0  0  0  0  0  0  0  0
    4.5860   -5.2990   24.0810 C   0  0  0  0  0  0  0  0  0  0  0  0
    3.4700   -6.5610   24.3770 S   0  0  0  0  0  0  0  0  0  0  0  0
    3.4640   -6.9430   22.7430 C   0  0  0  0  0  0  0  0  0  0  0  0
  4  2  1  1
  1  5  1  0
  3  5  2  0
  4  5  1  0
  6  8  3  0
  9 10  2  0
 10 11  1  0
 12 10  1  0
  1 15  1  0
 15 16  1  0
 12 17  1  1
 16 17  1  0
 18 19  2  0
 19 20  1  0
  7 21  1  0
 20 21  2  0
  1 22  1  0
 21 22  1  0
 18 23  1  0
 22 23  2  0
 24 25  2  0
 25 26  1  0
  8 27  1  0
 26 27  2  0
 27 28  1  0
  4 29  1  0
 24 29  1  0
 28 29  2  0
 30 31  2  0
 31 32  1  0
 32 33  2  0
 33 34  1  0
 12 35  1  0
 30 35  1  0
 34 35  2  0
 12 37  1  0
 37 36  1  6
 37 38  1  0
 39 13  1  0
 14 39  1  0
 38 39  1  0
 36 40  2  0
 39 40  1  0
M  END
