x2910-x0691
     RDKit          3D

 45 49  0  0  0  0  0  0  0  0999 V2000
    7.2800   -1.5290   21.1510 N   0  0  0  0  0  0  0  0  0  0  0  0
   10.1710    2.5160   23.7610 C   0  0  0  0  0  0  0  0  0  0  0  0
   10.0700    1.2880   23.8040 O   0  0  0  0  0  0  0  0  0  0  0  0
    9.5500   -1.2420   23.1090 O   0  0  0  0  0  0  0  0  0  0  0  0
    5.0410   -2.6910   20.8700 O   0  0  0  0  0  0  0  0  0  0  0  0
    6.3280    1.3770   16.5480 O   0  0  0  0  0  0  0  0  0  0  0  0
    9.0780   -2.2080   22.5020 C   0  0  0  0  0  0  0  0  0  0  0  0
    7.5530   -2.0280   22.4310 C   0  0  2  0  0  0  0  0  0  0  0  0
    5.9460   -1.6190   20.6580 C   0  0  0  0  0  0  0  0  0  0  0  0
    4.1010   -6.9650   26.1400 O   0  0  0  0  0  0  0  0  0  0  0  0
    5.9020   -5.2060   27.0560 O   0  0  0  0  0  0  0  0  0  0  0  0
    5.8210   -4.5590   19.9100 O   0  0  0  0  0  0  0  0  0  0  0  0
    6.7330   -4.2520   20.6790 C   0  0  0  0  0  0  0  0  0  0  0  0
    8.0940   -3.6700   20.2840 C   0  0  0  0  0  0  0  0  0  0  0  0
    3.2190   -0.6770   26.2500 F   0  0  0  0  0  0  0  0  0  0  0  0
    4.8240   -5.5600   25.9460 S   0  0  0  0  0  0  0  0  0  0  0  0
    6.5800   -3.1030   22.8600 C   0  0  0  0  0  0  0  0  0  0  0  0
   11.1050    0.5710   23.2840 C   0  0  0  0  0  0  0  0  0  0  0  0
   10.8450   -0.7530   22.9070 C   0  0  0  0  0  0  0  0  0  0  0  0
   11.7630   -1.6490   22.3490 C   0  0  0  0  0  0  0  0  0  0  0  0
   13.0850   -1.2780   22.1130 C   0  0  0  0  0  0  0  0  0  0  0  0
   13.4050    0.1790   22.5270 C   0  0  0  0  0  0  0  0  0  0  0  0
   12.3610    1.0500   23.1070 C   0  0  0  0  0  0  0  0  0  0  0  0
    4.8820    1.9920   18.2510 N   0  0  0  0  0  0  0  0  0  0  0  0
    4.3550    1.8040   19.4420 C   0  0  0  0  0  0  0  0  0  0  0  0
    4.6560    0.6400   20.3540 C   0  0  0  0  0  0  0  0  0  0  0  0
    5.6140   -0.4120   19.8420 C   0  0  0  0  0  0  0  0  0  0  0  0
    6.2360   -0.1970   18.4830 C   0  0  0  0  0  0  0  0  0  0  0  0
    5.8310    1.0600   17.7260 C   0  0  0  0  0  0  0  0  0  0  0  0
    3.4640    2.8050   19.8210 C   0  0  0  0  0  0  0  0  0  0  0  0
    2.7510    2.8160   21.1680 C   0  0  0  0  0  0  0  0  0  0  0  0
    3.0830    1.6570   22.0810 C   0  0  0  0  0  0  0  0  0  0  0  0
    4.0610    0.5830   21.5960 C   0  0  0  0  0  0  0  0  0  0  0  0
    2.8860   -1.9590   26.0550 C   0  0  0  0  0  0  0  0  0  0  0  0
    3.8980   -2.9370   26.0920 C   0  0  0  0  0  0  0  0  0  0  0  0
    3.5630   -4.2750   25.8920 C   0  0  0  0  0  0  0  0  0  0  0  0
    2.2270   -4.5770   25.6590 C   0  0  0  0  0  0  0  0  0  0  0  0
    1.1960   -3.6440   25.6120 C   0  0  0  0  0  0  0  0  0  0  0  0
    1.5360   -2.3000   25.8180 C   0  0  0  0  0  0  0  0  0  0  0  0
    6.3710   -4.4360   22.1450 C   0  0  0  0  0  0  0  0  0  0  0  0
    5.0550   -5.0430   22.2910 C   0  0  0  0  0  0  0  0  0  0  0  0
    4.8370   -5.9880   23.2700 C   0  0  0  0  0  0  0  0  0  0  0  0
    5.5840   -5.5640   24.4370 N   0  0  0  0  0  0  0  0  0  0  0  0
    7.0380   -5.2910   24.2700 C   0  0  0  0  0  0  0  0  0  0  0  0
    7.3730   -5.3590   22.8970 C   0  0  0  0  0  0  0  0  0  0  0  0
  2  3  1  0
  4  7  1  0
  1  8  1  0
  8  7  1  6
  1  9  1  0
  5  9  2  0
 12 13  2  0
 13 14  1  0
 10 16  2  0
 11 16  2  0
  8 17  1  0
  3 18  1  0
  4 19  1  0
 18 19  2  0
 19 20  1  0
 20 21  2  0
 21 22  1  0
 18 23  1  0
 22 23  2  0
 24 25  2  0
 25 26  1  0
  9 27  1  0
 26 27  2  0
 27 28  1  0
  6 29  1  0
 24 29  1  0
 28 29  2  0
 25 30  1  0
 30 31  2  0
 31 32  1  0
 26 33  1  0
 32 33  2  0
 15 34  1  0
 34 35  2  0
 16 36  1  0
 35 36  1  0
 36 37  2  0
 37 38  1  0
 34 39  1  0
 38 39  2  0
 40 13  1  0
 17 40  1  0
 40 41  1  0
 41 42  1  0
 16 43  1  0
 42 43  1  0
 43 44  1  0
 40 45  1  0
 44 45  1  0
M  END
