x2910-x3077
     RDKit          3D

 35 40  0  0  0  0  0  0  0  0999 V2000
    7.6970   -1.4800   20.9480 N   0  0  0  0  0  0  0  0  0  0  0  0
   10.0560    2.4630   23.8730 C   0  0  0  0  0  0  0  0  0  0  0  0
   10.2090    1.0660   24.1290 O   0  0  0  0  0  0  0  0  0  0  0  0
    9.7110   -1.3880   23.3580 O   0  0  0  0  0  0  0  0  0  0  0  0
    5.4580   -2.5090   21.0590 N   0  0  0  0  0  0  0  0  0  0  0  0
    6.3330    1.3390   16.7480 O   0  0  0  0  0  0  0  0  0  0  0  0
    8.7090   -0.8640   22.8960 C   0  0  0  0  0  0  0  0  0  0  0  0
    6.2910   -1.4810   20.6300 C   0  0  0  0  0  0  0  0  0  0  0  0
   13.0900   -2.3210   21.4870 Cl  0  0  0  0  0  0  0  0  0  0  0  0
    6.9170   -3.1990   19.3080 C   0  0  0  0  0  0  0  0  0  0  0  0
    5.5840   -5.0360   20.0450 O   0  0  0  0  0  0  0  0  0  0  0  0
    6.1270   -3.9820   20.3900 C   0  0  0  0  0  0  0  0  0  0  0  0
   11.1270    0.5180   23.5340 C   0  0  0  0  0  0  0  0  0  0  0  0
   10.9190   -0.7800   23.0790 C   0  0  0  0  0  0  0  0  0  0  0  0
   11.7830   -1.6380   22.3420 C   0  0  0  0  0  0  0  0  0  0  0  0
   13.0490   -0.7460   22.2190 C   0  0  0  0  0  0  0  0  0  0  0  0
   13.3310    0.5350   22.6610 C   0  0  0  0  0  0  0  0  0  0  0  0
   12.3850    1.2240   23.3230 C   0  0  0  0  0  0  0  0  0  0  0  0
    4.6800    1.8250   18.3730 N   0  0  0  0  0  0  0  0  0  0  0  0
    4.1240    1.4900   19.5880 C   0  0  0  0  0  0  0  0  0  0  0  0
    4.6150    0.4200   20.3640 C   0  0  0  0  0  0  0  0  0  0  0  0
    5.6980   -0.3250   19.8660 C   0  0  0  0  0  0  0  0  0  0  0  0
    6.2870   -0.0440   18.6660 C   0  0  0  0  0  0  0  0  0  0  0  0
    5.8050    1.0120   17.9130 C   0  0  0  0  0  0  0  0  0  0  0  0
    3.0480    2.2870   19.9930 C   0  0  0  0  0  0  0  0  0  0  0  0
    2.3990    2.0680   21.1940 C   0  0  0  0  0  0  0  0  0  0  0  0
    2.9110    0.9240   22.0560 C   0  0  0  0  0  0  0  0  0  0  0  0
    3.9860    0.1550   21.6090 C   0  0  0  0  0  0  0  0  0  0  0  0
    5.9730   -3.5590   21.8580 C   0  0  2  0  0  0  0  0  0  0  0  0
    7.0580   -4.6420   22.1880 C   0  0  0  0  0  0  0  0  0  0  0  0
    7.8500   -4.0730   23.1600 C   0  0  2  0  0  0  0  0  0  0  0  0
    7.0520   -3.1810   23.8760 C   0  0  0  0  0  0  0  0  0  0  0  0
    6.6860   -2.5000   22.7690 C   0  0  1  0  0  0  0  0  0  0  0  0
    8.8000   -3.1470   22.4300 N   0  0  0  0  0  0  0  0  0  0  0  0
    7.9560   -2.0080   22.2150 C   0  0  1  0  0  0  0  0  0  0  0  0
  2  3  1  0
  4  7  1  0
  1  8  1  0
  5  8  2  0
 10 12  1  0
 11 12  2  0
  3 13  1  0
  4 14  1  0
 13 14  2  0
  9 15  1  0
 14 15  1  0
 15 16  2  0
 16 17  1  0
 13 18  1  0
 17 18  2  0
 19 20  2  0
 20 21  1  0
  8 22  1  0
 21 22  2  0
 22 23  1  0
  6 24  1  0
 19 24  1  0
 23 24  2  0
 20 25  1  0
 25 26  2  0
 26 27  1  0
 21 28  1  0
 27 28  2  0
  5 29  1  0
 29 12  1  1
 29 30  1  0
 31 30  1  6
 31 32  1  0
 29 33  1  0
 33 32  1  1
 31 34  1  0
  1 35  1  0
 35  7  1  1
 33 35  1  0
 34 35  1  0
M  END
