x2912-x1375
     RDKit          3D

 40 43  0  0  0  0  0  0  0  0999 V2000
    6.8890   -0.9260   21.2060 N   0  0  0  0  0  0  0  0  0  0  0  0
    7.9240   -0.5600   24.3410 C   0  0  0  0  0  0  0  0  0  0  0  0
    8.6780    0.8900   21.3530 O   0  0  0  0  0  0  0  0  0  0  0  0
    8.6240   -0.9700   23.0350 C   0  0  1  0  0  0  0  0  0  0  0  0
    8.0420   -0.3000   21.8040 C   0  0  0  0  0  0  0  0  0  0  0  0
   13.7890   -2.3060   20.5930 N   0  0  0  0  0  0  0  0  0  0  0  0
    4.9830    1.0010   21.8280 C   0  0  0  0  0  0  0  0  0  0  0  0
   13.1360   -1.5760   21.5940 C   0  0  0  0  0  0  0  0  0  0  0  0
    5.8220   -4.6650   20.0060 O   0  0  0  0  0  0  0  0  0  0  0  0
    6.6170   -4.1940   20.8670 C   0  0  0  0  0  0  0  0  0  0  0  0
    8.0910   -3.7930   20.5850 C   0  0  0  0  0  0  0  0  0  0  0  0
    6.1550   -3.9220   22.3710 C   0  0  2  0  0  0  0  0  0  0  0  0
    2.9460   -7.1940   23.0590 O   0  0  0  0  0  0  0  0  0  0  0  0
    4.5170   -7.6230   24.9120 O   0  0  0  0  0  0  0  0  0  0  0  0
   10.5560   -4.7800   25.9210 F   0  0  0  0  0  0  0  0  0  0  0  0
    6.4560   -2.3690   21.4340 C   0  0  0  0  0  0  0  0  0  0  0  0
    5.6710   -2.4990   22.5630 C   0  0  0  0  0  0  0  0  0  0  0  0
    6.1570    0.3080   17.6580 N   0  0  0  0  0  0  0  0  0  0  0  0
    5.1720    1.2890   18.0590 C   0  0  0  0  0  0  0  0  0  0  0  0
    4.8030    1.5000   19.3740 C   0  0  0  0  0  0  0  0  0  0  0  0
    5.3730    0.7640   20.4050 C   0  0  0  0  0  0  0  0  0  0  0  0
    6.3280   -0.1970   20.0510 C   0  0  0  0  0  0  0  0  0  0  0  0
    6.6570   -0.3620   18.7080 C   0  0  0  0  0  0  0  0  0  0  0  0
   10.4250    0.4870   23.8910 C   0  0  0  0  0  0  0  0  0  0  0  0
   11.8690    0.9210   23.9320 C   0  0  0  0  0  0  0  0  0  0  0  0
   12.7690    0.2410   23.1850 C   0  0  0  0  0  0  0  0  0  0  0  0
   12.3450   -0.7960   22.4290 C   0  0  0  0  0  0  0  0  0  0  0  0
   11.0370   -1.2160   22.3640 C   0  0  0  0  0  0  0  0  0  0  0  0
   10.0570   -0.5740   23.0940 C   0  0  0  0  0  0  0  0  0  0  0  0
    7.8790   -3.1880   24.1410 C   0  0  0  0  0  0  0  0  0  0  0  0
    8.9460   -3.3480   25.0190 C   0  0  0  0  0  0  0  0  0  0  0  0
    9.5200   -4.5780   25.0790 C   0  0  0  0  0  0  0  0  0  0  0  0
    9.0410   -5.6110   24.2820 C   0  0  0  0  0  0  0  0  0  0  0  0
    7.9640   -5.4400   23.3920 C   0  0  0  0  0  0  0  0  0  0  0  0
    7.3600   -4.1880   23.3180 C   0  0  0  0  0  0  0  0  0  0  0  0
    4.3330   -4.2850   23.7760 C   0  0  0  0  0  0  0  0  0  0  0  0
    5.0430   -4.8000   22.6620 C   0  0  2  0  0  0  0  0  0  0  0  0
    5.3310   -6.1920   22.7930 C   0  0  0  0  0  0  0  0  0  0  0  0
    4.0310   -6.7450   23.8880 S   0  0  0  0  0  0  0  0  0  0  0  0
    3.7010   -5.1430   24.5830 C   0  0  0  0  0  0  0  0  0  0  0  0
  4  2  1  1
  1  5  1  0
  3  5  2  0
  4  5  1  0
  6  8  3  0
  9 10  2  0
 10 11  1  0
 12 10  1  0
  1 16  1  0
 12 17  1  6
 16 17  1  0
 18 19  2  0
 19 20  1  0
  7 21  1  0
 20 21  2  0
  1 22  1  0
 21 22  1  0
 18 23  1  0
 22 23  2  0
 24 25  2  0
 25 26  1  0
  8 27  1  0
 26 27  2  0
 27 28  1  0
  4 29  1  0
 24 29  1  0
 28 29  2  0
 30 31  2  0
 15 32  1  0
 31 32  1  0
 32 33  2  0
 33 34  1  0
 12 35  1  0
 30 35  1  0
 34 35  2  0
 12 37  1  0
 37 36  1  1
 37 38  1  0
 39 13  1  0
 14 39  1  0
 38 39  1  0
 36 40  2  0
 39 40  1  0
M  END
