x2910-x0967
     RDKit          3D

 33 37  0  0  0  0  0  0  0  0999 V2000
    9.0870    7.4230   21.9720 C   0  0  0  0  0  0  0  0  0  0  0  0
    8.5930    5.0710   22.5700 N   0  0  0  0  0  0  0  0  0  0  0  0
    7.7730    6.9100   24.0410 O   0  0  0  0  0  0  0  0  0  0  0  0
    8.4550    6.4710   22.9280 C   0  0  0  0  0  0  0  0  0  0  0  0
    7.7450    1.4180   22.7310 N   0  0  0  0  0  0  0  0  0  0  0  0
    3.5370   -0.0720   20.0900 O   0  0  0  0  0  0  0  0  0  0  0  0
    7.7770    4.0580   23.2220 C   0  0  1  0  0  0  0  0  0  0  0  0
   10.0210    2.5230   23.0430 C   0  0  0  0  0  0  0  0  0  0  0  0
    6.4210    4.0250   22.4750 C   0  0  0  0  0  0  0  0  0  0  0  0
    8.5170    2.6970   23.0020 C   0  0  0  0  0  0  0  0  0  0  0  0
    8.3040   -0.0330   22.4940 C   0  0  0  0  0  0  0  0  0  0  0  0
   11.9670   -2.8090   22.0610 Br  0  0  0  0  0  0  0  0  0  0  0  0
   11.1010    3.4180   23.2650 C   0  0  0  0  0  0  0  0  0  0  0  0
    6.9850   -1.9380   21.0550 N   0  0  0  0  0  0  0  0  0  0  0  0
    5.2860   -3.8130   21.2380 O   0  0  0  0  0  0  0  0  0  0  0  0
    7.2020   -1.1570   22.2990 C   0  0  0  0  0  0  0  0  0  0  0  0
    6.5610   -3.1830   21.3880 C   0  0  0  0  0  0  0  0  0  0  0  0
    5.5860   -0.4410   19.3580 C   0  0  2  0  0  0  0  0  0  0  0  0
    6.4000   -1.3000   19.9410 C   0  0  0  0  0  0  0  0  0  0  0  0
    5.6820   -0.4080   20.8190 C   0  0  0  0  0  0  0  0  0  0  0  0
    4.7470    0.6430   20.3430 C   0  0  1  0  0  0  0  0  0  0  0  0
    4.9970    1.3790   19.0790 C   0  0  0  0  0  0  0  0  0  0  0  0
    5.8530    0.6250   18.3010 C   0  0  1  0  0  0  0  0  0  0  0  0
    9.9040    1.1790   22.7720 C   0  0  0  0  0  0  0  0  0  0  0  0
    9.7860   -0.1840   22.4970 C   0  0  0  0  0  0  0  0  0  0  0  0
   10.5970   -1.5050   22.2690 C   0  0  0  0  0  0  0  0  0  0  0  0
   11.9160   -1.0020   22.4070 C   0  0  0  0  0  0  0  0  0  0  0  0
   12.3340    0.2590   22.6650 C   0  0  0  0  0  0  0  0  0  0  0  0
   11.2740    1.3270   22.8480 C   0  0  0  0  0  0  0  0  0  0  0  0
    6.3170    0.6820   20.1610 C   0  0  0  0  0  0  0  0  0  0  0  0
    7.3090    1.3840   19.4930 C   0  0  0  0  0  0  0  0  0  0  0  0
    7.3440    0.9180   18.2260 C   0  0  0  0  0  0  0  0  0  0  0  0
    5.3460   -0.6650   17.8690 C   0  0  0  0  0  0  0  0  0  0  0  0
  1  4  1  0
  2  4  1  0
  3  4  2  0
  2  7  1  0
  7  9  1  6
  5 10  2  0
  7 10  1  0
  8 10  1  0
  5 11  1  0
  8 13  1  0
 11 16  1  0
 14 16  1  0
 14 17  1  0
 15 17  2  0
 14 19  1  0
 18 19  1  0
 19 20  2  0
 21  6  1  6
 20 21  1  0
 21 22  1  0
 18 23  1  0
 23 22  1  1
  8 24  2  0
 11 25  2  0
 24 25  1  0
 12 26  1  0
 25 26  1  0
 26 27  2  0
 27 28  1  0
 24 29  1  0
 28 29  2  0
 18 30  1  1
 30 31  2  0
 23 32  1  0
 31 32  1  0
 18 33  1  0
 23 33  1  0
M  END
