x2912-x1374
     RDKit          3D

 41 44  0  0  0  0  0  0  0  0999 V2000
    6.8250   -0.4720   21.0220 N   0  0  0  0  0  0  0  0  0  0  0  0
    7.8440   -0.2960   24.2010 C   0  0  0  0  0  0  0  0  0  0  0  0
    8.8430    1.1710   21.2620 O   0  0  0  0  0  0  0  0  0  0  0  0
    8.5470   -0.7500   22.9170 C   0  0  1  0  0  0  0  0  0  0  0  0
    8.0630    0.0340   21.6700 C   0  0  0  0  0  0  0  0  0  0  0  0
   14.0580   -1.4140   20.3210 N   0  0  0  0  0  0  0  0  0  0  0  0
    4.6820    1.1800   21.6000 C   0  0  0  0  0  0  0  0  0  0  0  0
   13.2180   -1.3400   21.4790 C   0  0  0  0  0  0  0  0  0  0  0  0
   10.4030   -4.4310   26.1780 C   0  0  0  0  0  0  0  0  0  0  0  0
    6.3710   -4.4920   21.9370 N   0  0  0  0  0  0  0  0  0  0  0  0
    6.2370   -4.4750   20.5520 C   0  0  0  0  0  0  0  0  0  0  0  0
    5.4490   -5.2390   20.0160 O   0  0  0  0  0  0  0  0  0  0  0  0
    7.0420   -3.4750   19.6640 C   0  0  0  0  0  0  0  0  0  0  0  0
    2.6460   -6.6910   23.4350 O   0  0  0  0  0  0  0  0  0  0  0  0
    4.3810   -7.8330   24.8100 O   0  0  0  0  0  0  0  0  0  0  0  0
    5.7990   -1.4770   21.4470 C   0  0  0  0  0  0  0  0  0  0  0  0
    6.1220   -2.0790   22.6020 C   0  0  0  0  0  0  0  0  0  0  0  0
    7.0240   -3.2350   22.3100 C   0  0  1  0  0  0  0  0  0  0  0  0
    6.3590    0.7030   17.5780 N   0  0  0  0  0  0  0  0  0  0  0  0
    5.2360    1.5560   17.8660 C   0  0  0  0  0  0  0  0  0  0  0  0
    4.7000    1.7180   19.1130 C   0  0  0  0  0  0  0  0  0  0  0  0
    5.2310    1.0450   20.1950 C   0  0  0  0  0  0  0  0  0  0  0  0
    6.3270    0.1890   19.9940 C   0  0  0  0  0  0  0  0  0  0  0  0
    6.8910    0.0060   18.7340 C   0  0  0  0  0  0  0  0  0  0  0  0
   10.5310   -0.3660   24.6000 C   0  0  0  0  0  0  0  0  0  0  0  0
   11.9000   -0.3920   24.7550 C   0  0  0  0  0  0  0  0  0  0  0  0
   12.7640   -0.7010   23.7800 C   0  0  0  0  0  0  0  0  0  0  0  0
   12.3220   -1.0240   22.5430 C   0  0  0  0  0  0  0  0  0  0  0  0
   10.9580   -1.0600   22.2140 C   0  0  0  0  0  0  0  0  0  0  0  0
   10.0010   -0.7370   23.1970 C   0  0  0  0  0  0  0  0  0  0  0  0
    9.4470   -4.5750   25.0260 C   0  0  0  0  0  0  0  0  0  0  0  0
    8.9000   -3.4550   24.5070 C   0  0  0  0  0  0  0  0  0  0  0  0
    7.9830   -3.2730   23.4430 C   0  0  0  0  0  0  0  0  0  0  0  0
    7.7720   -4.6290   23.0380 C   0  0  0  0  0  0  0  0  0  0  0  0
    8.2930   -5.8080   23.5240 C   0  0  0  0  0  0  0  0  0  0  0  0
    9.1580   -5.7940   24.5470 C   0  0  0  0  0  0  0  0  0  0  0  0
    5.0840   -4.4830   24.0350 C   0  0  0  0  0  0  0  0  0  0  0  0
    5.3010   -5.0180   22.7470 C   0  0  2  0  0  0  0  0  0  0  0  0
    5.1920   -6.4230   22.6720 C   0  0  0  0  0  0  0  0  0  0  0  0
    3.9940   -6.7380   23.9640 S   0  0  0  0  0  0  0  0  0  0  0  0
    4.3670   -5.2530   24.8730 C   0  0  0  0  0  0  0  0  0  0  0  0
  4  2  1  1
  1  5  1  0
  3  5  2  0
  4  5  1  0
  6  8  3  0
 10 11  1  0
 11 12  2  0
 11 13  1  0
  1 16  1  0
 16 17  1  0
 10 18  1  0
 18 17  1  1
 19 20  2  0
 20 21  1  0
  7 22  1  0
 21 22  2  0
  1 23  1  0
 22 23  1  0
 19 24  1  0
 23 24  2  0
 25 26  2  0
 26 27  1  0
  8 28  1  0
 27 28  2  0
 28 29  1  0
  4 30  1  0
 25 30  1  0
 29 30  2  0
  9 31  1  0
 31 32  2  0
 18 33  1  0
 32 33  1  0
 33 34  2  0
 34 35  1  0
 31 36  1  0
 35 36  2  0
 38 10  1  1
 37 38  1  0
 38 39  1  0
 40 14  1  0
 15 40  1  0
 39 40  1  0
 37 41  2  0
 40 41  1  0
M  END
