x2912-x0691
     RDKit          3D

 42 45  0  0  0  0  0  0  0  0999 V2000
    7.1740   -0.5160   21.3690 N   0  0  0  0  0  0  0  0  0  0  0  0
    7.8560   -1.0010   24.2750 C   0  0  0  0  0  0  0  0  0  0  0  0
    8.8560    0.9440   21.4670 O   0  0  0  0  0  0  0  0  0  0  0  0
    8.6330   -1.0950   22.9730 C   0  0  1  0  0  0  0  0  0  0  0  0
    8.1640   -0.1660   21.8400 C   0  0  0  0  0  0  0  0  0  0  0  0
   13.6550   -2.9730   20.6010 N   0  0  0  0  0  0  0  0  0  0  0  0
    5.2000    1.4550   21.9050 C   0  0  0  0  0  0  0  0  0  0  0  0
   13.0850   -2.0430   21.4010 C   0  0  0  0  0  0  0  0  0  0  0  0
    3.8800   -6.7230   26.0440 O   0  0  0  0  0  0  0  0  0  0  0  0
    5.7220   -5.2370   26.8820 O   0  0  0  0  0  0  0  0  0  0  0  0
    5.4570   -4.6290   19.9650 O   0  0  0  0  0  0  0  0  0  0  0  0
    6.4280   -4.5550   20.7360 C   0  0  0  0  0  0  0  0  0  0  0  0
    7.6490   -3.6660   20.4770 C   0  0  0  0  0  0  0  0  0  0  0  0
    3.4700   -0.5860   25.6520 O   0  0  0  0  0  0  0  0  0  0  0  0
    4.6530   -5.5060   25.9410 S   0  0  0  0  0  0  0  0  0  0  0  0
    4.4190    0.2050   22.2570 C   0  0  0  0  0  0  0  0  0  0  0  0
    3.7340    0.1820   23.4880 C   0  0  0  0  0  0  0  0  0  0  0  0
    4.4100   -0.3330   24.5990 C   0  0  0  0  0  0  0  0  0  0  0  0
    6.1120    0.3730   17.7230 N   0  0  0  0  0  0  0  0  0  0  0  0
    5.1620    1.3080   18.0690 C   0  0  0  0  0  0  0  0  0  0  0  0
    4.8570    1.6530   19.3860 C   0  0  0  0  0  0  0  0  0  0  0  0
    5.5150    1.0610   20.4750 C   0  0  0  0  0  0  0  0  0  0  0  0
    6.4970    0.0950   20.2350 C   0  0  0  0  0  0  0  0  0  0  0  0
    6.7260   -0.1860   18.7550 C   0  0  0  0  0  0  0  0  0  0  0  0
   10.5320    0.4910   23.8670 C   0  0  0  0  0  0  0  0  0  0  0  0
   11.9990    0.7850   23.8110 C   0  0  0  0  0  0  0  0  0  0  0  0
   12.8520   -0.1070   22.9520 C   0  0  0  0  0  0  0  0  0  0  0  0
   12.2780   -1.1530   22.2500 C   0  0  0  0  0  0  0  0  0  0  0  0
   10.9120   -1.3850   22.3300 C   0  0  0  0  0  0  0  0  0  0  0  0
   10.0870   -0.5920   23.1040 C   0  0  0  0  0  0  0  0  0  0  0  0
    2.9950   -1.9380   25.8340 C   0  0  0  0  0  0  0  0  0  0  0  0
    4.0350   -2.8610   25.7900 C   0  0  0  0  0  0  0  0  0  0  0  0
    3.5700   -4.1910   25.9610 C   0  0  0  0  0  0  0  0  0  0  0  0
    2.2350   -4.5450   26.1560 C   0  0  0  0  0  0  0  0  0  0  0  0
    1.1980   -3.5980   26.2000 C   0  0  0  0  0  0  0  0  0  0  0  0
    1.4930   -2.2770   26.0470 C   0  0  0  0  0  0  0  0  0  0  0  0
    6.4670   -5.2910   21.9090 N   0  0  0  0  0  0  0  0  0  0  0  0
    5.6080   -6.4490   22.1310 C   0  0  0  0  0  0  0  0  0  0  0  0
    4.5890   -6.1120   23.2400 C   0  0  0  0  0  0  0  0  0  0  0  0
    5.3250   -5.5000   24.3740 N   0  0  0  0  0  0  0  0  0  0  0  0
    6.2570   -4.4060   24.0470 C   0  0  0  0  0  0  0  0  0  0  0  0
    7.1660   -4.8450   23.1120 C   0  0  0  0  0  0  0  0  0  0  0  0
  4  2  1  1
  1  5  1  0
  3  5  2  0
  4  5  1  0
  6  8  3  0
 11 12  2  0
 12 13  1  0
  9 15  2  0
 10 15  2  0
  7 16  1  0
 16 17  1  0
 14 18  1  0
 17 18  1  0
 19 20  2  0
 20 21  1  0
  7 22  1  0
 21 22  2  0
  1 23  1  0
 22 23  1  0
 19 24  1  0
 23 24  2  0
 25 26  2  0
 26 27  1  0
  8 28  1  0
 27 28  2  0
 28 29  1  0
  4 30  1  0
 25 30  1  0
 29 30  2  0
 14 31  1  0
 31 32  2  0
 15 33  1  0
 32 33  1  0
 33 34  2  0
 34 35  1  0
 31 36  1  0
 35 36  2  0
 12 37  1  0
 37 38  1  0
 38 39  1  0
 15 40  1  0
 39 40  1  0
 40 41  1  0
 37 42  1  0
 41 42  1  0
M  END
