x2912-x1478
     RDKit          3D

 32 34  0  0  0  0  0  0  0  0999 V2000
    7.3720   -0.3510   21.1270 N   0  0  0  0  0  0  0  0  0  0  0  0
    7.9680    0.0240   24.2640 C   0  0  0  0  0  0  0  0  0  0  0  0
    8.7450    1.4030   21.3550 O   0  0  0  0  0  0  0  0  0  0  0  0
    8.4790   -0.5960   22.9770 C   0  0  1  0  0  0  0  0  0  0  0  0
    8.1470    0.2140   21.7110 C   0  0  0  0  0  0  0  0  0  0  0  0
   13.8450   -1.4650   20.5360 N   0  0  0  0  0  0  0  0  0  0  0  0
    4.6800    1.5590   21.6600 C   0  0  0  0  0  0  0  0  0  0  0  0
   13.1240   -2.1810   21.4510 C   0  0  0  0  0  0  0  0  0  0  0  0
    6.4210   -2.5250   21.1280 N   0  0  0  0  0  0  0  0  0  0  0  0
    7.6200   -4.3190   20.2880 C   0  0  0  0  0  0  0  0  0  0  0  0
    5.4550   -3.6660   19.4230 O   0  0  0  0  0  0  0  0  0  0  0  0
    5.9290   -5.7410   22.1250 Cl  0  0  0  0  0  0  0  0  0  0  0  0
    6.3750   -3.4970   20.2040 C   0  0  0  0  0  0  0  0  0  0  0  0
    7.5180   -1.7880   21.0600 C   0  0  0  0  0  0  0  0  0  0  0  0
    6.2870    0.4580   17.7500 N   0  0  0  0  0  0  0  0  0  0  0  0
    5.2110    1.2350   17.9730 C   0  0  0  0  0  0  0  0  0  0  0  0
    4.7150    1.5690   19.2100 C   0  0  0  0  0  0  0  0  0  0  0  0
    5.3480    1.0940   20.3370 C   0  0  0  0  0  0  0  0  0  0  0  0
    6.4650    0.2950   20.1390 C   0  0  0  0  0  0  0  0  0  0  0  0
    6.9060   -0.0100   18.8620 C   0  0  0  0  0  0  0  0  0  0  0  0
   10.6850    0.7500   23.8190 C   0  0  0  0  0  0  0  0  0  0  0  0
   12.1920    0.8640   23.7740 C   0  0  0  0  0  0  0  0  0  0  0  0
   12.9900   -0.1570   22.9600 C   0  0  0  0  0  0  0  0  0  0  0  0
   12.2640   -1.2500   22.2220 C   0  0  0  0  0  0  0  0  0  0  0  0
   10.7600   -1.2650   22.3300 C   0  0  0  0  0  0  0  0  0  0  0  0
    9.9940   -0.3670   23.0500 C   0  0  0  0  0  0  0  0  0  0  0  0
    5.0390   -4.3710   24.0630 N   0  0  0  0  0  0  0  0  0  0  0  0
    5.6180   -4.2200   22.8390 C   0  0  0  0  0  0  0  0  0  0  0  0
    5.8280   -2.8690   22.4260 C   0  0  0  0  0  0  0  0  0  0  0  0
    5.5000   -1.7570   23.1660 C   0  0  0  0  0  0  0  0  0  0  0  0
    4.9250   -1.9270   24.3870 C   0  0  0  0  0  0  0  0  0  0  0  0
    4.7330   -3.2630   24.7450 C   0  0  0  0  0  0  0  0  0  0  0  0
  4  2  1  1
  1  5  1  0
  3  5  2  0
  4  5  1  0
  6  8  3  0
  9 13  1  0
 10 13  1  0
 11 13  2  0
  1 14  1  0
  9 14  1  0
 15 16  2  0
 16 17  1  0
  7 18  1  0
 17 18  2  0
  1 19  1  0
 18 19  1  0
 15 20  1  0
 19 20  2  0
 21 22  2  0
 22 23  1  0
  8 24  1  0
 23 24  2  0
 24 25  1  0
  4 26  1  0
 21 26  1  0
 25 26  2  0
 12 28  1  0
 27 28  2  0
  9 29  1  0
 28 29  1  0
 29 30  2  0
 30 31  1  0
 27 32  1  0
 31 32  2  0
M  END
