x2912-x2649
     RDKit          3D

 20 21  0  0  0  0  0  0  0  0999 V2000
    7.1150   -0.5310   21.2810 N   0  0  0  0  0  0  0  0  0  0  0  0
    7.7550   -0.5540   24.3620 C   0  0  0  0  0  0  0  0  0  0  0  0
    8.7930    0.9330   21.3950 O   0  0  0  0  0  0  0  0  0  0  0  0
    8.4500   -0.9510   23.0760 C   0  0  1  0  0  0  0  0  0  0  0  0
    8.0660   -0.1390   21.8110 C   0  0  0  0  0  0  0  0  0  0  0  0
   14.0920   -1.3800   20.2990 N   0  0  0  0  0  0  0  0  0  0  0  0
    4.9610    1.2180   21.8190 C   0  0  0  0  0  0  0  0  0  0  0  0
   13.3310   -1.3230   21.3890 C   0  0  0  0  0  0  0  0  0  0  0  0
    6.2930    0.4440   17.7150 N   0  0  0  0  0  0  0  0  0  0  0  0
    5.2180    1.3110   18.0380 C   0  0  0  0  0  0  0  0  0  0  0  0
    4.8030    1.5480   19.3310 C   0  0  0  0  0  0  0  0  0  0  0  0
    5.4240    0.9430   20.4110 C   0  0  0  0  0  0  0  0  0  0  0  0
    6.4910    0.0810   20.1060 C   0  0  0  0  0  0  0  0  0  0  0  0
    6.8890   -0.1430   18.7870 C   0  0  0  0  0  0  0  0  0  0  0  0
   10.4680   -0.5120   24.4900 C   0  0  0  0  0  0  0  0  0  0  0  0
   11.8420   -0.4410   24.6650 C   0  0  0  0  0  0  0  0  0  0  0  0
   12.7480   -0.6980   23.6900 C   0  0  0  0  0  0  0  0  0  0  0  0
   12.3760   -1.0670   22.4310 C   0  0  0  0  0  0  0  0  0  0  0  0
   10.8850   -1.1930   22.1290 C   0  0  0  0  0  0  0  0  0  0  0  0
    9.9250   -0.8780   23.2640 C   0  0  0  0  0  0  0  0  0  0  0  0
  4  2  1  1
  1  5  1  0
  3  5  2  0
  4  5  1  0
  6  8  3  0
  9 10  2  0
 10 11  1  0
  7 12  1  0
 11 12  2  0
  1 13  1  0
 12 13  1  0
  9 14  1  0
 13 14  2  0
 15 16  2  0
 16 17  1  0
  8 18  1  0
 17 18  2  0
 18 19  1  0
  4 20  1  0
 15 20  1  0
 19 20  2  0
M  END
