x2912-x0831
     RDKit          3D

 29 32  0  0  0  0  0  0  0  0999 V2000
    8.0620   -1.4160   24.1960 C   0  0  0  0  0  0  0  0  0  0  0  0
    9.3050   -1.1030   20.9990 O   0  0  0  0  0  0  0  0  0  0  0  0
    9.0920   -1.3700   23.2000 C   0  0  2  0  0  0  0  0  0  0  0  0
   13.0330   -2.3340   20.9800 N   0  0  0  0  0  0  0  0  0  0  0  0
   13.5510   -1.4360   21.4720 C   0  0  0  0  0  0  0  0  0  0  0  0
    5.4210   -4.1590   19.7780 O   0  0  0  0  0  0  0  0  0  0  0  0
    6.2660   -3.2630   19.9520 C   0  0  0  0  0  0  0  0  0  0  0  0
    7.2630   -2.9420   18.8440 C   0  0  0  0  0  0  0  0  0  0  0  0
   10.5730    0.5970   23.8590 C   0  0  0  0  0  0  0  0  0  0  0  0
   11.8410    1.1240   23.7130 C   0  0  0  0  0  0  0  0  0  0  0  0
   12.8150    0.5050   22.9690 C   0  0  0  0  0  0  0  0  0  0  0  0
   12.5830   -0.6880   22.3110 C   0  0  0  0  0  0  0  0  0  0  0  0
   11.3240   -1.2350   22.4370 C   0  0  0  0  0  0  0  0  0  0  0  0
   10.3380   -0.6030   23.1990 C   0  0  0  0  0  0  0  0  0  0  0  0
    6.3360   -2.5610   21.1840 N   0  0  0  0  0  0  0  0  0  0  0  0
    7.1100   -1.2910   21.4980 C   0  0  1  0  0  0  0  0  0  0  0  0
    8.3680   -1.6030   21.9440 C   0  0  1  0  0  0  0  0  0  0  0  0
    8.4300   -2.8700   22.3970 C   0  0  0  0  0  0  0  0  0  0  0  0
    7.7130   -2.7400   23.7570 N   0  0  0  0  0  0  0  0  0  0  0  0
    6.4040   -2.8460   23.6250 C   0  0  0  0  0  0  0  0  0  0  0  0
    5.9070   -3.3120   22.2300 C   0  0  0  0  0  0  0  0  0  0  0  0
    4.6200    1.4430   21.5290 C   0  0  0  0  0  0  0  0  0  0  0  0
    6.1850    0.7780   17.5750 N   0  0  0  0  0  0  0  0  0  0  0  0
    5.0980    1.5630   17.8490 C   0  0  0  0  0  0  0  0  0  0  0  0
    4.5730    1.7830   19.1310 C   0  0  0  0  0  0  0  0  0  0  0  0
    5.1500    1.2060   20.2340 C   0  0  0  0  0  0  0  0  0  0  0  0
    6.2040    0.4710   19.8560 C   0  0  0  0  0  0  0  0  0  0  0  0
    6.7540    0.2120   18.6460 C   0  0  0  0  0  0  0  0  0  0  0  0
    7.3140   -0.3990   20.3420 C   0  0  0  0  0  0  0  0  0  0  0  0
  1  3  1  0
  4  5  3  0
  6  7  2  0
  7  8  1  0
  9 10  2  0
 10 11  1  0
  5 12  1  0
 11 12  2  0
 12 13  1  0
  3 14  1  6
  9 14  1  0
 13 14  2  0
  7 15  1  0
 15 16  1  0
 17  2  1  6
  3 17  1  0
 16 17  1  0
 17 18  1  0
  1 19  1  0
 18 19  1  0
 19 20  1  0
 15 21  1  0
 20 21  1  0
 23 24  2  0
 24 25  1  0
 22 26  1  0
 25 26  2  0
 26 27  1  0
 23 28  1  0
 27 28  2  0
 16 29  1  6
 27 29  1  0
M  END
