x2910-x0981
     RDKit          3D

 42 44  0  0  0  0  0  0  0  0999 V2000
    1.2480   -8.7680   21.3250 C   0  0  0  0  0  0  0  0  0  0  0  0
    2.6180   -7.1720   22.6840 N   0  0  0  0  0  0  0  0  0  0  0  0
    0.4180   -6.6830   22.2470 O   0  0  0  0  0  0  0  0  0  0  0  0
    1.3850   -7.4440   22.1380 C   0  0  0  0  0  0  0  0  0  0  0  0
    2.4390   -8.3330   26.4770 N   0  0  0  0  0  0  0  0  0  0  0  0
    3.8970   -8.2570   24.6700 O   0  0  0  0  0  0  0  0  0  0  0  0
    3.0510   -5.9810   23.3880 C   0  0  1  0  0  0  0  0  0  0  0  0
    5.1690   -5.9950   22.3430 N   0  0  0  0  0  0  0  0  0  0  0  0
    5.1720   -5.2490   24.2940 O   0  0  0  0  0  0  0  0  0  0  0  0
    2.6200   -6.3240   24.8550 C   0  0  0  0  0  0  0  0  0  0  0  0
    3.0380   -7.6870   25.3040 C   0  0  0  0  0  0  0  0  0  0  0  0
    4.5910   -5.7370   23.3280 C   0  0  0  0  0  0  0  0  0  0  0  0
    6.3450   -5.2100   21.8050 C   0  0  1  0  0  0  0  0  0  0  0  0
    6.4300   -5.3340   20.2950 C   0  0  0  0  0  0  0  0  0  0  0  0
    5.6020   -6.4220   19.7140 C   0  0  0  0  0  0  0  0  0  0  0  0
    7.1910   -1.1780   21.7440 N   0  0  0  0  0  0  0  0  0  0  0  0
   10.1760    3.0550   23.6140 C   0  0  0  0  0  0  0  0  0  0  0  0
   10.0610    1.6530   23.7650 O   0  0  0  0  0  0  0  0  0  0  0  0
    9.4990   -0.9990   23.0110 O   0  0  0  0  0  0  0  0  0  0  0  0
    5.4030   -2.3060   21.0030 O   0  0  0  0  0  0  0  0  0  0  0  0
    6.3000    1.2000   16.7980 O   0  0  0  0  0  0  0  0  0  0  0  0
    9.3650   -2.1600   22.2650 C   0  0  0  0  0  0  0  0  0  0  0  0
    7.8970   -2.3000   21.9550 C   0  0  1  0  0  0  0  0  0  0  0  0
    6.1060   -1.3110   20.9920 C   0  0  0  0  0  0  0  0  0  0  0  0
    6.0870   -3.7960   22.2990 C   0  0  0  0  0  0  0  0  0  0  0  0
    7.3240   -3.1080   22.8300 C   0  0  0  0  0  0  0  0  0  0  0  0
   11.1550    0.9060   23.2810 C   0  0  0  0  0  0  0  0  0  0  0  0
   10.7880   -0.5160   22.8950 C   0  0  0  0  0  0  0  0  0  0  0  0
   11.8930   -1.4310   22.3540 C   0  0  0  0  0  0  0  0  0  0  0  0
   13.1800   -1.0160   22.2030 C   0  0  0  0  0  0  0  0  0  0  0  0
   13.5050    0.4260   22.5980 C   0  0  0  0  0  0  0  0  0  0  0  0
   12.4400    1.3330   23.1330 C   0  0  0  0  0  0  0  0  0  0  0  0
    4.8860    1.8900   18.3120 N   0  0  0  0  0  0  0  0  0  0  0  0
    4.3420    1.7830   19.5020 C   0  0  0  0  0  0  0  0  0  0  0  0
    4.7320    0.7100   20.4920 C   0  0  0  0  0  0  0  0  0  0  0  0
    5.6980   -0.1930   20.0670 C   0  0  0  0  0  0  0  0  0  0  0  0
    6.2510   -0.0530   18.8070 C   0  0  0  0  0  0  0  0  0  0  0  0
    5.8070    0.9960   18.0070 C   0  0  0  0  0  0  0  0  0  0  0  0
    3.3560    2.7160   19.8650 C   0  0  0  0  0  0  0  0  0  0  0  0
    2.7490    2.6700   21.1200 C   0  0  0  0  0  0  0  0  0  0  0  0
    3.0960    1.7050   22.0600 C   0  0  0  0  0  0  0  0  0  0  0  0
    4.1100    0.7110   21.7220 C   0  0  0  0  0  0  0  0  0  0  0  0
  1  4  1  0
  2  4  1  0
  3  4  2  0
  2  7  1  0
  7 10  1  1
  5 11  1  0
  6 11  2  0
 10 11  1  0
  7 12  1  0
  8 12  1  0
  9 12  2  0
  8 13  1  0
 13 14  1  6
 14 15  2  3
 17 18  1  0
 19 22  1  0
 16 23  1  0
 23 22  1  1
 16 24  1  0
 20 24  2  0
 13 25  1  0
 23 26  1  0
 25 26  1  0
 18 27  1  0
 19 28  1  0
 27 28  2  0
 28 29  1  0
 29 30  2  0
 30 31  1  0
 27 32  1  0
 31 32  2  0
 33 34  2  0
 34 35  1  0
 24 36  1  0
 35 36  2  0
 36 37  1  0
 21 38  1  0
 33 38  1  0
 37 38  2  0
 34 39  1  0
 39 40  2  0
 40 41  1  0
 35 42  1  0
 41 42  2  0
M  END
