x2910-x0395
     RDKit          3D

 31 34  0  0  0  0  0  0  0  0999 V2000
    6.5280   -1.6470   22.0050 N   0  0  0  0  0  0  0  0  0  0  0  0
   10.2330    2.4940   23.6380 C   0  0  0  0  0  0  0  0  0  0  0  0
   10.1050    1.2860   23.8510 O   0  0  0  0  0  0  0  0  0  0  0  0
    9.5050   -1.4710   22.9380 N   0  0  0  0  0  0  0  0  0  0  0  0
    5.2650   -3.0690   20.4220 O   0  0  0  0  0  0  0  0  0  0  0  0
    6.3180    1.2900   16.8210 O   0  0  0  0  0  0  0  0  0  0  0  0
    8.9130   -1.9110   21.8010 C   0  0  0  0  0  0  0  0  0  0  0  0
    7.5980   -2.5500   22.2500 C   0  0  0  0  0  0  0  0  0  0  0  0
    5.7550   -1.7930   20.8040 C   0  0  0  0  0  0  0  0  0  0  0  0
    8.6490   -5.3510   26.5600 C   0  0  0  0  0  0  0  0  0  0  0  0
   11.0560    0.4750   23.3080 C   0  0  0  0  0  0  0  0  0  0  0  0
   10.8660   -0.8380   22.8500 C   0  0  0  0  0  0  0  0  0  0  0  0
   11.9070   -1.5630   22.3070 C   0  0  0  0  0  0  0  0  0  0  0  0
   13.1670   -1.0510   22.1880 C   0  0  0  0  0  0  0  0  0  0  0  0
   13.3880    0.2490   22.6350 C   0  0  0  0  0  0  0  0  0  0  0  0
   12.3480    0.9840   23.1820 C   0  0  0  0  0  0  0  0  0  0  0  0
    4.8110    1.7520   18.4260 N   0  0  0  0  0  0  0  0  0  0  0  0
    4.1300    1.6030   19.5350 C   0  0  0  0  0  0  0  0  0  0  0  0
    4.3880    0.4120   20.4420 C   0  0  0  0  0  0  0  0  0  0  0  0
    5.4540   -0.5860   19.9810 C   0  0  0  0  0  0  0  0  0  0  0  0
    6.1890   -0.3470   18.7020 C   0  0  0  0  0  0  0  0  0  0  0  0
    5.7270    0.9170   18.0260 C   0  0  0  0  0  0  0  0  0  0  0  0
    3.1640    2.5540   19.8750 C   0  0  0  0  0  0  0  0  0  0  0  0
    2.3250    2.4430   21.1780 C   0  0  0  0  0  0  0  0  0  0  0  0
    2.5320    1.3760   22.0440 C   0  0  0  0  0  0  0  0  0  0  0  0
    3.5660    0.3120   21.7290 C   0  0  0  0  0  0  0  0  0  0  0  0
    8.6900   -4.0300   25.8300 C   0  0  0  0  0  0  0  0  0  0  0  0
    8.2420   -2.8350   26.1900 N   0  0  0  0  0  0  0  0  0  0  0  0
    8.4860   -1.8480   25.2460 N   0  0  0  0  0  0  0  0  0  0  0  0
    9.1370   -2.2100   24.0870 C   0  0  0  0  0  0  0  0  0  0  0  0
    9.4880   -3.8490   24.1250 S   0  0  0  0  0  0  0  0  0  0  0  0
  2  3  1  0
  4  7  1  0
  1  8  1  0
  7  8  1  0
  1  9  1  0
  5  9  2  0
  3 11  1  0
  4 12  1  0
 11 12  2  0
 12 13  1  0
 13 14  2  0
 14 15  1  0
 11 16  1  0
 15 16  2  0
 17 18  2  0
 18 19  1  0
  9 20  1  0
 19 20  2  0
 20 21  1  0
  6 22  1  0
 17 22  1  0
 21 22  2  0
 18 23  1  0
 23 24  2  0
 24 25  1  0
 19 26  1  0
 25 26  2  0
 10 27  1  0
 27 28  2  0
 28 29  1  0
  4 30  1  0
 29 30  2  0
 27 31  1  0
 30 31  1  0
M  END
