x2912-x0305
     RDKit          3D

 23 24  0  0  0  0  0  0  0  0999 V2000
    7.1270   -0.5450   20.9360 N   0  0  0  0  0  0  0  0  0  0  0  0
    7.7100   -0.5730   23.9950 C   0  0  0  0  0  0  0  0  0  0  0  0
    8.9980    1.1900   21.3080 O   0  0  0  0  0  0  0  0  0  0  0  0
    8.6570   -0.8450   22.8280 C   0  0  1  0  0  0  0  0  0  0  0  0
    8.2680   -0.0020   21.6330 C   0  0  0  0  0  0  0  0  0  0  0  0
   14.0140   -1.5930   20.3980 N   0  0  0  0  0  0  0  0  0  0  0  0
    4.7750    1.3660   21.6950 C   0  0  0  0  0  0  0  0  0  0  0  0
   13.1960   -1.4850   21.5490 C   0  0  0  0  0  0  0  0  0  0  0  0
    8.0660   -0.3260   27.2240 C   0  0  0  0  0  0  0  0  0  0  0  0
    9.3490    0.0650   26.8110 C   0  0  0  0  0  0  0  0  0  0  0  0
    9.5310    0.1360   25.3620 N   0  0  0  0  0  0  0  0  0  0  0  0
    6.2010    0.6480   17.5680 N   0  0  0  0  0  0  0  0  0  0  0  0
    5.1620    1.5200   17.7700 C   0  0  0  0  0  0  0  0  0  0  0  0
    4.6980    1.7510   19.0610 C   0  0  0  0  0  0  0  0  0  0  0  0
    5.2350    1.1530   20.1570 C   0  0  0  0  0  0  0  0  0  0  0  0
    6.3750    0.2040   19.9360 C   0  0  0  0  0  0  0  0  0  0  0  0
    6.8280   -0.0320   18.6720 C   0  0  0  0  0  0  0  0  0  0  0  0
   10.5190   -0.2930   24.5440 C   0  0  0  0  0  0  0  0  0  0  0  0
   11.8980   -0.3070   24.8230 C   0  0  0  0  0  0  0  0  0  0  0  0
   12.7840   -0.7030   23.8640 C   0  0  0  0  0  0  0  0  0  0  0  0
   12.3590   -1.0960   22.6520 C   0  0  0  0  0  0  0  0  0  0  0  0
   10.9180   -1.1570   22.2910 C   0  0  0  0  0  0  0  0  0  0  0  0
   10.0660   -0.7480   23.2720 C   0  0  0  0  0  0  0  0  0  0  0  0
  4  2  1  1
  1  5  1  0
  3  5  2  0
  4  5  1  0
  6  8  3  0
  9 10  1  0
 10 11  1  0
 12 13  2  0
 13 14  1  0
  7 15  1  0
 14 15  2  0
  1 16  1  0
 15 16  1  0
 12 17  1  0
 16 17  2  0
 11 18  1  0
 18 19  2  0
 19 20  1  0
  8 21  1  0
 20 21  2  0
 21 22  1  0
  4 23  1  0
 18 23  1  0
 22 23  2  0
M  END
