x2912-x2540
     RDKit          3D

 31 32  0  0  0  0  0  0  0  0999 V2000
    6.1040   -1.0260   22.2790 N   0  0  0  0  0  0  0  0  0  0  0  0
    6.7640   -3.7430   19.8510 C   0  0  0  0  0  0  0  0  0  0  0  0
    4.6610   -3.0000   21.5540 O   0  0  0  0  0  0  0  0  0  0  0  0
    7.0220   -3.1160   21.2180 C   0  0  0  0  0  0  0  0  0  0  0  0
    7.4970    1.8380   23.2130 N   0  0  0  0  0  0  0  0  0  0  0  0
    8.1140    1.6910   21.0150 O   0  0  0  0  0  0  0  0  0  0  0  0
    5.8070   -2.3640   21.7030 C   0  0  0  0  0  0  0  0  0  0  0  0
    7.3020   -0.2320   21.8160 C   0  0  2  0  0  0  0  0  0  0  0  0
    7.6240    1.1460   22.0190 C   0  0  0  0  0  0  0  0  0  0  0  0
    8.6120    2.8110   23.4110 C   0  0  0  0  0  0  0  0  0  0  0  0
    8.8620    2.9640   24.7580 C   0  0  0  0  0  0  0  0  0  0  0  0
    8.2690    4.1920   22.8140 C   0  0  0  0  0  0  0  0  0  0  0  0
    9.9560    2.3790   22.7820 C   0  0  0  0  0  0  0  0  0  0  0  0
   12.1560   -1.2600   23.4360 C   0  0  0  0  0  0  0  0  0  0  0  0
   12.9640   -0.8670   22.3560 C   0  0  0  0  0  0  0  0  0  0  0  0
   12.2880   -0.2630   24.5410 C   0  0  0  0  0  0  0  0  0  0  0  0
   12.6930   -2.4130   23.8800 C   0  0  0  0  0  0  0  0  0  0  0  0
    8.4280   -0.4230   23.8440 C   0  0  0  0  0  0  0  0  0  0  0  0
   13.1970   -1.8970   21.3300 N   0  0  0  0  0  0  0  0  0  0  0  0
    5.0050    1.6040   21.6260 C   0  0  0  0  0  0  0  0  0  0  0  0
    6.6250   -0.0050   17.8990 N   0  0  0  0  0  0  0  0  0  0  0  0
    5.5880    0.8430   17.8710 C   0  0  0  0  0  0  0  0  0  0  0  0
    4.9830    1.4330   19.1030 C   0  0  0  0  0  0  0  0  0  0  0  0
    5.6470    0.9960   20.4050 C   0  0  0  0  0  0  0  0  0  0  0  0
    6.7500    0.1050   20.4390 C   0  0  0  0  0  0  0  0  0  0  0  0
    7.1800   -0.3520   19.2140 C   0  0  0  0  0  0  0  0  0  0  0  0
    9.8280   -2.3670   23.6830 O   0  0  0  0  0  0  0  0  0  0  0  0
    8.5600   -2.3490   22.8660 N   0  0  0  0  0  0  0  0  0  0  0  0
    8.5910   -0.9610   22.3910 C   0  0  1  0  0  0  0  0  0  0  0  0
    9.8720   -0.5550   22.3200 C   0  0  0  0  0  0  0  0  0  0  0  0
   10.6550   -1.3550   23.1160 C   0  0  0  0  0  0  0  0  0  0  0  0
  2  4  1  0
  1  7  1  0
  3  7  2  0
  4  7  1  0
  8  1  1  1
  5  9  1  0
  6  9  2  0
  8  9  1  0
 10  5  1  0
 10 11  1  0
 10 12  1  0
 10 13  1  0
 14 15  1  0
 14 16  1  0
 14 17  1  0
 15 19  3  0
 21 22  2  0
 22 23  1  0
 20 24  1  0
 23 24  2  0
  8 25  1  0
 24 25  1  0
 21 26  1  0
 25 26  2  0
 27 28  1  0
  8 29  1  0
 29 18  1  1
 28 29  1  0
 29 30  1  0
 14 31  1  0
 27 31  1  0
 30 31  2  0
M  END
