x2910-x2569
     RDKit          3D

 29 32  0  0  0  0  0  0  0  0999 V2000
    7.3830   -1.3230   21.8000 N   0  0  0  0  0  0  0  0  0  0  0  0
   10.1870    2.7990   23.5760 C   0  0  0  0  0  0  0  0  0  0  0  0
   10.0030    1.3920   23.7150 O   0  0  0  0  0  0  0  0  0  0  0  0
    9.4860   -1.0930   22.3650 N   0  0  0  0  0  0  0  0  0  0  0  0
    5.3490   -2.5810   20.9260 O   0  0  0  0  0  0  0  0  0  0  0  0
    6.4420    1.3420   16.8140 O   0  0  0  0  0  0  0  0  0  0  0  0
    9.2650   -2.5230   22.3300 C   0  0  0  0  0  0  0  0  0  0  0  0
    7.7850   -2.5820   22.3960 C   0  0  0  0  0  0  0  0  0  0  0  0
    6.1550   -1.4030   20.9100 C   0  0  0  0  0  0  0  0  0  0  0  0
    8.3930   -0.4840   21.7830 C   0  0  0  0  0  0  0  0  0  0  0  0
    8.4000    0.8450   21.2560 O   0  0  0  0  0  0  0  0  0  0  0  0
   13.6480   -3.2640   20.6150 N   0  0  0  0  0  0  0  0  0  0  0  0
   12.8190   -2.4390   21.2380 C   0  0  0  0  0  0  0  0  0  0  0  0
   10.9570    0.5990   23.1660 C   0  0  0  0  0  0  0  0  0  0  0  0
   10.7330   -0.6110   22.5030 C   0  0  0  0  0  0  0  0  0  0  0  0
   11.7380   -1.5860   21.8410 C   0  0  0  0  0  0  0  0  0  0  0  0
   12.9440   -0.8720   22.1250 C   0  0  0  0  0  0  0  0  0  0  0  0
   13.1800    0.3280   22.7780 C   0  0  0  0  0  0  0  0  0  0  0  0
   12.2030    1.0810   23.3060 C   0  0  0  0  0  0  0  0  0  0  0  0
    4.8540    1.7960   18.2850 N   0  0  0  0  0  0  0  0  0  0  0  0
    4.1870    1.5270   19.5310 C   0  0  0  0  0  0  0  0  0  0  0  0
    4.6360    0.4760   20.3730 C   0  0  0  0  0  0  0  0  0  0  0  0
    5.7350   -0.3490   20.0400 C   0  0  0  0  0  0  0  0  0  0  0  0
    6.3940   -0.1120   18.8350 C   0  0  0  0  0  0  0  0  0  0  0  0
    5.8780    1.0240   17.9760 C   0  0  0  0  0  0  0  0  0  0  0  0
    2.9960    2.3550   19.9700 C   0  0  0  0  0  0  0  0  0  0  0  0
    2.3310    2.0410   21.2850 C   0  0  0  0  0  0  0  0  0  0  0  0
    2.8430    0.9960   22.0440 C   0  0  0  0  0  0  0  0  0  0  0  0
    3.9420    0.2540   21.6040 C   0  0  0  0  0  0  0  0  0  0  0  0
  2  3  1  0
  4  7  1  0
  1  8  1  0
  7  8  1  0
  1  9  1  0
  5  9  2  0
  1 10  1  0
  4 10  1  0
 10 11  2  0
 12 13  3  0
  3 14  1  0
  4 15  1  0
 14 15  2  0
 13 16  1  0
 15 16  1  0
 16 17  2  0
 17 18  1  0
 14 19  1  0
 18 19  2  0
 20 21  2  0
 21 22  1  0
  9 23  1  0
 22 23  2  0
 23 24  1  0
  6 25  1  0
 20 25  1  0
 24 25  2  0
 21 26  1  0
 26 27  2  0
 27 28  1  0
 22 29  1  0
 28 29  2  0
M  END
