x2912-x1493
     RDKit          3D

 34 36  0  0  0  0  0  0  0  0999 V2000
    7.1340   -0.3640   21.1940 N   0  0  0  0  0  0  0  0  0  0  0  0
    8.1170   -0.9210   23.8860 C   0  0  0  0  0  0  0  0  0  0  0  0
    8.7430    1.2470   21.2050 O   0  0  0  0  0  0  0  0  0  0  0  0
    8.7510   -0.9460   22.5260 C   0  0  1  0  0  0  0  0  0  0  0  0
    8.1390    0.0610   21.5610 C   0  0  0  0  0  0  0  0  0  0  0  0
   13.6760   -3.2240   20.5920 N   0  0  0  0  0  0  0  0  0  0  0  0
    4.6570    1.5480   21.6350 C   0  0  0  0  0  0  0  0  0  0  0  0
   13.1600   -2.2060   21.3500 C   0  0  0  0  0  0  0  0  0  0  0  0
    4.8180   -6.2490   26.0420 C   0  0  0  0  0  0  0  0  0  0  0  0
    7.1560   -5.4840   26.2890 O   0  0  0  0  0  0  0  0  0  0  0  0
    5.9390   -5.5780   25.5340 C   0  0  0  0  0  0  0  0  0  0  0  0
    5.3190   -4.6790   19.9410 O   0  0  0  0  0  0  0  0  0  0  0  0
    6.3740   -4.3600   20.4700 C   0  0  0  0  0  0  0  0  0  0  0  0
    7.2760   -3.3280   19.7840 C   0  0  0  0  0  0  0  0  0  0  0  0
    8.2270   -2.2640   24.5220 C   0  0  0  0  0  0  0  0  0  0  0  0
    7.0520   -2.9410   24.7670 C   0  0  0  0  0  0  0  0  0  0  0  0
    6.2860    0.5850   17.6320 N   0  0  0  0  0  0  0  0  0  0  0  0
    5.1580    1.4540   17.9070 C   0  0  0  0  0  0  0  0  0  0  0  0
    4.7020    1.7080   19.1950 C   0  0  0  0  0  0  0  0  0  0  0  0
    5.2550    1.1770   20.3640 C   0  0  0  0  0  0  0  0  0  0  0  0
    6.4600    0.2480   20.1320 C   0  0  0  0  0  0  0  0  0  0  0  0
    6.8700    0.0350   18.6810 C   0  0  0  0  0  0  0  0  0  0  0  0
   10.6300    0.4240   23.5570 C   0  0  0  0  0  0  0  0  0  0  0  0
   12.1180    0.6420   23.6630 C   0  0  0  0  0  0  0  0  0  0  0  0
   12.9310   -0.2010   22.9500 C   0  0  0  0  0  0  0  0  0  0  0  0
   12.4250   -1.2240   22.1600 C   0  0  0  0  0  0  0  0  0  0  0  0
   11.0710   -1.4050   22.0750 C   0  0  0  0  0  0  0  0  0  0  0  0
   10.1880   -0.6110   22.7440 C   0  0  0  0  0  0  0  0  0  0  0  0
    5.7410   -4.9930   24.1840 N   0  0  0  0  0  0  0  0  0  0  0  0
    6.4520   -3.7800   23.6780 C   0  0  2  0  0  0  0  0  0  0  0  0
    7.4170   -4.2620   22.7920 C   0  0  0  0  0  0  0  0  0  0  0  0
    6.7370   -4.9560   21.6800 N   0  0  0  0  0  0  0  0  0  0  0  0
    6.2360   -6.1440   22.1170 C   0  0  0  0  0  0  0  0  0  0  0  0
    5.3070   -5.9480   23.1590 C   0  0  0  0  0  0  0  0  0  0  0  0
  4  2  1  1
  1  5  1  0
  3  5  2  0
  4  5  1  0
  6  8  3  0
  9 11  1  0
 10 11  2  0
 12 13  2  0
 13 14  1  0
  2 15  1  0
 15 16  1  0
 17 18  2  0
 18 19  1  0
  7 20  1  0
 19 20  2  0
  1 21  1  0
 20 21  1  0
 17 22  1  0
 21 22  2  0
 23 24  2  0
 24 25  1  0
  8 26  1  0
 25 26  2  0
 26 27  1  0
  4 28  1  0
 23 28  1  0
 27 28  2  0
 11 29  1  0
 30 16  1  1
 29 30  1  0
 30 31  1  0
 13 32  1  0
 31 32  1  0
 32 33  1  0
 29 34  1  0
 33 34  1  0
M  END
