x2912-x1418
     RDKit          3D

 30 33  0  0  0  0  0  0  0  0999 V2000
    8.1270   -1.5150   24.1180 C   0  0  0  0  0  0  0  0  0  0  0  0
    7.0580    1.0470   21.9630 O   0  0  0  0  0  0  0  0  0  0  0  0
    8.6130   -0.6450   23.0760 C   0  0  0  0  0  0  0  0  0  0  0  0
    7.6060   -0.1780   22.0720 C   0  0  0  0  0  0  0  0  0  0  0  0
   13.6140   -3.0010   20.6620 N   0  0  0  0  0  0  0  0  0  0  0  0
   13.0240   -1.9770   21.4740 C   0  0  0  0  0  0  0  0  0  0  0  0
    7.2430   -2.9310   18.7420 C   0  0  0  0  0  0  0  0  0  0  0  0
    5.4750   -4.1160   19.7790 O   0  0  0  0  0  0  0  0  0  0  0  0
    6.2610   -3.1520   19.9120 C   0  0  0  0  0  0  0  0  0  0  0  0
    9.5660   -3.2750   23.8380 C   0  0  0  0  0  0  0  0  0  0  0  0
   10.6880    0.7670   23.7600 C   0  0  0  0  0  0  0  0  0  0  0  0
   12.0740    0.9310   23.6680 C   0  0  0  0  0  0  0  0  0  0  0  0
   12.8330    0.0320   22.9240 C   0  0  0  0  0  0  0  0  0  0  0  0
   12.1850   -1.0040   22.2910 C   0  0  0  0  0  0  0  0  0  0  0  0
   10.8410   -1.1460   22.3880 C   0  0  0  0  0  0  0  0  0  0  0  0
   10.0630   -0.2870   23.1080 C   0  0  0  0  0  0  0  0  0  0  0  0
    6.2710   -2.2990   21.0920 N   0  0  0  0  0  0  0  0  0  0  0  0
    6.0670   -3.0030   22.2560 C   0  0  0  0  0  0  0  0  0  0  0  0
    7.2180   -3.7140   23.0700 C   0  0  0  0  0  0  0  0  0  0  0  0
    8.3650   -2.6670   23.1680 C   0  0  1  0  0  0  0  0  0  0  0  0
    8.6590   -2.2560   21.7190 C   0  0  0  0  0  0  0  0  0  0  0  0
    7.4810   -1.4300   21.1980 C   0  0  2  0  0  0  0  0  0  0  0  0
    4.9210    1.5100   21.5270 C   0  0  0  0  0  0  0  0  0  0  0  0
    5.9910    0.2380   17.9490 N   0  0  0  0  0  0  0  0  0  0  0  0
    4.9540    1.0180   18.0700 C   0  0  0  0  0  0  0  0  0  0  0  0
    4.5310    1.4850   19.2200 C   0  0  0  0  0  0  0  0  0  0  0  0
    5.2810    1.0810   20.2380 C   0  0  0  0  0  0  0  0  0  0  0  0
    6.3920    0.2650   20.0800 C   0  0  0  0  0  0  0  0  0  0  0  0
    6.9830   -0.3310   18.8790 C   0  0  0  0  0  0  0  0  0  0  0  0
    7.7480   -0.6980   19.9720 C   0  0  0  0  0  0  0  0  0  0  0  0
  1  3  1  0
  2  4  2  0
  3  4  1  0
  5  6  3  0
  7  9  1  0
  8  9  2  0
 11 12  2  0
 12 13  1  0
  6 14  1  0
 13 14  2  0
 14 15  1  0
  3 16  1  0
 11 16  1  0
 15 16  2  0
  9 17  1  0
 17 18  1  0
 18 19  1  0
  1 20  1  0
 20 10  1  1
 19 20  1  0
 20 21  1  0
  4 22  1  0
 17 22  1  0
 21 22  1  0
 24 25  2  0
 25 26  1  0
 23 27  1  0
 26 27  2  0
 27 28  1  0
 24 29  1  0
 28 29  2  0
 22 30  1  6
 29 30  1  0
M  END
