x2910-x0434
     RDKit          3D

 27 30  0  0  0  0  0  0  0  0999 V2000
    7.1840   -1.5650   21.7960 N   0  0  0  0  0  0  0  0  0  0  0  0
   10.2830    2.6140   23.6300 C   0  0  0  0  0  0  0  0  0  0  0  0
   10.0390    1.4050   23.5940 O   0  0  0  0  0  0  0  0  0  0  0  0
    9.4650   -1.2380   22.5810 N   0  0  0  0  0  0  0  0  0  0  0  0
    5.3610   -2.9120   20.7680 O   0  0  0  0  0  0  0  0  0  0  0  0
    6.2990    1.3790   16.7950 O   0  0  0  0  0  0  0  0  0  0  0  0
    9.1350   -2.5660   22.7490 C   0  0  0  0  0  0  0  0  0  0  0  0
    7.6260   -2.7070   22.5340 C   0  0  0  0  0  0  0  0  0  0  0  0
    6.0680   -1.6840   20.8580 C   0  0  0  0  0  0  0  0  0  0  0  0
    8.5040    0.4240   21.1830 O   0  0  0  0  0  0  0  0  0  0  0  0
    8.3850   -0.6560   21.7640 C   0  0  0  0  0  0  0  0  0  0  0  0
   11.0220    0.5900   23.1190 C   0  0  0  0  0  0  0  0  0  0  0  0
   10.8560   -0.7040   22.6110 C   0  0  0  0  0  0  0  0  0  0  0  0
   11.8850   -1.5100   22.1360 C   0  0  0  0  0  0  0  0  0  0  0  0
   13.1750   -1.0090   22.1500 C   0  0  0  0  0  0  0  0  0  0  0  0
   13.3630    0.2810   22.6450 C   0  0  0  0  0  0  0  0  0  0  0  0
   12.3230    1.0340   23.1080 C   0  0  0  0  0  0  0  0  0  0  0  0
    4.7980    1.7290   18.4210 N   0  0  0  0  0  0  0  0  0  0  0  0
    4.1430    1.5470   19.5410 C   0  0  0  0  0  0  0  0  0  0  0  0
    4.4990    0.3910   20.4780 C   0  0  0  0  0  0  0  0  0  0  0  0
    5.6460   -0.5200   20.0140 C   0  0  0  0  0  0  0  0  0  0  0  0
    6.3440   -0.2460   18.7100 C   0  0  0  0  0  0  0  0  0  0  0  0
    5.7740    0.9630   18.0160 C   0  0  0  0  0  0  0  0  0  0  0  0
    3.1080    2.4240   19.8750 C   0  0  0  0  0  0  0  0  0  0  0  0
    2.3150    2.2480   21.1860 C   0  0  0  0  0  0  0  0  0  0  0  0
    2.5880    1.2270   22.0830 C   0  0  0  0  0  0  0  0  0  0  0  0
    3.7020    0.2260   21.7890 C   0  0  0  0  0  0  0  0  0  0  0  0
  2  3  1  0
  4  7  1  0
  1  8  1  0
  7  8  1  0
  1  9  1  0
  5  9  2  0
  1 11  1  0
  4 11  1  0
 10 11  2  0
  3 12  1  0
  4 13  1  0
 12 13  2  0
 13 14  1  0
 14 15  2  0
 15 16  1  0
 12 17  1  0
 16 17  2  0
 18 19  2  0
 19 20  1  0
  9 21  1  0
 20 21  2  0
 21 22  1  0
  6 23  1  0
 18 23  1  0
 22 23  2  0
 19 24  1  0
 24 25  2  0
 25 26  1  0
 20 27  1  0
 26 27  2  0
M  END
