x2912-x2563
     RDKit          3D

 22 25  0  0  0  0  0  0  0  0999 V2000
    7.8740   -0.7300   20.5570 N   0  0  0  0  0  0  0  0  0  0  0  0
    7.8510   -0.1590   24.0870 C   0  0  0  0  0  0  0  0  0  0  0  0
    8.9690    1.3690   21.4710 O   0  0  0  0  0  0  0  0  0  0  0  0
    8.6700   -0.7400   22.9350 C   0  0  1  0  0  0  0  0  0  0  0  0
    8.5000    0.0250   21.6080 C   0  0  0  0  0  0  0  0  0  0  0  0
   13.9940   -1.5160   20.4150 N   0  0  0  0  0  0  0  0  0  0  0  0
   13.2740   -1.3660   21.4780 C   0  0  0  0  0  0  0  0  0  0  0  0
    4.7530    0.4790   18.6330 C   0  0  2  0  0  0  0  0  0  0  0  0
    4.8460    1.3910   17.8240 C   0  0  0  0  0  0  0  0  0  0  0  0
    5.6930    1.5490   19.0930 C   0  0  0  0  0  0  0  0  0  0  0  0
    5.8680    0.6370   20.1120 C   0  0  0  0  0  0  0  0  0  0  0  0
    6.6720   -0.2520   19.8480 C   0  0  0  0  0  0  0  0  0  0  0  0
    5.9140   -0.5280   18.7520 C   0  0  0  0  0  0  0  0  0  0  0  0
   10.5970   -0.4020   24.5850 C   0  0  0  0  0  0  0  0  0  0  0  0
   11.9700   -0.4210   24.8030 C   0  0  0  0  0  0  0  0  0  0  0  0
   12.8390   -0.7310   23.8200 C   0  0  0  0  0  0  0  0  0  0  0  0
   12.4070   -1.0400   22.5840 C   0  0  0  0  0  0  0  0  0  0  0  0
   11.0580   -1.0440   22.3190 C   0  0  0  0  0  0  0  0  0  0  0  0
   10.1260   -0.7260   23.3000 C   0  0  0  0  0  0  0  0  0  0  0  0
    3.6710    1.1060   19.8010 C   0  0  0  0  0  0  0  0  0  0  0  0
    3.9920    1.0730   21.1960 C   0  0  0  0  0  0  0  0  0  0  0  0
    5.0870    0.3770   21.2700 C   0  0  0  0  0  0  0  0  0  0  0  0
  4  2  1  1
  1  5  1  0
  3  5  2  0
  4  5  1  0
  6  7  3  0
  8  9  1  6
  8 10  1  0
  9 10  2  0
 10 11  1  0
  1 12  1  0
 11 12  1  0
  8 13  1  0
 12 13  2  0
 14 15  2  0
 15 16  1  0
  7 17  1  0
 16 17  2  0
 17 18  1  0
  4 19  1  0
 14 19  1  0
 18 19  2  0
  8 20  1  0
 20 21  2  0
 11 22  2  0
 21 22  1  0
M  END
