x2910-x0995
     RDKit          3D

 25 27  0  0  0  0  0  0  0  0999 V2000
    7.1920   -1.4120   21.9710 N   0  0  0  0  0  0  0  0  0  0  0  0
   10.4430    2.4770   23.5450 C   0  0  0  0  0  0  0  0  0  0  0  0
   10.1410    1.2790   23.6090 O   0  0  0  0  0  0  0  0  0  0  0  0
    9.6730   -1.2030   22.7910 O   0  0  0  0  0  0  0  0  0  0  0  0
    5.3020   -2.7370   20.9310 O   0  0  0  0  0  0  0  0  0  0  0  0
    6.2160    1.1530   16.6560 O   0  0  0  0  0  0  0  0  0  0  0  0
    9.3910   -2.2930   22.2960 C   0  0  0  0  0  0  0  0  0  0  0  0
    7.9000   -2.5770   22.4230 C   0  0  0  0  0  0  0  0  0  0  0  0
    6.0950   -1.5580   21.0540 C   0  0  0  0  0  0  0  0  0  0  0  0
   11.0370    0.5440   23.1720 C   0  0  0  0  0  0  0  0  0  0  0  0
   10.7900   -0.7700   22.7380 C   0  0  0  0  0  0  0  0  0  0  0  0
   11.8400   -1.5400   22.2620 C   0  0  0  0  0  0  0  0  0  0  0  0
   13.1050   -1.0480   22.2010 C   0  0  0  0  0  0  0  0  0  0  0  0
   13.3910    0.2420   22.6140 C   0  0  0  0  0  0  0  0  0  0  0  0
   12.4480    1.1100   23.1110 C   0  0  0  0  0  0  0  0  0  0  0  0
    4.9890    2.0440   18.3700 N   0  0  0  0  0  0  0  0  0  0  0  0
    4.5390    2.0180   19.7240 C   0  0  0  0  0  0  0  0  0  0  0  0
    4.9480    0.8340   20.6460 C   0  0  0  0  0  0  0  0  0  0  0  0
    5.7720   -0.3650   20.1660 C   0  0  0  0  0  0  0  0  0  0  0  0
    6.2230   -0.2460   18.7180 C   0  0  0  0  0  0  0  0  0  0  0  0
    5.8040    0.9730   17.9360 C   0  0  0  0  0  0  0  0  0  0  0  0
    3.7420    3.0750   20.1760 C   0  0  0  0  0  0  0  0  0  0  0  0
    3.2240    3.1700   21.6160 C   0  0  0  0  0  0  0  0  0  0  0  0
    3.6700    2.0240   22.5190 C   0  0  0  0  0  0  0  0  0  0  0  0
    4.4530    0.9780   22.0620 C   0  0  0  0  0  0  0  0  0  0  0  0
  2  3  1  0
  4  7  1  0
  1  8  1  0
  7  8  1  0
  1  9  1  0
  5  9  2  0
  3 10  1  0
  4 11  1  0
 10 11  2  0
 11 12  1  0
 12 13  2  0
 13 14  1  0
 10 15  1  0
 14 15  2  0
 16 17  2  0
 17 18  1  0
  9 19  1  0
 18 19  2  0
 19 20  1  0
  6 21  1  0
 16 21  1  0
 20 21  2  0
 17 22  1  0
 22 23  2  0
 23 24  1  0
 18 25  1  0
 24 25  2  0
M  END
