x2912-x3110
     RDKit          3D

 37 38  0  0  0  0  0  0  0  0999 V2000
    7.8700    0.8840   23.0650 N   0  0  0  0  0  0  0  0  0  0  0  0
   13.3560    5.0880   22.8480 C   0  0  0  0  0  0  0  0  0  0  0  0
   11.9190    3.1370   22.4880 O   0  0  0  0  0  0  0  0  0  0  0  0
   12.2710    4.4370   21.9910 C   0  0  0  0  0  0  0  0  0  0  0  0
    6.6580   -1.8030   22.1040 N   0  0  0  0  0  0  0  0  0  0  0  0
   10.6800    4.1230   24.1430 O   0  0  0  0  0  0  0  0  0  0  0  0
   10.8670    3.1370   23.4340 C   0  0  0  0  0  0  0  0  0  0  0  0
    8.2960    0.8730   20.8630 O   0  0  0  0  0  0  0  0  0  0  0  0
   10.1120    1.9470   23.4620 C   0  0  0  0  0  0  0  0  0  0  0  0
    4.7030   -3.0630   21.5450 O   0  0  0  0  0  0  0  0  0  0  0  0
    8.5730    2.0990   23.2780 C   0  0  0  0  0  0  0  0  0  0  0  0
    7.5780    0.4090   21.7470 C   0  0  0  0  0  0  0  0  0  0  0  0
    6.5040   -0.5130   21.3480 C   0  0  1  0  0  0  0  0  0  0  0  0
    5.9480   -2.9620   21.5650 C   0  0  0  0  0  0  0  0  0  0  0  0
    6.7140   -4.1430   20.9680 C   0  0  0  0  0  0  0  0  0  0  0  0
    8.1210   -3.6620   20.6050 C   0  0  0  0  0  0  0  0  0  0  0  0
   12.3250   -1.9490   24.7220 C   0  0  0  0  0  0  0  0  0  0  0  0
   12.4860   -0.7210   25.3320 C   0  0  0  0  0  0  0  0  0  0  0  0
   13.3570   -1.9220   23.6600 C   0  0  0  0  0  0  0  0  0  0  0  0
   12.7300   -3.1660   25.5580 C   0  0  0  0  0  0  0  0  0  0  0  0
    7.2630   -1.9100   23.4640 C   0  0  0  0  0  0  0  0  0  0  0  0
    4.5320    1.5030   21.3540 C   0  0  0  0  0  0  0  0  0  0  0  0
    6.4280    0.4760   17.7780 N   0  0  0  0  0  0  0  0  0  0  0  0
    5.3630    1.5100   17.8390 C   0  0  0  0  0  0  0  0  0  0  0  0
    4.7560    1.8320   19.0290 C   0  0  0  0  0  0  0  0  0  0  0  0
    5.1280    1.1840   20.2010 C   0  0  0  0  0  0  0  0  0  0  0  0
    6.1230    0.1940   20.1730 C   0  0  0  0  0  0  0  0  0  0  0  0
    6.7290   -0.1050   18.9330 C   0  0  0  0  0  0  0  0  0  0  0  0
   10.3830   -1.3680   21.7660 C   0  0  0  0  0  0  0  0  0  0  0  0
   11.3450   -1.5400   22.6650 C   0  0  0  0  0  0  0  0  0  0  0  0
   11.0490   -1.8500   23.9340 C   0  0  0  0  0  0  0  0  0  0  0  0
    9.7200   -2.0060   24.3270 C   0  0  0  0  0  0  0  0  0  0  0  0
    8.7270   -1.8200   23.3470 C   0  0  0  0  0  0  0  0  0  0  0  0
    9.0870   -1.5030   22.0760 C   0  0  0  0  0  0  0  0  0  0  0  0
   13.7590   -1.6080   20.5200 N   0  0  0  0  0  0  0  0  0  0  0  0
   13.4720   -1.2100   21.5050 C   0  0  0  0  0  0  0  0  0  0  0  0
   13.1930   -0.7450   22.7330 C   0  0  0  0  0  0  0  0  0  0  0  0
  2  4  1  0
  3  4  1  0
  3  7  1  0
  6  7  2  0
  7  9  1  0
  1 11  1  0
  9 11  1  0
  1 12  1  0
  8 12  2  0
  5 13  1  0
 13 12  1  6
  5 14  1  0
 10 14  2  0
 14 15  1  0
 15 16  1  0
 17 18  1  0
 17 19  1  0
 17 20  1  0
  5 21  1  0
 23 24  2  0
 24 25  1  0
 22 26  1  0
 25 26  2  0
 13 27  1  0
 26 27  1  0
 23 28  1  0
 27 28  2  0
 29 30  2  0
 17 31  1  0
 30 31  1  0
 31 32  2  0
 21 33  1  0
 32 33  1  0
 29 34  1  0
 33 34  2  0
 35 36  3  0
 19 37  1  0
 36 37  1  0
M  END
