x2910-x2646
     RDKit          3D

 28 31  0  0  0  0  0  0  0  0999 V2000
    7.3800   -1.4560   21.6880 N   0  0  0  0  0  0  0  0  0  0  0  0
    9.9550    2.5450   23.7250 C   0  0  0  0  0  0  0  0  0  0  0  0
    9.8680    1.1310   23.5450 O   0  0  0  0  0  0  0  0  0  0  0  0
    9.3870   -1.2190   22.4540 N   0  0  0  0  0  0  0  0  0  0  0  0
    5.3220   -2.6890   20.8000 O   0  0  0  0  0  0  0  0  0  0  0  0
    6.4630    1.3370   16.8630 O   0  0  0  0  0  0  0  0  0  0  0  0
    9.2310   -2.6550   22.3610 C   0  0  0  0  0  0  0  0  0  0  0  0
    7.7530   -2.7290   22.2940 C   0  0  0  0  0  0  0  0  0  0  0  0
    6.1240   -1.5120   20.8350 C   0  0  0  0  0  0  0  0  0  0  0  0
   13.1460   -2.2570   21.3580 Cl  0  0  0  0  0  0  0  0  0  0  0  0
    8.4120    0.5420   21.2900 O   0  0  0  0  0  0  0  0  0  0  0  0
    8.3710   -0.5940   21.7560 C   0  0  0  0  0  0  0  0  0  0  0  0
   10.8760    0.5850   23.1260 C   0  0  0  0  0  0  0  0  0  0  0  0
   10.7560   -0.6700   22.5140 C   0  0  0  0  0  0  0  0  0  0  0  0
   11.7330   -1.5290   21.9370 C   0  0  0  0  0  0  0  0  0  0  0  0
   13.0400   -0.7150   22.1680 C   0  0  0  0  0  0  0  0  0  0  0  0
   13.2120    0.5150   22.7610 C   0  0  0  0  0  0  0  0  0  0  0  0
   12.1870    1.2130   23.2530 C   0  0  0  0  0  0  0  0  0  0  0  0
    4.7870    1.8440   18.4290 N   0  0  0  0  0  0  0  0  0  0  0  0
    4.1670    1.5440   19.6130 C   0  0  0  0  0  0  0  0  0  0  0  0
    4.5810    0.4750   20.4150 C   0  0  0  0  0  0  0  0  0  0  0  0
    5.6560   -0.3270   20.0000 C   0  0  0  0  0  0  0  0  0  0  0  0
    6.3380   -0.0930   18.8030 C   0  0  0  0  0  0  0  0  0  0  0  0
    5.9090    0.9880   18.0210 C   0  0  0  0  0  0  0  0  0  0  0  0
    3.0980    2.3780   19.9600 C   0  0  0  0  0  0  0  0  0  0  0  0
    2.3890    2.1860   21.1330 C   0  0  0  0  0  0  0  0  0  0  0  0
    2.8220    1.0370   22.0250 C   0  0  0  0  0  0  0  0  0  0  0  0
    3.8920    0.2330   21.6340 C   0  0  0  0  0  0  0  0  0  0  0  0
  2  3  1  0
  4  7  1  0
  1  8  1  0
  7  8  1  0
  1  9  1  0
  5  9  2  0
  1 12  1  0
  4 12  1  0
 11 12  2  0
  3 13  1  0
  4 14  1  0
 13 14  2  0
 10 15  1  0
 14 15  1  0
 15 16  2  0
 16 17  1  0
 13 18  1  0
 17 18  2  0
 19 20  2  0
 20 21  1  0
  9 22  1  0
 21 22  2  0
 22 23  1  0
  6 24  1  0
 19 24  1  0
 23 24  2  0
 20 25  1  0
 25 26  2  0
 26 27  1  0
 21 28  1  0
 27 28  2  0
M  END
