x2912-x0771
     RDKit          3D

 42 45  0  0  0  0  0  0  0  0999 V2000
    0.4270   -1.3750   26.2690 C   0  0  0  0  0  0  0  0  0  0  0  0
    4.4910   -6.8250   25.6790 O   0  0  0  0  0  0  0  0  0  0  0  0
    6.0240   -5.0030   26.4950 O   0  0  0  0  0  0  0  0  0  0  0  0
    5.3160   -4.5660   19.9290 O   0  0  0  0  0  0  0  0  0  0  0  0
    1.8230   -5.9920   24.9590 C   0  0  0  0  0  0  0  0  0  0  0  0
    6.3900   -4.4680   20.5390 C   0  0  0  0  0  0  0  0  0  0  0  0
    7.3630   -3.4000   20.0430 C   0  0  0  0  0  0  0  0  0  0  0  0
    4.9810   -5.4660   25.6140 S   0  0  0  0  0  0  0  0  0  0  0  0
    7.1480   -0.5500   21.1130 N   0  0  0  0  0  0  0  0  0  0  0  0
    7.7340   -0.8850   23.9060 C   0  0  0  0  0  0  0  0  0  0  0  0
    8.9410    0.8700   21.4410 O   0  0  0  0  0  0  0  0  0  0  0  0
    8.5580   -1.0000   22.8040 C   0  0  1  0  0  0  0  0  0  0  0  0
    8.2810   -0.1210   21.7470 C   0  0  0  0  0  0  0  0  0  0  0  0
   14.0630   -1.4190   20.3450 N   0  0  0  0  0  0  0  0  0  0  0  0
    4.8660    1.1690   21.7040 C   0  0  0  0  0  0  0  0  0  0  0  0
   13.2190   -1.3350   21.4950 C   0  0  0  0  0  0  0  0  0  0  0  0
    6.3770   -3.0270   23.8510 C   0  0  0  0  0  0  0  0  0  0  0  0
    7.4760   -2.2360   24.5630 C   0  0  0  0  0  0  0  0  0  0  0  0
    1.5440   -2.3560   26.1150 C   0  0  0  0  0  0  0  0  0  0  0  0
    1.2890   -3.6530   25.6490 C   0  0  0  0  0  0  0  0  0  0  0  0
    2.2570   -4.6470   25.4710 C   0  0  0  0  0  0  0  0  0  0  0  0
    3.5810   -4.3310   25.7790 C   0  0  0  0  0  0  0  0  0  0  0  0
    3.9110   -3.0610   26.2460 C   0  0  0  0  0  0  0  0  0  0  0  0
    2.8590   -1.9890   26.4360 C   0  0  0  0  0  0  0  0  0  0  0  0
    6.7380   -5.3230   21.6170 N   0  0  0  0  0  0  0  0  0  0  0  0
    5.7330   -6.3300   21.9740 C   0  0  0  0  0  0  0  0  0  0  0  0
    4.7980   -5.8550   22.8800 C   0  0  0  0  0  0  0  0  0  0  0  0
    5.3950   -5.0790   24.0280 N   0  0  0  0  0  0  0  0  0  0  0  0
    6.5620   -4.4310   23.8150 C   0  0  1  0  0  0  0  0  0  0  0  0
    7.3000   -4.8600   22.7260 C   0  0  0  0  0  0  0  0  0  0  0  0
    6.2590    0.5430   17.6870 N   0  0  0  0  0  0  0  0  0  0  0  0
    5.2200    1.3290   17.9560 C   0  0  0  0  0  0  0  0  0  0  0  0
    4.7350    1.5570   19.2350 C   0  0  0  0  0  0  0  0  0  0  0  0
    5.3620    0.9430   20.2940 C   0  0  0  0  0  0  0  0  0  0  0  0
    6.4510    0.1180   20.0450 C   0  0  0  0  0  0  0  0  0  0  0  0
    6.8400   -0.0360   18.7310 C   0  0  0  0  0  0  0  0  0  0  0  0
   10.4710   -0.5460   24.5080 C   0  0  0  0  0  0  0  0  0  0  0  0
   11.8320   -0.4790   24.7830 C   0  0  0  0  0  0  0  0  0  0  0  0
   12.7380   -0.7390   23.7960 C   0  0  0  0  0  0  0  0  0  0  0  0
   12.2850   -1.0710   22.5460 C   0  0  0  0  0  0  0  0  0  0  0  0
   10.9480   -1.1520   22.2530 C   0  0  0  0  0  0  0  0  0  0  0  0
   10.0140   -0.8910   23.2170 C   0  0  0  0  0  0  0  0  0  0  0  0
  4  6  2  0
  6  7  1  0
  2  8  2  0
  3  8  2  0
 12 10  1  1
  9 13  1  0
 11 13  2  0
 12 13  1  0
 14 16  3  0
 10 18  1  0
 17 18  1  0
  1 19  1  0
 19 20  2  0
  5 21  1  0
 20 21  1  0
  8 22  1  0
 21 22  2  0
 22 23  1  0
 19 24  1  0
 23 24  2  0
  6 25  1  0
 25 26  1  0
 26 27  1  0
  8 28  1  0
 27 28  1  0
 29 17  1  6
 28 29  1  0
 25 30  1  0
 29 30  1  0
 31 32  2  0
 32 33  1  0
 15 34  1  0
 33 34  2  0
  9 35  1  0
 34 35  1  0
 31 36  1  0
 35 36  2  0
 37 38  2  0
 38 39  1  0
 16 40  1  0
 39 40  2  0
 40 41  1  0
 12 42  1  0
 37 42  1  0
 41 42  2  0
M  END
