x2912-x1412
     RDKit          3D

 35 39  0  0  0  0  0  0  0  0999 V2000
    7.1900   -0.4940   21.2740 N   0  0  0  0  0  0  0  0  0  0  0  0
    8.7300   -1.7860   23.7050 C   0  0  0  0  0  0  0  0  0  0  0  0
    8.1410    1.4010   21.9360 O   0  0  0  0  0  0  0  0  0  0  0  0
    8.8760   -0.9260   22.4850 C   0  0  1  0  0  0  0  0  0  0  0  0
    7.9730    0.0590   21.8530 C   0  0  0  0  0  0  0  0  0  0  0  0
   13.8140   -1.6220   20.5710 N   0  0  0  0  0  0  0  0  0  0  0  0
    4.5360    1.4610   21.6050 C   0  0  0  0  0  0  0  0  0  0  0  0
   13.5090   -1.9340   21.8590 C   0  0  0  0  0  0  0  0  0  0  0  0
    7.2470   -2.9830   18.9040 C   0  0  0  0  0  0  0  0  0  0  0  0
    5.2950   -4.1330   19.6950 O   0  0  0  0  0  0  0  0  0  0  0  0
    6.2070   -3.3570   19.9660 C   0  0  0  0  0  0  0  0  0  0  0  0
    8.4220   -3.1690   24.1120 C   0  0  0  0  0  0  0  0  0  0  0  0
    6.3080    0.3710   17.8330 N   0  0  0  0  0  0  0  0  0  0  0  0
    5.2160    1.1820   17.9200 C   0  0  0  0  0  0  0  0  0  0  0  0
    4.6880    1.4890   19.1760 C   0  0  0  0  0  0  0  0  0  0  0  0
    5.2660    0.9800   20.3270 C   0  0  0  0  0  0  0  0  0  0  0  0
    6.3650    0.1640   20.2210 C   0  0  0  0  0  0  0  0  0  0  0  0
    6.8500   -0.1160   18.9770 C   0  0  0  0  0  0  0  0  0  0  0  0
   10.6260    1.0620   23.1470 C   0  0  0  0  0  0  0  0  0  0  0  0
   12.1120    1.4410   23.2240 C   0  0  0  0  0  0  0  0  0  0  0  0
   13.0900    0.3630   22.7790 C   0  0  0  0  0  0  0  0  0  0  0  0
   12.5680   -0.9570   22.3040 C   0  0  0  0  0  0  0  0  0  0  0  0
   11.1340   -1.2420   22.2670 C   0  0  0  0  0  0  0  0  0  0  0  0
   10.2410   -0.3220   22.6510 C   0  0  0  0  0  0  0  0  0  0  0  0
    6.2810   -2.8840   21.2710 N   0  0  0  0  0  0  0  0  0  0  0  0
    7.0900   -1.8280   21.8730 C   0  0  1  0  0  0  0  0  0  0  0  0
    8.3720   -2.3450   22.2550 C   0  0  2  0  0  0  0  0  0  0  0  0
    8.3830   -3.8340   22.3760 N   0  0  0  0  0  0  0  0  0  0  0  0
    7.2800   -4.4920   22.7860 C   0  0  0  0  0  0  0  0  0  0  0  0
    6.1240   -3.9430   22.3120 C   0  0  0  0  0  0  0  0  0  0  0  0
    9.2000   -5.0740   25.5840 C   0  0  0  0  0  0  0  0  0  0  0  0
    8.4470   -3.9020   25.4290 C   0  0  0  0  0  0  0  0  0  0  0  0
    7.6250   -3.5200   26.9010 S   0  0  0  0  0  0  0  0  0  0  0  0
    8.2800   -4.8960   27.6640 C   0  0  0  0  0  0  0  0  0  0  0  0
    9.0940   -5.6400   26.8780 C   0  0  0  0  0  0  0  0  0  0  0  0
  2  4  1  0
  1  5  1  0
  3  5  2  0
  4  5  1  0
  6  8  3  0
  9 11  1  0
 10 11  2  0
  2 12  2  3
 13 14  2  0
 14 15  1  0
  7 16  1  0
 15 16  2  0
  1 17  1  0
 16 17  1  0
 13 18  1  0
 17 18  2  0
 19 20  2  0
 20 21  1  0
  8 22  1  0
 21 22  2  0
 22 23  1  0
  4 24  1  1
 19 24  1  0
 23 24  2  0
 11 25  1  0
 26  1  1  6
 25 26  1  0
  2 27  1  0
 26 27  1  0
 27 28  1  1
 28 29  1  0
 25 30  1  0
 29 30  1  0
 12 32  1  0
 31 32  2  0
 32 33  1  0
 33 34  1  0
 31 35  1  0
 34 35  2  0
M  END
