x2910-x2563
     RDKit          3D

 27 30  0  0  0  0  0  0  0  0999 V2000
    7.5490   -1.6270   21.4780 N   0  0  0  0  0  0  0  0  0  0  0  0
   10.2890    2.7000   23.6200 C   0  0  0  0  0  0  0  0  0  0  0  0
   10.0500    1.2960   23.5310 O   0  0  0  0  0  0  0  0  0  0  0  0
    9.2230   -1.0490   22.7550 N   0  0  0  0  0  0  0  0  0  0  0  0
    5.2930   -2.7050   20.9210 O   0  0  0  0  0  0  0  0  0  0  0  0
    6.4670    1.3320   16.8620 O   0  0  0  0  0  0  0  0  0  0  0  0
    8.9680   -2.4030   23.1870 C   0  0  0  0  0  0  0  0  0  0  0  0
    7.7570   -2.7440   22.4030 C   0  0  0  0  0  0  0  0  0  0  0  0
    6.1750   -1.5950   20.8090 C   0  0  0  0  0  0  0  0  0  0  0  0
    8.3820   -0.6610   21.7250 C   0  0  0  0  0  0  0  0  0  0  0  0
    8.4290    0.6100   21.0680 O   0  0  0  0  0  0  0  0  0  0  0  0
   10.9680    0.6010   23.1080 C   0  0  0  0  0  0  0  0  0  0  0  0
   10.6410   -0.6690   22.6620 C   0  0  0  0  0  0  0  0  0  0  0  0
   11.6200   -1.5300   22.1690 C   0  0  0  0  0  0  0  0  0  0  0  0
   13.0570   -1.0390   22.1280 C   0  0  0  0  0  0  0  0  0  0  0  0
   13.3800    0.2520   22.5770 C   0  0  0  0  0  0  0  0  0  0  0  0
   12.3840    1.0870   23.0670 C   0  0  0  0  0  0  0  0  0  0  0  0
    4.8050    1.8230   18.4480 N   0  0  0  0  0  0  0  0  0  0  0  0
    4.1970    1.5060   19.6380 C   0  0  0  0  0  0  0  0  0  0  0  0
    4.6150    0.4220   20.4320 C   0  0  0  0  0  0  0  0  0  0  0  0
    5.6860   -0.3860   20.0040 C   0  0  0  0  0  0  0  0  0  0  0  0
    6.3330   -0.1090   18.7990 C   0  0  0  0  0  0  0  0  0  0  0  0
    5.9160    0.9750   18.0210 C   0  0  0  0  0  0  0  0  0  0  0  0
    3.1330    2.3440   19.9990 C   0  0  0  0  0  0  0  0  0  0  0  0
    2.4270    2.1520   21.1720 C   0  0  0  0  0  0  0  0  0  0  0  0
    2.8600    0.9890   22.0530 C   0  0  0  0  0  0  0  0  0  0  0  0
    3.9230    0.1830   21.6490 C   0  0  0  0  0  0  0  0  0  0  0  0
  2  3  1  0
  4  7  1  0
  1  8  1  0
  7  8  1  0
  1  9  1  0
  5  9  2  0
  1 10  1  0
  4 10  1  0
 10 11  2  0
  3 12  1  0
  4 13  1  0
 12 13  2  0
 13 14  1  0
 14 15  2  0
 15 16  1  0
 12 17  1  0
 16 17  2  0
 18 19  2  0
 19 20  1  0
  9 21  1  0
 20 21  2  0
 21 22  1  0
  6 23  1  0
 18 23  1  0
 22 23  2  0
 19 24  1  0
 24 25  2  0
 25 26  1  0
 20 27  1  0
 26 27  2  0
M  END
