x2912-x2910
     RDKit          3D

 31 34  0  0  0  0  0  0  0  0999 V2000
    7.6340   -1.7780   21.3780 N   0  0  0  0  0  0  0  0  0  0  0  0
   10.1350    2.6400   23.7090 C   0  0  0  0  0  0  0  0  0  0  0  0
   10.0200    1.4330   23.8980 O   0  0  0  0  0  0  0  0  0  0  0  0
    9.2800   -0.8940   22.9260 C   0  0  2  0  0  0  0  0  0  0  0  0
    5.4220   -2.5230   21.1870 O   0  0  0  0  0  0  0  0  0  0  0  0
    6.3370    1.2260   16.9570 O   0  0  0  0  0  0  0  0  0  0  0  0
    9.1840   -2.4220   22.9780 C   0  0  0  0  0  0  0  0  0  0  0  0
    8.0330   -2.7890   22.3330 C   0  0  0  0  0  0  0  0  0  0  0  0
    6.2820   -1.6840   20.9480 C   0  0  0  0  0  0  0  0  0  0  0  0
    8.5260   -0.2590   24.0420 C   0  0  0  0  0  0  0  0  0  0  0  0
    8.3790    0.5720   21.1720 O   0  0  0  0  0  0  0  0  0  0  0  0
    8.3980   -0.5310   21.7120 C   0  0  0  0  0  0  0  0  0  0  0  0
    3.7610    1.2800   20.6880 C   0  0  0  0  0  0  0  0  0  0  0  0
   13.5750   -2.9180   20.7290 N   0  0  0  0  0  0  0  0  0  0  0  0
   12.5920   -2.2090   21.5000 C   0  0  0  0  0  0  0  0  0  0  0  0
   11.0890    0.6920   23.3010 C   0  0  0  0  0  0  0  0  0  0  0  0
   10.7430   -0.5420   22.7670 C   0  0  0  0  0  0  0  0  0  0  0  0
   11.5260   -1.5250   22.0940 C   0  0  0  0  0  0  0  0  0  0  0  0
   12.8110   -0.8970   22.1320 C   0  0  0  0  0  0  0  0  0  0  0  0
   13.2860    0.2980   22.6250 C   0  0  0  0  0  0  0  0  0  0  0  0
   12.3250    1.2000   23.2790 C   0  0  0  0  0  0  0  0  0  0  0  0
    4.8270    1.7410   18.4820 N   0  0  0  0  0  0  0  0  0  0  0  0
    4.2230    1.5230   19.6530 C   0  0  0  0  0  0  0  0  0  0  0  0
    4.6410    0.3680   20.6090 C   0  0  0  0  0  0  0  0  0  0  0  0
    5.7810   -0.5100   20.1250 C   0  0  0  0  0  0  0  0  0  0  0  0
    6.3220   -0.1780   18.8810 C   0  0  0  0  0  0  0  0  0  0  0  0
    5.8190    0.9120   18.1450 C   0  0  0  0  0  0  0  0  0  0  0  0
    3.1420    2.4020   20.0340 C   0  0  0  0  0  0  0  0  0  0  0  0
    2.4940    2.2090   21.2370 C   0  0  0  0  0  0  0  0  0  0  0  0
    2.9460    1.1830   21.9760 C   0  0  0  0  0  0  0  0  0  0  0  0
    3.9280    0.2350   21.8380 C   0  0  0  0  0  0  0  0  0  0  0  0
  2  3  1  0
  4  7  1  0
  1  8  1  0
  7  8  1  0
  1  9  1  0
  5  9  2  0
  4 10  1  1
  1 12  1  0
  4 12  1  0
 11 12  2  0
 14 15  3  0
  3 16  1  0
  4 17  1  0
 16 17  2  0
 15 18  1  0
 17 18  1  0
 18 19  2  0
 19 20  1  0
 16 21  1  0
 20 21  2  0
 22 23  2  0
 23 24  1  0
  9 25  1  0
 24 25  2  0
 25 26  1  0
  6 27  1  0
 22 27  1  0
 26 27  2  0
 23 28  1  0
 28 29  2  0
 13 30  1  0
 29 30  1  0
 24 31  1  0
 30 31  2  0
M  END
