x2910-x2581
     RDKit          3D

 42 47  0  0  0  0  0  0  0  0999 V2000
    7.4120   -1.7670   21.4590 N   0  0  0  0  0  0  0  0  0  0  0  0
   11.1620    2.4320   23.9320 C   0  0  0  0  0  0  0  0  0  0  0  0
   10.7460    1.1660   24.4140 O   0  0  0  0  0  0  0  0  0  0  0  0
    5.1080   -2.7620   20.9980 O   0  0  0  0  0  0  0  0  0  0  0  0
    6.4580    1.2920   16.8710 O   0  0  0  0  0  0  0  0  0  0  0  0
    8.7860   -2.0070   23.4690 C   0  0  0  0  0  0  0  0  0  0  0  0
    7.7280   -2.6190   22.6050 C   0  0  0  0  0  0  0  0  0  0  0  0
    6.0370   -1.6980   20.8300 C   0  0  0  0  0  0  0  0  0  0  0  0
   10.4100    3.3150   21.8130 N   0  0  0  0  0  0  0  0  0  0  0  0
   11.1680    3.5420   22.8990 C   0  0  0  0  0  0  0  0  0  0  0  0
   11.8490    4.7860   22.9130 C   0  0  0  0  0  0  0  0  0  0  0  0
   10.5530   -0.0450   22.9670 C   0  0  0  0  0  0  0  0  0  0  0  0
   11.0440   -0.7700   21.9140 C   0  0  0  0  0  0  0  0  0  0  0  0
   12.4570   -1.3240   21.9030 C   0  0  0  0  0  0  0  0  0  0  0  0
   13.3290   -1.1000   22.9310 C   0  0  0  0  0  0  0  0  0  0  0  0
   12.6300   -0.7360   24.0750 C   0  0  0  0  0  0  0  0  0  0  0  0
   11.3110   -0.2410   24.1250 C   0  0  0  0  0  0  0  0  0  0  0  0
    4.8270    1.8180   18.4120 N   0  0  0  0  0  0  0  0  0  0  0  0
    4.1920    1.4920   19.6370 C   0  0  0  0  0  0  0  0  0  0  0  0
    4.6070    0.3450   20.4160 C   0  0  0  0  0  0  0  0  0  0  0  0
    5.6570   -0.5490   20.0270 C   0  0  0  0  0  0  0  0  0  0  0  0
    6.3280   -0.2870   18.8230 C   0  0  0  0  0  0  0  0  0  0  0  0
    5.8900    0.9260   18.0210 C   0  0  0  0  0  0  0  0  0  0  0  0
    3.0500    2.3770   20.1370 C   0  0  0  0  0  0  0  0  0  0  0  0
    2.4150    2.0000   21.4410 C   0  0  0  0  0  0  0  0  0  0  0  0
    2.8730    0.9020   22.1220 C   0  0  0  0  0  0  0  0  0  0  0  0
    3.9080    0.1130   21.6440 C   0  0  0  0  0  0  0  0  0  0  0  0
    9.1410    2.1020   22.3260 N   0  0  0  0  0  0  0  0  0  0  0  0
   10.2750    1.5350   23.0320 C   0  0  0  0  0  0  0  0  0  0  0  0
    9.1560   -0.6600   22.9040 C   0  0  0  0  0  0  0  0  0  0  0  0
    8.1100   -0.0190   22.2180 C   0  0  0  0  0  0  0  0  0  0  0  0
    8.3140    1.1920   21.5640 C   0  0  0  0  0  0  0  0  0  0  0  0
    9.8820    6.3800   22.8530 C   0  0  0  0  0  0  0  0  0  0  0  0
    9.0800    7.5850   23.2990 C   0  0  0  0  0  0  0  0  0  0  0  0
    9.6380    8.4300   24.4360 C   0  0  0  0  0  0  0  0  0  0  0  0
   10.9700    8.0430   25.0860 C   0  0  0  0  0  0  0  0  0  0  0  0
   11.7190    6.8020   24.5740 C   0  0  0  0  0  0  0  0  0  0  0  0
   11.1020    6.0110   23.4320 C   0  0  0  0  0  0  0  0  0  0  0  0
    8.9390    9.5610   24.8760 C   0  0  0  0  0  0  0  0  0  0  0  0
    9.4600   10.4450   26.0050 C   0  0  0  0  0  0  0  0  0  0  0  0
   10.7830   10.0690   26.6640 C   0  0  0  0  0  0  0  0  0  0  0  0
   11.4980    8.8110   26.1280 C   0  0  0  0  0  0  0  0  0  0  0  0
  2  3  1  0
  1  7  1  0
  6  7  1  0
  1  8  1  0
  4  8  2  0
  2 10  2  3
  9 10  1  0
 10 11  1  0
 12 13  1  0
 13 14  2  0
 14 15  1  0
 15 16  1  0
 12 17  1  0
 16 17  2  0
 18 19  2  0
 19 20  1  0
  8 21  1  0
 20 21  2  0
 21 22  1  0
  5 23  1  0
 18 23  1  0
 22 23  2  0
 19 24  1  0
 24 25  2  0
 25 26  1  0
 20 27  1  0
 26 27  2  0
  2 29  1  0
 12 29  1  0
 28 29  2  0
  6 30  1  0
 12 30  1  0
 30 31  2  0
 28 32  1  0
 31 32  1  0
 33 34  2  0
 34 35  1  0
 35 36  2  0
 36 37  1  0
 11 38  1  0
 33 38  1  0
 37 38  2  0
 35 39  1  0
 39 40  2  0
 40 41  1  0
 36 42  1  0
 41 42  2  0
M  END
