x2912-x2776
     RDKit          3D

 38 40  0  0  0  0  0  0  0  0999 V2000
    6.8270   -1.5480   22.1290 N   0  0  0  0  0  0  0  0  0  0  0  0
    6.7360   -4.7510   20.4920 C   0  0  0  0  0  0  0  0  0  0  0  0
    4.8240   -3.0190   21.2800 O   0  0  0  0  0  0  0  0  0  0  0  0
    6.9360   -4.0630   21.6320 C   0  0  0  0  0  0  0  0  0  0  0  0
    7.6670    1.8740   23.0530 N   0  0  0  0  0  0  0  0  0  0  0  0
    8.9960    0.7730   21.4260 O   0  0  0  0  0  0  0  0  0  0  0  0
    6.0920   -2.8090   21.6590 C   0  0  0  0  0  0  0  0  0  0  0  0
   10.9370    6.5650   23.7510 O   0  0  0  0  0  0  0  0  0  0  0  0
    6.6770   -0.0840   21.6880 C   0  0  1  0  0  0  0  0  0  0  0  0
   11.9580   -2.8010   25.1490 O   0  0  0  0  0  0  0  0  0  0  0  0
    7.9130    0.8340   21.9940 C   0  0  0  0  0  0  0  0  0  0  0  0
   10.5510    1.7050   23.9640 C   0  0  0  0  0  0  0  0  0  0  0  0
   11.8090    6.4740   24.8770 C   0  0  0  0  0  0  0  0  0  0  0  0
   11.4190   -1.4770   24.8990 C   0  0  1  0  0  0  0  0  0  0  0  0
   12.5050   -0.7700   24.3670 C   0  0  0  0  0  0  0  0  0  0  0  0
   13.3730   -2.9080   25.4200 C   0  0  0  0  0  0  0  0  0  0  0  0
    4.3210    1.7160   21.4260 C   0  0  0  0  0  0  0  0  0  0  0  0
    6.3450    0.2610   17.8390 N   0  0  0  0  0  0  0  0  0  0  0  0
    5.2810    1.0860   17.8370 C   0  0  0  0  0  0  0  0  0  0  0  0
    4.6380    1.5410   18.9800 C   0  0  0  0  0  0  0  0  0  0  0  0
    5.1010    1.1430   20.2260 C   0  0  0  0  0  0  0  0  0  0  0  0
    6.1920    0.2970   20.3530 C   0  0  0  0  0  0  0  0  0  0  0  0
    6.7950   -0.1340   19.1780 C   0  0  0  0  0  0  0  0  0  0  0  0
    9.8820    3.0290   23.6500 C   0  0  0  0  0  0  0  0  0  0  0  0
   10.5520    4.2470   23.7770 C   0  0  0  0  0  0  0  0  0  0  0  0
   10.0220    5.4890   23.5200 C   0  0  0  0  0  0  0  0  0  0  0  0
    8.7100    5.5590   23.0820 C   0  0  0  0  0  0  0  0  0  0  0  0
    7.8980    4.4040   22.9040 C   0  0  0  0  0  0  0  0  0  0  0  0
    8.4100    3.0880   23.1760 C   0  0  0  0  0  0  0  0  0  0  0  0
   10.4170   -2.2610   21.6220 C   0  0  0  0  0  0  0  0  0  0  0  0
   11.0640   -2.0580   22.7260 C   0  0  0  0  0  0  0  0  0  0  0  0
   10.4050   -1.6450   23.8110 C   0  0  0  0  0  0  0  0  0  0  0  0
    8.9700   -1.4410   23.7720 C   0  0  0  0  0  0  0  0  0  0  0  0
    8.2770   -1.6760   22.5230 C   0  0  0  0  0  0  0  0  0  0  0  0
    9.0530   -2.0700   21.4960 C   0  0  0  0  0  0  0  0  0  0  0  0
   13.4650   -1.8150   20.8580 N   0  0  0  0  0  0  0  0  0  0  0  0
   13.3070   -0.8500   22.0010 C   0  0  0  0  0  0  0  0  0  0  0  0
   13.1820   -1.5020   23.2340 C   0  0  0  0  0  0  0  0  0  0  0  0
  2  4  1  0
  1  7  1  0
  3  7  2  0
  4  7  1  0
  1  9  1  0
  5 11  1  0
  6 11  2  0
  9 11  1  6
  8 13  1  0
 10 14  1  0
 14 15  1  6
 10 16  1  0
 18 19  2  0
 19 20  1  0
 17 21  1  0
 20 21  2  0
  9 22  1  0
 21 22  1  0
 18 23  1  0
 22 23  2  0
 12 24  1  0
 24 25  2  0
  8 26  1  0
 25 26  1  0
 26 27  2  0
 27 28  1  0
  5 29  1  0
 24 29  1  0
 28 29  2  0
 30 31  2  0
 14 32  1  0
 31 32  1  0
 32 33  2  0
  1 34  1  0
 33 34  1  0
 30 35  1  0
 34 35  2  0
 36 37  3  0
 15 38  1  0
 37 38  1  0
M  END
