x2910-x2562
     RDKit          3D

 33 37  0  0  0  0  0  0  0  0999 V2000
    7.5650   -1.5950   21.4660 N   0  0  0  0  0  0  0  0  0  0  0  0
    9.9270    2.7770   23.6510 C   0  0  0  0  0  0  0  0  0  0  0  0
    9.7900    1.4000   23.3110 O   0  0  0  0  0  0  0  0  0  0  0  0
    9.2700   -1.0490   22.7040 N   0  0  0  0  0  0  0  0  0  0  0  0
    5.2960   -2.6790   20.9620 O   0  0  0  0  0  0  0  0  0  0  0  0
    6.4650    1.3260   16.8590 O   0  0  0  0  0  0  0  0  0  0  0  0
    9.0860   -2.4340   23.0520 C   0  0  0  0  0  0  0  0  0  0  0  0
    7.8200   -2.7430   22.3440 C   0  0  0  0  0  0  0  0  0  0  0  0
    6.1820   -1.5710   20.8230 C   0  0  0  0  0  0  0  0  0  0  0  0
    8.3860   -0.6140   21.7250 C   0  0  0  0  0  0  0  0  0  0  0  0
    8.3800    0.6900   21.1300 O   0  0  0  0  0  0  0  0  0  0  0  0
   12.2000    2.6950   23.3950 O   0  0  0  0  0  0  0  0  0  0  0  0
   12.6830    6.6930   22.3480 O   0  0  0  0  0  0  0  0  0  0  0  0
   10.8150    0.7950   23.0310 C   0  0  0  0  0  0  0  0  0  0  0  0
   10.6530   -0.5430   22.6830 C   0  0  0  0  0  0  0  0  0  0  0  0
   11.7400   -1.3500   22.3470 C   0  0  0  0  0  0  0  0  0  0  0  0
   13.0990   -0.6860   22.3880 C   0  0  0  0  0  0  0  0  0  0  0  0
   13.2810    0.6670   22.7360 C   0  0  0  0  0  0  0  0  0  0  0  0
   12.1640    1.4630   23.0660 C   0  0  0  0  0  0  0  0  0  0  0  0
    4.7960    1.8210   18.4400 N   0  0  0  0  0  0  0  0  0  0  0  0
    4.1880    1.5080   19.6300 C   0  0  0  0  0  0  0  0  0  0  0  0
    4.6110    0.4300   20.4310 C   0  0  0  0  0  0  0  0  0  0  0  0
    5.6870   -0.3720   20.0070 C   0  0  0  0  0  0  0  0  0  0  0  0
    6.3340   -0.1020   18.8050 C   0  0  0  0  0  0  0  0  0  0  0  0
    5.9130    0.9750   18.0180 C   0  0  0  0  0  0  0  0  0  0  0  0
    3.1190    2.3410   19.9890 C   0  0  0  0  0  0  0  0  0  0  0  0
    2.4150    2.1490   21.1630 C   0  0  0  0  0  0  0  0  0  0  0  0
    2.8540    0.9950   22.0490 C   0  0  0  0  0  0  0  0  0  0  0  0
    3.9220    0.1930   21.6480 C   0  0  0  0  0  0  0  0  0  0  0  0
   12.5230    4.4510   21.6490 N   0  0  0  0  0  0  0  0  0  0  0  0
   13.3180    5.4430   22.1680 C   0  0  2  0  0  0  0  0  0  0  0  0
   13.5040    4.7340   23.4430 C   0  0  0  0  0  0  0  0  0  0  0  0
   13.1240    3.6250   22.7430 C   0  0  1  0  0  0  0  0  0  0  0  0
  2  3  1  0
  4  7  1  0
  1  8  1  0
  7  8  1  0
  1  9  1  0
  5  9  2  0
  1 10  1  0
  4 10  1  0
 10 11  2  0
  3 14  1  0
  4 15  1  0
 14 15  2  0
 15 16  1  0
 16 17  2  0
 17 18  1  0
 12 19  1  0
 14 19  1  0
 18 19  2  0
 20 21  2  0
 21 22  1  0
  9 23  1  0
 22 23  2  0
 23 24  1  0
  6 25  1  0
 20 25  1  0
 24 25  2  0
 21 26  1  0
 26 27  2  0
 27 28  1  0
 22 29  1  0
 28 29  2  0
 31 13  1  1
 30 31  1  0
 31 32  1  0
 33 12  1  1
 30 33  1  0
 32 33  1  0
M  END
