x2964-x0734
     RDKit          3D

 37 40  0  0  0  0  0  0  0  0999 V2000
    5.1850   -4.7470   26.2700 N   0  0  0  0  0  0  0  0  0  0  0  0
    4.5000   -5.5520   25.6220 O   0  0  0  0  0  0  0  0  0  0  0  0
    4.7630   -3.7010   26.7810 O   0  0  0  0  0  0  0  0  0  0  0  0
    5.0950   -4.1610   19.6460 O   0  0  0  0  0  0  0  0  0  0  0  0
    6.1870   -3.7350   19.9860 C   0  0  0  0  0  0  0  0  0  0  0  0
    7.1980   -3.1140   19.0120 C   0  0  0  0  0  0  0  0  0  0  0  0
    3.3040    1.9150   19.2860 N   0  0  0  0  0  0  0  0  0  0  0  0
    8.4590    1.1050   21.2100 O   0  0  0  0  0  0  0  0  0  0  0  0
   13.3510   -2.0670   21.2380 Cl  0  0  0  0  0  0  0  0  0  0  0  0
    7.1120   -0.6910   21.1510 N   0  0  0  0  0  0  0  0  0  0  0  0
    8.8790   -0.4570   22.6970 N   0  0  0  0  0  0  0  0  0  0  0  0
    8.1360   -0.0040   21.6740 C   0  0  0  0  0  0  0  0  0  0  0  0
    6.6110   -1.6850   21.9440 C   0  0  0  0  0  0  0  0  0  0  0  0
    6.6300   -4.9950   26.3050 C   0  0  0  0  0  0  0  0  0  0  0  0
    7.4070   -4.6910   25.0480 C   0  0  0  0  0  0  0  0  0  0  0  0
    8.7660   -4.9740   25.1750 C   0  0  0  0  0  0  0  0  0  0  0  0
    9.2760   -5.4850   26.3900 C   0  0  0  0  0  0  0  0  0  0  0  0
    8.4900   -5.7390   27.5390 C   0  0  0  0  0  0  0  0  0  0  0  0
    7.1170   -5.4890   27.5030 C   0  0  0  0  0  0  0  0  0  0  0  0
    6.5280   -3.8610   21.3170 N   0  0  0  0  0  0  0  0  0  0  0  0
    6.4970   -5.1290   21.7810 C   0  0  0  0  0  0  0  0  0  0  0  0
    6.2560   -5.2890   23.1130 C   0  0  0  0  0  0  0  0  0  0  0  0
    6.9320   -4.1950   23.8430 N   0  0  0  0  0  0  0  0  0  0  0  0
    7.8630   -3.5170   23.1010 C   0  0  0  0  0  0  0  0  0  0  0  0
    7.3730   -2.9630   21.8880 C   0  0  2  0  0  0  0  0  0  0  0  0
    4.4750    1.2710   19.2130 C   0  0  0  0  0  0  0  0  0  0  0  0
    5.1400    0.6300   20.2590 C   0  0  0  0  0  0  0  0  0  0  0  0
    6.3580   -0.0180   20.0810 C   0  0  0  0  0  0  0  0  0  0  0  0
    6.9300   -0.0350   18.8230 C   0  0  0  0  0  0  0  0  0  0  0  0
    6.4100    0.5470   17.7220 N   0  0  0  0  0  0  0  0  0  0  0  0
    5.2430    1.1700   17.9130 C   0  0  0  0  0  0  0  0  0  0  0  0
   10.6330    0.7770   23.5080 C   0  0  0  0  0  0  0  0  0  0  0  0
   12.1000    1.0440   23.5960 C   0  0  0  0  0  0  0  0  0  0  0  0
   13.0420    0.1170   22.8620 C   0  0  0  0  0  0  0  0  0  0  0  0
   12.4580   -0.9710   22.1250 C   0  0  0  0  0  0  0  0  0  0  0  0
   11.1160   -1.1700   22.0800 C   0  0  0  0  0  0  0  0  0  0  0  0
   10.1670   -0.2770   22.7790 C   0  0  0  0  0  0  0  0  0  0  0  0
  1  2  2  0
  1  3  1  0
  4  5  2  0
  5  6  1  0
  8 12  2  0
 10 12  1  0
 11 12  1  0
 10 13  1  0
  1 14  1  0
 14 15  2  0
 15 16  1  0
 16 17  2  0
 17 18  1  0
 14 19  1  0
 18 19  2  0
  5 20  1  0
 20 21  1  0
 21 22  1  0
 15 23  1  0
 22 23  1  0
 23 24  1  0
 25 13  1  1
 20 25  1  0
 24 25  1  0
  7 26  1  0
 26 27  2  0
 10 28  1  0
 27 28  1  0
 28 29  2  0
 29 30  1  0
 26 31  1  0
 30 31  2  0
 32 33  2  0
 33 34  1  0
  9 35  1  0
 34 35  2  0
 35 36  1  0
 11 37  1  0
 32 37  1  0
 36 37  2  0
M  CHG  2   1   1   3  -1
M  END
