x2964-x1334
     RDKit          3D

 34 38  0  0  0  0  0  0  0  0999 V2000
    3.3860    2.2360   19.7380 N   0  0  0  0  0  0  0  0  0  0  0  0
    8.6240    1.5540   21.2240 O   0  0  0  0  0  0  0  0  0  0  0  0
   13.3640   -2.0150   21.3730 Cl  0  0  0  0  0  0  0  0  0  0  0  0
    7.2070   -0.2910   21.0300 N   0  0  0  0  0  0  0  0  0  0  0  0
    8.8810   -0.3900   22.5030 N   0  0  0  0  0  0  0  0  0  0  0  0
    8.2480    0.4200   21.5560 C   0  0  0  0  0  0  0  0  0  0  0  0
    7.2940   -3.0540   18.7690 C   0  0  0  0  0  0  0  0  0  0  0  0
    5.4040   -4.2030   19.7470 O   0  0  0  0  0  0  0  0  0  0  0  0
    7.4010   -5.6800   28.3960 Cl  0  0  0  0  0  0  0  0  0  0  0  0
    6.3030   -3.3640   19.8870 C   0  0  0  0  0  0  0  0  0  0  0  0
    9.4430   -2.9910   23.9870 C   0  0  0  0  0  0  0  0  0  0  0  0
    4.5830    1.4810   19.3950 C   0  0  0  0  0  0  0  0  0  0  0  0
    5.4480    0.8570   20.4930 C   0  0  0  0  0  0  0  0  0  0  0  0
    6.5950    0.1360   20.1290 C   0  0  0  0  0  0  0  0  0  0  0  0
    7.0250   -0.0760   18.8110 C   0  0  0  0  0  0  0  0  0  0  0  0
    6.3150    0.4530   17.7540 N   0  0  0  0  0  0  0  0  0  0  0  0
    5.1080    1.2300   18.0070 C   0  0  0  0  0  0  0  0  0  0  0  0
   10.8500    0.9730   23.3590 C   0  0  0  0  0  0  0  0  0  0  0  0
   12.2080    1.1750   23.4540 C   0  0  0  0  0  0  0  0  0  0  0  0
   13.1210    0.2930   22.8720 C   0  0  0  0  0  0  0  0  0  0  0  0
   12.4890   -0.8490   22.1710 C   0  0  0  0  0  0  0  0  0  0  0  0
   11.1520   -1.0560   22.0780 C   0  0  0  0  0  0  0  0  0  0  0  0
   10.2760   -0.2120   22.6240 C   0  0  0  0  0  0  0  0  0  0  0  0
    6.4870   -2.6850   21.0730 N   0  0  0  0  0  0  0  0  0  0  0  0
    7.4970   -1.6250   21.1770 C   0  0  2  0  0  0  0  0  0  0  0  0
    8.4310   -1.7680   22.1990 C   0  0  2  0  0  0  0  0  0  0  0  0
    8.2130   -2.5450   23.2700 N   0  0  0  0  0  0  0  0  0  0  0  0
    7.4600   -3.6160   22.9740 C   0  0  0  0  0  0  0  0  0  0  0  0
    6.1800   -3.3600   22.2110 C   0  0  0  0  0  0  0  0  0  0  0  0
    9.8380   -5.3470   25.3070 C   0  0  0  0  0  0  0  0  0  0  0  0
    9.1780   -4.0060   25.0650 C   0  0  0  0  0  0  0  0  0  0  0  0
    7.9840   -3.7550   26.2720 S   0  0  0  0  0  0  0  0  0  0  0  0
    8.3000   -5.2300   27.0160 C   0  0  0  0  0  0  0  0  0  0  0  0
    9.3320   -5.9930   26.3890 C   0  0  0  0  0  0  0  0  0  0  0  0
  2  6  2  0
  4  6  1  0
  5  6  1  0
  7 10  1  0
  8 10  2  0
  1 12  1  0
 12 13  2  0
  4 14  1  0
 13 14  1  0
 14 15  2  0
 15 16  1  0
 12 17  1  0
 16 17  2  0
 18 19  2  0
 19 20  1  0
  3 21  1  0
 20 21  2  0
 21 22  1  0
  5 23  1  0
 18 23  1  0
 22 23  2  0
 10 24  1  0
 25  4  1  1
 24 25  1  0
 26  5  1  1
 25 26  1  0
 11 27  1  0
 26 27  1  0
 27 28  1  0
 24 29  1  0
 28 29  1  0
 11 31  1  0
 30 31  2  0
 31 32  1  0
  9 33  1  0
 32 33  1  0
 30 34  1  0
 33 34  2  0
M  END
