x2964-x2643
     RDKit          3D

 18 19  0  0  0  0  0  0  0  0999 V2000
    3.3000    2.1140   19.1750 N   0  0  0  0  0  0  0  0  0  0  0  0
    8.7370    1.4300   21.1880 O   0  0  0  0  0  0  0  0  0  0  0  0
   13.2150   -2.4000   21.3300 Cl  0  0  0  0  0  0  0  0  0  0  0  0
    7.1610   -0.3920   21.1420 N   0  0  0  0  0  0  0  0  0  0  0  0
    8.9470   -0.3600   22.6080 N   0  0  0  0  0  0  0  0  0  0  0  0
    8.2550    0.2480   21.6220 C   0  0  0  0  0  0  0  0  0  0  0  0
    4.4840    1.4280   19.1720 C   0  0  0  0  0  0  0  0  0  0  0  0
    5.0450    0.9220   20.3760 C   0  0  0  0  0  0  0  0  0  0  0  0
    6.3820    0.1800   20.1500 C   0  0  0  0  0  0  0  0  0  0  0  0
    6.9120    0.0670   18.7260 C   0  0  0  0  0  0  0  0  0  0  0  0
    6.3120    0.5800   17.6680 N   0  0  0  0  0  0  0  0  0  0  0  0
    5.1590    1.2360   17.8550 C   0  0  0  0  0  0  0  0  0  0  0  0
   10.7340    0.8380   23.4050 C   0  0  0  0  0  0  0  0  0  0  0  0
   12.2250    1.0000   23.5010 C   0  0  0  0  0  0  0  0  0  0  0  0
   13.1000   -0.0220   22.8480 C   0  0  0  0  0  0  0  0  0  0  0  0
   12.4100   -1.1580   22.1370 C   0  0  0  0  0  0  0  0  0  0  0  0
   11.0370   -1.2090   22.1100 C   0  0  0  0  0  0  0  0  0  0  0  0
   10.2440   -0.2650   22.7030 C   0  0  0  0  0  0  0  0  0  0  0  0
  2  6  2  0
  4  6  1  0
  5  6  1  0
  1  7  1  0
  7  8  2  0
  4  9  1  0
  8  9  1  0
  9 10  2  0
 10 11  1  0
  7 12  1  0
 11 12  2  0
 13 14  2  0
 14 15  1  0
  3 16  1  0
 15 16  2  0
 16 17  1  0
  5 18  1  0
 13 18  1  0
 17 18  2  0
M  END
