x2964-x2563
     RDKit          3D

 21 23  0  0  0  0  0  0  0  0999 V2000
    3.3930    2.6170   18.7500 N   0  0  0  0  0  0  0  0  0  0  0  0
    8.8410    1.4220   21.1350 O   0  0  0  0  0  0  0  0  0  0  0  0
   13.2770   -2.3330   21.3450 Cl  0  0  0  0  0  0  0  0  0  0  0  0
    7.7110   -0.5350   20.6540 N   0  0  0  0  0  0  0  0  0  0  0  0
    9.0060   -0.3640   22.5380 N   0  0  0  0  0  0  0  0  0  0  0  0
    8.5350    0.2580   21.4190 C   0  0  0  0  0  0  0  0  0  0  0  0
    4.4700    1.4530   19.5540 C   0  0  0  0  0  0  0  0  0  0  0  0
    5.2330    0.6960   20.5520 C   0  0  0  0  0  0  0  0  0  0  0  0
    6.5550    0.0280   20.3270 C   0  0  0  0  0  0  0  0  0  0  0  0
    6.9020    0.0150   18.9560 C   0  0  0  0  0  0  0  0  0  0  0  0
    6.1090    0.5600   17.9680 N   0  0  0  0  0  0  0  0  0  0  0  0
    5.0770    1.2880   18.1800 C   0  0  0  0  0  0  0  0  0  0  0  0
   10.8450    0.7060   23.4550 C   0  0  0  0  0  0  0  0  0  0  0  0
   12.2110    0.7850   23.5790 C   0  0  0  0  0  0  0  0  0  0  0  0
   13.0140   -0.1400   22.9440 C   0  0  0  0  0  0  0  0  0  0  0  0
   12.4330   -1.1520   22.1850 C   0  0  0  0  0  0  0  0  0  0  0  0
   11.0770   -1.2390   22.0600 C   0  0  0  0  0  0  0  0  0  0  0  0
   10.3050   -0.3130   22.6850 C   0  0  0  0  0  0  0  0  0  0  0  0
    3.2240    2.2150   20.0770 C   0  0  0  0  0  0  0  0  0  0  0  0
    3.3650    1.6100   21.3820 C   0  0  0  0  0  0  0  0  0  0  0  0
    4.4030    0.7900   21.7580 C   0  0  0  0  0  0  0  0  0  0  0  0
  2  6  2  0
  4  6  1  0
  5  6  1  0
  7  8  1  0
  4  9  1  0
  8  9  1  0
  9 10  2  0
 10 11  1  0
  7 12  2  0
 11 12  1  0
 13 14  2  0
 14 15  1  0
  3 16  1  0
 15 16  2  0
 16 17  1  0
  5 18  1  0
 13 18  1  0
 17 18  2  0
  1 19  1  0
  7 19  1  0
 19 20  2  0
  8 21  2  0
 20 21  1  0
M  END
