x2964-x0771
     RDKit          3D

 40 43  0  0  0  0  0  0  0  0999 V2000
    0.6350   -1.4590   26.0560 C   0  0  0  0  0  0  0  0  0  0  0  0
    4.5060   -6.8520   25.7710 O   0  0  0  0  0  0  0  0  0  0  0  0
    6.0700   -5.1850   26.8060 O   0  0  0  0  0  0  0  0  0  0  0  0
    5.7890   -5.2090   20.0210 O   0  0  0  0  0  0  0  0  0  0  0  0
    2.2970   -6.1520   25.0840 C   0  0  0  0  0  0  0  0  0  0  0  0
    6.3440   -4.2050   20.4190 C   0  0  0  0  0  0  0  0  0  0  0  0
    7.1990   -3.3250   19.5010 C   0  0  0  0  0  0  0  0  0  0  0  0
    5.1230   -5.5450   25.7770 S   0  0  0  0  0  0  0  0  0  0  0  0
    3.2040    2.0190   19.1610 N   0  0  0  0  0  0  0  0  0  0  0  0
    8.5200    1.0640   21.1860 O   0  0  0  0  0  0  0  0  0  0  0  0
   13.2770   -2.3540   21.2490 Cl  0  0  0  0  0  0  0  0  0  0  0  0
    7.0250   -0.7390   21.4090 N   0  0  0  0  0  0  0  0  0  0  0  0
    8.9120   -0.5530   22.8730 N   0  0  0  0  0  0  0  0  0  0  0  0
    8.2010    0.0290   21.7760 C   0  0  0  0  0  0  0  0  0  0  0  0
    5.6020   -2.4080   21.8790 C   0  0  0  0  0  0  0  0  0  0  0  0
    6.4590   -1.3560   22.2530 C   0  0  0  0  0  0  0  0  0  0  0  0
    1.7310   -2.4850   25.9640 C   0  0  0  0  0  0  0  0  0  0  0  0
    1.5340   -3.7770   25.5810 C   0  0  0  0  0  0  0  0  0  0  0  0
    2.5130   -4.7380   25.4980 C   0  0  0  0  0  0  0  0  0  0  0  0
    3.8260   -4.3150   25.8470 C   0  0  0  0  0  0  0  0  0  0  0  0
    4.2220   -3.0120   26.2590 C   0  0  0  0  0  0  0  0  0  0  0  0
    3.0310   -2.1100   26.2890 C   0  0  0  0  0  0  0  0  0  0  0  0
    6.0500   -3.8270   21.8660 C   0  0  0  0  0  0  0  0  0  0  0  0
    5.0310   -4.7270   22.2110 C   0  0  0  0  0  0  0  0  0  0  0  0
    5.2740   -5.8090   23.0510 C   0  0  0  0  0  0  0  0  0  0  0  0
    5.9230   -5.3360   24.3000 N   0  0  0  0  0  0  0  0  0  0  0  0
    6.7740   -4.1970   24.0900 C   0  0  0  0  0  0  0  0  0  0  0  0
    7.2400   -4.0700   22.7790 C   0  0  0  0  0  0  0  0  0  0  0  0
    4.4330    1.2690   19.1420 C   0  0  0  0  0  0  0  0  0  0  0  0
    5.0360    0.6420   20.3710 C   0  0  0  0  0  0  0  0  0  0  0  0
    6.3330   -0.1310   20.2950 C   0  0  0  0  0  0  0  0  0  0  0  0
    6.9020   -0.1910   18.8820 C   0  0  0  0  0  0  0  0  0  0  0  0
    6.2820    0.4220   17.7960 N   0  0  0  0  0  0  0  0  0  0  0  0
    5.1350    1.0920   17.9680 C   0  0  0  0  0  0  0  0  0  0  0  0
   10.8040    0.8060   23.4950 C   0  0  0  0  0  0  0  0  0  0  0  0
   12.2890    1.0420   23.4440 C   0  0  0  0  0  0  0  0  0  0  0  0
   13.1940    0.0630   22.7320 C   0  0  0  0  0  0  0  0  0  0  0  0
   12.4990   -1.1300   22.1080 C   0  0  0  0  0  0  0  0  0  0  0  0
   11.1620   -1.2740   22.1940 C   0  0  0  0  0  0  0  0  0  0  0  0
   10.2540   -0.3200   22.8800 C   0  0  0  0  0  0  0  0  0  0  0  0
  4  6  2  0
  6  7  1  0
  2  8  2  0
  3  8  2  0
 10 14  2  0
 12 14  1  0
 13 14  1  0
 12 16  1  0
 15 16  1  0
  1 17  1  0
 17 18  2  0
  5 19  1  0
 18 19  1  0
  8 20  1  0
 19 20  2  0
 20 21  1  0
 17 22  1  0
 21 22  2  0
 23  6  1  0
 15 23  1  0
 23 24  1  0
 24 25  1  0
  8 26  1  0
 25 26  1  0
 26 27  1  0
 23 28  1  0
 27 28  1  0
  9 29  1  0
 29 30  2  0
 12 31  1  0
 30 31  1  0
 31 32  2  0
 32 33  1  0
 29 34  1  0
 33 34  2  0
 35 36  2  0
 36 37  1  0
 11 38  1  0
 37 38  2  0
 38 39  1  0
 13 40  1  0
 35 40  1  0
 39 40  2  0
M  END
