x2964-x0755
     RDKit          3D

 41 44  0  0  0  0  0  0  0  0999 V2000
    4.5050   -6.2080   26.8290 O   0  0  0  0  0  0  0  0  0  0  0  0
    6.3090   -4.5760   26.7940 O   0  0  0  0  0  0  0  0  0  0  0  0
    5.6480   -5.4740   19.9710 O   0  0  0  0  0  0  0  0  0  0  0  0
    6.2990   -4.6280   20.5420 C   0  0  0  0  0  0  0  0  0  0  0  0
    7.1090   -3.5450   19.7850 C   0  0  0  0  0  0  0  0  0  0  0  0
    2.1550   -5.5150   25.7120 F   0  0  0  0  0  0  0  0  0  0  0  0
    5.6380   -2.1240   26.2170 F   0  0  0  0  0  0  0  0  0  0  0  0
    5.2060   -5.1840   26.0910 S   0  0  0  0  0  0  0  0  0  0  0  0
    2.5350   -4.2320   25.7940 C   0  0  0  0  0  0  0  0  0  0  0  0
    4.0230   -3.8890   25.9780 C   0  0  0  0  0  0  0  0  0  0  0  0
    4.3790   -2.5410   26.0580 C   0  0  0  0  0  0  0  0  0  0  0  0
    3.2630   -1.4900   25.9630 C   0  0  0  0  0  0  0  0  0  0  0  0
    1.9300   -1.8780   25.8020 C   0  0  0  0  0  0  0  0  0  0  0  0
    1.5690   -3.2310   25.7150 C   0  0  0  0  0  0  0  0  0  0  0  0
    6.1320   -4.7150   22.0530 C   0  0  0  0  0  0  0  0  0  0  0  0
    7.3100   -5.0590   22.7020 C   0  0  0  0  0  0  0  0  0  0  0  0
    7.1980   -4.9590   24.1060 C   0  0  0  0  0  0  0  0  0  0  0  0
    5.7830   -5.2510   24.5090 N   0  0  0  0  0  0  0  0  0  0  0  0
    5.0320   -6.0910   23.6700 C   0  0  0  0  0  0  0  0  0  0  0  0
    4.9500   -5.5290   22.3530 C   0  0  0  0  0  0  0  0  0  0  0  0
    3.2210    2.3220   19.0140 N   0  0  0  0  0  0  0  0  0  0  0  0
    8.7360    1.6910   21.1660 O   0  0  0  0  0  0  0  0  0  0  0  0
   13.3450   -2.0550   21.2610 Cl  0  0  0  0  0  0  0  0  0  0  0  0
    7.0480   -0.1840   21.3220 N   0  0  0  0  0  0  0  0  0  0  0  0
    8.8600   -0.1190   22.9480 N   0  0  0  0  0  0  0  0  0  0  0  0
    8.2240    0.5100   21.7980 C   0  0  0  0  0  0  0  0  0  0  0  0
    7.0770   -2.3670   22.4960 C   0  0  0  0  0  0  0  0  0  0  0  0
    7.1640   -1.6380   21.3250 C   0  0  0  0  0  0  0  0  0  0  0  0
    4.4250    1.5760   19.1200 C   0  0  0  0  0  0  0  0  0  0  0  0
    5.0030    1.1220   20.2990 C   0  0  0  0  0  0  0  0  0  0  0  0
    6.2960    0.3390   20.2170 C   0  0  0  0  0  0  0  0  0  0  0  0
    6.8820    0.0810   18.8560 C   0  0  0  0  0  0  0  0  0  0  0  0
    6.3270    0.5250   17.7350 N   0  0  0  0  0  0  0  0  0  0  0  0
    5.1950    1.2160   17.8720 C   0  0  0  0  0  0  0  0  0  0  0  0
   10.9050    1.0020   23.5630 C   0  0  0  0  0  0  0  0  0  0  0  0
   12.3230    1.1110   23.4990 C   0  0  0  0  0  0  0  0  0  0  0  0
   13.0620    0.1890   22.8150 C   0  0  0  0  0  0  0  0  0  0  0  0
   12.4320   -0.9690   22.1100 C   0  0  0  0  0  0  0  0  0  0  0  0
   10.9690   -1.0910   22.1710 C   0  0  0  0  0  0  0  0  0  0  0  0
   10.2380   -0.0400   22.9280 C   0  0  0  0  0  0  0  0  0  0  0  0
    5.8410   -3.2600   22.4620 C   0  0  0  0  0  0  0  0  0  0  0  0
  3  4  2  0
  4  5  1  0
  1  8  2  0
  2  8  2  0
  6  9  1  0
  8 10  1  0
  9 10  2  0
  7 11  1  0
 10 11  1  0
 11 12  2  0
 12 13  1  0
  9 14  1  0
 13 14  2  0
 15  4  1  0
 15 16  1  0
 16 17  1  0
  8 18  1  0
 17 18  1  0
 18 19  1  0
 15 20  1  0
 19 20  1  0
 22 26  2  0
 24 26  1  0
 25 26  1  0
 24 28  1  0
 27 28  1  0
 21 29  1  0
 29 30  2  0
 24 31  1  0
 30 31  1  0
 31 32  2  0
 32 33  1  0
 29 34  1  0
 33 34  2  0
 35 36  2  0
 36 37  1  0
 23 38  1  0
 37 38  2  0
 38 39  1  0
 25 40  1  0
 35 40  1  0
 39 40  2  0
 15 41  1  0
 27 41  1  0
M  END
