x2964-x2908
     RDKit          3D

 19 20  0  0  0  0  0  0  0  0999 V2000
    3.3480    2.2270   19.2790 N   0  0  0  0  0  0  0  0  0  0  0  0
    8.8400    1.5030   21.2200 O   0  0  0  0  0  0  0  0  0  0  0  0
   13.1850   -2.3350   21.3890 Cl  0  0  0  0  0  0  0  0  0  0  0  0
    7.3450   -0.2740   21.2490 N   0  0  0  0  0  0  0  0  0  0  0  0
    9.1020   -0.2170   22.7220 N   0  0  0  0  0  0  0  0  0  0  0  0
    8.4510    0.4220   21.6930 C   0  0  0  0  0  0  0  0  0  0  0  0
    4.9060    1.1900   21.8500 C   0  0  0  0  0  0  0  0  0  0  0  0
    4.5860    1.4710   19.2030 C   0  0  0  0  0  0  0  0  0  0  0  0
    5.3450    0.9600   20.4310 C   0  0  0  0  0  0  0  0  0  0  0  0
    6.5190    0.2460   20.1690 C   0  0  0  0  0  0  0  0  0  0  0  0
    6.9720    0.0050   18.7400 C   0  0  0  0  0  0  0  0  0  0  0  0
    6.2710    0.4930   17.5770 N   0  0  0  0  0  0  0  0  0  0  0  0
    5.1530    1.1850   17.8080 C   0  0  0  0  0  0  0  0  0  0  0  0
   10.8790    0.8580   23.4770 C   0  0  0  0  0  0  0  0  0  0  0  0
   12.2470    0.9000   23.5170 C   0  0  0  0  0  0  0  0  0  0  0  0
   12.9420   -0.0930   22.8720 C   0  0  0  0  0  0  0  0  0  0  0  0
   12.3080   -1.1320   22.1870 C   0  0  0  0  0  0  0  0  0  0  0  0
   10.9350   -1.2660   22.0870 C   0  0  0  0  0  0  0  0  0  0  0  0
   10.2400   -0.1770   22.7880 C   0  0  0  0  0  0  0  0  0  0  0  0
  2  6  2  0
  4  6  1  0
  5  6  1  0
  1  8  1  0
  7  9  1  0
  8  9  2  0
  4 10  1  0
  9 10  1  0
 10 11  2  0
 11 12  1  0
  8 13  1  0
 12 13  2  0
 14 15  2  0
 15 16  1  0
  3 17  1  0
 16 17  2  0
 17 18  1  0
  5 19  1  0
 14 19  1  0
 18 19  2  0
M  END
