x2964-x0678
     RDKit          3D

 18 19  0  0  0  0  0  0  0  0999 V2000
    3.1360    2.1660   19.0530 N   0  0  0  0  0  0  0  0  0  0  0  0
    8.8060    1.4210   21.1340 O   0  0  0  0  0  0  0  0  0  0  0  0
   13.2130   -2.3580   21.3490 Cl  0  0  0  0  0  0  0  0  0  0  0  0
    7.4170   -0.4310   20.9630 N   0  0  0  0  0  0  0  0  0  0  0  0
    8.9770   -0.3050   22.6250 N   0  0  0  0  0  0  0  0  0  0  0  0
    8.4190    0.3130   21.5400 C   0  0  0  0  0  0  0  0  0  0  0  0
    4.3890    1.4450   19.1470 C   0  0  0  0  0  0  0  0  0  0  0  0
    5.0190    0.9630   20.3900 C   0  0  0  0  0  0  0  0  0  0  0  0
    6.3460    0.2110   20.4640 C   0  0  0  0  0  0  0  0  0  0  0  0
    6.8980    0.0120   19.1620 C   0  0  0  0  0  0  0  0  0  0  0  0
    6.2850    0.4780   17.9990 N   0  0  0  0  0  0  0  0  0  0  0  0
    5.1780    1.1220   17.9330 C   0  0  0  0  0  0  0  0  0  0  0  0
   10.8600    0.7490   23.4580 C   0  0  0  0  0  0  0  0  0  0  0  0
   12.2320    0.8170   23.5450 C   0  0  0  0  0  0  0  0  0  0  0  0
   13.0090   -0.1290   22.9090 C   0  0  0  0  0  0  0  0  0  0  0  0
   12.3980   -1.1520   22.1830 C   0  0  0  0  0  0  0  0  0  0  0  0
   11.0330   -1.2260   22.0930 C   0  0  0  0  0  0  0  0  0  0  0  0
   10.2830   -0.2770   22.7230 C   0  0  0  0  0  0  0  0  0  0  0  0
  2  6  2  0
  4  6  1  0
  5  6  1  0
  1  7  1  0
  7  8  2  0
  4  9  1  0
  8  9  1  0
  9 10  2  0
 10 11  1  0
  7 12  1  0
 11 12  2  0
 13 14  2  0
 14 15  1  0
  3 16  1  0
 15 16  2  0
 16 17  1  0
  5 18  1  0
 13 18  1  0
 17 18  2  0
M  END
