x2964-x0305
     RDKit          3D

 24 25  0  0  0  0  0  0  0  0999 V2000
    3.1300    2.1960   19.2490 N   0  0  0  0  0  0  0  0  0  0  0  0
    8.6200    1.2430   21.1050 O   0  0  0  0  0  0  0  0  0  0  0  0
   13.5290   -1.8150   22.1230 N   0  0  0  0  0  0  0  0  0  0  0  0
    7.0740   -0.4560   21.1610 N   0  0  0  0  0  0  0  0  0  0  0  0
    9.0860   -0.7740   22.1530 N   0  0  0  0  0  0  0  0  0  0  0  0
    8.2960    0.0900   21.4550 C   0  0  0  0  0  0  0  0  0  0  0  0
   13.4200   -2.0960   20.8170 C   0  0  0  0  0  0  0  0  0  0  0  0
    4.3880    1.4850   19.1600 C   0  0  0  0  0  0  0  0  0  0  0  0
    5.0920    0.8310   20.3260 C   0  0  0  0  0  0  0  0  0  0  0  0
    6.3000    0.1720   20.1300 C   0  0  0  0  0  0  0  0  0  0  0  0
    6.9410    0.0710   18.7470 C   0  0  0  0  0  0  0  0  0  0  0  0
    6.3670    0.6540   17.6100 N   0  0  0  0  0  0  0  0  0  0  0  0
    5.0960    1.3660   17.8110 C   0  0  0  0  0  0  0  0  0  0  0  0
   10.8070    0.5780   23.2220 C   0  0  0  0  0  0  0  0  0  0  0  0
   11.9960    1.0960   23.6940 C   0  0  0  0  0  0  0  0  0  0  0  0
   12.8530    0.1060   23.2040 C   0  0  0  0  0  0  0  0  0  0  0  0
   12.5920   -1.0420   22.4790 C   0  0  0  0  0  0  0  0  0  0  0  0
   11.3770   -1.4660   22.0710 C   0  0  0  0  0  0  0  0  0  0  0  0
   10.4380   -0.5230   22.5090 C   0  0  0  0  0  0  0  0  0  0  0  0
    8.8390   -0.4890   27.2580 C   0  0  0  0  0  0  0  0  0  0  0  0
    8.9700   -0.6990   25.8830 C   0  0  0  0  0  0  0  0  0  0  0  0
   10.1220    0.0700   25.4100 N   0  0  0  0  0  0  0  0  0  0  0  0
   10.7870    1.8910   24.0200 C   0  0  0  0  0  0  0  0  0  0  0  0
    9.7610    1.1300   24.6390 C   0  0  0  0  0  0  0  0  0  0  0  0
  2  6  2  0
  4  6  1  0
  5  6  1  0
  3  7  1  0
  1  8  1  0
  8  9  2  0
  4 10  1  0
  9 10  1  0
 10 11  2  0
 11 12  1  0
  8 13  1  0
 12 13  2  0
 14 15  2  0
 15 16  1  0
  3 17  1  0
 16 17  2  0
 17 18  1  0
  5 19  1  0
 14 19  1  0
 18 19  2  0
 20 21  1  0
 21 22  1  0
 15 23  1  0
 22 24  1  0
 23 24  1  0
M  END
