x2964-x2572
     RDKit          3D

 20 21  0  0  0  0  0  0  0  0999 V2000
    4.7080    1.1550   21.6420 C   0  0  0  0  0  0  0  0  0  0  0  0
    8.8750    1.3730   21.2810 O   0  0  0  0  0  0  0  0  0  0  0  0
    6.9810   -0.3710   21.1880 N   0  0  0  0  0  0  0  0  0  0  0  0
   13.5060   -3.1610   20.6890 N   0  0  0  0  0  0  0  0  0  0  0  0
    8.1800    0.1980   21.7450 C   0  0  0  0  0  0  0  0  0  0  0  0
    8.6850   -0.5900   22.9130 C   0  0  0  0  0  0  0  0  0  0  0  0
   12.9880   -2.1650   21.4350 C   0  0  0  0  0  0  0  0  0  0  0  0
    3.4590    2.3230   19.1190 N   0  0  0  0  0  0  0  0  0  0  0  0
    6.4000    0.5300   17.6050 N   0  0  0  0  0  0  0  0  0  0  0  0
    6.9190    0.0060   18.7100 C   0  0  0  0  0  0  0  0  0  0  0  0
    6.3280    0.2300   20.0660 C   0  0  0  0  0  0  0  0  0  0  0  0
    5.1900    1.0040   20.1820 C   0  0  0  0  0  0  0  0  0  0  0  0
    4.5780    1.5730   19.0630 C   0  0  0  0  0  0  0  0  0  0  0  0
    5.1890    1.3310   17.8390 C   0  0  0  0  0  0  0  0  0  0  0  0
   10.8830    0.7620   23.7290 C   0  0  0  0  0  0  0  0  0  0  0  0
   12.2580    0.8290   23.6510 C   0  0  0  0  0  0  0  0  0  0  0  0
   13.0670   -0.0610   22.9360 C   0  0  0  0  0  0  0  0  0  0  0  0
   12.3440   -1.1440   22.2260 C   0  0  0  0  0  0  0  0  0  0  0  0
   10.9700   -1.2120   22.2970 C   0  0  0  0  0  0  0  0  0  0  0  0
   10.1780   -0.3510   22.9830 C   0  0  0  0  0  0  0  0  0  0  0  0
  2  5  2  0
  3  5  1  0
  5  6  1  0
  4  7  3  0
  9 10  2  0
  3 11  1  0
 10 11  1  0
  1 12  1  0
 11 12  2  0
  8 13  1  0
 12 13  1  0
  9 14  1  0
 13 14  2  0
 15 16  2  0
 16 17  1  0
  7 18  1  0
 17 18  2  0
 18 19  1  0
  6 20  1  0
 15 20  1  0
 19 20  2  0
M  END
