x2964-x0689
     RDKit          3D

 38 41  0  0  0  0  0  0  0  0999 V2000
    7.1970   -3.4200   19.7380 C   0  0  0  0  0  0  0  0  0  0  0  0
    5.2120   -4.6860   19.9160 O   0  0  0  0  0  0  0  0  0  0  0  0
    6.2880   -4.4590   20.4370 C   0  0  0  0  0  0  0  0  0  0  0  0
    3.9580   -6.3240   25.8900 O   0  0  0  0  0  0  0  0  0  0  0  0
    5.6960   -4.6550   26.7590 O   0  0  0  0  0  0  0  0  0  0  0  0
    4.6300   -5.0670   25.6480 S   0  0  0  0  0  0  0  0  0  0  0  0
    6.6350   -5.1620   21.5920 N   0  0  0  0  0  0  0  0  0  0  0  0
    5.7790   -6.2890   21.9570 C   0  0  0  0  0  0  0  0  0  0  0  0
    4.7660   -5.9190   23.0600 C   0  0  0  0  0  0  0  0  0  0  0  0
    5.3470   -5.0550   24.1070 N   0  0  0  0  0  0  0  0  0  0  0  0
    6.8150   -4.9880   24.0680 C   0  0  0  0  0  0  0  0  0  0  0  0
    7.3760   -4.5880   22.7030 C   0  0  2  0  0  0  0  0  0  0  0  0
    3.8280   -2.2080   26.0300 S   0  0  0  0  0  0  0  0  0  0  0  0
    3.3620   -3.8300   25.6580 C   0  0  0  0  0  0  0  0  0  0  0  0
    1.9960   -3.8730   25.4160 C   0  0  0  0  0  0  0  0  0  0  0  0
    1.3530   -2.6710   25.5280 C   0  0  0  0  0  0  0  0  0  0  0  0
    2.2120   -1.6420   25.8620 C   0  0  0  0  0  0  0  0  0  0  0  0
    3.1960    2.1690   19.2240 N   0  0  0  0  0  0  0  0  0  0  0  0
    8.5890    1.4340   21.0710 O   0  0  0  0  0  0  0  0  0  0  0  0
   13.3220   -2.2060   21.9780 Cl  0  0  0  0  0  0  0  0  0  0  0  0
    7.0190   -0.3810   21.0940 N   0  0  0  0  0  0  0  0  0  0  0  0
    8.8410   -0.1470   22.5860 N   0  0  0  0  0  0  0  0  0  0  0  0
    8.1700    0.3620   21.5590 C   0  0  0  0  0  0  0  0  0  0  0  0
    6.1400   -2.4550   22.0200 C   0  0  0  0  0  0  0  0  0  0  0  0
    6.1700   -0.9900   22.0970 C   0  0  0  0  0  0  0  0  0  0  0  0
    4.4780    1.4670   19.0760 C   0  0  0  0  0  0  0  0  0  0  0  0
    5.1150    0.8820   20.1570 C   0  0  0  0  0  0  0  0  0  0  0  0
    6.3170    0.2250   19.9830 C   0  0  0  0  0  0  0  0  0  0  0  0
    6.8880    0.1350   18.7440 C   0  0  0  0  0  0  0  0  0  0  0  0
    6.4050    0.6500   17.6200 N   0  0  0  0  0  0  0  0  0  0  0  0
    5.2370    1.2990   17.7850 C   0  0  0  0  0  0  0  0  0  0  0  0
   10.7360    1.3020   23.0320 C   0  0  0  0  0  0  0  0  0  0  0  0
   12.1930    1.5550   23.1100 C   0  0  0  0  0  0  0  0  0  0  0  0
   13.1160    0.4500   22.7830 C   0  0  0  0  0  0  0  0  0  0  0  0
   12.4630   -0.8580   22.3920 C   0  0  0  0  0  0  0  0  0  0  0  0
   11.0570   -1.0070   22.3490 C   0  0  0  0  0  0  0  0  0  0  0  0
   10.2570    0.0530   22.6630 C   0  0  0  0  0  0  0  0  0  0  0  0
    7.4340   -3.0590   22.5580 C   0  0  0  0  0  0  0  0  0  0  0  0
  1  3  1  0
  2  3  2  0
  4  6  2  0
  5  6  2  0
  3  7  1  0
  7  8  1  0
  8  9  1  0
  6 10  1  0
  9 10  1  0
 10 11  1  0
  7 12  1  0
 11 12  1  0
  6 14  1  0
 13 14  1  0
 14 15  2  0
 15 16  1  0
 13 17  1  0
 16 17  2  0
 19 23  2  0
 21 23  1  0
 22 23  1  0
 21 25  1  0
 24 25  1  0
 18 26  1  0
 26 27  2  0
 21 28  1  0
 27 28  1  0
 28 29  2  0
 29 30  1  0
 26 31  1  0
 30 31  2  0
 32 33  2  0
 33 34  1  0
 20 35  1  0
 34 35  2  0
 35 36  1  0
 22 37  1  0
 32 37  1  0
 36 37  2  0
 12 38  1  6
 24 38  1  0
M  END
