x2964-x1311
     RDKit          3D

 38 41  0  0  0  0  0  0  0  0999 V2000
    5.7520   -4.7600   20.0220 O   0  0  0  0  0  0  0  0  0  0  0  0
    6.5970   -4.5450   20.9160 C   0  0  0  0  0  0  0  0  0  0  0  0
    8.1080   -4.3280   20.7460 C   0  0  0  0  0  0  0  0  0  0  0  0
    6.2070   -4.4210   22.4070 C   0  0  2  0  0  0  0  0  0  0  0  0
    3.9760   -7.7130   25.1860 O   0  0  0  0  0  0  0  0  0  0  0  0
    2.0870   -5.9890   24.8440 O   0  0  0  0  0  0  0  0  0  0  0  0
    3.1490    2.2380   19.1670 N   0  0  0  0  0  0  0  0  0  0  0  0
    8.5710    1.2580   21.1680 O   0  0  0  0  0  0  0  0  0  0  0  0
   13.5230   -1.6900   21.2650 Cl  0  0  0  0  0  0  0  0  0  0  0  0
    7.0980   -0.5290   21.1840 N   0  0  0  0  0  0  0  0  0  0  0  0
    8.7920   -0.4420   22.6560 N   0  0  0  0  0  0  0  0  0  0  0  0
    8.1660    0.1650   21.6410 C   0  0  0  0  0  0  0  0  0  0  0  0
    5.4800   -3.1070   22.5140 C   0  0  0  0  0  0  0  0  0  0  0  0
    5.8560   -2.2340   21.3000 C   0  0  0  0  0  0  0  0  0  0  0  0
    7.1390   -1.6810   21.2500 C   0  0  0  0  0  0  0  0  0  0  0  0
    8.1790   -5.7930   23.1840 C   0  0  0  0  0  0  0  0  0  0  0  0
    9.2450   -5.9820   24.0120 C   0  0  0  0  0  0  0  0  0  0  0  0
    9.5680   -5.0140   24.9260 C   0  0  0  0  0  0  0  0  0  0  0  0
    8.8320   -3.8280   25.0320 C   0  0  0  0  0  0  0  0  0  0  0  0
    7.7300   -3.5400   24.2410 C   0  0  0  0  0  0  0  0  0  0  0  0
    7.4420   -4.6210   23.2940 C   0  0  0  0  0  0  0  0  0  0  0  0
    4.6160   -6.2720   22.1860 C   0  0  0  0  0  0  0  0  0  0  0  0
    5.3950   -5.5660   23.0420 C   0  0  2  0  0  0  0  0  0  0  0  0
    4.7750   -5.2780   24.2430 C   0  0  0  0  0  0  0  0  0  0  0  0
    3.5140   -6.5600   24.4380 S   0  0  0  0  0  0  0  0  0  0  0  0
    3.5240   -6.8970   22.7090 C   0  0  0  0  0  0  0  0  0  0  0  0
    4.3960    1.5010   19.1680 C   0  0  0  0  0  0  0  0  0  0  0  0
    5.0920    0.8360   20.3380 C   0  0  0  0  0  0  0  0  0  0  0  0
    6.3870    0.1060   20.1220 C   0  0  0  0  0  0  0  0  0  0  0  0
    6.9520    0.0500   18.7380 C   0  0  0  0  0  0  0  0  0  0  0  0
    6.3950    0.6230   17.6660 N   0  0  0  0  0  0  0  0  0  0  0  0
    5.1510    1.3350   17.8620 C   0  0  0  0  0  0  0  0  0  0  0  0
   10.6290    0.8840   23.6140 C   0  0  0  0  0  0  0  0  0  0  0  0
   11.9450    1.1740   23.7260 C   0  0  0  0  0  0  0  0  0  0  0  0
   12.9790    0.3870   23.0060 C   0  0  0  0  0  0  0  0  0  0  0  0
   12.5110   -0.7400   22.1620 C   0  0  0  0  0  0  0  0  0  0  0  0
   11.0350   -0.9540   22.1270 C   0  0  0  0  0  0  0  0  0  0  0  0
   10.1710   -0.1560   22.8240 C   0  0  0  0  0  0  0  0  0  0  0  0
  1  2  2  0
  2  3  1  0
  4  2  1  0
  8 12  2  0
 10 12  1  0
 11 12  1  0
  4 13  1  6
 13 14  1  0
 10 15  1  0
 14 15  1  0
 16 17  2  0
 17 18  1  0
 18 19  2  0
 19 20  1  0
  4 21  1  0
 16 21  1  0
 20 21  2  0
  4 23  1  0
 23 22  1  6
 23 24  1  0
 25  5  1  0
  6 25  1  0
 24 25  1  0
 22 26  2  0
 25 26  1  0
  7 27  1  0
 27 28  2  0
 10 29  1  0
 28 29  1  0
 29 30  2  0
 30 31  1  0
 27 32  1  0
 31 32  2  0
 33 34  2  0
 34 35  1  0
  9 36  1  0
 35 36  2  0
 36 37  1  0
 11 38  1  0
 33 38  1  0
 37 38  2  0
M  END
