x2964-x1336
     RDKit          3D

 38 41  0  0  0  0  0  0  0  0999 V2000
    6.0620   -5.1640   28.8030 C   0  0  0  0  0  0  0  0  0  0  0  0
    8.5810   -1.0320   24.7290 O   0  0  0  0  0  0  0  0  0  0  0  0
    6.3040   -0.9990   25.7710 O   0  0  0  0  0  0  0  0  0  0  0  0
    5.4550   -4.2310   19.8100 O   0  0  0  0  0  0  0  0  0  0  0  0
   10.0180   -3.4520   24.9170 C   0  0  0  0  0  0  0  0  0  0  0  0
    6.5570   -3.7000   20.0180 C   0  0  0  0  0  0  0  0  0  0  0  0
    7.4090   -3.1450   18.9050 C   0  0  0  0  0  0  0  0  0  0  0  0
    7.3330   -1.6840   25.0210 S   0  0  0  0  0  0  0  0  0  0  0  0
    3.2320    2.0120   19.2640 N   0  0  0  0  0  0  0  0  0  0  0  0
    8.5970    1.3750   21.1880 O   0  0  0  0  0  0  0  0  0  0  0  0
   13.3010   -2.2530   21.2710 Cl  0  0  0  0  0  0  0  0  0  0  0  0
    6.9590   -0.2500   21.7930 N   0  0  0  0  0  0  0  0  0  0  0  0
    8.9950   -0.2120   22.9490 N   0  0  0  0  0  0  0  0  0  0  0  0
    8.2390    0.4160   21.9100 C   0  0  0  0  0  0  0  0  0  0  0  0
    7.0820   -4.7240   27.7940 C   0  0  0  0  0  0  0  0  0  0  0  0
    6.8700   -3.6190   26.9620 C   0  0  0  0  0  0  0  0  0  0  0  0
    7.7830   -3.1590   26.0040 C   0  0  0  0  0  0  0  0  0  0  0  0
    8.9820   -3.8770   25.8980 C   0  0  0  0  0  0  0  0  0  0  0  0
    9.2310   -4.9970   26.7120 C   0  0  0  0  0  0  0  0  0  0  0  0
    8.2870   -5.4230   27.6600 C   0  0  0  0  0  0  0  0  0  0  0  0
    7.1550   -3.6240   21.2750 N   0  0  0  0  0  0  0  0  0  0  0  0
    6.5950   -4.3750   22.4160 C   0  0  0  0  0  0  0  0  0  0  0  0
    5.9900   -3.4560   23.4390 C   0  0  0  0  0  0  0  0  0  0  0  0
    6.6070   -2.1090   23.5250 N   0  0  0  0  0  0  0  0  0  0  0  0
    6.8680   -1.6890   22.2180 C   0  0  2  0  0  0  0  0  0  0  0  0
    7.7210   -2.5060   21.5620 C   0  0  0  0  0  0  0  0  0  0  0  0
    4.4560    1.2930   19.3080 C   0  0  0  0  0  0  0  0  0  0  0  0
    5.0960    0.8640   20.4760 C   0  0  0  0  0  0  0  0  0  0  0  0
    6.3050    0.1550   20.5230 C   0  0  0  0  0  0  0  0  0  0  0  0
    6.9660   -0.1780   19.1890 C   0  0  0  0  0  0  0  0  0  0  0  0
    6.4650    0.1760   17.9960 N   0  0  0  0  0  0  0  0  0  0  0  0
    5.2140    0.9120   18.0640 C   0  0  0  0  0  0  0  0  0  0  0  0
   10.9740    0.9040   23.4050 C   0  0  0  0  0  0  0  0  0  0  0  0
   12.4630    1.0860   23.3390 C   0  0  0  0  0  0  0  0  0  0  0  0
   13.1930    0.0570   22.6590 C   0  0  0  0  0  0  0  0  0  0  0  0
   12.5250   -1.0290   22.1080 C   0  0  0  0  0  0  0  0  0  0  0  0
   11.0680   -1.2130   22.1740 C   0  0  0  0  0  0  0  0  0  0  0  0
   10.3210   -0.1610   22.8620 C   0  0  0  0  0  0  0  0  0  0  0  0
  4  6  2  0
  6  7  1  0
  2  8  2  0
  3  8  2  0
 10 14  2  0
 12 14  1  0
 13 14  1  0
  1 15  1  0
 15 16  2  0
  8 17  1  0
 16 17  1  0
  5 18  1  0
 17 18  2  0
 18 19  1  0
 15 20  1  0
 19 20  2  0
  6 21  1  0
 21 22  1  0
 22 23  1  0
  8 24  1  0
 23 24  1  0
 25 12  1  1
 24 25  1  0
 21 26  1  0
 25 26  1  0
  9 27  1  0
 27 28  2  0
 12 29  1  0
 28 29  1  0
 29 30  2  0
 30 31  1  0
 27 32  1  0
 31 32  2  0
 33 34  2  0
 34 35  1  0
 11 36  1  0
 35 36  2  0
 36 37  1  0
 13 38  1  0
 33 38  1  0
 37 38  2  0
M  END
