x2964-x2119
     RDKit          3D

 25 27  0  0  0  0  0  0  0  0999 V2000
    3.2410    2.0190   19.4170 N   0  0  0  0  0  0  0  0  0  0  0  0
    8.6950    1.1840   21.1660 O   0  0  0  0  0  0  0  0  0  0  0  0
   13.3250   -2.0940   21.3450 Cl  0  0  0  0  0  0  0  0  0  0  0  0
    7.3450   -0.7080   20.9310 N   0  0  0  0  0  0  0  0  0  0  0  0
    9.0310   -0.5850   22.5740 N   0  0  0  0  0  0  0  0  0  0  0  0
    8.3710    0.0360   21.5380 C   0  0  0  0  0  0  0  0  0  0  0  0
    5.7770   -4.9300   20.0080 N   0  0  0  0  0  0  0  0  0  0  0  0
    6.5730   -3.9060   20.1280 C   0  0  0  0  0  0  0  0  0  0  0  0
    4.5080    1.3380   19.2260 C   0  0  0  0  0  0  0  0  0  0  0  0
    5.3050    0.6070   20.2950 C   0  0  0  0  0  0  0  0  0  0  0  0
    6.5200   -0.0160   19.9530 C   0  0  0  0  0  0  0  0  0  0  0  0
    7.0950   -0.0180   18.5450 C   0  0  0  0  0  0  0  0  0  0  0  0
    6.3970    0.6590   17.5300 N   0  0  0  0  0  0  0  0  0  0  0  0
    5.1430    1.3260   17.8460 C   0  0  0  0  0  0  0  0  0  0  0  0
   10.6430    0.6490   23.5100 C   0  0  0  0  0  0  0  0  0  0  0  0
   12.0000    0.8490   23.6360 C   0  0  0  0  0  0  0  0  0  0  0  0
   12.8350   -0.0110   22.9640 C   0  0  0  0  0  0  0  0  0  0  0  0
   12.3150   -1.0530   22.1850 C   0  0  0  0  0  0  0  0  0  0  0  0
   10.9820   -1.3580   21.9850 C   0  0  0  0  0  0  0  0  0  0  0  0
   10.1590   -0.4010   22.7180 C   0  0  0  0  0  0  0  0  0  0  0  0
    6.3800   -3.0850   21.3160 C   0  0  0  0  0  0  0  0  0  0  0  0
    5.7450   -3.6430   22.3760 N   0  0  0  0  0  0  0  0  0  0  0  0
    5.7310   -2.6590   23.2590 C   0  0  0  0  0  0  0  0  0  0  0  0
    6.2900   -1.4940   22.9020 C   0  0  0  0  0  0  0  0  0  0  0  0
    6.7230   -1.7200   21.6400 N   0  0  0  0  0  0  0  0  0  0  0  0
  2  6  2  0
  4  6  1  0
  5  6  1  0
  7  8  2  3
  1  9  1  0
  9 10  2  0
  4 11  1  0
 10 11  1  0
 11 12  2  0
 12 13  1  0
  9 14  1  0
 13 14  2  0
 15 16  2  0
 16 17  1  0
  3 18  1  0
 17 18  2  0
 18 19  1  0
  5 20  1  0
 15 20  1  0
 19 20  2  0
  8 21  1  0
 21 22  2  0
 22 23  1  0
 23 24  2  0
  4 25  1  0
 21 25  1  0
 24 25  1  0
M  END
