x2964-x0831
     RDKit          3D

 29 32  0  0  0  0  0  0  0  0999 V2000
    3.3050    2.0120   19.1390 N   0  0  0  0  0  0  0  0  0  0  0  0
    4.4690    1.3040   19.1110 C   0  0  0  0  0  0  0  0  0  0  0  0
    4.7260    0.4810   20.3830 C   0  0  0  0  0  0  0  0  0  0  0  0
    6.0630   -0.0900   19.8750 C   0  0  0  0  0  0  0  0  0  0  0  0
    6.8670    0.0680   18.5910 C   0  0  0  0  0  0  0  0  0  0  0  0
    6.4560    0.8900   17.4930 N   0  0  0  0  0  0  0  0  0  0  0  0
    5.2150    1.4930   17.8420 C   0  0  0  0  0  0  0  0  0  0  0  0
    8.3830    1.2560   21.3410 O   0  0  0  0  0  0  0  0  0  0  0  0
   13.3160   -2.0710   21.2870 Cl  0  0  0  0  0  0  0  0  0  0  0  0
    9.0070   -0.4560   23.1160 N   0  0  0  0  0  0  0  0  0  0  0  0
    8.3300    0.0470   22.0050 C   0  0  0  0  0  0  0  0  0  0  0  0
    5.4090   -4.4860   19.8730 O   0  0  0  0  0  0  0  0  0  0  0  0
   10.0260   -2.6550   23.6930 C   0  0  0  0  0  0  0  0  0  0  0  0
    6.1640   -3.5230   20.0090 C   0  0  0  0  0  0  0  0  0  0  0  0
    7.1400   -3.0790   18.9020 C   0  0  0  0  0  0  0  0  0  0  0  0
   11.0410    1.0570   23.5890 C   0  0  0  0  0  0  0  0  0  0  0  0
   12.4010    1.2340   23.4000 C   0  0  0  0  0  0  0  0  0  0  0  0
   13.2370    0.3480   22.7190 C   0  0  0  0  0  0  0  0  0  0  0  0
   12.5630   -0.8540   22.1720 C   0  0  0  0  0  0  0  0  0  0  0  0
   11.2340   -1.0110   22.3590 C   0  0  0  0  0  0  0  0  0  0  0  0
   10.3930   -0.1860   23.0090 C   0  0  0  0  0  0  0  0  0  0  0  0
    6.1670   -2.7730   21.1830 N   0  0  0  0  0  0  0  0  0  0  0  0
    6.4370   -1.3570   20.9590 C   0  0  2  0  0  0  0  0  0  0  0  0
    7.5130   -1.1680   21.6940 C   0  0  1  0  0  0  0  0  0  0  0  0
    8.5580   -2.0550   21.6240 C   0  0  0  0  0  0  0  0  0  0  0  0
    8.8380   -1.9190   23.0220 C   0  0  2  0  0  0  0  0  0  0  0  0
    7.4480   -2.4320   23.4470 C   0  0  0  0  0  0  0  0  0  0  0  0
    6.7970   -3.4220   22.4040 C   0  0  0  0  0  0  0  0  0  0  0  0
    5.3000   -0.4260   21.4290 C   0  0  0  0  0  0  0  0  0  0  0  0
  1  2  1  0
  2  3  2  0
  3  4  1  0
  4  5  2  0
  5  6  1  0
  2  7  1  0
  6  7  2  0
  8 11  2  0
 10 11  1  0
 12 14  2  0
 14 15  1  0
 16 17  2  0
 17 18  1  0
  9 19  1  0
 18 19  2  0
 19 20  1  0
 10 21  1  0
 16 21  1  0
 20 21  2  0
 14 22  1  0
 22 23  1  0
 24 11  1  6
 23 24  1  0
 24 25  1  0
 10 26  1  0
 26 13  1  1
 25 26  1  0
 26 27  1  0
 22 28  1  0
 27 28  1  0
  3 29  1  0
 23 29  1  1
M  END
