x2964-x0946
     RDKit          3D

 26 28  0  0  0  0  0  0  0  0999 V2000
    3.0840    2.1980   19.0750 N   0  0  0  0  0  0  0  0  0  0  0  0
    8.7400    1.4500   21.0920 O   0  0  0  0  0  0  0  0  0  0  0  0
   13.2050   -2.5830   21.9610 Cl  0  0  0  0  0  0  0  0  0  0  0  0
    7.3750   -0.4090   21.0160 N   0  0  0  0  0  0  0  0  0  0  0  0
    8.9690   -0.1580   22.6820 N   0  0  0  0  0  0  0  0  0  0  0  0
    8.3760    0.3680   21.5620 C   0  0  0  0  0  0  0  0  0  0  0  0
    8.9270    5.2340   22.7480 N   0  0  0  0  0  0  0  0  0  0  0  0
    9.8890    5.1610   25.1020 O   0  0  0  0  0  0  0  0  0  0  0  0
   11.3070    6.3320   23.3260 O   0  0  0  0  0  0  0  0  0  0  0  0
   10.2930    5.1620   23.7110 S   0  0  0  0  0  0  0  0  0  0  0  0
    4.3450    1.4910   19.1480 C   0  0  0  0  0  0  0  0  0  0  0  0
    4.9810    0.9720   20.3820 C   0  0  0  0  0  0  0  0  0  0  0  0
    6.3140    0.2300   20.4900 C   0  0  0  0  0  0  0  0  0  0  0  0
    6.8880    0.0710   19.1930 C   0  0  0  0  0  0  0  0  0  0  0  0
    6.3940    0.5200   17.8880 N   0  0  0  0  0  0  0  0  0  0  0  0
    5.1230    1.2330   17.9110 C   0  0  0  0  0  0  0  0  0  0  0  0
   10.9110    1.1080   22.8420 C   0  0  0  0  0  0  0  0  0  0  0  0
   12.2810    1.1380   22.7310 C   0  0  0  0  0  0  0  0  0  0  0  0
   13.0120    0.0170   22.4760 C   0  0  0  0  0  0  0  0  0  0  0  0
   12.3730   -1.1820   22.2990 C   0  0  0  0  0  0  0  0  0  0  0  0
   11.0030   -1.2670   22.3760 C   0  0  0  0  0  0  0  0  0  0  0  0
   10.2840   -0.1270   22.6430 C   0  0  0  0  0  0  0  0  0  0  0  0
   12.9730    2.3060   22.8520 C   0  0  0  0  0  0  0  0  0  0  0  0
   12.4160    3.5270   23.1230 C   0  0  0  0  0  0  0  0  0  0  0  0
   11.0650    3.5610   23.2900 C   0  0  0  0  0  0  0  0  0  0  0  0
   10.3040    2.3860   23.1420 C   0  0  0  0  0  0  0  0  0  0  0  0
  2  6  2  0
  4  6  1  0
  5  6  1  0
 10  7  1  0
  8 10  2  0
  9 10  2  0
  1 11  1  0
 11 12  2  0
  4 13  1  0
 12 13  1  0
 13 14  2  0
 14 15  1  0
 11 16  1  0
 15 16  2  0
 17 18  1  0
 18 19  2  0
  3 20  1  0
 19 20  1  0
 20 21  2  0
  5 22  1  0
 17 22  2  0
 21 22  1  0
 18 23  1  0
 23 24  2  0
 10 25  1  0
 24 25  1  0
 17 26  1  0
 25 26  2  0
M  END
