x2964-x0978
     RDKit          3D

 35 36  0  0  0  0  0  0  0  0999 V2000
    1.9900   -5.6010   23.0510 N   0  0  0  0  0  0  0  0  0  0  0  0
    2.1040   -8.0380   24.5350 C   0  0  0  0  0  0  0  0  0  0  0  0
    4.5360   -7.7650   24.7350 O   0  0  0  0  0  0  0  0  0  0  0  0
    3.3180   -7.1220   24.5010 C   0  0  1  0  0  0  0  0  0  0  0  0
    5.4840   -5.5070   22.1420 N   0  0  0  0  0  0  0  0  0  0  0  0
    0.6030   -7.4060   21.8350 O   0  0  0  0  0  0  0  0  0  0  0  0
    3.2480   -6.3120   23.2270 C   0  0  2  0  0  0  0  0  0  0  0  0
    4.4040   -4.2730   23.8660 O   0  0  0  0  0  0  0  0  0  0  0  0
    0.7530   -6.1630   22.5080 C   0  0  0  0  0  0  0  0  0  0  0  0
   -0.4100   -5.3950   22.6570 C   0  0  0  0  0  0  0  0  0  0  0  0
    4.4000   -5.2620   23.1410 C   0  0  0  0  0  0  0  0  0  0  0  0
    6.3120   -4.7230   21.7650 C   0  0  1  0  0  0  0  0  0  0  0  0
    6.4680   -4.9540   20.2810 C   0  0  0  0  0  0  0  0  0  0  0  0
    5.7190   -6.1740   19.8210 C   0  0  0  0  0  0  0  0  0  0  0  0
    3.2080    2.1180   19.2770 N   0  0  0  0  0  0  0  0  0  0  0  0
    8.6310    1.5100   21.0820 O   0  0  0  0  0  0  0  0  0  0  0  0
   13.2400   -2.3760   21.3130 Cl  0  0  0  0  0  0  0  0  0  0  0  0
    7.1050   -0.4320   21.0270 N   0  0  0  0  0  0  0  0  0  0  0  0
    8.8230   -0.4300   22.6850 N   0  0  0  0  0  0  0  0  0  0  0  0
    8.1640    0.2420   21.5720 C   0  0  0  0  0  0  0  0  0  0  0  0
    6.0040   -3.3750   21.9600 C   0  0  0  0  0  0  0  0  0  0  0  0
    7.0610   -2.5210   22.2860 C   0  0  0  0  0  0  0  0  0  0  0  0
    6.3380   -1.2890   21.9090 C   0  0  0  0  0  0  0  0  0  0  0  0
    4.4950    1.4250   19.1050 C   0  0  0  0  0  0  0  0  0  0  0  0
    5.1450    0.8330   20.1820 C   0  0  0  0  0  0  0  0  0  0  0  0
    6.3550    0.1910   19.9570 C   0  0  0  0  0  0  0  0  0  0  0  0
    6.8950    0.1320   18.7050 C   0  0  0  0  0  0  0  0  0  0  0  0
    6.3970    0.6540   17.6000 N   0  0  0  0  0  0  0  0  0  0  0  0
    5.2270    1.2890   17.7940 C   0  0  0  0  0  0  0  0  0  0  0  0
   10.7760    0.8470   23.4190 C   0  0  0  0  0  0  0  0  0  0  0  0
   12.2390    1.0450   23.4640 C   0  0  0  0  0  0  0  0  0  0  0  0
   13.1320    0.0440   22.8050 C   0  0  0  0  0  0  0  0  0  0  0  0
   12.4460   -1.1310   22.1290 C   0  0  0  0  0  0  0  0  0  0  0  0
   11.0320   -1.2060   22.1550 C   0  0  0  0  0  0  0  0  0  0  0  0
   10.2470   -0.2590   22.7660 C   0  0  0  0  0  0  0  0  0  0  0  0
  4  2  1  6
  3  4  1  0
  7  1  1  1
  4  7  1  0
  1  9  1  0
  6  9  2  0
  9 10  1  0
  5 11  1  0
  7 11  1  0
  8 11  2  0
  5 12  1  0
 12 13  1  6
 13 14  2  3
 16 20  2  0
 18 20  1  0
 19 20  1  0
 12 21  1  0
 21 22  1  0
 18 23  1  0
 22 23  1  0
 15 24  1  0
 24 25  2  0
 18 26  1  0
 25 26  1  0
 26 27  2  0
 27 28  1  0
 24 29  1  0
 28 29  2  0
 30 31  2  0
 31 32  1  0
 17 33  1  0
 32 33  2  0
 33 34  1  0
 19 35  1  0
 30 35  1  0
 34 35  2  0
M  END
