x2964-x2649
     RDKit          3D

 20 21  0  0  0  0  0  0  0  0999 V2000
    6.7890   -0.6580   21.0110 N   0  0  0  0  0  0  0  0  0  0  0  0
    7.7770   -1.1800   24.0100 C   0  0  0  0  0  0  0  0  0  0  0  0
    8.6130    0.7470   21.4290 O   0  0  0  0  0  0  0  0  0  0  0  0
   13.2010   -2.3630   21.1240 Cl  0  0  0  0  0  0  0  0  0  0  0  0
    8.5600   -1.2540   22.7110 C   0  0  1  0  0  0  0  0  0  0  0  0
    8.0200   -0.2960   21.6840 C   0  0  0  0  0  0  0  0  0  0  0  0
    4.4640    0.7170   21.5150 C   0  0  0  0  0  0  0  0  0  0  0  0
    3.3120    2.2070   19.1740 N   0  0  0  0  0  0  0  0  0  0  0  0
    6.4730    0.6420   17.6170 N   0  0  0  0  0  0  0  0  0  0  0  0
    5.2470    1.4170   17.7420 C   0  0  0  0  0  0  0  0  0  0  0  0
    4.5530    1.4360   19.0770 C   0  0  0  0  0  0  0  0  0  0  0  0
    5.1070    0.7360   20.1230 C   0  0  0  0  0  0  0  0  0  0  0  0
    6.2810    0.0080   19.9700 C   0  0  0  0  0  0  0  0  0  0  0  0
    6.8910    0.0010   18.7230 C   0  0  0  0  0  0  0  0  0  0  0  0
   10.5860    0.0930   23.8310 C   0  0  0  0  0  0  0  0  0  0  0  0
   11.9650    0.3040   23.8750 C   0  0  0  0  0  0  0  0  0  0  0  0
   12.8960   -0.3910   23.0870 C   0  0  0  0  0  0  0  0  0  0  0  0
   12.2970   -1.4030   22.1720 C   0  0  0  0  0  0  0  0  0  0  0  0
   10.9420   -1.5880   22.1450 C   0  0  0  0  0  0  0  0  0  0  0  0
   10.0050   -0.9510   22.8710 C   0  0  0  0  0  0  0  0  0  0  0  0
  5  2  1  1
  1  6  1  0
  3  6  2  0
  5  6  1  0
  9 10  2  0
  8 11  1  0
 10 11  1  0
  7 12  1  0
 11 12  2  0
  1 13  1  0
 12 13  1  0
  9 14  1  0
 13 14  2  0
 15 16  2  0
 16 17  1  0
  4 18  1  0
 17 18  2  0
 18 19  1  0
  5 20  1  0
 15 20  1  0
 19 20  2  0
M  END
