x2964-x2912
     RDKit          3D

 21 22  0  0  0  0  0  0  0  0999 V2000
    6.9960   -0.4760   21.2800 N   0  0  0  0  0  0  0  0  0  0  0  0
    7.7350   -1.0420   24.1490 C   0  0  0  0  0  0  0  0  0  0  0  0
    8.9800    0.7600   21.5530 O   0  0  0  0  0  0  0  0  0  0  0  0
    8.6920   -1.1540   22.9730 C   0  0  1  0  0  0  0  0  0  0  0  0
    8.2850   -0.1900   21.8840 C   0  0  0  0  0  0  0  0  0  0  0  0
   14.1060   -1.3290   20.2450 N   0  0  0  0  0  0  0  0  0  0  0  0
    4.5760    1.2240   21.2930 C   0  0  0  0  0  0  0  0  0  0  0  0
   13.2860   -1.3240   21.3960 C   0  0  0  0  0  0  0  0  0  0  0  0
    3.5280    2.2290   19.2330 N   0  0  0  0  0  0  0  0  0  0  0  0
    6.3780    0.5250   17.6920 N   0  0  0  0  0  0  0  0  0  0  0  0
    5.3010    1.2590   17.7700 C   0  0  0  0  0  0  0  0  0  0  0  0
    4.7420    1.4400   19.0350 C   0  0  0  0  0  0  0  0  0  0  0  0
    5.3180    0.8710   20.1720 C   0  0  0  0  0  0  0  0  0  0  0  0
    6.4440    0.1000   20.0680 C   0  0  0  0  0  0  0  0  0  0  0  0
    6.9290   -0.0440   18.8060 C   0  0  0  0  0  0  0  0  0  0  0  0
   10.6380   -0.6190   24.5580 C   0  0  0  0  0  0  0  0  0  0  0  0
   11.9980   -0.4710   24.8750 C   0  0  0  0  0  0  0  0  0  0  0  0
   12.8720   -0.7280   23.7500 C   0  0  0  0  0  0  0  0  0  0  0  0
   12.3840   -1.0800   22.5390 C   0  0  0  0  0  0  0  0  0  0  0  0
   11.0560   -1.2180   22.2970 C   0  0  0  0  0  0  0  0  0  0  0  0
   10.1560   -0.9900   23.2940 C   0  0  0  0  0  0  0  0  0  0  0  0
  4  2  1  1
  1  5  1  0
  3  5  2  0
  4  5  1  0
  6  8  3  0
 10 11  2  0
  9 12  1  0
 11 12  1  0
  7 13  1  0
 12 13  2  0
  1 14  1  0
 13 14  1  0
 10 15  1  0
 14 15  2  0
 16 17  2  0
 17 18  1  0
  8 19  1  0
 18 19  2  0
 19 20  1  0
  4 21  1  0
 16 21  1  0
 20 21  2  0
M  END
