x2964-x1386
     RDKit          3D

 28 31  0  0  0  0  0  0  0  0999 V2000
    3.1430    2.2080   19.7930 N   0  0  0  0  0  0  0  0  0  0  0  0
    4.2630    1.5110   19.4510 C   0  0  0  0  0  0  0  0  0  0  0  0
    4.7880    0.4390   20.2840 C   0  0  0  0  0  0  0  0  0  0  0  0
    6.0170   -0.2430   19.7720 C   0  0  0  0  0  0  0  0  0  0  0  0
    6.9520   -0.1120   18.5260 C   0  0  0  0  0  0  0  0  0  0  0  0
    6.2340    1.0310   17.8620 N   0  0  0  0  0  0  0  0  0  0  0  0
    5.0230    1.7710   18.2490 C   0  0  0  0  0  0  0  0  0  0  0  0
    7.6730    1.2400   21.2960 O   0  0  0  0  0  0  0  0  0  0  0  0
   13.2890   -2.0100   21.3900 Cl  0  0  0  0  0  0  0  0  0  0  0  0
    8.6580   -0.5120   22.8010 N   0  0  0  0  0  0  0  0  0  0  0  0
    7.9840   -0.0430   21.6700 C   0  0  0  0  0  0  0  0  0  0  0  0
    7.4040   -3.0430   18.6720 C   0  0  0  0  0  0  0  0  0  0  0  0
    5.5870   -4.1190   19.7890 O   0  0  0  0  0  0  0  0  0  0  0  0
    6.4450   -3.2060   19.8780 C   0  0  0  0  0  0  0  0  0  0  0  0
    9.8640   -2.6070   23.3590 C   0  0  0  0  0  0  0  0  0  0  0  0
   10.6980    0.9950   23.5170 C   0  0  0  0  0  0  0  0  0  0  0  0
   12.0800    1.1950   23.4850 C   0  0  0  0  0  0  0  0  0  0  0  0
   13.0100    0.3460   22.8700 C   0  0  0  0  0  0  0  0  0  0  0  0
   12.4010   -0.8380   22.2190 C   0  0  0  0  0  0  0  0  0  0  0  0
   11.0440   -1.0220   22.2510 C   0  0  0  0  0  0  0  0  0  0  0  0
   10.0940   -0.2300   22.8330 C   0  0  0  0  0  0  0  0  0  0  0  0
    6.6060   -2.2930   20.9930 N   0  0  0  0  0  0  0  0  0  0  0  0
    7.7160   -1.3600   20.8150 C   0  0  2  0  0  0  0  0  0  0  0  0
    8.6870   -2.2030   21.3810 C   0  0  0  0  0  0  0  0  0  0  0  0
    8.6400   -1.9790   22.7270 C   0  0  2  0  0  0  0  0  0  0  0  0
    7.4650   -2.8090   23.2570 C   0  0  0  0  0  0  0  0  0  0  0  0
    6.2220   -2.5840   22.3760 C   0  0  0  0  0  0  0  0  0  0  0  0
    7.5380   -1.2300   19.2990 C   0  0  0  0  0  0  0  0  0  0  0  0
  1  2  1  0
  2  3  2  0
  3  4  1  0
  4  5  2  0
  5  6  1  0
  2  7  1  0
  6  7  2  0
  8 11  2  0
 10 11  1  0
 12 14  1  0
 13 14  2  0
 16 17  2  0
 17 18  1  0
  9 19  1  0
 18 19  2  0
 19 20  1  0
 10 21  1  0
 16 21  1  0
 20 21  2  0
 14 22  1  0
 11 23  1  0
 22 23  1  0
 23 24  1  0
 10 25  1  0
 25 15  1  1
 24 25  1  0
 25 26  1  0
 22 27  1  0
 26 27  1  0
  5 28  1  0
 23 28  1  6
M  END
