x2964-x0820
     RDKit          3D

 35 38  0  0  0  0  0  0  0  0999 V2000
    6.8130   -4.9180   21.8280 N   0  0  0  0  0  0  0  0  0  0  0  0
    7.2250   -2.4810   22.6780 C   0  0  0  0  0  0  0  0  0  0  0  0
    5.3700   -5.2310   20.0370 O   0  0  0  0  0  0  0  0  0  0  0  0
    7.1570   -3.9860   22.9080 C   0  0  1  0  0  0  0  0  0  0  0  0
    6.2890   -4.5980   20.5460 C   0  0  0  0  0  0  0  0  0  0  0  0
    6.9120   -3.4730   19.7280 C   0  0  0  0  0  0  0  0  0  0  0  0
    3.2090    2.2730   19.0940 N   0  0  0  0  0  0  0  0  0  0  0  0
    8.8240    1.3920   21.2620 O   0  0  0  0  0  0  0  0  0  0  0  0
   13.4040   -2.0970   21.1940 Cl  0  0  0  0  0  0  0  0  0  0  0  0
    7.0560   -0.4830   21.1120 N   0  0  0  0  0  0  0  0  0  0  0  0
    8.8210   -0.6840   22.5730 N   0  0  0  0  0  0  0  0  0  0  0  0
    8.2590    0.1130   21.6470 C   0  0  0  0  0  0  0  0  0  0  0  0
    8.6250   -1.9730   22.5160 C   0  0  0  0  0  0  0  0  0  0  0  0
    6.2980   -4.1700   23.9950 C   0  0  0  0  0  0  0  0  0  0  0  0
    6.8410   -4.2780   25.2950 C   0  0  0  0  0  0  0  0  0  0  0  0
    5.9380   -4.4590   26.3690 C   0  0  0  0  0  0  0  0  0  0  0  0
    4.5660   -4.5260   26.1210 C   0  0  0  0  0  0  0  0  0  0  0  0
    4.0800   -4.4160   24.8240 C   0  0  0  0  0  0  0  0  0  0  0  0
    4.9250   -4.2390   23.7500 C   0  0  0  0  0  0  0  0  0  0  0  0
    6.4660   -4.5770   27.7560 C   0  0  0  0  0  0  0  0  0  0  0  0
    7.8370   -4.5130   27.9870 C   0  0  0  0  0  0  0  0  0  0  0  0
    8.7800   -4.3400   26.9880 C   0  0  0  0  0  0  0  0  0  0  0  0
    8.3750   -4.2160   25.6620 C   0  0  0  0  0  0  0  0  0  0  0  0
    4.4220    1.5310   19.1140 C   0  0  0  0  0  0  0  0  0  0  0  0
    5.0030    0.9410   20.2320 C   0  0  0  0  0  0  0  0  0  0  0  0
    6.2980    0.1770   20.0970 C   0  0  0  0  0  0  0  0  0  0  0  0
    6.8830    0.0920   18.7300 C   0  0  0  0  0  0  0  0  0  0  0  0
    6.3400    0.6570   17.6590 N   0  0  0  0  0  0  0  0  0  0  0  0
    5.1930    1.3340   17.8280 C   0  0  0  0  0  0  0  0  0  0  0  0
   10.6990    0.6660   23.4600 C   0  0  0  0  0  0  0  0  0  0  0  0
   12.1070    0.9350   23.5540 C   0  0  0  0  0  0  0  0  0  0  0  0
   12.9650    0.0930   22.8680 C   0  0  0  0  0  0  0  0  0  0  0  0
   12.4390   -1.0670   22.0590 C   0  0  0  0  0  0  0  0  0  0  0  0
   11.0130   -1.3360   21.9740 C   0  0  0  0  0  0  0  0  0  0  0  0
   10.1690   -0.3900   22.7210 C   0  0  0  0  0  0  0  0  0  0  0  0
  1  4  1  0
  4  2  1  6
  1  5  1  0
  3  5  2  0
  5  6  1  0
  8 12  2  0
 10 12  1  0
 11 12  1  0
  2 13  1  0
 11 13  1  0
  4 14  1  0
 14 15  2  0
 15 16  1  0
 16 17  2  0
 17 18  1  0
 14 19  1  0
 18 19  2  0
 16 20  1  0
 20 21  2  0
 21 22  1  0
 15 23  1  0
 22 23  2  0
  7 24  1  0
 24 25  2  0
 10 26  1  0
 25 26  1  0
 26 27  2  0
 27 28  1  0
 24 29  1  0
 28 29  2  0
 30 31  2  0
 31 32  1  0
  9 33  1  0
 32 33  2  0
 33 34  1  0
 11 35  1  0
 30 35  1  0
 34 35  2  0
M  END
