x2964-x1375
     RDKit          3D

 39 42  0  0  0  0  0  0  0  0999 V2000
    5.8400   -4.9250   20.0770 O   0  0  0  0  0  0  0  0  0  0  0  0
    6.6650   -4.4450   20.9060 C   0  0  0  0  0  0  0  0  0  0  0  0
    8.0870   -3.9080   20.6070 C   0  0  0  0  0  0  0  0  0  0  0  0
    6.3410   -4.2230   22.4400 C   0  0  2  0  0  0  0  0  0  0  0  0
    2.2440   -6.9890   23.5940 O   0  0  0  0  0  0  0  0  0  0  0  0
    4.3350   -7.9190   24.7420 O   0  0  0  0  0  0  0  0  0  0  0  0
   10.8060   -4.4840   25.8290 F   0  0  0  0  0  0  0  0  0  0  0  0
    3.1480    2.2750   19.1440 N   0  0  0  0  0  0  0  0  0  0  0  0
    8.6000    1.3670   21.1440 O   0  0  0  0  0  0  0  0  0  0  0  0
   13.3990   -1.9700   21.1870 Cl  0  0  0  0  0  0  0  0  0  0  0  0
    7.1330   -0.4180   21.1450 N   0  0  0  0  0  0  0  0  0  0  0  0
    8.8110   -0.3390   22.6250 N   0  0  0  0  0  0  0  0  0  0  0  0
    8.1960    0.2760   21.6100 C   0  0  0  0  0  0  0  0  0  0  0  0
    5.5890   -2.9210   22.4770 C   0  0  0  0  0  0  0  0  0  0  0  0
    5.9370   -2.1300   21.2130 C   0  0  0  0  0  0  0  0  0  0  0  0
    7.2060   -1.5610   21.1490 C   0  0  0  0  0  0  0  0  0  0  0  0
    8.1270   -3.1030   23.9080 C   0  0  0  0  0  0  0  0  0  0  0  0
    9.2100   -3.1740   24.7400 C   0  0  0  0  0  0  0  0  0  0  0  0
    9.7550   -4.4060   25.0080 C   0  0  0  0  0  0  0  0  0  0  0  0
    9.2390   -5.5800   24.4470 C   0  0  0  0  0  0  0  0  0  0  0  0
    8.1350   -5.6590   23.5720 C   0  0  0  0  0  0  0  0  0  0  0  0
    7.6060   -4.2730   23.3530 C   0  0  0  0  0  0  0  0  0  0  0  0
    4.8500   -4.6220   24.2390 C   0  0  0  0  0  0  0  0  0  0  0  0
    5.4740   -5.2680   23.1580 C   0  0  1  0  0  0  0  0  0  0  0  0
    4.6540   -6.1460   22.5510 C   0  0  0  0  0  0  0  0  0  0  0  0
    3.6280   -6.7640   23.9240 S   0  0  0  0  0  0  0  0  0  0  0  0
    3.8190   -5.2440   24.8320 C   0  0  0  0  0  0  0  0  0  0  0  0
    4.4030    1.5510   19.1560 C   0  0  0  0  0  0  0  0  0  0  0  0
    5.0880    0.9160   20.3580 C   0  0  0  0  0  0  0  0  0  0  0  0
    6.3910    0.2050   20.1090 C   0  0  0  0  0  0  0  0  0  0  0  0
    6.9150    0.1590   18.7180 C   0  0  0  0  0  0  0  0  0  0  0  0
    6.3900    0.6890   17.6240 N   0  0  0  0  0  0  0  0  0  0  0  0
    5.1440    1.3850   17.8380 C   0  0  0  0  0  0  0  0  0  0  0  0
   10.7420    0.8750   23.5480 C   0  0  0  0  0  0  0  0  0  0  0  0
   12.0820    1.0570   23.6310 C   0  0  0  0  0  0  0  0  0  0  0  0
   13.0560    0.1950   22.9170 C   0  0  0  0  0  0  0  0  0  0  0  0
   12.4980   -0.9120   22.0910 C   0  0  0  0  0  0  0  0  0  0  0  0
   11.0120   -1.0120   22.0800 C   0  0  0  0  0  0  0  0  0  0  0  0
   10.2140   -0.1430   22.7750 C   0  0  0  0  0  0  0  0  0  0  0  0
  1  2  2  0
  2  3  1  0
  4  2  1  0
  9 13  2  0
 11 13  1  0
 12 13  1  0
  4 14  1  6
 14 15  1  0
 11 16  1  0
 15 16  1  0
 17 18  2  0
  7 19  1  0
 18 19  1  0
 19 20  2  0
 20 21  1  0
  4 22  1  0
 17 22  1  0
 21 22  2  0
  4 24  1  0
 24 23  1  1
 24 25  1  0
 26  5  1  0
  6 26  1  0
 25 26  1  0
 23 27  2  0
 26 27  1  0
  8 28  1  0
 28 29  2  0
 11 30  1  0
 29 30  1  0
 30 31  2  0
 31 32  1  0
 28 33  1  0
 32 33  2  0
 34 35  2  0
 35 36  1  0
 10 37  1  0
 36 37  2  0
 37 38  1  0
 12 39  1  0
 34 39  1  0
 38 39  2  0
M  END
