x2964-x0705
     RDKit          3D

 37 41  0  0  0  0  0  0  0  0999 V2000
    1.3560   -2.6480   27.7510 C   0  0  0  0  0  0  0  0  0  0  0  0
    7.6770   -0.9980   26.2830 O   0  0  0  0  0  0  0  0  0  0  0  0
    5.8810   -3.5070   19.5370 O   0  0  0  0  0  0  0  0  0  0  0  0
    6.6840   -1.6100   25.4780 C   0  0  0  0  0  0  0  0  0  0  0  0
    6.7000   -3.5920   20.4830 C   0  0  0  0  0  0  0  0  0  0  0  0
    7.8590   -4.4950   20.4360 C   0  0  0  0  0  0  0  0  0  0  0  0
    3.1920    2.3500   19.0600 N   0  0  0  0  0  0  0  0  0  0  0  0
    8.7620    1.3450   21.2520 O   0  0  0  0  0  0  0  0  0  0  0  0
   13.3730   -2.1440   21.2750 Cl  0  0  0  0  0  0  0  0  0  0  0  0
    7.0530   -0.5540   20.9490 N   0  0  0  0  0  0  0  0  0  0  0  0
    8.6710   -0.6370   22.8700 N   0  0  0  0  0  0  0  0  0  0  0  0
    8.1620    0.0850   21.6800 C   0  0  0  0  0  0  0  0  0  0  0  0
    6.2250   -1.4080   21.7600 C   0  0  0  0  0  0  0  0  0  0  0  0
    2.7750   -2.3920   27.1690 C   0  0  0  0  0  0  0  0  0  0  0  0
    2.9220   -1.4480   26.1670 C   0  0  0  0  0  0  0  0  0  0  0  0
    4.1650   -1.1790   25.6110 C   0  0  0  0  0  0  0  0  0  0  0  0
    5.3220   -1.8470   26.0380 C   0  0  0  0  0  0  0  0  0  0  0  0
    5.1580   -2.8080   27.0590 C   0  0  0  0  0  0  0  0  0  0  0  0
    3.9030   -3.0830   27.6230 C   0  0  0  0  0  0  0  0  0  0  0  0
    6.6770   -2.8600   21.8330 C   0  0  1  0  0  0  0  0  0  0  0  0
    5.9080   -3.6230   22.6630 C   0  0  0  0  0  0  0  0  0  0  0  0
    6.1330   -3.3110   23.9680 C   0  0  0  0  0  0  0  0  0  0  0  0
    6.8680   -2.0320   24.1600 N   0  0  0  0  0  0  0  0  0  0  0  0
    8.1890   -1.9800   23.4070 C   0  0  1  0  0  0  0  0  0  0  0  0
    8.1160   -2.8650   22.3450 C   0  0  0  0  0  0  0  0  0  0  0  0
    4.4300    1.6000   19.0570 C   0  0  0  0  0  0  0  0  0  0  0  0
    5.0910    0.8700   20.2000 C   0  0  0  0  0  0  0  0  0  0  0  0
    6.3820    0.1540   19.9340 C   0  0  0  0  0  0  0  0  0  0  0  0
    6.9360    0.2000   18.5640 C   0  0  0  0  0  0  0  0  0  0  0  0
    6.3900    0.8340   17.5420 N   0  0  0  0  0  0  0  0  0  0  0  0
    5.2350    1.4780   17.7770 C   0  0  0  0  0  0  0  0  0  0  0  0
   10.6720    0.7370   23.6150 C   0  0  0  0  0  0  0  0  0  0  0  0
   12.0120    1.0220   23.6450 C   0  0  0  0  0  0  0  0  0  0  0  0
   12.9450    0.1230   22.9090 C   0  0  0  0  0  0  0  0  0  0  0  0
   12.4220   -1.0680   22.1560 C   0  0  0  0  0  0  0  0  0  0  0  0
   10.9230   -1.2460   22.2200 C   0  0  0  0  0  0  0  0  0  0  0  0
   10.1110   -0.3580   22.9270 C   0  0  0  0  0  0  0  0  0  0  0  0
  2  4  2  0
  3  5  2  0
  5  6  1  0
  8 12  2  0
 10 12  1  0
 11 12  1  0
 10 13  1  0
  1 14  1  0
 14 15  2  0
 15 16  1  0
  4 17  1  0
 16 17  2  0
 17 18  1  0
 14 19  1  0
 18 19  2  0
 20  5  1  6
 13 20  1  0
 20 21  1  0
 21 22  1  0
  4 23  1  0
 22 23  1  0
 24 11  1  6
 23 24  1  0
 20 25  1  0
 24 25  1  0
  7 26  1  0
 26 27  2  0
 10 28  1  0
 27 28  1  0
 28 29  2  0
 29 30  1  0
 26 31  1  0
 30 31  2  0
 32 33  2  0
 33 34  1  0
  9 35  1  0
 34 35  2  0
 35 36  1  0
 11 37  1  0
 32 37  1  0
 36 37  2  0
M  END
