x3077-x2908
     RDKit          3D

 29 33  0  0  0  0  0  0  0  0999 V2000
    6.9220   -3.3570   19.2830 C   0  0  0  0  0  0  0  0  0  0  0  0
    5.5880   -5.1750   20.0420 O   0  0  0  0  0  0  0  0  0  0  0  0
   13.4870   -1.7020   21.0150 Cl  0  0  0  0  0  0  0  0  0  0  0  0
    6.1730   -4.1370   20.3460 C   0  0  0  0  0  0  0  0  0  0  0  0
    9.4430   -2.3140   23.5430 C   0  0  0  0  0  0  0  0  0  0  0  0
    5.0910    1.1350   21.7930 C   0  0  0  0  0  0  0  0  0  0  0  0
    8.9240    1.1850   22.2820 O   0  0  0  0  0  0  0  0  0  0  0  0
    7.6170   -0.4720   21.1840 N   0  0  0  0  0  0  0  0  0  0  0  0
    7.9490   -0.4880   23.2930 N   0  0  0  0  0  0  0  0  0  0  0  0
    8.2390    0.1760   22.3250 C   0  0  0  0  0  0  0  0  0  0  0  0
    6.1220   -3.6370   21.6260 N   0  0  0  0  0  0  0  0  0  0  0  0
    7.0370   -4.0650   22.7450 C   0  0  0  0  0  0  0  0  0  0  0  0
    6.9730   -2.8920   23.5430 C   0  0  2  0  0  0  0  0  0  0  0  0
    5.8900   -2.2120   23.1720 C   0  0  0  0  0  0  0  0  0  0  0  0
    6.0360   -2.2370   21.8180 C   0  0  1  0  0  0  0  0  0  0  0  0
    8.0550   -1.8850   23.0820 C   0  0  2  0  0  0  0  0  0  0  0  0
    7.5410   -1.8570   21.6110 C   0  0  2  0  0  0  0  0  0  0  0  0
   10.8510   -0.2130   24.1560 C   0  0  0  0  0  0  0  0  0  0  0  0
   11.9860    0.5470   23.9050 C   0  0  0  0  0  0  0  0  0  0  0  0
   12.8660    0.1300   22.9300 C   0  0  0  0  0  0  0  0  0  0  0  0
   12.5570   -1.0450   22.2400 C   0  0  0  0  0  0  0  0  0  0  0  0
   11.4410   -1.7700   22.5010 C   0  0  0  0  0  0  0  0  0  0  0  0
   10.6000   -1.4080   23.4060 C   0  0  0  0  0  0  0  0  0  0  0  0
    6.2780    0.4010   17.7110 N   0  0  0  0  0  0  0  0  0  0  0  0
    7.0490   -0.1130   18.6890 C   0  0  0  0  0  0  0  0  0  0  0  0
    6.7870    0.0550   20.2000 C   0  0  0  0  0  0  0  0  0  0  0  0
    5.6180    0.8060   20.4300 C   0  0  0  0  0  0  0  0  0  0  0  0
    4.8370    1.3240   19.3730 C   0  0  0  0  0  0  0  0  0  0  0  0
    5.2030    1.1030   18.0670 C   0  0  0  0  0  0  0  0  0  0  0  0
  1  4  1  0
  2  4  2  0
  7 10  2  0
  8 10  1  0
  9 10  1  0
  4 11  1  0
 11 12  1  0
 13 12  1  6
 13 14  1  0
 15 11  1  1
 14 15  1  0
 16  5  1  6
  9 16  1  0
 13 16  1  0
 17  8  1  1
 15 17  1  0
 16 17  1  0
 18 19  2  0
 19 20  1  0
  3 21  1  0
 20 21  2  0
 21 22  1  0
  5 23  1  0
 18 23  1  0
 22 23  2  0
 24 25  2  0
  8 26  1  0
 25 26  1  0
  6 27  1  0
 26 27  2  0
 27 28  1  0
 24 29  1  0
 28 29  2  0
M  END
