x3077-x0967
     RDKit          3D

 34 37  0  0  0  0  0  0  0  0999 V2000
    7.8440    4.6010   22.4050 C   0  0  0  0  0  0  0  0  0  0  0  0
    8.2720    2.1200   23.0330 N   0  0  0  0  0  0  0  0  0  0  0  0
    6.0130    3.3400   23.4800 O   0  0  0  0  0  0  0  0  0  0  0  0
    7.3560    3.2570   22.9960 C   0  0  0  0  0  0  0  0  0  0  0  0
    8.6980   -1.4610   22.4000 N   0  0  0  0  0  0  0  0  0  0  0  0
    5.6680    0.8180   17.0870 O   0  0  0  0  0  0  0  0  0  0  0  0
    7.7750    0.7150   23.1090 C   0  0  1  0  0  0  0  0  0  0  0  0
    9.8000    0.4120   21.6200 O   0  0  0  0  0  0  0  0  0  0  0  0
    6.4500    0.6500   22.6730 C   0  0  0  0  0  0  0  0  0  0  0  0
    8.7730   -0.2440   22.3540 C   0  0  0  0  0  0  0  0  0  0  0  0
    9.8420   -2.2570   22.3240 C   0  0  0  0  0  0  0  0  0  0  0  0
   13.0870   -2.1680   21.2530 Br  0  0  0  0  0  0  0  0  0  0  0  0
    6.8210   -3.3180   19.3780 C   0  0  0  0  0  0  0  0  0  0  0  0
    5.4030   -5.1020   20.0050 O   0  0  0  0  0  0  0  0  0  0  0  0
    6.1300   -4.1970   20.3950 C   0  0  0  0  0  0  0  0  0  0  0  0
    6.2790    0.6560   21.1960 C   0  0  0  0  0  0  0  0  0  0  0  0
    7.1240   -0.2880   20.3340 C   0  0  0  0  0  0  0  0  0  0  0  0
    6.8220   -0.1540   18.8540 C   0  0  0  0  0  0  0  0  0  0  0  0
    5.8710    0.7550   18.4030 C   0  0  0  0  0  0  0  0  0  0  0  0
    5.1550    1.5690   19.2510 C   0  0  0  0  0  0  0  0  0  0  0  0
    5.3450    1.5290   20.6190 C   0  0  0  0  0  0  0  0  0  0  0  0
    6.3010   -4.0350   21.7500 N   0  0  0  0  0  0  0  0  0  0  0  0
    7.5890   -4.2590   22.4240 C   0  0  0  0  0  0  0  0  0  0  0  0
    7.6170   -3.3990   23.5310 C   0  0  2  0  0  0  0  0  0  0  0  0
    6.3810   -3.2220   23.9210 C   0  0  0  0  0  0  0  0  0  0  0  0
    5.7680   -3.1010   22.5420 C   0  0  1  0  0  0  0  0  0  0  0  0
    7.6220   -1.9890   23.0280 N   0  0  0  0  0  0  0  0  0  0  0  0
    6.4360   -1.7350   22.3910 C   0  0  0  0  0  0  0  0  0  0  0  0
   10.9840    0.3760   24.3930 C   0  0  0  0  0  0  0  0  0  0  0  0
   12.2880    0.6110   24.0390 C   0  0  0  0  0  0  0  0  0  0  0  0
   12.8700   -0.1600   23.1120 C   0  0  0  0  0  0  0  0  0  0  0  0
   12.1680   -1.1650   22.4990 C   0  0  0  0  0  0  0  0  0  0  0  0
   10.8360   -1.3460   22.8480 C   0  0  0  0  0  0  0  0  0  0  0  0
   10.2660   -0.5740   23.8160 C   0  0  0  0  0  0  0  0  0  0  0  0
  1  4  1  0
  2  4  1  0
  3  4  2  0
  2  7  1  0
  7  9  1  6
  5 10  1  0
  7 10  1  0
  8 10  2  0
  5 11  1  0
 13 15  1  0
 14 15  2  0
  9 16  1  0
 16 17  2  0
 17 18  1  0
  6 19  1  0
 18 19  2  0
 19 20  1  0
 16 21  1  0
 20 21  2  0
 15 22  1  0
 22 23  1  0
 24 23  1  6
 24 25  1  0
 22 26  1  0
 25 26  1  0
  5 27  1  0
 24 27  1  0
 26 28  1  6
 27 28  1  0
 29 30  2  0
 30 31  1  0
 12 32  1  0
 31 32  2  0
 11 33  1  0
 32 33  1  0
 29 34  1  0
 33 34  2  0
M  END
