x3077-x2572
     RDKit          3D

 29 33  0  0  0  0  0  0  0  0999 V2000
    6.9010   -3.3840   19.4160 C   0  0  0  0  0  0  0  0  0  0  0  0
    5.4350   -5.1470   20.0270 O   0  0  0  0  0  0  0  0  0  0  0  0
   13.2740   -2.1000   21.7850 N   0  0  0  0  0  0  0  0  0  0  0  0
    6.1150   -4.2050   20.4210 C   0  0  0  0  0  0  0  0  0  0  0  0
    8.7230   -0.9300   23.2370 C   0  0  1  0  0  0  0  0  0  0  0  0
   13.7430   -1.5650   20.6120 N   0  0  0  0  0  0  0  0  0  0  0  0
    4.6100    1.5040   21.7160 C   0  0  0  0  0  0  0  0  0  0  0  0
    8.6290    1.2260   21.9760 O   0  0  0  0  0  0  0  0  0  0  0  0
    7.1370   -0.4390   21.4880 N   0  0  0  0  0  0  0  0  0  0  0  0
    8.1790    0.1060   22.1880 C   0  0  0  0  0  0  0  0  0  0  0  0
    6.1640   -3.8960   21.7690 N   0  0  0  0  0  0  0  0  0  0  0  0
    7.2150   -4.3170   22.7310 C   0  0  0  0  0  0  0  0  0  0  0  0
    7.5220   -3.2450   23.5190 C   0  0  2  0  0  0  0  0  0  0  0  0
    6.3190   -2.5860   23.5630 C   0  0  0  0  0  0  0  0  0  0  0  0
    6.0470   -2.4810   22.2180 C   0  0  1  0  0  0  0  0  0  0  0  0
    8.2690   -2.2060   22.6780 N   0  0  0  0  0  0  0  0  0  0  0  0
    7.2700   -1.8590   21.6090 C   0  0  2  0  0  0  0  0  0  0  0  0
   10.7470    0.3760   23.9280 C   0  0  0  0  0  0  0  0  0  0  0  0
   12.1020    0.6420   23.9030 C   0  0  0  0  0  0  0  0  0  0  0  0
   12.9460   -0.1730   23.1960 C   0  0  0  0  0  0  0  0  0  0  0  0
   12.4560   -1.2550   22.5210 C   0  0  0  0  0  0  0  0  0  0  0  0
   11.1140   -1.5280   22.5380 C   0  0  0  0  0  0  0  0  0  0  0  0
   10.2230   -0.7230   23.2290 C   0  0  0  0  0  0  0  0  0  0  0  0
    6.4540    0.4130   17.8030 N   0  0  0  0  0  0  0  0  0  0  0  0
    6.9930   -0.1080   18.9260 C   0  0  0  0  0  0  0  0  0  0  0  0
    6.5480    0.1140   20.4020 C   0  0  0  0  0  0  0  0  0  0  0  0
    5.3030    1.0740   20.4560 C   0  0  0  0  0  0  0  0  0  0  0  0
    4.8070    1.5610   19.2480 C   0  0  0  0  0  0  0  0  0  0  0  0
    5.3240    1.2700   18.0060 C   0  0  0  0  0  0  0  0  0  0  0  0
  1  4  1  0
  2  4  2  0
  3  6  1  0
  5 10  1  0
  8 10  2  0
  9 10  1  0
  4 11  1  0
 11 12  1  0
 13 12  1  6
 13 14  1  0
 15 11  1  6
 14 15  1  0
  5 16  1  0
 13 16  1  0
 17  9  1  1
 15 17  1  0
 16 17  1  0
 18 19  2  0
 19 20  1  0
  3 21  1  0
 20 21  2  0
 21 22  1  0
  5 23  1  6
 18 23  1  0
 22 23  2  0
 24 25  2  0
  9 26  1  0
 25 26  1  0
  7 27  1  0
 26 27  2  0
 27 28  1  0
 24 29  1  0
 28 29  2  0
M  END
