x3077-x0540
     RDKit          3D

 37 41  0  0  0  0  0  0  0  0999 V2000
    6.9330   -3.1490   19.1860 C   0  0  0  0  0  0  0  0  0  0  0  0
    5.3820   -4.7160   19.9730 O   0  0  0  0  0  0  0  0  0  0  0  0
   13.2860   -1.9060   21.1720 Cl  0  0  0  0  0  0  0  0  0  0  0  0
    6.1990   -3.8430   20.2990 C   0  0  0  0  0  0  0  0  0  0  0  0
    8.9960   -1.7580   24.1340 C   0  0  0  0  0  0  0  0  0  0  0  0
    2.8470    1.3390   24.6580 O   0  0  0  0  0  0  0  0  0  0  0  0
    3.0300    2.1980   23.5410 C   0  0  0  0  0  0  0  0  0  0  0  0
    4.1270    2.1320   22.6960 N   0  0  0  0  0  0  0  0  0  0  0  0
    5.1290    0.9950   22.7270 C   0  0  0  0  0  0  0  0  0  0  0  0
    4.8940   -0.1590   21.7090 C   0  0  2  0  0  0  0  0  0  0  0  0
    2.1210    3.1850   23.1780 N   0  0  0  0  0  0  0  0  0  0  0  0
    5.1400   -1.5320   22.0250 C   0  0  0  0  0  0  0  0  0  0  0  0
    6.4580   -3.5670   21.6460 N   0  0  0  0  0  0  0  0  0  0  0  0
    7.3910   -4.3960   22.4050 C   0  0  0  0  0  0  0  0  0  0  0  0
    7.5280   -3.6050   23.5030 C   0  0  2  0  0  0  0  0  0  0  0  0
    6.2840   -2.8190   23.7530 C   0  0  0  0  0  0  0  0  0  0  0  0
    6.3430   -2.2430   22.3500 C   0  0  2  0  0  0  0  0  0  0  0  0
    8.4000   -2.4830   23.0190 N   0  0  0  0  0  0  0  0  0  0  0  0
    7.6320   -1.6900   22.1670 C   0  0  0  0  0  0  0  0  0  0  0  0
   10.7450    0.2330   24.2680 C   0  0  0  0  0  0  0  0  0  0  0  0
   11.9420    0.7860   23.8290 C   0  0  0  0  0  0  0  0  0  0  0  0
   12.7200    0.1150   22.8790 C   0  0  0  0  0  0  0  0  0  0  0  0
   12.3380   -1.1190   22.3290 C   0  0  0  0  0  0  0  0  0  0  0  0
   11.2150   -1.6870   22.7070 C   0  0  0  0  0  0  0  0  0  0  0  0
   10.3340   -0.9970   23.7420 C   0  0  0  0  0  0  0  0  0  0  0  0
    6.6020   -0.4090   19.8310 C   0  0  0  0  0  0  0  0  0  0  0  0
    6.9790   -0.0690   18.5660 C   0  0  0  0  0  0  0  0  0  0  0  0
    6.3140    0.7660   17.7460 N   0  0  0  0  0  0  0  0  0  0  0  0
    5.1690    1.3010   18.2330 C   0  0  0  0  0  0  0  0  0  0  0  0
    4.6900    1.0230   19.5000 C   0  0  0  0  0  0  0  0  0  0  0  0
    5.4310    0.1440   20.3180 C   0  0  0  0  0  0  0  0  0  0  0  0
    0.6760    4.6450   24.3870 C   0  0  0  0  0  0  0  0  0  0  0  0
   -0.5440    4.8380   25.0690 C   0  0  0  0  0  0  0  0  0  0  0  0
   -1.6160    4.5950   24.2220 C   0  0  0  0  0  0  0  0  0  0  0  0
   -1.5280    3.3040   23.6940 C   0  0  0  0  0  0  0  0  0  0  0  0
   -0.2750    2.8040   23.3090 C   0  0  0  0  0  0  0  0  0  0  0  0
    0.8900    3.3450   23.8730 C   0  0  0  0  0  0  0  0  0  0  0  0
  1  4  1  0
  2  4  2  0
  6  7  2  0
  7  8  1  0
  8  9  1  0
 10  9  1  1
  7 11  1  0
 10 12  1  0
  4 13  1  0
 13 14  1  0
 15 14  1  6
 15 16  1  0
 17 12  1  6
 13 17  1  0
 16 17  1  0
  5 18  1  0
 15 18  1  0
 17 19  1  0
 18 19  1  0
 20 21  2  0
 21 22  1  0
  3 23  1  0
 22 23  2  0
 23 24  1  0
  5 25  1  0
 20 25  1  0
 24 25  2  0
 26 27  2  0
 27 28  1  0
 28 29  2  0
 29 30  1  0
 10 31  1  0
 26 31  1  0
 30 31  2  0
 32 33  1  0
 33 34  1  0
 34 35  1  0
 35 36  1  0
 11 37  1  0
 32 37  1  0
 36 37  1  0
M  END
