x3077-x1336
     RDKit          3D

 29 33  0  0  0  0  0  0  0  0999 V2000
    6.0260   -5.1590   29.0830 C   0  0  0  0  0  0  0  0  0  0  0  0
    8.2980   -0.5650   24.9240 N   0  0  0  0  0  0  0  0  0  0  0  0
    5.9490   -1.5010   25.5470 O   0  0  0  0  0  0  0  0  0  0  0  0
    5.5690   -4.2560   19.8700 O   0  0  0  0  0  0  0  0  0  0  0  0
   10.1140   -3.6700   24.9400 C   0  0  0  0  0  0  0  0  0  0  0  0
    6.6230   -3.6240   20.1040 C   0  0  0  0  0  0  0  0  0  0  0  0
    7.4320   -3.1040   18.9370 C   0  0  0  0  0  0  0  0  0  0  0  0
    7.3020   -1.7570   25.0950 S   0  0  2  0  0  0  0  0  0  0  0  0
    7.0590   -4.7620   28.0180 C   0  0  0  0  0  0  0  0  0  0  0  0
    6.8930   -3.5840   27.0520 C   0  0  0  0  0  0  0  0  0  0  0  0
    7.8220   -3.2030   26.0730 C   0  0  0  0  0  0  0  0  0  0  0  0
    9.0260   -3.9670   25.9530 C   0  0  0  0  0  0  0  0  0  0  0  0
    9.2500   -5.0680   26.8050 C   0  0  0  0  0  0  0  0  0  0  0  0
    8.2380   -5.4920   27.8810 C   0  0  0  0  0  0  0  0  0  0  0  0
    7.2330   -3.4180   21.4770 C   0  0  2  0  0  0  0  0  0  0  0  0
    6.9820   -4.4080   22.3040 C   0  0  2  0  0  0  0  0  0  0  0  0
    6.5430   -3.4580   22.9580 C   0  0  2  0  0  0  0  0  0  0  0  0
    7.0230   -2.1580   23.4570 N   0  0  0  0  0  0  0  0  0  0  0  0
    7.8020   -1.5030   22.3960 C   0  0  0  0  0  0  0  0  0  0  0  0
    8.3410   -2.5590   21.6380 C   0  0  0  0  0  0  0  0  0  0  0  0
    7.5120   -4.4880   23.4730 C   0  0  0  0  0  0  0  0  0  0  0  0
   13.4260   -1.7160   20.9830 Cl  0  0  0  0  0  0  0  0  0  0  0  0
   10.6680   -0.6170   24.2920 C   0  0  0  0  0  0  0  0  0  0  0  0
   11.7610    0.4470   24.0000 C   0  0  0  0  0  0  0  0  0  0  0  0
   12.7270    0.0620   22.8480 C   0  0  0  0  0  0  0  0  0  0  0  0
   12.4620   -1.1670   22.2420 C   0  0  0  0  0  0  0  0  0  0  0  0
   11.4470   -2.0390   22.5610 C   0  0  0  0  0  0  0  0  0  0  0  0
   10.5860   -1.7720   23.5520 C   0  0  0  0  0  0  0  0  0  0  0  0
    9.6330   -0.5330   25.3660 C   0  0  0  0  0  0  0  0  0  0  0  0
  4  6  2  0
  6  7  1  0
  2  8  2  0
  3  8  2  0
  1  9  1  0
  9 10  2  0
  8 11  1  1
 10 11  1  0
  5 12  1  0
 11 12  2  0
 12 13  1  0
  9 14  1  0
 13 14  2  0
 15  6  1  6
 15 16  1  0
 15 17  1  0
 16 17  1  0
  8 18  1  0
 17 18  1  0
 18 19  1  0
 15 20  1  0
 19 20  1  0
 16 21  1  1
 17 21  1  6
 23 24  2  0
 24 25  1  0
 22 26  1  0
 25 26  2  0
 26 27  1  0
 23 28  1  0
 27 28  2  0
  2 29  1  0
 23 29  1  0
M  END
