x3077-x1380
     RDKit          3D

 26 29  0  0  0  0  0  0  0  0999 V2000
    6.9100   -3.2130   19.3920 C   0  0  0  0  0  0  0  0  0  0  0  0
    5.5100   -4.9720   20.0450 O   0  0  0  0  0  0  0  0  0  0  0  0
   13.3040   -1.9060   21.1230 Cl  0  0  0  0  0  0  0  0  0  0  0  0
    6.2120   -4.0350   20.4540 C   0  0  0  0  0  0  0  0  0  0  0  0
    9.1590   -1.9880   24.1050 C   0  0  0  0  0  0  0  0  0  0  0  0
    4.6220   -3.6170   24.6000 O   0  0  0  0  0  0  0  0  0  0  0  0
    5.9740   -3.3670   24.9270 C   0  0  0  0  0  0  0  0  0  0  0  0
    6.3330   -3.7620   21.8840 N   0  0  0  0  0  0  0  0  0  0  0  0
    7.2450   -4.6060   22.7070 C   0  0  0  0  0  0  0  0  0  0  0  0
    7.7260   -3.6850   23.8550 C   0  0  2  0  0  0  0  0  0  0  0  0
    6.8830   -2.5990   23.9040 C   0  0  1  0  0  0  0  0  0  0  0  0
    6.6000   -2.4470   22.5220 C   0  0  1  0  0  0  0  0  0  0  0  0
    8.6440   -2.7570   23.1960 N   0  0  0  0  0  0  0  0  0  0  0  0
    7.8850   -2.0100   22.1380 C   0  0  0  0  0  0  0  0  0  0  0  0
   10.7320    0.0020   24.2950 C   0  0  0  0  0  0  0  0  0  0  0  0
   12.0200    0.7000   23.8190 C   0  0  0  0  0  0  0  0  0  0  0  0
   12.8120    0.1030   22.8430 C   0  0  0  0  0  0  0  0  0  0  0  0
   12.4100   -1.1140   22.3180 C   0  0  0  0  0  0  0  0  0  0  0  0
   11.2660   -1.7200   22.7460 C   0  0  0  0  0  0  0  0  0  0  0  0
   10.4120   -1.2250   23.7040 C   0  0  0  0  0  0  0  0  0  0  0  0
    7.7260   -4.3700   26.3960 C   0  0  0  0  0  0  0  0  0  0  0  0
    7.7980   -5.2720   27.3780 C   0  0  0  0  0  0  0  0  0  0  0  0
    7.1400   -4.8400   28.6980 C   0  0  0  0  0  0  0  0  0  0  0  0
    5.7100   -4.3270   28.3470 C   0  0  0  0  0  0  0  0  0  0  0  0
    5.8590   -3.3860   27.3260 C   0  0  0  0  0  0  0  0  0  0  0  0
    6.5310   -3.7420   26.1910 N   0  0  0  0  0  0  0  0  0  0  0  0
  1  4  1  0
  2  4  2  0
  6  7  2  0
  4  8  1  0
  8  9  1  0
 10  9  1  6
 11  7  1  1
 10 11  1  0
  8 12  1  0
 11 12  1  0
  5 13  1  0
 10 13  1  0
 12 14  1  6
 13 14  1  0
 15 16  2  0
 16 17  1  0
  3 18  1  0
 17 18  2  0
 18 19  1  0
  5 20  1  0
 15 20  1  0
 19 20  2  0
 21 22  1  0
 22 23  1  0
 23 24  1  0
 24 25  1  0
  7 26  1  0
 21 26  1  0
 25 26  1  0
M  END
