x3077-x0831
     RDKit          3D

 18 20  0  0  0  0  0  0  0  0999 V2000
    6.9610   -3.2110   19.2100 C   0  0  0  0  0  0  0  0  0  0  0  0
    5.4170   -4.8890   19.9990 O   0  0  0  0  0  0  0  0  0  0  0  0
   13.2770   -1.8890   21.1690 Cl  0  0  0  0  0  0  0  0  0  0  0  0
    6.2250   -4.0100   20.2920 C   0  0  0  0  0  0  0  0  0  0  0  0
    9.2880   -2.0560   24.3630 C   0  0  0  0  0  0  0  0  0  0  0  0
    6.5170   -3.7400   21.6000 N   0  0  0  0  0  0  0  0  0  0  0  0
    7.0850   -4.6440   22.6030 C   0  0  0  0  0  0  0  0  0  0  0  0
    7.4800   -3.6510   23.7400 C   0  0  2  0  0  0  0  0  0  0  0  0
    6.3330   -2.6480   23.6250 C   0  0  0  0  0  0  0  0  0  0  0  0
    6.6250   -2.3840   22.1360 C   0  0  1  0  0  0  0  0  0  0  0  0
    8.6630   -2.8500   23.2940 N   0  0  0  0  0  0  0  0  0  0  0  0
    8.1170   -1.9790   22.2040 C   0  0  0  0  0  0  0  0  0  0  0  0
   10.8230   -0.0310   24.3680 C   0  0  0  0  0  0  0  0  0  0  0  0
   11.9380    0.6610   23.8790 C   0  0  0  0  0  0  0  0  0  0  0  0
   12.7160    0.0950   22.8840 C   0  0  0  0  0  0  0  0  0  0  0  0
   12.3650   -1.1520   22.3920 C   0  0  0  0  0  0  0  0  0  0  0  0
   11.2740   -1.8440   22.8570 C   0  0  0  0  0  0  0  0  0  0  0  0
   10.4900   -1.2880   23.8570 C   0  0  0  0  0  0  0  0  0  0  0  0
  1  4  1  0
  2  4  2  0
  4  6  1  0
  6  7  1  0
  8  7  1  6
  8  9  1  0
  6 10  1  0
  9 10  1  0
  5 11  1  0
  8 11  1  0
 10 12  1  1
 11 12  1  0
 13 14  2  0
 14 15  1  0
  3 16  1  0
 15 16  2  0
 16 17  1  0
  5 18  1  0
 13 18  1  0
 17 18  2  0
M  END
