x3077-x2540
     RDKit          3D

 33 36  0  0  0  0  0  0  0  0999 V2000
    7.1500   -1.1470   21.1380 N   0  0  0  0  0  0  0  0  0  0  0  0
    8.0260    1.8530   23.0180 N   0  0  0  0  0  0  0  0  0  0  0  0
    8.7970    1.5950   20.8930 O   0  0  0  0  0  0  0  0  0  0  0  0
    6.8140    0.2600   21.4910 C   0  0  1  0  0  0  0  0  0  0  0  0
    7.9950    1.2830   21.7580 C   0  0  0  0  0  0  0  0  0  0  0  0
    8.8470    2.7810   23.3860 C   0  0  0  0  0  0  0  0  0  0  0  0
    8.7390    2.9320   24.8830 C   0  0  0  0  0  0  0  0  0  0  0  0
    8.4360    4.1430   22.7280 C   0  0  0  0  0  0  0  0  0  0  0  0
   10.3040    2.4750   22.9860 C   0  0  0  0  0  0  0  0  0  0  0  0
   12.2710   -1.3350   23.6200 C   0  0  0  0  0  0  0  0  0  0  0  0
   12.9010   -1.2740   22.2240 C   0  0  0  0  0  0  0  0  0  0  0  0
   12.4790   -0.0050   24.3290 C   0  0  0  0  0  0  0  0  0  0  0  0
   12.9620   -2.4300   24.4580 C   0  0  0  0  0  0  0  0  0  0  0  0
    7.3100   -3.1560   19.0730 C   0  0  0  0  0  0  0  0  0  0  0  0
    5.5610   -4.5480   19.9650 O   0  0  0  0  0  0  0  0  0  0  0  0
    6.5330   -3.8060   20.1990 C   0  0  0  0  0  0  0  0  0  0  0  0
    6.2850    0.6160   17.7840 N   0  0  0  0  0  0  0  0  0  0  0  0
    5.2300    1.4290   17.7560 C   0  0  0  0  0  0  0  0  0  0  0  0
    4.6070    1.9120   18.8790 C   0  0  0  0  0  0  0  0  0  0  0  0
    5.0890    1.5540   20.1310 C   0  0  0  0  0  0  0  0  0  0  0  0
    6.1910    0.7150   20.2180 C   0  0  0  0  0  0  0  0  0  0  0  0
    6.7290    0.2850   19.0000 C   0  0  0  0  0  0  0  0  0  0  0  0
   10.0350   -1.3690   24.6940 O   0  0  0  0  0  0  0  0  0  0  0  0
    8.6900   -1.2620   24.1260 N   0  0  0  0  0  0  0  0  0  0  0  0
    8.7120   -2.2130   23.0170 C   0  0  2  0  0  0  0  0  0  0  0  0
    9.9640   -2.1160   22.5470 C   0  0  0  0  0  0  0  0  0  0  0  0
   10.8030   -1.6290   23.5360 C   0  0  0  0  0  0  0  0  0  0  0  0
    7.0630   -3.5750   21.4720 N   0  0  0  0  0  0  0  0  0  0  0  0
    6.9690   -4.5650   22.5610 C   0  0  0  0  0  0  0  0  0  0  0  0
    7.0200   -3.6770   23.6050 C   0  0  2  0  0  0  0  0  0  0  0  0
    6.6060   -2.4330   23.1820 C   0  0  0  0  0  0  0  0  0  0  0  0
    7.4100   -2.2040   22.0830 C   0  0  2  0  0  0  0  0  0  0  0  0
    8.4820   -3.4240   23.7880 N   0  0  0  0  0  0  0  0  0  0  0  0
  4  1  1  6
  2  5  1  0
  3  5  2  0
  4  5  1  0
  6  2  1  0
  6  7  1  0
  6  8  1  0
  6  9  1  0
 10 11  1  0
 10 12  1  0
 10 13  1  0
 14 16  1  0
 15 16  2  0
 17 18  2  0
 18 19  1  0
 19 20  2  0
  4 21  1  0
 20 21  1  0
 17 22  1  0
 21 22  2  0
 23 24  1  0
 24 25  1  0
 25 26  1  6
 10 27  1  0
 23 27  1  0
 26 27  2  0
 16 28  1  0
 28 29  1  0
 30 29  1  6
 30 31  1  0
 32  1  1  6
 25 32  1  0
 28 32  1  0
 31 32  1  0
 25 33  1  0
 30 33  1  0
M  END
