x3077-x0678
     RDKit          3D

 28 32  0  0  0  0  0  0  0  0999 V2000
    7.0780   -3.2450   19.1590 C   0  0  0  0  0  0  0  0  0  0  0  0
    5.5590   -4.8870   20.0470 O   0  0  0  0  0  0  0  0  0  0  0  0
   13.2670   -1.9620   21.1410 Cl  0  0  0  0  0  0  0  0  0  0  0  0
    6.4080   -4.0130   20.2950 C   0  0  0  0  0  0  0  0  0  0  0  0
    9.1570   -1.6420   24.5050 C   0  0  0  0  0  0  0  0  0  0  0  0
    9.1630    1.8530   21.4390 O   0  0  0  0  0  0  0  0  0  0  0  0
    8.5800    0.8240   21.7610 C   0  0  0  0  0  0  0  0  0  0  0  0
    9.2120   -0.2750   22.6090 C   0  0  0  0  0  0  0  0  0  0  0  0
    7.3180    0.3980   21.4500 N   0  0  0  0  0  0  0  0  0  0  0  0
    6.8850   -3.6370   21.5320 N   0  0  0  0  0  0  0  0  0  0  0  0
    7.0400   -4.5850   22.6580 C   0  0  0  0  0  0  0  0  0  0  0  0
    7.8160   -3.9000   23.8080 C   0  0  0  0  0  0  0  0  0  0  0  0
    8.0540   -2.7030   22.9810 C   0  0  0  0  0  0  0  0  0  0  0  0
    7.6310   -2.3520   21.6120 C   0  0  0  0  0  0  0  0  0  0  0  0
    8.4730   -2.5590   23.8250 N   0  0  0  0  0  0  0  0  0  0  0  0
    8.4390   -1.6440   22.5780 C   0  0  0  0  0  0  0  0  0  0  0  0
   10.5820   -0.2770   23.4610 C   0  0  0  0  0  0  0  0  0  0  0  0
   11.6380    0.4890   23.7380 C   0  0  0  0  0  0  0  0  0  0  0  0
   12.6620   -0.1470   23.0700 C   0  0  0  0  0  0  0  0  0  0  0  0
   12.2610   -1.3450   22.3510 C   0  0  0  0  0  0  0  0  0  0  0  0
   11.0220   -2.0540   22.5990 C   0  0  0  0  0  0  0  0  0  0  0  0
   10.3090   -1.4420   23.5750 C   0  0  0  0  0  0  0  0  0  0  0  0
    5.5270    1.4520   20.2140 C   0  0  0  0  0  0  0  0  0  0  0  0
    4.8110    1.6920   18.9400 C   0  0  0  0  0  0  0  0  0  0  0  0
    5.3480    1.0410   17.9060 C   0  0  0  0  0  0  0  0  0  0  0  0
    6.4180    0.2290   17.9260 N   0  0  0  0  0  0  0  0  0  0  0  0
    7.0360    0.0300   19.0890 C   0  0  0  0  0  0  0  0  0  0  0  0
    6.6280    0.6310   20.2750 C   0  0  0  0  0  0  0  0  0  0  0  0
  1  4  1  0
  2  4  2  0
  6  7  2  0
  7  8  1  0
  7  9  1  0
  4 10  1  0
 10 11  1  0
 11 12  1  0
 12 13  2  0
 10 14  1  0
 13 14  1  0
  5 15  1  0
 12 15  1  0
  8 16  1  0
 14 16  2  0
 15 16  1  0
  8 17  2  0
 17 18  1  0
 18 19  2  0
  3 20  1  0
 19 20  1  0
 20 21  2  0
  5 22  2  0
 17 22  1  0
 21 22  1  0
 23 24  2  0
 24 25  1  0
 25 26  2  0
 26 27  1  0
  9 28  1  0
 23 28  1  0
 27 28  2  0
M  END
