x3077-x0104
     RDKit          3D

 28 31  0  0  0  0  0  0  0  0999 V2000
    6.9940   -3.2240   19.2190 C   0  0  0  0  0  0  0  0  0  0  0  0
    5.4050   -4.8020   19.9810 O   0  0  0  0  0  0  0  0  0  0  0  0
   13.2050   -2.0390   21.7290 Cl  0  0  0  0  0  0  0  0  0  0  0  0
    6.2520   -3.9620   20.2890 C   0  0  0  0  0  0  0  0  0  0  0  0
    9.4170   -2.1850   24.0350 C   0  0  0  0  0  0  0  0  0  0  0  0
    6.5770   -3.7130   21.6420 N   0  0  0  0  0  0  0  0  0  0  0  0
    7.3640   -4.4610   22.4810 C   0  0  0  0  0  0  0  0  0  0  0  0
    7.6630   -3.4960   23.6060 C   0  0  2  0  0  0  0  0  0  0  0  0
    6.4130   -2.7070   23.5240 C   0  0  0  0  0  0  0  0  0  0  0  0
    6.7260   -2.3400   22.2570 C   0  0  1  0  0  0  0  0  0  0  0  0
    8.6570   -2.6670   23.1090 N   0  0  0  0  0  0  0  0  0  0  0  0
    8.1260   -1.9970   22.2200 C   0  0  0  0  0  0  0  0  0  0  0  0
   10.0860    0.2800   24.1480 C   0  0  0  0  0  0  0  0  0  0  0  0
   10.9270    1.0040   23.8210 C   0  0  0  0  0  0  0  0  0  0  0  0
   11.6760   -0.0060   23.1370 C   0  0  0  0  0  0  0  0  0  0  0  0
   12.5850   -0.6380   22.4480 C   0  0  0  0  0  0  0  0  0  0  0  0
   11.5500   -1.4820   22.8770 C   0  0  0  0  0  0  0  0  0  0  0  0
   10.3980   -1.0790   23.6660 C   0  0  0  0  0  0  0  0  0  0  0  0
   10.2260    1.9720   24.4220 C   0  0  0  0  0  0  0  0  0  0  0  0
    9.5500    1.1470   24.6570 N   0  0  0  0  0  0  0  0  0  0  0  0
    9.2680    6.4440   22.7350 C   0  0  0  0  0  0  0  0  0  0  0  0
   10.3810    6.0700   23.3880 C   0  0  0  0  0  0  0  0  0  0  0  0
   10.4760    6.1400   24.6100 O   0  0  0  0  0  0  0  0  0  0  0  0
   11.3730    5.6160   22.5490 N   0  0  0  0  0  0  0  0  0  0  0  0
   12.5260    5.0640   23.0330 C   0  0  0  0  0  0  0  0  0  0  0  0
   12.8800    3.6700   22.4150 C   0  0  0  0  0  0  0  0  0  0  0  0
   12.6320    1.2110   22.8900 C   0  0  0  0  0  0  0  0  0  0  0  0
   12.0200    2.4880   22.8970 C   0  0  0  0  0  0  0  0  0  0  0  0
  1  4  1  0
  2  4  2  0
  4  6  1  0
  6  7  1  0
  8  7  1  6
  8  9  1  0
  6 10  1  0
  9 10  1  0
  5 11  1  0
  8 11  1  0
 10 12  1  1
 11 12  1  0
 13 14  2  0
 14 15  1  0
  3 16  1  0
 15 16  2  0
 16 17  1  0
  5 18  1  0
 13 18  1  0
 17 18  2  0
 13 19  1  0
 14 20  1  0
 19 20  2  0
 21 22  1  0
 22 23  2  0
 22 24  1  0
 24 25  1  0
 25 26  1  0
 15 27  1  0
 26 28  1  0
 27 28  1  0
M  END
