x3077-x2649
     RDKit          3D

 28 31  0  0  0  0  0  0  0  0999 V2000
    6.9780   -3.1180   19.2210 C   0  0  0  0  0  0  0  0  0  0  0  0
    5.3340   -4.6220   19.9500 O   0  0  0  0  0  0  0  0  0  0  0  0
   13.1960   -1.9690   21.3190 Cl  0  0  0  0  0  0  0  0  0  0  0  0
    6.2170   -3.8280   20.3090 C   0  0  0  0  0  0  0  0  0  0  0  0
    8.6900   -1.2510   23.9300 C   0  0  0  0  0  0  0  0  0  0  0  0
    6.8520   -1.0970   20.7730 N   0  0  0  0  0  0  0  0  0  0  0  0
    8.9870   -0.0020   21.2770 O   0  0  0  0  0  0  0  0  0  0  0  0
    7.9890   -0.9870   21.5100 C   0  0  0  0  0  0  0  0  0  0  0  0
    4.6370    0.5700   21.6100 C   0  0  0  0  0  0  0  0  0  0  0  0
    6.5470   -3.6960   21.6680 N   0  0  0  0  0  0  0  0  0  0  0  0
    7.2750   -4.7480   22.1930 C   0  0  0  0  0  0  0  0  0  0  0  0
    7.9430   -4.0890   23.1790 C   0  0  2  0  0  0  0  0  0  0  0  0
    6.9650   -3.2950   23.7860 C   0  0  0  0  0  0  0  0  0  0  0  0
    6.6960   -2.5660   22.7070 C   0  0  1  0  0  0  0  0  0  0  0  0
    8.7370   -3.2750   22.6960 N   0  0  0  0  0  0  0  0  0  0  0  0
    8.0850   -1.9430   22.6810 C   0  0  2  0  0  0  0  0  0  0  0  0
   10.6800    0.3760   24.1540 C   0  0  0  0  0  0  0  0  0  0  0  0
   11.9700    0.8080   23.8410 C   0  0  0  0  0  0  0  0  0  0  0  0
   12.7550    0.0870   22.9700 C   0  0  0  0  0  0  0  0  0  0  0  0
   12.2560   -1.0650   22.4100 C   0  0  0  0  0  0  0  0  0  0  0  0
   10.9720   -1.5090   22.7120 C   0  0  0  0  0  0  0  0  0  0  0  0
   10.1380   -0.7980   23.5940 C   0  0  0  0  0  0  0  0  0  0  0  0
    6.3760    0.7140   17.6050 N   0  0  0  0  0  0  0  0  0  0  0  0
    5.3370    1.5290   17.8410 C   0  0  0  0  0  0  0  0  0  0  0  0
    4.6420    1.5760   19.1990 C   0  0  0  0  0  0  0  0  0  0  0  0
    5.1910    0.6250   20.3000 C   0  0  0  0  0  0  0  0  0  0  0  0
    6.2700   -0.1810   19.9090 C   0  0  0  0  0  0  0  0  0  0  0  0
    6.7650   -0.0680   18.6180 C   0  0  0  0  0  0  0  0  0  0  0  0
  1  4  1  0
  2  4  2  0
  6  8  1  0
  7  8  2  0
  4 10  1  0
 10 11  1  0
 12 11  1  6
 12 13  1  0
 14 10  1  6
 13 14  1  0
 12 15  1  0
 16  5  1  1
 16  8  1  0
 14 16  1  0
 15 16  1  0
 17 18  2  0
 18 19  1  0
  3 20  1  0
 19 20  2  0
 20 21  1  0
  5 22  1  0
 17 22  1  0
 21 22  2  0
 23 24  2  0
 24 25  1  0
  9 26  1  0
 25 26  2  0
  6 27  1  0
 26 27  1  0
 23 28  1  0
 27 28  2  0
M  END
