x3077-x1493
     RDKit          3D

 23 25  0  0  0  0  0  0  0  0999 V2000
    7.0300   -3.1510   19.1060 C   0  0  0  0  0  0  0  0  0  0  0  0
    5.2920   -4.6260   19.8990 O   0  0  0  0  0  0  0  0  0  0  0  0
   13.2940   -1.8730   21.1630 Cl  0  0  0  0  0  0  0  0  0  0  0  0
    6.1790   -3.8350   20.1760 C   0  0  0  0  0  0  0  0  0  0  0  0
    9.2950   -1.9910   24.2930 C   0  0  0  0  0  0  0  0  0  0  0  0
    6.4860   -3.5870   21.4670 N   0  0  0  0  0  0  0  0  0  0  0  0
    7.2120   -4.4910   22.3370 C   0  0  0  0  0  0  0  0  0  0  0  0
    7.5270   -3.5620   23.5400 C   0  0  2  0  0  0  0  0  0  0  0  0
    6.3900   -2.5400   23.4850 C   0  0  0  0  0  0  0  0  0  0  0  0
    6.6920   -2.2540   22.0160 C   0  0  1  0  0  0  0  0  0  0  0  0
    8.7160   -2.7570   23.1820 N   0  0  0  0  0  0  0  0  0  0  0  0
    8.2020   -1.8790   22.0730 C   0  0  0  0  0  0  0  0  0  0  0  0
   10.8440    0.0140   24.3400 C   0  0  0  0  0  0  0  0  0  0  0  0
   11.9700    0.6860   23.8670 C   0  0  0  0  0  0  0  0  0  0  0  0
   12.7530    0.1140   22.8810 C   0  0  0  0  0  0  0  0  0  0  0  0
   12.3870   -1.1260   22.3800 C   0  0  0  0  0  0  0  0  0  0  0  0
   11.2850   -1.7980   22.8320 C   0  0  0  0  0  0  0  0  0  0  0  0
   10.5020   -1.2350   23.8180 C   0  0  0  0  0  0  0  0  0  0  0  0
    4.8940   -6.4050   26.4360 C   0  0  0  0  0  0  0  0  0  0  0  0
    7.0930   -5.7060   27.1210 O   0  0  0  0  0  0  0  0  0  0  0  0
    6.1060   -5.7690   26.1900 C   0  0  0  0  0  0  0  0  0  0  0  0
    7.5340   -4.3900   24.7970 C   0  0  0  0  0  0  0  0  0  0  0  0
    6.2770   -5.1600   24.8350 C   0  0  0  0  0  0  0  0  0  0  0  0
  1  4  1  0
  2  4  2  0
  4  6  1  0
  6  7  1  0
  7  8  1  0
  8  9  1  0
  6 10  1  0
  9 10  1  0
  5 11  1  0
  8 11  1  0
 10 12  1  1
 11 12  1  0
 13 14  2  0
 14 15  1  0
  3 16  1  0
 15 16  2  0
 16 17  1  0
  5 18  1  0
 13 18  1  0
 17 18  2  0
 19 21  1  0
 20 21  2  0
  8 22  1  1
 21 23  1  0
 22 23  1  0
M  END
