x3077-x2193
     RDKit          3D

 28 31  0  0  0  0  0  0  0  0999 V2000
    7.2310   -3.1810   19.0210 C   0  0  0  0  0  0  0  0  0  0  0  0
    5.5130   -4.5750   19.9360 O   0  0  0  0  0  0  0  0  0  0  0  0
   13.3940   -1.6780   21.4300 Cl  0  0  0  0  0  0  0  0  0  0  0  0
    6.4420   -3.7770   20.1330 C   0  0  0  0  0  0  0  0  0  0  0  0
    9.0220   -2.6580   23.8010 C   0  0  1  0  0  0  0  0  0  0  0  0
   10.8730    2.2210   23.7320 C   0  0  0  0  0  0  0  0  0  0  0  0
    9.4300    1.9170   21.3770 O   0  0  0  0  0  0  0  0  0  0  0  0
    8.2760    3.0290   23.4540 O   0  0  0  0  0  0  0  0  0  0  0  0
    9.6460    2.8110   22.6770 S   0  0  0  0  0  0  0  0  0  0  0  0
    6.8960   -3.3930   21.3980 N   0  0  0  0  0  0  0  0  0  0  0  0
    7.2100   -4.3480   22.5030 C   0  0  0  0  0  0  0  0  0  0  0  0
    6.8640   -3.4710   23.7080 C   0  0  2  0  0  0  0  0  0  0  0  0
    5.8650   -2.6520   23.2900 C   0  0  0  0  0  0  0  0  0  0  0  0
    6.4320   -2.2100   22.1120 C   0  0  1  0  0  0  0  0  0  0  0  0
    7.8150   -2.3240   23.7050 N   0  0  0  0  0  0  0  0  0  0  0  0
    7.5620   -1.4960   22.4970 C   0  0  0  0  0  0  0  0  0  0  0  0
    9.9110   -0.2100   23.8520 C   0  0  0  0  0  0  0  0  0  0  0  0
   10.9970    0.7760   23.4130 C   0  0  0  0  0  0  0  0  0  0  0  0
   12.0390    0.2400   22.6960 C   0  0  0  0  0  0  0  0  0  0  0  0
   12.1210   -1.0840   22.3510 C   0  0  0  0  0  0  0  0  0  0  0  0
   11.1490   -1.9720   22.7250 C   0  0  0  0  0  0  0  0  0  0  0  0
   10.0430   -1.5610   23.4730 C   0  0  0  0  0  0  0  0  0  0  0  0
    8.7890   -5.8490   26.4520 N   0  0  0  0  0  0  0  0  0  0  0  0
    7.7230   -4.9010   26.1150 C   0  0  0  0  0  0  0  0  0  0  0  0
    8.1450   -3.6200   25.8910 C   0  0  0  0  0  0  0  0  0  0  0  0
    9.2010   -3.4940   24.9780 N   0  0  0  0  0  0  0  0  0  0  0  0
    9.8110   -4.5950   24.6000 C   0  0  0  0  0  0  0  0  0  0  0  0
    9.6760   -5.8500   25.4350 C   0  0  0  0  0  0  0  0  0  0  0  0
  1  4  1  0
  2  4  2  0
  6  9  1  0
  7  9  2  0
  8  9  2  0
  4 10  1  0
 10 11  1  0
 12 11  1  6
 12 13  1  0
 10 14  1  0
 13 14  1  0
  5 15  1  0
 12 15  1  0
 14 16  1  1
 15 16  1  0
  6 18  1  0
 17 18  2  0
 18 19  1  0
  3 20  1  0
 19 20  2  0
 20 21  1  0
  5 22  1  1
 17 22  1  0
 21 22  2  0
 23 24  1  0
 24 25  1  0
  5 26  1  0
 25 26  1  0
 26 27  1  0
 23 28  1  0
 27 28  1  0
M  END
