x3077-x0387
     RDKit          3D

 25 28  0  0  0  0  0  0  0  0999 V2000
    7.0090   -3.1800   19.0660 C   0  0  0  0  0  0  0  0  0  0  0  0
    5.2570   -4.5870   19.8700 O   0  0  0  0  0  0  0  0  0  0  0  0
    6.2300   -3.8950   20.1280 C   0  0  0  0  0  0  0  0  0  0  0  0
    9.5310   -4.6810   27.9780 O   0  0  0  0  0  0  0  0  0  0  0  0
    6.6810   -3.8110   21.4350 N   0  0  0  0  0  0  0  0  0  0  0  0
    7.1120   -4.8880   22.3570 C   0  0  0  0  0  0  0  0  0  0  0  0
    7.4070   -4.1990   23.5300 C   0  0  2  0  0  0  0  0  0  0  0  0
    6.5500   -2.9380   23.5500 C   0  0  0  0  0  0  0  0  0  0  0  0
    6.9460   -2.6390   22.1490 C   0  0  1  0  0  0  0  0  0  0  0  0
    8.6180   -3.5200   23.3610 N   0  0  0  0  0  0  0  0  0  0  0  0
    8.3180   -2.4890   22.2150 C   0  0  0  0  0  0  0  0  0  0  0  0
    9.1170   -4.8890   26.6900 C   0  0  1  0  0  0  0  0  0  0  0  0
    7.9600   -4.2220   26.3270 C   0  0  0  0  0  0  0  0  0  0  0  0
    8.0470   -2.9020   25.5500 C   0  0  0  0  0  0  0  0  0  0  0  0
    9.2400   -3.0320   24.5980 C   0  0  1  0  0  0  0  0  0  0  0  0
   10.4300   -3.6460   25.0150 C   0  0  0  0  0  0  0  0  0  0  0  0
   10.2760   -4.7160   25.8940 C   0  0  0  0  0  0  0  0  0  0  0  0
   13.1110   -2.0980   21.3860 Cl  0  0  0  0  0  0  0  0  0  0  0  0
   11.5190    0.9740   23.9690 C   0  0  0  0  0  0  0  0  0  0  0  0
   12.6060    1.1240   23.2240 C   0  0  0  0  0  0  0  0  0  0  0  0
   12.9220    0.0450   22.5150 C   0  0  0  0  0  0  0  0  0  0  0  0
   12.2880   -1.1070   22.4780 C   0  0  0  0  0  0  0  0  0  0  0  0
   10.9950   -1.6070   23.2400 C   0  0  0  0  0  0  0  0  0  0  0  0
   10.8310   -0.2240   23.9680 C   0  0  0  0  0  0  0  0  0  0  0  0
    9.7820   -1.6480   24.1490 C   0  0  0  0  0  0  0  0  0  0  0  0
  1  3  1  0
  2  3  2  0
  3  5  1  0
  5  6  1  0
  7  6  1  6
  7  8  1  0
  5  9  1  0
  8  9  1  0
  7 10  1  0
  9 11  1  1
 10 11  1  0
 12  4  1  1
 12 13  1  0
 13 14  1  0
 10 15  1  0
 14 15  1  0
 15 16  1  0
 12 17  1  0
 16 17  1  0
 19 20  2  0
 20 21  1  0
 18 22  1  0
 21 22  2  0
 22 23  1  0
 19 24  1  0
 23 24  2  0
 15 25  1  6
 23 25  1  0
M  END
