x3077-x1077
     RDKit          3D

 26 29  0  0  0  0  0  0  0  0999 V2000
    7.5290   -3.2500   19.4330 C   0  0  0  0  0  0  0  0  0  0  0  0
    5.4480   -4.3540   19.8820 O   0  0  0  0  0  0  0  0  0  0  0  0
   12.8560   -1.9510   21.2300 Cl  0  0  0  0  0  0  0  0  0  0  0  0
    6.5350   -3.9640   20.3390 C   0  0  0  0  0  0  0  0  0  0  0  0
    8.5760   -2.0790   24.5050 C   0  0  0  0  0  0  0  0  0  0  0  0
    6.8920   -4.2330   21.6980 N   0  0  0  0  0  0  0  0  0  0  0  0
    8.1370   -4.4900   22.2130 C   0  0  0  0  0  0  0  0  0  0  0  0
    8.0330   -4.1650   23.6770 C   0  0  2  0  0  0  0  0  0  0  0  0
    6.6090   -4.6610   23.7960 C   0  0  2  0  0  0  0  0  0  0  0  0
    6.1660   -3.7020   22.9070 C   0  0  1  0  0  0  0  0  0  0  0  0
    7.9120   -2.7900   23.6680 N   0  0  0  0  0  0  0  0  0  0  0  0
    6.8490   -2.4700   23.1620 C   0  0  0  0  0  0  0  0  0  0  0  0
   10.9160   -1.2030   24.9530 C   0  0  0  0  0  0  0  0  0  0  0  0
   12.3140   -0.7210   25.1130 C   0  0  0  0  0  0  0  0  0  0  0  0
   12.8760   -1.0490   23.7240 C   0  0  0  0  0  0  0  0  0  0  0  0
   12.0600   -1.6600   22.7070 C   0  0  0  0  0  0  0  0  0  0  0  0
   10.6660   -2.0150   22.8930 C   0  0  0  0  0  0  0  0  0  0  0  0
   10.0170   -1.7760   24.1120 C   0  0  0  0  0  0  0  0  0  0  0  0
    7.8050   -5.1230   24.8070 C   0  0  0  0  0  0  0  0  0  0  0  0
    8.4450   -4.9200   26.0470 C   0  0  0  0  0  0  0  0  0  0  0  0
    7.8040   -3.9750   26.7740 N   0  0  0  0  0  0  0  0  0  0  0  0
    6.6100   -3.4370   26.1190 C   0  0  0  0  0  0  0  0  0  0  0  0
    6.0110   -4.5520   25.2200 C   0  0  0  0  0  0  0  0  0  0  0  0
   11.2940    1.0090   23.3080 N   0  0  0  0  0  0  0  0  0  0  0  0
   12.0550   -0.1050   23.1700 C   0  0  0  0  0  0  0  0  0  0  0  0
   11.7350   -1.3770   23.7010 C   0  0  0  0  0  0  0  0  0  0  0  0
  1  4  1  0
  2  4  2  0
  4  6  1  0
  6  7  1  0
  8  7  1  6
  8  9  1  0
  6 10  1  0
  9 10  1  0
  5 11  1  0
  8 11  1  0
 10 12  1  1
 11 12  1  0
 13 14  2  0
 14 15  1  0
  3 16  1  0
 15 16  2  0
 16 17  1  0
  5 18  1  0
 13 18  1  0
 17 18  2  0
  8 19  1  0
 19 20  1  0
 20 21  1  0
 21 22  1  0
  9 23  1  1
 22 23  1  0
 24 25  3  0
 13 26  1  0
 25 26  1  0
M  END
