x3077-x0434
     RDKit          3D

 28 31  0  0  0  0  0  0  0  0999 V2000
    7.0460   -3.1740   19.2300 C   0  0  0  0  0  0  0  0  0  0  0  0
    5.4900   -4.8100   20.0140 O   0  0  0  0  0  0  0  0  0  0  0  0
   13.2550   -1.9780   21.1490 Cl  0  0  0  0  0  0  0  0  0  0  0  0
    6.3310   -3.9500   20.3160 C   0  0  0  0  0  0  0  0  0  0  0  0
    9.5810   -2.4290   24.2030 C   0  0  0  0  0  0  0  0  0  0  0  0
    8.8430    1.1300   21.2040 O   0  0  0  0  0  0  0  0  0  0  0  0
    8.2840    0.0540   21.4810 C   0  0  0  0  0  0  0  0  0  0  0  0
    8.7240   -0.8110   22.4330 N   0  0  0  0  0  0  0  0  0  0  0  0
    7.1540   -0.4850   20.9390 N   0  0  0  0  0  0  0  0  0  0  0  0
    6.6780   -3.6970   21.6560 N   0  0  0  0  0  0  0  0  0  0  0  0
    7.2420   -4.6670   22.6020 C   0  0  0  0  0  0  0  0  0  0  0  0
    7.6850   -3.7680   23.6050 C   0  0  2  0  0  0  0  0  0  0  0  0
    6.8160   -2.6970   23.5860 C   0  0  0  0  0  0  0  0  0  0  0  0
    7.0110   -2.3990   22.2810 C   0  0  1  0  0  0  0  0  0  0  0  0
    8.8560   -2.9710   23.1450 N   0  0  0  0  0  0  0  0  0  0  0  0
    8.3940   -2.1520   22.1610 C   0  0  2  0  0  0  0  0  0  0  0  0
   10.6480    0.0250   24.4900 C   0  0  0  0  0  0  0  0  0  0  0  0
   11.7010    0.7610   23.9350 C   0  0  0  0  0  0  0  0  0  0  0  0
   12.5800    0.1290   22.8420 C   0  0  0  0  0  0  0  0  0  0  0  0
   12.2770   -1.3090   22.3680 C   0  0  0  0  0  0  0  0  0  0  0  0
   11.2210   -2.0260   22.9360 C   0  0  0  0  0  0  0  0  0  0  0  0
   10.4700   -1.2570   23.9970 C   0  0  0  0  0  0  0  0  0  0  0  0
    5.1420    1.0050   20.3010 C   0  0  0  0  0  0  0  0  0  0  0  0
    4.4880    1.6950   19.1200 C   0  0  0  0  0  0  0  0  0  0  0  0
    5.1800    1.5030   17.7830 C   0  0  0  0  0  0  0  0  0  0  0  0
    6.2910    0.7840   17.5650 N   0  0  0  0  0  0  0  0  0  0  0  0
    6.9250    0.1400   18.5870 C   0  0  0  0  0  0  0  0  0  0  0  0
    6.3980    0.2190   19.9810 C   0  0  0  0  0  0  0  0  0  0  0  0
  1  4  1  0
  2  4  2  0
  6  7  2  0
  7  8  1  0
  7  9  1  0
  4 10  1  0
 10 11  1  0
 12 11  1  6
 12 13  1  0
 14 10  1  6
 13 14  1  0
  5 15  1  0
 12 15  1  0
 16  8  1  1
 14 16  1  0
 15 16  1  0
 17 18  2  0
 18 19  1  0
  3 20  1  0
 19 20  2  0
 20 21  1  0
  5 22  1  0
 17 22  1  0
 21 22  2  0
 23 24  2  0
 24 25  1  0
 25 26  2  0
 26 27  1  0
  9 28  1  0
 23 28  1  0
 27 28  2  0
M  END
