x3077-x3303
     RDKit          3D

 31 36  0  0  0  0  0  0  0  0999 V2000
    6.8990   -3.3910   19.3650 C   0  0  0  0  0  0  0  0  0  0  0  0
    5.7110   -5.3370   20.0420 O   0  0  0  0  0  0  0  0  0  0  0  0
   13.2190   -2.0540   21.1660 Cl  0  0  0  0  0  0  0  0  0  0  0  0
    6.2130   -4.2760   20.3910 C   0  0  0  0  0  0  0  0  0  0  0  0
    8.7630   -1.3520   23.8810 C   0  0  0  0  0  0  0  0  0  0  0  0
    6.3370   -1.6000   21.1150 C   0  0  0  0  0  0  0  0  0  0  0  0
    5.5350   -2.6750   21.1710 N   0  0  0  0  0  0  0  0  0  0  0  0
    6.5990    1.1650   17.1510 O   0  0  0  0  0  0  0  0  0  0  0  0
    6.1210   -3.8380   21.8420 C   0  0  1  0  0  0  0  0  0  0  0  0
    7.5590   -4.1740   22.3850 C   0  0  0  0  0  0  0  0  0  0  0  0
    7.7060   -3.4950   23.5890 C   0  0  2  0  0  0  0  0  0  0  0  0
    6.5240   -2.9480   23.8520 C   0  0  0  0  0  0  0  0  0  0  0  0
    6.3850   -2.4990   22.5660 C   0  0  1  0  0  0  0  0  0  0  0  0
    8.1900   -2.1910   23.1000 N   0  0  0  0  0  0  0  0  0  0  0  0
    7.6730   -1.9430   21.7960 C   0  0  2  0  0  0  0  0  0  0  0  0
   10.7670    0.2040   24.1150 C   0  0  0  0  0  0  0  0  0  0  0  0
   12.0610    0.6470   23.8090 C   0  0  0  0  0  0  0  0  0  0  0  0
   12.8410   -0.0380   22.9000 C   0  0  0  0  0  0  0  0  0  0  0  0
   12.3250   -1.1650   22.2970 C   0  0  0  0  0  0  0  0  0  0  0  0
   11.0440   -1.5760   22.6140 C   0  0  0  0  0  0  0  0  0  0  0  0
   10.2050   -0.9330   23.5160 C   0  0  0  0  0  0  0  0  0  0  0  0
    5.0440    1.8030   18.5940 N   0  0  0  0  0  0  0  0  0  0  0  0
    4.3250    1.6690   19.8340 C   0  0  0  0  0  0  0  0  0  0  0  0
    4.6820    0.5380   20.8100 C   0  0  0  0  0  0  0  0  0  0  0  0
    5.8440   -0.4000   20.3410 C   0  0  0  0  0  0  0  0  0  0  0  0
    6.4460   -0.1320   19.1030 C   0  0  0  0  0  0  0  0  0  0  0  0
    6.0010    0.9430   18.3300 C   0  0  0  0  0  0  0  0  0  0  0  0
    3.9520    0.4410   22.0010 C   0  0  0  0  0  0  0  0  0  0  0  0
    2.9210    1.3720   22.2720 C   0  0  0  0  0  0  0  0  0  0  0  0
    2.5970    2.4180   21.3650 C   0  0  0  0  0  0  0  0  0  0  0  0
    3.3140    2.5390   20.1590 C   0  0  0  0  0  0  0  0  0  0  0  0
  1  4  1  0
  2  4  2  0
  6  7  2  0
  9  4  1  1
  7  9  1  0
  9 10  1  0
 11 10  1  6
 11 12  1  0
  9 13  1  0
 13 12  1  1
  5 14  1  0
 11 14  1  0
 15  6  1  1
 13 15  1  0
 14 15  1  0
 16 17  2  0
 17 18  1  0
  3 19  1  0
 18 19  2  0
 19 20  1  0
  5 21  1  0
 16 21  1  0
 20 21  2  0
 22 23  2  0
 23 24  1  0
  6 25  1  0
 24 25  2  0
 25 26  1  0
  8 27  1  0
 22 27  1  0
 26 27  2  0
 24 28  1  0
 28 29  2  0
 29 30  1  0
 23 31  1  0
 30 31  2  0
M  END
