x3077-x0731
     RDKit          3D

 30 33  0  0  0  0  0  0  0  0999 V2000
    1.1990   -1.0170   26.1200 C   0  0  0  0  0  0  0  0  0  0  0  0
    6.7180   -4.8310   26.5890 O   0  0  0  0  0  0  0  0  0  0  0  0
    4.9800   -6.5730   26.1600 O   0  0  0  0  0  0  0  0  0  0  0  0
    5.8260   -5.2330   20.0670 O   0  0  0  0  0  0  0  0  0  0  0  0
    6.3980   -4.2300   20.5130 C   0  0  0  0  0  0  0  0  0  0  0  0
    7.1480   -3.3470   19.5410 C   0  0  0  0  0  0  0  0  0  0  0  0
    5.6360   -5.3380   25.8000 S   0  0  0  0  0  0  0  0  0  0  0  0
   13.2930   -1.9010   21.1380 Cl  0  0  0  0  0  0  0  0  0  0  0  0
    8.9620   -2.2970   23.7970 C   0  0  0  0  0  0  0  0  0  0  0  0
    2.2100   -2.1130   25.9700 C   0  0  0  0  0  0  0  0  0  0  0  0
    1.7770   -3.3970   25.2900 C   0  0  0  0  0  0  0  0  0  0  0  0
    2.9150   -4.4410   25.2280 C   0  0  0  0  0  0  0  0  0  0  0  0
    4.3220   -4.1360   25.8210 C   0  0  0  0  0  0  0  0  0  0  0  0
    4.5630   -2.7380   26.4660 C   0  0  0  0  0  0  0  0  0  0  0  0
    3.4740   -1.8710   26.4730 C   0  0  0  0  0  0  0  0  0  0  0  0
    6.1950   -3.8370   22.0010 C   0  0  2  0  0  0  0  0  0  0  0  0
    7.1770   -3.8800   23.0050 C   0  0  1  0  0  0  0  0  0  0  0  0
    7.4560   -5.0230   23.6970 C   0  0  0  0  0  0  0  0  0  0  0  0
    6.1740   -5.5590   24.2030 N   0  0  0  0  0  0  0  0  0  0  0  0
    5.1610   -5.8360   23.1820 C   0  0  0  0  0  0  0  0  0  0  0  0
    4.9720   -4.7190   22.3670 C   0  0  0  0  0  0  0  0  0  0  0  0
    8.1600   -2.8080   22.6540 N   0  0  0  0  0  0  0  0  0  0  0  0
    7.3120   -1.7540   22.0820 C   0  0  0  0  0  0  0  0  0  0  0  0
    5.9930   -2.3070   22.0440 C   0  0  0  0  0  0  0  0  0  0  0  0
   10.5330   -0.2610   24.1710 C   0  0  0  0  0  0  0  0  0  0  0  0
   11.6660    0.4350   23.8970 C   0  0  0  0  0  0  0  0  0  0  0  0
   12.5680   -0.0390   22.9560 C   0  0  0  0  0  0  0  0  0  0  0  0
   12.2650   -1.2410   22.3050 C   0  0  0  0  0  0  0  0  0  0  0  0
   11.1170   -1.9450   22.5760 C   0  0  0  0  0  0  0  0  0  0  0  0
   10.2280   -1.4810   23.5090 C   0  0  0  0  0  0  0  0  0  0  0  0
  4  5  2  0
  5  6  1  0
  2  7  2  0
  3  7  2  0
  1 10  1  0
 10 11  2  0
 11 12  1  0
  7 13  1  0
 12 13  2  0
 13 14  1  0
 10 15  1  0
 14 15  2  0
 16  5  1  6
 16 17  1  0
 17 18  1  6
  7 19  1  0
 18 19  1  0
 19 20  1  0
 16 21  1  0
 20 21  1  0
  9 22  1  0
 17 22  1  0
 22 23  1  0
 16 24  1  0
 23 24  1  0
 25 26  2  0
 26 27  1  0
  8 28  1  0
 27 28  2  0
 28 29  1  0
  9 30  1  0
 25 30  1  0
 29 30  2  0
M  END
