x3077-x0426-x0731-x2694
     RDKit          3D

 61 67  0  0  0  0  0  0  0  0999 V2000
    7.6360    2.4110   22.5600 N   0  0  0  0  0  0  0  0  0  0  0  0
    9.0450    1.6990   21.1170 O   0  0  0  0  0  0  0  0  0  0  0  0
   10.9420    6.7700   24.2480 O   0  0  0  0  0  0  0  0  0  0  0  0
    7.2860    0.1150   21.4150 C   0  0  2  0  0  0  0  0  0  0  0  0
    8.0110    1.4180   21.7160 C   0  0  0  0  0  0  0  0  0  0  0  0
   10.2880    1.8010   23.1620 C   0  0  0  0  0  0  0  0  0  0  0  0
   11.9230    6.5110   25.2390 C   0  0  0  0  0  0  0  0  0  0  0  0
   12.4890   -1.5830   23.0970 C   0  0  0  0  0  0  0  0  0  0  0  0
   12.9820   -0.1690   23.3550 C   0  0  0  0  0  0  0  0  0  0  0  0
   13.0180   -2.0630   21.7430 C   0  0  0  0  0  0  0  0  0  0  0  0
   12.9630   -2.5080   24.2380 C   0  0  0  0  0  0  0  0  0  0  0  0
    7.1730   -3.3090   19.2020 C   0  0  0  0  0  0  0  0  0  0  0  0
    5.8320   -4.8590   20.0350 O   0  0  0  0  0  0  0  0  0  0  0  0
    6.6000   -3.8890   20.2350 C   0  0  0  0  0  0  0  0  0  0  0  0
    2.2050    1.7800   24.0480 C   0  0  0  0  0  0  0  0  0  0  0  0
    2.1000    0.4960   24.1530 N   0  0  0  0  0  0  0  0  0  0  0  0
    3.2550    2.4290   23.4070 N   0  0  0  0  0  0  0  0  0  0  0  0
    4.3910    1.7920   22.7540 C   0  0  0  0  0  0  0  0  0  0  0  0
    3.8900    1.0440   21.5930 C   0  0  0  0  0  0  0  0  0  0  0  0
    2.7710    4.2740   25.3800 F   0  0  0  0  0  0  0  0  0  0  0  0
    6.3160    0.6320   17.8310 N   0  0  0  0  0  0  0  0  0  0  0  0
    5.0720    1.0290   17.8390 C   0  0  0  0  0  0  0  0  0  0  0  0
    4.1620    1.2010   19.0640 C   0  0  0  0  0  0  0  0  0  0  0  0
    4.8080    0.8850   20.3960 C   0  0  0  0  0  0  0  0  0  0  0  0
    6.2570    0.4660   20.3240 C   0  0  0  0  0  0  0  0  0  0  0  0
    6.8510    0.3680   19.0600 C   0  0  0  0  0  0  0  0  0  0  0  0
    9.0370   -1.4560   24.0970 N   0  0  0  0  0  0  0  0  0  0  0  0
   10.3790   -1.5360   24.2770 O   0  0  0  0  0  0  0  0  0  0  0  0
   11.0050   -1.5240   23.0740 C   0  0  0  0  0  0  0  0  0  0  0  0
   10.0250   -1.4400   22.0840 C   0  0  0  0  0  0  0  0  0  0  0  0
    8.7900   -1.3820   22.6720 C   0  0  0  0  0  0  0  0  0  0  0  0
    9.7560    3.2040   23.2790 C   0  0  0  0  0  0  0  0  0  0  0  0
   10.6490    4.2150   23.7110 C   0  0  0  0  0  0  0  0  0  0  0  0
   10.2020    5.6960   23.8450 C   0  0  0  0  0  0  0  0  0  0  0  0
    8.7340    5.9640   23.4690 C   0  0  0  0  0  0  0  0  0  0  0  0
    7.8890    4.9240   23.0530 C   0  0  0  0  0  0  0  0  0  0  0  0
    8.4240    3.4970   22.9630 C   0  0  0  0  0  0  0  0  0  0  0  0
    6.8630   -3.3440   21.4530 N   0  0  0  0  0  0  0  0  0  0  0  0
    7.3810   -3.8080   22.6310 C   0  0  0  0  0  0  0  0  0  0  0  0
    6.7590   -3.0780   23.6640 C   0  0  2  0  0  0  0  0  0  0  0  0
    5.6670   -2.6860   23.0100 C   0  0  0  0  0  0  0  0  0  0  0  0
    6.2990   -2.1050   21.9070 C   0  0  1  0  0  0  0  0  0  0  0  0
    7.0760   -1.5700   23.7560 N   0  0  0  0  0  0  0  0  0  0  0  0
    7.3280   -1.2320   22.3060 C   0  0  2  0  0  0  0  0  0  0  0  0
    1.5010    3.8540   25.2930 C   0  0  0  0  0  0  0  0  0  0  0  0
    1.1730    2.6400   24.6440 C   0  0  0  0  0  0  0  0  0  0  0  0
   -0.1580    2.2730   24.5910 C   0  0  0  0  0  0  0  0  0  0  0  0
   -1.1570    3.0290   25.1410 C   0  0  0  0  0  0  0  0  0  0  0  0
   -0.8870    4.2250   25.7900 C   0  0  0  0  0  0  0  0  0  0  0  0
    0.4650    4.6500   25.8690 C   0  0  0  0  0  0  0  0  0  0  0  0
    1.2730   -0.8170   26.1670 C   0  0  0  0  0  0  0  0  0  0  0  0
    6.4260   -5.0610   26.7420 O   0  0  0  0  0  0  0  0  0  0  0  0
    4.5760   -6.5870   25.9420 O   0  0  0  0  0  0  0  0  0  0  0  0
    5.3440   -5.3650   25.8410 S   0  0  0  0  0  0  0  0  0  0  0  0
    2.2150   -1.8490   26.0850 C   0  0  0  0  0  0  0  0  0  0  0  0
    1.8840   -3.2050   25.9040 C   0  0  0  0  0  0  0  0  0  0  0  0
    2.8250   -4.2260   25.8310 C   0  0  0  0  0  0  0  0  0  0  0  0
    4.1690   -3.9630   25.9380 C   0  0  0  0  0  0  0  0  0  0  0  0
    4.7480   -2.7150   26.1210 C   0  0  0  0  0  0  0  0  0  0  0  0
    3.7380   -1.5510   26.2050 C   0  0  0  0  0  0  0  0  0  0  0  0
    0.9380   -0.0950   24.8560 C   0  0  0  0  0  0  0  0  0  0  0  0
  1  5  1  0
  2  5  2  0
  4  5  1  1
  3  7  1  0
  8  9  1  0
  8 10  1  0
  8 11  1  0
 12 14  1  0
 13 14  2  0
 15 16  2  3
 15 17  1  0
 17 18  1  0
 18 19  1  0
 21 22  2  0
 22 23  1  0
 19 24  1  0
 23 24  2  0
  4 25  1  0
 24 25  1  0
 21 26  1  0
 25 26  2  0
 27 28  1  0
  8 29  1  0
 28 29  1  0
 29 30  2  0
 27 31  2  0
 30 31  1  0
  6 32  1  0
 32 33  2  0
  3 34  1  0
 33 34  1  0
 34 35  2  0
 35 36  1  0
  1 37  1  0
 32 37  1  0
 36 37  2  0
 14 38  1  0
 38 39  1  0
 40 39  1  6
 40 41  1  0
 42 38  1  6
 41 42  1  0
 40 43  1  0
  4 44  1  0
 44 31  1  6
 42 44  1  0
 43 44  1  0
 20 45  1  0
 15 46  1  0
 45 46  2  0
 46 47  1  0
 47 48  2  0
 48 49  1  0
 45 50  1  0
 49 50  2  0
 52 54  2  0
 53 54  2  0
 51 55  1  0
 55 56  2  0
 56 57  1  0
 54 58  1  0
 57 58  2  0
 58 59  1  0
 55 60  1  0
 59 60  2  0
 16 61  1  0
 51 61  1  0
M  END
