x3077-x1425
     RDKit          3D

 27 30  0  0  0  0  0  0  0  0999 V2000
    7.0490   -3.1980   19.1730 C   0  0  0  0  0  0  0  0  0  0  0  0
    5.4730   -4.8240   20.0010 O   0  0  0  0  0  0  0  0  0  0  0  0
   13.3250   -1.8410   21.1330 Cl  0  0  0  0  0  0  0  0  0  0  0  0
    6.3170   -3.9690   20.2780 C   0  0  0  0  0  0  0  0  0  0  0  0
    9.4720   -2.1260   24.3840 C   0  0  0  0  0  0  0  0  0  0  0  0
    6.6680   -3.6900   21.5760 N   0  0  0  0  0  0  0  0  0  0  0  0
    7.1700   -4.6050   22.6000 C   0  0  0  0  0  0  0  0  0  0  0  0
    7.6670   -3.6200   23.7120 C   0  0  2  0  0  0  0  0  0  0  0  0
    6.7420   -2.4280   23.5290 C   0  0  1  0  0  0  0  0  0  0  0  0
    7.0400   -2.3510   22.0330 C   0  0  1  0  0  0  0  0  0  0  0  0
    8.9400   -2.9740   23.3120 N   0  0  0  0  0  0  0  0  0  0  0  0
    8.5710   -2.1650   22.0940 C   0  0  0  0  0  0  0  0  0  0  0  0
   10.9110   -0.0390   24.3820 C   0  0  0  0  0  0  0  0  0  0  0  0
   11.9870    0.6850   23.8670 C   0  0  0  0  0  0  0  0  0  0  0  0
   12.7620    0.1440   22.8570 C   0  0  0  0  0  0  0  0  0  0  0  0
   12.4370   -1.1150   22.3750 C   0  0  0  0  0  0  0  0  0  0  0  0
   11.3870   -1.8330   22.8670 C   0  0  0  0  0  0  0  0  0  0  0  0
   10.6150   -1.3050   23.8740 C   0  0  0  0  0  0  0  0  0  0  0  0
    1.4180   -2.3040   28.6380 C   0  0  0  0  0  0  0  0  0  0  0  0
    2.8280   -2.4340   28.5250 O   0  0  0  0  0  0  0  0  0  0  0  0
    3.3010   -2.6980   27.2740 C   0  0  0  0  0  0  0  0  0  0  0  0
    4.3630   -2.0640   26.6470 C   0  0  0  0  0  0  0  0  0  0  0  0
    4.9910   -2.2410   25.2620 C   0  0  0  0  0  0  0  0  0  0  0  0
    4.1490   -3.2550   24.8500 C   0  0  0  0  0  0  0  0  0  0  0  0
    3.0830   -3.9460   25.3960 C   0  0  0  0  0  0  0  0  0  0  0  0
    2.6290   -3.6760   26.6390 C   0  0  0  0  0  0  0  0  0  0  0  0
    5.3150   -2.6940   23.8810 C   0  0  0  0  0  0  0  0  0  0  0  0
  1  4  1  0
  2  4  2  0
  4  6  1  0
  6  7  1  0
  8  7  1  6
  8  9  1  0
  6 10  1  0
  9 10  1  0
  5 11  1  0
  8 11  1  0
 10 12  1  1
 11 12  1  0
 13 14  2  0
 14 15  1  0
  3 16  1  0
 15 16  2  0
 16 17  1  0
  5 18  1  0
 13 18  1  0
 17 18  2  0
 19 20  1  0
 20 21  1  0
 21 22  2  0
 22 23  1  0
 23 24  2  0
 24 25  1  0
 21 26  1  0
 25 26  2  0
  9 27  1  6
 23 27  1  0
M  END
