x3080-x2754
     RDKit          3D

 39 42  0  0  0  0  0  0  0  0999 V2000
    9.5250   -0.4750   23.4740 N   0  0  0  0  0  0  0  0  0  0  0  0
   10.5300    0.4770   23.7450 C   0  0  0  0  0  0  0  0  0  0  0  0
    8.9900    1.3170   21.1520 O   0  0  0  0  0  0  0  0  0  0  0  0
    9.5230   -0.7900   22.1640 C   0  0  0  0  0  0  0  0  0  0  0  0
    7.6910   -0.4970   20.6730 N   0  0  0  0  0  0  0  0  0  0  0  0
    6.9610   -1.3580   24.1460 N   0  0  0  0  0  0  0  0  0  0  0  0
    8.7090    0.1130   21.2760 C   0  0  0  0  0  0  0  0  0  0  0  0
    8.5370    0.0840   25.4470 O   0  0  0  0  0  0  0  0  0  0  0  0
    5.1150    0.8520   21.7960 C   0  0  0  0  0  0  0  0  0  0  0  0
    8.5870   -1.0380   24.5370 S   0  0  2  0  0  0  0  0  0  0  0  0
    4.9210   -2.8390   25.1480 C   0  0  0  0  0  0  0  0  0  0  0  0
    3.6940   -2.7260   25.1140 O   0  0  0  0  0  0  0  0  0  0  0  0
    5.7170   -2.6210   26.3620 N   0  0  0  0  0  0  0  0  0  0  0  0
    5.2790   -4.6200   19.9290 O   0  0  0  0  0  0  0  0  0  0  0  0
    6.2940   -4.0560   20.3410 C   0  0  0  0  0  0  0  0  0  0  0  0
    7.1160   -3.2580   19.3600 C   0  0  0  0  0  0  0  0  0  0  0  0
    5.0250   -2.2080   27.6670 C   0  0  0  0  0  0  0  0  0  0  0  0
    6.3710    0.7280   17.5950 N   0  0  0  0  0  0  0  0  0  0  0  0
    5.2280    1.3570   17.9560 C   0  0  0  0  0  0  0  0  0  0  0  0
    4.7920    1.4090   19.3170 C   0  0  0  0  0  0  0  0  0  0  0  0
    5.5450    0.8060   20.3600 C   0  0  0  0  0  0  0  0  0  0  0  0
    6.6660    0.2150   19.8750 C   0  0  0  0  0  0  0  0  0  0  0  0
    6.7640    0.3500   18.5610 C   0  0  0  0  0  0  0  0  0  0  0  0
   11.5690   -1.4930   24.7700 N   0  0  0  0  0  0  0  0  0  0  0  0
   10.8180   -2.5130   25.2760 C   0  0  0  0  0  0  0  0  0  0  0  0
   11.3440   -3.6530   25.8720 C   0  0  0  0  0  0  0  0  0  0  0  0
   12.7490   -3.7990   26.0020 C   0  0  0  0  0  0  0  0  0  0  0  0
   13.5620   -2.7970   25.5140 C   0  0  0  0  0  0  0  0  0  0  0  0
   12.8920   -1.5890   24.8590 C   0  0  0  0  0  0  0  0  0  0  0  0
    8.4530   -3.4010   25.6850 C   0  0  0  0  0  0  0  0  0  0  0  0
    9.0500   -4.5000   26.2490 C   0  0  0  0  0  0  0  0  0  0  0  0
   10.4360   -4.6300   26.3480 C   0  0  0  0  0  0  0  0  0  0  0  0
    9.3090   -2.4490   25.2250 C   0  0  0  0  0  0  0  0  0  0  0  0
    6.7280   -4.1990   21.6640 N   0  0  0  0  0  0  0  0  0  0  0  0
    7.4080   -3.0520   22.3020 C   0  0  0  0  0  0  0  0  0  0  0  0
    6.3740   -2.3200   23.1490 C   0  0  1  0  0  0  0  0  0  0  0  0
    5.5410   -3.2620   23.8200 C   0  0  1  0  0  0  0  0  0  0  0  0
    6.1180   -4.5380   23.8570 C   0  0  0  0  0  0  0  0  0  0  0  0
    6.1440   -5.1460   22.5930 C   0  0  0  0  0  0  0  0  0  0  0  0
  1  2  1  0
  1  4  1  0
  3  7  2  0
  4  7  1  0
  5  7  1  0
 10  1  1  6
  6 10  2  0
  8 10  2  0
 11 12  2  0
 11 13  1  0
 14 15  2  0
 15 16  1  0
 13 17  1  0
 18 19  2  0
 19 20  1  0
  9 21  1  0
 20 21  2  0
  5 22  1  0
 21 22  1  0
 18 23  1  0
 22 23  2  0
 24 25  2  0
 25 26  1  0
 26 27  2  0
 27 28  1  0
 24 29  1  0
 28 29  2  0
 30 31  1  0
 26 32  1  0
 31 32  2  0
 10 33  1  0
 25 33  1  0
 30 33  2  0
 15 34  1  0
 34 35  1  0
 36  6  1  1
 35 36  1  0
 37 11  1  1
 36 37  1  0
 37 38  1  0
 34 39  1  0
 38 39  1  0
M  END
