x3080-x0691
     RDKit          3D

 47 51  0  0  0  0  0  0  0  0999 V2000
    9.8560   -0.4240   23.4810 N   0  0  0  0  0  0  0  0  0  0  0  0
   10.6930    0.6980   23.6070 C   0  0  0  0  0  0  0  0  0  0  0  0
    8.9690    1.2960   21.1700 O   0  0  0  0  0  0  0  0  0  0  0  0
    9.6980   -0.7630   22.1780 C   0  0  0  0  0  0  0  0  0  0  0  0
    7.7020   -0.5830   20.8430 N   0  0  0  0  0  0  0  0  0  0  0  0
    7.3360   -1.0280   23.8060 N   0  0  0  0  0  0  0  0  0  0  0  0
    8.7550    0.0810   21.3430 C   0  0  0  0  0  0  0  0  0  0  0  0
    8.7380    0.3260   25.4080 O   0  0  0  0  0  0  0  0  0  0  0  0
    5.3290    0.9290   21.8430 C   0  0  0  0  0  0  0  0  0  0  0  0
    8.8160   -0.8090   24.5190 S   0  0  2  0  0  0  0  0  0  0  0  0
    3.8080   -6.9800   25.7810 O   0  0  0  0  0  0  0  0  0  0  0  0
    5.6660   -5.3380   26.7260 O   0  0  0  0  0  0  0  0  0  0  0  0
    5.2880   -4.7540   19.9490 O   0  0  0  0  0  0  0  0  0  0  0  0
    6.2840   -4.6150   20.6490 C   0  0  0  0  0  0  0  0  0  0  0  0
    7.3250   -3.5530   20.2950 C   0  0  0  0  0  0  0  0  0  0  0  0
    3.1520   -0.6020   26.0700 F   0  0  0  0  0  0  0  0  0  0  0  0
    4.6360   -5.6190   25.7440 S   0  0  0  0  0  0  0  0  0  0  0  0
    7.1010   -2.2160   23.2300 C   0  0  0  0  0  0  0  0  0  0  0  0
    5.9850   -3.1690   23.7160 C   0  0  0  0  0  0  0  0  0  0  0  0
    6.1830    0.5770   17.6000 N   0  0  0  0  0  0  0  0  0  0  0  0
    5.1400    1.2720   18.0790 C   0  0  0  0  0  0  0  0  0  0  0  0
    4.8580    1.3840   19.4330 C   0  0  0  0  0  0  0  0  0  0  0  0
    5.6680    0.7800   20.3880 C   0  0  0  0  0  0  0  0  0  0  0  0
    6.7520    0.0750   19.9080 C   0  0  0  0  0  0  0  0  0  0  0  0
    7.0440   -0.0630   18.5830 C   0  0  0  0  0  0  0  0  0  0  0  0
   11.5800   -1.4360   24.7760 N   0  0  0  0  0  0  0  0  0  0  0  0
   10.8340   -2.4460   25.2730 C   0  0  0  0  0  0  0  0  0  0  0  0
   11.3350   -3.6090   25.8510 C   0  0  0  0  0  0  0  0  0  0  0  0
   12.7360   -3.7950   25.9860 C   0  0  0  0  0  0  0  0  0  0  0  0
   13.6020   -2.8250   25.5240 C   0  0  0  0  0  0  0  0  0  0  0  0
   13.0130   -1.5840   24.8730 C   0  0  0  0  0  0  0  0  0  0  0  0
    8.4520   -3.2270   25.6580 C   0  0  0  0  0  0  0  0  0  0  0  0
    9.0120   -4.3720   26.2060 C   0  0  0  0  0  0  0  0  0  0  0  0
   10.4050   -4.5700   26.3080 C   0  0  0  0  0  0  0  0  0  0  0  0
    9.3510   -2.3080   25.2150 C   0  0  0  0  0  0  0  0  0  0  0  0
    2.8290   -1.9160   25.9160 C   0  0  0  0  0  0  0  0  0  0  0  0
    3.9100   -2.9880   25.9170 C   0  0  0  0  0  0  0  0  0  0  0  0
    3.5270   -4.3150   25.7580 C   0  0  0  0  0  0  0  0  0  0  0  0
    2.1830   -4.6480   25.6000 C   0  0  0  0  0  0  0  0  0  0  0  0
    1.2140   -3.6320   25.6060 C   0  0  0  0  0  0  0  0  0  0  0  0
    1.4960   -2.3110   25.7570 C   0  0  0  0  0  0  0  0  0  0  0  0
    6.4600   -5.3960   21.7980 N   0  0  0  0  0  0  0  0  0  0  0  0
    5.5720   -6.3800   22.0430 C   0  0  0  0  0  0  0  0  0  0  0  0
    4.6470   -5.9770   23.0050 C   0  0  0  0  0  0  0  0  0  0  0  0
    5.3670   -5.4900   24.2050 N   0  0  0  0  0  0  0  0  0  0  0  0
    6.5200   -4.5700   24.0280 C   0  0  1  0  0  0  0  0  0  0  0  0
    7.2780   -5.0120   22.9460 C   0  0  0  0  0  0  0  0  0  0  0  0
  1  2  1  0
  1  4  1  0
  3  7  2  0
  4  7  1  0
  5  7  1  0
 10  1  1  6
  6 10  2  0
  8 10  2  0
 13 14  2  0
 14 15  1  0
 11 17  2  0
 12 17  2  0
  6 18  1  0
 18 19  1  0
 20 21  2  0
 21 22  1  0
  9 23  1  0
 22 23  2  0
  5 24  1  0
 23 24  1  0
 20 25  1  0
 24 25  2  0
 26 27  2  0
 27 28  1  0
 28 29  2  0
 29 30  1  0
 26 31  1  0
 30 31  2  0
 32 33  1  0
 28 34  1  0
 33 34  2  0
 10 35  1  0
 27 35  1  0
 32 35  2  0
 16 36  1  0
 36 37  2  0
 17 38  1  0
 37 38  1  0
 38 39  2  0
 39 40  1  0
 36 41  1  0
 40 41  2  0
 14 42  1  0
 42 43  1  0
 43 44  1  0
 17 45  1  0
 44 45  1  0
 46 19  1  6
 45 46  1  0
 42 47  1  0
 46 47  1  0
M  END
