x3080-x2608
     RDKit          3D

 30 33  0  0  0  0  0  0  0  0999 V2000
   11.6390    0.1900   24.0680 C   0  0  0  0  0  0  0  0  0  0  0  0
    7.9090    1.2350   22.6100 O   0  0  0  0  0  0  0  0  0  0  0  0
    7.7800   -0.7030   21.4130 N   0  0  0  0  0  0  0  0  0  0  0  0
    8.0660   -1.8070   22.6520 O   0  0  0  0  0  0  0  0  0  0  0  0
    8.3610    0.1270   22.4030 C   0  0  0  0  0  0  0  0  0  0  0  0
    7.9340   -0.4070   24.7120 O   0  0  0  0  0  0  0  0  0  0  0  0
    5.3650    1.0830   22.0470 C   0  0  0  0  0  0  0  0  0  0  0  0
    8.6970   -1.2190   23.7780 S   0  0  0  0  0  0  0  0  0  0  0  0
   12.6720    2.5800   22.6610 C   0  0  0  0  0  0  0  0  0  0  0  0
    6.3480    0.2650   17.8830 N   0  0  0  0  0  0  0  0  0  0  0  0
    5.2760    1.0770   18.2340 C   0  0  0  0  0  0  0  0  0  0  0  0
    4.9850    1.3200   19.5890 C   0  0  0  0  0  0  0  0  0  0  0  0
    5.7540    0.7690   20.6100 C   0  0  0  0  0  0  0  0  0  0  0  0
    6.9630   -0.1350   20.2550 C   0  0  0  0  0  0  0  0  0  0  0  0
    7.2160   -0.3640   18.9020 C   0  0  0  0  0  0  0  0  0  0  0  0
   11.7810   -1.8390   24.4880 N   0  0  0  0  0  0  0  0  0  0  0  0
   10.8150   -2.6320   24.9900 C   0  0  0  0  0  0  0  0  0  0  0  0
   11.2810   -3.6540   25.7990 C   0  0  0  0  0  0  0  0  0  0  0  0
   12.6200   -3.8530   26.0990 C   0  0  0  0  0  0  0  0  0  0  0  0
   13.6110   -3.0330   25.6070 C   0  0  0  0  0  0  0  0  0  0  0  0
   13.1320   -2.0390   24.7940 C   0  0  0  0  0  0  0  0  0  0  0  0
    8.3860   -3.4640   25.3920 C   0  0  0  0  0  0  0  0  0  0  0  0
    8.9560   -4.4580   26.1790 C   0  0  0  0  0  0  0  0  0  0  0  0
   10.3130   -4.5990   26.4090 C   0  0  0  0  0  0  0  0  0  0  0  0
    9.3360   -2.4820   24.7500 C   0  0  0  0  0  0  0  0  0  0  0  0
   11.7040    1.4770   23.0380 C   0  0  0  0  0  0  0  0  0  0  0  0
   12.0040    0.4340   24.0480 C   0  0  0  0  0  0  0  0  0  0  0  0
   11.0330   -0.5590   24.3810 C   0  0  0  0  0  0  0  0  0  0  0  0
    9.8980   -0.0880   23.3910 S   0  0  0  0  0  0  0  0  0  0  0  0
   10.1110    1.4090   22.2630 S   0  0  0  0  0  0  0  0  0  0  0  0
  2  5  2  0
  3  5  1  0
  4  8  2  0
  6  8  2  0
 10 11  2  0
 11 12  1  0
  7 13  1  0
 12 13  2  0
  3 14  1  0
 13 14  1  0
 10 15  1  0
 14 15  2  0
 16 17  2  0
 17 18  1  0
 18 19  2  0
 19 20  1  0
 16 21  1  0
 20 21  2  0
 22 23  1  0
 18 24  1  0
 23 24  2  0
  8 25  1  0
 17 25  1  0
 22 25  2  0
  9 26  1  0
 26 27  2  0
 27 28  1  0
  1 29  1  0
  5 29  1  0
  8 29  1  0
 28 29  2  0
 26 30  1  0
 29 30  1  0
M  END
