x3080-x0689
     RDKit          3D

 45 49  0  0  0  0  0  0  0  0999 V2000
    9.7380   -0.6190   23.4970 N   0  0  0  0  0  0  0  0  0  0  0  0
   10.4940    0.5140   23.8430 C   0  0  0  0  0  0  0  0  0  0  0  0
    9.0090    1.3160   21.1990 O   0  0  0  0  0  0  0  0  0  0  0  0
    9.7150   -0.7780   22.1520 C   0  0  0  0  0  0  0  0  0  0  0  0
    7.7000   -0.5260   20.8600 N   0  0  0  0  0  0  0  0  0  0  0  0
    7.3820   -1.7650   23.4140 N   0  0  0  0  0  0  0  0  0  0  0  0
    8.7750    0.1040   21.3560 C   0  0  0  0  0  0  0  0  0  0  0  0
    8.2060   -0.0580   25.1840 O   0  0  0  0  0  0  0  0  0  0  0  0
    5.3190    0.9860   21.8330 C   0  0  0  0  0  0  0  0  0  0  0  0
    8.6310   -1.1810   24.3770 S   0  0  2  0  0  0  0  0  0  0  0  0
    7.1070   -3.3490   19.9040 C   0  0  0  0  0  0  0  0  0  0  0  0
    5.1860   -4.6990   19.9070 O   0  0  0  0  0  0  0  0  0  0  0  0
    6.2080   -4.4240   20.5040 C   0  0  0  0  0  0  0  0  0  0  0  0
    4.0570   -6.2700   25.8880 O   0  0  0  0  0  0  0  0  0  0  0  0
    5.6550   -4.4870   26.6900 O   0  0  0  0  0  0  0  0  0  0  0  0
    4.7140   -4.9850   25.7230 S   0  0  0  0  0  0  0  0  0  0  0  0
    6.3770   -2.5920   23.8400 C   0  0  1  0  0  0  0  0  0  0  0  0
    5.0230   -2.5020   23.1210 C   0  0  0  0  0  0  0  0  0  0  0  0
    6.1810    0.5740   17.6000 N   0  0  0  0  0  0  0  0  0  0  0  0
    5.1320    1.2690   18.0670 C   0  0  0  0  0  0  0  0  0  0  0  0
    4.8480    1.4000   19.4170 C   0  0  0  0  0  0  0  0  0  0  0  0
    5.6590    0.8160   20.3820 C   0  0  0  0  0  0  0  0  0  0  0  0
    6.7480    0.1110   19.9140 C   0  0  0  0  0  0  0  0  0  0  0  0
    7.0430   -0.0460   18.5910 C   0  0  0  0  0  0  0  0  0  0  0  0
   11.5410   -1.5970   24.6640 N   0  0  0  0  0  0  0  0  0  0  0  0
   10.8100   -2.5840   25.2450 C   0  0  0  0  0  0  0  0  0  0  0  0
   11.3430   -3.6760   25.9170 C   0  0  0  0  0  0  0  0  0  0  0  0
   12.7460   -3.8260   26.0650 C   0  0  0  0  0  0  0  0  0  0  0  0
   13.5960   -2.8780   25.5310 C   0  0  0  0  0  0  0  0  0  0  0  0
   12.9870   -1.7030   24.7820 C   0  0  0  0  0  0  0  0  0  0  0  0
    8.4510   -3.4330   25.7290 C   0  0  0  0  0  0  0  0  0  0  0  0
    9.0480   -4.4860   26.3680 C   0  0  0  0  0  0  0  0  0  0  0  0
   10.4320   -4.6150   26.4660 C   0  0  0  0  0  0  0  0  0  0  0  0
    9.3120   -2.5290   25.1940 C   0  0  0  0  0  0  0  0  0  0  0  0
    6.4810   -5.0950   21.6970 N   0  0  0  0  0  0  0  0  0  0  0  0
    5.6590   -6.2060   22.1140 C   0  0  0  0  0  0  0  0  0  0  0  0
    4.6610   -5.6050   23.0860 C   0  0  0  0  0  0  0  0  0  0  0  0
    5.4630   -5.0140   24.1930 N   0  0  0  0  0  0  0  0  0  0  0  0
    6.7150   -4.1390   23.9080 C   0  0  1  0  0  0  0  0  0  0  0  0
    7.3690   -4.5560   22.7440 C   0  0  0  0  0  0  0  0  0  0  0  0
    3.8210   -2.1450   26.0710 S   0  0  0  0  0  0  0  0  0  0  0  0
    3.3940   -3.7820   25.6820 C   0  0  0  0  0  0  0  0  0  0  0  0
    2.0670   -3.8700   25.3980 C   0  0  0  0  0  0  0  0  0  0  0  0
    1.3790   -2.6760   25.4850 C   0  0  0  0  0  0  0  0  0  0  0  0
    2.2090   -1.6410   25.8450 C   0  0  0  0  0  0  0  0  0  0  0  0
  1  2  1  0
  1  4  1  0
  3  7  2  0
  4  7  1  0
  5  7  1  0
 10  1  1  6
  6 10  2  0
  8 10  2  0
 11 13  1  0
 12 13  2  0
 14 16  2  0
 15 16  2  0
  6 17  1  0
 17 18  1  6
 19 20  2  0
 20 21  1  0
  9 22  1  0
 21 22  2  0
  5 23  1  0
 22 23  1  0
 19 24  1  0
 23 24  2  0
 25 26  2  0
 26 27  1  0
 27 28  2  0
 28 29  1  0
 25 30  1  0
 29 30  2  0
 31 32  1  0
 27 33  1  0
 32 33  2  0
 10 34  1  0
 26 34  1  0
 31 34  2  0
 13 35  1  0
 35 36  1  0
 36 37  1  0
 16 38  1  0
 37 38  1  0
 17 39  1  0
 38 39  1  0
 35 40  1  0
 39 40  1  6
 16 42  1  0
 41 42  1  0
 42 43  2  0
 43 44  1  0
 41 45  1  0
 44 45  2  0
M  END
