x3080-x1336
     RDKit          3D

 42 48  0  0  0  0  0  0  0  0999 V2000
    9.3780   -0.5000   23.7570 N   0  0  0  0  0  0  0  0  0  0  0  0
   10.3780    0.4970   23.7460 C   0  0  0  0  0  0  0  0  0  0  0  0
    9.1490    1.1640   21.2010 O   0  0  0  0  0  0  0  0  0  0  0  0
    8.9620   -0.8710   22.5290 C   0  0  2  0  0  0  0  0  0  0  0  0
    7.7640   -0.6370   20.6180 N   0  0  0  0  0  0  0  0  0  0  0  0
    7.1280   -1.3950   24.5070 N   0  0  0  0  0  0  0  0  0  0  0  0
    8.6710    0.0270   21.3750 C   0  0  0  0  0  0  0  0  0  0  0  0
    8.6670    0.2510   25.7330 O   0  0  0  0  0  0  0  0  0  0  0  0
    5.3300    0.8190   21.7870 C   0  0  0  0  0  0  0  0  0  0  0  0
    8.6360   -0.9860   24.9890 S   0  0  0  0  0  0  0  0  0  0  0  0
    6.2360   -1.4920   25.5140 O   0  0  0  0  0  0  0  0  0  0  0  0
    6.3360   -6.4040   28.3840 C   0  0  0  0  0  0  0  0  0  0  0  0
    9.9560   -3.2560   25.8190 C   0  0  0  0  0  0  0  0  0  0  0  0
    5.3340   -4.1870   19.7220 O   0  0  0  0  0  0  0  0  0  0  0  0
    6.3010   -3.4430   19.8870 C   0  0  0  0  0  0  0  0  0  0  0  0
    7.2680   -3.0890   18.7760 C   0  0  0  0  0  0  0  0  0  0  0  0
    6.2020    0.7170   17.5290 N   0  0  0  0  0  0  0  0  0  0  0  0
    5.1530    1.3680   18.0490 C   0  0  0  0  0  0  0  0  0  0  0  0
    4.9000    1.3810   19.3940 C   0  0  0  0  0  0  0  0  0  0  0  0
    5.6870    0.7480   20.3320 C   0  0  0  0  0  0  0  0  0  0  0  0
    6.7780    0.0880   19.7830 C   0  0  0  0  0  0  0  0  0  0  0  0
    7.0900    0.0200   18.4660 C   0  0  0  0  0  0  0  0  0  0  0  0
   11.5810   -1.4560   24.7150 N   0  0  0  0  0  0  0  0  0  0  0  0
   10.9460   -2.4750   25.3360 C   0  0  0  0  0  0  0  0  0  0  0  0
   11.5870   -3.5800   25.8590 C   0  0  0  0  0  0  0  0  0  0  0  0
   12.9630   -3.6790   25.8010 C   0  0  0  0  0  0  0  0  0  0  0  0
   13.7700   -2.7200   25.2320 C   0  0  0  0  0  0  0  0  0  0  0  0
   13.0300   -1.5230   24.6300 C   0  0  0  0  0  0  0  0  0  0  0  0
    8.6220   -3.4160   26.1940 C   0  0  0  0  0  0  0  0  0  0  0  0
    9.3000   -4.5430   26.7040 C   0  0  0  0  0  0  0  0  0  0  0  0
   10.6510   -4.4180   26.4340 C   0  0  0  0  0  0  0  0  0  0  0  0
    9.4370   -2.4400   25.5480 C   0  0  0  0  0  0  0  0  0  0  0  0
    7.1740   -5.4000   27.6050 C   0  0  0  0  0  0  0  0  0  0  0  0
    6.5030   -4.1710   27.0190 C   0  0  0  0  0  0  0  0  0  0  0  0
    7.2330   -3.2350   26.3390 C   0  0  0  0  0  0  0  0  0  0  0  0
    8.5450   -5.5350   27.4060 C   0  0  0  0  0  0  0  0  0  0  0  0
    6.6410   -2.8980   21.0920 N   0  0  0  0  0  0  0  0  0  0  0  0
    6.6260   -3.8590   22.2010 C   0  0  0  0  0  0  0  0  0  0  0  0
    6.2520   -3.1940   23.3000 C   0  0  0  0  0  0  0  0  0  0  0  0
    7.1530   -2.1660   23.5060 N   0  0  0  0  0  0  0  0  0  0  0  0
    7.5880   -1.3510   22.4650 C   0  0  2  0  0  0  0  0  0  0  0  0
    7.7040   -1.8980   21.2350 C   0  0  2  0  0  0  0  0  0  0  0  0
  1  2  1  0
  1  4  1  0
  3  7  2  0
  4  7  1  6
  5  7  1  0
  1 10  1  0
  6 10  1  0
  8 10  2  0
  6 11  1  0
 14 15  2  0
 15 16  1  0
 17 18  2  0
 18 19  1  0
  9 20  1  0
 19 20  2  0
  5 21  1  0
 20 21  1  0
 17 22  1  0
 21 22  2  0
 23 24  2  0
 24 25  1  0
 25 26  2  0
 26 27  1  0
 23 28  1  0
 27 28  2  0
 29 30  1  0
 13 31  1  0
 25 31  1  0
 30 31  2  0
 10 32  1  0
 24 32  1  0
 29 32  2  0
 12 33  1  0
 33 34  1  0
 29 35  1  0
 34 35  2  0
 30 36  1  0
 33 36  2  0
 15 37  1  0
 37 38  1  0
 38 39  1  0
  6 40  1  0
 39 40  1  0
  4 41  1  0
 41 40  1  1
 42  5  1  6
 37 42  1  0
 41 42  1  0
M  END
