x3080-x0731
     RDKit          3D

 46 50  0  0  0  0  0  0  0  0999 V2000
    9.5170   -0.4910   23.4990 N   0  0  0  0  0  0  0  0  0  0  0  0
   10.5260    0.4650   23.7340 C   0  0  0  0  0  0  0  0  0  0  0  0
    8.9670    1.2330   21.1400 O   0  0  0  0  0  0  0  0  0  0  0  0
    9.4940   -0.8510   22.2020 C   0  0  0  0  0  0  0  0  0  0  0  0
    7.6100   -0.5810   20.7830 N   0  0  0  0  0  0  0  0  0  0  0  0
    6.9760   -1.3850   24.1620 N   0  0  0  0  0  0  0  0  0  0  0  0
    8.6670    0.0340   21.3130 C   0  0  0  0  0  0  0  0  0  0  0  0
    8.5280    0.0930   25.4840 O   0  0  0  0  0  0  0  0  0  0  0  0
    5.2370    0.9100   21.7830 C   0  0  0  0  0  0  0  0  0  0  0  0
    8.5860   -1.0330   24.5800 S   0  0  2  0  0  0  0  0  0  0  0  0
    0.9460   -0.9810   26.1650 C   0  0  0  0  0  0  0  0  0  0  0  0
    6.5070   -4.4830   26.6740 O   0  0  0  0  0  0  0  0  0  0  0  0
    4.7820   -6.3290   25.8900 O   0  0  0  0  0  0  0  0  0  0  0  0
    5.3340   -5.0860   20.0150 O   0  0  0  0  0  0  0  0  0  0  0  0
    6.3240   -4.6200   20.5660 C   0  0  0  0  0  0  0  0  0  0  0  0
    7.0510   -3.4900   19.8760 C   0  0  0  0  0  0  0  0  0  0  0  0
    5.3250   -4.9900   25.7390 S   0  0  0  0  0  0  0  0  0  0  0  0
    6.4770   -2.4140   23.3440 C   0  0  0  0  0  0  0  0  0  0  0  0
    6.1880    0.6560   17.5530 N   0  0  0  0  0  0  0  0  0  0  0  0
    5.1340    1.3460   18.0230 C   0  0  0  0  0  0  0  0  0  0  0  0
    4.8160    1.4320   19.3730 C   0  0  0  0  0  0  0  0  0  0  0  0
    5.6020    0.8000   20.3320 C   0  0  0  0  0  0  0  0  0  0  0  0
    6.6900    0.1040   19.8570 C   0  0  0  0  0  0  0  0  0  0  0  0
    7.0110   -0.0040   18.5440 C   0  0  0  0  0  0  0  0  0  0  0  0
   11.5430   -1.4660   24.7940 N   0  0  0  0  0  0  0  0  0  0  0  0
   10.8170   -2.4900   25.2810 C   0  0  0  0  0  0  0  0  0  0  0  0
   11.3590   -3.6280   25.8470 C   0  0  0  0  0  0  0  0  0  0  0  0
   12.7700   -3.7780   25.9740 C   0  0  0  0  0  0  0  0  0  0  0  0
   13.6390   -2.7970   25.5250 C   0  0  0  0  0  0  0  0  0  0  0  0
   12.9920   -1.5660   24.8870 C   0  0  0  0  0  0  0  0  0  0  0  0
    8.4710   -3.3960   25.6960 C   0  0  0  0  0  0  0  0  0  0  0  0
    9.0650   -4.5150   26.2370 C   0  0  0  0  0  0  0  0  0  0  0  0
   10.4610   -4.6150   26.3060 C   0  0  0  0  0  0  0  0  0  0  0  0
    9.3170   -2.4430   25.2460 C   0  0  0  0  0  0  0  0  0  0  0  0
    2.0530   -2.0180   26.0380 C   0  0  0  0  0  0  0  0  0  0  0  0
    1.7890   -3.3680   25.3700 C   0  0  0  0  0  0  0  0  0  0  0  0
    2.8280   -4.2670   25.2930 C   0  0  0  0  0  0  0  0  0  0  0  0
    4.0420   -3.8810   25.8290 C   0  0  0  0  0  0  0  0  0  0  0  0
    4.3050   -2.6510   26.4400 C   0  0  0  0  0  0  0  0  0  0  0  0
    3.3270   -1.7080   26.5530 C   0  0  0  0  0  0  0  0  0  0  0  0
    6.7900   -5.1700   21.7650 N   0  0  0  0  0  0  0  0  0  0  0  0
    7.5800   -4.4920   22.6490 C   0  0  0  0  0  0  0  0  0  0  0  0
    6.8930   -3.8750   23.6820 C   0  0  2  0  0  0  0  0  0  0  0  0
    5.7590   -4.8080   24.1030 N   0  0  0  0  0  0  0  0  0  0  0  0
    5.1490   -5.8270   23.1890 C   0  0  0  0  0  0  0  0  0  0  0  0
    6.1190   -6.3020   22.3410 C   0  0  0  0  0  0  0  0  0  0  0  0
  1  2  1  0
  1  4  1  0
  3  7  2  0
  4  7  1  0
  5  7  1  0
 10  1  1  6
  6 10  2  0
  8 10  2  0
 14 15  2  0
 15 16  1  0
 12 17  2  0
 13 17  2  0
  6 18  1  0
 19 20  2  0
 20 21  1  0
  9 22  1  0
 21 22  2  0
  5 23  1  0
 22 23  1  0
 19 24  1  0
 23 24  2  0
 25 26  2  0
 26 27  1  0
 27 28  2  0
 28 29  1  0
 25 30  1  0
 29 30  2  0
 31 32  1  0
 27 33  1  0
 32 33  2  0
 10 34  1  0
 26 34  1  0
 31 34  2  0
 11 35  1  0
 35 36  2  0
 36 37  1  0
 17 38  1  0
 37 38  2  0
 38 39  1  0
 35 40  1  0
 39 40  2  0
 15 41  1  0
 41 42  1  0
 43 18  1  6
 42 43  1  0
 17 44  1  0
 43 44  1  0
 44 45  1  0
 41 46  1  0
 45 46  1  0
M  END
