x3080-x3305
     RDKit          3D

 41 46  0  0  0  0  0  0  0  0999 V2000
    9.5530   -0.2700   23.0390 N   0  0  0  0  0  0  0  0  0  0  0  0
    8.5160    1.4680   20.9290 O   0  0  0  0  0  0  0  0  0  0  0  0
    9.3830   -0.6560   21.7790 C   0  0  0  0  0  0  0  0  0  0  0  0
    7.1390   -0.6610   20.9370 C   0  0  2  0  0  0  0  0  0  0  0  0
    7.4190   -2.1720   23.2860 C   0  0  0  0  0  0  0  0  0  0  0  0
    8.3260    0.0660   21.2160 C   0  0  0  0  0  0  0  0  0  0  0  0
    9.9530   -1.3300   24.8340 O   0  0  0  0  0  0  0  0  0  0  0  0
    5.1170    0.8710   21.8570 C   0  0  0  0  0  0  0  0  0  0  0  0
    8.9420   -1.3480   23.8180 S   0  0  0  0  0  0  0  0  0  0  0  0
    3.2800   -7.0490   23.4290 C   0  0  0  0  0  0  0  0  0  0  0  0
    6.8690   -3.3490   24.1190 C   0  0  0  0  0  0  0  0  0  0  0  0
    5.4360   -2.4150   21.7450 O   0  0  0  0  0  0  0  0  0  0  0  0
    6.6460   -1.7070   21.9930 C   0  0  0  0  0  0  0  0  0  0  0  0
    7.6320   -1.5550   19.8640 C   0  0  0  0  0  0  0  0  0  0  0  0
    6.0400    0.8170   17.5890 N   0  0  0  0  0  0  0  0  0  0  0  0
    4.9350    1.7060   18.0190 C   0  0  0  0  0  0  0  0  0  0  0  0
    4.6050    1.7400   19.3900 C   0  0  0  0  0  0  0  0  0  0  0  0
    5.2920    0.9810   20.3310 C   0  0  0  0  0  0  0  0  0  0  0  0
    6.3140    0.1700   19.9660 C   0  0  0  0  0  0  0  0  0  0  0  0
    6.6760    0.0850   18.6520 C   0  0  0  0  0  0  0  0  0  0  0  0
   11.5570   -1.8620   24.4890 N   0  0  0  0  0  0  0  0  0  0  0  0
   10.7480   -2.7470   25.1710 C   0  0  0  0  0  0  0  0  0  0  0  0
   11.2070   -3.7640   26.0180 C   0  0  0  0  0  0  0  0  0  0  0  0
   12.5890   -3.9270   26.2150 C   0  0  0  0  0  0  0  0  0  0  0  0
   13.5380   -2.9590   25.5000 C   0  0  0  0  0  0  0  0  0  0  0  0
   12.8860   -1.9410   24.6380 C   0  0  0  0  0  0  0  0  0  0  0  0
    8.3920   -3.4680   25.6950 C   0  0  0  0  0  0  0  0  0  0  0  0
    8.8050   -4.4920   26.5580 C   0  0  0  0  0  0  0  0  0  0  0  0
   10.1900   -4.6790   26.7420 C   0  0  0  0  0  0  0  0  0  0  0  0
    9.3660   -2.6030   24.9920 C   0  0  0  0  0  0  0  0  0  0  0  0
    4.4770   -6.2350   23.3010 N   0  0  0  0  0  0  0  0  0  0  0  0
    4.8450   -5.0360   23.9960 C   0  0  0  0  0  0  0  0  0  0  0  0
    6.0580   -4.5830   23.6060 C   0  0  0  0  0  0  0  0  0  0  0  0
    6.4910   -5.5730   22.5670 N   0  0  0  0  0  0  0  0  0  0  0  0
    5.5050   -6.5160   22.4450 N   0  0  0  0  0  0  0  0  0  0  0  0
   10.8720   -0.1270   22.9310 C   0  0  0  0  0  0  0  0  0  0  0  0
   11.4740    1.0620   23.2360 C   0  0  0  0  0  0  0  0  0  0  0  0
   12.7600    1.1840   23.0700 C   0  0  0  0  0  0  0  0  0  0  0  0
   13.4330    0.0920   22.5920 C   0  0  0  0  0  0  0  0  0  0  0  0
   12.8820   -1.1310   22.2780 C   0  0  0  0  0  0  0  0  0  0  0  0
   11.5440   -1.2550   22.4520 C   0  0  0  0  0  0  0  0  0  0  0  0
  1  3  1  0
  2  6  2  0
  3  6  1  0
  4  6  1  0
  1  9  1  0
  5  9  2  0
  7  9  2  0
  5 11  1  0
  4 13  1  0
  5 13  1  0
 12 13  2  0
  4 14  1  6
 15 16  2  0
 16 17  1  0
  8 18  1  0
 17 18  2  0
  4 19  1  0
 18 19  1  0
 15 20  1  0
 19 20  2  0
 21 22  2  0
 22 23  1  0
 23 24  2  0
 24 25  1  0
 21 26  1  0
 25 26  2  0
 27 28  1  0
 23 29  1  0
 28 29  2  0
  9 30  1  0
 22 30  1  0
 27 30  2  0
 10 31  1  0
 31 32  1  0
 11 33  1  0
 32 33  2  0
 33 34  1  0
 31 35  1  0
 34 35  2  0
  1 36  1  0
 36 37  2  0
 37 38  1  0
 38 39  2  0
 39 40  1  0
 36 41  1  0
 40 41  2  0
M  END
