x3080-x0395
     RDKit          3D

 31 34  0  0  0  0  0  0  0  0999 V2000
    9.1940    1.3740   21.2940 O   0  0  0  0  0  0  0  0  0  0  0  0
    7.9270   -0.5600   21.1490 N   0  0  0  0  0  0  0  0  0  0  0  0
    7.6480   -1.3380   23.4550 O   0  0  0  0  0  0  0  0  0  0  0  0
    8.9860    0.2170   21.6960 C   0  0  0  0  0  0  0  0  0  0  0  0
    8.7460    0.1430   25.1530 O   0  0  0  0  0  0  0  0  0  0  0  0
    5.5210    0.8600   22.0970 C   0  0  0  0  0  0  0  0  0  0  0  0
    8.8290   -0.9060   24.1500 S   0  0  0  0  0  0  0  0  0  0  0  0
    8.3610   -5.5910   26.6580 C   0  0  0  0  0  0  0  0  0  0  0  0
   12.9920   -1.8760   21.4510 F   0  0  0  0  0  0  0  0  0  0  0  0
    6.2880    0.3330   17.7460 N   0  0  0  0  0  0  0  0  0  0  0  0
    5.2320    0.9820   18.2430 C   0  0  0  0  0  0  0  0  0  0  0  0
    4.9530    1.1670   19.6030 C   0  0  0  0  0  0  0  0  0  0  0  0
    5.8030    0.6710   20.6310 C   0  0  0  0  0  0  0  0  0  0  0  0
    6.9520   -0.0190   20.2220 C   0  0  0  0  0  0  0  0  0  0  0  0
    7.1140   -0.1530   18.6870 C   0  0  0  0  0  0  0  0  0  0  0  0
   11.8900   -1.3930   24.6250 N   0  0  0  0  0  0  0  0  0  0  0  0
   10.8900   -2.3610   25.0740 C   0  0  0  0  0  0  0  0  0  0  0  0
   11.3610   -3.4790   25.7100 C   0  0  0  0  0  0  0  0  0  0  0  0
   12.7240   -3.6880   25.9270 C   0  0  0  0  0  0  0  0  0  0  0  0
   13.5680   -2.7050   25.4590 C   0  0  0  0  0  0  0  0  0  0  0  0
   13.0160   -1.6040   24.8210 C   0  0  0  0  0  0  0  0  0  0  0  0
    8.6200   -3.3590   25.4620 C   0  0  0  0  0  0  0  0  0  0  0  0
    9.1500   -4.4670   26.0980 C   0  0  0  0  0  0  0  0  0  0  0  0
   10.5190   -4.5480   26.2320 C   0  0  0  0  0  0  0  0  0  0  0  0
    9.5220   -2.2510   24.9220 C   0  0  0  0  0  0  0  0  0  0  0  0
   10.5640    0.8190   23.3150 C   0  0  0  0  0  0  0  0  0  0  0  0
   12.0640    0.9300   23.5100 C   0  0  0  0  0  0  0  0  0  0  0  0
   12.8020    0.0640   22.7560 C   0  0  0  0  0  0  0  0  0  0  0  0
   12.1880   -1.0680   22.1820 C   0  0  0  0  0  0  0  0  0  0  0  0
   10.7810   -1.4050   22.3200 C   0  0  0  0  0  0  0  0  0  0  0  0
    9.9460   -0.3510   22.8360 C   0  0  2  0  0  0  0  0  0  0  0  0
  1  4  2  0
  2  4  1  0
  3  7  2  0
  5  7  2  0
 10 11  2  0
 11 12  1  0
  6 13  1  0
 12 13  2  0
  2 14  1  0
 13 14  1  0
 10 15  1  0
 14 15  2  0
 16 17  2  0
 17 18  1  0
 18 19  2  0
 19 20  1  0
 16 21  1  0
 20 21  2  0
  8 23  1  0
 22 23  1  0
 18 24  1  0
 23 24  2  0
  7 25  1  0
 17 25  1  0
 22 25  2  0
 26 27  1  0
 27 28  1  0
  9 29  1  0
 28 29  2  0
 29 30  1  0
 31  4  1  6
  7 31  1  0
 26 31  1  0
 30 31  1  0
M  END
