x3080-x0978
     RDKit          3D

 43 45  0  0  0  0  0  0  0  0999 V2000
    1.9530   -5.7150   23.1530 N   0  0  0  0  0  0  0  0  0  0  0  0
    2.2120   -8.0660   24.7470 C   0  0  0  0  0  0  0  0  0  0  0  0
    4.5050   -7.6370   24.6120 O   0  0  0  0  0  0  0  0  0  0  0  0
    3.4020   -7.1380   24.5440 C   0  0  1  0  0  0  0  0  0  0  0  0
    5.3340   -5.7510   21.7170 N   0  0  0  0  0  0  0  0  0  0  0  0
    0.6820   -7.4690   21.7900 O   0  0  0  0  0  0  0  0  0  0  0  0
    3.2250   -6.4530   23.1740 C   0  0  2  0  0  0  0  0  0  0  0  0
    4.2100   -4.2140   23.3710 N   0  0  0  0  0  0  0  0  0  0  0  0
    0.7310   -6.2520   22.5230 C   0  0  0  0  0  0  0  0  0  0  0  0
   -0.3920   -5.4160   22.7250 C   0  0  0  0  0  0  0  0  0  0  0  0
    4.3130   -5.4120   22.7610 C   0  0  0  0  0  0  0  0  0  0  0  0
    6.4190   -4.9430   21.4800 C   0  0  0  0  0  0  0  0  0  0  0  0
    6.4620   -4.4210   20.0140 C   0  0  0  0  0  0  0  0  0  0  0  0
    5.3360   -3.5900   19.5130 C   0  0  0  0  0  0  0  0  0  0  0  0
    9.6810   -0.2980   23.4160 N   0  0  0  0  0  0  0  0  0  0  0  0
   10.9160    0.5640   23.6070 C   0  0  0  0  0  0  0  0  0  0  0  0
    9.0840    1.1910   21.2460 O   0  0  0  0  0  0  0  0  0  0  0  0
    9.5490   -0.9010   22.0500 C   0  0  0  0  0  0  0  0  0  0  0  0
    7.6300   -0.6320   20.6290 N   0  0  0  0  0  0  0  0  0  0  0  0
    7.3340   -1.1220   24.0290 N   0  0  0  0  0  0  0  0  0  0  0  0
    8.7820   -0.0180   21.3040 C   0  0  0  0  0  0  0  0  0  0  0  0
    9.0900    0.2290   25.5710 O   0  0  0  0  0  0  0  0  0  0  0  0
    5.1620    0.8840   21.9500 C   0  0  0  0  0  0  0  0  0  0  0  0
    8.8530   -0.8070   24.5850 S   0  0  2  0  0  0  0  0  0  0  0  0
    5.0390   -3.1270   23.0980 C   0  0  0  0  0  0  0  0  0  0  0  0
    6.1330   -3.0490   23.9420 C   0  0  0  0  0  0  0  0  0  0  0  0
    7.1870   -2.3030   23.4150 C   0  0  0  0  0  0  0  0  0  0  0  0
    6.3300    0.5430   17.6660 N   0  0  0  0  0  0  0  0  0  0  0  0
    5.2430    1.2550   17.9910 C   0  0  0  0  0  0  0  0  0  0  0  0
    4.7370    1.4390   19.4400 C   0  0  0  0  0  0  0  0  0  0  0  0
    5.5590    0.7630   20.5180 C   0  0  0  0  0  0  0  0  0  0  0  0
    6.6550    0.0710   20.0460 C   0  0  0  0  0  0  0  0  0  0  0  0
    7.0180   -0.0390   18.6920 C   0  0  0  0  0  0  0  0  0  0  0  0
   11.7070   -1.5140   24.8290 N   0  0  0  0  0  0  0  0  0  0  0  0
   10.9180   -2.5180   25.3070 C   0  0  0  0  0  0  0  0  0  0  0  0
   11.2010   -3.7910   25.9000 C   0  0  0  0  0  0  0  0  0  0  0  0
   12.7760   -3.7010   25.8790 C   0  0  0  0  0  0  0  0  0  0  0  0
   13.5520   -2.6820   25.3980 C   0  0  0  0  0  0  0  0  0  0  0  0
   12.9980   -1.6050   24.8720 C   0  0  0  0  0  0  0  0  0  0  0  0
    8.5290   -3.2620   25.6820 C   0  0  0  0  0  0  0  0  0  0  0  0
    8.9280   -4.4400   26.2110 C   0  0  0  0  0  0  0  0  0  0  0  0
   10.2680   -4.7400   26.3400 C   0  0  0  0  0  0  0  0  0  0  0  0
    9.4760   -2.3100   25.2370 C   0  0  0  0  0  0  0  0  0  0  0  0
  4  2  1  6
  3  4  1  0
  7  1  1  1
  4  7  1  0
  1  9  1  0
  6  9  2  0
  9 10  1  0
  5 11  1  0
  7 11  1  0
  8 11  2  3
  5 12  1  0
 12 13  1  0
 13 14  2  3
 15 16  1  0
 15 18  1  0
 17 21  2  0
 18 21  1  0
 19 21  1  0
 24 15  1  6
 20 24  2  0
 22 24  2  0
  8 25  1  0
 25 26  1  0
 20 27  1  0
 26 27  1  0
 28 29  2  0
 29 30  1  0
 23 31  1  0
 30 31  2  0
 19 32  1  0
 31 32  1  0
 28 33  1  0
 32 33  2  0
 34 35  2  0
 35 36  1  0
 36 37  2  0
 37 38  1  0
 34 39  1  0
 38 39  2  0
 40 41  1  0
 36 42  1  0
 41 42  2  0
 24 43  1  0
 35 43  1  0
 40 43  2  0
M  END
