x3108-x0689
     RDKit          3D

 40 43  0  0  0  0  0  0  0  0999 V2000
    5.9100    1.8440   21.9980 C   0  0  0  0  0  0  0  0  0  0  0  0
    9.1970    1.8100   21.3390 O   0  0  0  0  0  0  0  0  0  0  0  0
    7.9530   -0.1450   21.2280 N   0  0  0  0  0  0  0  0  0  0  0  0
    8.1680    0.1880   24.7920 O   0  0  0  0  0  0  0  0  0  0  0  0
    9.4320   -1.1480   23.4650 N   0  0  0  0  0  0  0  0  0  0  0  0
    9.0060    0.6400   21.7200 C   0  0  0  0  0  0  0  0  0  0  0  0
    9.9770   -0.0090   22.7380 C   0  0  0  0  0  0  0  0  0  0  0  0
    8.4060   -0.9290   24.3460 C   0  0  0  0  0  0  0  0  0  0  0  0
    7.5450   -2.1200   24.7310 C   0  0  0  0  0  0  0  0  0  0  0  0
    7.1870   -3.4950   20.0340 C   0  0  0  0  0  0  0  0  0  0  0  0
    5.1860   -4.7270   19.9250 O   0  0  0  0  0  0  0  0  0  0  0  0
    6.2190   -4.5750   20.5470 C   0  0  0  0  0  0  0  0  0  0  0  0
    3.8540   -6.4420   25.8510 O   0  0  0  0  0  0  0  0  0  0  0  0
    5.5610   -4.7520   26.6080 O   0  0  0  0  0  0  0  0  0  0  0  0
    4.6030   -5.2240   25.6340 S   0  0  0  0  0  0  0  0  0  0  0  0
    8.3610   -1.4540   20.8200 C   0  0  0  0  0  0  0  0  0  0  0  0
    7.5940   -2.5350   21.1690 C   0  0  0  0  0  0  0  0  0  0  0  0
    6.2740    0.2720   17.9910 N   0  0  0  0  0  0  0  0  0  0  0  0
    7.0940   -0.1220   18.9790 C   0  0  0  0  0  0  0  0  0  0  0  0
    7.0280    0.3530   20.2860 C   0  0  0  0  0  0  0  0  0  0  0  0
    6.0590    1.2840   20.6140 C   0  0  0  0  0  0  0  0  0  0  0  0
    5.1850    1.7120   19.6060 C   0  0  0  0  0  0  0  0  0  0  0  0
    5.3380    1.1740   18.3160 C   0  0  0  0  0  0  0  0  0  0  0  0
    9.7410   -5.2280   24.5590 N   0  0  0  0  0  0  0  0  0  0  0  0
    9.1140   -4.0660   24.2560 C   0  0  0  0  0  0  0  0  0  0  0  0
    8.2440   -3.4100   25.1140 C   0  0  0  0  0  0  0  0  0  0  0  0
    8.0150   -3.9940   26.3650 C   0  0  0  0  0  0  0  0  0  0  0  0
    8.6480   -5.1950   26.7160 C   0  0  0  0  0  0  0  0  0  0  0  0
    9.4970   -5.7640   25.7730 C   0  0  0  0  0  0  0  0  0  0  0  0
    6.4660   -5.3700   21.6640 N   0  0  0  0  0  0  0  0  0  0  0  0
    5.5880   -6.4530   22.0920 C   0  0  0  0  0  0  0  0  0  0  0  0
    4.6310   -5.9420   22.9650 C   0  0  0  0  0  0  0  0  0  0  0  0
    5.3770   -5.3430   24.1120 N   0  0  0  0  0  0  0  0  0  0  0  0
    6.1850   -4.3590   23.7540 C   0  0  0  0  0  0  0  0  0  0  0  0
    7.1490   -4.8110   22.8280 C   0  0  0  0  0  0  0  0  0  0  0  0
    3.9110   -2.2930   25.9420 S   0  0  0  0  0  0  0  0  0  0  0  0
    3.3860   -3.9210   25.6050 C   0  0  0  0  0  0  0  0  0  0  0  0
    1.9970   -3.9550   25.3540 C   0  0  0  0  0  0  0  0  0  0  0  0
    1.4490   -2.6950   25.4500 C   0  0  0  0  0  0  0  0  0  0  0  0
    2.3370   -1.7040   25.7570 C   0  0  0  0  0  0  0  0  0  0  0  0
  2  6  2  0
  3  6  1  0
  5  7  1  0
  6  7  1  0
  4  8  2  0
  5  8  1  0
  8  9  1  0
 10 12  1  0
 11 12  2  0
 13 15  2  0
 14 15  2  0
  3 16  1  0
 10 17  1  0
 16 17  1  0
 18 19  2  0
  3 20  1  0
 19 20  1  0
  1 21  1  0
 20 21  2  0
 21 22  1  0
 18 23  1  0
 22 23  2  0
 24 25  2  0
  9 26  1  0
 25 26  1  0
 26 27  2  0
 27 28  1  0
 24 29  1  0
 28 29  2  0
 12 30  1  0
 30 31  1  0
 31 32  1  0
 15 33  1  0
 32 33  1  0
 33 34  1  0
 30 35  1  0
 34 35  1  0
 15 37  1  0
 36 37  1  0
 37 38  2  0
 38 39  1  0
 36 40  1  0
 39 40  2  0
M  END
