x3108-x0540
     RDKit          3D

 32 34  0  0  0  0  0  0  0  0999 V2000
    5.3370    1.5050   22.1140 C   0  0  1  0  0  0  0  0  0  0  0  0
    9.2190    1.6570   21.3290 O   0  0  0  0  0  0  0  0  0  0  0  0
    7.8010   -0.1900   21.2220 N   0  0  0  0  0  0  0  0  0  0  0  0
    8.0700    0.1260   24.7130 O   0  0  0  0  0  0  0  0  0  0  0  0
    9.0770   -1.3050   23.2920 N   0  0  0  0  0  0  0  0  0  0  0  0
    8.9010    0.5170   21.6840 C   0  0  0  0  0  0  0  0  0  0  0  0
    9.7900   -0.2530   22.7330 C   0  0  0  0  0  0  0  0  0  0  0  0
    8.1410   -1.0190   24.2840 C   0  0  0  0  0  0  0  0  0  0  0  0
    7.2750   -2.0050   24.8010 C   0  0  0  0  0  0  0  0  0  0  0  0
    3.1440    1.4090   24.0320 O   0  0  0  0  0  0  0  0  0  0  0  0
    3.1300    2.2620   23.1430 C   0  0  0  0  0  0  0  0  0  0  0  0
    4.1130    2.3140   22.1870 N   0  0  0  0  0  0  0  0  0  0  0  0
    2.0700    3.2760   23.0390 N   0  0  0  0  0  0  0  0  0  0  0  0
    5.0430    0.2320   22.9190 C   0  0  0  0  0  0  0  0  0  0  0  0
    6.3010    0.2270   17.9380 N   0  0  0  0  0  0  0  0  0  0  0  0
    7.2430   -0.2360   18.9660 C   0  0  0  0  0  0  0  0  0  0  0  0
    6.8950    0.2210   20.2600 C   0  0  0  0  0  0  0  0  0  0  0  0
    5.6720    1.0840   20.6760 C   0  0  0  0  0  0  0  0  0  0  0  0
    4.8290    1.4770   19.6400 C   0  0  0  0  0  0  0  0  0  0  0  0
    5.1800    1.0260   18.2380 C   0  0  0  0  0  0  0  0  0  0  0  0
    9.6890   -4.9630   25.3190 N   0  0  0  0  0  0  0  0  0  0  0  0
    9.0810   -3.8740   24.8390 C   0  0  0  0  0  0  0  0  0  0  0  0
    7.9820   -3.2710   25.3560 C   0  0  0  0  0  0  0  0  0  0  0  0
    7.4430   -3.9020   26.5420 C   0  0  0  0  0  0  0  0  0  0  0  0
    8.0570   -5.0490   27.0670 C   0  0  0  0  0  0  0  0  0  0  0  0
    9.1830   -5.6330   26.5040 C   0  0  0  0  0  0  0  0  0  0  0  0
    0.7940    4.5140   24.3260 C   0  0  0  0  0  0  0  0  0  0  0  0
   -0.4080    4.7960   24.9680 C   0  0  0  0  0  0  0  0  0  0  0  0
   -1.5500    4.4230   24.2560 C   0  0  0  0  0  0  0  0  0  0  0  0
   -1.4730    3.0900   23.7850 C   0  0  0  0  0  0  0  0  0  0  0  0
   -0.2870    2.9110   23.0380 C   0  0  0  0  0  0  0  0  0  0  0  0
    0.8920    3.2370   23.7450 C   0  0  0  0  0  0  0  0  0  0  0  0
  2  6  2  0
  3  6  1  0
  5  7  1  0
  6  7  1  0
  4  8  2  0
  5  8  1  0
  8  9  1  0
 10 11  2  0
  1 12  1  0
 11 12  1  0
 11 13  1  0
  1 14  1  1
 15 16  2  0
  3 17  1  0
 16 17  1  0
  1 18  1  0
 17 18  2  0
 18 19  1  0
 15 20  1  0
 19 20  2  0
 21 22  2  0
  9 23  1  0
 22 23  1  0
 23 24  2  0
 24 25  1  0
 21 26  1  0
 25 26  2  0
 27 28  1  0
 28 29  1  0
 29 30  1  0
 30 31  1  0
 13 32  1  0
 27 32  1  0
 31 32  1  0
M  END
