x3108-x1311
     RDKit          3D

 34 36  0  0  0  0  0  0  0  0999 V2000
    6.0720    1.6590   21.9920 C   0  0  0  0  0  0  0  0  0  0  0  0
    9.2700    1.6730   21.3760 O   0  0  0  0  0  0  0  0  0  0  0  0
    8.1060   -0.3310   21.2210 N   0  0  0  0  0  0  0  0  0  0  0  0
    8.2030    0.0200   24.7810 O   0  0  0  0  0  0  0  0  0  0  0  0
    9.3390   -1.3000   23.3580 N   0  0  0  0  0  0  0  0  0  0  0  0
    9.0690    0.5040   21.7250 C   0  0  0  0  0  0  0  0  0  0  0  0
    9.9590   -0.1650   22.8360 C   0  0  0  0  0  0  0  0  0  0  0  0
    8.3510   -1.1090   24.3260 C   0  0  0  0  0  0  0  0  0  0  0  0
    7.4970   -2.1330   24.7860 C   0  0  2  0  0  0  0  0  0  0  0  0
    6.2970    0.1360   17.9420 N   0  0  0  0  0  0  0  0  0  0  0  0
    7.1680   -0.2880   18.9490 C   0  0  0  0  0  0  0  0  0  0  0  0
    7.1370    0.1790   20.2690 C   0  0  0  0  0  0  0  0  0  0  0  0
    6.1780    1.1200   20.6290 C   0  0  0  0  0  0  0  0  0  0  0  0
    5.2620    1.5940   19.6880 C   0  0  0  0  0  0  0  0  0  0  0  0
    5.3770    1.0360   18.2800 C   0  0  0  0  0  0  0  0  0  0  0  0
    9.8480   -5.2180   24.6270 N   0  0  0  0  0  0  0  0  0  0  0  0
    9.2190   -4.0900   24.3070 C   0  0  0  0  0  0  0  0  0  0  0  0
    8.1950   -3.4000   25.1950 C   0  0  0  0  0  0  0  0  0  0  0  0
    7.9400   -4.0300   26.4030 C   0  0  0  0  0  0  0  0  0  0  0  0
    8.5730   -5.2090   26.7790 C   0  0  0  0  0  0  0  0  0  0  0  0
    9.5290   -5.7560   25.8290 C   0  0  0  0  0  0  0  0  0  0  0  0
    5.7230   -4.2930   19.8720 O   0  0  0  0  0  0  0  0  0  0  0  0
    6.5560   -4.2330   20.7940 C   0  0  0  0  0  0  0  0  0  0  0  0
    8.1060   -4.1330   20.6960 C   0  0  0  0  0  0  0  0  0  0  0  0
    6.1010   -4.2410   22.1110 N   0  0  0  0  0  0  0  0  0  0  0  0
    4.0840   -6.3430   25.8040 O   0  0  0  0  0  0  0  0  0  0  0  0
    2.3220   -6.2750   23.9710 O   0  0  0  0  0  0  0  0  0  0  0  0
    5.5300   -6.3940   22.4590 C   0  0  0  0  0  0  0  0  0  0  0  0
    5.0060   -5.1250   22.4980 C   0  0  1  0  0  0  0  0  0  0  0  0
    4.5490   -4.7280   23.7630 C   0  0  0  0  0  0  0  0  0  0  0  0
    3.8610   -6.1650   24.3910 S   0  0  0  0  0  0  0  0  0  0  0  0
    4.9690   -7.1420   23.4730 C   0  0  0  0  0  0  0  0  0  0  0  0
    6.6410   -2.5630   23.6510 C   0  0  0  0  0  0  0  0  0  0  0  0
    7.0140   -3.8180   23.1750 C   0  0  0  0  0  0  0  0  0  0  0  0
  2  6  2  0
  3  6  1  0
  5  7  1  0
  6  7  1  0
  4  8  2  0
  5  8  1  0
  8  9  1  0
 10 11  2  0
  3 12  1  0
 11 12  1  0
  1 13  1  0
 12 13  2  0
 13 14  1  0
 10 15  1  0
 14 15  2  0
 16 17  2  0
  9 18  1  0
 17 18  1  0
 18 19  2  0
 19 20  1  0
 16 21  1  0
 20 21  2  0
 22 23  2  0
 23 24  1  0
 23 25  1  0
 29 25  1  1
 28 29  1  0
 29 30  1  0
 31 26  1  0
 27 31  1  0
 30 31  1  0
 28 32  2  0
 31 32  1  0
  9 33  1  6
 25 34  1  0
 33 34  1  0
M  END
