x3108-x1351
     RDKit          3D

 39 42  0  0  0  0  0  0  0  0999 V2000
    6.0650    1.6300   22.0610 C   0  0  0  0  0  0  0  0  0  0  0  0
    9.3080    1.7430   21.3910 O   0  0  0  0  0  0  0  0  0  0  0  0
    8.0940   -0.2260   21.2300 N   0  0  0  0  0  0  0  0  0  0  0  0
    8.0430    0.0580   24.5270 O   0  0  0  0  0  0  0  0  0  0  0  0
    9.4180   -1.2910   23.2420 N   0  0  0  0  0  0  0  0  0  0  0  0
    9.1090    0.5650   21.7060 C   0  0  0  0  0  0  0  0  0  0  0  0
   10.0610   -0.1790   22.7120 C   0  0  0  0  0  0  0  0  0  0  0  0
    8.4350   -1.0550   24.1930 C   0  0  0  0  0  0  0  0  0  0  0  0
    7.7090   -2.3480   25.0520 S   0  0  0  0  0  0  0  0  0  0  0  0
    7.1340   -3.1880   19.2560 C   0  0  0  0  0  0  0  0  0  0  0  0
    5.1890   -4.4390   19.8240 O   0  0  0  0  0  0  0  0  0  0  0  0
    6.2190   -3.9270   20.2330 C   0  0  0  0  0  0  0  0  0  0  0  0
    8.3510   -1.8660   26.5290 N   0  0  0  0  0  0  0  0  0  0  0  0
    6.4080   -2.1540   26.0610 N   0  0  0  0  0  0  0  0  0  0  0  0
    6.3020    0.1630   17.9520 N   0  0  0  0  0  0  0  0  0  0  0  0
    7.1460   -0.2060   18.9300 C   0  0  0  0  0  0  0  0  0  0  0  0
    7.1400    0.2110   20.2350 C   0  0  0  0  0  0  0  0  0  0  0  0
    6.1720    1.1080   20.6510 C   0  0  0  0  0  0  0  0  0  0  0  0
    5.1660    1.5700   19.5820 C   0  0  0  0  0  0  0  0  0  0  0  0
    5.3130    1.0460   18.2690 C   0  0  0  0  0  0  0  0  0  0  0  0
    9.9000   -5.5290   24.7210 N   0  0  0  0  0  0  0  0  0  0  0  0
    9.3250   -4.3540   24.4120 C   0  0  0  0  0  0  0  0  0  0  0  0
    8.4810   -3.7580   25.3060 C   0  0  0  0  0  0  0  0  0  0  0  0
    8.1560   -4.2770   26.5470 C   0  0  0  0  0  0  0  0  0  0  0  0
    8.7810   -5.5180   26.8580 C   0  0  0  0  0  0  0  0  0  0  0  0
    9.6190   -6.0770   25.9280 C   0  0  0  0  0  0  0  0  0  0  0  0
    6.5580   -4.0610   21.5710 N   0  0  0  0  0  0  0  0  0  0  0  0
    7.2160   -2.9510   22.3560 C   0  0  0  0  0  0  0  0  0  0  0  0
    6.9550   -3.2520   23.6980 C   0  0  2  0  0  0  0  0  0  0  0  0
    5.5990   -3.2740   23.9190 C   0  0  0  0  0  0  0  0  0  0  0  0
    4.9830   -4.3900   23.3390 C   0  0  0  0  0  0  0  0  0  0  0  0
    5.8080   -5.0200   22.3650 C   0  0  0  0  0  0  0  0  0  0  0  0
    6.4230   -0.8860   28.1820 C   0  0  0  0  0  0  0  0  0  0  0  0
    6.4690    0.5060   28.5910 C   0  0  0  0  0  0  0  0  0  0  0  0
    5.9240    1.6860   28.0300 C   0  0  0  0  0  0  0  0  0  0  0  0
    5.1950    1.6750   26.8780 C   0  0  0  0  0  0  0  0  0  0  0  0
    5.0500    0.4560   26.3450 C   0  0  0  0  0  0  0  0  0  0  0  0
    5.6540   -0.7490   27.0000 C   0  0  0  0  0  0  0  0  0  0  0  0
    6.2080   -2.2130   27.5240 C   0  0  0  0  0  0  0  0  0  0  0  0
  2  6  2  0
  3  6  1  0
  5  7  1  0
  6  7  1  0
  4  8  2  0
  5  8  1  0
  8  9  1  0
 10 12  1  0
 11 12  2  0
  9 13  1  0
  9 14  2  3
 15 16  2  0
  3 17  1  0
 16 17  1  0
  1 18  1  0
 17 18  2  0
 18 19  1  0
 15 20  1  0
 19 20  2  0
 21 22  2  0
  9 23  1  0
 22 23  1  0
 23 24  2  0
 24 25  1  0
 21 26  1  0
 25 26  2  0
 12 27  1  0
 27 28  1  0
 29  9  1  1
 28 29  1  0
 29 30  1  0
 30 31  1  0
 27 32  1  0
 31 32  1  0
 33 34  2  0
 34 35  1  0
 35 36  2  0
 36 37  1  0
 33 38  1  0
 37 38  2  0
 14 39  1  0
 33 39  1  0
M  END
