x3108-x0678
     RDKit          3D

 26 28  0  0  0  0  0  0  0  0999 V2000
    6.3510    1.6560   22.1440 C   0  0  0  0  0  0  0  0  0  0  0  0
    9.6140    1.4280   21.7970 O   0  0  0  0  0  0  0  0  0  0  0  0
    8.2960   -0.4460   21.3910 N   0  0  0  0  0  0  0  0  0  0  0  0
    8.2990    0.1520   24.7900 O   0  0  0  0  0  0  0  0  0  0  0  0
    9.3210   -1.4200   23.5370 N   0  0  0  0  0  0  0  0  0  0  0  0
    9.3680    0.2410   21.9850 C   0  0  0  0  0  0  0  0  0  0  0  0
    8.4170   -1.0330   24.5200 C   0  0  0  0  0  0  0  0  0  0  0  0
    7.6900   -2.0370   25.1580 C   0  0  0  0  0  0  0  0  0  0  0  0
    6.4490    0.0350   18.1610 N   0  0  0  0  0  0  0  0  0  0  0  0
    7.3090   -0.4150   19.0980 C   0  0  0  0  0  0  0  0  0  0  0  0
    7.3220    0.0890   20.4230 C   0  0  0  0  0  0  0  0  0  0  0  0
    6.3880    1.0760   20.7200 C   0  0  0  0  0  0  0  0  0  0  0  0
    5.4950    1.5450   19.7730 C   0  0  0  0  0  0  0  0  0  0  0  0
    5.5660    0.9920   18.5000 C   0  0  0  0  0  0  0  0  0  0  0  0
    9.6370   -5.2350   24.7870 N   0  0  0  0  0  0  0  0  0  0  0  0
    9.0720   -4.0270   24.5340 C   0  0  0  0  0  0  0  0  0  0  0  0
    8.2760   -3.3740   25.5040 C   0  0  0  0  0  0  0  0  0  0  0  0
    8.0690   -4.0730   26.8480 C   0  0  0  0  0  0  0  0  0  0  0  0
    8.6430   -5.2970   27.1020 C   0  0  0  0  0  0  0  0  0  0  0  0
    9.4020   -5.8600   26.1090 C   0  0  0  0  0  0  0  0  0  0  0  0
   11.0470   -1.4430   22.0950 C   0  0  0  0  0  0  0  0  0  0  0  0
   12.4390   -1.5930   22.3520 C   0  0  0  0  0  0  0  0  0  0  0  0
   13.0000   -0.7880   23.3470 C   0  0  0  0  0  0  0  0  0  0  0  0
   12.1180   -0.3500   24.3190 C   0  0  0  0  0  0  0  0  0  0  0  0
   10.9710    0.2110   23.7870 C   0  0  0  0  0  0  0  0  0  0  0  0
   10.2400   -0.6410   22.9370 C   0  0  0  0  0  0  0  0  0  0  0  0
  2  6  2  0
  3  6  1  0
  4  7  2  0
  5  7  1  0
  7  8  1  0
  9 10  2  0
  3 11  1  0
 10 11  1  0
  1 12  1  0
 11 12  2  0
 12 13  1  0
  9 14  1  0
 13 14  2  0
 15 16  2  0
  8 17  1  0
 16 17  1  0
 17 18  2  0
 18 19  1  0
 15 20  1  0
 19 20  2  0
 21 22  1  0
 22 23  1  0
 23 24  1  0
 24 25  1  0
  5 26  1  0
 26  6  1  0
 21 26  1  0
 25 26  1  0
M  END
