x3108-x2754
     RDKit          3D

 34 36  0  0  0  0  0  0  0  0999 V2000
    5.9750    1.8090   22.0180 C   0  0  0  0  0  0  0  0  0  0  0  0
    9.2740    1.9350   21.3320 O   0  0  0  0  0  0  0  0  0  0  0  0
    8.2150   -0.1080   21.2820 N   0  0  0  0  0  0  0  0  0  0  0  0
    7.9740   -0.4900   25.0940 O   0  0  0  0  0  0  0  0  0  0  0  0
    9.6040   -0.8550   23.5500 N   0  0  0  0  0  0  0  0  0  0  0  0
    9.0520    0.8340   21.8320 C   0  0  0  0  0  0  0  0  0  0  0  0
    9.7480    0.4710   23.2000 C   0  0  0  0  0  0  0  0  0  0  0  0
    8.4640   -1.2400   24.2500 C   0  0  0  0  0  0  0  0  0  0  0  0
    7.9250   -2.4950   23.9300 C   0  0  1  0  0  0  0  0  0  0  0  0
    4.9490   -3.2110   25.5290 C   0  0  0  0  0  0  0  0  0  0  0  0
    3.8850   -2.9930   24.9660 O   0  0  0  0  0  0  0  0  0  0  0  0
    4.6330   -2.9670   26.8090 N   0  0  0  0  0  0  0  0  0  0  0  0
    5.2670   -4.7030   19.9150 O   0  0  0  0  0  0  0  0  0  0  0  0
    6.1690   -3.9710   20.2720 C   0  0  0  0  0  0  0  0  0  0  0  0
    7.0600   -3.2220   19.2790 C   0  0  0  0  0  0  0  0  0  0  0  0
    5.3280   -1.9840   27.4120 C   0  0  0  0  0  0  0  0  0  0  0  0
    6.3180    0.0320   18.0240 N   0  0  0  0  0  0  0  0  0  0  0  0
    7.2450   -0.3100   18.9580 C   0  0  0  0  0  0  0  0  0  0  0  0
    7.1960    0.2320   20.2600 C   0  0  0  0  0  0  0  0  0  0  0  0
    6.0770    1.1980   20.6190 C   0  0  0  0  0  0  0  0  0  0  0  0
    5.1350    1.5350   19.6740 C   0  0  0  0  0  0  0  0  0  0  0  0
    5.2460    0.9790   18.4200 C   0  0  0  0  0  0  0  0  0  0  0  0
    9.7060   -5.6660   24.8070 N   0  0  0  0  0  0  0  0  0  0  0  0
    9.0880   -4.5660   24.5220 C   0  0  0  0  0  0  0  0  0  0  0  0
    8.3390   -3.5600   24.9340 C   0  0  0  0  0  0  0  0  0  0  0  0
    8.0840   -3.7370   26.2830 C   0  0  0  0  0  0  0  0  0  0  0  0
    8.6430   -4.9000   26.9230 C   0  0  0  0  0  0  0  0  0  0  0  0
    9.4470   -5.8800   26.2460 C   0  0  0  0  0  0  0  0  0  0  0  0
    6.3990   -3.8280   21.6150 N   0  0  0  0  0  0  0  0  0  0  0  0
    6.2610   -2.5510   22.3080 C   0  0  0  0  0  0  0  0  0  0  0  0
    6.5260   -2.5430   23.6980 C   0  0  1  0  0  0  0  0  0  0  0  0
    5.8550   -3.6220   24.3520 C   0  0  2  0  0  0  0  0  0  0  0  0
    5.2180   -4.5700   23.5180 C   0  0  0  0  0  0  0  0  0  0  0  0
    6.0260   -4.9420   22.4530 C   0  0  0  0  0  0  0  0  0  0  0  0
  2  6  2  0
  3  6  1  0
  5  7  1  0
  6  7  1  0
  4  8  2  0
  5  8  1  0
  9  8  1  1
 10 11  2  0
 10 12  1  0
 13 14  2  0
 14 15  1  0
 12 16  1  0
 17 18  2  0
  3 19  1  0
 18 19  1  0
  1 20  1  0
 19 20  2  0
 20 21  1  0
 17 22  1  0
 21 22  2  0
 23 24  2  0
  9 25  1  0
 24 25  1  0
 25 26  2  0
 26 27  1  0
 23 28  1  0
 27 28  2  0
 14 29  1  0
 29 30  1  0
  9 31  1  0
 31 30  1  6
 32 10  1  1
 31 32  1  0
 32 33  1  0
 29 34  1  0
 33 34  1  0
M  END
