x3108-x0771
     RDKit          3D

 42 45  0  0  0  0  0  0  0  0999 V2000
    6.0630    1.6820   21.9770 C   0  0  0  0  0  0  0  0  0  0  0  0
    9.3500    1.6360   21.4510 O   0  0  0  0  0  0  0  0  0  0  0  0
    8.0770   -0.2740   21.2450 N   0  0  0  0  0  0  0  0  0  0  0  0
    7.7330   -0.1070   24.0980 O   0  0  0  0  0  0  0  0  0  0  0  0
    9.3690   -1.4340   23.3430 N   0  0  0  0  0  0  0  0  0  0  0  0
    9.1030    0.4650   21.7700 C   0  0  0  0  0  0  0  0  0  0  0  0
    9.9960   -0.2940   22.8310 C   0  0  0  0  0  0  0  0  0  0  0  0
    8.1970   -1.2420   24.0690 C   0  0  0  0  0  0  0  0  0  0  0  0
    7.4700   -2.2410   24.7670 C   0  0  1  0  0  0  0  0  0  0  0  0
    0.5120   -1.4630   26.1900 C   0  0  0  0  0  0  0  0  0  0  0  0
    4.2480   -7.0120   25.5090 O   0  0  0  0  0  0  0  0  0  0  0  0
    6.0270   -5.3310   26.5500 O   0  0  0  0  0  0  0  0  0  0  0  0
    5.2700   -4.3570   19.8460 O   0  0  0  0  0  0  0  0  0  0  0  0
    2.0490   -5.9860   24.9860 C   0  0  0  0  0  0  0  0  0  0  0  0
    6.3700   -4.2270   20.3610 C   0  0  0  0  0  0  0  0  0  0  0  0
    7.4530   -3.3200   19.7390 C   0  0  0  0  0  0  0  0  0  0  0  0
    4.9920   -5.6060   25.5810 S   0  0  0  0  0  0  0  0  0  0  0  0
    6.4850   -2.8590   24.0040 C   0  0  0  0  0  0  0  0  0  0  0  0
    6.2540    0.1100   17.9150 N   0  0  0  0  0  0  0  0  0  0  0  0
    7.2300   -0.4010   18.8780 C   0  0  0  0  0  0  0  0  0  0  0  0
    7.1360    0.1780   20.2850 C   0  0  0  0  0  0  0  0  0  0  0  0
    6.1660    1.1160   20.6050 C   0  0  0  0  0  0  0  0  0  0  0  0
    5.2420    1.5850   19.6830 C   0  0  0  0  0  0  0  0  0  0  0  0
    5.2950    1.0730   18.3280 C   0  0  0  0  0  0  0  0  0  0  0  0
    9.9510   -5.2050   24.6770 N   0  0  0  0  0  0  0  0  0  0  0  0
    9.2030   -3.9910   24.3260 C   0  0  0  0  0  0  0  0  0  0  0  0
    8.2400   -3.3940   25.1160 C   0  0  0  0  0  0  0  0  0  0  0  0
    8.0310   -4.0460   26.3260 C   0  0  0  0  0  0  0  0  0  0  0  0
    8.7010   -5.1890   26.7120 C   0  0  0  0  0  0  0  0  0  0  0  0
    9.6630   -5.7900   25.8990 C   0  0  0  0  0  0  0  0  0  0  0  0
    1.6680   -2.4310   26.0590 C   0  0  0  0  0  0  0  0  0  0  0  0
    1.3850   -3.7260   25.6000 C   0  0  0  0  0  0  0  0  0  0  0  0
    2.4010   -4.6830   25.4580 C   0  0  0  0  0  0  0  0  0  0  0  0
    3.7310   -4.3700   25.7710 C   0  0  0  0  0  0  0  0  0  0  0  0
    3.9780   -3.0750   26.2200 C   0  0  0  0  0  0  0  0  0  0  0  0
    3.0010   -2.0960   26.3750 C   0  0  0  0  0  0  0  0  0  0  0  0
    6.6370   -4.9500   21.5280 N   0  0  0  0  0  0  0  0  0  0  0  0
    5.8380   -6.1210   21.8210 C   0  0  0  0  0  0  0  0  0  0  0  0
    4.8960   -5.7490   22.7880 C   0  0  0  0  0  0  0  0  0  0  0  0
    5.5910   -5.2490   24.0170 N   0  0  0  0  0  0  0  0  0  0  0  0
    6.8080   -4.3650   23.9070 C   0  0  1  0  0  0  0  0  0  0  0  0
    7.5750   -4.6040   22.5920 C   0  0  0  0  0  0  0  0  0  0  0  0
  2  6  2  0
  3  6  1  0
  5  7  1  0
  6  7  1  0
  4  8  2  0
  5  8  1  0
  8  9  1  0
 13 15  2  0
 15 16  1  0
 11 17  2  0
 12 17  2  0
  9 18  1  6
 19 20  2  0
  3 21  1  0
 20 21  1  0
  1 22  1  0
 21 22  2  0
 22 23  1  0
 19 24  1  0
 23 24  2  0
 25 26  2  0
  9 27  1  0
 26 27  1  0
 27 28  2  0
 28 29  1  0
 25 30  1  0
 29 30  2  0
 10 31  1  0
 31 32  2  0
 14 33  1  0
 32 33  1  0
 17 34  1  0
 33 34  2  0
 34 35  1  0
 31 36  1  0
 35 36  2  0
 15 37  1  0
 37 38  1  0
 38 39  1  0
 17 40  1  0
 39 40  1  0
 41 18  1  6
 40 41  1  0
 37 42  1  0
 41 42  1  0
M  END
