x3108-x1478
     RDKit          3D

 34 36  0  0  0  0  0  0  0  0999 V2000
    6.0150    1.9710   21.9180 C   0  0  0  0  0  0  0  0  0  0  0  0
    9.3440    1.8950   21.4190 O   0  0  0  0  0  0  0  0  0  0  0  0
    8.1410   -0.0450   21.2070 N   0  0  0  0  0  0  0  0  0  0  0  0
    8.2800    0.1230   24.7690 O   0  0  0  0  0  0  0  0  0  0  0  0
    9.4400   -1.1610   23.3320 N   0  0  0  0  0  0  0  0  0  0  0  0
    9.1330    0.7260   21.7330 C   0  0  0  0  0  0  0  0  0  0  0  0
   10.0440   -0.0080   22.8040 C   0  0  0  0  0  0  0  0  0  0  0  0
    8.4170   -0.9920   24.2750 C   0  0  0  0  0  0  0  0  0  0  0  0
    7.5070   -2.0070   24.6730 C   0  0  0  0  0  0  0  0  0  0  0  0
    6.5170   -2.8950   21.4090 N   0  0  0  0  0  0  0  0  0  0  0  0
    7.6730   -3.6970   19.5490 C   0  0  0  0  0  0  0  0  0  0  0  0
    5.3650   -3.5790   19.4800 O   0  0  0  0  0  0  0  0  0  0  0  0
    6.0800   -6.0050   22.2730 Cl  0  0  0  0  0  0  0  0  0  0  0  0
    6.3830   -3.3560   20.1440 C   0  0  0  0  0  0  0  0  0  0  0  0
    7.4010   -0.9110   22.0330 C   0  0  0  0  0  0  0  0  0  0  0  0
    7.6110   -2.2240   21.7090 C   0  0  0  0  0  0  0  0  0  0  0  0
    6.3160    0.1780   17.9350 N   0  0  0  0  0  0  0  0  0  0  0  0
    7.2170   -0.2030   18.8810 C   0  0  0  0  0  0  0  0  0  0  0  0
    7.1670    0.3510   20.1740 C   0  0  0  0  0  0  0  0  0  0  0  0
    6.0960    1.3630   20.5180 C   0  0  0  0  0  0  0  0  0  0  0  0
    5.1800    1.7430   19.5640 C   0  0  0  0  0  0  0  0  0  0  0  0
    5.2840    1.1740   18.3130 C   0  0  0  0  0  0  0  0  0  0  0  0
    9.7880   -5.1330   24.5970 N   0  0  0  0  0  0  0  0  0  0  0  0
    9.0530   -4.0640   24.5520 C   0  0  0  0  0  0  0  0  0  0  0  0
    8.1470   -3.3040   25.1940 C   0  0  0  0  0  0  0  0  0  0  0  0
    7.8900   -3.9240   26.4140 C   0  0  0  0  0  0  0  0  0  0  0  0
    8.5650   -5.1440   26.7470 C   0  0  0  0  0  0  0  0  0  0  0  0
    9.5090   -5.7880   25.8940 C   0  0  0  0  0  0  0  0  0  0  0  0
    4.5850   -4.8240   24.0620 N   0  0  0  0  0  0  0  0  0  0  0  0
    5.4600   -4.5430   22.9170 C   0  0  0  0  0  0  0  0  0  0  0  0
    5.7400   -3.2260   22.4330 C   0  0  0  0  0  0  0  0  0  0  0  0
    5.1100   -2.2110   23.1520 C   0  0  0  0  0  0  0  0  0  0  0  0
    4.2800   -2.3810   24.2390 C   0  0  0  0  0  0  0  0  0  0  0  0
    4.0060   -3.6510   24.7020 C   0  0  0  0  0  0  0  0  0  0  0  0
  2  6  2  0
  3  6  1  0
  5  7  1  0
  6  7  1  0
  4  8  2  0
  5  8  1  0
  8  9  1  0
 10 14  1  0
 11 14  1  0
 12 14  2  0
  3 15  1  0
 10 16  1  0
 15 16  1  0
 17 18  2  0
  3 19  1  0
 18 19  1  0
  1 20  1  0
 19 20  2  0
 20 21  1  0
 17 22  1  0
 21 22  2  0
 23 24  2  0
  9 25  1  0
 24 25  1  0
 25 26  2  0
 26 27  1  0
 23 28  1  0
 27 28  2  0
 13 30  1  0
 29 30  2  0
 10 31  1  0
 30 31  1  0
 31 32  2  0
 32 33  1  0
 29 34  1  0
 33 34  2  0
M  END
