x3108-x2097
     RDKit          3D

 29 31  0  0  0  0  0  0  0  0999 V2000
    6.1990    1.7800   22.0080 C   0  0  0  0  0  0  0  0  0  0  0  0
    9.2590    1.8770   21.3410 O   0  0  0  0  0  0  0  0  0  0  0  0
    8.1210   -0.1300   21.3280 N   0  0  0  0  0  0  0  0  0  0  0  0
    8.6150   -0.0590   25.3650 O   0  0  0  0  0  0  0  0  0  0  0  0
    9.5980   -0.9600   23.5280 N   0  0  0  0  0  0  0  0  0  0  0  0
    9.0780    0.7470   21.7950 C   0  0  0  0  0  0  0  0  0  0  0  0
   10.0000    0.2520   22.9830 C   0  0  0  0  0  0  0  0  0  0  0  0
    8.6430   -0.9710   24.5440 C   0  0  0  0  0  0  0  0  0  0  0  0
    7.7170   -2.0170   24.5840 C   0  0  2  0  0  0  0  0  0  0  0  0
    5.8700   -5.4240   19.9710 N   0  0  0  0  0  0  0  0  0  0  0  0
    6.5020   -4.2910   20.0140 C   0  0  0  0  0  0  0  0  0  0  0  0
    6.2670    0.0870   18.0280 N   0  0  0  0  0  0  0  0  0  0  0  0
    7.2720   -0.3940   18.9940 C   0  0  0  0  0  0  0  0  0  0  0  0
    7.1850    0.2130   20.2570 C   0  0  0  0  0  0  0  0  0  0  0  0
    6.2430    1.1750   20.6280 C   0  0  0  0  0  0  0  0  0  0  0  0
    5.2230    1.6240   19.5900 C   0  0  0  0  0  0  0  0  0  0  0  0
    5.3410    1.0120   18.3400 C   0  0  0  0  0  0  0  0  0  0  0  0
    9.6760   -5.2400   24.9880 N   0  0  0  0  0  0  0  0  0  0  0  0
    9.1220   -4.0240   24.5300 C   0  0  0  0  0  0  0  0  0  0  0  0
    8.2250   -3.2930   25.2810 C   0  0  0  0  0  0  0  0  0  0  0  0
    7.8120   -3.6970   26.5380 C   0  0  0  0  0  0  0  0  0  0  0  0
    8.3910   -4.9620   27.0170 C   0  0  0  0  0  0  0  0  0  0  0  0
    9.2880   -5.6090   26.1500 C   0  0  0  0  0  0  0  0  0  0  0  0
    6.2430   -3.6000   21.3010 C   0  0  0  0  0  0  0  0  0  0  0  0
    7.3320   -3.2650   21.9320 N   0  0  0  0  0  0  0  0  0  0  0  0
    7.5890   -2.6490   23.2350 C   0  0  0  0  0  0  0  0  0  0  0  0
    6.2250   -2.4650   23.6300 C   0  0  0  0  0  0  0  0  0  0  0  0
    4.9990   -2.7770   22.9940 C   0  0  0  0  0  0  0  0  0  0  0  0
    5.0130   -3.4130   21.7110 N   0  0  0  0  0  0  0  0  0  0  0  0
  2  6  2  0
  3  6  1  0
  5  7  1  0
  6  7  1  0
  4  8  2  0
  5  8  1  0
  9  8  1  6
 10 11  2  3
 12 13  2  0
  3 14  1  0
 13 14  1  0
  1 15  1  0
 14 15  2  0
 15 16  1  0
 12 17  1  0
 16 17  2  0
 18 19  2  0
  9 20  1  0
 19 20  1  0
 20 21  2  0
 21 22  1  0
 18 23  1  0
 22 23  2  0
 11 24  1  0
 24 25  2  0
  9 26  1  0
 25 26  1  0
 26 27  2  0
 27 28  1  0
 24 29  1  0
 28 29  2  0
M  END
