x3108-x0354
     RDKit          3D

 36 40  0  0  0  0  0  0  0  0999 V2000
    5.9160    1.7780   22.0980 C   0  0  0  0  0  0  0  0  0  0  0  0
    9.3750    1.4070   21.5180 O   0  0  0  0  0  0  0  0  0  0  0  0
    7.9280   -0.3680   21.1560 N   0  0  0  0  0  0  0  0  0  0  0  0
    7.7790    0.1420   25.7210 N   0  0  0  0  0  0  0  0  0  0  0  0
    9.3660   -0.4910   24.1600 N   0  0  0  0  0  0  0  0  0  0  0  0
    8.9780    0.2570   21.7690 C   0  0  0  0  0  0  0  0  0  0  0  0
    9.6600   -0.6900   22.8360 C   0  0  1  0  0  0  0  0  0  0  0  0
    8.1990   -0.8380   24.7950 C   0  0  0  0  0  0  0  0  0  0  0  0
    7.5020   -2.0610   24.6000 C   0  0  0  0  0  0  0  0  0  0  0  0
    6.6460   -0.1290   26.5180 O   0  0  0  0  0  0  0  0  0  0  0  0
    6.1320    3.3280   31.0060 C   0  0  0  0  0  0  0  0  0  0  0  0
   13.3300   -1.3710   22.3340 C   0  0  0  0  0  0  0  0  0  0  0  0
    6.2740    0.1760   17.8770 N   0  0  0  0  0  0  0  0  0  0  0  0
    7.1750   -0.3440   18.9390 C   0  0  0  0  0  0  0  0  0  0  0  0
    7.0590    0.1610   20.2450 C   0  0  0  0  0  0  0  0  0  0  0  0
    6.0540    1.2260   20.6840 C   0  0  0  0  0  0  0  0  0  0  0  0
    5.2430    1.6590   19.6350 C   0  0  0  0  0  0  0  0  0  0  0  0
    5.3740    1.1140   18.2250 C   0  0  0  0  0  0  0  0  0  0  0  0
    9.7640   -5.1750   24.7690 N   0  0  0  0  0  0  0  0  0  0  0  0
    9.1670   -4.0650   24.3670 C   0  0  0  0  0  0  0  0  0  0  0  0
    8.2100   -3.3750   25.0650 C   0  0  0  0  0  0  0  0  0  0  0  0
    7.8110   -3.9260   26.3680 C   0  0  0  0  0  0  0  0  0  0  0  0
    8.4460   -5.1190   26.8110 C   0  0  0  0  0  0  0  0  0  0  0  0
    9.4160   -5.7580   26.0430 C   0  0  0  0  0  0  0  0  0  0  0  0
    7.3470    1.8200   27.8100 C   0  0  0  0  0  0  0  0  0  0  0  0
    7.2320    2.6760   28.9070 C   0  0  0  0  0  0  0  0  0  0  0  0
    6.2720    2.4820   29.9080 C   0  0  0  0  0  0  0  0  0  0  0  0
    5.4020    1.3690   29.7920 C   0  0  0  0  0  0  0  0  0  0  0  0
    5.5620    0.5390   28.6710 C   0  0  0  0  0  0  0  0  0  0  0  0
    6.5020    0.7070   27.6490 C   0  0  0  0  0  0  0  0  0  0  0  0
   12.0030   -1.6500   22.8290 N   0  0  0  0  0  0  0  0  0  0  0  0
   12.0690   -2.4020   24.0680 C   0  0  0  0  0  0  0  0  0  0  0  0
   10.8580   -2.2630   24.7320 C   0  0  0  0  0  0  0  0  0  0  0  0
   10.5510   -0.8260   24.9880 N   0  0  0  0  0  0  0  0  0  0  0  0
   11.5200   -0.0400   24.4660 C   0  0  0  0  0  0  0  0  0  0  0  0
   11.2450   -0.4070   23.0430 C   0  0  2  0  0  0  0  0  0  0  0  0
  2  6  2  0
  3  6  1  0
  5  7  1  0
  7  6  1  6
  4  8  2  3
  5  8  1  0
  8  9  1  0
  4 10  1  0
 13 14  2  0
  3 15  1  0
 14 15  1  0
  1 16  1  0
 15 16  2  0
 16 17  1  0
 13 18  1  0
 17 18  2  0
 19 20  2  0
  9 21  1  0
 20 21  1  0
 21 22  2  0
 22 23  1  0
 19 24  1  0
 23 24  2  0
 25 26  2  0
 11 27  1  0
 26 27  1  0
 27 28  2  0
 28 29  1  0
 10 30  1  0
 25 30  1  0
 29 30  2  0
 12 31  1  0
 31 32  1  0
 32 33  1  0
  5 34  1  0
 33 34  1  0
 34 35  1  0
  7 36  1  0
 36 31  1  1
 35 36  1  0
M  END
