x3108-x0107
     RDKit          3D

 21 22  0  0  0  0  0  0  0  0999 V2000
    6.0660    1.6400   22.0120 C   0  0  0  0  0  0  0  0  0  0  0  0
    9.2950    1.6620   21.4080 O   0  0  0  0  0  0  0  0  0  0  0  0
    8.1470   -0.3400   21.1960 N   0  0  0  0  0  0  0  0  0  0  0  0
    8.1550    0.0430   24.7820 O   0  0  0  0  0  0  0  0  0  0  0  0
    9.2960   -1.3050   23.3940 N   0  0  0  0  0  0  0  0  0  0  0  0
    9.0910    0.4900   21.7440 C   0  0  0  0  0  0  0  0  0  0  0  0
    9.9490   -0.1880   22.8770 C   0  0  0  0  0  0  0  0  0  0  0  0
    8.2870   -1.0900   24.3310 C   0  0  0  0  0  0  0  0  0  0  0  0
    7.3890   -2.0930   24.7630 C   0  0  0  0  0  0  0  0  0  0  0  0
    6.3010    0.1540   17.9190 N   0  0  0  0  0  0  0  0  0  0  0  0
    7.1530   -0.2370   18.9460 C   0  0  0  0  0  0  0  0  0  0  0  0
    7.1570    0.1850   20.2780 C   0  0  0  0  0  0  0  0  0  0  0  0
    6.1860    1.1080   20.6440 C   0  0  0  0  0  0  0  0  0  0  0  0
    5.2790    1.5610   19.6890 C   0  0  0  0  0  0  0  0  0  0  0  0
    5.3690    1.0380   18.2620 C   0  0  0  0  0  0  0  0  0  0  0  0
    9.7060   -5.1850   24.6380 N   0  0  0  0  0  0  0  0  0  0  0  0
    9.0780   -4.0600   24.2870 C   0  0  0  0  0  0  0  0  0  0  0  0
    8.0880   -3.3630   25.2000 C   0  0  0  0  0  0  0  0  0  0  0  0
    7.8330   -3.9320   26.4500 C   0  0  0  0  0  0  0  0  0  0  0  0
    8.4980   -5.1140   26.8010 C   0  0  0  0  0  0  0  0  0  0  0  0
    9.4240   -5.6920   25.8500 C   0  0  0  0  0  0  0  0  0  0  0  0
  2  6  2  0
  3  6  1  0
  5  7  1  0
  6  7  1  0
  4  8  2  0
  5  8  1  0
  8  9  1  0
 10 11  2  0
  3 12  1  0
 11 12  1  0
  1 13  1  0
 12 13  2  0
 13 14  1  0
 10 15  1  0
 14 15  2  0
 16 17  2  0
  9 18  1  0
 17 18  1  0
 18 19  2  0
 19 20  1  0
 16 21  1  0
 20 21  2  0
M  END
