x3108-x1384
     RDKit          3D

 37 41  0  0  0  0  0  0  0  0999 V2000
    6.1320    1.6300   22.0470 C   0  0  0  0  0  0  0  0  0  0  0  0
    9.3030    1.6650   21.4200 O   0  0  0  0  0  0  0  0  0  0  0  0
    8.0390   -0.2670   21.2360 N   0  0  0  0  0  0  0  0  0  0  0  0
    8.1110    0.2770   24.7340 O   0  0  0  0  0  0  0  0  0  0  0  0
    9.2000   -1.2520   23.5130 N   0  0  0  0  0  0  0  0  0  0  0  0
    9.0460    0.5040   21.7630 C   0  0  0  0  0  0  0  0  0  0  0  0
    9.9070   -0.2220   22.8740 C   0  0  0  0  0  0  0  0  0  0  0  0
    8.3120   -0.9170   24.5430 C   0  0  0  0  0  0  0  0  0  0  0  0
    7.6180   -1.8220   25.4030 C   0  0  1  0  0  0  0  0  0  0  0  0
    5.4790   -2.0930   26.1670 O   0  0  0  0  0  0  0  0  0  0  0  0
    6.2260   -1.7430   25.2250 C   0  0  0  0  0  0  0  0  0  0  0  0
    6.3400    0.1450   17.9760 N   0  0  0  0  0  0  0  0  0  0  0  0
    7.2340   -0.3400   18.8940 C   0  0  0  0  0  0  0  0  0  0  0  0
    7.1270    0.1770   20.1940 C   0  0  0  0  0  0  0  0  0  0  0  0
    6.1910    1.1250   20.6290 C   0  0  0  0  0  0  0  0  0  0  0  0
    5.1840    1.6670   19.6190 C   0  0  0  0  0  0  0  0  0  0  0  0
    5.3220    1.1390   18.3370 C   0  0  0  0  0  0  0  0  0  0  0  0
    9.5810   -4.9480   24.4560 N   0  0  0  0  0  0  0  0  0  0  0  0
    9.0170   -3.7290   24.4070 C   0  0  0  0  0  0  0  0  0  0  0  0
    8.2560   -3.2200   25.4300 C   0  0  0  0  0  0  0  0  0  0  0  0
    8.0090   -3.9340   26.5800 C   0  0  0  0  0  0  0  0  0  0  0  0
    8.5890   -5.2650   26.7080 C   0  0  0  0  0  0  0  0  0  0  0  0
    9.3780   -5.7860   25.6650 C   0  0  0  0  0  0  0  0  0  0  0  0
    3.8880   -3.7490   23.8450 C   0  0  2  0  0  0  0  0  0  0  0  0
    5.2120   -3.5920   23.6490 C   0  0  1  0  0  0  0  0  0  0  0  0
    5.2770   -4.0530   24.8820 C   0  0  2  0  0  0  0  0  0  0  0  0
    5.2930   -5.4720   25.0020 C   0  0  0  0  0  0  0  0  0  0  0  0
    4.3670   -6.0590   24.0960 C   0  0  0  0  0  0  0  0  0  0  0  0
    3.5350   -5.1880   23.4100 C   0  0  0  0  0  0  0  0  0  0  0  0
    4.7760   -3.3390   25.9530 C   0  0  2  0  0  0  0  0  0  0  0  0
    4.1910   -3.4810   24.8210 C   0  0  0  0  0  0  0  0  0  0  0  0
    3.0230   -3.1130   25.0470 C   0  0  0  0  0  0  0  0  0  0  0  0
    6.6910   -3.6630   21.6630 N   0  0  0  0  0  0  0  0  0  0  0  0
    7.6360   -3.1520   19.3970 C   0  0  0  0  0  0  0  0  0  0  0  0
    5.5320   -4.2660   19.8220 O   0  0  0  0  0  0  0  0  0  0  0  0
    6.5340   -3.7410   20.3010 C   0  0  0  0  0  0  0  0  0  0  0  0
    5.8290   -4.4330   22.5740 C   0  0  0  0  0  0  0  0  0  0  0  0
  2  6  2  0
  3  6  1  0
  5  7  1  0
  6  7  1  0
  4  8  2  0
  5  8  1  0
  8  9  1  0
  9 11  1  6
 10 11  1  0
 12 13  2  0
  3 14  1  0
 13 14  1  0
  1 15  1  0
 14 15  2  0
 15 16  1  0
 12 17  1  0
 16 17  2  0
 18 19  2  0
  9 20  1  0
 19 20  1  0
 20 21  2  0
 21 22  1  0
 18 23  1  0
 22 23  2  0
 24 25  1  0
 24 26  1  0
 25 26  1  0
 26 27  1  1
 27 28  1  0
 24 29  1  6
 28 29  2  0
 30 10  1  6
 26 30  1  0
 30 31  1  0
 24 32  1  0
 31 32  2  0
 33 36  1  0
 34 36  1  0
 35 36  2  0
 25 37  1  6
 33 37  1  0
M  END
