x3110-x0786-x3115
     RDKit          3D

 49 52  0  0  0  0  0  0  0  0999 V2000
    7.6690    1.2250   23.2800 N   0  0  0  0  0  0  0  0  0  0  0  0
   13.3840    5.1510   22.8000 C   0  0  0  0  0  0  0  0  0  0  0  0
   11.8770    3.1230   22.5020 O   0  0  0  0  0  0  0  0  0  0  0  0
   12.3120    4.3980   22.0300 C   0  0  0  0  0  0  0  0  0  0  0  0
    6.9740   -1.5890   21.6160 N   0  0  0  0  0  0  0  0  0  0  0  0
   10.9420    4.1010   24.1570 O   0  0  0  0  0  0  0  0  0  0  0  0
   10.9890    3.1930   23.3390 C   0  0  0  0  0  0  0  0  0  0  0  0
    8.6850    0.7380   21.2400 O   0  0  0  0  0  0  0  0  0  0  0  0
    9.9420    2.0510   23.2670 C   0  0  0  0  0  0  0  0  0  0  0  0
    4.8100   -2.9020   20.9150 O   0  0  0  0  0  0  0  0  0  0  0  0
    8.5840    2.3930   23.5000 C   0  0  1  0  0  0  0  0  0  0  0  0
    7.7370    0.4990   21.9890 C   0  0  0  0  0  0  0  0  0  0  0  0
    6.6670   -0.4120   21.6110 C   0  0  1  0  0  0  0  0  0  0  0  0
    6.0580   -2.7700   21.3020 C   0  0  0  0  0  0  0  0  0  0  0  0
    6.5490   -4.1540   21.4880 C   0  0  1  0  0  0  0  0  0  0  0  0
    8.0140   -4.4390   21.1050 C   0  0  0  0  0  0  0  0  0  0  0  0
   12.3210   -1.8380   24.3280 C   0  0  0  0  0  0  0  0  0  0  0  0
   12.5050   -0.6470   25.0070 C   0  0  0  0  0  0  0  0  0  0  0  0
   13.3330   -1.8420   23.1540 C   0  0  0  0  0  0  0  0  0  0  0  0
   12.5820   -3.0230   25.0170 C   0  0  0  0  0  0  0  0  0  0  0  0
    8.4660    4.6900   23.0330 O   0  0  0  0  0  0  0  0  0  0  0  0
    8.2400    3.5730   22.5310 C   0  0  0  0  0  0  0  0  0  0  0  0
    8.0670    5.8180   22.2490 C   0  0  0  0  0  0  0  0  0  0  0  0
    3.8110   -8.0640   24.8780 O   0  0  0  0  0  0  0  0  0  0  0  0
    3.4210   -7.0470   24.3210 C   0  0  0  0  0  0  0  0  0  0  0  0
    6.4010    0.4650   17.7820 N   0  0  0  0  0  0  0  0  0  0  0  0
    5.2100    1.3370   17.7710 C   0  0  0  0  0  0  0  0  0  0  0  0
    4.4320    1.6560   19.0120 C   0  0  0  0  0  0  0  0  0  0  0  0
    4.9420    1.0430   20.2790 C   0  0  0  0  0  0  0  0  0  0  0  0
    6.1720    0.1520   20.3070 C   0  0  0  0  0  0  0  0  0  0  0  0
    6.8250   -0.0680   18.9470 C   0  0  0  0  0  0  0  0  0  0  0  0
    9.5080   -1.3640   21.6670 C   0  0  0  0  0  0  0  0  0  0  0  0
   10.7790   -1.4120   22.2620 C   0  0  0  0  0  0  0  0  0  0  0  0
   10.9170   -1.8320   23.6980 C   0  0  0  0  0  0  0  0  0  0  0  0
    9.6720   -2.2030   24.4410 C   0  0  0  0  0  0  0  0  0  0  0  0
    8.3750   -2.1020   23.6560 C   0  0  0  0  0  0  0  0  0  0  0  0
    8.2890   -1.6930   22.3130 C   0  0  0  0  0  0  0  0  0  0  0  0
    5.8960   -4.5290   22.8250 C   0  0  0  0  0  0  0  0  0  0  0  0
    5.0050   -5.6020   22.9780 C   0  0  0  0  0  0  0  0  0  0  0  0
    4.3700   -5.9200   24.1900 C   0  0  0  0  0  0  0  0  0  0  0  0
    4.6700   -5.1110   25.2760 C   0  0  0  0  0  0  0  0  0  0  0  0
    5.5480   -4.0380   25.1940 C   0  0  0  0  0  0  0  0  0  0  0  0
    6.1480   -3.7570   23.9780 C   0  0  0  0  0  0  0  0  0  0  0  0
    1.5260   -5.5790   23.3830 C   0  0  0  0  0  0  0  0  0  0  0  0
    0.6010   -5.0570   24.2920 C   0  0  0  0  0  0  0  0  0  0  0  0
   -0.8540   -6.1390   24.3520 S   0  0  0  0  0  0  0  0  0  0  0  0
    0.0380   -7.6590   24.8480 C   0  0  0  0  0  0  0  0  0  0  0  0
    1.0850   -7.9650   23.9790 C   0  0  0  0  0  0  0  0  0  0  0  0
    2.0550   -6.8770   23.7810 N   0  0  0  0  0  0  0  0  0  0  0  0
  2  4  1  0
  3  4  1  0
  3  7  1  0
  6  7  2  0
  7  9  1  0
  1 11  1  0
 11  9  1  6
  1 12  1  0
  8 12  2  0
  5 13  1  0
 13 12  1  6
  5 14  1  0
 10 14  2  0
 14 15  1  0
 15 16  1  1
 17 18  1  0
 17 19  1  0
 17 20  1  0
 11 22  1  0
 21 22  1  0
 21 23  1  0
 24 25  2  0
 26 27  2  0
 27 28  1  0
 28 29  2  0
 13 30  1  0
 29 30  1  0
 26 31  1  0
 30 31  2  0
 32 33  2  0
 17 34  1  0
 33 34  1  0
 34 35  2  0
 35 36  1  0
  5 37  1  0
 32 37  1  0
 36 37  2  0
 15 38  1  0
 38 39  2  0
 25 40  1  0
 39 40  1  0
 40 41  2  0
 41 42  1  0
 38 43  1  0
 42 43  2  0
 44 45  1  0
 45 46  1  0
 46 47  1  0
 47 48  1  0
 25 49  1  0
 44 49  1  0
 48 49  1  0
M  END
