x3117-x2754-x3113-x1458
     RDKit          3D

 56 64  0  0  0  0  0  0  0  0999 V2000
    7.2360   -1.6120   21.4460 C   0  0  2  0  0  0  0  0  0  0  0  0
    8.0380   -4.3020   21.0650 C   0  0  0  0  0  0  0  0  0  0  0  0
    4.8980   -2.9950   20.5690 O   0  0  0  0  0  0  0  0  0  0  0  0
    8.3320    1.5810   23.0750 N   0  0  0  0  0  0  0  0  0  0  0  0
    8.6830    1.5220   20.8500 O   0  0  0  0  0  0  0  0  0  0  0  0
    6.1250   -2.8200   21.0430 C   0  0  0  0  0  0  0  0  0  0  0  0
   11.2280    3.7790   23.2230 N   0  0  0  0  0  0  0  0  0  0  0  0
    7.0120   -0.0330   21.3670 C   0  0  1  0  0  0  0  0  0  0  0  0
    8.0440    1.0480   21.7760 C   0  0  0  0  0  0  0  0  0  0  0  0
   10.6380    1.5830   22.9660 C   0  0  0  0  0  0  0  0  0  0  0  0
   11.7990    2.5330   22.9460 C   0  0  0  0  0  0  0  0  0  0  0  0
   12.1610    4.8380   23.6090 C   0  0  0  0  0  0  0  0  0  0  0  0
   12.5370   -2.0440   24.2730 C   0  0  0  0  0  0  0  0  0  0  0  0
   13.5170   -2.2270   23.1020 C   0  0  0  0  0  0  0  0  0  0  0  0
   12.8820   -3.1290   25.3060 C   0  0  0  0  0  0  0  0  0  0  0  0
   12.7840   -0.6740   24.8850 C   0  0  0  0  0  0  0  0  0  0  0  0
    5.0290   -3.9560   25.3260 C   0  0  0  0  0  0  0  0  0  0  0  0
    5.9030   -6.0400   27.7930 C   0  0  0  0  0  0  0  0  0  0  0  0
    6.2300   -4.4440   25.4480 C   0  0  0  0  0  0  0  0  0  0  0  0
    6.7270   -1.8770   22.7970 C   0  0  0  0  0  0  0  0  0  0  0  0
    4.1410   -3.2230   26.2340 C   0  0  0  0  0  0  0  0  0  0  0  0
    3.2640   -3.6080   25.4760 O   0  0  0  0  0  0  0  0  0  0  0  0
    5.3620   -3.0010   26.8080 N   0  0  0  0  0  0  0  0  0  0  0  0
    5.4780   -2.2480   27.9240 C   0  0  0  0  0  0  0  0  0  0  0  0
    6.2870    0.4490   17.7740 N   0  0  0  0  0  0  0  0  0  0  0  0
    5.2270    1.3180   17.8580 C   0  0  0  0  0  0  0  0  0  0  0  0
    4.7000    1.7720   19.0440 C   0  0  0  0  0  0  0  0  0  0  0  0
    5.2800    1.3280   20.2070 C   0  0  0  0  0  0  0  0  0  0  0  0
    6.3540    0.4530   20.1160 C   0  0  0  0  0  0  0  0  0  0  0  0
    6.9020   -0.0290   18.9060 C   0  0  0  0  0  0  0  0  0  0  0  0
    9.7990   -1.2490   21.6400 C   0  0  0  0  0  0  0  0  0  0  0  0
   11.1270   -1.3720   22.3800 C   0  0  0  0  0  0  0  0  0  0  0  0
   11.1870   -2.0190   23.5930 C   0  0  0  0  0  0  0  0  0  0  0  0
    9.9030   -2.6010   24.1090 C   0  0  0  0  0  0  0  0  0  0  0  0
    8.7250   -2.4580   23.3900 C   0  0  0  0  0  0  0  0  0  0  0  0
    8.6290   -1.7890   22.1650 C   0  0  0  0  0  0  0  0  0  0  0  0
    9.3770    4.4730   24.5810 O   0  0  0  0  0  0  0  0  0  0  0  0
   10.1020    3.3360   24.1080 C   0  0  1  0  0  0  0  0  0  0  0  0
    9.4370    2.5430   23.1230 C   0  0  2  0  0  0  0  0  0  0  0  0
    9.1410    3.4160   22.1160 C   0  0  0  0  0  0  0  0  0  0  0  0
    8.2930    4.4630   22.5090 C   0  0  0  0  0  0  0  0  0  0  0  0
    8.7890    5.2780   23.5480 C   0  0  0  0  0  0  0  0  0  0  0  0
    6.7510   -4.1060   21.5210 C   0  0  2  0  0  0  0  0  0  0  0  0
    6.5530   -3.3570   22.8160 C   0  0  1  0  0  0  0  0  0  0  0  0
    7.3420   -3.9990   23.6950 C   0  0  0  0  0  0  0  0  0  0  0  0
    6.6930   -5.0520   24.1950 C   0  0  2  0  0  0  0  0  0  0  0  0
    5.6670   -5.3610   23.4200 C   0  0  2  0  0  0  0  0  0  0  0  0
    5.9070   -5.3610   21.9830 C   0  0  0  0  0  0  0  0  0  0  0  0
    5.0100   -3.2590   23.1290 C   0  0  0  0  0  0  0  0  0  0  0  0
    4.6720   -4.2600   23.9110 C   0  0  2  0  0  0  0  0  0  0  0  0
    7.1780   -5.3420   27.4600 C   0  0  0  0  0  0  0  0  0  0  0  0
    8.2240   -5.5340   28.3070 C   0  0  0  0  0  0  0  0  0  0  0  0
    9.5520   -4.8450   27.9630 C   0  0  0  0  0  0  0  0  0  0  0  0
    9.6590   -3.9760   26.7250 C   0  0  0  0  0  0  0  0  0  0  0  0
    8.4250   -3.8680   25.9290 C   0  0  0  0  0  0  0  0  0  0  0  0
    7.2740   -4.5760   26.3510 C   0  0  0  0  0  0  0  0  0  0  0  0
  1  6  1  0
  3  6  2  0
  1  8  1  0
  4  9  1  0
  5  9  2  0
  8  9  1  6
  7 11  1  0
 10 11  1  0
  7 12  1  0
 13 14  1  0
 13 15  1  0
 13 16  1  0
 17 19  2  0
  1 20  1  0
 17 21  1  0
 21 22  2  0
 21 23  1  0
 23 24  1  0
 25 26  2  0
 26 27  1  0
 27 28  2  0
  8 29  1  0
 28 29  1  0
 25 30  1  0
 29 30  2  0
 31 32  2  0
 13 33  1  0
 32 33  1  0
 33 34  2  0
 34 35  1  0
  1 36  1  1
 31 36  1  0
 35 36  2  0
  7 38  1  0
 38 37  1  6
 39  4  1  1
 10 39  1  0
 38 39  1  0
 39 40  1  0
 40 41  1  0
 37 42  1  0
 41 42  1  0
 43  2  1  6
  6 43  1  0
 44 20  1  6
 43 44  1  0
 44 45  1  0
 46 19  1  1
 45 46  1  0
 46 47  1  0
 43 48  1  0
 47 48  1  6
 44 49  1  0
 50 17  1  1
 47 50  1  0
 49 50  1  0
 18 51  1  0
 51 52  2  0
 52 53  1  0
 53 54  2  0
 54 55  1  0
 19 56  1  0
 51 56  1  0
 55 56  2  0
M  END
