x3115-x2540
     RDKit          3D

 32 35  0  0  0  0  0  0  0  0999 V2000
    6.8960   -1.6790   21.6010 N   0  0  0  0  0  0  0  0  0  0  0  0
    7.9910   -3.6260   20.2510 C   0  0  0  0  0  0  0  0  0  0  0  0
    4.7410   -3.0380   21.4640 O   0  0  0  0  0  0  0  0  0  0  0  0
    6.5290   -3.8650   20.3140 C   0  0  0  0  0  0  0  0  0  0  0  0
    7.8380    1.3630   23.0780 N   0  0  0  0  0  0  0  0  0  0  0  0
    8.5900    1.1950   20.9420 O   0  0  0  0  0  0  0  0  0  0  0  0
    5.9850   -2.8050   21.1900 C   0  0  0  0  0  0  0  0  0  0  0  0
    8.5930    5.0470   23.0460 O   0  0  0  0  0  0  0  0  0  0  0  0
    6.6510   -0.1600   21.4530 C   0  0  1  0  0  0  0  0  0  0  0  0
    7.7870    0.8370   21.8040 C   0  0  0  0  0  0  0  0  0  0  0  0
    8.5470    2.5980   23.2670 C   0  0  0  0  0  0  0  0  0  0  0  0
    7.9640    3.8640   22.5470 C   0  0  0  0  0  0  0  0  0  0  0  0
    8.3000    6.1700   22.3230 C   0  0  0  0  0  0  0  0  0  0  0  0
   13.1590   -1.5620   23.9280 C   0  0  1  0  0  0  0  0  0  0  0  0
   12.5470   -2.6260   24.0220 C   0  0  0  0  0  0  0  0  0  0  0  0
   13.5750   -2.6200   25.0010 C   0  0  0  0  0  0  0  0  0  0  0  0
   12.4090   -0.4450   24.6850 C   0  0  0  0  0  0  0  0  0  0  0  0
    8.6350    2.9360   24.7680 C   0  0  0  0  0  0  0  0  0  0  0  0
   10.0240    2.3790   22.8460 C   0  0  0  0  0  0  0  0  0  0  0  0
   11.6060   -1.4540   23.9130 C   0  0  1  0  0  0  0  0  0  0  0  0
    6.2720    0.4650   17.7320 N   0  0  0  0  0  0  0  0  0  0  0  0
    5.1600    1.2020   17.7980 C   0  0  0  0  0  0  0  0  0  0  0  0
    4.4340    1.5470   18.9050 C   0  0  0  0  0  0  0  0  0  0  0  0
    4.9310    1.0750   20.1110 C   0  0  0  0  0  0  0  0  0  0  0  0
    6.1040    0.3010   20.1400 C   0  0  0  0  0  0  0  0  0  0  0  0
    6.7060    0.0350   18.9250 C   0  0  0  0  0  0  0  0  0  0  0  0
    9.3550   -1.2960   22.1570 C   0  0  0  0  0  0  0  0  0  0  0  0
   10.6130   -1.2800   22.9140 C   0  0  0  0  0  0  0  0  0  0  0  0
   10.1900   -1.9900   24.0750 C   0  0  0  0  0  0  0  0  0  0  0  0
    8.9840   -2.5460   24.4450 C   0  0  0  0  0  0  0  0  0  0  0  0
    7.9040   -2.4680   23.6570 C   0  0  0  0  0  0  0  0  0  0  0  0
    8.0620   -1.8290   22.4820 C   0  0  0  0  0  0  0  0  0  0  0  0
  2  4  1  0
  1  7  1  0
  3  7  2  0
  4  7  1  0
  1  9  1  0
  5 10  1  0
  6 10  2  0
  9 10  1  6
 11  5  1  0
  8 12  1  0
 11 12  1  0
  8 13  1  0
 14 15  1  0
 14 16  1  6
 14 17  1  0
 11 18  1  0
 11 19  1  0
 14 20  1  0
 15 20  1  0
 17 20  1  0
 21 22  2  0
 22 23  1  0
 23 24  2  0
  9 25  1  0
 24 25  1  0
 21 26  1  0
 25 26  2  0
 20 28  1  6
 27 28  2  0
 28 29  1  0
 29 30  2  0
 30 31  1  0
  1 32  1  0
 27 32  1  0
 31 32  2  0
M  END
