x3110-x2569
     RDKit          3D

 35 36  0  0  0  0  0  0  0  0999 V2000
    7.9930    1.1040   23.2450 N   0  0  0  0  0  0  0  0  0  0  0  0
   13.3470    5.1000   22.7250 C   0  0  0  0  0  0  0  0  0  0  0  0
   11.8770    3.2340   22.5470 O   0  0  0  0  0  0  0  0  0  0  0  0
   12.2200    4.3300   22.0960 C   0  0  0  0  0  0  0  0  0  0  0  0
    7.0070   -1.7690   21.7400 N   0  0  0  0  0  0  0  0  0  0  0  0
   10.7940    4.2350   24.1300 O   0  0  0  0  0  0  0  0  0  0  0  0
   11.0090    3.2670   23.4200 C   0  0  0  0  0  0  0  0  0  0  0  0
    8.5150    0.9380   21.0320 O   0  0  0  0  0  0  0  0  0  0  0  0
   10.3040    2.0390   23.4790 C   0  0  0  0  0  0  0  0  0  0  0  0
    4.9030   -3.0840   21.1290 O   0  0  0  0  0  0  0  0  0  0  0  0
    8.8980    2.1950   23.4650 C   0  0  0  0  0  0  0  0  0  0  0  0
    7.7490    0.5730   21.9170 C   0  0  0  0  0  0  0  0  0  0  0  0
    6.6500   -0.2930   21.6050 C   0  0  1  0  0  0  0  0  0  0  0  0
    6.1700   -2.9750   21.4650 C   0  0  0  0  0  0  0  0  0  0  0  0
    6.8650   -4.3180   21.6080 C   0  0  0  0  0  0  0  0  0  0  0  0
    8.2730   -4.4110   20.9670 C   0  0  0  0  0  0  0  0  0  0  0  0
   12.1320   -1.9840   24.5140 C   0  0  0  0  0  0  0  0  0  0  0  0
   12.3760   -0.6560   25.2140 C   0  0  0  0  0  0  0  0  0  0  0  0
   13.2100   -1.9880   23.5150 C   0  0  0  0  0  0  0  0  0  0  0  0
   12.5030   -3.1670   25.4050 C   0  0  0  0  0  0  0  0  0  0  0  0
    6.3820    0.4240   17.8980 N   0  0  0  0  0  0  0  0  0  0  0  0
    5.2330    1.2810   17.7950 C   0  0  0  0  0  0  0  0  0  0  0  0
    4.5870    1.5540   19.0040 C   0  0  0  0  0  0  0  0  0  0  0  0
    5.0110    1.0540   20.2400 C   0  0  0  0  0  0  0  0  0  0  0  0
    6.1330    0.2420   20.2860 C   0  0  0  0  0  0  0  0  0  0  0  0
    6.7570   -0.0330   19.1030 C   0  0  0  0  0  0  0  0  0  0  0  0
    9.4550   -1.6440   21.7880 C   0  0  0  0  0  0  0  0  0  0  0  0
   10.7200   -1.6950   22.4210 C   0  0  0  0  0  0  0  0  0  0  0  0
   10.7650   -1.9740   23.8020 C   0  0  0  0  0  0  0  0  0  0  0  0
    9.5760   -2.2070   24.4800 C   0  0  0  0  0  0  0  0  0  0  0  0
    8.3380   -2.1610   23.8320 C   0  0  0  0  0  0  0  0  0  0  0  0
    8.2600   -1.8720   22.4740 C   0  0  0  0  0  0  0  0  0  0  0  0
   13.8620   -1.4420   20.4180 N   0  0  0  0  0  0  0  0  0  0  0  0
   13.5290   -1.1220   21.4170 C   0  0  0  0  0  0  0  0  0  0  0  0
   13.1640   -0.7040   22.7730 C   0  0  0  0  0  0  0  0  0  0  0  0
  2  4  1  0
  3  4  1  0
  3  7  1  0
  6  7  2  0
  7  9  1  0
  1 11  1  0
  9 11  1  0
  1 12  1  0
  8 12  2  0
  5 13  1  0
 13 12  1  6
  5 14  1  0
 10 14  2  0
 14 15  1  0
 15 16  1  0
 17 18  1  0
 17 19  1  0
 17 20  1  0
 21 22  2  0
 22 23  1  0
 23 24  2  0
 13 25  1  0
 24 25  1  0
 21 26  1  0
 25 26  2  0
 27 28  2  0
 17 29  1  0
 28 29  1  0
 29 30  2  0
 30 31  1  0
  5 32  1  0
 27 32  1  0
 31 32  2  0
 33 34  3  0
 19 35  1  0
 34 35  1  0
M  END
