x3110-x1458-x3117
     RDKit          3D

 49 54  0  0  0  0  0  0  0  0999 V2000
    8.1290    1.5770   23.1940 N   0  0  0  0  0  0  0  0  0  0  0  0
   13.1580    5.1200   23.1500 C   0  0  0  0  0  0  0  0  0  0  0  0
   12.0620    2.9190   23.1050 O   0  0  0  0  0  0  0  0  0  0  0  0
   12.7770    3.8980   22.3320 C   0  0  0  0  0  0  0  0  0  0  0  0
    7.1030   -1.5770   21.6170 C   0  0  1  0  0  0  0  0  0  0  0  0
   10.8860    3.3500   23.6340 C   0  0  0  0  0  0  0  0  0  0  0  0
    8.5720    1.3610   20.8400 O   0  0  0  0  0  0  0  0  0  0  0  0
   10.1960    2.4230   22.5470 C   0  0  0  0  0  0  0  0  0  0  0  0
    5.0120   -3.1450   20.6940 O   0  0  0  0  0  0  0  0  0  0  0  0
    7.7850    0.9130   21.9330 C   0  0  0  0  0  0  0  0  0  0  0  0
    6.7170   -0.0570   21.5870 C   0  0  1  0  0  0  0  0  0  0  0  0
    6.2360   -2.9200   21.1750 C   0  0  0  0  0  0  0  0  0  0  0  0
    8.2470   -4.5900   21.0790 C   0  0  0  0  0  0  0  0  0  0  0  0
   12.2070   -1.7680   24.4700 C   0  0  0  0  0  0  0  0  0  0  0  0
   13.1650   -1.0870   23.5310 C   0  0  0  0  0  0  0  0  0  0  0  0
   12.8560   -0.5270   24.7840 C   0  0  0  0  0  0  0  0  0  0  0  0
   12.8970   -3.0300   24.9760 C   0  0  0  0  0  0  0  0  0  0  0  0
    6.2950   -3.6440   26.7090 N   0  0  0  0  0  0  0  0  0  0  0  0
    6.9980   -4.8990   28.7850 C   0  0  0  0  0  0  0  0  0  0  0  0
    4.0240   -3.5850   25.8210 O   0  0  0  0  0  0  0  0  0  0  0  0
    6.1640   -4.7460   27.6920 C   0  0  0  0  0  0  0  0  0  0  0  0
    5.9910   -5.8920   26.9070 C   0  0  0  0  0  0  0  0  0  0  0  0
    6.4880   -2.3230   27.1950 C   0  0  0  0  0  0  0  0  0  0  0  0
    5.3490   -3.7430   25.5980 C   0  0  0  0  0  0  0  0  0  0  0  0
    6.6190   -2.1080   22.8450 C   0  0  0  0  0  0  0  0  0  0  0  0
    6.3720    0.4780   17.8240 N   0  0  0  0  0  0  0  0  0  0  0  0
    5.2390    1.4090   17.7480 C   0  0  0  0  0  0  0  0  0  0  0  0
    4.6200    1.8150   18.9440 C   0  0  0  0  0  0  0  0  0  0  0  0
    5.1360    1.3060   20.1490 C   0  0  0  0  0  0  0  0  0  0  0  0
    6.2020    0.4390   20.2470 C   0  0  0  0  0  0  0  0  0  0  0  0
    6.7900    0.0430   19.0880 C   0  0  0  0  0  0  0  0  0  0  0  0
    9.6380   -2.0920   21.7660 C   0  0  0  0  0  0  0  0  0  0  0  0
   10.8470   -2.1460   22.4250 C   0  0  0  0  0  0  0  0  0  0  0  0
   10.9190   -1.7510   23.7300 C   0  0  0  0  0  0  0  0  0  0  0  0
    9.7810   -1.3160   24.3370 C   0  0  0  0  0  0  0  0  0  0  0  0
    8.5690   -1.2510   23.6960 C   0  0  0  0  0  0  0  0  0  0  0  0
    8.4670   -1.6490   22.3430 C   0  0  0  0  0  0  0  0  0  0  0  0
    8.8250    4.3460   24.7790 O   0  0  0  0  0  0  0  0  0  0  0  0
    9.5450    3.5950   23.9550 C   0  0  0  0  0  0  0  0  0  0  0  0
    8.9230    2.8030   23.0590 C   0  0  2  0  0  0  0  0  0  0  0  0
    8.0810    3.5600   22.2750 C   0  0  0  0  0  0  0  0  0  0  0  0
    7.8100    4.8900   22.6830 C   0  0  0  0  0  0  0  0  0  0  0  0
    8.3010    5.3540   23.9060 C   0  0  0  0  0  0  0  0  0  0  0  0
    7.0900   -4.1070   21.6380 C   0  0  1  0  0  0  0  0  0  0  0  0
    7.5510   -3.3240   22.8740 C   0  0  2  0  0  0  0  0  0  0  0  0
    7.2900   -4.0280   24.1190 C   0  0  0  0  0  0  0  0  0  0  0  0
    5.8290   -3.9470   24.1640 C   0  0  1  0  0  0  0  0  0  0  0  0
    5.4230   -5.2210   23.4440 C   0  0  0  0  0  0  0  0  0  0  0  0
    6.1160   -5.3380   22.0670 C   0  0  0  0  0  0  0  0  0  0  0  0
  2  4  1  0
  3  4  1  0
  3  6  1  0
  6  8  1  0
  1 10  1  0
  7 10  2  0
  5 11  1  0
 11 10  1  6
  5 12  1  0
  9 12  2  0
 14 15  1  0
 14 16  1  0
 14 17  1  0
 18 21  1  0
 19 21  1  0
 21 22  1  0
 18 23  1  0
 18 24  1  0
 20 24  2  0
  5 25  1  0
 26 27  2  0
 27 28  1  0
 28 29  2  0
 11 30  1  0
 29 30  1  0
 26 31  1  0
 30 31  2  0
 32 33  2  0
 14 34  1  0
 33 34  1  0
 34 35  2  0
 35 36  1  0
  5 37  1  1
 32 37  1  0
 36 37  2  0
  6 39  2  0
 38 39  1  0
 40  1  1  1
  8 40  1  0
 39 40  1  0
 40 41  1  0
 41 42  1  0
 38 43  1  0
 42 43  1  0
 12 44  1  0
 44 13  1  6
 45 25  1  1
 44 45  1  0
 45 46  1  0
 47 24  1  1
 46 47  1  0
 47 48  1  0
 44 49  1  0
 48 49  1  0
M  END
