x3110-x0967
     RDKit          3D

 35 36  0  0  0  0  0  0  0  0999 V2000
    7.9820    1.0880   23.2010 N   0  0  0  0  0  0  0  0  0  0  0  0
   13.4290    5.2000   22.6320 C   0  0  0  0  0  0  0  0  0  0  0  0
   11.9180    3.3780   22.7570 O   0  0  0  0  0  0  0  0  0  0  0  0
   12.2480    4.4040   22.1670 C   0  0  0  0  0  0  0  0  0  0  0  0
    7.3100   -1.8020   21.5530 N   0  0  0  0  0  0  0  0  0  0  0  0
   10.5720    4.2480   24.2130 O   0  0  0  0  0  0  0  0  0  0  0  0
   10.8370    3.4470   23.3370 C   0  0  0  0  0  0  0  0  0  0  0  0
    8.4980    1.1970   20.9600 O   0  0  0  0  0  0  0  0  0  0  0  0
    9.9670    2.4700   22.8120 C   0  0  0  0  0  0  0  0  0  0  0  0
    5.0180   -3.1900   21.0730 O   0  0  0  0  0  0  0  0  0  0  0  0
    8.7440    2.2550   23.4920 C   0  0  1  0  0  0  0  0  0  0  0  0
    7.8000    0.6450   21.8310 C   0  0  0  0  0  0  0  0  0  0  0  0
    6.8120   -0.3460   21.5030 C   0  0  1  0  0  0  0  0  0  0  0  0
    6.3540   -3.0260   21.4120 C   0  0  0  0  0  0  0  0  0  0  0  0
    7.0180   -4.3390   21.7170 C   0  0  0  0  0  0  0  0  0  0  0  0
    8.3470   -4.5210   20.9650 C   0  0  0  0  0  0  0  0  0  0  0  0
   11.7090   -1.8470   23.3390 C   0  0  0  0  0  0  0  0  0  0  0  0
   11.9890   -0.5720   24.1970 C   0  0  0  0  0  0  0  0  0  0  0  0
   12.9660   -1.9210   22.4470 C   0  0  0  0  0  0  0  0  0  0  0  0
   11.7870   -2.9900   24.3820 C   0  0  0  0  0  0  0  0  0  0  0  0
    8.1130    4.4840   22.4520 C   0  0  0  0  0  0  0  0  0  0  0  0
    6.5950    3.3580   23.7420 O   0  0  0  0  0  0  0  0  0  0  0  0
    7.7290    3.3980   23.2470 C   0  0  0  0  0  0  0  0  0  0  0  0
    6.3950    0.4090   17.8150 N   0  0  0  0  0  0  0  0  0  0  0  0
    5.2950    1.1820   17.8540 C   0  0  0  0  0  0  0  0  0  0  0  0
    4.6070    1.5060   19.0150 C   0  0  0  0  0  0  0  0  0  0  0  0
    5.0550    1.0260   20.2400 C   0  0  0  0  0  0  0  0  0  0  0  0
    6.2020    0.2260   20.2280 C   0  0  0  0  0  0  0  0  0  0  0  0
    6.8270   -0.0540   19.0000 C   0  0  0  0  0  0  0  0  0  0  0  0
    8.8140   -1.8640   21.9520 C   0  0  0  0  0  0  0  0  0  0  0  0
   10.2970   -1.8830   22.5390 C   0  0  0  0  0  0  0  0  0  0  0  0
   10.3060   -1.5880   23.9160 C   0  0  0  0  0  0  0  0  0  0  0  0
    9.3630   -1.3060   24.8190 C   0  0  0  0  0  0  0  0  0  0  0  0
    8.1280   -1.2830   24.4120 C   0  0  0  0  0  0  0  0  0  0  0  0
    7.8980   -1.5650   22.9790 C   0  0  0  0  0  0  0  0  0  0  0  0
  2  4  1  0
  3  4  1  0
  3  7  1  0
  6  7  2  0
  7  9  1  0
  1 11  1  0
 11  9  1  6
  1 12  1  0
  8 12  2  0
  5 13  1  0
 13 12  1  6
  5 14  1  0
 10 14  2  0
 14 15  1  0
 15 16  1  0
 17 18  1  0
 17 19  1  0
 17 20  1  0
 11 23  1  0
 21 23  1  0
 22 23  2  0
 24 25  2  0
 25 26  1  0
 26 27  2  0
 13 28  1  0
 27 28  1  0
 24 29  1  0
 28 29  2  0
  5 30  1  0
 17 31  1  0
 30 31  2  0
 31 32  1  0
 32 33  2  0
 33 34  1  0
 30 35  1  0
 34 35  2  0
M  END
