x3110-x0978
     RDKit          3D

 43 44  0  0  0  0  0  0  0  0999 V2000
    8.0510    1.0050   23.1900 N   0  0  0  0  0  0  0  0  0  0  0  0
   13.3470    5.0990   22.7380 C   0  0  0  0  0  0  0  0  0  0  0  0
   11.9000    3.2130   22.5770 O   0  0  0  0  0  0  0  0  0  0  0  0
   12.2340    4.3070   22.1120 C   0  0  0  0  0  0  0  0  0  0  0  0
    7.0410   -1.7630   21.5190 N   0  0  0  0  0  0  0  0  0  0  0  0
   10.7420    4.2160   24.1120 O   0  0  0  0  0  0  0  0  0  0  0  0
   11.0010    3.2450   23.4230 C   0  0  0  0  0  0  0  0  0  0  0  0
    8.4410    1.2050   20.9490 O   0  0  0  0  0  0  0  0  0  0  0  0
   10.3270    1.9990   23.4770 C   0  0  0  0  0  0  0  0  0  0  0  0
    4.9040   -3.0340   20.9190 O   0  0  0  0  0  0  0  0  0  0  0  0
    8.9150    2.1100   23.4900 C   0  0  0  0  0  0  0  0  0  0  0  0
    7.7510    0.6370   21.8190 C   0  0  0  0  0  0  0  0  0  0  0  0
    6.6810   -0.2710   21.4590 C   0  0  1  0  0  0  0  0  0  0  0  0
    6.1130   -2.9440   21.3810 C   0  0  0  0  0  0  0  0  0  0  0  0
    6.6270   -4.2840   21.8830 C   0  0  2  0  0  0  0  0  0  0  0  0
    7.9990   -4.7950   21.2700 C   0  0  0  0  0  0  0  0  0  0  0  0
   12.4150   -1.8650   24.1350 C   0  0  0  0  0  0  0  0  0  0  0  0
   12.5640   -0.5970   24.9600 C   0  0  0  0  0  0  0  0  0  0  0  0
   13.3880   -1.7890   22.9760 C   0  0  0  0  0  0  0  0  0  0  0  0
   12.8240   -3.0300   25.0300 C   0  0  0  0  0  0  0  0  0  0  0  0
    2.2660   -5.6060   22.9580 N   0  0  0  0  0  0  0  0  0  0  0  0
    2.3610   -7.9540   24.5650 C   0  0  0  0  0  0  0  0  0  0  0  0
    4.5460   -7.5850   24.4720 O   0  0  0  0  0  0  0  0  0  0  0  0
    3.4400   -7.0820   24.3660 C   0  0  1  0  0  0  0  0  0  0  0  0
    5.4930   -5.3150   21.9730 N   0  0  0  0  0  0  0  0  0  0  0  0
    1.0480   -7.3190   22.0500 O   0  0  0  0  0  0  0  0  0  0  0  0
    3.4120   -6.3170   23.1750 C   0  0  2  0  0  0  0  0  0  0  0  0
    4.6420   -4.3480   23.8540 O   0  0  0  0  0  0  0  0  0  0  0  0
    1.0970   -6.2240   22.5960 C   0  0  0  0  0  0  0  0  0  0  0  0
   -0.0680   -5.5200   22.8810 C   0  0  0  0  0  0  0  0  0  0  0  0
    4.5600   -5.2580   23.0370 C   0  0  0  0  0  0  0  0  0  0  0  0
    6.3460    0.4800   17.7820 N   0  0  0  0  0  0  0  0  0  0  0  0
    5.2410    1.2430   17.7840 C   0  0  0  0  0  0  0  0  0  0  0  0
    4.5230    1.5480   18.9340 C   0  0  0  0  0  0  0  0  0  0  0  0
    4.9700    1.0540   20.1490 C   0  0  0  0  0  0  0  0  0  0  0  0
    6.1140    0.2740   20.1730 C   0  0  0  0  0  0  0  0  0  0  0  0
    6.7630    0.0090   18.9780 C   0  0  0  0  0  0  0  0  0  0  0  0
    9.4340   -1.2470   21.7030 C   0  0  0  0  0  0  0  0  0  0  0  0
   10.7910   -1.2810   22.3790 C   0  0  0  0  0  0  0  0  0  0  0  0
   11.0120   -1.9550   23.5580 C   0  0  0  0  0  0  0  0  0  0  0  0
    9.8650   -2.7270   24.2200 C   0  0  0  0  0  0  0  0  0  0  0  0
    8.4750   -2.7030   23.5600 C   0  0  0  0  0  0  0  0  0  0  0  0
    8.3050   -1.9090   22.2500 C   0  0  0  0  0  0  0  0  0  0  0  0
  2  4  1  0
  3  4  1  0
  3  7  1  0
  6  7  2  0
  7  9  1  0
  1 11  1  0
  9 11  1  0
  1 12  1  0
  8 12  2  0
  5 13  1  0
 13 12  1  6
  5 14  1  0
 10 14  2  0
 14 15  1  0
 15 16  1  6
 17 18  1  0
 17 19  1  0
 17 20  1  0
 24 22  1  6
 23 24  1  0
 15 25  1  0
 27 21  1  1
 24 27  1  0
 21 29  1  0
 26 29  2  0
 29 30  1  0
 25 31  1  0
 27 31  1  0
 28 31  2  0
 32 33  2  0
 33 34  1  0
 34 35  2  0
 13 36  1  0
 35 36  1  0
 32 37  1  0
 36 37  2  0
 38 39  2  0
 17 40  1  0
 39 40  1  0
 40 41  2  0
 41 42  1  0
  5 43  1  0
 38 43  1  0
 42 43  2  0
M  END
