x3113-x1077
     RDKit          3D

 38 40  0  0  0  0  0  0  0  0999 V2000
    7.0940   -1.6300   21.7960 N   0  0  0  0  0  0  0  0  0  0  0  0
    7.2370   -5.0120   20.7680 C   0  0  0  0  0  0  0  0  0  0  0  0
    4.9610   -3.1530   21.1840 O   0  0  0  0  0  0  0  0  0  0  0  0
    7.1310   -4.0350   21.9220 C   0  0  0  0  0  0  0  0  0  0  0  0
    8.0780    1.2060   23.1690 N   0  0  0  0  0  0  0  0  0  0  0  0
    8.5190    1.2010   20.9570 O   0  0  0  0  0  0  0  0  0  0  0  0
    6.2530   -2.8690   21.5820 C   0  0  0  0  0  0  0  0  0  0  0  0
   11.6070    3.7070   22.4590 O   0  0  0  0  0  0  0  0  0  0  0  0
    6.7290   -0.1470   21.6220 C   0  0  1  0  0  0  0  0  0  0  0  0
    7.8210    0.7680   21.8800 C   0  0  0  0  0  0  0  0  0  0  0  0
    9.0800    2.2760   23.4020 C   0  0  0  0  0  0  0  0  0  0  0  0
   10.3840    1.8190   23.1630 C   0  0  0  0  0  0  0  0  0  0  0  0
   11.3910    2.7430   23.4810 C   0  0  0  0  0  0  0  0  0  0  0  0
   12.8490    4.3950   22.6410 C   0  0  0  0  0  0  0  0  0  0  0  0
   12.4090   -1.9370   24.1890 C   0  0  0  0  0  0  0  0  0  0  0  0
   13.3780   -1.9670   23.1890 C   0  0  0  0  0  0  0  0  0  0  0  0
   12.7200   -3.1020   25.1400 C   0  0  0  0  0  0  0  0  0  0  0  0
   12.5950   -0.6340   24.9640 C   0  0  0  0  0  0  0  0  0  0  0  0
    6.4050    0.2930   17.8790 N   0  0  0  0  0  0  0  0  0  0  0  0
    5.2500    1.1720   17.8400 C   0  0  0  0  0  0  0  0  0  0  0  0
    4.5870    1.5940   18.9770 C   0  0  0  0  0  0  0  0  0  0  0  0
    5.0570    1.1620   20.2020 C   0  0  0  0  0  0  0  0  0  0  0  0
    6.2730    0.2460   20.2770 C   0  0  0  0  0  0  0  0  0  0  0  0
    6.8480   -0.1180   19.0730 C   0  0  0  0  0  0  0  0  0  0  0  0
    9.5810   -1.4050   21.7500 C   0  0  0  0  0  0  0  0  0  0  0  0
   10.8060   -1.4720   22.2890 C   0  0  0  0  0  0  0  0  0  0  0  0
   11.0450   -1.8870   23.5240 C   0  0  0  0  0  0  0  0  0  0  0  0
    9.7430   -2.3080   24.2560 C   0  0  0  0  0  0  0  0  0  0  0  0
    8.3370   -2.3290   23.8720 C   0  0  0  0  0  0  0  0  0  0  0  0
    8.3420   -1.8190   22.5230 C   0  0  0  0  0  0  0  0  0  0  0  0
    6.9920   -5.7580   25.6030 O   0  0  0  0  0  0  0  0  0  0  0  0
    7.2810   -5.2500   24.3070 C   0  0  0  0  0  0  0  0  0  0  0  0
    8.6380   -5.6550   23.7300 C   0  0  0  0  0  0  0  0  0  0  0  0
    9.7630   -4.9030   24.4280 C   0  0  0  0  0  0  0  0  0  0  0  0
    9.3650   -4.0310   25.5320 N   0  0  0  0  0  0  0  0  0  0  0  0
    8.9650   -4.7450   26.7350 C   0  0  0  0  0  0  0  0  0  0  0  0
    7.4690   -5.0330   26.7180 C   0  0  0  0  0  0  0  0  0  0  0  0
    8.5390   -2.8410   25.2800 C   0  0  0  0  0  0  0  0  0  0  0  0
  2  4  1  0
  1  7  1  0
  3  7  2  0
  4  7  1  0
  1  9  1  0
  5 10  1  0
  6 10  2  0
  9 10  1  6
  5 11  1  0
 11 12  1  0
  8 13  1  0
 12 13  1  0
  8 14  1  0
 15 16  1  0
 15 17  1  0
 15 18  1  0
 19 20  2  0
 20 21  1  0
 21 22  2  0
  9 23  1  0
 22 23  1  0
 19 24  1  0
 23 24  2  0
 25 26  2  0
 15 27  1  0
 26 27  1  0
 27 28  2  0
 28 29  1  0
  1 30  1  0
 25 30  1  0
 29 30  2  0
 31 32  1  0
 32 33  1  0
 33 34  1  0
 34 35  1  0
 35 36  1  0
 31 37  1  0
 36 37  1  0
 29 38  1  0
 35 38  1  0
M  END
