x3110-x0734-x3113
     RDKit          3D

 46 49  0  0  0  0  0  0  0  0999 V2000
    8.0390    1.1020   23.2410 N   0  0  0  0  0  0  0  0  0  0  0  0
   13.3710    5.1430   22.8940 C   0  0  0  0  0  0  0  0  0  0  0  0
   12.0110    3.2270   22.4450 O   0  0  0  0  0  0  0  0  0  0  0  0
   12.3840    4.5140   21.9370 C   0  0  0  0  0  0  0  0  0  0  0  0
    7.0190   -1.6260   21.6750 N   0  0  0  0  0  0  0  0  0  0  0  0
   10.8790    4.2600   24.1300 O   0  0  0  0  0  0  0  0  0  0  0  0
   11.0850    3.2790   23.4300 C   0  0  0  0  0  0  0  0  0  0  0  0
    8.6010    1.4000   21.0690 O   0  0  0  0  0  0  0  0  0  0  0  0
   10.3410    1.9720   23.5510 C   0  0  0  0  0  0  0  0  0  0  0  0
    4.9550   -3.0770   20.9250 O   0  0  0  0  0  0  0  0  0  0  0  0
    8.8470    2.2180   23.7130 C   0  0  0  0  0  0  0  0  0  0  0  0
    7.8570    0.8350   21.8920 C   0  0  0  0  0  0  0  0  0  0  0  0
    6.6590   -0.1530   21.5260 C   0  0  1  0  0  0  0  0  0  0  0  0
    6.2260   -2.8580   21.3280 C   0  0  0  0  0  0  0  0  0  0  0  0
    8.4030   -4.4560   20.9470 C   0  0  0  0  0  0  0  0  0  0  0  0
   12.2830   -1.8030   24.2140 C   0  0  0  0  0  0  0  0  0  0  0  0
   12.4260   -0.5500   25.0700 C   0  0  0  0  0  0  0  0  0  0  0  0
   13.3140   -1.7420   23.0850 C   0  0  0  0  0  0  0  0  0  0  0  0
   12.7090   -2.9860   25.1020 C   0  0  0  0  0  0  0  0  0  0  0  0
    5.1310   -5.0340   26.5740 N   0  0  0  0  0  0  0  0  0  0  0  0
    4.4630   -5.7700   25.8310 O   0  0  0  0  0  0  0  0  0  0  0  0
    4.7560   -3.9140   26.9610 O   0  0  0  0  0  0  0  0  0  0  0  0
    6.3340    0.3870   17.8430 N   0  0  0  0  0  0  0  0  0  0  0  0
    5.2040    1.1200   17.8130 C   0  0  0  0  0  0  0  0  0  0  0  0
    4.4580    1.4720   18.9110 C   0  0  0  0  0  0  0  0  0  0  0  0
    4.8840    1.0650   20.1500 C   0  0  0  0  0  0  0  0  0  0  0  0
    6.0460    0.3220   20.2150 C   0  0  0  0  0  0  0  0  0  0  0  0
    6.7430   -0.0060   19.0590 C   0  0  0  0  0  0  0  0  0  0  0  0
    9.4230   -1.8920   21.6820 C   0  0  0  0  0  0  0  0  0  0  0  0
   10.6990   -1.9460   22.2300 C   0  0  0  0  0  0  0  0  0  0  0  0
   10.8730   -1.7730   23.5970 C   0  0  0  0  0  0  0  0  0  0  0  0
    9.7350   -1.5550   24.3980 C   0  0  0  0  0  0  0  0  0  0  0  0
    8.4480   -1.5050   23.7890 C   0  0  0  0  0  0  0  0  0  0  0  0
    8.2910   -1.6750   22.4000 C   0  0  0  0  0  0  0  0  0  0  0  0
    6.5400   -5.2350   26.5190 C   0  0  0  0  0  0  0  0  0  0  0  0
    7.1640   -5.0910   25.2860 C   0  0  0  0  0  0  0  0  0  0  0  0
    8.5570   -5.2710   25.1670 C   0  0  0  0  0  0  0  0  0  0  0  0
    9.3170   -5.5980   26.2690 C   0  0  0  0  0  0  0  0  0  0  0  0
    8.6620   -5.7390   27.4850 C   0  0  0  0  0  0  0  0  0  0  0  0
    7.2810   -5.5630   27.6410 C   0  0  0  0  0  0  0  0  0  0  0  0
    7.1010   -4.0610   21.6150 C   0  0  0  0  0  0  0  0  0  0  0  0
    6.1560   -5.2640   21.7950 C   0  0  0  0  0  0  0  0  0  0  0  0
    6.1440   -5.8180   23.1990 C   0  0  0  0  0  0  0  0  0  0  0  0
    6.3520   -4.7690   24.2070 N   0  0  0  0  0  0  0  0  0  0  0  0
    6.6130   -3.4260   23.7570 C   0  0  0  0  0  0  0  0  0  0  0  0
    7.6900   -3.7130   22.9850 C   0  0  0  0  0  0  0  0  0  0  0  0
  2  4  1  0
  3  4  1  0
  3  7  1  0
  6  7  2  0
  7  9  1  0
  1 11  1  0
  9 11  1  0
  1 12  1  0
  8 12  2  0
  5 13  1  0
 13 12  1  6
  5 14  1  0
 10 14  2  0
 16 17  1  0
 16 18  1  0
 16 19  1  0
 20 21  2  0
 20 22  1  0
 23 24  2  0
 24 25  1  0
 25 26  2  0
 13 27  1  0
 26 27  1  0
 23 28  1  0
 27 28  2  0
 29 30  2  0
 16 31  1  0
 30 31  1  0
 31 32  2  0
 32 33  1  0
  5 34  1  0
 29 34  1  0
 33 34  2  0
 20 35  1  0
 35 36  2  0
 36 37  1  0
 37 38  2  0
 38 39  1  0
 35 40  1  0
 39 40  2  0
 41 14  1  0
 15 41  1  0
 41 42  1  0
 42 43  1  0
 36 44  1  0
 43 44  1  0
 44 45  1  0
 41 46  1  0
 45 46  1  0
M  CHG  2  20   1  22  -1
M  END
