x3110-x1311
     RDKit          3D

 46 49  0  0  0  0  0  0  0  0999 V2000
    8.0290    1.0240   23.2440 N   0  0  0  0  0  0  0  0  0  0  0  0
   13.5030    4.9700   22.7940 C   0  0  0  0  0  0  0  0  0  0  0  0
   11.9470    3.2060   22.4280 O   0  0  0  0  0  0  0  0  0  0  0  0
   12.3380    4.5000   21.9540 C   0  0  0  0  0  0  0  0  0  0  0  0
    7.0520   -1.7530   21.7490 N   0  0  0  0  0  0  0  0  0  0  0  0
   10.8590    4.2150   24.1510 O   0  0  0  0  0  0  0  0  0  0  0  0
   11.0490    3.2430   23.4370 C   0  0  0  0  0  0  0  0  0  0  0  0
    8.5680    1.3400   21.0700 O   0  0  0  0  0  0  0  0  0  0  0  0
   10.3160    1.9300   23.5630 C   0  0  0  0  0  0  0  0  0  0  0  0
    4.9600   -3.1410   21.1210 O   0  0  0  0  0  0  0  0  0  0  0  0
    8.8160    2.1610   23.7020 C   0  0  0  0  0  0  0  0  0  0  0  0
    7.8440    0.7470   21.8960 C   0  0  0  0  0  0  0  0  0  0  0  0
    6.6760   -0.2820   21.5280 C   0  0  1  0  0  0  0  0  0  0  0  0
    6.2430   -2.9840   21.4970 C   0  0  0  0  0  0  0  0  0  0  0  0
    7.0740   -4.2580   21.7560 C   0  0  1  0  0  0  0  0  0  0  0  0
    8.4390   -4.4510   21.0860 C   0  0  0  0  0  0  0  0  0  0  0  0
   12.3180   -1.8340   24.2390 C   0  0  0  0  0  0  0  0  0  0  0  0
   12.4950   -0.5860   25.0870 C   0  0  0  0  0  0  0  0  0  0  0  0
   13.3400   -1.7440   23.1090 C   0  0  0  0  0  0  0  0  0  0  0  0
   12.6900   -3.0340   25.1180 C   0  0  0  0  0  0  0  0  0  0  0  0
    6.3320    0.3590   17.8020 N   0  0  0  0  0  0  0  0  0  0  0  0
    5.2350    1.1350   17.8200 C   0  0  0  0  0  0  0  0  0  0  0  0
    4.5500    1.4740   18.9540 C   0  0  0  0  0  0  0  0  0  0  0  0
    5.0290    0.9910   20.1570 C   0  0  0  0  0  0  0  0  0  0  0  0
    6.1720    0.1860   20.1900 C   0  0  0  0  0  0  0  0  0  0  0  0
    6.7810   -0.1040   18.9840 C   0  0  0  0  0  0  0  0  0  0  0  0
    9.4510   -1.4690   21.7190 C   0  0  0  0  0  0  0  0  0  0  0  0
   10.7200   -1.4870   22.2920 C   0  0  0  0  0  0  0  0  0  0  0  0
   10.9110   -1.8530   23.6220 C   0  0  0  0  0  0  0  0  0  0  0  0
    9.7670   -2.2120   24.3530 C   0  0  0  0  0  0  0  0  0  0  0  0
    8.4850   -2.1960   23.7690 C   0  0  0  0  0  0  0  0  0  0  0  0
    8.3250   -1.8180   22.4320 C   0  0  0  0  0  0  0  0  0  0  0  0
    8.8780   -5.0630   23.2270 C   0  0  0  0  0  0  0  0  0  0  0  0
    9.5670   -5.4360   24.3580 C   0  0  0  0  0  0  0  0  0  0  0  0
    8.9720   -5.3610   25.5750 C   0  0  0  0  0  0  0  0  0  0  0  0
    7.6670   -4.9150   25.6410 C   0  0  0  0  0  0  0  0  0  0  0  0
    6.9490   -4.5400   24.4930 C   0  0  0  0  0  0  0  0  0  0  0  0
    7.5700   -4.6020   23.2050 C   0  0  0  0  0  0  0  0  0  0  0  0
    4.4590   -7.4650   25.1970 O   0  0  0  0  0  0  0  0  0  0  0  0
    2.3420   -5.9150   24.8850 O   0  0  0  0  0  0  0  0  0  0  0  0
    4.7540   -6.5230   22.1020 C   0  0  0  0  0  0  0  0  0  0  0  0
    5.6940   -5.7250   22.8800 C   0  0  0  0  0  0  0  0  0  0  0  0
    4.7530   -4.9570   23.7900 C   0  0  1  0  0  0  0  0  0  0  0  0
    3.7520   -6.3480   24.3050 S   0  0  0  0  0  0  0  0  0  0  0  0
    3.6250   -6.9120   22.7570 C   0  0  0  0  0  0  0  0  0  0  0  0
    5.5420   -4.1130   24.7400 C   0  0  0  0  0  0  0  0  0  0  0  0
  2  4  1  0
  3  4  1  0
  3  7  1  0
  6  7  2  0
  7  9  1  0
  1 11  1  0
  9 11  1  0
  1 12  1  0
  8 12  2  0
  5 13  1  0
 13 12  1  6
  5 14  1  0
 10 14  2  0
 14 15  1  0
 15 16  1  6
 17 18  1  0
 17 19  1  0
 17 20  1  0
 21 22  2  0
 22 23  1  0
 23 24  2  0
 13 25  1  0
 24 25  1  0
 21 26  1  0
 25 26  2  0
 27 28  2  0
 17 29  1  0
 28 29  1  0
 29 30  2  0
 30 31  1  0
  5 32  1  0
 27 32  1  0
 31 32  2  0
 33 34  2  0
 34 35  1  0
 35 36  2  0
 36 37  1  0
 15 38  1  0
 33 38  1  0
 37 38  2  0
 41 42  1  0
 42 43  1  0
 44 39  1  0
 40 44  1  0
 43 44  1  0
 41 45  2  0
 44 45  1  0
 37 46  1  0
 43 46  1  1
M  END
