x3113-x0759
     RDKit          3D

 33 36  0  0  0  0  0  0  0  0999 V2000
    6.7730   -5.0590   20.2920 C   0  0  0  0  0  0  0  0  0  0  0  0
    4.8990   -3.0590   21.2080 O   0  0  0  0  0  0  0  0  0  0  0  0
    6.7420   -4.4460   21.6840 C   0  0  0  0  0  0  0  0  0  0  0  0
    8.1780    0.9410   23.0200 N   0  0  0  0  0  0  0  0  0  0  0  0
    8.6490    1.4260   20.9950 O   0  0  0  0  0  0  0  0  0  0  0  0
    6.2260   -3.0410   21.5930 C   0  0  0  0  0  0  0  0  0  0  0  0
   11.5500    4.0640   23.0650 O   0  0  0  0  0  0  0  0  0  0  0  0
    7.6500   -0.6070   21.1650 C   0  0  2  0  0  0  0  0  0  0  0  0
    8.1730    0.5990   21.7750 C   0  0  0  0  0  0  0  0  0  0  0  0
    9.1540    1.8740   23.5300 C   0  0  0  0  0  0  0  0  0  0  0  0
   10.3010    2.1310   22.7600 C   0  0  0  0  0  0  0  0  0  0  0  0
   11.3740    2.7010   23.4510 C   0  0  0  0  0  0  0  0  0  0  0  0
   12.9170    4.3830   22.7860 C   0  0  0  0  0  0  0  0  0  0  0  0
   12.1760   -1.7840   23.8450 C   0  0  0  0  0  0  0  0  0  0  0  0
   13.0560   -1.8250   22.7530 C   0  0  0  0  0  0  0  0  0  0  0  0
   12.6920   -2.8540   24.8360 C   0  0  0  0  0  0  0  0  0  0  0  0
   12.3700   -0.4260   24.5460 C   0  0  0  0  0  0  0  0  0  0  0  0
    6.1680    0.1700   17.7560 N   0  0  0  0  0  0  0  0  0  0  0  0
    5.0720    1.0330   18.1130 C   0  0  0  0  0  0  0  0  0  0  0  0
    4.7630    1.3620   19.4170 C   0  0  0  0  0  0  0  0  0  0  0  0
    5.5700    0.8340   20.4280 C   0  0  0  0  0  0  0  0  0  0  0  0
    6.7620   -0.0830   20.0980 C   0  0  0  0  0  0  0  0  0  0  0  0
    7.0230   -0.3970   18.7800 C   0  0  0  0  0  0  0  0  0  0  0  0
    8.5970   -2.7140   22.1300 C   0  0  1  0  0  0  0  0  0  0  0  0
   10.0320   -2.4380   22.2510 C   0  0  0  0  0  0  0  0  0  0  0  0
   10.6980   -2.0620   23.4500 C   0  0  0  0  0  0  0  0  0  0  0  0
    9.6460   -1.9280   24.5380 C   0  0  0  0  0  0  0  0  0  0  0  0
    8.5890   -1.2120   24.0070 C   0  0  0  0  0  0  0  0  0  0  0  0
    7.6870   -2.0380   23.3450 C   0  0  1  0  0  0  0  0  0  0  0  0
    7.4430   -1.9590   22.0250 C   0  0  2  0  0  0  0  0  0  0  0  0
    7.1310   -3.1210   24.2420 O   0  0  0  0  0  0  0  0  0  0  0  0
    7.5280   -4.3250   23.7260 C   0  0  0  0  0  0  0  0  0  0  0  0
    8.3650   -4.1860   22.5150 C   0  0  0  0  0  0  0  0  0  0  0  0
  1  3  1  0
  2  6  2  0
  3  6  1  0
  4  9  1  0
  5  9  2  0
  8  9  1  1
  4 10  1  0
 10 11  1  0
  7 12  1  0
 11 12  1  0
  7 13  1  0
 14 15  1  0
 14 16  1  0
 14 17  1  0
 18 19  2  0
 19 20  1  0
 20 21  2  0
  8 22  1  0
 21 22  1  0
 18 23  1  0
 22 23  2  0
 24 25  1  6
 14 26  1  0
 25 26  2  0
 26 27  1  0
 27 28  1  0
 24 29  1  0
 29 28  1  1
 30  6  1  1
  8 30  1  0
 24 30  1  0
 29 30  1  0
 29 31  1  0
 31 32  1  0
 24 33  1  0
 32 33  2  0
M  END
