x3110-x1380-x1311
     RDKit          3D

 54 58  0  0  0  0  0  0  0  0999 V2000
    8.0580    1.2430   23.2710 N   0  0  0  0  0  0  0  0  0  0  0  0
   13.2770    5.2710   21.9170 C   0  0  0  0  0  0  0  0  0  0  0  0
   11.8300    3.4410   22.4660 O   0  0  0  0  0  0  0  0  0  0  0  0
   12.8660    4.0650   22.6940 C   0  0  0  0  0  0  0  0  0  0  0  0
    6.8650   -1.4910   22.0210 N   0  0  0  0  0  0  0  0  0  0  0  0
   10.8200    4.3770   24.1400 O   0  0  0  0  0  0  0  0  0  0  0  0
   11.0170    3.4330   23.3950 C   0  0  0  0  0  0  0  0  0  0  0  0
    8.4370    1.2750   21.0040 O   0  0  0  0  0  0  0  0  0  0  0  0
   10.3480    2.1920   23.4740 C   0  0  0  0  0  0  0  0  0  0  0  0
    4.8690   -3.0980   21.3290 O   0  0  0  0  0  0  0  0  0  0  0  0
    8.9440    2.3320   23.5150 C   0  0  0  0  0  0  0  0  0  0  0  0
    7.7300    0.8220   21.9280 C   0  0  0  0  0  0  0  0  0  0  0  0
    6.6100   -0.0330   21.6650 C   0  0  1  0  0  0  0  0  0  0  0  0
    6.1350   -2.7350   21.6730 C   0  0  0  0  0  0  0  0  0  0  0  0
    7.2340   -3.7430   21.7580 C   0  0  2  0  0  0  0  0  0  0  0  0
    7.1700   -4.7760   20.6550 C   0  0  0  0  0  0  0  0  0  0  0  0
   12.2860   -1.7900   24.1550 C   0  0  0  0  0  0  0  0  0  0  0  0
   12.5280   -0.5730   25.0260 C   0  0  0  0  0  0  0  0  0  0  0  0
   13.3050   -1.7210   23.0200 C   0  0  0  0  0  0  0  0  0  0  0  0
   12.6130   -3.0140   25.0140 C   0  0  0  0  0  0  0  0  0  0  0  0
    5.7410   -2.2860   24.6520 O   0  0  0  0  0  0  0  0  0  0  0  0
    5.9420   -3.2550   25.3420 C   0  0  1  0  0  0  0  0  0  0  0  0
    6.3200    0.3710   17.8160 N   0  0  0  0  0  0  0  0  0  0  0  0
    5.2230    1.1560   17.8080 C   0  0  0  0  0  0  0  0  0  0  0  0
    4.5310    1.5650   18.9400 C   0  0  0  0  0  0  0  0  0  0  0  0
    4.9980    1.1530   20.1810 C   0  0  0  0  0  0  0  0  0  0  0  0
    6.1190    0.3560   20.2940 C   0  0  0  0  0  0  0  0  0  0  0  0
    6.7680   -0.0350   19.1360 C   0  0  0  0  0  0  0  0  0  0  0  0
    9.3010   -1.4840   21.7560 C   0  0  0  0  0  0  0  0  0  0  0  0
   10.6140   -1.5610   22.2650 C   0  0  0  0  0  0  0  0  0  0  0  0
   10.8400   -1.7500   23.6320 C   0  0  0  0  0  0  0  0  0  0  0  0
    9.7480   -1.8740   24.4800 C   0  0  0  0  0  0  0  0  0  0  0  0
    8.4370   -1.8000   23.9870 C   0  0  0  0  0  0  0  0  0  0  0  0
    8.1840   -1.5990   22.6180 C   0  0  0  0  0  0  0  0  0  0  0  0
    8.7040   -5.1970   23.0570 C   0  0  0  0  0  0  0  0  0  0  0  0
    9.3530   -5.8680   24.0810 C   0  0  0  0  0  0  0  0  0  0  0  0
    8.9810   -5.7210   25.5100 C   0  0  0  0  0  0  0  0  0  0  0  0
    7.8290   -4.8110   25.7590 C   0  0  0  0  0  0  0  0  0  0  0  0
    7.0900   -4.0660   24.6340 C   0  0  0  0  0  0  0  0  0  0  0  0
    7.6570   -4.3290   23.1960 C   0  0  0  0  0  0  0  0  0  0  0  0
    7.7070   -3.9680   26.8650 C   0  0  0  0  0  0  0  0  0  0  0  0
    7.8670   -4.6820   28.0620 C   0  0  0  0  0  0  0  0  0  0  0  0
    6.7050   -5.0180   28.7040 C   0  0  0  0  0  0  0  0  0  0  0  0
    5.7840   -4.0080   28.8740 C   0  0  0  0  0  0  0  0  0  0  0  0
    5.4640   -3.1350   27.8070 C   0  0  0  0  0  0  0  0  0  0  0  0
    6.4060   -3.2310   26.6640 N   0  0  0  0  0  0  0  0  0  0  0  0
    3.7370   -7.9700   25.2450 O   0  0  0  0  0  0  0  0  0  0  0  0
    2.2170   -5.8260   24.8320 O   0  0  0  0  0  0  0  0  0  0  0  0
    4.7140   -6.3680   22.2920 C   0  0  0  0  0  0  0  0  0  0  0  0
    5.6370   -5.6470   23.2350 C   0  0  0  0  0  0  0  0  0  0  0  0
    5.0060   -5.5780   24.6420 C   0  0  2  0  0  0  0  0  0  0  0  0
    3.5450   -6.6140   24.4350 S   0  0  0  0  0  0  0  0  0  0  0  0
    3.5900   -6.8950   22.8050 C   0  0  0  0  0  0  0  0  0  0  0  0
    4.7080   -4.1850   25.2330 C   0  0  0  0  0  0  0  0  0  0  0  0
  2  4  1  0
  3  4  1  0
  3  7  1  0
  6  7  2  0
  7  9  1  0
  1 11  1  0
  9 11  1  0
  1 12  1  0
  8 12  2  0
  5 13  1  0
 13 12  1  6
  5 14  1  0
 10 14  2  0
 14 15  1  0
 15 16  1  6
 17 18  1  0
 17 19  1  0
 17 20  1  0
 22 21  1  6
 23 24  2  0
 24 25  1  0
 25 26  2  0
 13 27  1  0
 26 27  1  0
 23 28  1  0
 27 28  2  0
 29 30  2  0
 17 31  1  0
 30 31  1  0
 31 32  2  0
 32 33  1  0
  5 34  1  0
 29 34  1  0
 33 34  2  0
 35 36  2  0
 36 37  1  0
 37 38  2  0
 22 39  1  0
 38 39  1  0
 15 40  1  0
 35 40  1  0
 39 40  2  0
 41 42  1  0
 42 43  1  0
 43 44  1  0
 44 45  1  0
 22 46  1  0
 41 46  1  0
 45 46  1  0
 49 50  1  0
 50 51  1  0
 52 47  1  0
 48 52  1  0
 51 52  1  0
 49 53  2  0
 52 53  1  0
 22 54  1  0
 51 54  1  6
M  END
