x3113-x2643
     RDKit          3D

 32 33  0  0  0  0  0  0  0  0999 V2000
    7.0340   -1.7820   21.8940 N   0  0  0  0  0  0  0  0  0  0  0  0
    8.2430   -4.5630   20.9990 C   0  0  0  0  0  0  0  0  0  0  0  0
    4.9260   -3.1260   21.1840 O   0  0  0  0  0  0  0  0  0  0  0  0
    6.8620   -4.3800   21.6870 C   0  0  0  0  0  0  0  0  0  0  0  0
    7.9270    1.2310   23.2010 N   0  0  0  0  0  0  0  0  0  0  0  0
    8.5820    0.8230   21.0870 O   0  0  0  0  0  0  0  0  0  0  0  0
    6.2000   -3.0080   21.5600 C   0  0  0  0  0  0  0  0  0  0  0  0
   11.5420    3.7670   22.4210 O   0  0  0  0  0  0  0  0  0  0  0  0
    6.6660   -0.2920   21.7120 C   0  0  1  0  0  0  0  0  0  0  0  0
    7.7780    0.5910   21.9750 C   0  0  0  0  0  0  0  0  0  0  0  0
    8.8790    2.3690   23.3530 C   0  0  0  0  0  0  0  0  0  0  0  0
   10.2080    1.9620   23.1570 C   0  0  0  0  0  0  0  0  0  0  0  0
   11.1930    2.9070   23.4980 C   0  0  0  0  0  0  0  0  0  0  0  0
   12.8120    4.3960   22.6350 C   0  0  0  0  0  0  0  0  0  0  0  0
   12.4670   -2.1080   24.2800 C   0  0  0  0  0  0  0  0  0  0  0  0
   13.4120   -2.1430   23.2540 C   0  0  0  0  0  0  0  0  0  0  0  0
   12.8490   -3.2210   25.2200 C   0  0  0  0  0  0  0  0  0  0  0  0
   12.5980   -0.7840   24.9890 C   0  0  0  0  0  0  0  0  0  0  0  0
    6.4350    0.2510   17.9240 N   0  0  0  0  0  0  0  0  0  0  0  0
    5.2700    1.1210   17.8700 C   0  0  0  0  0  0  0  0  0  0  0  0
    4.5860    1.4950   19.0090 C   0  0  0  0  0  0  0  0  0  0  0  0
    5.0170    1.0420   20.2420 C   0  0  0  0  0  0  0  0  0  0  0  0
    6.2370    0.1360   20.3570 C   0  0  0  0  0  0  0  0  0  0  0  0
    6.8280   -0.1720   19.1410 C   0  0  0  0  0  0  0  0  0  0  0  0
    9.5660   -2.3500   21.7790 C   0  0  0  0  0  0  0  0  0  0  0  0
   10.8100   -2.4120   22.3560 C   0  0  0  0  0  0  0  0  0  0  0  0
   11.0980   -2.0920   23.6490 C   0  0  0  0  0  0  0  0  0  0  0  0
    9.8540   -1.6470   24.4590 C   0  0  0  0  0  0  0  0  0  0  0  0
    8.5950   -1.5890   23.8570 C   0  0  0  0  0  0  0  0  0  0  0  0
    8.3250   -1.9030   22.5230 C   0  0  0  0  0  0  0  0  0  0  0  0
   11.8370    0.0250   22.6090 Cl  0  0  0  0  0  0  0  0  0  0  0  0
   12.7890    0.3230   23.9990 C   0  0  0  0  0  0  0  0  0  0  0  0
  2  4  1  0
  1  7  1  0
  3  7  2  0
  4  7  1  0
  1  9  1  0
  5 10  1  0
  6 10  2  0
  9 10  1  6
  5 11  1  0
 11 12  1  0
  8 13  1  0
 12 13  1  0
  8 14  1  0
 15 16  1  0
 15 17  1  0
 15 18  1  0
 19 20  2  0
 20 21  1  0
 21 22  2  0
  9 23  1  0
 22 23  1  0
 19 24  1  0
 23 24  2  0
 25 26  2  0
 15 27  1  0
 26 27  1  0
 27 28  2  0
 28 29  1  0
  1 30  1  0
 25 30  1  0
 29 30  2  0
 18 32  1  0
 31 32  1  0
M  END
