x3110-x1380-x1375
     RDKit          3D

 55 59  0  0  0  0  0  0  0  0999 V2000
    8.0130    1.3210   23.2690 N   0  0  0  0  0  0  0  0  0  0  0  0
   13.3760    5.1490   22.6720 C   0  0  0  0  0  0  0  0  0  0  0  0
   11.9120    3.2800   22.5450 O   0  0  0  0  0  0  0  0  0  0  0  0
   12.2360    4.3730   22.0790 C   0  0  0  0  0  0  0  0  0  0  0  0
    6.7730   -1.3580   22.0260 N   0  0  0  0  0  0  0  0  0  0  0  0
   10.9290    4.3040   24.1780 O   0  0  0  0  0  0  0  0  0  0  0  0
   11.0830    3.3380   23.4520 C   0  0  0  0  0  0  0  0  0  0  0  0
    8.4210    1.3550   21.0040 O   0  0  0  0  0  0  0  0  0  0  0  0
   10.3410    2.1410   23.5270 C   0  0  0  0  0  0  0  0  0  0  0  0
    4.8620   -3.0400   21.2320 O   0  0  0  0  0  0  0  0  0  0  0  0
    8.9470    2.3610   23.5300 C   0  0  0  0  0  0  0  0  0  0  0  0
    7.6930    0.9150   21.9190 C   0  0  0  0  0  0  0  0  0  0  0  0
    6.5550    0.0900   21.6570 C   0  0  1  0  0  0  0  0  0  0  0  0
    6.1240   -2.5970   21.5210 C   0  0  0  0  0  0  0  0  0  0  0  0
    7.2790   -3.4930   21.3400 C   0  0  2  0  0  0  0  0  0  0  0  0
    7.0410   -4.3190   20.1440 C   0  0  0  0  0  0  0  0  0  0  0  0
   12.2480   -1.7550   24.1130 C   0  0  0  0  0  0  0  0  0  0  0  0
   12.5170   -0.5630   25.0100 C   0  0  0  0  0  0  0  0  0  0  0  0
   13.2710   -1.6970   22.9720 C   0  0  0  0  0  0  0  0  0  0  0  0
   12.5520   -2.9990   24.9490 C   0  0  0  0  0  0  0  0  0  0  0  0
    9.6560   -5.3380   26.0930 F   0  0  0  0  0  0  0  0  0  0  0  0
    6.3650    0.4300   17.9120 N   0  0  0  0  0  0  0  0  0  0  0  0
    5.2220    1.2880   17.7370 C   0  0  0  0  0  0  0  0  0  0  0  0
    4.5720    1.6750   18.9070 C   0  0  0  0  0  0  0  0  0  0  0  0
    4.9810    1.2880   20.1700 C   0  0  0  0  0  0  0  0  0  0  0  0
    6.0900    0.4770   20.2920 C   0  0  0  0  0  0  0  0  0  0  0  0
    6.7270    0.0810   19.1510 C   0  0  0  0  0  0  0  0  0  0  0  0
    9.2300   -1.8150   21.7120 C   0  0  0  0  0  0  0  0  0  0  0  0
   10.5730   -1.9210   22.1900 C   0  0  0  0  0  0  0  0  0  0  0  0
   10.8160   -1.6800   23.5530 C   0  0  0  0  0  0  0  0  0  0  0  0
    9.7470   -1.3540   24.3950 C   0  0  0  0  0  0  0  0  0  0  0  0
    8.4380   -1.2550   23.9060 C   0  0  0  0  0  0  0  0  0  0  0  0
    8.1470   -1.4790   22.5570 C   0  0  0  0  0  0  0  0  0  0  0  0
    8.1090   -3.2410   23.6800 C   0  0  0  0  0  0  0  0  0  0  0  0
    8.7090   -3.4910   25.0750 C   0  0  0  0  0  0  0  0  0  0  0  0
    9.0610   -4.8690   24.9860 C   0  0  0  0  0  0  0  0  0  0  0  0
    8.9070   -5.9290   23.8870 C   0  0  0  0  0  0  0  0  0  0  0  0
    8.2640   -5.5250   22.6100 C   0  0  0  0  0  0  0  0  0  0  0  0
    7.8970   -4.0930   22.5900 C   0  0  0  0  0  0  0  0  0  0  0  0
    2.2080   -6.5920   23.4990 O   0  0  0  0  0  0  0  0  0  0  0  0
    4.1940   -8.0410   24.3740 O   0  0  0  0  0  0  0  0  0  0  0  0
    5.0900   -3.3980   25.2390 N   0  0  0  0  0  0  0  0  0  0  0  0
    5.9940   -4.0040   25.9200 C   0  0  0  0  0  0  0  0  0  0  0  0
    4.6470   -4.4590   24.5220 C   0  0  0  0  0  0  0  0  0  0  0  0
    4.8250   -4.6030   23.1440 C   0  0  0  0  0  0  0  0  0  0  0  0
    4.8380   -5.9360   22.7400 C   0  0  0  0  0  0  0  0  0  0  0  0
    3.7340   -6.5970   23.9510 S   0  0  0  0  0  0  0  0  0  0  0  0
    4.0390   -5.4790   25.1290 C   0  0  0  0  0  0  0  0  0  0  0  0
    8.0170   -4.5230   27.0140 C   0  0  1  0  0  0  0  0  0  0  0  0
    8.1620   -4.9640   28.3110 C   0  0  0  0  0  0  0  0  0  0  0  0
    6.8450   -5.5180   28.8680 C   0  0  0  0  0  0  0  0  0  0  0  0
    5.7580   -4.4230   28.8670 C   0  0  0  0  0  0  0  0  0  0  0  0
    6.2250   -3.1810   28.1330 C   0  0  0  0  0  0  0  0  0  0  0  0
    6.8560   -3.5860   26.8790 N   0  0  0  0  0  0  0  0  0  0  0  0
    9.3110   -4.0100   26.3080 C   0  0  0  0  0  0  0  0  0  0  0  0
  2  4  1  0
  3  4  1  0
  3  7  1  0
  6  7  2  0
  7  9  1  0
  1 11  1  0
  9 11  1  0
  1 12  1  0
  8 12  2  0
  5 13  1  0
 13 12  1  6
  5 14  1  0
 10 14  2  0
 14 15  1  0
 15 16  1  6
 17 18  1  0
 17 19  1  0
 17 20  1  0
 22 23  2  0
 23 24  1  0
 24 25  2  0
 13 26  1  0
 25 26  1  0
 22 27  1  0
 26 27  2  0
 28 29  2  0
 17 30  1  0
 29 30  1  0
 30 31  2  0
 31 32  1  0
  5 33  1  0
 28 33  1  0
 32 33  2  0
 34 35  2  0
 21 36  1  0
 35 36  1  0
 36 37  2  0
 37 38  1  0
 15 39  1  0
 34 39  1  0
 38 39  2  0
 42 43  2  3
 42 44  1  0
 44 45  1  0
 45 46  1  0
 47 40  1  0
 41 47  1  0
 46 47  1  0
 44 48  2  0
 47 48  1  0
 49 50  1  0
 50 51  1  0
 51 52  1  0
 52 53  1  0
 43 54  1  0
 49 54  1  0
 53 54  1  0
 35 55  1  0
 49 55  1  1
M  END
