x3117-x1402
     RDKit          3D

 48 53  0  0  0  0  0  0  0  0999 V2000
    6.6940   -1.5210   22.0810 C   0  0  1  0  0  0  0  0  0  0  0  0
    6.5460   -4.0400   20.0250 C   0  0  0  0  0  0  0  0  0  0  0  0
    4.6670   -2.9710   21.4830 O   0  0  0  0  0  0  0  0  0  0  0  0
    6.0480   -2.6710   19.7760 C   0  0  0  0  0  0  0  0  0  0  0  0
    7.4180    2.0350   23.1030 N   0  0  0  0  0  0  0  0  0  0  0  0
    8.6740    0.7760   21.5170 O   0  0  0  0  0  0  0  0  0  0  0  0
    5.7580   -2.3820   21.1280 C   0  0  0  0  0  0  0  0  0  0  0  0
    6.4560    0.0690   21.8870 C   0  0  1  0  0  0  0  0  0  0  0  0
    7.6010    0.9110   22.1080 C   0  0  0  0  0  0  0  0  0  0  0  0
   12.3090   -2.0260   23.9700 C   0  0  0  0  0  0  0  0  0  0  0  0
   13.2000   -1.4790   23.0930 C   0  0  0  0  0  0  0  0  0  0  0  0
   12.9730   -0.7050   24.1380 C   0  0  0  0  0  0  0  0  0  0  0  0
   12.7990   -2.9790   25.0150 C   0  0  0  0  0  0  0  0  0  0  0  0
    0.7550   -1.4800   26.0480 Cl  0  0  0  0  0  0  0  0  0  0  0  0
    3.8920   -6.4790   25.6380 O   0  0  0  0  0  0  0  0  0  0  0  0
    6.1420   -5.3770   26.7480 O   0  0  0  0  0  0  0  0  0  0  0  0
    5.0530   -5.3920   25.5960 S   0  0  0  0  0  0  0  0  0  0  0  0
    5.9920   -2.1900   23.2060 C   0  0  0  0  0  0  0  0  0  0  0  0
    5.4070   -3.4770   22.4780 C   0  0  0  0  0  0  0  0  0  0  0  0
    6.4170    0.4590   17.8910 N   0  0  0  0  0  0  0  0  0  0  0  0
    5.2280    1.2770   17.7820 C   0  0  0  0  0  0  0  0  0  0  0  0
    4.3550    1.7440   18.9280 C   0  0  0  0  0  0  0  0  0  0  0  0
    4.7370    1.3470   20.3380 C   0  0  0  0  0  0  0  0  0  0  0  0
    5.9930    0.4910   20.5080 C   0  0  0  0  0  0  0  0  0  0  0  0
    6.8010    0.0680   19.2390 C   0  0  0  0  0  0  0  0  0  0  0  0
    9.7150    5.1400   24.1540 O   0  0  0  0  0  0  0  0  0  0  0  0
   10.5750    4.0520   23.7840 C   0  0  0  0  0  0  0  0  0  0  0  0
    9.8310    3.0400   23.1540 C   0  0  0  0  0  0  0  0  0  0  0  0
    8.3270    3.1320   23.3660 C   0  0  0  0  0  0  0  0  0  0  0  0
    7.8840    4.4150   22.6800 C   0  0  0  0  0  0  0  0  0  0  0  0
    8.8090    5.5660   23.1120 C   0  0  0  0  0  0  0  0  0  0  0  0
    9.2570   -2.0930   21.7000 C   0  0  0  0  0  0  0  0  0  0  0  0
   10.5730   -2.2020   22.1710 C   0  0  0  0  0  0  0  0  0  0  0  0
   10.8790   -1.9090   23.4990 C   0  0  0  0  0  0  0  0  0  0  0  0
    9.8590   -1.5110   24.3360 C   0  0  0  0  0  0  0  0  0  0  0  0
    8.5740   -1.4200   23.8220 C   0  0  0  0  0  0  0  0  0  0  0  0
    8.2040   -1.6970   22.5000 C   0  0  0  0  0  0  0  0  0  0  0  0
    6.3460   -4.4440   21.6250 C   0  0  0  0  0  0  0  0  0  0  0  0
    7.4990   -4.6890   22.4580 C   0  0  0  0  0  0  0  0  0  0  0  0
    7.1840   -4.9240   23.8190 C   0  0  0  0  0  0  0  0  0  0  0  0
    5.8090   -5.4530   24.0590 N   0  0  0  0  0  0  0  0  0  0  0  0
    5.0320   -6.0250   22.9330 C   0  0  0  0  0  0  0  0  0  0  0  0
    5.6820   -5.8580   21.7030 C   0  0  0  0  0  0  0  0  0  0  0  0
    2.4910   -3.8660   25.7490 S   0  0  0  0  0  0  0  0  0  0  0  0
    4.2230   -3.8410   25.7800 C   0  0  0  0  0  0  0  0  0  0  0  0
    4.7570   -2.4370   25.9700 C   0  0  0  0  0  0  0  0  0  0  0  0
    3.5410   -1.5230   26.0710 C   0  0  0  0  0  0  0  0  0  0  0  0
    2.3170   -2.1860   25.9690 C   0  0  0  0  0  0  0  0  0  0  0  0
  2  4  1  0
  1  7  1  0
  3  7  2  0
  4  7  1  0
  1  8  1  0
  5  9  1  0
  6  9  2  0
  8  9  1  6
 10 11  1  0
 10 12  1  0
 10 13  1  0
 15 17  2  0
 16 17  2  0
  1 18  1  0
 18 19  1  0
 20 21  2  0
 21 22  1  0
 22 23  2  0
  8 24  1  0
 23 24  1  0
 20 25  1  0
 24 25  2  0
 26 27  1  0
 27 28  1  0
  5 29  1  0
 28 29  1  0
 29 30  1  0
 26 31  1  0
 30 31  1  0
 32 33  2  0
 10 34  1  0
 33 34  1  0
 34 35  2  0
 35 36  1  0
  1 37  1  6
 32 37  1  0
 36 37  2  0
  2 38  1  0
 38 19  1  0
 38 39  1  0
 39 40  1  0
 17 41  1  0
 40 41  1  0
 41 42  1  0
 38 43  1  0
 42 43  1  0
 17 45  1  0
 44 45  1  0
 45 46  2  0
 46 47  1  0
 14 48  1  0
 44 48  1  0
 47 48  2  0
M  END
