x3117-x2649
     RDKit          3D

 34 36  0  0  0  0  0  0  0  0999 V2000
    6.8590   -1.6780   21.9790 N   0  0  0  0  0  0  0  0  0  0  0  0
    6.6710   -4.8130   20.3680 C   0  0  0  0  0  0  0  0  0  0  0  0
    4.7830   -3.0010   21.3160 O   0  0  0  0  0  0  0  0  0  0  0  0
    6.7850   -4.1580   21.7430 C   0  0  0  0  0  0  0  0  0  0  0  0
    7.7140    1.8580   22.8580 N   0  0  0  0  0  0  0  0  0  0  0  0
    8.8970    0.4460   21.4790 O   0  0  0  0  0  0  0  0  0  0  0  0
    6.0360   -2.8620   21.6570 C   0  0  0  0  0  0  0  0  0  0  0  0
    6.5770   -0.2330   21.7160 C   0  0  1  0  0  0  0  0  0  0  0  0
    7.8050    0.6610   21.9930 C   0  0  0  0  0  0  0  0  0  0  0  0
   12.2520   -1.6750   24.4620 C   0  0  0  0  0  0  0  0  0  0  0  0
   12.4210   -0.5470   25.2120 C   0  0  0  0  0  0  0  0  0  0  0  0
   13.2790   -1.5910   23.6270 C   0  0  0  0  0  0  0  0  0  0  0  0
   12.5970   -2.9310   25.2740 C   0  0  0  0  0  0  0  0  0  0  0  0
    4.2870    1.7080   21.4720 C   0  0  0  0  0  0  0  0  0  0  0  0
    6.3240    0.1950   17.8480 N   0  0  0  0  0  0  0  0  0  0  0  0
    5.2190    1.1550   17.7770 C   0  0  0  0  0  0  0  0  0  0  0  0
    4.5080    1.6750   19.0110 C   0  0  0  0  0  0  0  0  0  0  0  0
    4.9090    1.2380   20.3910 C   0  0  0  0  0  0  0  0  0  0  0  0
    6.0800    0.2370   20.3880 C   0  0  0  0  0  0  0  0  0  0  0  0
    6.7270   -0.2360   19.0860 C   0  0  0  0  0  0  0  0  0  0  0  0
    9.7940    5.1780   24.1310 O   0  0  0  0  0  0  0  0  0  0  0  0
   10.6210    4.1440   23.6230 C   0  0  0  0  0  0  0  0  0  0  0  0
    9.7890    2.8410   23.6330 C   0  0  0  0  0  0  0  0  0  0  0  0
    8.5810    3.0370   22.6900 C   0  0  0  0  0  0  0  0  0  0  0  0
    7.8670    4.2250   22.9110 C   0  0  0  0  0  0  0  0  0  0  0  0
    8.7590    5.4640   23.1860 C   0  0  0  0  0  0  0  0  0  0  0  0
    9.2780   -2.0150   21.8050 C   0  0  0  0  0  0  0  0  0  0  0  0
   10.6770   -2.0320   22.3610 C   0  0  0  0  0  0  0  0  0  0  0  0
   10.8730   -1.7100   23.8280 C   0  0  0  0  0  0  0  0  0  0  0  0
    9.6860   -1.4390   24.5150 C   0  0  0  0  0  0  0  0  0  0  0  0
    8.4000   -1.4410   23.9280 C   0  0  0  0  0  0  0  0  0  0  0  0
    8.1780   -1.7190   22.5680 C   0  0  0  0  0  0  0  0  0  0  0  0
   13.2980   -1.8020   21.0350 Cl  0  0  0  0  0  0  0  0  0  0  0  0
   13.1430   -2.5830   22.5230 C   0  0  0  0  0  0  0  0  0  0  0  0
  2  4  1  0
  1  7  1  0
  3  7  2  0
  4  7  1  0
  1  8  1  0
  5  9  1  0
  6  9  2  0
  8  9  1  6
 10 11  1  0
 10 12  1  0
 10 13  1  0
 15 16  2  0
 16 17  1  0
 14 18  1  0
 17 18  2  0
  8 19  1  0
 18 19  1  0
 15 20  1  0
 19 20  2  0
 21 22  1  0
 22 23  1  0
  5 24  1  0
 23 24  1  0
 24 25  1  0
 21 26  1  0
 25 26  1  0
 27 28  2  0
 10 29  1  0
 28 29  1  0
 29 30  2  0
 30 31  1  0
  1 32  1  0
 27 32  1  0
 31 32  2  0
 12 34  1  0
 33 34  1  0
M  END
