x3110-x1493-x3113
     RDKit          3D

 42 45  0  0  0  0  0  0  0  0999 V2000
    7.9110    1.3380   23.4590 N   0  0  0  0  0  0  0  0  0  0  0  0
   13.3940    5.2270   22.8940 C   0  0  0  0  0  0  0  0  0  0  0  0
   12.0570    3.2320   22.3630 O   0  0  0  0  0  0  0  0  0  0  0  0
   12.4790    4.4640   21.9890 C   0  0  0  0  0  0  0  0  0  0  0  0
    6.8030   -1.4650   21.9660 C   0  0  2  0  0  0  0  0  0  0  0  0
   10.7600    4.3690   24.1470 O   0  0  0  0  0  0  0  0  0  0  0  0
   11.0910    3.2520   23.3230 C   0  0  0  0  0  0  0  0  0  0  0  0
    8.4660    1.4900   20.9950 O   0  0  0  0  0  0  0  0  0  0  0  0
   10.3230    2.1470   23.5630 C   0  0  0  0  0  0  0  0  0  0  0  0
    4.9600   -3.0710   20.7150 O   0  0  0  0  0  0  0  0  0  0  0  0
    8.8040    2.4390   23.6560 C   0  0  0  0  0  0  0  0  0  0  0  0
    7.6560    0.9680   22.0690 C   0  0  0  0  0  0  0  0  0  0  0  0
    6.4670    0.0220   21.7100 C   0  0  1  0  0  0  0  0  0  0  0  0
    6.1480   -2.6970   21.2220 C   0  0  0  0  0  0  0  0  0  0  0  0
    7.3140   -3.5460   21.4220 C   0  0  2  0  0  0  0  0  0  0  0  0
    7.3300   -4.7310   20.5670 C   0  0  0  0  0  0  0  0  0  0  0  0
   12.5010   -1.6510   24.1170 C   0  0  0  0  0  0  0  0  0  0  0  0
   12.6750   -0.4480   24.7450 C   0  0  0  0  0  0  0  0  0  0  0  0
   13.3840   -1.7320   22.9060 C   0  0  0  0  0  0  0  0  0  0  0  0
   12.8580   -2.9260   24.9290 C   0  0  0  0  0  0  0  0  0  0  0  0
    4.8940   -6.0650   26.2970 C   0  0  0  0  0  0  0  0  0  0  0  0
    7.2150   -5.5690   26.6360 O   0  0  0  0  0  0  0  0  0  0  0  0
    6.3010   -5.6780   25.8270 C   0  0  0  0  0  0  0  0  0  0  0  0
    6.3030   -2.2580   23.1470 C   0  0  0  0  0  0  0  0  0  0  0  0
    6.3680    0.4470   17.8330 N   0  0  0  0  0  0  0  0  0  0  0  0
    5.2340    1.3830   17.7170 C   0  0  0  0  0  0  0  0  0  0  0  0
    4.4900    1.8530   18.9550 C   0  0  0  0  0  0  0  0  0  0  0  0
    4.9380    1.3680   20.1720 C   0  0  0  0  0  0  0  0  0  0  0  0
    6.1080    0.4140   20.3290 C   0  0  0  0  0  0  0  0  0  0  0  0
    6.7530    0.0030   19.1510 C   0  0  0  0  0  0  0  0  0  0  0  0
    9.3340   -1.9920   21.6680 C   0  0  0  0  0  0  0  0  0  0  0  0
   10.7290   -2.0580   22.1490 C   0  0  0  0  0  0  0  0  0  0  0  0
   11.0930   -1.6280   23.5680 C   0  0  0  0  0  0  0  0  0  0  0  0
   10.0580   -1.1710   24.3880 C   0  0  0  0  0  0  0  0  0  0  0  0
    8.6360   -1.1150   23.8770 C   0  0  0  0  0  0  0  0  0  0  0  0
    8.2830   -1.5430   22.4580 C   0  0  0  0  0  0  0  0  0  0  0  0
    6.4990   -5.4830   24.3860 N   0  0  0  0  0  0  0  0  0  0  0  0
    7.3780   -4.5600   23.8530 C   0  0  0  0  0  0  0  0  0  0  0  0
    6.6470   -3.7710   22.7740 C   0  0  2  0  0  0  0  0  0  0  0  0
    5.3400   -4.3360   22.3970 N   0  0  0  0  0  0  0  0  0  0  0  0
    5.3170   -5.7770   22.1670 C   0  0  0  0  0  0  0  0  0  0  0  0
    5.9400   -6.4200   23.3750 C   0  0  0  0  0  0  0  0  0  0  0  0
  2  4  1  0
  3  4  1  0
  3  7  1  0
  6  7  2  0
  7  9  1  0
  1 11  1  0
  9 11  1  0
  1 12  1  0
  8 12  2  0
  5 13  1  0
 13 12  1  6
  5 14  1  0
 10 14  2  0
 14 15  1  0
 15 16  1  6
 17 18  1  0
 17 19  1  0
 17 20  1  0
 21 23  1  0
 22 23  2  0
  5 24  1  0
 25 26  2  0
 26 27  1  0
 27 28  2  0
 13 29  1  0
 28 29  1  0
 25 30  1  0
 29 30  2  0
 31 32  2  0
 17 33  1  0
 32 33  1  0
 33 34  2  0
 34 35  1  0
  5 36  1  1
 31 36  1  0
 35 36  2  0
 23 37  1  0
 37 38  1  0
 15 39  1  0
 39 24  1  1
 38 39  1  0
 39 40  1  0
 40 41  1  0
 37 42  1  0
 41 42  1  0
M  END
