x3115-x3124-x3117-x0771
     RDKit          3D

 50 55  0  0  0  0  0  0  0  0999 V2000
    6.7530   -1.5690   22.0930 C   0  0  1  0  0  0  0  0  0  0  0  0
    6.5980   -4.1330   20.0800 C   0  0  0  0  0  0  0  0  0  0  0  0
    4.7060   -3.0170   21.4780 O   0  0  0  0  0  0  0  0  0  0  0  0
    6.2190   -2.9040   19.8780 C   0  0  0  0  0  0  0  0  0  0  0  0
    7.6280    2.1860   22.8380 N   0  0  0  0  0  0  0  0  0  0  0  0
    8.7740    0.8460   21.4560 O   0  0  0  0  0  0  0  0  0  0  0  0
    5.8310   -2.4840   21.1610 C   0  0  0  0  0  0  0  0  0  0  0  0
    6.4770    0.0210   21.9070 C   0  0  1  0  0  0  0  0  0  0  0  0
    7.7160    1.0340   22.0590 C   0  0  0  0  0  0  0  0  0  0  0  0
    7.8050    5.4620   22.1190 C   0  0  0  0  0  0  0  0  0  0  0  0
   12.4180   -1.9860   23.6940 C   0  0  0  0  0  0  0  0  0  0  0  0
   13.2770   -2.3580   22.5250 C   0  0  0  0  0  0  0  0  0  0  0  0
   12.7450   -2.8860   24.8930 C   0  0  0  0  0  0  0  0  0  0  0  0
   12.8790   -0.5910   24.0670 C   0  0  0  0  0  0  0  0  0  0  0  0
    0.6700   -1.1940   26.3040 C   0  0  0  0  0  0  0  0  0  0  0  0
    4.3080   -7.1140   25.4360 O   0  0  0  0  0  0  0  0  0  0  0  0
    5.9140   -5.3570   26.5720 O   0  0  0  0  0  0  0  0  0  0  0  0
    1.9030   -6.2030   24.8840 C   0  0  0  0  0  0  0  0  0  0  0  0
    4.9450   -5.6570   25.5440 S   0  0  0  0  0  0  0  0  0  0  0  0
    6.2420   -2.5040   23.1760 C   0  0  0  0  0  0  0  0  0  0  0  0
    6.3450    0.3620   18.0130 N   0  0  0  0  0  0  0  0  0  0  0  0
    5.2200    1.0890   17.8880 C   0  0  0  0  0  0  0  0  0  0  0  0
    4.2960    1.5870   18.9600 C   0  0  0  0  0  0  0  0  0  0  0  0
    4.6870    1.2300   20.3780 C   0  0  0  0  0  0  0  0  0  0  0  0
    5.9400    0.4320   20.5390 C   0  0  0  0  0  0  0  0  0  0  0  0
    6.7070    0.0380   19.2660 C   0  0  0  0  0  0  0  0  0  0  0  0
    9.2800   -1.5280   21.5380 C   0  0  0  0  0  0  0  0  0  0  0  0
   10.6110   -1.6310   21.9440 C   0  0  0  0  0  0  0  0  0  0  0  0
   10.9600   -1.9030   23.2540 C   0  0  0  0  0  0  0  0  0  0  0  0
    9.9460   -2.0850   24.1450 C   0  0  0  0  0  0  0  0  0  0  0  0
    8.6140   -1.9970   23.7870 C   0  0  0  0  0  0  0  0  0  0  0  0
    8.2540   -1.7080   22.4620 C   0  0  0  0  0  0  0  0  0  0  0  0
    9.8410    5.2820   24.2560 O   0  0  0  0  0  0  0  0  0  0  0  0
   10.4050    4.1720   23.9660 C   0  0  0  0  0  0  0  0  0  0  0  0
    9.6780    2.9930   23.7370 C   0  0  0  0  0  0  0  0  0  0  0  0
    8.5670    3.2620   22.9240 C   0  0  2  0  0  0  0  0  0  0  0  0
    7.8830    4.4560   23.2880 C   0  0  1  0  0  0  0  0  0  0  0  0
    8.4410    5.0430   24.4250 C   0  0  0  0  0  0  0  0  0  0  0  0
    1.6210   -2.3590   26.0750 C   0  0  0  0  0  0  0  0  0  0  0  0
    1.1780   -3.7320   25.5630 C   0  0  0  0  0  0  0  0  0  0  0  0
    2.2130   -4.8320   25.3730 C   0  0  0  0  0  0  0  0  0  0  0  0
    3.6600   -4.4620   25.7220 C   0  0  0  0  0  0  0  0  0  0  0  0
    3.9470   -3.0440   26.2210 C   0  0  0  0  0  0  0  0  0  0  0  0
    2.9620   -2.0710   26.3770 C   0  0  0  0  0  0  0  0  0  0  0  0
    6.4610   -4.5590   21.5580 N   0  0  0  0  0  0  0  0  0  0  0  0
    6.0000   -5.9640   21.7560 C   0  0  0  0  0  0  0  0  0  0  0  0
    5.1450   -6.0790   22.8710 C   0  0  0  0  0  0  0  0  0  0  0  0
    5.5560   -5.2380   24.0250 N   0  0  0  0  0  0  0  0  0  0  0  0
    6.9250   -4.7360   23.9200 C   0  0  0  0  0  0  0  0  0  0  0  0
    7.0190   -3.9080   22.8060 C   0  0  2  0  0  0  0  0  0  0  0  0
  2  4  1  0
  1  7  1  0
  3  7  2  0
  4  7  1  0
  1  8  1  0
  5  9  1  0
  6  9  2  0
  8  9  1  6
 11 12  1  0
 11 13  1  0
 11 14  1  0
 16 19  2  0
 17 19  2  0
  1 20  1  0
 21 22  2  0
 22 23  1  0
 23 24  2  0
  8 25  1  0
 24 25  1  0
 21 26  1  0
 25 26  2  0
 27 28  2  0
 11 29  1  0
 28 29  1  0
 29 30  2  0
 30 31  1  0
  1 32  1  6
 27 32  1  0
 31 32  2  0
 33 34  1  0
 34 35  1  0
 36  5  1  1
 35 36  1  0
 37 10  1  6
 36 37  1  0
 33 38  1  0
 37 38  1  0
 15 39  1  0
 39 40  2  0
 18 41  1  0
 40 41  1  0
 19 42  1  0
 41 42  2  0
 42 43  1  0
 39 44  1  0
 43 44  2  0
  2 45  1  0
 45 46  1  0
 46 47  1  0
 19 48  1  0
 47 48  1  0
 48 49  1  0
 50 20  1  1
 45 50  1  0
 49 50  1  0
M  END
