x3110-x1493-x0689
     RDKit          3D

 51 55  0  0  0  0  0  0  0  0999 V2000
    7.9870    1.1870   23.4160 N   0  0  0  0  0  0  0  0  0  0  0  0
   13.4240    5.1770   22.7510 C   0  0  0  0  0  0  0  0  0  0  0  0
   12.0050    3.2870   22.4230 O   0  0  0  0  0  0  0  0  0  0  0  0
   12.3690    4.3940   22.0320 C   0  0  0  0  0  0  0  0  0  0  0  0
    6.8120   -1.5360   21.9890 C   0  0  2  0  0  0  0  0  0  0  0  0
   10.8650    4.2980   24.1290 O   0  0  0  0  0  0  0  0  0  0  0  0
   11.0900    3.3250   23.4230 C   0  0  0  0  0  0  0  0  0  0  0  0
    8.6060    1.4650   20.9810 O   0  0  0  0  0  0  0  0  0  0  0  0
   10.3410    1.9640   23.5630 C   0  0  0  0  0  0  0  0  0  0  0  0
    4.8970   -3.0000   20.7860 O   0  0  0  0  0  0  0  0  0  0  0  0
    8.8310    2.2090   23.8310 C   0  0  0  0  0  0  0  0  0  0  0  0
    7.8000    0.8620   22.0020 C   0  0  0  0  0  0  0  0  0  0  0  0
    6.6500   -0.1280   21.6500 C   0  0  1  0  0  0  0  0  0  0  0  0
    6.0980   -2.7650   21.3010 C   0  0  0  0  0  0  0  0  0  0  0  0
    6.9620   -3.9280   21.4710 C   0  0  2  0  0  0  0  0  0  0  0  0
    6.8320   -4.7140   20.2130 C   0  0  0  0  0  0  0  0  0  0  0  0
   12.3660   -1.8360   24.1460 C   0  0  0  0  0  0  0  0  0  0  0  0
   12.5750   -0.5810   24.9640 C   0  0  0  0  0  0  0  0  0  0  0  0
   13.3570   -1.8730   23.0400 C   0  0  0  0  0  0  0  0  0  0  0  0
   12.6230   -2.9450   24.8870 C   0  0  0  0  0  0  0  0  0  0  0  0
    3.5550   -5.7910   26.6360 O   0  0  0  0  0  0  0  0  0  0  0  0
    5.4700   -4.2650   26.8420 O   0  0  0  0  0  0  0  0  0  0  0  0
    4.3490   -4.7300   26.0560 S   0  0  0  0  0  0  0  0  0  0  0  0
    6.0510   -1.9120   23.2150 C   0  0  0  0  0  0  0  0  0  0  0  0
    5.3870   -3.1830   23.1660 C   0  0  0  0  0  0  0  0  0  0  0  0
    4.6410   -6.7740   25.2770 C   0  0  0  0  0  0  0  0  0  0  0  0
    6.3240   -6.2160   26.7170 O   0  0  0  0  0  0  0  0  0  0  0  0
    5.3120   -6.8680   26.4890 C   0  0  0  0  0  0  0  0  0  0  0  0
    6.3620    0.2900   17.8660 N   0  0  0  0  0  0  0  0  0  0  0  0
    5.2570    1.0910   17.8180 C   0  0  0  0  0  0  0  0  0  0  0  0
    4.5880    1.4810   18.9730 C   0  0  0  0  0  0  0  0  0  0  0  0
    5.0250    1.0780   20.2090 C   0  0  0  0  0  0  0  0  0  0  0  0
    6.1500    0.2760   20.2440 C   0  0  0  0  0  0  0  0  0  0  0  0
    6.8390   -0.1450   19.1220 C   0  0  0  0  0  0  0  0  0  0  0  0
    9.3860   -1.9940   21.7010 C   0  0  0  0  0  0  0  0  0  0  0  0
   10.6990   -2.0710   22.1860 C   0  0  0  0  0  0  0  0  0  0  0  0
   10.9820   -1.8110   23.5280 C   0  0  0  0  0  0  0  0  0  0  0  0
    9.9080   -1.4900   24.3490 C   0  0  0  0  0  0  0  0  0  0  0  0
    8.6060   -1.4170   23.8560 C   0  0  0  0  0  0  0  0  0  0  0  0
    8.3030   -1.6630   22.4980 C   0  0  0  0  0  0  0  0  0  0  0  0
    6.1800   -4.4490   22.6030 C   0  0  1  0  0  0  0  0  0  0  0  0
    5.2190   -5.3780   22.2910 C   0  0  0  0  0  0  0  0  0  0  0  0
    4.3560   -5.4180   23.3850 C   0  0  0  0  0  0  0  0  0  0  0  0
    4.9710   -5.4140   24.6580 C   0  0  1  0  0  0  0  0  0  0  0  0
    6.3570   -5.1590   24.7110 C   0  0  0  0  0  0  0  0  0  0  0  0
    7.0270   -4.8400   23.5710 C   0  0  0  0  0  0  0  0  0  0  0  0
    3.6710   -1.7980   26.0340 S   0  0  0  0  0  0  0  0  0  0  0  0
    3.3000   -3.4760   25.8630 C   0  0  0  0  0  0  0  0  0  0  0  0
    1.8220   -3.7210   25.5330 C   0  0  0  0  0  0  0  0  0  0  0  0
    1.1800   -2.3970   25.4880 C   0  0  0  0  0  0  0  0  0  0  0  0
    2.0330   -1.3280   25.7320 C   0  0  0  0  0  0  0  0  0  0  0  0
  2  4  1  0
  3  4  1  0
  3  7  1  0
  6  7  2  0
  7  9  1  0
  1 11  1  0
  9 11  1  0
  1 12  1  0
  8 12  2  0
  5 13  1  0
 13 12  1  6
  5 14  1  0
 10 14  2  0
 14 15  1  0
 15 16  1  6
 17 18  1  0
 17 19  1  0
 17 20  1  0
 21 23  2  0
 22 23  2  0
  5 24  1  0
 24 25  1  0
 26 28  1  0
 27 28  2  0
 29 30  2  0
 30 31  1  0
 31 32  2  0
 13 33  1  0
 32 33  1  0
 29 34  1  0
 33 34  2  0
 35 36  2  0
 17 37  1  0
 36 37  1  0
 37 38  2  0
 38 39  1  0
  5 40  1  1
 35 40  1  0
 39 40  2  0
 15 41  1  0
 41 25  1  1
 41 42  1  0
 42 43  1  0
 23 44  1  0
 44 26  1  1
 43 44  1  0
 44 45  1  0
 41 46  1  0
 45 46  1  0
 23 48  1  0
 47 48  1  0
 48 49  2  0
 49 50  1  0
 47 51  1  0
 50 51  2  0
M  END
