x3113-x3124
     RDKit          3D

 30 31  0  0  0  0  0  0  0  0999 V2000
    7.0020   -1.6720   21.8720 N   0  0  0  0  0  0  0  0  0  0  0  0
    6.8710   -4.8580   20.4170 C   0  0  0  0  0  0  0  0  0  0  0  0
    4.8730   -3.0820   21.2650 O   0  0  0  0  0  0  0  0  0  0  0  0
    6.9290   -4.1530   21.7660 C   0  0  0  0  0  0  0  0  0  0  0  0
    8.0780    1.2560   23.1650 N   0  0  0  0  0  0  0  0  0  0  0  0
    8.5610    0.9160   21.0080 O   0  0  0  0  0  0  0  0  0  0  0  0
    6.1530   -2.8850   21.6120 C   0  0  0  0  0  0  0  0  0  0  0  0
   11.5100    3.8940   23.3830 O   0  0  0  0  0  0  0  0  0  0  0  0
    6.6680   -0.1830   21.7080 C   0  0  1  0  0  0  0  0  0  0  0  0
    7.8110    0.6690   21.9340 C   0  0  0  0  0  0  0  0  0  0  0  0
    9.1060    2.3340   23.2310 C   0  0  0  0  0  0  0  0  0  0  0  0
   10.3210    1.8810   23.7810 C   0  0  0  0  0  0  0  0  0  0  0  0
   11.4940    2.4730   23.2630 C   0  0  0  0  0  0  0  0  0  0  0  0
   12.7350    4.4440   22.8790 C   0  0  0  0  0  0  0  0  0  0  0  0
   12.4970   -1.9970   24.0370 C   0  0  0  0  0  0  0  0  0  0  0  0
   13.4090   -2.1360   23.0000 C   0  0  0  0  0  0  0  0  0  0  0  0
   12.8030   -3.0840   25.0540 C   0  0  0  0  0  0  0  0  0  0  0  0
   12.7430   -0.6550   24.7290 C   0  0  0  0  0  0  0  0  0  0  0  0
    6.3890    0.2560   17.9560 N   0  0  0  0  0  0  0  0  0  0  0  0
    5.2410    1.1410   17.8920 C   0  0  0  0  0  0  0  0  0  0  0  0
    4.5650    1.5710   19.0200 C   0  0  0  0  0  0  0  0  0  0  0  0
    5.0150    1.1390   20.2570 C   0  0  0  0  0  0  0  0  0  0  0  0
    6.2240    0.2160   20.3560 C   0  0  0  0  0  0  0  0  0  0  0  0
    6.8130   -0.1550   19.1580 C   0  0  0  0  0  0  0  0  0  0  0  0
    9.5050   -1.2990   21.7380 C   0  0  0  0  0  0  0  0  0  0  0  0
   10.7620   -1.3960   22.2800 C   0  0  0  0  0  0  0  0  0  0  0  0
   11.1060   -1.9610   23.4610 C   0  0  0  0  0  0  0  0  0  0  0  0
    9.8930   -2.5600   24.1920 C   0  0  0  0  0  0  0  0  0  0  0  0
    8.5770   -2.4880   23.6930 C   0  0  0  0  0  0  0  0  0  0  0  0
    8.2920   -1.8580   22.4700 C   0  0  0  0  0  0  0  0  0  0  0  0
  2  4  1  0
  1  7  1  0
  3  7  2  0
  4  7  1  0
  1  9  1  0
  5 10  1  0
  6 10  2  0
  9 10  1  6
  5 11  1  0
 11 12  1  0
  8 13  1  0
 12 13  1  0
  8 14  1  0
 15 16  1  0
 15 17  1  0
 15 18  1  0
 19 20  2  0
 20 21  1  0
 21 22  2  0
  9 23  1  0
 22 23  1  0
 19 24  1  0
 23 24  2  0
 25 26  2  0
 15 27  1  0
 26 27  1  0
 27 28  2  0
 28 29  1  0
  1 30  1  0
 25 30  1  0
 29 30  2  0
M  END
