x3110-x0691
     RDKit          3D

 50 54  0  0  0  0  0  0  0  0999 V2000
    7.9370    1.2320   23.2140 N   0  0  0  0  0  0  0  0  0  0  0  0
   13.3720    5.1470   22.9010 C   0  0  0  0  0  0  0  0  0  0  0  0
   12.0230    3.2250   22.4500 O   0  0  0  0  0  0  0  0  0  0  0  0
   12.4060    4.5060   21.9310 C   0  0  0  0  0  0  0  0  0  0  0  0
    6.8430   -1.6070   21.9880 C   0  0  2  0  0  0  0  0  0  0  0  0
   10.9310    4.2940   24.1180 O   0  0  0  0  0  0  0  0  0  0  0  0
   11.0840    3.3050   23.4180 C   0  0  0  0  0  0  0  0  0  0  0  0
    8.4990    1.4400   21.0250 O   0  0  0  0  0  0  0  0  0  0  0  0
   10.2300    2.0540   23.5530 C   0  0  0  0  0  0  0  0  0  0  0  0
    4.8880   -2.9920   20.7590 O   0  0  0  0  0  0  0  0  0  0  0  0
    8.7230    2.3150   23.6070 C   0  0  0  0  0  0  0  0  0  0  0  0
    7.7540    0.9210   21.8710 C   0  0  0  0  0  0  0  0  0  0  0  0
    6.5570   -0.0770   21.5830 C   0  0  1  0  0  0  0  0  0  0  0  0
    6.0890   -2.7940   21.2540 C   0  0  0  0  0  0  0  0  0  0  0  0
    6.9940   -3.9280   21.3650 C   0  0  2  0  0  0  0  0  0  0  0  0
    6.9890   -4.7960   20.2010 C   0  0  0  0  0  0  0  0  0  0  0  0
   12.4030   -1.8100   24.0800 C   0  0  0  0  0  0  0  0  0  0  0  0
   12.5760   -0.5250   24.8780 C   0  0  0  0  0  0  0  0  0  0  0  0
   13.4150   -1.8310   22.9470 C   0  0  0  0  0  0  0  0  0  0  0  0
   12.7870   -2.9870   24.9760 C   0  0  0  0  0  0  0  0  0  0  0  0
    3.8020   -7.0460   26.0930 O   0  0  0  0  0  0  0  0  0  0  0  0
    5.5400   -5.4030   27.3380 O   0  0  0  0  0  0  0  0  0  0  0  0
    3.3150   -0.6490   26.0210 F   0  0  0  0  0  0  0  0  0  0  0  0
    4.5600   -5.6430   26.1090 S   0  0  0  0  0  0  0  0  0  0  0  0
    6.1370   -1.9810   23.3220 C   0  0  0  0  0  0  0  0  0  0  0  0
    5.5710   -3.2950   23.2790 C   0  0  0  0  0  0  0  0  0  0  0  0
    6.3480    0.3990   17.8440 N   0  0  0  0  0  0  0  0  0  0  0  0
    5.2640    1.1960   17.7870 C   0  0  0  0  0  0  0  0  0  0  0  0
    4.5280    1.6130   18.8770 C   0  0  0  0  0  0  0  0  0  0  0  0
    4.9450    1.1850   20.1200 C   0  0  0  0  0  0  0  0  0  0  0  0
    6.0640    0.3710   20.2230 C   0  0  0  0  0  0  0  0  0  0  0  0
    6.7380   -0.0070   19.0630 C   0  0  0  0  0  0  0  0  0  0  0  0
    9.4270   -2.1660   21.7570 C   0  0  0  0  0  0  0  0  0  0  0  0
   10.7320   -2.2100   22.2480 C   0  0  0  0  0  0  0  0  0  0  0  0
   10.9850   -1.7960   23.5410 C   0  0  0  0  0  0  0  0  0  0  0  0
    9.9270   -1.3600   24.3050 C   0  0  0  0  0  0  0  0  0  0  0  0
    8.6400   -1.3250   23.8010 C   0  0  0  0  0  0  0  0  0  0  0  0
    8.3320   -1.7200   22.5010 C   0  0  0  0  0  0  0  0  0  0  0  0
    2.8700   -1.9110   25.9530 C   0  0  0  0  0  0  0  0  0  0  0  0
    3.8020   -2.9600   26.0440 C   0  0  0  0  0  0  0  0  0  0  0  0
    3.3950   -4.3220   25.9810 C   0  0  0  0  0  0  0  0  0  0  0  0
    1.9150   -4.6360   25.8030 C   0  0  0  0  0  0  0  0  0  0  0  0
    0.8980   -3.5300   25.7030 C   0  0  0  0  0  0  0  0  0  0  0  0
    1.5050   -2.1170   25.7980 C   0  0  0  0  0  0  0  0  0  0  0  0
    6.4450   -4.4580   22.6340 C   0  0  0  0  0  0  0  0  0  0  0  0
    5.6740   -5.5890   22.3650 C   0  0  0  0  0  0  0  0  0  0  0  0
    5.0580   -6.1760   23.4580 C   0  0  0  0  0  0  0  0  0  0  0  0
    5.4670   -5.4530   24.7050 N   0  0  0  0  0  0  0  0  0  0  0  0
    6.8990   -5.1450   24.9350 C   0  0  0  0  0  0  0  0  0  0  0  0
    7.5260   -4.9450   23.5870 C   0  0  0  0  0  0  0  0  0  0  0  0
  2  4  1  0
  3  4  1  0
  3  7  1  0
  6  7  2  0
  7  9  1  0
  1 11  1  0
  9 11  1  0
  1 12  1  0
  8 12  2  0
  5 13  1  0
 13 12  1  6
  5 14  1  0
 10 14  2  0
 14 15  1  0
 15 16  1  6
 17 18  1  0
 17 19  1  0
 17 20  1  0
 21 24  2  0
 22 24  2  0
  5 25  1  0
 25 26  1  0
 27 28  2  0
 28 29  1  0
 29 30  2  0
 13 31  1  0
 30 31  1  0
 27 32  1  0
 31 32  2  0
 33 34  2  0
 17 35  1  0
 34 35  1  0
 35 36  2  0
 36 37  1  0
  5 38  1  1
 33 38  1  0
 37 38  2  0
 23 39  1  0
 39 40  2  0
 24 41  1  0
 40 41  1  0
 41 42  2  0
 42 43  1  0
 39 44  1  0
 43 44  2  0
 15 45  1  0
 45 26  1  0
 45 46  1  0
 46 47  1  0
 24 48  1  0
 47 48  1  0
 48 49  1  0
 45 50  1  0
 49 50  1  0
M  END
