x3113-x0540
     RDKit          3D

 42 44  0  0  0  0  0  0  0  0999 V2000
    7.0320   -1.8420   21.9440 N   0  0  0  0  0  0  0  0  0  0  0  0
    6.9150   -5.1040   20.6150 C   0  0  0  0  0  0  0  0  0  0  0  0
    4.8950   -3.1160   21.2510 O   0  0  0  0  0  0  0  0  0  0  0  0
    6.8300   -4.3200   21.9310 C   0  0  0  0  0  0  0  0  0  0  0  0
    8.0570    1.1890   23.1560 N   0  0  0  0  0  0  0  0  0  0  0  0
    8.8480    0.5610   21.1610 O   0  0  0  0  0  0  0  0  0  0  0  0
    6.1440   -3.0050   21.6730 C   0  0  0  0  0  0  0  0  0  0  0  0
   11.6110    3.6630   22.4070 O   0  0  0  0  0  0  0  0  0  0  0  0
    6.8030   -0.3510   21.6990 C   0  0  1  0  0  0  0  0  0  0  0  0
    7.9590    0.4640   21.9740 C   0  0  0  0  0  0  0  0  0  0  0  0
    9.0750    2.2730   23.2850 C   0  0  0  0  0  0  0  0  0  0  0  0
   10.3870    1.7820   23.1690 C   0  0  0  0  0  0  0  0  0  0  0  0
   11.4010    2.7190   23.4500 C   0  0  0  0  0  0  0  0  0  0  0  0
   12.8310    4.3890   22.6120 C   0  0  0  0  0  0  0  0  0  0  0  0
   12.5280   -2.0470   24.2530 C   0  0  0  0  0  0  0  0  0  0  0  0
   13.4440   -2.2360   23.2300 C   0  0  0  0  0  0  0  0  0  0  0  0
   12.8950   -3.0730   25.3360 C   0  0  0  0  0  0  0  0  0  0  0  0
   12.7250   -0.6510   24.8330 C   0  0  0  0  0  0  0  0  0  0  0  0
    2.8110    1.5010   24.4950 O   0  0  0  0  0  0  0  0  0  0  0  0
    2.9010    2.3980   23.6590 C   0  0  0  0  0  0  0  0  0  0  0  0
    4.0600    2.7590   23.0400 N   0  0  0  0  0  0  0  0  0  0  0  0
    4.9080    1.7420   22.4910 C   0  0  0  0  0  0  0  0  0  0  0  0
    4.2190    1.0250   21.5180 C   0  0  0  0  0  0  0  0  0  0  0  0
    1.8620    3.1770   23.2220 N   0  0  0  0  0  0  0  0  0  0  0  0
    6.5440    0.3780   17.9310 N   0  0  0  0  0  0  0  0  0  0  0  0
    5.2570    1.1100   17.8160 C   0  0  0  0  0  0  0  0  0  0  0  0
    4.5200    1.3050   18.9730 C   0  0  0  0  0  0  0  0  0  0  0  0
    5.0500    0.7860   20.2980 C   0  0  0  0  0  0  0  0  0  0  0  0
    6.2400    0.1360   20.3710 C   0  0  0  0  0  0  0  0  0  0  0  0
    6.9310   -0.0530   19.2090 C   0  0  0  0  0  0  0  0  0  0  0  0
    9.5880   -1.6240   21.8040 C   0  0  0  0  0  0  0  0  0  0  0  0
   10.8420   -1.6940   22.3990 C   0  0  0  0  0  0  0  0  0  0  0  0
   11.0940   -2.0490   23.7280 C   0  0  0  0  0  0  0  0  0  0  0  0
   10.0070   -2.3670   24.5010 C   0  0  0  0  0  0  0  0  0  0  0  0
    8.5530   -2.3570   24.0380 C   0  0  0  0  0  0  0  0  0  0  0  0
    8.3250   -1.9530   22.5950 C   0  0  0  0  0  0  0  0  0  0  0  0
    0.5680    4.7500   24.5650 C   0  0  0  0  0  0  0  0  0  0  0  0
   -0.7720    5.0180   25.2440 C   0  0  0  0  0  0  0  0  0  0  0  0
   -1.9570    4.7150   24.3220 C   0  0  0  0  0  0  0  0  0  0  0  0
   -1.9200    3.2840   23.7910 C   0  0  0  0  0  0  0  0  0  0  0  0
   -0.5720    2.9600   23.1320 C   0  0  0  0  0  0  0  0  0  0  0  0
    0.6410    3.3220   23.9910 C   0  0  0  0  0  0  0  0  0  0  0  0
  2  4  1  0
  1  7  1  0
  3  7  2  0
  4  7  1  0
  1  9  1  0
  5 10  1  0
  6 10  2  0
  9 10  1  6
  5 11  1  0
 11 12  1  0
  8 13  1  0
 12 13  1  0
  8 14  1  0
 15 16  1  0
 15 17  1  0
 15 18  1  0
 19 20  2  0
 20 21  1  0
 21 22  1  0
 22 23  1  0
 20 24  1  0
 25 26  2  0
 26 27  1  0
 23 28  1  0
 27 28  2  0
  9 29  1  0
 28 29  1  0
 25 30  1  0
 29 30  2  0
 31 32  2  0
 15 33  1  0
 32 33  1  0
 33 34  2  0
 34 35  1  0
  1 36  1  0
 31 36  1  0
 35 36  2  0
 37 38  1  0
 38 39  1  0
 39 40  1  0
 40 41  1  0
 24 42  1  0
 37 42  1  0
 41 42  1  0
M  END
