x3115-x0540
     RDKit          3D

 41 43  0  0  0  0  0  0  0  0999 V2000
    6.9500   -1.8460   21.7750 N   0  0  0  0  0  0  0  0  0  0  0  0
    6.6950   -4.9800   20.3850 C   0  0  0  0  0  0  0  0  0  0  0  0
    4.8450   -3.0740   21.2810 O   0  0  0  0  0  0  0  0  0  0  0  0
    6.7690   -4.3370   21.7470 C   0  0  0  0  0  0  0  0  0  0  0  0
    7.2680    1.5900   22.8260 N   0  0  0  0  0  0  0  0  0  0  0  0
    8.8810    0.5830   21.5200 O   0  0  0  0  0  0  0  0  0  0  0  0
    6.0980   -3.0180   21.5870 C   0  0  0  0  0  0  0  0  0  0  0  0
    8.4800    5.1420   22.8720 O   0  0  0  0  0  0  0  0  0  0  0  0
    6.6620   -0.3740   21.5010 C   0  0  1  0  0  0  0  0  0  0  0  0
    7.7330    0.6300   21.9500 C   0  0  0  0  0  0  0  0  0  0  0  0
    8.0410    2.7470   23.1140 C   0  0  0  0  0  0  0  0  0  0  0  0
    7.7890    4.0320   22.2770 C   0  0  0  0  0  0  0  0  0  0  0  0
    8.2770    6.3200   22.2120 C   0  0  0  0  0  0  0  0  0  0  0  0
   12.1530   -1.8350   24.3890 C   0  0  0  0  0  0  0  0  0  0  0  0
   12.8090   -2.9080   24.9730 C   0  0  0  0  0  0  0  0  0  0  0  0
   13.3040   -2.5110   23.6280 C   0  0  0  0  0  0  0  0  0  0  0  0
   12.6080   -0.4570   24.8440 C   0  0  0  0  0  0  0  0  0  0  0  0
    2.7300    1.5320   24.5060 O   0  0  0  0  0  0  0  0  0  0  0  0
    2.7970    2.4060   23.6350 C   0  0  0  0  0  0  0  0  0  0  0  0
    3.9410    2.7460   22.9730 N   0  0  0  0  0  0  0  0  0  0  0  0
    4.7470    1.7580   22.5010 C   0  0  0  0  0  0  0  0  0  0  0  0
    4.2370    0.9940   21.4410 C   0  0  0  0  0  0  0  0  0  0  0  0
    1.7530    3.1680   23.1970 N   0  0  0  0  0  0  0  0  0  0  0  0
    6.3280    0.3560   17.7700 N   0  0  0  0  0  0  0  0  0  0  0  0
    5.1660    1.0410   17.8110 C   0  0  0  0  0  0  0  0  0  0  0  0
    4.4880    1.2450   18.9630 C   0  0  0  0  0  0  0  0  0  0  0  0
    4.9630    0.7710   20.1610 C   0  0  0  0  0  0  0  0  0  0  0  0
    6.1650    0.0760   20.1520 C   0  0  0  0  0  0  0  0  0  0  0  0
    6.8140   -0.1200   18.9340 C   0  0  0  0  0  0  0  0  0  0  0  0
    9.3830   -1.6220   21.7970 C   0  0  0  0  0  0  0  0  0  0  0  0
   10.6300   -1.6200   22.4100 C   0  0  0  0  0  0  0  0  0  0  0  0
   10.7700   -1.9110   23.7680 C   0  0  0  0  0  0  0  0  0  0  0  0
    9.5960   -2.2310   24.4740 C   0  0  0  0  0  0  0  0  0  0  0  0
    8.3360   -2.2340   23.8440 C   0  0  0  0  0  0  0  0  0  0  0  0
    8.2200   -1.9150   22.4840 C   0  0  0  0  0  0  0  0  0  0  0  0
    0.4840    4.7240   24.5830 C   0  0  0  0  0  0  0  0  0  0  0  0
   -0.7750    5.0280   25.1150 C   0  0  0  0  0  0  0  0  0  0  0  0
   -1.9010    4.5600   24.4350 C   0  0  0  0  0  0  0  0  0  0  0  0
   -1.8030    3.3320   23.7770 C   0  0  0  0  0  0  0  0  0  0  0  0
   -0.5850    2.9840   23.1750 C   0  0  0  0  0  0  0  0  0  0  0  0
    0.5350    3.3110   23.9740 C   0  0  0  0  0  0  0  0  0  0  0  0
  2  4  1  0
  1  7  1  0
  3  7  2  0
  4  7  1  0
  1  9  1  0
  5 10  1  0
  6 10  2  0
  9 10  1  6
  5 11  1  0
  8 12  1  0
 11 12  1  0
  8 13  1  0
 14 15  1  0
 14 16  1  0
 14 17  1  0
 18 19  2  0
 19 20  1  0
 20 21  1  0
 21 22  1  0
 19 23  1  0
 24 25  2  0
 25 26  1  0
 22 27  1  0
 26 27  2  0
  9 28  1  0
 27 28  1  0
 24 29  1  0
 28 29  2  0
 30 31  2  0
 14 32  1  0
 31 32  1  0
 32 33  2  0
 33 34  1  0
  1 35  1  0
 30 35  1  0
 34 35  2  0
 36 37  1  0
 37 38  1  0
 38 39  1  0
 39 40  1  0
 23 41  1  0
 36 41  1  0
 40 41  1  0
M  END
