x3115-x0426-x3110-x0734
     RDKit          3D

 61 65  0  0  0  0  0  0  0  0999 V2000
    7.8420    1.3500   23.1430 N   0  0  0  0  0  0  0  0  0  0  0  0
   13.5240    5.1730   22.4750 C   0  0  0  0  0  0  0  0  0  0  0  0
   11.9950    3.2550   22.5500 O   0  0  0  0  0  0  0  0  0  0  0  0
   12.2420    4.5330   21.9830 C   0  0  0  0  0  0  0  0  0  0  0  0
    6.9010   -1.6330   21.7080 N   0  0  0  0  0  0  0  0  0  0  0  0
   10.9380    4.2000   24.1520 O   0  0  0  0  0  0  0  0  0  0  0  0
   11.0680    3.2300   23.4200 C   0  0  0  0  0  0  0  0  0  0  0  0
    8.4920    1.3230   20.9730 O   0  0  0  0  0  0  0  0  0  0  0  0
   10.1290    2.0270   23.5650 C   0  0  0  0  0  0  0  0  0  0  0  0
    4.9690   -3.1000   20.9590 O   0  0  0  0  0  0  0  0  0  0  0  0
    8.6550    2.4460   23.4890 C   0  0  1  0  0  0  0  0  0  0  0  0
    7.7130    0.8830   21.8380 C   0  0  0  0  0  0  0  0  0  0  0  0
    6.5250   -0.1620   21.5220 C   0  0  1  0  0  0  0  0  0  0  0  0
    6.2750   -2.9030   21.3100 C   0  0  0  0  0  0  0  0  0  0  0  0
    8.2280   -4.4870   20.9500 C   0  0  0  0  0  0  0  0  0  0  0  0
   12.2310   -1.7400   24.1220 C   0  0  0  0  0  0  0  0  0  0  0  0
   12.3870   -0.5240   25.0190 C   0  0  0  0  0  0  0  0  0  0  0  0
   13.3270   -1.7140   23.0540 C   0  0  0  0  0  0  0  0  0  0  0  0
   12.5190   -2.9620   25.0040 C   0  0  0  0  0  0  0  0  0  0  0  0
    8.5320    4.8670   23.1550 O   0  0  0  0  0  0  0  0  0  0  0  0
    8.4260    3.5990   22.4730 C   0  0  0  0  0  0  0  0  0  0  0  0
    8.1740    5.9830   22.3330 C   0  0  0  0  0  0  0  0  0  0  0  0
    2.3540    1.7910   23.8040 C   0  0  0  0  0  0  0  0  0  0  0  0
    2.3160    0.5520   23.7430 O   0  0  0  0  0  0  0  0  0  0  0  0
    3.3860    2.5890   23.2450 N   0  0  0  0  0  0  0  0  0  0  0  0
    4.4410    2.0290   22.3750 C   0  0  0  0  0  0  0  0  0  0  0  0
    3.8090    1.1550   21.2920 C   0  0  0  0  0  0  0  0  0  0  0  0
    2.6550    4.1350   25.1550 F   0  0  0  0  0  0  0  0  0  0  0  0
    5.0040   -5.0720   26.6420 N   0  0  0  0  0  0  0  0  0  0  0  0
    4.3400   -5.8190   25.9060 O   0  0  0  0  0  0  0  0  0  0  0  0
    4.6390   -3.9360   27.0050 O   0  0  0  0  0  0  0  0  0  0  0  0
    6.4110    0.5750   17.8450 N   0  0  0  0  0  0  0  0  0  0  0  0
    5.2180    1.2090   17.7590 C   0  0  0  0  0  0  0  0  0  0  0  0
    4.3030    1.4190   18.9430 C   0  0  0  0  0  0  0  0  0  0  0  0
    4.7520    0.9460   20.1220 C   0  0  0  0  0  0  0  0  0  0  0  0
    6.0140    0.3160   20.1630 C   0  0  0  0  0  0  0  0  0  0  0  0
    6.8340    0.1180   19.0310 C   0  0  0  0  0  0  0  0  0  0  0  0
    9.3250   -1.6500   21.6150 C   0  0  0  0  0  0  0  0  0  0  0  0
   10.6370   -1.6820   22.1110 C   0  0  0  0  0  0  0  0  0  0  0  0
   10.8110   -1.7160   23.5070 C   0  0  0  0  0  0  0  0  0  0  0  0
    9.6910   -1.7160   24.3580 C   0  0  0  0  0  0  0  0  0  0  0  0
    8.3890   -1.6850   23.8210 C   0  0  0  0  0  0  0  0  0  0  0  0
    8.1860   -1.6550   22.4160 C   0  0  0  0  0  0  0  0  0  0  0  0
    1.3850    3.7100   25.1950 C   0  0  0  0  0  0  0  0  0  0  0  0
    1.2490    2.5150   24.5020 C   0  0  0  0  0  0  0  0  0  0  0  0
   -0.1500    1.9350   24.4810 C   0  0  0  0  0  0  0  0  0  0  0  0
   -1.1990    2.7590   25.2280 C   0  0  0  0  0  0  0  0  0  0  0  0
   -0.7170    4.0660   25.9060 C   0  0  0  0  0  0  0  0  0  0  0  0
    0.7510    4.5970   25.8820 C   0  0  0  0  0  0  0  0  0  0  0  0
    6.4110   -5.2470   26.5260 C   0  0  0  0  0  0  0  0  0  0  0  0
    7.1120   -5.1410   25.1700 C   0  0  0  0  0  0  0  0  0  0  0  0
    8.6520   -5.3170   25.0060 C   0  0  0  0  0  0  0  0  0  0  0  0
    9.4870   -5.6150   26.2550 C   0  0  0  0  0  0  0  0  0  0  0  0
    8.8330   -5.7400   27.6340 C   0  0  0  0  0  0  0  0  0  0  0  0
    7.3330   -5.5550   27.7360 C   0  0  0  0  0  0  0  0  0  0  0  0
    7.0250   -4.1450   21.4340 C   0  0  0  0  0  0  0  0  0  0  0  0
    6.0950   -5.3700   21.7720 C   0  0  0  0  0  0  0  0  0  0  0  0
    6.3180   -5.9130   23.0240 C   0  0  0  0  0  0  0  0  0  0  0  0
    6.2970   -4.8730   24.0770 N   0  0  0  0  0  0  0  0  0  0  0  0
    6.6540   -3.5560   23.6520 C   0  0  0  0  0  0  0  0  0  0  0  0
    7.6420   -3.8120   22.7630 C   0  0  0  0  0  0  0  0  0  0  0  0
  2  4  1  0
  3  4  1  0
  3  7  1  0
  6  7  2  0
  7  9  1  0
  1 11  1  0
 11  9  1  6
  1 12  1  0
  8 12  2  0
  5 13  1  0
 13 12  1  6
  5 14  1  0
 10 14  2  0
 16 17  1  0
 16 18  1  0
 16 19  1  0
 11 21  1  0
 20 21  1  0
 20 22  1  0
 23 24  2  0
 23 25  1  0
 25 26  1  0
 26 27  1  0
 29 30  2  0
 29 31  1  0
 32 33  2  0
 33 34  1  0
 27 35  1  0
 34 35  2  0
 13 36  1  0
 35 36  1  0
 32 37  1  0
 36 37  2  0
 38 39  2  0
 16 40  1  0
 39 40  1  0
 40 41  2  0
 41 42  1  0
  5 43  1  0
 38 43  1  0
 42 43  2  0
 28 44  1  0
 23 45  1  0
 44 45  2  0
 45 46  1  0
 46 47  2  0
 47 48  1  0
 44 49  1  0
 48 49  2  0
 29 50  1  0
 50 51  2  0
 51 52  1  0
 52 53  2  0
 53 54  1  0
 50 55  1  0
 54 55  2  0
 56 14  1  0
 15 56  1  0
 56 57  1  0
 57 58  1  0
 51 59  1  0
 58 59  1  0
 59 60  1  0
 56 61  1  0
 60 61  1  0
M  CHG  2  29   1  31  -1
M  END
