x3113-x1493
     RDKit          3D

 40 43  0  0  0  0  0  0  0  0999 V2000
    7.0210   -1.8350   22.1180 C   0  0  1  0  0  0  0  0  0  0  0  0
    8.2780   -4.6530   21.0110 C   0  0  0  0  0  0  0  0  0  0  0  0
    5.0130   -3.2240   20.9440 O   0  0  0  0  0  0  0  0  0  0  0  0
    6.9120   -4.5370   21.7840 C   0  0  2  0  0  0  0  0  0  0  0  0
    7.9750    1.2880   23.2800 N   0  0  0  0  0  0  0  0  0  0  0  0
    8.5750    0.9990   21.0780 O   0  0  0  0  0  0  0  0  0  0  0  0
    6.1470   -3.1260   21.5120 C   0  0  0  0  0  0  0  0  0  0  0  0
   11.6650    3.6750   22.3500 O   0  0  0  0  0  0  0  0  0  0  0  0
    6.8220   -0.3230   21.7710 C   0  0  1  0  0  0  0  0  0  0  0  0
    7.8370    0.6640   21.9980 C   0  0  0  0  0  0  0  0  0  0  0  0
    9.1070    2.2120   23.5610 C   0  0  0  0  0  0  0  0  0  0  0  0
   10.3450    1.7580   23.0890 C   0  0  0  0  0  0  0  0  0  0  0  0
   11.4460    2.7680   23.4190 C   0  0  0  0  0  0  0  0  0  0  0  0
   12.8580    4.4430   22.5300 C   0  0  0  0  0  0  0  0  0  0  0  0
   12.5810   -1.9760   24.1950 C   0  0  0  0  0  0  0  0  0  0  0  0
   13.4730   -1.6420   23.2020 C   0  0  0  0  0  0  0  0  0  0  0  0
   12.9200   -3.0070   25.0760 C   0  0  0  0  0  0  0  0  0  0  0  0
   12.7760   -0.6300   24.8360 C   0  0  0  0  0  0  0  0  0  0  0  0
    4.4940   -6.5550   25.5310 C   0  0  0  0  0  0  0  0  0  0  0  0
    6.3770   -5.5730   26.3460 O   0  0  0  0  0  0  0  0  0  0  0  0
    5.6040   -5.7230   25.4190 C   0  0  0  0  0  0  0  0  0  0  0  0
    6.5720   -2.1800   23.3030 C   0  0  0  0  0  0  0  0  0  0  0  0
    6.4350    0.2830   17.8470 N   0  0  0  0  0  0  0  0  0  0  0  0
    5.2670    1.1330   17.8820 C   0  0  0  0  0  0  0  0  0  0  0  0
    4.5890    1.5000   19.1910 C   0  0  0  0  0  0  0  0  0  0  0  0
    5.1260    1.0000   20.3870 C   0  0  0  0  0  0  0  0  0  0  0  0
    6.2480    0.1800   20.4700 C   0  0  0  0  0  0  0  0  0  0  0  0
    6.8880   -0.1660   19.1220 C   0  0  0  0  0  0  0  0  0  0  0  0
    9.7400   -2.3800   21.8440 C   0  0  0  0  0  0  0  0  0  0  0  0
   11.0270   -2.3930   22.3780 C   0  0  0  0  0  0  0  0  0  0  0  0
   11.2240   -1.9700   23.6700 C   0  0  0  0  0  0  0  0  0  0  0  0
   10.1290   -1.4850   24.5540 C   0  0  0  0  0  0  0  0  0  0  0  0
    8.7610   -1.4590   24.0180 C   0  0  0  0  0  0  0  0  0  0  0  0
    8.4950   -1.9150   22.5980 C   0  0  0  0  0  0  0  0  0  0  0  0
    5.6970   -5.0680   24.0660 N   0  0  0  0  0  0  0  0  0  0  0  0
    6.9590   -4.7960   23.3910 C   0  0  2  0  0  0  0  0  0  0  0  0
    7.3470   -3.4730   23.2650 C   0  0  1  0  0  0  0  0  0  0  0  0
    6.6430   -3.7600   21.9680 N   0  0  0  0  0  0  0  0  0  0  0  0
    5.8430   -5.0650   21.7340 C   0  0  0  0  0  0  0  0  0  0  0  0
    4.9280   -5.4480   22.9240 C   0  0  0  0  0  0  0  0  0  0  0  0
  4  2  1  1
  1  7  1  0
  3  7  2  0
  4  7  1  0
  1  9  1  0
  5 10  1  0
  6 10  2  0
  9 10  1  6
  5 11  1  0
 11 12  1  0
  8 13  1  0
 12 13  1  0
  8 14  1  0
 15 16  1  0
 15 17  1  0
 15 18  1  0
 19 21  1  0
 20 21  2  0
  1 22  1  0
 23 24  2  0
 24 25  1  0
 25 26  2  0
  9 27  1  0
 26 27  1  0
 23 28  1  0
 27 28  2  0
 29 30  2  0
 15 31  1  0
 30 31  1  0
 31 32  2  0
 32 33  1  0
  1 34  1  1
 29 34  1  0
 33 34  2  0
 21 35  1  0
  4 36  1  0
 36 35  1  1
 37 22  1  1
 36 37  1  0
 37 38  1  0
 38 39  1  0
 35 40  1  0
 39 40  1  0
M  END
