x3115-x0161
     RDKit          3D

 39 41  0  0  0  0  0  0  0  0999 V2000
    6.8580   -1.7520   21.9380 N   0  0  0  0  0  0  0  0  0  0  0  0
    6.7190   -4.9190   20.4620 C   0  0  0  0  0  0  0  0  0  0  0  0
    4.8400   -3.0770   21.2960 O   0  0  0  0  0  0  0  0  0  0  0  0
    6.8050   -4.2520   21.8110 C   0  0  0  0  0  0  0  0  0  0  0  0
    7.3280    1.6630   23.0100 N   0  0  0  0  0  0  0  0  0  0  0  0
    8.6490    0.7130   21.3830 O   0  0  0  0  0  0  0  0  0  0  0  0
    6.0800   -2.9630   21.6630 C   0  0  0  0  0  0  0  0  0  0  0  0
    8.8680    5.0470   22.5830 N   0  0  0  0  0  0  0  0  0  0  0  0
    6.4770   -0.2840   21.7100 C   0  0  1  0  0  0  0  0  0  0  0  0
    7.5990    0.7280   22.0180 C   0  0  0  0  0  0  0  0  0  0  0  0
    8.2940    2.6870   23.2740 C   0  0  0  0  0  0  0  0  0  0  0  0
    7.8890    4.1420   22.8490 C   0  0  0  0  0  0  0  0  0  0  0  0
    8.2500    6.2150   22.2400 C   0  0  0  0  0  0  0  0  0  0  0  0
   12.2760   -1.6520   24.2040 C   0  0  0  0  0  0  0  0  0  0  0  0
   12.9850   -2.7330   23.7320 C   0  0  0  0  0  0  0  0  0  0  0  0
   12.9430   -2.7000   25.1570 C   0  0  0  0  0  0  0  0  0  0  0  0
   13.1100   -0.5150   23.6250 C   0  0  0  0  0  0  0  0  0  0  0  0
   13.8620    0.0400   22.8320 O   0  0  0  0  0  0  0  0  0  0  0  0
   10.1360    5.1760   23.6870 S   0  0  0  0  0  0  0  0  0  0  0  0
   11.0500    6.1850   23.1850 O   0  0  0  0  0  0  0  0  0  0  0  0
    9.5650    5.3530   25.0060 O   0  0  0  0  0  0  0  0  0  0  0  0
    6.3720    0.3790   17.8670 N   0  0  0  0  0  0  0  0  0  0  0  0
    5.1850    1.2640   17.7570 C   0  0  0  0  0  0  0  0  0  0  0  0
    4.4790    1.5660   18.9130 C   0  0  0  0  0  0  0  0  0  0  0  0
    4.8600    1.0790   20.1490 C   0  0  0  0  0  0  0  0  0  0  0  0
    5.9710    0.2610   20.3040 C   0  0  0  0  0  0  0  0  0  0  0  0
    6.7470   -0.1220   19.2240 C   0  0  0  0  0  0  0  0  0  0  0  0
    9.3470   -1.4970   21.7370 C   0  0  0  0  0  0  0  0  0  0  0  0
   10.6160   -1.4920   22.3510 C   0  0  0  0  0  0  0  0  0  0  0  0
   10.8270   -1.7510   23.6990 C   0  0  0  0  0  0  0  0  0  0  0  0
    9.7020   -2.0580   24.4750 C   0  0  0  0  0  0  0  0  0  0  0  0
    8.4130   -2.0720   23.8820 C   0  0  0  0  0  0  0  0  0  0  0  0
    8.2450   -1.7790   22.5100 C   0  0  0  0  0  0  0  0  0  0  0  0
   12.1820    1.0820   23.4610 C   0  0  0  0  0  0  0  0  0  0  0  0
   12.7950    2.2230   22.9400 C   0  0  0  0  0  0  0  0  0  0  0  0
   12.1420    3.4470   23.0220 C   0  0  0  0  0  0  0  0  0  0  0  0
   10.8960    3.6010   23.6100 C   0  0  0  0  0  0  0  0  0  0  0  0
   10.3220    2.4340   24.1190 C   0  0  0  0  0  0  0  0  0  0  0  0
   10.9340    1.1920   24.0540 C   0  0  0  0  0  0  0  0  0  0  0  0
  2  4  1  0
  1  7  1  0
  3  7  2  0
  4  7  1  0
  1  9  1  0
  5 10  1  0
  6 10  2  0
  9 10  1  6
  5 11  1  0
  8 12  1  0
 11 12  1  0
  8 13  1  0
 14 15  1  0
 14 16  1  0
 14 17  1  0
 17 18  2  0
 19  8  1  0
 19 20  2  0
 19 21  2  0
 22 23  2  0
 23 24  1  0
 24 25  2  0
  9 26  1  0
 25 26  1  0
 22 27  1  0
 26 27  2  0
 28 29  2  0
 14 30  1  0
 29 30  1  0
 30 31  2  0
 31 32  1  0
  1 33  1  0
 28 33  1  0
 32 33  2  0
 34 35  2  0
 35 36  1  0
 19 37  1  0
 36 37  2  0
 37 38  1  0
 34 39  1  0
 38 39  2  0
M  END
