x3110-x3113-x0981
     RDKit          3D

 44 45  0  0  0  0  0  0  0  0999 V2000
    8.0030    0.7490   23.2560 N   0  0  0  0  0  0  0  0  0  0  0  0
   13.4590    5.0460   22.5600 C   0  0  0  0  0  0  0  0  0  0  0  0
   11.8990    3.2170   22.5650 O   0  0  0  0  0  0  0  0  0  0  0  0
   12.2260    4.3160   22.1050 C   0  0  0  0  0  0  0  0  0  0  0  0
    6.9150   -1.7440   21.7270 N   0  0  0  0  0  0  0  0  0  0  0  0
   10.7550    4.2060   24.1280 O   0  0  0  0  0  0  0  0  0  0  0  0
   10.9990    3.2360   23.4340 C   0  0  0  0  0  0  0  0  0  0  0  0
    8.5430    1.2380   20.9490 O   0  0  0  0  0  0  0  0  0  0  0  0
   10.2640    1.8560   23.4830 C   0  0  0  0  0  0  0  0  0  0  0  0
    4.6730   -2.9270   21.4030 O   0  0  0  0  0  0  0  0  0  0  0  0
    8.7050    1.9010   23.6900 C   0  0  0  0  0  0  0  0  0  0  0  0
    7.7830    0.4970   21.9120 C   0  0  0  0  0  0  0  0  0  0  0  0
    6.6450   -0.5490   21.5970 C   0  0  1  0  0  0  0  0  0  0  0  0
    5.9460   -2.9270   21.4680 C   0  0  0  0  0  0  0  0  0  0  0  0
    6.3070   -4.3850   21.1550 C   0  0  1  0  0  0  0  0  0  0  0  0
    7.8400   -4.5020   21.0160 C   0  0  0  0  0  0  0  0  0  0  0  0
   12.1580   -1.9340   24.3490 C   0  0  0  0  0  0  0  0  0  0  0  0
   12.7340   -0.7390   24.7090 C   0  0  0  0  0  0  0  0  0  0  0  0
   13.2340   -1.5420   23.4290 C   0  0  0  0  0  0  0  0  0  0  0  0
   12.6160   -3.1090   25.1450 C   0  0  0  0  0  0  0  0  0  0  0  0
    1.4070   -8.4060   21.7900 C   0  0  0  0  0  0  0  0  0  0  0  0
    3.0630   -6.9390   22.6470 N   0  0  0  0  0  0  0  0  0  0  0  0
    0.8430   -6.3320   22.5350 O   0  0  0  0  0  0  0  0  0  0  0  0
    1.7320   -7.1640   22.3550 C   0  0  0  0  0  0  0  0  0  0  0  0
    2.3630   -7.9030   26.1380 N   0  0  0  0  0  0  0  0  0  0  0  0
    4.1690   -8.1060   24.4760 O   0  0  0  0  0  0  0  0  0  0  0  0
    3.3150   -5.8170   23.3850 C   0  0  1  0  0  0  0  0  0  0  0  0
    5.5270   -5.4280   22.0090 N   0  0  0  0  0  0  0  0  0  0  0  0
    5.2030   -4.5410   24.0780 O   0  0  0  0  0  0  0  0  0  0  0  0
    3.1110   -6.0010   24.7670 C   0  0  0  0  0  0  0  0  0  0  0  0
    3.2450   -7.3480   25.0940 C   0  0  0  0  0  0  0  0  0  0  0  0
    4.7540   -5.2260   23.1680 C   0  0  0  0  0  0  0  0  0  0  0  0
    6.3380    0.4290   17.8870 N   0  0  0  0  0  0  0  0  0  0  0  0
    5.2230    1.2390   17.7530 C   0  0  0  0  0  0  0  0  0  0  0  0
    4.6400    1.3520   19.0090 C   0  0  0  0  0  0  0  0  0  0  0  0
    5.0420    0.8040   20.2060 C   0  0  0  0  0  0  0  0  0  0  0  0
    6.1570    0.0230   20.2850 C   0  0  0  0  0  0  0  0  0  0  0  0
    6.7820   -0.1440   19.0650 C   0  0  0  0  0  0  0  0  0  0  0  0
    9.4130   -1.4990   21.7460 C   0  0  0  0  0  0  0  0  0  0  0  0
   10.6900   -1.5340   22.3430 C   0  0  0  0  0  0  0  0  0  0  0  0
   10.8320   -1.9200   23.6810 C   0  0  0  0  0  0  0  0  0  0  0  0
    9.7090   -2.2850   24.4140 C   0  0  0  0  0  0  0  0  0  0  0  0
    8.4030   -2.2790   23.8760 C   0  0  0  0  0  0  0  0  0  0  0  0
    8.2100   -1.8410   22.4020 C   0  0  0  0  0  0  0  0  0  0  0  0
  2  4  1  0
  3  4  1  0
  3  7  1  0
  6  7  2  0
  7  9  1  0
  1 11  1  0
  9 11  1  0
  1 12  1  0
  8 12  2  0
  5 13  1  0
 13 12  1  6
  5 14  1  0
 10 14  2  0
 14 15  1  0
 15 16  1  1
 17 18  1  0
 17 19  1  0
 17 20  1  0
 21 24  1  0
 22 24  1  0
 23 24  2  0
 22 27  1  0
 15 28  1  0
 27 30  1  1
 25 31  1  0
 26 31  2  0
 30 31  1  0
 27 32  1  0
 28 32  1  0
 29 32  2  0
 33 34  2  0
 34 35  1  0
 35 36  2  0
 13 37  1  0
 36 37  1  0
 33 38  1  0
 37 38  2  0
 39 40  2  0
 17 41  1  0
 40 41  1  0
 41 42  2  0
 42 43  1  0
  5 44  1  0
 39 44  1  0
 43 44  2  0
M  END
