x3113-x2908
     RDKit          3D

 33 34  0  0  0  0  0  0  0  0999 V2000
    7.0630   -1.8530   21.9460 N   0  0  0  0  0  0  0  0  0  0  0  0
    8.2190   -4.5450   20.9870 C   0  0  0  0  0  0  0  0  0  0  0  0
    4.9130   -3.1150   21.2000 O   0  0  0  0  0  0  0  0  0  0  0  0
    6.8300   -4.4110   21.6630 C   0  0  0  0  0  0  0  0  0  0  0  0
    8.0860    1.2940   23.1060 N   0  0  0  0  0  0  0  0  0  0  0  0
    8.9540    0.3760   21.2610 O   0  0  0  0  0  0  0  0  0  0  0  0
    6.1860   -3.0320   21.5750 C   0  0  0  0  0  0  0  0  0  0  0  0
   11.5250    3.8930   23.3490 O   0  0  0  0  0  0  0  0  0  0  0  0
    6.8200   -0.3330   21.7580 C   0  0  1  0  0  0  0  0  0  0  0  0
    8.0080    0.4350   22.0160 C   0  0  0  0  0  0  0  0  0  0  0  0
    9.1420    2.3440   23.1260 C   0  0  0  0  0  0  0  0  0  0  0  0
   10.3300    1.8920   23.7320 C   0  0  0  0  0  0  0  0  0  0  0  0
   11.5200    2.4700   23.2460 C   0  0  0  0  0  0  0  0  0  0  0  0
   12.7530    4.4430   22.8540 C   0  0  0  0  0  0  0  0  0  0  0  0
   12.3460   -2.1100   24.5480 C   0  0  0  0  0  0  0  0  0  0  0  0
   13.3110   -2.1540   23.5960 C   0  0  0  0  0  0  0  0  0  0  0  0
   12.7760   -3.2250   25.5160 C   0  0  0  0  0  0  0  0  0  0  0  0
   12.5120   -0.7200   25.1640 C   0  0  0  0  0  0  0  0  0  0  0  0
    4.4870    1.5810   21.5840 C   0  0  0  0  0  0  0  0  0  0  0  0
    6.4400    0.2010   17.8920 N   0  0  0  0  0  0  0  0  0  0  0  0
    5.3300    1.1210   17.8550 C   0  0  0  0  0  0  0  0  0  0  0  0
    4.7140    1.5490   19.0160 C   0  0  0  0  0  0  0  0  0  0  0  0
    5.2120    1.0520   20.3700 C   0  0  0  0  0  0  0  0  0  0  0  0
    6.2820    0.1670   20.4270 C   0  0  0  0  0  0  0  0  0  0  0  0
    6.8700   -0.2340   19.0860 C   0  0  0  0  0  0  0  0  0  0  0  0
    9.5960   -2.2950   21.8250 C   0  0  0  0  0  0  0  0  0  0  0  0
   10.8190   -2.3560   22.4130 C   0  0  0  0  0  0  0  0  0  0  0  0
   10.9560   -2.0810   23.9040 C   0  0  0  0  0  0  0  0  0  0  0  0
    9.7830   -1.7930   24.5910 C   0  0  0  0  0  0  0  0  0  0  0  0
    8.4840   -1.7210   24.0160 C   0  0  0  0  0  0  0  0  0  0  0  0
    8.3910   -1.9580   22.6490 C   0  0  0  0  0  0  0  0  0  0  0  0
   13.3350   -1.7210   21.0600 Cl  0  0  0  0  0  0  0  0  0  0  0  0
   13.1650   -1.0420   22.5960 C   0  0  0  0  0  0  0  0  0  0  0  0
  2  4  1  0
  1  7  1  0
  3  7  2  0
  4  7  1  0
  1  9  1  0
  5 10  1  0
  6 10  2  0
  9 10  1  6
  5 11  1  0
 11 12  1  0
  8 13  1  0
 12 13  1  0
  8 14  1  0
 15 16  1  0
 15 17  1  0
 15 18  1  0
 20 21  2  0
 21 22  1  0
 19 23  1  0
 22 23  2  0
  9 24  1  0
 23 24  1  0
 20 25  1  0
 24 25  2  0
 26 27  2  0
 15 28  1  0
 27 28  1  0
 28 29  2  0
 29 30  1  0
  1 31  1  0
 26 31  1  0
 30 31  2  0
 16 33  1  0
 32 33  1  0
M  END
