x3113-x2572
     RDKit          3D

 34 35  0  0  0  0  0  0  0  0999 V2000
    7.0580   -1.8560   21.9330 N   0  0  0  0  0  0  0  0  0  0  0  0
    8.1760   -4.5720   20.9980 C   0  0  0  0  0  0  0  0  0  0  0  0
    4.9100   -3.1090   21.1960 O   0  0  0  0  0  0  0  0  0  0  0  0
    6.8000   -4.4150   21.6890 C   0  0  0  0  0  0  0  0  0  0  0  0
    8.0390    1.2360   23.1780 N   0  0  0  0  0  0  0  0  0  0  0  0
    8.8800    0.4740   21.2410 O   0  0  0  0  0  0  0  0  0  0  0  0
    6.1750   -3.0340   21.5790 C   0  0  0  0  0  0  0  0  0  0  0  0
   11.6170    3.6630   22.4210 O   0  0  0  0  0  0  0  0  0  0  0  0
    6.7920   -0.3430   21.7630 C   0  0  1  0  0  0  0  0  0  0  0  0
    7.9610    0.4520   22.0330 C   0  0  0  0  0  0  0  0  0  0  0  0
    9.0710    2.3060   23.2890 C   0  0  0  0  0  0  0  0  0  0  0  0
   10.3760    1.7970   23.1600 C   0  0  0  0  0  0  0  0  0  0  0  0
   11.4030    2.7110   23.4540 C   0  0  0  0  0  0  0  0  0  0  0  0
   12.8280    4.3990   22.6330 C   0  0  0  0  0  0  0  0  0  0  0  0
   12.3420   -2.1090   24.5530 C   0  0  0  0  0  0  0  0  0  0  0  0
   13.3180   -2.1320   23.6120 C   0  0  0  0  0  0  0  0  0  0  0  0
   12.7810   -3.2270   25.5090 C   0  0  0  0  0  0  0  0  0  0  0  0
   12.5040   -0.7230   25.1720 C   0  0  0  0  0  0  0  0  0  0  0  0
    4.3810    1.4950   21.5800 C   0  0  0  0  0  0  0  0  0  0  0  0
    6.4510    0.2430   17.8990 N   0  0  0  0  0  0  0  0  0  0  0  0
    5.3130    1.1250   17.8590 C   0  0  0  0  0  0  0  0  0  0  0  0
    4.6610    1.5140   19.0170 C   0  0  0  0  0  0  0  0  0  0  0  0
    5.1540    1.0100   20.3720 C   0  0  0  0  0  0  0  0  0  0  0  0
    6.2520    0.1640   20.4320 C   0  0  0  0  0  0  0  0  0  0  0  0
    6.8770   -0.1970   19.0940 C   0  0  0  0  0  0  0  0  0  0  0  0
    9.5950   -2.3030   21.8170 C   0  0  0  0  0  0  0  0  0  0  0  0
   10.8170   -2.3620   22.4130 C   0  0  0  0  0  0  0  0  0  0  0  0
   10.9500   -2.0830   23.8990 C   0  0  0  0  0  0  0  0  0  0  0  0
    9.7750   -1.7920   24.5830 C   0  0  0  0  0  0  0  0  0  0  0  0
    8.4760   -1.7190   24.0040 C   0  0  0  0  0  0  0  0  0  0  0  0
    8.3880   -1.9610   22.6380 C   0  0  0  0  0  0  0  0  0  0  0  0
   13.9860   -1.2010   20.3140 N   0  0  0  0  0  0  0  0  0  0  0  0
   13.0860   -1.8020   21.2310 C   0  0  0  0  0  0  0  0  0  0  0  0
   13.0950   -1.0930   22.5430 C   0  0  0  0  0  0  0  0  0  0  0  0
  2  4  1  0
  1  7  1  0
  3  7  2  0
  4  7  1  0
  1  9  1  0
  5 10  1  0
  6 10  2  0
  9 10  1  6
  5 11  1  0
 11 12  1  0
  8 13  1  0
 12 13  1  0
  8 14  1  0
 15 16  1  0
 15 17  1  0
 15 18  1  0
 20 21  2  0
 21 22  1  0
 19 23  1  0
 22 23  2  0
  9 24  1  0
 23 24  1  0
 20 25  1  0
 24 25  2  0
 26 27  2  0
 15 28  1  0
 27 28  1  0
 28 29  2  0
 29 30  1  0
  1 31  1  0
 26 31  1  0
 30 31  2  0
 32 33  3  0
 16 34  1  0
 33 34  1  0
M  END
