x3115-x0759
     RDKit          3D

 32 35  0  0  0  0  0  0  0  0999 V2000
    6.5370   -4.7130   20.0310 C   0  0  0  0  0  0  0  0  0  0  0  0
    4.7840   -2.9830   21.3010 O   0  0  0  0  0  0  0  0  0  0  0  0
    6.6350   -4.3860   21.4790 C   0  0  0  0  0  0  0  0  0  0  0  0
    7.4850    1.3730   22.8730 N   0  0  0  0  0  0  0  0  0  0  0  0
    9.0470    1.1880   21.1760 O   0  0  0  0  0  0  0  0  0  0  0  0
    6.0760   -3.0210   21.5810 C   0  0  0  0  0  0  0  0  0  0  0  0
    8.4000    4.9810   23.0880 O   0  0  0  0  0  0  0  0  0  0  0  0
    7.4080   -0.5970   21.1790 C   0  0  2  0  0  0  0  0  0  0  0  0
    8.0700    0.6930   21.7320 C   0  0  0  0  0  0  0  0  0  0  0  0
    8.1300    2.5010   23.3800 C   0  0  0  0  0  0  0  0  0  0  0  0
    7.8400    3.7820   22.5100 C   0  0  0  0  0  0  0  0  0  0  0  0
    8.2360    6.0950   22.3120 C   0  0  0  0  0  0  0  0  0  0  0  0
   11.9930   -1.5450   23.9070 C   0  0  0  0  0  0  0  0  0  0  0  0
   13.0390   -2.1320   23.1750 C   0  0  0  0  0  0  0  0  0  0  0  0
   12.7530   -2.6910   24.6640 C   0  0  0  0  0  0  0  0  0  0  0  0
   12.3710   -0.2280   24.5950 C   0  0  0  0  0  0  0  0  0  0  0  0
    6.2120    0.3760   17.7240 N   0  0  0  0  0  0  0  0  0  0  0  0
    5.0390    1.0920   17.9100 C   0  0  0  0  0  0  0  0  0  0  0  0
    4.5430    1.2650   19.2030 C   0  0  0  0  0  0  0  0  0  0  0  0
    5.2080    0.7490   20.3340 C   0  0  0  0  0  0  0  0  0  0  0  0
    6.4100    0.0400   20.1170 C   0  0  0  0  0  0  0  0  0  0  0  0
    6.9210   -0.1710   18.8650 C   0  0  0  0  0  0  0  0  0  0  0  0
    8.5310   -2.7570   22.3340 C   0  0  1  0  0  0  0  0  0  0  0  0
    9.9480   -2.3990   22.4320 C   0  0  0  0  0  0  0  0  0  0  0  0
   10.5020   -1.9020   23.6420 C   0  0  0  0  0  0  0  0  0  0  0  0
    9.5890   -1.7200   24.6680 C   0  0  0  0  0  0  0  0  0  0  0  0
    8.3940   -1.2100   24.1350 C   0  0  0  0  0  0  0  0  0  0  0  0
    7.7690   -2.1810   23.3470 C   0  0  1  0  0  0  0  0  0  0  0  0
    7.2290   -1.9460   22.0240 C   0  0  2  0  0  0  0  0  0  0  0  0
    7.2270   -3.2900   24.2240 O   0  0  0  0  0  0  0  0  0  0  0  0
    7.5600   -4.4540   23.5720 C   0  0  0  0  0  0  0  0  0  0  0  0
    8.3060   -4.1980   22.4730 C   0  0  0  0  0  0  0  0  0  0  0  0
  1  3  1  0
  2  6  2  0
  3  6  1  0
  4  9  1  0
  5  9  2  0
  8  9  1  1
  4 10  1  0
  7 11  1  0
 10 11  1  0
  7 12  1  0
 13 14  1  0
 13 15  1  0
 13 16  1  0
 17 18  2  0
 18 19  1  0
 19 20  2  0
  8 21  1  0
 20 21  1  0
 17 22  1  0
 21 22  2  0
 23 24  1  6
 13 25  1  0
 24 25  2  0
 25 26  1  0
 26 27  1  0
 23 28  1  0
 28 27  1  1
 29  6  1  1
  8 29  1  0
 23 29  1  0
 28 29  1  0
 28 30  1  0
 30 31  1  0
 23 32  1  0
 31 32  2  0
M  END
