x3113-x0769
     RDKit          3D

 47 51  0  0  0  0  0  0  0  0999 V2000
    6.9470   -1.5790   22.0200 C   0  0  1  0  0  0  0  0  0  0  0  0
    7.6780   -3.7460   20.3460 C   0  0  0  0  0  0  0  0  0  0  0  0
    4.8120   -3.0730   21.3150 O   0  0  0  0  0  0  0  0  0  0  0  0
    6.6830   -2.7030   19.9980 C   0  0  0  0  0  0  0  0  0  0  0  0
    8.1560    1.5190   23.2350 N   0  0  0  0  0  0  0  0  0  0  0  0
    8.5090    1.2600   20.9800 O   0  0  0  0  0  0  0  0  0  0  0  0
    5.9320   -2.5120   21.1900 C   0  0  0  0  0  0  0  0  0  0  0  0
   11.6240    4.0090   23.3760 O   0  0  0  0  0  0  0  0  0  0  0  0
    6.7900   -0.0370   21.8630 C   0  0  1  0  0  0  0  0  0  0  0  0
    7.8560    0.9220   21.9780 C   0  0  0  0  0  0  0  0  0  0  0  0
    9.3030    2.4620   23.3480 C   0  0  0  0  0  0  0  0  0  0  0  0
   10.5140    1.8520   23.7040 C   0  0  0  0  0  0  0  0  0  0  0  0
   11.7230    2.6140   23.1320 C   0  0  0  0  0  0  0  0  0  0  0  0
   12.7970    4.6990   22.9350 C   0  0  0  0  0  0  0  0  0  0  0  0
   12.4940   -1.9630   24.1880 C   0  0  0  0  0  0  0  0  0  0  0  0
   13.3910   -1.6270   23.1860 C   0  0  0  0  0  0  0  0  0  0  0  0
   12.8590   -2.9940   25.0520 C   0  0  0  0  0  0  0  0  0  0  0  0
   12.7380   -0.6230   24.8330 C   0  0  0  0  0  0  0  0  0  0  0  0
    5.7520   -5.3680   26.6470 O   0  0  0  0  0  0  0  0  0  0  0  0
    3.8250   -6.7120   25.4830 O   0  0  0  0  0  0  0  0  0  0  0  0
    5.7050   -2.4690   26.1790 F   0  0  0  0  0  0  0  0  0  0  0  0
    4.7840   -5.4440   25.5770 S   0  0  0  0  0  0  0  0  0  0  0  0
    6.5920   -2.4490   23.2060 C   0  0  0  0  0  0  0  0  0  0  0  0
    6.4630    0.3380   18.0050 N   0  0  0  0  0  0  0  0  0  0  0  0
    5.2880    1.1050   17.9270 C   0  0  0  0  0  0  0  0  0  0  0  0
    4.5080    1.5450   19.1520 C   0  0  0  0  0  0  0  0  0  0  0  0
    4.9660    1.1850   20.4110 C   0  0  0  0  0  0  0  0  0  0  0  0
    6.2460    0.3570   20.5020 C   0  0  0  0  0  0  0  0  0  0  0  0
    6.9350   -0.0360   19.3420 C   0  0  0  0  0  0  0  0  0  0  0  0
    9.5130   -2.2660   21.6840 C   0  0  0  0  0  0  0  0  0  0  0  0
   10.9200   -2.3380   22.2980 C   0  0  0  0  0  0  0  0  0  0  0  0
   11.1070   -1.9100   23.6040 C   0  0  0  0  0  0  0  0  0  0  0  0
   10.0360   -1.4270   24.3470 C   0  0  0  0  0  0  0  0  0  0  0  0
    8.7940   -1.3650   23.7830 C   0  0  0  0  0  0  0  0  0  0  0  0
    8.4390   -1.7890   22.3680 C   0  0  0  0  0  0  0  0  0  0  0  0
    4.3870   -2.6320   26.0250 C   0  0  0  0  0  0  0  0  0  0  0  0
    3.7610   -3.9940   25.7290 C   0  0  0  0  0  0  0  0  0  0  0  0
    2.2470   -4.1210   25.5670 C   0  0  0  0  0  0  0  0  0  0  0  0
    1.3540   -2.8860   25.7040 C   0  0  0  0  0  0  0  0  0  0  0  0
    1.9660   -1.5190   26.0000 C   0  0  0  0  0  0  0  0  0  0  0  0
    3.4880   -1.3870   26.1610 C   0  0  0  0  0  0  0  0  0  0  0  0
    7.1660   -4.6000   21.5730 N   0  0  0  0  0  0  0  0  0  0  0  0
    5.8380   -5.3410   21.5460 C   0  0  0  0  0  0  0  0  0  0  0  0
    4.9170   -5.1690   22.7830 C   0  0  0  0  0  0  0  0  0  0  0  0
    5.6400   -5.3290   24.0790 N   0  0  0  0  0  0  0  0  0  0  0  0
    6.9320   -4.6970   24.1730 C   0  0  0  0  0  0  0  0  0  0  0  0
    7.3370   -3.8850   22.9470 C   0  0  2  0  0  0  0  0  0  0  0  0
  2  4  1  0
  1  7  1  0
  3  7  2  0
  4  7  1  0
  1  9  1  0
  5 10  1  0
  6 10  2  0
  9 10  1  6
  5 11  1  0
 11 12  1  0
  8 13  1  0
 12 13  1  0
  8 14  1  0
 15 16  1  0
 15 17  1  0
 15 18  1  0
 19 22  2  0
 20 22  2  0
  1 23  1  0
 24 25  2  0
 25 26  1  0
 26 27  2  0
  9 28  1  0
 27 28  1  0
 24 29  1  0
 28 29  2  0
 30 31  2  0
 15 32  1  0
 31 32  1  0
 32 33  2  0
 33 34  1  0
  1 35  1  6
 30 35  1  0
 34 35  2  0
 21 36  1  0
 22 37  1  0
 36 37  2  0
 37 38  1  0
 38 39  2  0
 39 40  1  0
 36 41  1  0
 40 41  2  0
  2 42  1  0
 42 43  1  0
 43 44  1  0
 22 45  1  0
 44 45  1  0
 45 46  1  0
 47 23  1  6
 42 47  1  0
 46 47  1  0
M  END
