x3115-x2646-x2754-x3113
     RDKit          3D

 51 55  0  0  0  0  0  0  0  0999 V2000
    6.9460   -1.8150   22.1390 C   0  0  2  0  0  0  0  0  0  0  0  0
    8.0970   -4.8230   21.1270 C   0  0  0  0  0  0  0  0  0  0  0  0
    5.0270   -3.2020   20.8980 O   0  0  0  0  0  0  0  0  0  0  0  0
    8.0340    1.6440   22.8520 N   0  0  0  0  0  0  0  0  0  0  0  0
    9.1480    0.3010   21.4020 O   0  0  0  0  0  0  0  0  0  0  0  0
    6.1630   -3.0610   21.5300 C   0  0  0  0  0  0  0  0  0  0  0  0
   12.3430    3.5810   22.7030 O   0  0  0  0  0  0  0  0  0  0  0  0
    6.7960   -0.2600   21.7420 C   0  0  1  0  0  0  0  0  0  0  0  0
    8.1020    0.5690   21.9800 C   0  0  0  0  0  0  0  0  0  0  0  0
    8.8500    2.7730   22.7160 C   0  0  2  0  0  0  0  0  0  0  0  0
   10.2450    2.5930   23.4080 C   0  0  0  0  0  0  0  0  0  0  0  0
   11.1110    3.8690   23.3250 C   0  0  0  0  0  0  0  0  0  0  0  0
   13.1850    4.7360   22.6580 C   0  0  0  0  0  0  0  0  0  0  0  0
   12.3440   -2.0450   24.5190 C   0  0  0  0  0  0  0  0  0  0  0  0
   13.3940   -2.1180   23.4800 C   0  0  0  0  0  0  0  0  0  0  0  0
   12.7300   -3.1310   25.4520 C   0  0  0  0  0  0  0  0  0  0  0  0
   12.5250   -0.6850   25.1730 C   0  0  0  0  0  0  0  0  0  0  0  0
    8.7730    5.0590   23.0250 O   0  0  0  0  0  0  0  0  0  0  0  0
    8.0770    4.0420   23.1540 C   0  0  0  0  0  0  0  0  0  0  0  0
    8.2200    5.9470   22.3690 C   0  0  0  0  0  0  0  0  0  0  0  0
    4.4880    1.5300   21.3870 C   0  0  0  0  0  0  0  0  0  0  0  0
    4.6950   -3.1270   25.1510 C   0  0  0  0  0  0  0  0  0  0  0  0
    3.4840   -3.2770   25.2910 O   0  0  0  0  0  0  0  0  0  0  0  0
    5.5400   -2.8060   26.2600 N   0  0  0  0  0  0  0  0  0  0  0  0
    5.0080   -2.0320   27.4010 C   0  0  0  0  0  0  0  0  0  0  0  0
    6.4040    0.1830   18.0140 N   0  0  0  0  0  0  0  0  0  0  0  0
    5.3580    1.0070   17.9260 C   0  0  0  0  0  0  0  0  0  0  0  0
    4.6960    1.4710   19.0220 C   0  0  0  0  0  0  0  0  0  0  0  0
    5.1630    1.0490   20.2640 C   0  0  0  0  0  0  0  0  0  0  0  0
    6.2710    0.1790   20.3870 C   0  0  0  0  0  0  0  0  0  0  0  0
    6.8770   -0.2460   19.2390 C   0  0  0  0  0  0  0  0  0  0  0  0
    9.5760   -2.3100   21.8620 C   0  0  0  0  0  0  0  0  0  0  0  0
   10.8500   -2.3620   22.4540 C   0  0  0  0  0  0  0  0  0  0  0  0
   11.0040   -2.0240   23.8050 C   0  0  0  0  0  0  0  0  0  0  0  0
    9.9150   -1.6380   24.5410 C   0  0  0  0  0  0  0  0  0  0  0  0
    8.6620   -1.5810   23.9740 C   0  0  0  0  0  0  0  0  0  0  0  0
    8.4480   -1.9210   22.6150 C   0  0  0  0  0  0  0  0  0  0  0  0
    6.9170   -4.2980   21.9550 C   0  0  2  0  0  0  0  0  0  0  0  0
    7.4070   -3.6360   23.2520 C   0  0  0  0  0  0  0  0  0  0  0  0
    6.4490   -2.6510   23.4610 C   0  0  2  0  0  0  0  0  0  0  0  0
    5.2250   -3.2930   23.6910 C   0  0  1  0  0  0  0  0  0  0  0  0
    4.9880   -4.6500   23.2820 C   0  0  0  0  0  0  0  0  0  0  0  0
    5.9100   -5.3120   22.4310 C   0  0  0  0  0  0  0  0  0  0  0  0
    6.8770   -4.6550   27.2510 C   0  0  0  0  0  0  0  0  0  0  0  0
    8.0950   -5.2690   27.5380 C   0  0  0  0  0  0  0  0  0  0  0  0
    9.3400   -4.7150   27.1400 C   0  0  0  0  0  0  0  0  0  0  0  0
    9.2640   -3.4790   26.4160 C   0  0  0  0  0  0  0  0  0  0  0  0
    8.0060   -2.8580   26.1310 C   0  0  0  0  0  0  0  0  0  0  0  0
    6.8080   -3.4530   26.5510 C   0  0  0  0  0  0  0  0  0  0  0  0
   13.3630   -1.7610   20.9330 Cl  0  0  0  0  0  0  0  0  0  0  0  0
   13.2220   -1.0070   22.4950 C   0  0  0  0  0  0  0  0  0  0  0  0
  1  6  1  0
  3  6  2  0
  1  8  1  0
  4  9  1  0
  5  9  2  0
  8  9  1  6
  4 10  1  0
 10 11  1  1
  7 12  1  0
 11 12  1  0
  7 13  1  0
 14 15  1  0
 14 16  1  0
 14 17  1  0
 10 19  1  0
 18 19  1  0
 18 20  1  0
 22 23  2  0
 22 24  1  0
 24 25  1  0
 26 27  2  0
 27 28  1  0
 21 29  1  0
 28 29  2  0
  8 30  1  0
 29 30  1  0
 26 31  1  0
 30 31  2  0
 32 33  2  0
 14 34  1  0
 33 34  1  0
 34 35  2  0
 35 36  1  0
  1 37  1  6
 32 37  1  0
 36 37  2  0
 38  2  1  6
  6 38  1  0
 38 39  1  0
  1 40  1  0
 40 39  1  6
 41 22  1  1
 40 41  1  0
 41 42  1  0
 38 43  1  0
 42 43  1  0
 44 45  2  0
 45 46  1  0
 46 47  2  0
 47 48  1  0
 24 49  1  0
 44 49  1  0
 48 49  2  0
 15 51  1  0
 50 51  1  0
M  END
