x3110-x0978-x1375
     RDKit          3D

 51 56  0  0  0  0  0  0  0  0999 V2000
    7.8820    0.9790   23.2990 N   0  0  0  0  0  0  0  0  0  0  0  0
   13.3660    5.1500   22.7810 C   0  0  0  0  0  0  0  0  0  0  0  0
   11.8550    3.1160   22.5510 O   0  0  0  0  0  0  0  0  0  0  0  0
   12.2830    4.3810   22.0440 C   0  0  0  0  0  0  0  0  0  0  0  0
    6.9590   -1.7790   21.7570 N   0  0  0  0  0  0  0  0  0  0  0  0
   10.8990    4.1960   24.1300 O   0  0  0  0  0  0  0  0  0  0  0  0
   10.9950    3.2090   23.4120 C   0  0  0  0  0  0  0  0  0  0  0  0
    8.6910    0.4520   21.1960 O   0  0  0  0  0  0  0  0  0  0  0  0
   10.0420    1.9920   23.5090 C   0  0  0  0  0  0  0  0  0  0  0  0
    4.8390   -2.9860   21.0500 O   0  0  0  0  0  0  0  0  0  0  0  0
    8.6780    2.2250   23.2070 C   0  0  0  0  0  0  0  0  0  0  0  0
    7.7950    0.2590   22.0150 C   0  0  0  0  0  0  0  0  0  0  0  0
    6.6590   -0.5880   21.7240 C   0  0  1  0  0  0  0  0  0  0  0  0
    6.0030   -2.9670   21.6000 C   0  0  0  0  0  0  0  0  0  0  0  0
    6.3220   -4.4050   22.1020 C   0  0  1  0  0  0  0  0  0  0  0  0
    6.5510   -5.2360   20.7820 C   0  0  0  0  0  0  0  0  0  0  0  0
   12.3900   -1.7470   24.3100 C   0  0  0  0  0  0  0  0  0  0  0  0
   12.5750   -0.5190   24.8990 C   0  0  0  0  0  0  0  0  0  0  0  0
   13.3810   -1.8570   23.1260 C   0  0  0  0  0  0  0  0  0  0  0  0
   12.6480   -2.8820   25.0790 C   0  0  0  0  0  0  0  0  0  0  0  0
    2.1750   -5.3660   22.8510 N   0  0  0  0  0  0  0  0  0  0  0  0
    2.4160   -7.4270   24.4510 C   0  0  0  0  0  0  0  0  0  0  0  0
    4.6530   -8.1590   24.6020 O   0  0  0  0  0  0  0  0  0  0  0  0
    0.9530   -7.3660   22.0240 O   0  0  0  0  0  0  0  0  0  0  0  0
    3.5560   -5.9010   22.7150 C   0  0  1  0  0  0  0  0  0  0  0  0
    1.0300   -6.2180   22.4560 C   0  0  0  0  0  0  0  0  0  0  0  0
   -0.2290   -5.6140   22.5740 C   0  0  0  0  0  0  0  0  0  0  0  0
   10.6660   -4.8550   25.8180 F   0  0  0  0  0  0  0  0  0  0  0  0
    6.4450    0.2830   17.9500 N   0  0  0  0  0  0  0  0  0  0  0  0
    5.2780    1.1460   17.8010 C   0  0  0  0  0  0  0  0  0  0  0  0
    4.4800    1.4460   19.0380 C   0  0  0  0  0  0  0  0  0  0  0  0
    4.8790    0.8850   20.3810 C   0  0  0  0  0  0  0  0  0  0  0  0
    6.1210    0.0120   20.3900 C   0  0  0  0  0  0  0  0  0  0  0  0
    6.8120   -0.2250   19.1530 C   0  0  0  0  0  0  0  0  0  0  0  0
    9.3620   -2.1730   21.6970 C   0  0  0  0  0  0  0  0  0  0  0  0
   10.7640   -2.1920   22.2650 C   0  0  0  0  0  0  0  0  0  0  0  0
   11.0160   -1.7630   23.7000 C   0  0  0  0  0  0  0  0  0  0  0  0
    9.7580   -1.3410   24.4430 C   0  0  0  0  0  0  0  0  0  0  0  0
    8.4770   -1.3380   23.8730 C   0  0  0  0  0  0  0  0  0  0  0  0
    8.2410   -1.7730   22.4200 C   0  0  0  0  0  0  0  0  0  0  0  0
    7.9940   -3.3400   23.8160 C   0  0  0  0  0  0  0  0  0  0  0  0
    9.0530   -3.4750   24.7180 C   0  0  0  0  0  0  0  0  0  0  0  0
    9.6460   -4.6980   24.9440 C   0  0  0  0  0  0  0  0  0  0  0  0
    9.1920   -5.8090   24.2640 C   0  0  0  0  0  0  0  0  0  0  0  0
    8.1480   -5.6820   23.3680 C   0  0  0  0  0  0  0  0  0  0  0  0
    7.5360   -4.4570   23.1320 C   0  0  0  0  0  0  0  0  0  0  0  0
    4.6670   -4.2680   25.0850 C   0  0  1  0  0  0  0  0  0  0  0  0
    5.0250   -3.3730   24.0430 C   0  0  0  0  0  0  0  0  0  0  0  0
    4.9260   -4.9560   23.3860 S   0  0  0  0  0  0  0  0  0  0  0  0
    3.9530   -6.4350   24.3700 S   0  0  0  0  0  0  0  0  0  0  0  0
    5.1420   -5.5770   25.4740 C   0  0  0  0  0  0  0  0  0  0  0  0
  2  4  1  0
  3  4  1  0
  3  7  1  0
  6  7  2  0
  7  9  1  0
  1 11  1  0
  9 11  1  0
  1 12  1  0
  8 12  2  0
  5 13  1  0
 13 12  1  6
  5 14  1  0
 10 14  2  0
 15 14  1  0
 15 16  1  6
 17 18  1  0
 17 19  1  0
 17 20  1  0
 25 21  1  1
 21 26  1  0
 24 26  2  0
 26 27  1  0
 29 30  2  0
 30 31  1  0
 31 32  2  0
 13 33  1  0
 32 33  1  0
 29 34  1  0
 33 34  2  0
 35 36  2  0
 17 37  1  0
 36 37  1  0
 37 38  2  0
 38 39  1  0
  5 40  1  0
 35 40  1  0
 39 40  2  0
 41 42  2  0
 28 43  1  0
 42 43  1  0
 43 44  2  0
 44 45  1  0
 15 46  1  0
 41 46  1  0
 45 46  2  0
 47 48  1  1
 15 49  1  0
 25 49  1  0
 47 49  1  0
 48 49  1  0
 22 50  1  0
 23 50  1  0
 25 50  1  0
 49 50  1  0
 47 51  1  0
 50 51  1  0
M  END
