x3110-x0769
     RDKit          3D

 50 54  0  0  0  0  0  0  0  0999 V2000
    8.1220    1.0710   23.2910 N   0  0  0  0  0  0  0  0  0  0  0  0
   13.3810    5.1690   22.7780 C   0  0  0  0  0  0  0  0  0  0  0  0
   12.0140    3.2670   22.4220 O   0  0  0  0  0  0  0  0  0  0  0  0
   12.3360    4.3890   22.0400 C   0  0  0  0  0  0  0  0  0  0  0  0
    6.9620   -1.6230   21.8190 C   0  0  2  0  0  0  0  0  0  0  0  0
   10.8780    4.2180   24.1390 O   0  0  0  0  0  0  0  0  0  0  0  0
   11.0680    3.2560   23.4090 C   0  0  0  0  0  0  0  0  0  0  0  0
    8.4510    1.3920   20.8530 O   0  0  0  0  0  0  0  0  0  0  0  0
   10.3020    2.0830   23.5520 C   0  0  0  0  0  0  0  0  0  0  0  0
    4.7860   -2.8880   20.7670 O   0  0  0  0  0  0  0  0  0  0  0  0
    8.9120    2.2780   23.4550 C   0  0  0  0  0  0  0  0  0  0  0  0
    7.7790    0.7230   21.9210 C   0  0  0  0  0  0  0  0  0  0  0  0
    6.7590   -0.2170   21.5800 C   0  0  1  0  0  0  0  0  0  0  0  0
    5.9960   -2.7510   21.1200 C   0  0  0  0  0  0  0  0  0  0  0  0
    6.7670   -4.0120   20.9400 C   0  0  1  0  0  0  0  0  0  0  0  0
    8.2460   -3.9860   20.6070 C   0  0  0  0  0  0  0  0  0  0  0  0
   12.4520   -1.9100   24.2480 C   0  0  0  0  0  0  0  0  0  0  0  0
   12.6210   -0.6910   24.8680 C   0  0  0  0  0  0  0  0  0  0  0  0
   13.4260   -1.9960   23.0810 C   0  0  0  0  0  0  0  0  0  0  0  0
   12.8630   -3.0170   25.2350 C   0  0  0  0  0  0  0  0  0  0  0  0
    5.8580   -5.2400   27.1380 O   0  0  0  0  0  0  0  0  0  0  0  0
    3.8590   -6.6690   26.0380 O   0  0  0  0  0  0  0  0  0  0  0  0
    5.6310   -2.3570   26.2890 F   0  0  0  0  0  0  0  0  0  0  0  0
    4.7640   -5.3580   25.9860 S   0  0  0  0  0  0  0  0  0  0  0  0
    6.1040   -2.2180   23.0420 C   0  0  0  0  0  0  0  0  0  0  0  0
    5.5320   -3.5100   22.9040 C   0  0  0  0  0  0  0  0  0  0  0  0
    6.3690    0.4210   17.7750 N   0  0  0  0  0  0  0  0  0  0  0  0
    5.2870    1.2180   17.8160 C   0  0  0  0  0  0  0  0  0  0  0  0
    4.6220    1.5840   18.9640 C   0  0  0  0  0  0  0  0  0  0  0  0
    5.1220    1.0950   20.1650 C   0  0  0  0  0  0  0  0  0  0  0  0
    6.2610    0.2530   20.2230 C   0  0  0  0  0  0  0  0  0  0  0  0
    6.8530   -0.0650   19.0060 C   0  0  0  0  0  0  0  0  0  0  0  0
    9.5770   -1.4230   21.7730 C   0  0  0  0  0  0  0  0  0  0  0  0
   10.8550   -1.4950   22.3560 C   0  0  0  0  0  0  0  0  0  0  0  0
   11.0360   -1.8960   23.6770 C   0  0  0  0  0  0  0  0  0  0  0  0
    9.9370   -2.2480   24.4220 C   0  0  0  0  0  0  0  0  0  0  0  0
    8.5600   -2.1720   23.7830 C   0  0  0  0  0  0  0  0  0  0  0  0
    8.4030   -1.7500   22.4550 C   0  0  0  0  0  0  0  0  0  0  0  0
    4.3200   -2.5590   26.1280 C   0  0  0  0  0  0  0  0  0  0  0  0
    3.7170   -3.9640   25.9630 C   0  0  0  0  0  0  0  0  0  0  0  0
    2.1970   -4.1070   25.7820 C   0  0  0  0  0  0  0  0  0  0  0  0
    1.3220   -2.8600   25.7740 C   0  0  0  0  0  0  0  0  0  0  0  0
    2.0100   -1.5080   25.9480 C   0  0  0  0  0  0  0  0  0  0  0  0
    3.3870   -1.3430   26.1110 C   0  0  0  0  0  0  0  0  0  0  0  0
    6.4540   -4.6190   22.2770 C   0  0  0  0  0  0  0  0  0  0  0  0
    5.7790   -5.8150   22.1990 C   0  0  0  0  0  0  0  0  0  0  0  0
    5.1490   -6.1930   23.3830 C   0  0  0  0  0  0  0  0  0  0  0  0
    5.6110   -5.3140   24.5110 N   0  0  0  0  0  0  0  0  0  0  0  0
    7.0460   -5.0130   24.6310 C   0  0  0  0  0  0  0  0  0  0  0  0
    7.6300   -4.8350   23.2380 C   0  0  0  0  0  0  0  0  0  0  0  0
  2  4  1  0
  3  4  1  0
  3  7  1  0
  6  7  2  0
  7  9  1  0
  1 11  1  0
  9 11  1  0
  1 12  1  0
  8 12  2  0
  5 13  1  0
 13 12  1  6
  5 14  1  0
 10 14  2  0
 14 15  1  0
 15 16  1  1
 17 18  1  0
 17 19  1  0
 17 20  1  0
 21 24  2  0
 22 24  2  0
  5 25  1  0
 25 26  1  0
 27 28  2  0
 28 29  1  0
 29 30  2  0
 13 31  1  0
 30 31  1  0
 27 32  1  0
 31 32  2  0
 33 34  2  0
 17 35  1  0
 34 35  1  0
 35 36  2  0
 36 37  1  0
  5 38  1  1
 33 38  1  0
 37 38  2  0
 23 39  1  0
 24 40  1  0
 39 40  2  0
 40 41  1  0
 41 42  2  0
 42 43  1  0
 39 44  1  0
 43 44  2  0
 15 45  1  0
 45 26  1  0
 45 46  1  0
 46 47  1  0
 24 48  1  0
 47 48  1  0
 48 49  1  0
 45 50  1  0
 49 50  1  0
M  END
