x3115-x0946-x2754-x3110
     RDKit          3D

 55 59  0  0  0  0  0  0  0  0999 V2000
    7.9280    1.2450   23.2950 N   0  0  0  0  0  0  0  0  0  0  0  0
   13.4530    5.2280   23.3490 C   0  0  0  0  0  0  0  0  0  0  0  0
   13.2240    4.1910   22.3030 C   0  0  0  0  0  0  0  0  0  0  0  0
    7.0370   -1.6270   21.6550 N   0  0  0  0  0  0  0  0  0  0  0  0
   10.5450    4.6850   23.1220 N   0  0  0  0  0  0  0  0  0  0  0  0
    8.6520    1.3410   21.1330 O   0  0  0  0  0  0  0  0  0  0  0  0
    4.9510   -3.0860   20.9850 O   0  0  0  0  0  0  0  0  0  0  0  0
    8.6450    2.5070   23.6690 C   0  0  2  0  0  0  0  0  0  0  0  0
    7.8700    0.8230   21.9510 C   0  0  0  0  0  0  0  0  0  0  0  0
    6.7650   -0.2460   21.5570 C   0  0  1  0  0  0  0  0  0  0  0  0
    6.2000   -2.8800   21.4350 C   0  0  0  0  0  0  0  0  0  0  0  0
    8.1690   -4.6700   21.0670 C   0  0  0  0  0  0  0  0  0  0  0  0
   12.3520   -1.8910   24.2550 C   0  0  0  0  0  0  0  0  0  0  0  0
   12.5230   -0.6190   25.0820 C   0  0  0  0  0  0  0  0  0  0  0  0
   13.3670   -1.9080   23.0890 C   0  0  0  0  0  0  0  0  0  0  0  0
   12.7220   -3.0560   25.1830 C   0  0  0  0  0  0  0  0  0  0  0  0
    8.4080    4.9740   23.3050 O   0  0  0  0  0  0  0  0  0  0  0  0
    8.0840    3.6710   22.7840 C   0  0  0  0  0  0  0  0  0  0  0  0
    8.2160    6.0200   22.3470 C   0  0  0  0  0  0  0  0  0  0  0  0
    9.9360    5.0330   24.3310 O   0  0  0  0  0  0  0  0  0  0  0  0
   11.4180    5.6970   22.7320 O   0  0  0  0  0  0  0  0  0  0  0  0
    4.6600   -3.3790   25.3060 C   0  0  0  0  0  0  0  0  0  0  0  0
    3.4660   -3.6690   25.3570 O   0  0  0  0  0  0  0  0  0  0  0  0
    5.4140   -3.1010   26.4760 N   0  0  0  0  0  0  0  0  0  0  0  0
    4.9400   -2.1740   27.4900 C   0  0  0  0  0  0  0  0  0  0  0  0
    6.3480    0.4500   17.7520 N   0  0  0  0  0  0  0  0  0  0  0  0
    5.2230    1.2290   17.8000 C   0  0  0  0  0  0  0  0  0  0  0  0
    4.5030    1.5660   19.0870 C   0  0  0  0  0  0  0  0  0  0  0  0
    5.0530    1.0470   20.2460 C   0  0  0  0  0  0  0  0  0  0  0  0
    6.2070    0.2530   20.2480 C   0  0  0  0  0  0  0  0  0  0  0  0
    6.8320   -0.0420   19.0230 C   0  0  0  0  0  0  0  0  0  0  0  0
    9.4710   -2.0740   21.7330 C   0  0  0  0  0  0  0  0  0  0  0  0
   10.7330   -2.1530   22.2910 C   0  0  0  0  0  0  0  0  0  0  0  0
   10.9420   -1.8290   23.6290 C   0  0  0  0  0  0  0  0  0  0  0  0
    9.8220   -1.4250   24.3920 C   0  0  0  0  0  0  0  0  0  0  0  0
    8.5440   -1.3510   23.7770 C   0  0  0  0  0  0  0  0  0  0  0  0
    8.3440   -1.6780   22.4180 C   0  0  0  0  0  0  0  0  0  0  0  0
   11.9360    0.7580   23.0830 C   0  0  0  0  0  0  0  0  0  0  0  0
   12.7720    1.8140   22.7540 C   0  0  0  0  0  0  0  0  0  0  0  0
   12.2990    3.1260   22.7280 C   0  0  0  0  0  0  0  0  0  0  0  0
   10.9740    3.3750   23.0820 C   0  0  0  0  0  0  0  0  0  0  0  0
   10.1260    2.3050   23.3760 C   0  0  0  0  0  0  0  0  0  0  0  0
   10.6100    1.0000   23.3840 C   0  0  0  0  0  0  0  0  0  0  0  0
    6.9360   -4.1440   21.8690 C   0  0  1  0  0  0  0  0  0  0  0  0
    7.4960   -3.8050   23.2360 C   0  0  0  0  0  0  0  0  0  0  0  0
    6.6850   -2.9110   23.9300 C   0  0  0  0  0  0  0  0  0  0  0  0
    5.2340   -3.3140   23.8920 C   0  0  1  0  0  0  0  0  0  0  0  0
    4.9830   -4.7640   23.4540 C   0  0  0  0  0  0  0  0  0  0  0  0
    5.8650   -5.1850   22.2510 C   0  0  0  0  0  0  0  0  0  0  0  0
    6.9960   -4.8040   27.4300 C   0  0  0  0  0  0  0  0  0  0  0  0
    8.3980   -5.3610   27.6530 C   0  0  0  0  0  0  0  0  0  0  0  0
    9.4890   -4.7140   27.1200 C   0  0  0  0  0  0  0  0  0  0  0  0
    9.3300   -3.5560   26.3800 C   0  0  0  0  0  0  0  0  0  0  0  0
    7.9610   -2.9120   26.1040 C   0  0  0  0  0  0  0  0  0  0  0  0
    6.7530   -3.6340   26.6930 C   0  0  0  0  0  0  0  0  0  0  0  0
  2  3  1  0
  1  8  1  0
  1  9  1  0
  6  9  2  0
  4 10  1  0
 10  9  1  6
  4 11  1  0
  7 11  2  0
 13 14  1  0
 13 15  1  0
 13 16  1  0
  8 18  1  6
 17 18  1  0
 17 19  1  0
  5 20  1  0
  5 21  1  0
 22 23  2  0
 22 24  1  0
 24 25  1  0
 26 27  2  0
 27 28  1  0
 28 29  2  0
 10 30  1  0
 29 30  1  0
 26 31  1  0
 30 31  2  0
 32 33  2  0
 13 34  1  0
 33 34  1  0
 34 35  2  0
 35 36  1  0
  4 37  1  0
 32 37  1  0
 36 37  2  0
 38 39  2  0
  3 40  1  0
 39 40  1  0
  5 41  1  0
 40 41  2  0
  8 42  1  0
 41 42  1  0
 38 43  1  0
 42 43  2  0
 44 11  1  0
 44 12  1  6
 44 45  1  0
 45 46  1  0
 47 22  1  1
 46 47  1  0
 47 48  1  0
 44 49  1  0
 48 49  1  0
 50 51  2  0
 51 52  1  0
 52 53  2  0
 53 54  1  0
 24 55  1  0
 50 55  1  0
 54 55  2  0
M  END
