x3117-x1425
     RDKit          3D

 45 50  0  0  0  0  0  0  0  0999 V2000
    6.9330   -1.6730   21.8610 C   0  0  1  0  0  0  0  0  0  0  0  0
    6.9020   -5.1580   20.6390 C   0  0  0  0  0  0  0  0  0  0  0  0
    4.8030   -2.8920   20.7240 O   0  0  0  0  0  0  0  0  0  0  0  0
    7.5480    2.0590   22.6690 N   0  0  0  0  0  0  0  0  0  0  0  0
    8.9060    0.6070   21.3860 O   0  0  0  0  0  0  0  0  0  0  0  0
    5.9330   -2.8650   21.3280 C   0  0  0  0  0  0  0  0  0  0  0  0
    6.6150   -0.1950   21.6800 C   0  0  1  0  0  0  0  0  0  0  0  0
    7.7980    0.7960   21.8690 C   0  0  0  0  0  0  0  0  0  0  0  0
   12.5630   -1.9980   23.9080 C   0  0  0  0  0  0  0  0  0  0  0  0
   12.9720   -0.7320   24.2180 C   0  0  0  0  0  0  0  0  0  0  0  0
   13.4010   -2.3610   22.9190 C   0  0  0  0  0  0  0  0  0  0  0  0
   12.8510   -2.9190   25.0970 C   0  0  0  0  0  0  0  0  0  0  0  0
    1.3880   -2.3660   28.2640 C   0  0  0  0  0  0  0  0  0  0  0  0
    2.6350   -1.7510   27.9720 O   0  0  0  0  0  0  0  0  0  0  0  0
    6.6000   -2.2350   23.1640 C   0  0  0  0  0  0  0  0  0  0  0  0
    6.3280    0.4300   17.8260 N   0  0  0  0  0  0  0  0  0  0  0  0
    5.1510    1.2760   17.7770 C   0  0  0  0  0  0  0  0  0  0  0  0
    4.3320    1.7040   18.9660 C   0  0  0  0  0  0  0  0  0  0  0  0
    4.8640    1.1620   20.3080 C   0  0  0  0  0  0  0  0  0  0  0  0
    6.1090    0.2780   20.3960 C   0  0  0  0  0  0  0  0  0  0  0  0
    6.7700   -0.0380   19.0700 C   0  0  0  0  0  0  0  0  0  0  0  0
    9.5920    5.3660   24.2330 O   0  0  0  0  0  0  0  0  0  0  0  0
   10.3300    4.1630   24.0700 C   0  0  0  0  0  0  0  0  0  0  0  0
    9.3680    2.9970   23.7650 C   0  0  0  0  0  0  0  0  0  0  0  0
    8.5620    3.1800   22.6540 C   0  0  0  0  0  0  0  0  0  0  0  0
    7.8160    4.5320   22.7010 C   0  0  0  0  0  0  0  0  0  0  0  0
    8.8110    5.6510   23.0740 C   0  0  0  0  0  0  0  0  0  0  0  0
    9.4360   -2.1740   21.5650 C   0  0  0  0  0  0  0  0  0  0  0  0
   10.8390   -2.2370   22.1230 C   0  0  0  0  0  0  0  0  0  0  0  0
   11.0780   -1.9210   23.4400 C   0  0  0  0  0  0  0  0  0  0  0  0
   10.0060   -1.5520   24.2350 C   0  0  0  0  0  0  0  0  0  0  0  0
    8.7030   -1.4870   23.7080 C   0  0  0  0  0  0  0  0  0  0  0  0
    8.4020   -1.7930   22.3600 C   0  0  0  0  0  0  0  0  0  0  0  0
    3.4720   -2.4120   27.1180 C   0  0  0  0  0  0  0  0  0  0  0  0
    4.8410   -2.1840   26.9670 C   0  0  0  0  0  0  0  0  0  0  0  0
    5.6130   -2.9820   26.0230 C   0  0  0  0  0  0  0  0  0  0  0  0
    4.9740   -3.9770   25.2730 C   0  0  0  0  0  0  0  0  0  0  0  0
    3.6030   -4.1680   25.4400 C   0  0  0  0  0  0  0  0  0  0  0  0
    2.8600   -3.4050   26.3440 C   0  0  0  0  0  0  0  0  0  0  0  0
    6.3670   -4.2180   21.7600 C   0  0  2  0  0  0  0  0  0  0  0  0
    7.2530   -3.6170   22.8840 C   0  0  2  0  0  0  0  0  0  0  0  0
    7.2120   -4.3130   24.1940 C   0  0  0  0  0  0  0  0  0  0  0  0
    5.8400   -4.7390   24.3760 N   0  0  0  0  0  0  0  0  0  0  0  0
    5.3060   -5.6620   23.4070 C   0  0  0  0  0  0  0  0  0  0  0  0
    5.1000   -4.8840   22.2860 C   0  0  0  0  0  0  0  0  0  0  0  0
  1  6  1  0
  3  6  2  0
  1  7  1  0
  4  8  1  0
  5  8  2  0
  7  8  1  6
  9 10  1  0
  9 11  1  0
  9 12  1  0
 13 14  1  0
  1 15  1  0
 16 17  2  0
 17 18  1  0
 18 19  2  0
  7 20  1  0
 19 20  1  0
 16 21  1  0
 20 21  2  0
 22 23  1  0
 23 24  1  0
  4 25  1  0
 24 25  1  0
 25 26  1  0
 22 27  1  0
 26 27  1  0
 28 29  2  0
  9 30  1  0
 29 30  1  0
 30 31  2  0
 31 32  1  0
  1 33  1  6
 28 33  1  0
 32 33  2  0
 14 34  1  0
 34 35  2  0
 35 36  1  0
 36 37  2  0
 37 38  1  0
 34 39  1  0
 38 39  2  0
 40  2  1  6
  6 40  1  0
 41 15  1  1
 40 41  1  0
 41 42  1  0
 37 43  1  0
 42 43  1  0
 43 44  1  0
 40 45  1  0
 44 45  1  0
M  END
