x3113-x0426
     RDKit          3D

 42 44  0  0  0  0  0  0  0  0999 V2000
    7.0190   -1.8290   21.8310 N   0  0  0  0  0  0  0  0  0  0  0  0
    8.1890   -4.4790   20.9890 C   0  0  0  0  0  0  0  0  0  0  0  0
    4.8760   -3.0630   21.1750 O   0  0  0  0  0  0  0  0  0  0  0  0
    6.7700   -4.3770   21.5950 C   0  0  0  0  0  0  0  0  0  0  0  0
    8.0970    1.0720   23.2030 N   0  0  0  0  0  0  0  0  0  0  0  0
    8.6230    0.7910   21.0460 O   0  0  0  0  0  0  0  0  0  0  0  0
    6.1400   -2.9990   21.5100 C   0  0  0  0  0  0  0  0  0  0  0  0
   11.6120    3.6290   22.3940 O   0  0  0  0  0  0  0  0  0  0  0  0
    6.7140   -0.3220   21.6920 C   0  0  1  0  0  0  0  0  0  0  0  0
    7.8610    0.5160   21.9510 C   0  0  0  0  0  0  0  0  0  0  0  0
    9.0790    2.1830   23.3540 C   0  0  0  0  0  0  0  0  0  0  0  0
   10.4000    1.7450   23.1500 C   0  0  0  0  0  0  0  0  0  0  0  0
   11.4020    2.6890   23.4390 C   0  0  0  0  0  0  0  0  0  0  0  0
   12.8210    4.3700   22.6000 C   0  0  0  0  0  0  0  0  0  0  0  0
   12.4970   -2.0420   24.2680 C   0  0  0  0  0  0  0  0  0  0  0  0
   13.4290   -2.1710   23.2490 C   0  0  0  0  0  0  0  0  0  0  0  0
   12.8570   -3.0980   25.3280 C   0  0  0  0  0  0  0  0  0  0  0  0
   12.6750   -0.6620   24.8990 C   0  0  0  0  0  0  0  0  0  0  0  0
    2.3350    1.7350   23.7870 C   0  0  0  0  0  0  0  0  0  0  0  0
    2.2280    0.5040   23.7700 O   0  0  0  0  0  0  0  0  0  0  0  0
    3.3550    2.4540   23.2100 N   0  0  0  0  0  0  0  0  0  0  0  0
    4.4020    1.8190   22.4420 C   0  0  0  0  0  0  0  0  0  0  0  0
    3.8890    1.1880   21.3110 C   0  0  0  0  0  0  0  0  0  0  0  0
    2.8570    4.3060   25.2060 F   0  0  0  0  0  0  0  0  0  0  0  0
    6.5630    0.4330   17.9880 N   0  0  0  0  0  0  0  0  0  0  0  0
    5.4020    1.0930   17.8140 C   0  0  0  0  0  0  0  0  0  0  0  0
    4.5240    1.3490   18.8470 C   0  0  0  0  0  0  0  0  0  0  0  0
    4.9050    0.8710   20.2300 C   0  0  0  0  0  0  0  0  0  0  0  0
    6.1220    0.2070   20.3820 C   0  0  0  0  0  0  0  0  0  0  0  0
    6.8710    0.0250   19.2340 C   0  0  0  0  0  0  0  0  0  0  0  0
    9.5920   -1.4930   21.7820 C   0  0  0  0  0  0  0  0  0  0  0  0
   10.8210   -1.5830   22.4260 C   0  0  0  0  0  0  0  0  0  0  0  0
   11.0680   -2.0540   23.7230 C   0  0  0  0  0  0  0  0  0  0  0  0
    9.9930   -2.4980   24.4660 C   0  0  0  0  0  0  0  0  0  0  0  0
    8.5790   -2.4590   23.8810 C   0  0  0  0  0  0  0  0  0  0  0  0
    8.3170   -1.9390   22.4870 C   0  0  0  0  0  0  0  0  0  0  0  0
    1.5990    3.8460   25.2240 C   0  0  0  0  0  0  0  0  0  0  0  0
    1.2380    2.5290   24.5190 C   0  0  0  0  0  0  0  0  0  0  0  0
   -0.1990    2.0050   24.5420 C   0  0  0  0  0  0  0  0  0  0  0  0
   -1.3070    2.7570   25.2530 C   0  0  0  0  0  0  0  0  0  0  0  0
   -0.9330    4.0670   25.9500 C   0  0  0  0  0  0  0  0  0  0  0  0
    0.4870    4.6350   25.9580 C   0  0  0  0  0  0  0  0  0  0  0  0
  2  4  1  0
  1  7  1  0
  3  7  2  0
  4  7  1  0
  1  9  1  0
  5 10  1  0
  6 10  2  0
  9 10  1  6
  5 11  1  0
 11 12  1  0
  8 13  1  0
 12 13  1  0
  8 14  1  0
 15 16  1  0
 15 17  1  0
 15 18  1  0
 19 20  2  0
 19 21  1  0
 21 22  1  0
 22 23  1  0
 25 26  2  0
 26 27  1  0
 23 28  1  0
 27 28  2  0
  9 29  1  0
 28 29  1  0
 25 30  1  0
 29 30  2  0
 31 32  2  0
 15 33  1  0
 32 33  1  0
 33 34  2  0
 34 35  1  0
  1 36  1  0
 31 36  1  0
 35 36  2  0
 24 37  1  0
 19 38  1  0
 37 38  2  0
 38 39  1  0
 39 40  2  0
 40 41  1  0
 37 42  1  0
 41 42  2  0
M  END
