x3110-x1493-x1308
     RDKit          3D

 53 58  0  0  0  0  0  0  0  0999 V2000
    8.0790    1.1870   23.2710 N   0  0  0  0  0  0  0  0  0  0  0  0
   13.2800    4.9950   22.7970 C   0  0  0  0  0  0  0  0  0  0  0  0
   11.8280    3.1400   22.5070 O   0  0  0  0  0  0  0  0  0  0  0  0
   12.1380    4.2730   22.1310 C   0  0  0  0  0  0  0  0  0  0  0  0
    6.8830   -1.4740   22.1280 C   0  0  2  0  0  0  0  0  0  0  0  0
   10.3270    4.0520   24.0970 O   0  0  0  0  0  0  0  0  0  0  0  0
   10.7800    3.0870   23.4840 C   0  0  0  0  0  0  0  0  0  0  0  0
    8.4520    1.1720   20.8600 O   0  0  0  0  0  0  0  0  0  0  0  0
   10.2980    1.6310   23.6920 C   0  0  0  0  0  0  0  0  0  0  0  0
    4.8770   -3.0260   21.0950 O   0  0  0  0  0  0  0  0  0  0  0  0
    9.0180    2.2580   23.3190 C   0  0  0  0  0  0  0  0  0  0  0  0
    7.7430    0.7090   21.9430 C   0  0  0  0  0  0  0  0  0  0  0  0
    6.7630   -0.0700   21.7540 C   0  0  1  0  0  0  0  0  0  0  0  0
    6.1200   -2.7880   21.5110 C   0  0  0  0  0  0  0  0  0  0  0  0
    7.0200   -3.9770   21.5330 C   0  0  2  0  0  0  0  0  0  0  0  0
    6.8290   -4.6190   20.2000 C   0  0  0  0  0  0  0  0  0  0  0  0
   12.4800   -1.8170   24.1240 C   0  0  0  0  0  0  0  0  0  0  0  0
   12.6620   -0.6440   24.8370 C   0  0  0  0  0  0  0  0  0  0  0  0
   13.4370   -1.9510   22.9630 C   0  0  0  0  0  0  0  0  0  0  0  0
   12.7300   -2.9080   24.9060 C   0  0  0  0  0  0  0  0  0  0  0  0
    0.7260   -0.8330   26.4920 Cl  0  0  0  0  0  0  0  0  0  0  0  0
    5.6110   -5.8380   27.0360 O   0  0  0  0  0  0  0  0  0  0  0  0
    3.8270   -7.2140   25.9170 O   0  0  0  0  0  0  0  0  0  0  0  0
    4.6490   -6.0390   25.9820 S   0  0  0  0  0  0  0  0  0  0  0  0
    6.2860   -1.6260   23.4950 C   0  0  0  0  0  0  0  0  0  0  0  0
    5.8330   -2.9250   23.6900 C   0  0  0  0  0  0  0  0  0  0  0  0
    6.8900   -5.6940   26.7310 C   0  0  0  0  0  0  0  0  0  0  0  0
    8.6130   -5.5670   25.3020 O   0  0  0  0  0  0  0  0  0  0  0  0
    7.4400   -5.4050   25.4880 C   0  0  0  0  0  0  0  0  0  0  0  0
    6.3780    0.3330   17.8230 N   0  0  0  0  0  0  0  0  0  0  0  0
    5.1840    1.2730   17.7620 C   0  0  0  0  0  0  0  0  0  0  0  0
    4.5070    1.7350   19.0530 C   0  0  0  0  0  0  0  0  0  0  0  0
    5.0530    1.2540   20.4090 C   0  0  0  0  0  0  0  0  0  0  0  0
    6.2670    0.3180   20.3670 C   0  0  0  0  0  0  0  0  0  0  0  0
    6.8660   -0.1040   19.0640 C   0  0  0  0  0  0  0  0  0  0  0  0
    9.4530   -2.0770   21.7780 C   0  0  0  0  0  0  0  0  0  0  0  0
   10.7710   -2.1460   22.2810 C   0  0  0  0  0  0  0  0  0  0  0  0
   11.0570   -1.7630   23.5880 C   0  0  0  0  0  0  0  0  0  0  0  0
   10.0160   -1.3260   24.3490 C   0  0  0  0  0  0  0  0  0  0  0  0
    8.7420   -1.2640   23.8500 C   0  0  0  0  0  0  0  0  0  0  0  0
    8.3890   -1.6250   22.5550 C   0  0  0  0  0  0  0  0  0  0  0  0
    6.7300   -4.9380   22.7030 C   0  0  2  0  0  0  0  0  0  0  0  0
    6.9500   -4.0410   23.6510 C   0  0  2  0  0  0  0  0  0  0  0  0
    6.5160   -4.9170   24.4200 C   0  0  2  0  0  0  0  0  0  0  0  0
    5.3900   -5.8200   24.5020 N   0  0  0  0  0  0  0  0  0  0  0  0
    4.7120   -5.8630   23.1900 C   0  0  0  0  0  0  0  0  0  0  0  0
    5.8030   -6.1050   22.3700 C   0  0  0  0  0  0  0  0  0  0  0  0
    4.1400   -3.3600   26.4820 C   0  0  0  0  0  0  0  0  0  0  0  0
    3.2840   -2.0740   26.6290 C   0  0  0  0  0  0  0  0  0  0  0  0
    1.7720   -2.1790   26.3350 C   0  0  0  0  0  0  0  0  0  0  0  0
    1.2420   -3.5480   25.9010 C   0  0  0  0  0  0  0  0  0  0  0  0
    2.1520   -4.7460   25.7840 C   0  0  0  0  0  0  0  0  0  0  0  0
    3.6230   -4.6140   26.0960 C   0  0  0  0  0  0  0  0  0  0  0  0
  2  4  1  0
  3  4  1  0
  3  7  1  0
  6  7  2  0
  7  9  1  0
  1 11  1  0
  9 11  1  0
  1 12  1  0
  8 12  2  0
  5 13  1  0
 13 12  1  6
  5 14  1  0
 10 14  2  0
 14 15  1  0
 15 16  1  6
 17 18  1  0
 17 19  1  0
 17 20  1  0
 22 24  2  0
 23 24  2  0
  5 25  1  0
 25 26  1  0
 27 29  1  0
 28 29  2  0
 30 31  2  0
 31 32  1  0
 32 33  2  0
 13 34  1  0
 33 34  1  0
 30 35  1  0
 34 35  2  0
 36 37  2  0
 17 38  1  0
 37 38  1  0
 38 39  2  0
 39 40  1  0
  5 41  1  1
 36 41  1  0
 40 41  2  0
 15 42  1  0
 43 26  1  6
 42 43  1  0
 44 29  1  1
 42 44  1  0
 43 44  1  0
 24 45  1  0
 44 45  1  0
 45 46  1  0
 42 47  1  1
 46 47  1  0
 48 49  2  0
 21 50  1  0
 49 50  1  0
 50 51  2  0
 51 52  1  0
 24 53  1  0
 48 53  1  0
 52 53  2  0
M  END
