x3115-x3117-x2754-x3110
     RDKit          3D

 52 58  0  0  0  0  0  0  0  0999 V2000
    7.8490    1.2030   23.3210 N   0  0  0  0  0  0  0  0  0  0  0  0
   13.8080    5.2060   22.4380 C   0  0  0  0  0  0  0  0  0  0  0  0
   12.3710    3.3550   22.7780 O   0  0  0  0  0  0  0  0  0  0  0  0
   12.6140    4.3500   22.1150 C   0  0  0  0  0  0  0  0  0  0  0  0
    7.0530   -1.6890   21.6460 N   0  0  0  0  0  0  0  0  0  0  0  0
   11.0960    3.3480   23.1420 C   0  0  0  0  0  0  0  0  0  0  0  0
    8.4960    1.0240   21.0790 O   0  0  0  0  0  0  0  0  0  0  0  0
   10.0060    2.4520   22.6170 C   0  0  0  0  0  0  0  0  0  0  0  0
    4.9680   -3.1080   20.9840 O   0  0  0  0  0  0  0  0  0  0  0  0
    7.7360    0.6500   21.9700 C   0  0  0  0  0  0  0  0  0  0  0  0
    6.6150   -0.4010   21.5960 C   0  0  1  0  0  0  0  0  0  0  0  0
    6.2450   -2.9510   21.4080 C   0  0  0  0  0  0  0  0  0  0  0  0
    8.0880   -4.6890   21.0850 C   0  0  0  0  0  0  0  0  0  0  0  0
   12.2670   -1.7790   24.2010 C   0  0  0  0  0  0  0  0  0  0  0  0
   12.3940   -0.5140   25.0280 C   0  0  0  0  0  0  0  0  0  0  0  0
   13.3100   -1.7180   23.0900 C   0  0  0  0  0  0  0  0  0  0  0  0
   12.6240   -2.9650   25.0920 C   0  0  0  0  0  0  0  0  0  0  0  0
    7.9260    5.4420   22.0840 C   0  0  0  0  0  0  0  0  0  0  0  0
    4.8180   -3.3590   25.3780 C   0  0  0  0  0  0  0  0  0  0  0  0
    3.6330   -3.1130   25.1960 O   0  0  0  0  0  0  0  0  0  0  0  0
    5.4160   -3.0950   26.6370 N   0  0  0  0  0  0  0  0  0  0  0  0
    5.0320   -2.0610   27.4640 C   0  0  0  0  0  0  0  0  0  0  0  0
    6.3850    0.3650   17.8870 N   0  0  0  0  0  0  0  0  0  0  0  0
    5.3150    1.2030   17.8190 C   0  0  0  0  0  0  0  0  0  0  0  0
    4.5980    1.5260   19.1330 C   0  0  0  0  0  0  0  0  0  0  0  0
    5.0620    0.9720   20.3060 C   0  0  0  0  0  0  0  0  0  0  0  0
    6.1730    0.1280   20.2870 C   0  0  0  0  0  0  0  0  0  0  0  0
    6.7990   -0.1510   19.0610 C   0  0  0  0  0  0  0  0  0  0  0  0
    9.4800   -2.1150   21.6760 C   0  0  0  0  0  0  0  0  0  0  0  0
   10.7380   -2.1430   22.2730 C   0  0  0  0  0  0  0  0  0  0  0  0
   10.9180   -1.7610   23.5920 C   0  0  0  0  0  0  0  0  0  0  0  0
    9.7950   -1.3450   24.3270 C   0  0  0  0  0  0  0  0  0  0  0  0
    8.5210   -1.3240   23.6830 C   0  0  0  0  0  0  0  0  0  0  0  0
    8.3440   -1.7100   22.3340 C   0  0  0  0  0  0  0  0  0  0  0  0
    9.5070    4.8300   24.9040 O   0  0  0  0  0  0  0  0  0  0  0  0
   10.0030    3.9220   23.9620 C   0  0  0  0  0  0  0  0  0  0  0  0
    8.5710    2.9110   23.4040 S   0  0  0  0  0  0  0  0  0  0  0  0
    6.9200    3.7270   23.3880 C   0  0  0  0  0  0  0  0  0  0  0  0
    7.9740    4.6100   23.3130 C   0  0  2  0  0  0  0  0  0  0  0  0
    8.4290    5.4490   24.3530 C   0  0  0  0  0  0  0  0  0  0  0  0
    6.9730   -4.2620   21.7820 C   0  0  1  0  0  0  0  0  0  0  0  0
    7.6020   -3.8650   23.1440 C   0  0  0  0  0  0  0  0  0  0  0  0
    6.6530   -3.0870   23.8360 C   0  0  0  0  0  0  0  0  0  0  0  0
    5.6550   -3.9330   24.2870 C   0  0  2  0  0  0  0  0  0  0  0  0
    4.9170   -4.8010   23.1960 C   0  0  0  0  0  0  0  0  0  0  0  0
    5.8650   -5.2800   22.0760 C   0  0  0  0  0  0  0  0  0  0  0  0
    7.0810   -4.8930   27.6070 C   0  0  0  0  0  0  0  0  0  0  0  0
    8.4950   -5.3960   27.7610 C   0  0  0  0  0  0  0  0  0  0  0  0
    9.4960   -4.6040   27.1330 C   0  0  0  0  0  0  0  0  0  0  0  0
    9.1330   -3.4370   26.4300 C   0  0  0  0  0  0  0  0  0  0  0  0
    7.7940   -2.9180   26.2620 C   0  0  0  0  0  0  0  0  0  0  0  0
    6.7420   -3.5780   26.8050 C   0  0  0  0  0  0  0  0  0  0  0  0
  2  4  1  0
  3  4  1  0
  3  6  1  0
  6  8  1  0
  1 10  1  0
  7 10  2  0
  5 11  1  0
 11 10  1  6
  5 12  1  0
  9 12  2  0
 14 15  1  0
 14 16  1  0
 14 17  1  0
 19 20  2  0
 19 21  1  0
 21 22  1  0
 23 24  2  0
 24 25  1  0
 25 26  2  0
 11 27  1  0
 26 27  1  0
 23 28  1  0
 27 28  2  0
 29 30  2  0
 14 31  1  0
 30 31  1  0
 31 32  2  0
 32 33  1  0
  5 34  1  0
 29 34  1  0
 33 34  2  0
  6 36  2  0
 35 36  1  0
  1 37  1  0
  8 37  1  0
 36 37  1  0
 37 38  1  0
 39 18  1  6
 37 39  1  0
 38 39  1  0
 35 40  1  0
 39 40  1  0
 41 12  1  0
 41 13  1  6
 41 42  1  0
 42 43  1  0
 44 19  1  6
 43 44  1  0
 44 45  1  0
 41 46  1  0
 45 46  1  0
 47 48  2  0
 48 49  1  0
 49 50  2  0
 50 51  1  0
 21 52  1  0
 47 52  1  0
 51 52  2  0
M  END
