x3110-x1402
     RDKit          3D

 49 53  0  0  0  0  0  0  0  0999 V2000
    8.0670    1.0870   23.3010 N   0  0  0  0  0  0  0  0  0  0  0  0
   13.3740    5.1700   22.7630 C   0  0  0  0  0  0  0  0  0  0  0  0
   12.0220    3.2480   22.4620 O   0  0  0  0  0  0  0  0  0  0  0  0
   12.3390    4.3590   22.0440 C   0  0  0  0  0  0  0  0  0  0  0  0
    6.9520   -1.6190   21.7730 C   0  0  2  0  0  0  0  0  0  0  0  0
   10.8120    4.2110   24.1270 O   0  0  0  0  0  0  0  0  0  0  0  0
   11.0340    3.2480   23.4070 C   0  0  0  0  0  0  0  0  0  0  0  0
    8.4620    1.3910   20.8700 O   0  0  0  0  0  0  0  0  0  0  0  0
   10.2620    2.0760   23.5190 C   0  0  0  0  0  0  0  0  0  0  0  0
    4.7890   -2.8940   20.7170 O   0  0  0  0  0  0  0  0  0  0  0  0
    8.8720    2.2840   23.4750 C   0  0  0  0  0  0  0  0  0  0  0  0
    7.7560    0.7290   21.9230 C   0  0  0  0  0  0  0  0  0  0  0  0
    6.7410   -0.2120   21.5650 C   0  0  1  0  0  0  0  0  0  0  0  0
    6.0020   -2.7300   21.0530 C   0  0  0  0  0  0  0  0  0  0  0  0
    6.8300   -3.9370   20.8390 C   0  0  1  0  0  0  0  0  0  0  0  0
    8.2930   -3.7090   20.4850 C   0  0  0  0  0  0  0  0  0  0  0  0
   12.4600   -1.8740   24.1060 C   0  0  0  0  0  0  0  0  0  0  0  0
   12.6210   -0.6830   24.7870 C   0  0  0  0  0  0  0  0  0  0  0  0
   13.4330   -1.9160   22.9470 C   0  0  0  0  0  0  0  0  0  0  0  0
   12.8700   -3.0160   25.0340 C   0  0  0  0  0  0  0  0  0  0  0  0
    0.7760   -1.3120   26.2390 Cl  0  0  0  0  0  0  0  0  0  0  0  0
    3.7060   -6.5540   25.7880 O   0  0  0  0  0  0  0  0  0  0  0  0
    5.8050   -5.5990   27.0900 O   0  0  0  0  0  0  0  0  0  0  0  0
    4.8300   -5.4280   25.8560 S   0  0  0  0  0  0  0  0  0  0  0  0
    6.1020   -2.2540   22.9850 C   0  0  0  0  0  0  0  0  0  0  0  0
    5.5780   -3.5790   22.8620 C   0  0  0  0  0  0  0  0  0  0  0  0
    6.3730    0.4490   17.7660 N   0  0  0  0  0  0  0  0  0  0  0  0
    5.2850    1.2380   17.8050 C   0  0  0  0  0  0  0  0  0  0  0  0
    4.6090    1.5920   18.9530 C   0  0  0  0  0  0  0  0  0  0  0  0
    5.1040    1.0980   20.1540 C   0  0  0  0  0  0  0  0  0  0  0  0
    6.2470    0.2660   20.2110 C   0  0  0  0  0  0  0  0  0  0  0  0
    6.8510   -0.0420   18.9970 C   0  0  0  0  0  0  0  0  0  0  0  0
    9.5500   -1.2920   21.7210 C   0  0  0  0  0  0  0  0  0  0  0  0
   10.8340   -1.3550   22.2820 C   0  0  0  0  0  0  0  0  0  0  0  0
   11.0490   -1.8780   23.5430 C   0  0  0  0  0  0  0  0  0  0  0  0
    9.9860   -2.3650   24.2400 C   0  0  0  0  0  0  0  0  0  0  0  0
    8.5980   -2.3020   23.6440 C   0  0  0  0  0  0  0  0  0  0  0  0
    8.4000   -1.7480   22.3770 C   0  0  0  0  0  0  0  0  0  0  0  0
    6.4880   -4.6180   22.1440 C   0  0  0  0  0  0  0  0  0  0  0  0
    7.6820   -4.9980   22.9780 C   0  0  0  0  0  0  0  0  0  0  0  0
    7.1650   -5.1740   24.4050 C   0  0  0  0  0  0  0  0  0  0  0  0
    5.7000   -5.5020   24.3900 N   0  0  0  0  0  0  0  0  0  0  0  0
    5.1310   -6.3700   23.3160 C   0  0  0  0  0  0  0  0  0  0  0  0
    5.7200   -5.9380   21.9860 C   0  0  0  0  0  0  0  0  0  0  0  0
    2.3330   -3.8410   26.0200 S   0  0  0  0  0  0  0  0  0  0  0  0
    4.0490   -3.8420   25.9610 C   0  0  0  0  0  0  0  0  0  0  0  0
    4.5490   -2.5500   26.0100 C   0  0  0  0  0  0  0  0  0  0  0  0
    3.5650   -1.5930   26.0980 C   0  0  0  0  0  0  0  0  0  0  0  0
    2.2770   -2.1310   26.1220 C   0  0  0  0  0  0  0  0  0  0  0  0
  2  4  1  0
  3  4  1  0
  3  7  1  0
  6  7  2  0
  7  9  1  0
  1 11  1  0
  9 11  1  0
  1 12  1  0
  8 12  2  0
  5 13  1  0
 13 12  1  6
  5 14  1  0
 10 14  2  0
 14 15  1  0
 15 16  1  1
 17 18  1  0
 17 19  1  0
 17 20  1  0
 22 24  2  0
 23 24  2  0
  5 25  1  0
 25 26  1  0
 27 28  2  0
 28 29  1  0
 29 30  2  0
 13 31  1  0
 30 31  1  0
 27 32  1  0
 31 32  2  0
 33 34  2  0
 17 35  1  0
 34 35  1  0
 35 36  2  0
 36 37  1  0
  5 38  1  1
 33 38  1  0
 37 38  2  0
 15 39  1  0
 39 26  1  0
 39 40  1  0
 40 41  1  0
 24 42  1  0
 41 42  1  0
 42 43  1  0
 39 44  1  0
 43 44  1  0
 24 46  1  0
 45 46  1  0
 46 47  2  0
 47 48  1  0
 21 49  1  0
 45 49  1  0
 48 49  2  0
M  END
