x3110-x0691-x2540
     RDKit          3D

 53 59  0  0  0  0  0  0  0  0999 V2000
    7.9630    1.3450   23.3790 N   0  0  0  0  0  0  0  0  0  0  0  0
   13.3730    5.1610   22.8940 C   0  0  0  0  0  0  0  0  0  0  0  0
   12.1210    3.3830   22.3940 O   0  0  0  0  0  0  0  0  0  0  0  0
   12.3650    4.5170   21.9730 C   0  0  0  0  0  0  0  0  0  0  0  0
    6.9990   -1.6270   21.7230 C   0  0  2  0  0  0  0  0  0  0  0  0
   10.9730    4.2340   24.1590 O   0  0  0  0  0  0  0  0  0  0  0  0
   11.1850    3.3180   23.3870 C   0  0  0  0  0  0  0  0  0  0  0  0
    8.6140    1.4330   20.9400 O   0  0  0  0  0  0  0  0  0  0  0  0
   10.3990    1.9970   23.4810 C   0  0  0  0  0  0  0  0  0  0  0  0
    5.1050   -3.3880   20.3680 O   0  0  0  0  0  0  0  0  0  0  0  0
    8.9140    2.3330   23.5980 C   0  0  0  0  0  0  0  0  0  0  0  0
    7.7830    0.8930   21.9680 C   0  0  0  0  0  0  0  0  0  0  0  0
    6.6300   -0.1070   21.5830 C   0  0  1  0  0  0  0  0  0  0  0  0
    5.8580   -2.5390   20.9520 C   0  0  0  0  0  0  0  0  0  0  0  0
    6.7440   -3.7870   20.8510 C   0  0  1  0  0  0  0  0  0  0  0  0
    8.2590   -3.6940   20.5650 C   0  0  0  0  0  0  0  0  0  0  0  0
   13.0180   -1.6030   24.1410 C   0  0  1  0  0  0  0  0  0  0  0  0
   12.4950   -0.4940   24.5700 C   0  0  0  0  0  0  0  0  0  0  0  0
   13.2220   -1.8060   22.7900 C   0  0  0  0  0  0  0  0  0  0  0  0
   12.5680   -2.8540   24.8000 C   0  0  0  0  0  0  0  0  0  0  0  0
    8.6630    2.7180   24.8770 C   0  0  0  0  0  0  0  0  0  0  0  0
    8.7440    3.4900   22.6350 C   0  0  0  0  0  0  0  0  0  0  0  0
   12.2520   -0.9660   23.0620 C   0  0  1  0  0  0  0  0  0  0  0  0
    3.8550   -6.9940   26.0930 O   0  0  0  0  0  0  0  0  0  0  0  0
    5.7180   -5.3490   26.9770 O   0  0  0  0  0  0  0  0  0  0  0  0
    3.2540   -0.5950   26.0150 F   0  0  0  0  0  0  0  0  0  0  0  0
    4.6830   -5.6630   25.8150 S   0  0  0  0  0  0  0  0  0  0  0  0
    6.2320   -2.0540   22.9400 C   0  0  0  0  0  0  0  0  0  0  0  0
    5.5470   -3.3100   22.9000 C   0  0  0  0  0  0  0  0  0  0  0  0
    6.3970    0.3930   17.7950 N   0  0  0  0  0  0  0  0  0  0  0  0
    5.2660    1.2730   17.7790 C   0  0  0  0  0  0  0  0  0  0  0  0
    4.6060    1.6680   18.9320 C   0  0  0  0  0  0  0  0  0  0  0  0
    5.0670    1.1970   20.1570 C   0  0  0  0  0  0  0  0  0  0  0  0
    6.1630    0.3490   20.2300 C   0  0  0  0  0  0  0  0  0  0  0  0
    6.8150   -0.0520   19.0740 C   0  0  0  0  0  0  0  0  0  0  0  0
    9.5280   -1.0130   22.0010 C   0  0  0  0  0  0  0  0  0  0  0  0
   10.8950   -0.9260   22.4720 C   0  0  0  0  0  0  0  0  0  0  0  0
   10.8620   -1.9730   23.4290 C   0  0  0  0  0  0  0  0  0  0  0  0
    9.8770   -2.8400   23.8450 C   0  0  0  0  0  0  0  0  0  0  0  0
    8.6550   -2.7480   23.3010 C   0  0  0  0  0  0  0  0  0  0  0  0
    8.4280   -1.8230   22.3520 C   0  0  0  0  0  0  0  0  0  0  0  0
    2.8550   -1.8760   25.9210 C   0  0  0  0  0  0  0  0  0  0  0  0
    3.7870   -2.9400   25.9100 C   0  0  0  0  0  0  0  0  0  0  0  0
    3.5010   -4.3270   25.8190 C   0  0  0  0  0  0  0  0  0  0  0  0
    1.9990   -4.6790   25.7140 C   0  0  0  0  0  0  0  0  0  0  0  0
    0.9970   -3.5590   25.7250 C   0  0  0  0  0  0  0  0  0  0  0  0
    1.4900   -2.1180   25.8370 C   0  0  0  0  0  0  0  0  0  0  0  0
    6.3010   -4.4280   22.1040 C   0  0  0  0  0  0  0  0  0  0  0  0
    5.4660   -5.7180   21.8390 C   0  0  0  0  0  0  0  0  0  0  0  0
    4.9610   -6.2330   23.2490 C   0  0  0  0  0  0  0  0  0  0  0  0
    5.4880   -5.3700   24.3460 N   0  0  0  0  0  0  0  0  0  0  0  0
    6.9550   -5.1250   24.3680 C   0  0  0  0  0  0  0  0  0  0  0  0
    7.4750   -4.9540   22.9350 C   0  0  0  0  0  0  0  0  0  0  0  0
  2  4  1  0
  3  4  1  0
  3  7  1  0
  6  7  2  0
  7  9  1  0
 11  1  1  0
  9 11  1  0
  1 12  1  0
  8 12  2  0
  5 13  1  0
 13 12  1  6
  5 14  1  0
 10 14  2  0
 14 15  1  0
 15 16  1  1
 17 18  1  0
 17 19  1  0
 17 20  1  6
 11 21  1  0
 11 22  1  0
 17 23  1  0
 18 23  1  0
 19 23  1  0
 24 27  2  0
 25 27  2  0
  5 28  1  0
 28 29  1  0
 30 31  2  0
 31 32  1  0
 32 33  2  0
 13 34  1  0
 33 34  1  0
 30 35  1  0
 34 35  2  0
 23 37  1  1
 36 37  2  0
 37 38  1  0
 38 39  2  0
 39 40  1  0
  5 41  1  1
 36 41  1  0
 40 41  2  0
 26 42  1  0
 42 43  2  0
 27 44  1  0
 43 44  1  0
 44 45  2  0
 45 46  1  0
 42 47  1  0
 46 47  2  0
 15 48  1  0
 48 29  1  0
 48 49  1  0
 49 50  1  0
 27 51  1  0
 50 51  1  0
 51 52  1  0
 48 53  1  0
 52 53  1  0
M  END
