x3115-x0755
     RDKit          3D

 47 50  0  0  0  0  0  0  0  0999 V2000
    6.6980   -1.3650   22.1960 C   0  0  1  0  0  0  0  0  0  0  0  0
    6.7590   -4.6790   20.8140 C   0  0  0  0  0  0  0  0  0  0  0  0
    4.7920   -2.9530   21.1460 O   0  0  0  0  0  0  0  0  0  0  0  0
    6.9930   -3.6360   21.8050 C   0  0  0  0  0  0  0  0  0  0  0  0
    7.7170    1.6830   23.1480 N   0  0  0  0  0  0  0  0  0  0  0  0
    8.4370    1.0280   21.1070 O   0  0  0  0  0  0  0  0  0  0  0  0
    5.9640   -2.6370   21.6270 C   0  0  0  0  0  0  0  0  0  0  0  0
    8.6130    5.1210   22.9780 O   0  0  0  0  0  0  0  0  0  0  0  0
    6.4740    0.0680   21.7770 C   0  0  1  0  0  0  0  0  0  0  0  0
    7.5810    0.9280   21.9910 C   0  0  0  0  0  0  0  0  0  0  0  0
    8.4570    2.9030   23.1760 C   0  0  0  0  0  0  0  0  0  0  0  0
    7.9590    4.0220   22.4950 C   0  0  0  0  0  0  0  0  0  0  0  0
    8.3040    6.1460   22.3600 C   0  0  0  0  0  0  0  0  0  0  0  0
   12.4110   -1.9070   23.7170 C   0  0  0  0  0  0  0  0  0  0  0  0
   13.1950   -2.2650   22.6320 C   0  0  0  0  0  0  0  0  0  0  0  0
   12.6560   -2.8980   24.8670 C   0  0  0  0  0  0  0  0  0  0  0  0
   12.9500   -0.6120   24.1610 C   0  0  0  0  0  0  0  0  0  0  0  0
    4.1850   -6.5540   25.7510 O   0  0  0  0  0  0  0  0  0  0  0  0
    5.8840   -4.8100   26.6940 O   0  0  0  0  0  0  0  0  0  0  0  0
    2.0180   -5.4200   25.5020 F   0  0  0  0  0  0  0  0  0  0  0  0
    5.4600   -2.1400   26.0480 F   0  0  0  0  0  0  0  0  0  0  0  0
    4.9250   -5.1460   25.6790 S   0  0  0  0  0  0  0  0  0  0  0  0
    5.7980   -1.7840   23.3540 C   0  0  0  0  0  0  0  0  0  0  0  0
    6.3430    0.3350   17.9560 N   0  0  0  0  0  0  0  0  0  0  0  0
    5.2170    1.1670   17.7840 C   0  0  0  0  0  0  0  0  0  0  0  0
    4.5300    1.5880   18.9230 C   0  0  0  0  0  0  0  0  0  0  0  0
    4.9140    1.2350   20.1890 C   0  0  0  0  0  0  0  0  0  0  0  0
    6.0290    0.4270   20.3820 C   0  0  0  0  0  0  0  0  0  0  0  0
    6.7350   -0.0250   19.2570 C   0  0  0  0  0  0  0  0  0  0  0  0
    9.2310   -1.6460   21.6400 C   0  0  0  0  0  0  0  0  0  0  0  0
   10.5850   -1.7760   21.9950 C   0  0  0  0  0  0  0  0  0  0  0  0
   10.9290   -1.7930   23.3470 C   0  0  0  0  0  0  0  0  0  0  0  0
    9.9440   -1.6950   24.3250 C   0  0  0  0  0  0  0  0  0  0  0  0
    8.5990   -1.5710   23.9390 C   0  0  0  0  0  0  0  0  0  0  0  0
    8.2250   -1.5390   22.5930 C   0  0  0  0  0  0  0  0  0  0  0  0
    2.4030   -4.1450   25.6630 C   0  0  0  0  0  0  0  0  0  0  0  0
    3.7710   -3.8420   25.7640 C   0  0  0  0  0  0  0  0  0  0  0  0
    4.1800   -2.5110   25.9380 C   0  0  0  0  0  0  0  0  0  0  0  0
    3.1910   -1.5390   26.0000 C   0  0  0  0  0  0  0  0  0  0  0  0
    1.8300   -1.8100   25.9020 C   0  0  0  0  0  0  0  0  0  0  0  0
    1.4150   -3.1420   25.7290 C   0  0  0  0  0  0  0  0  0  0  0  0
    6.8830   -5.8700   21.6320 N   0  0  0  0  0  0  0  0  0  0  0  0
    7.7010   -5.6500   22.8380 C   0  0  0  0  0  0  0  0  0  0  0  0
    7.1490   -5.1130   24.0230 C   0  0  0  0  0  0  0  0  0  0  0  0
    5.6640   -5.0150   24.0980 N   0  0  0  0  0  0  0  0  0  0  0  0
    4.9050   -5.5050   22.9010 C   0  0  0  0  0  0  0  0  0  0  0  0
    5.6220   -6.4190   22.1210 C   0  0  0  0  0  0  0  0  0  0  0  0
  2  4  1  0
  1  7  1  0
  3  7  2  0
  4  7  1  0
  1  9  1  0
  5 10  1  0
  6 10  2  0
  9 10  1  6
  5 11  1  0
  8 12  1  0
 11 12  1  0
  8 13  1  0
 14 15  1  0
 14 16  1  0
 14 17  1  0
 18 22  2  0
 19 22  2  0
  1 23  1  1
 24 25  2  0
 25 26  1  0
 26 27  2  0
  9 28  1  0
 27 28  1  0
 24 29  1  0
 28 29  2  0
 30 31  2  0
 14 32  1  0
 31 32  1  0
 32 33  2  0
 33 34  1  0
  1 35  1  0
 30 35  1  0
 34 35  2  0
 20 36  1  0
 22 37  1  0
 36 37  2  0
 21 38  1  0
 37 38  1  0
 38 39  2  0
 39 40  1  0
 36 41  1  0
 40 41  2  0
  2 42  1  0
 42 43  1  0
 43 44  1  0
 22 45  1  0
 44 45  1  0
 45 46  1  0
 42 47  1  0
 46 47  1  0
M  END
