x3110-x3124
     RDKit          3D

 32 33  0  0  0  0  0  0  0  0999 V2000
    7.9730    1.1510   23.2540 N   0  0  0  0  0  0  0  0  0  0  0  0
   13.3680    5.0970   22.6940 C   0  0  0  0  0  0  0  0  0  0  0  0
   11.9000    3.2220   22.5830 O   0  0  0  0  0  0  0  0  0  0  0  0
   12.2390    4.3040   22.0960 C   0  0  0  0  0  0  0  0  0  0  0  0
    6.9200   -1.7080   21.7860 N   0  0  0  0  0  0  0  0  0  0  0  0
   10.7880    4.2630   24.1240 O   0  0  0  0  0  0  0  0  0  0  0  0
   11.0080    3.2830   23.4320 C   0  0  0  0  0  0  0  0  0  0  0  0
    8.5000    0.9820   21.0370 O   0  0  0  0  0  0  0  0  0  0  0  0
   10.2890    2.0650   23.4890 C   0  0  0  0  0  0  0  0  0  0  0  0
    4.7850   -3.0430   21.3870 O   0  0  0  0  0  0  0  0  0  0  0  0
    8.8820    2.2350   23.4790 C   0  0  0  0  0  0  0  0  0  0  0  0
    7.7250    0.6270   21.9240 C   0  0  0  0  0  0  0  0  0  0  0  0
    6.6160   -0.2240   21.6110 C   0  0  1  0  0  0  0  0  0  0  0  0
    6.0700   -2.8660   21.3550 C   0  0  0  0  0  0  0  0  0  0  0  0
    6.7630   -4.0460   20.7590 C   0  0  0  0  0  0  0  0  0  0  0  0
    8.1940   -3.6570   20.4170 C   0  0  0  0  0  0  0  0  0  0  0  0
   12.3150   -1.8700   24.0420 C   0  0  0  0  0  0  0  0  0  0  0  0
   12.5700   -0.6040   24.8560 C   0  0  0  0  0  0  0  0  0  0  0  0
   13.3270   -1.8850   22.9000 C   0  0  0  0  0  0  0  0  0  0  0  0
   12.6580   -3.0310   24.9670 C   0  0  0  0  0  0  0  0  0  0  0  0
    6.3780    0.4170   17.9040 N   0  0  0  0  0  0  0  0  0  0  0  0
    5.2420    1.2900   17.7580 C   0  0  0  0  0  0  0  0  0  0  0  0
    4.6040    1.5910   18.9640 C   0  0  0  0  0  0  0  0  0  0  0  0
    5.0230    1.1090   20.1970 C   0  0  0  0  0  0  0  0  0  0  0  0
    6.1290    0.2820   20.2740 C   0  0  0  0  0  0  0  0  0  0  0  0
    6.7710   -0.0420   19.1060 C   0  0  0  0  0  0  0  0  0  0  0  0
    9.3710   -1.3800   21.6620 C   0  0  0  0  0  0  0  0  0  0  0  0
   10.6930   -1.4100   22.1810 C   0  0  0  0  0  0  0  0  0  0  0  0
   10.8830   -1.8880   23.4700 C   0  0  0  0  0  0  0  0  0  0  0  0
    9.7860   -2.3390   24.1870 C   0  0  0  0  0  0  0  0  0  0  0  0
    8.4800   -2.3140   23.6740 C   0  0  0  0  0  0  0  0  0  0  0  0
    8.2510   -1.8210   22.3950 C   0  0  0  0  0  0  0  0  0  0  0  0
  2  4  1  0
  3  4  1  0
  3  7  1  0
  6  7  2  0
  7  9  1  0
  1 11  1  0
  9 11  1  0
  1 12  1  0
  8 12  2  0
  5 13  1  0
 13 12  1  6
  5 14  1  0
 10 14  2  0
 14 15  1  0
 15 16  1  0
 17 18  1  0
 17 19  1  0
 17 20  1  0
 21 22  2  0
 22 23  1  0
 23 24  2  0
 13 25  1  0
 24 25  1  0
 21 26  1  0
 25 26  2  0
 27 28  2  0
 17 29  1  0
 28 29  1  0
 29 30  2  0
 30 31  1  0
  5 32  1  0
 27 32  1  0
 31 32  2  0
M  END
