x3115-x1311
     RDKit          3D

 43 46  0  0  0  0  0  0  0  0999 V2000
    6.9400   -1.8270   21.7260 N   0  0  0  0  0  0  0  0  0  0  0  0
    6.8680   -5.1910   20.6160 C   0  0  0  0  0  0  0  0  0  0  0  0
    4.8910   -3.0600   21.0890 O   0  0  0  0  0  0  0  0  0  0  0  0
    6.6110   -4.3820   21.9030 C   0  0  2  0  0  0  0  0  0  0  0  0
    7.1280    1.6660   22.8290 N   0  0  0  0  0  0  0  0  0  0  0  0
    8.6760    0.6240   21.4680 O   0  0  0  0  0  0  0  0  0  0  0  0
    6.1010   -3.0150   21.5430 C   0  0  0  0  0  0  0  0  0  0  0  0
    8.4960    5.1540   22.9110 O   0  0  0  0  0  0  0  0  0  0  0  0
    6.4670   -0.3720   21.6500 C   0  0  1  0  0  0  0  0  0  0  0  0
    7.5540    0.6670   21.9690 C   0  0  0  0  0  0  0  0  0  0  0  0
    7.9790    2.7630   23.1290 C   0  0  0  0  0  0  0  0  0  0  0  0
    7.7720    4.0700   22.3090 C   0  0  0  0  0  0  0  0  0  0  0  0
    8.3400    6.3330   22.2430 C   0  0  0  0  0  0  0  0  0  0  0  0
   12.1470   -1.7810   24.3640 C   0  0  0  0  0  0  0  0  0  0  0  0
   13.3040   -2.2070   23.7190 C   0  0  0  0  0  0  0  0  0  0  0  0
   12.7820   -3.0290   25.0360 C   0  0  0  0  0  0  0  0  0  0  0  0
   12.4090   -0.5430   25.1810 C   0  0  0  0  0  0  0  0  0  0  0  0
    6.3940    0.4380   17.8950 N   0  0  0  0  0  0  0  0  0  0  0  0
    5.2040    1.2790   17.7640 C   0  0  0  0  0  0  0  0  0  0  0  0
    4.4680    1.5130   18.9220 C   0  0  0  0  0  0  0  0  0  0  0  0
    4.8010    1.0120   20.1720 C   0  0  0  0  0  0  0  0  0  0  0  0
    5.9440    0.2270   20.2740 C   0  0  0  0  0  0  0  0  0  0  0  0
    6.7170   -0.0600   19.1720 C   0  0  0  0  0  0  0  0  0  0  0  0
    9.4190   -1.5320   21.6920 C   0  0  0  0  0  0  0  0  0  0  0  0
   10.6570   -1.5370   22.3530 C   0  0  0  0  0  0  0  0  0  0  0  0
   10.7760   -1.8560   23.6960 C   0  0  0  0  0  0  0  0  0  0  0  0
    9.6060   -2.2040   24.3970 C   0  0  0  0  0  0  0  0  0  0  0  0
    8.3560   -2.2070   23.7450 C   0  0  0  0  0  0  0  0  0  0  0  0
    8.2790   -1.8600   22.3840 C   0  0  0  0  0  0  0  0  0  0  0  0
    8.8080   -4.8570   23.0610 C   0  0  0  0  0  0  0  0  0  0  0  0
    9.6250   -5.0420   24.1780 C   0  0  0  0  0  0  0  0  0  0  0  0
    9.1330   -4.9230   25.4490 C   0  0  0  0  0  0  0  0  0  0  0  0
    7.7960   -4.6170   25.6050 C   0  0  0  0  0  0  0  0  0  0  0  0
    6.9720   -4.4400   24.4850 C   0  0  0  0  0  0  0  0  0  0  0  0
    7.4830   -4.5590   23.1800 C   0  0  0  0  0  0  0  0  0  0  0  0
    4.3880   -6.9400   25.5500 O   0  0  0  0  0  0  0  0  0  0  0  0
    2.2770   -5.6160   24.7710 O   0  0  0  0  0  0  0  0  0  0  0  0
    4.5510   -6.5280   22.3090 C   0  0  0  0  0  0  0  0  0  0  0  0
    5.2930   -5.5110   22.7980 C   0  0  0  0  0  0  0  0  0  0  0  0
    4.5920   -4.7910   23.7780 C   0  0  1  0  0  0  0  0  0  0  0  0
    3.5860   -6.1260   24.4400 S   0  0  0  0  0  0  0  0  0  0  0  0
    3.5460   -7.0110   23.0450 C   0  0  0  0  0  0  0  0  0  0  0  0
    5.5310   -4.1360   24.7700 C   0  0  0  0  0  0  0  0  0  0  0  0
  4  2  1  6
  1  7  1  0
  3  7  2  0
  4  7  1  0
  1  9  1  0
  5 10  1  0
  6 10  2  0
  9 10  1  6
  5 11  1  0
  8 12  1  0
 11 12  1  0
  8 13  1  0
 14 15  1  0
 14 16  1  0
 14 17  1  0
 18 19  2  0
 19 20  1  0
 20 21  2  0
  9 22  1  0
 21 22  1  0
 18 23  1  0
 22 23  2  0
 24 25  2  0
 14 26  1  0
 25 26  1  0
 26 27  2  0
 27 28  1  0
  1 29  1  0
 24 29  1  0
 28 29  2  0
 30 31  2  0
 31 32  1  0
 32 33  2  0
 33 34  1  0
  4 35  1  0
 30 35  1  0
 34 35  2  0
 38 39  1  0
 39 40  1  0
 41 36  1  0
 37 41  1  0
 40 41  1  0
 38 42  2  0
 41 42  1  0
 34 43  1  0
 40 43  1  1
M  END
