x3115-x1358
     RDKit          3D

 44 48  0  0  0  0  0  0  0  0999 V2000
    6.9860   -1.9080   21.8850 C   0  0  2  0  0  0  0  0  0  0  0  0
    6.9630   -5.2070   20.4950 C   0  0  0  0  0  0  0  0  0  0  0  0
    4.8800   -3.0080   20.7820 O   0  0  0  0  0  0  0  0  0  0  0  0
    7.4950    1.5980   23.1510 N   0  0  0  0  0  0  0  0  0  0  0  0
    8.8320    0.6130   21.5030 O   0  0  0  0  0  0  0  0  0  0  0  0
    6.0060   -3.0480   21.3530 C   0  0  0  0  0  0  0  0  0  0  0  0
    8.5580    5.0790   23.0180 O   0  0  0  0  0  0  0  0  0  0  0  0
    6.6270   -0.3780   21.7680 C   0  0  1  0  0  0  0  0  0  0  0  0
    7.7650    0.6190   22.1110 C   0  0  0  0  0  0  0  0  0  0  0  0
    8.3610    2.6640   23.4250 C   0  0  0  0  0  0  0  0  0  0  0  0
    7.9900    3.8730   22.4980 C   0  0  0  0  0  0  0  0  0  0  0  0
    8.2340    6.1900   22.2890 C   0  0  0  0  0  0  0  0  0  0  0  0
   12.3510   -1.7390   24.1810 C   0  0  0  0  0  0  0  0  0  0  0  0
   13.4460   -2.2470   23.4950 C   0  0  0  0  0  0  0  0  0  0  0  0
   12.9960   -2.9370   24.9140 C   0  0  0  0  0  0  0  0  0  0  0  0
   12.5750   -0.4510   24.9410 C   0  0  0  0  0  0  0  0  0  0  0  0
    6.6240   -2.3870   25.8470 N   0  0  0  0  0  0  0  0  0  0  0  0
    5.4750   -0.0230   25.3070 O   0  0  0  0  0  0  0  0  0  0  0  0
    4.6410   -3.6040   25.8150 O   0  0  0  0  0  0  0  0  0  0  0  0
    5.5450   -3.0330   25.2240 C   0  0  0  0  0  0  0  0  0  0  0  0
    6.3330    0.2900   17.9320 N   0  0  0  0  0  0  0  0  0  0  0  0
    5.1820    1.0250   17.9290 C   0  0  0  0  0  0  0  0  0  0  0  0
    4.4080    1.3560   19.0410 C   0  0  0  0  0  0  0  0  0  0  0  0
    4.8740    0.8920   20.2760 C   0  0  0  0  0  0  0  0  0  0  0  0
    6.0220    0.1430   20.4610 C   0  0  0  0  0  0  0  0  0  0  0  0
    6.7420   -0.1580   19.2900 C   0  0  0  0  0  0  0  0  0  0  0  0
    9.5590   -2.3590   21.6880 C   0  0  0  0  0  0  0  0  0  0  0  0
   10.8250   -2.3090   22.2530 C   0  0  0  0  0  0  0  0  0  0  0  0
   11.0000   -1.8130   23.5330 C   0  0  0  0  0  0  0  0  0  0  0  0
    9.9030   -1.3650   24.2320 C   0  0  0  0  0  0  0  0  0  0  0  0
    8.6530   -1.4170   23.6530 C   0  0  0  0  0  0  0  0  0  0  0  0
    8.4400   -1.9190   22.3560 C   0  0  0  0  0  0  0  0  0  0  0  0
    5.9830   -0.1650   26.5890 C   0  0  0  0  0  0  0  0  0  0  0  0
    6.5820   -1.4050   26.8800 C   0  0  0  0  0  0  0  0  0  0  0  0
    7.1060   -1.6110   28.1730 C   0  0  0  0  0  0  0  0  0  0  0  0
    7.0250   -0.5910   29.1080 C   0  0  0  0  0  0  0  0  0  0  0  0
    6.4350    0.6190   28.7940 C   0  0  0  0  0  0  0  0  0  0  0  0
    5.8980    0.8700   27.5350 C   0  0  0  0  0  0  0  0  0  0  0  0
    6.5410   -4.3990   21.7050 C   0  0  2  0  0  0  0  0  0  0  0  0
    7.5750   -3.9040   22.7160 C   0  0  0  0  0  0  0  0  0  0  0  0
    6.8580   -2.7820   23.2340 C   0  0  2  0  0  0  0  0  0  0  0  0
    5.5480   -2.9880   23.6780 C   0  0  1  0  0  0  0  0  0  0  0  0
    4.8360   -4.1250   23.2640 C   0  0  0  0  0  0  0  0  0  0  0  0
    5.4880   -5.0910   22.5190 C   0  0  0  0  0  0  0  0  0  0  0  0
  1  6  1  0
  3  6  2  0
  1  8  1  0
  4  9  1  0
  5  9  2  0
  8  9  1  6
  4 10  1  0
  7 11  1  0
 10 11  1  0
  7 12  1  0
 13 14  1  0
 13 15  1  0
 13 16  1  0
 17 20  1  0
 19 20  2  0
 21 22  2  0
 22 23  1  0
 23 24  2  0
  8 25  1  0
 24 25  1  0
 21 26  1  0
 25 26  2  0
 27 28  2  0
 13 29  1  0
 28 29  1  0
 29 30  2  0
 30 31  1  0
  1 32  1  6
 27 32  1  0
 31 32  2  0
 18 33  1  0
 17 34  1  0
 33 34  2  0
 34 35  1  0
 35 36  2  0
 36 37  1  0
 33 38  1  0
 37 38  2  0
 39  2  1  6
  6 39  1  0
 39 40  1  0
  1 41  1  0
 41 40  1  6
 42 20  1  1
 41 42  1  0
 42 43  1  0
 39 44  1  0
 43 44  1  0
M  END
