x3117-x0691
     RDKit          3D

 49 54  0  0  0  0  0  0  0  0999 V2000
    6.8050   -1.4480   22.0450 C   0  0  1  0  0  0  0  0  0  0  0  0
    6.6690   -3.8910   20.1650 C   0  0  0  0  0  0  0  0  0  0  0  0
    4.9170   -3.0630   20.7010 O   0  0  0  0  0  0  0  0  0  0  0  0
    6.4600   -2.4260   20.2460 C   0  0  0  0  0  0  0  0  0  0  0  0
    7.5570    1.9070   23.2710 N   0  0  0  0  0  0  0  0  0  0  0  0
    8.6730    0.9570   21.3950 O   0  0  0  0  0  0  0  0  0  0  0  0
    5.6520   -2.3400   21.4380 C   0  0  0  0  0  0  0  0  0  0  0  0
    6.5340    0.1270   21.8630 C   0  0  1  0  0  0  0  0  0  0  0  0
    7.6620    0.9620   22.1020 C   0  0  0  0  0  0  0  0  0  0  0  0
   12.2810   -1.8880   24.1940 C   0  0  0  0  0  0  0  0  0  0  0  0
   13.0790   -0.8600   23.7810 C   0  0  0  0  0  0  0  0  0  0  0  0
   12.5590   -0.6720   25.0130 C   0  0  0  0  0  0  0  0  0  0  0  0
   12.8190   -3.0340   24.9780 C   0  0  0  0  0  0  0  0  0  0  0  0
    4.0150   -6.9870   25.5680 O   0  0  0  0  0  0  0  0  0  0  0  0
    5.8300   -5.2850   26.7510 O   0  0  0  0  0  0  0  0  0  0  0  0
    3.2240   -0.6010   25.9940 F   0  0  0  0  0  0  0  0  0  0  0  0
    4.7920   -5.5960   25.5900 S   0  0  0  0  0  0  0  0  0  0  0  0
    6.2190   -2.0610   23.2650 C   0  0  0  0  0  0  0  0  0  0  0  0
    5.5300   -3.3370   22.6160 C   0  0  0  0  0  0  0  0  0  0  0  0
    6.3950    0.4500   17.8640 N   0  0  0  0  0  0  0  0  0  0  0  0
    5.2250    1.2960   17.7730 C   0  0  0  0  0  0  0  0  0  0  0  0
    4.3990    1.8060   18.9340 C   0  0  0  0  0  0  0  0  0  0  0  0
    4.8090    1.4230   20.3390 C   0  0  0  0  0  0  0  0  0  0  0  0
    6.0490    0.5360   20.4890 C   0  0  0  0  0  0  0  0  0  0  0  0
    6.8100    0.0680   19.2040 C   0  0  0  0  0  0  0  0  0  0  0  0
    9.8920    5.0830   24.0770 O   0  0  0  0  0  0  0  0  0  0  0  0
   10.6750    4.0420   23.4920 C   0  0  0  0  0  0  0  0  0  0  0  0
    9.9470    2.8500   23.5150 C   0  0  0  0  0  0  0  0  0  0  0  0
    8.4250    3.0180   23.5480 C   0  0  0  0  0  0  0  0  0  0  0  0
    8.0480    4.2420   22.7160 C   0  0  0  0  0  0  0  0  0  0  0  0
    8.8200    5.4800   23.2020 C   0  0  0  0  0  0  0  0  0  0  0  0
    9.3710   -2.1210   21.7720 C   0  0  0  0  0  0  0  0  0  0  0  0
   10.6580   -2.2080   22.3160 C   0  0  0  0  0  0  0  0  0  0  0  0
   10.8960   -1.8130   23.6300 C   0  0  0  0  0  0  0  0  0  0  0  0
    9.8480   -1.3400   24.3950 C   0  0  0  0  0  0  0  0  0  0  0  0
    8.6020   -1.2710   23.8120 C   0  0  0  0  0  0  0  0  0  0  0  0
    8.2940   -1.6430   22.4980 C   0  0  0  0  0  0  0  0  0  0  0  0
    2.8760   -1.9050   25.8530 C   0  0  0  0  0  0  0  0  0  0  0  0
    3.8650   -2.9800   25.7910 C   0  0  0  0  0  0  0  0  0  0  0  0
    3.5510   -4.3330   25.6490 C   0  0  0  0  0  0  0  0  0  0  0  0
    2.1770   -4.5780   25.5640 C   0  0  0  0  0  0  0  0  0  0  0  0
    1.1870   -3.5930   25.6170 C   0  0  0  0  0  0  0  0  0  0  0  0
    1.5240   -2.2490   25.7630 C   0  0  0  0  0  0  0  0  0  0  0  0
    6.3910   -4.3900   21.7260 C   0  0  0  0  0  0  0  0  0  0  0  0
    5.6260   -5.7120   21.7320 C   0  0  0  0  0  0  0  0  0  0  0  0
    4.9970   -6.1290   22.9240 C   0  0  0  0  0  0  0  0  0  0  0  0
    5.5410   -5.3600   24.0730 N   0  0  0  0  0  0  0  0  0  0  0  0
    6.9640   -4.8740   24.0640 C   0  0  0  0  0  0  0  0  0  0  0  0
    7.4810   -4.7360   22.7530 C   0  0  0  0  0  0  0  0  0  0  0  0
  2  4  1  0
  1  7  1  0
  3  7  2  0
  4  7  1  0
  1  8  1  0
  5  9  1  0
  6  9  2  0
  8  9  1  6
 10 11  1  0
 10 12  1  0
 10 13  1  0
 14 17  2  0
 15 17  2  0
  1 18  1  0
 18 19  1  0
 20 21  2  0
 21 22  1  0
 22 23  2  0
  8 24  1  0
 23 24  1  0
 20 25  1  0
 24 25  2  0
 26 27  1  0
 27 28  1  0
  5 29  1  0
 28 29  1  0
 29 30  1  0
 26 31  1  0
 30 31  1  0
 32 33  2  0
 10 34  1  0
 33 34  1  0
 34 35  2  0
 35 36  1  0
  1 37  1  6
 32 37  1  0
 36 37  2  0
 16 38  1  0
 38 39  2  0
 17 40  1  0
 39 40  1  0
 40 41  2  0
 41 42  1  0
 38 43  1  0
 42 43  2  0
  2 44  1  0
 44 19  1  0
 44 45  1  0
 45 46  1  0
 17 47  1  0
 46 47  1  0
 47 48  1  0
 44 49  1  0
 48 49  1  0
M  END
