x3115-x2776
     RDKit          3D

 35 37  0  0  0  0  0  0  0  0999 V2000
    7.0040   -1.7340   21.8060 N   0  0  0  0  0  0  0  0  0  0  0  0
    6.7160   -4.9320   20.4330 C   0  0  0  0  0  0  0  0  0  0  0  0
    4.8520   -3.0500   21.2360 O   0  0  0  0  0  0  0  0  0  0  0  0
    6.7950   -4.2430   21.7720 C   0  0  0  0  0  0  0  0  0  0  0  0
    7.6330    1.8120   22.8110 N   0  0  0  0  0  0  0  0  0  0  0  0
    8.8960    0.6380   21.3120 O   0  0  0  0  0  0  0  0  0  0  0  0
    6.1240   -2.9270   21.5840 C   0  0  0  0  0  0  0  0  0  0  0  0
    6.6710   -0.2320   21.6520 C   0  0  1  0  0  0  0  0  0  0  0  0
    7.8430    0.7600   21.9110 C   0  0  0  0  0  0  0  0  0  0  0  0
    8.2310    6.6780   22.4060 C   0  0  0  0  0  0  0  0  0  0  0  0
   12.1820   -1.9890   24.0440 C   0  0  0  0  0  0  0  0  0  0  0  0
   12.8900   -1.8090   22.8530 C   0  0  0  0  0  0  0  0  0  0  0  0
   12.7080   -2.8910   24.9770 C   0  0  0  0  0  0  0  0  0  0  0  0
   12.4190   -0.6000   24.7150 C   0  0  0  0  0  0  0  0  0  0  0  0
   10.7100    6.5560   23.5790 O   0  0  0  0  0  0  0  0  0  0  0  0
   10.3450    1.5300   24.0370 C   0  0  0  0  0  0  0  0  0  0  0  0
   11.7380    6.6100   24.5720 C   0  0  0  0  0  0  0  0  0  0  0  0
    6.3470    0.3890   17.9160 N   0  0  0  0  0  0  0  0  0  0  0  0
    5.1680    1.2440   17.8060 C   0  0  0  0  0  0  0  0  0  0  0  0
    4.4820    1.5760   18.9820 C   0  0  0  0  0  0  0  0  0  0  0  0
    4.9150    1.1180   20.2300 C   0  0  0  0  0  0  0  0  0  0  0  0
    6.0550    0.3160   20.2920 C   0  0  0  0  0  0  0  0  0  0  0  0
    6.7620   -0.0560   19.1770 C   0  0  0  0  0  0  0  0  0  0  0  0
    9.6050   -1.4550   21.8830 C   0  0  0  0  0  0  0  0  0  0  0  0
   10.8570   -1.5830   22.5920 C   0  0  0  0  0  0  0  0  0  0  0  0
   10.7040   -2.1320   23.8550 C   0  0  0  0  0  0  0  0  0  0  0  0
    9.5530   -2.5600   24.4780 C   0  0  0  0  0  0  0  0  0  0  0  0
    8.3500   -2.4230   23.7710 C   0  0  0  0  0  0  0  0  0  0  0  0
    8.3680   -1.8660   22.4710 C   0  0  0  0  0  0  0  0  0  0  0  0
    9.7660    2.8840   23.6060 C   0  0  0  0  0  0  0  0  0  0  0  0
   10.5190    4.0660   23.7890 C   0  0  0  0  0  0  0  0  0  0  0  0
   10.0360    5.3140   23.4190 C   0  0  0  0  0  0  0  0  0  0  0  0
    8.7710    5.4210   22.8280 C   0  0  0  0  0  0  0  0  0  0  0  0
    8.0370    4.2350   22.6560 C   0  0  0  0  0  0  0  0  0  0  0  0
    8.4820    2.9520   23.0290 C   0  0  0  0  0  0  0  0  0  0  0  0
  2  4  1  0
  1  7  1  0
  3  7  2  0
  4  7  1  0
  1  8  1  0
  5  9  1  0
  6  9  2  0
  8  9  1  6
 11 12  1  0
 11 13  1  0
 11 14  1  0
 15 17  1  0
 18 19  2  0
 19 20  1  0
 20 21  2  0
  8 22  1  0
 21 22  1  0
 18 23  1  0
 22 23  2  0
 24 25  2  0
 11 26  1  0
 25 26  1  0
 26 27  2  0
 27 28  1  0
  1 29  1  0
 24 29  1  0
 28 29  2  0
 16 30  1  0
 30 31  2  0
 15 32  1  0
 31 32  1  0
 10 33  1  0
 32 33  2  0
 33 34  1  0
  5 35  1  0
 30 35  1  0
 34 35  2  0
M  END
