x3110-x1493-x0946
     RDKit          3D

 48 52  0  0  0  0  0  0  0  0999 V2000
    8.0320    0.9970   23.6320 N   0  0  0  0  0  0  0  0  0  0  0  0
   13.4320    5.2900   23.2360 C   0  0  0  0  0  0  0  0  0  0  0  0
   13.0430    4.3030   22.2200 C   0  0  0  0  0  0  0  0  0  0  0  0
    6.9160   -1.4360   21.9880 C   0  0  2  0  0  0  0  0  0  0  0  0
   10.3520    4.7830   23.2680 C   0  0  0  0  0  0  0  0  0  0  0  0
    8.6010    1.4820   21.2100 O   0  0  0  0  0  0  0  0  0  0  0  0
    5.1370   -3.3710   20.7240 O   0  0  0  0  0  0  0  0  0  0  0  0
    8.7690    2.1770   24.1470 C   0  0  0  0  0  0  0  0  0  0  0  0
    7.7930    0.8770   22.1740 C   0  0  0  0  0  0  0  0  0  0  0  0
    6.6310    0.1080   21.8320 C   0  0  1  0  0  0  0  0  0  0  0  0
    5.8340   -2.3860   21.2630 C   0  0  0  0  0  0  0  0  0  0  0  0
    6.9870   -3.3480   21.4710 C   0  0  2  0  0  0  0  0  0  0  0  0
    7.0100   -4.4570   20.4330 C   0  0  0  0  0  0  0  0  0  0  0  0
   12.4190   -1.9610   24.2390 C   0  0  0  0  0  0  0  0  0  0  0  0
   12.7310   -0.8120   24.9440 C   0  0  0  0  0  0  0  0  0  0  0  0
   13.4030   -2.0950   23.0590 C   0  0  0  0  0  0  0  0  0  0  0  0
   12.4960   -3.1570   24.9270 C   0  0  0  0  0  0  0  0  0  0  0  0
    8.9930    5.0650   22.7790 N   0  0  0  0  0  0  0  0  0  0  0  0
   11.0550    5.5290   22.6290 O   0  0  0  0  0  0  0  0  0  0  0  0
   10.3880    5.3150   24.3760 O   0  0  0  0  0  0  0  0  0  0  0  0
    4.9190   -6.0040   26.0060 C   0  0  0  0  0  0  0  0  0  0  0  0
    7.2720   -5.5910   26.6310 O   0  0  0  0  0  0  0  0  0  0  0  0
    6.2250   -5.6550   25.6770 C   0  0  0  0  0  0  0  0  0  0  0  0
    6.2690   -2.1440   23.2110 C   0  0  0  0  0  0  0  0  0  0  0  0
    6.4140    0.3940   17.8980 N   0  0  0  0  0  0  0  0  0  0  0  0
    5.2890    1.3400   17.7750 C   0  0  0  0  0  0  0  0  0  0  0  0
    4.5570    1.9060   18.9530 C   0  0  0  0  0  0  0  0  0  0  0  0
    5.0450    1.4570   20.2960 C   0  0  0  0  0  0  0  0  0  0  0  0
    6.2070    0.4900   20.4360 C   0  0  0  0  0  0  0  0  0  0  0  0
    6.8270    0.0090   19.1250 C   0  0  0  0  0  0  0  0  0  0  0  0
    9.5070   -1.4120   21.6890 C   0  0  0  0  0  0  0  0  0  0  0  0
   10.8200   -1.5240   22.1750 C   0  0  0  0  0  0  0  0  0  0  0  0
   11.0250   -1.8570   23.6330 C   0  0  0  0  0  0  0  0  0  0  0  0
    9.8520   -2.0750   24.5020 C   0  0  0  0  0  0  0  0  0  0  0  0
    8.5050   -1.9290   23.8470 C   0  0  0  0  0  0  0  0  0  0  0  0
    8.3560   -1.6020   22.4820 C   0  0  0  0  0  0  0  0  0  0  0  0
   12.1260    0.8310   23.2150 C   0  0  0  0  0  0  0  0  0  0  0  0
   12.8040    1.9410   22.7810 C   0  0  0  0  0  0  0  0  0  0  0  0
   12.2030    3.1910   22.7750 C   0  0  0  0  0  0  0  0  0  0  0  0
   10.9130    3.3480   23.2470 C   0  0  0  0  0  0  0  0  0  0  0  0
   10.2050    2.2110   23.6670 C   0  0  0  0  0  0  0  0  0  0  0  0
   10.8120    0.9690   23.6540 C   0  0  0  0  0  0  0  0  0  0  0  0
    6.4170   -5.3850   24.2230 N   0  0  0  0  0  0  0  0  0  0  0  0
    7.3490   -4.3360   23.7020 C   0  0  0  0  0  0  0  0  0  0  0  0
    6.4970   -3.6510   22.8460 C   0  0  2  0  0  0  0  0  0  0  0  0
    5.2180   -4.3080   22.5810 N   0  0  0  0  0  0  0  0  0  0  0  0
    5.3020   -5.7260   22.2420 C   0  0  0  0  0  0  0  0  0  0  0  0
    5.9800   -6.3760   23.2210 C   0  0  0  0  0  0  0  0  0  0  0  0
  2  3  1  0
  1  8  1  0
  1  9  1  0
  6  9  2  0
  4 10  1  0
 10  9  1  6
  4 11  1  0
  7 11  2  0
 11 12  1  0
 12 13  1  6
 14 15  1  0
 14 16  1  0
 14 17  1  0
  5 18  1  0
  5 19  1  0
  5 20  1  0
 21 23  1  0
 22 23  2  0
  4 24  1  0
 25 26  2  0
 26 27  1  0
 27 28  2  0
 10 29  1  0
 28 29  1  0
 25 30  1  0
 29 30  2  0
 31 32  2  0
 14 33  1  0
 32 33  1  0
 33 34  2  0
 34 35  1  0
  4 36  1  6
 31 36  1  0
 35 36  2  0
 37 38  2  0
  3 39  1  0
 38 39  1  0
  5 40  1  0
 39 40  2  0
  8 41  1  0
 40 41  1  0
 37 42  1  0
 41 42  2  0
 23 43  1  0
 43 44  1  0
 12 45  1  0
 45 24  1  1
 44 45  1  0
 45 46  1  0
 46 47  1  0
 43 48  1  0
 47 48  1  0
M  END
