x3110-x0978-x1308
     RDKit          3D

 56 60  0  0  0  0  0  0  0  0999 V2000
    7.9380    1.0400   23.2880 N   0  0  0  0  0  0  0  0  0  0  0  0
   13.3820    5.1340   22.7810 C   0  0  0  0  0  0  0  0  0  0  0  0
   11.9690    3.2670   22.4490 O   0  0  0  0  0  0  0  0  0  0  0  0
   12.3190    4.3720   22.0430 C   0  0  0  0  0  0  0  0  0  0  0  0
    6.9360   -1.8280   21.8650 N   0  0  0  0  0  0  0  0  0  0  0  0
   10.8500    4.2650   24.1530 O   0  0  0  0  0  0  0  0  0  0  0  0
   11.0350    3.3050   23.4300 C   0  0  0  0  0  0  0  0  0  0  0  0
    8.5400    0.9270   21.1120 O   0  0  0  0  0  0  0  0  0  0  0  0
   10.2400    1.9790   23.5000 C   0  0  0  0  0  0  0  0  0  0  0  0
    4.7320   -2.9790   21.3740 O   0  0  0  0  0  0  0  0  0  0  0  0
    8.7330    2.2670   23.5310 C   0  0  0  0  0  0  0  0  0  0  0  0
    7.7590    0.5630   21.9910 C   0  0  0  0  0  0  0  0  0  0  0  0
    6.5900   -0.3430   21.7250 C   0  0  1  0  0  0  0  0  0  0  0  0
    6.0040   -2.9670   21.4700 C   0  0  0  0  0  0  0  0  0  0  0  0
    6.5130   -4.3370   21.0530 C   0  0  1  0  0  0  0  0  0  0  0  0
    8.0490   -4.2940   20.8920 C   0  0  0  0  0  0  0  0  0  0  0  0
   12.3030   -1.8470   24.2180 C   0  0  0  0  0  0  0  0  0  0  0  0
   12.5110   -0.6960   24.9580 C   0  0  0  0  0  0  0  0  0  0  0  0
   13.3110   -1.8300   23.0680 C   0  0  0  0  0  0  0  0  0  0  0  0
   12.7180   -2.9810   25.1710 C   0  0  0  0  0  0  0  0  0  0  0  0
    2.5570   -5.4560   22.8800 N   0  0  0  0  0  0  0  0  0  0  0  0
    2.7270   -8.0230   24.4340 C   0  0  0  0  0  0  0  0  0  0  0  0
    4.5180   -6.9990   25.1610 N   0  0  0  0  0  0  0  0  0  0  0  0
    3.4020   -6.8030   24.5230 C   0  0  1  0  0  0  0  0  0  0  0  0
    1.2410   -7.4620   22.1060 O   0  0  0  0  0  0  0  0  0  0  0  0
    3.6210   -6.2130   23.2560 C   0  0  2  0  0  0  0  0  0  0  0  0
    4.4260   -4.0280   22.6960 O   0  0  0  0  0  0  0  0  0  0  0  0
    1.2900   -6.1670   22.6760 C   0  0  0  0  0  0  0  0  0  0  0  0
    0.0970   -5.5280   23.0320 C   0  0  0  0  0  0  0  0  0  0  0  0
    0.5640   -1.0660   26.6670 Cl  0  0  0  0  0  0  0  0  0  0  0  0
    6.2980   -5.4300   26.6820 O   0  0  0  0  0  0  0  0  0  0  0  0
    5.1850   -5.6090   25.7670 S   0  0  1  0  0  0  0  0  0  0  0  0
    6.4200    0.3800   17.8650 N   0  0  0  0  0  0  0  0  0  0  0  0
    5.2660    1.2750   17.7630 C   0  0  0  0  0  0  0  0  0  0  0  0
    4.4700    1.6600   18.9950 C   0  0  0  0  0  0  0  0  0  0  0  0
    4.9200    1.0950   20.3370 C   0  0  0  0  0  0  0  0  0  0  0  0
    6.1470    0.1750   20.3420 C   0  0  0  0  0  0  0  0  0  0  0  0
    6.8530   -0.1470   19.0380 C   0  0  0  0  0  0  0  0  0  0  0  0
    9.4150   -1.5710   21.7230 C   0  0  0  0  0  0  0  0  0  0  0  0
   10.7080   -1.5690   22.2590 C   0  0  0  0  0  0  0  0  0  0  0  0
   10.9100   -1.8720   23.5950 C   0  0  0  0  0  0  0  0  0  0  0  0
    9.8040   -2.1880   24.3760 C   0  0  0  0  0  0  0  0  0  0  0  0
    8.4970   -2.1920   23.8270 C   0  0  0  0  0  0  0  0  0  0  0  0
    8.2700   -1.8760   22.4670 C   0  0  0  0  0  0  0  0  0  0  0  0
    7.0020   -6.2250   22.3330 N   0  0  0  0  0  0  0  0  0  0  0  0
    7.7470   -5.4810   23.1900 C   0  0  0  0  0  0  0  0  0  0  0  0
    7.1050   -4.6520   24.0850 C   0  0  0  0  0  0  0  0  0  0  0  0
    5.7540   -5.1200   24.2750 N   0  0  0  0  0  0  0  0  0  0  0  0
    4.9810   -5.2880   23.0390 C   0  0  1  0  0  0  0  0  0  0  0  0
    5.8510   -5.5290   21.9110 C   0  0  1  0  0  0  0  0  0  0  0  0
    4.2810   -2.9870   26.4040 C   0  0  0  0  0  0  0  0  0  0  0  0
    3.2640   -2.0220   26.5880 C   0  0  0  0  0  0  0  0  0  0  0  0
    1.7430   -2.2830   26.4270 C   0  0  0  0  0  0  0  0  0  0  0  0
    1.3750   -3.7130   26.0400 C   0  0  0  0  0  0  0  0  0  0  0  0
    2.4900   -4.7260   25.8510 C   0  0  0  0  0  0  0  0  0  0  0  0
    3.9440   -4.3110   26.0450 C   0  0  0  0  0  0  0  0  0  0  0  0
  2  4  1  0
  3  4  1  0
  3  7  1  0
  6  7  2  0
  7  9  1  0
  1 11  1  0
  9 11  1  0
  1 12  1  0
  8 12  2  0
  5 13  1  0
 13 12  1  6
  5 14  1  0
 10 14  2  0
 14 15  1  0
 15 16  1  1
 17 18  1  0
 17 19  1  0
 17 20  1  0
 24 22  1  6
 23 24  1  0
 26 21  1  1
 24 26  1  0
 21 28  1  0
 25 28  2  0
 28 29  1  0
 23 32  2  0
 31 32  2  0
 33 34  2  0
 34 35  1  0
 35 36  2  0
 13 37  1  0
 36 37  1  0
 33 38  1  0
 37 38  2  0
 39 40  2  0
 17 41  1  0
 40 41  1  0
 41 42  2  0
 42 43  1  0
  5 44  1  0
 39 44  1  0
 43 44  2  0
 45 46  1  0
 46 47  1  0
 32 48  1  0
 47 48  1  0
 26 49  1  0
 49 27  1  6
 48 49  1  0
 15 50  1  0
 50 45  1  1
 49 50  1  0
 51 52  2  0
 30 53  1  0
 52 53  1  0
 53 54  2  0
 54 55  1  0
 32 56  1  1
 51 56  1  0
 55 56  2  0
M  END
