x3113-x3110
     RDKit          3D

 32 33  0  0  0  0  0  0  0  0999 V2000
    7.9970    1.1600   23.2660 N   0  0  0  0  0  0  0  0  0  0  0  0
   13.3920    5.1680   22.6620 C   0  0  0  0  0  0  0  0  0  0  0  0
   11.9120    3.1610   22.5830 O   0  0  0  0  0  0  0  0  0  0  0  0
   12.2420    4.3860   22.0930 C   0  0  0  0  0  0  0  0  0  0  0  0
    6.8970   -1.7080   21.8540 N   0  0  0  0  0  0  0  0  0  0  0  0
   10.8730    4.1660   24.0890 O   0  0  0  0  0  0  0  0  0  0  0  0
   11.0020    3.1640   23.4030 C   0  0  0  0  0  0  0  0  0  0  0  0
    8.4730    1.0020   21.0450 O   0  0  0  0  0  0  0  0  0  0  0  0
   10.1500    2.0440   23.5270 C   0  0  0  0  0  0  0  0  0  0  0  0
    4.7740   -3.0400   21.3920 O   0  0  0  0  0  0  0  0  0  0  0  0
    8.7510    2.1990   23.4650 C   0  0  0  0  0  0  0  0  0  0  0  0
    7.7290    0.6420   21.9580 C   0  0  0  0  0  0  0  0  0  0  0  0
    6.6300   -0.2280   21.6440 C   0  0  1  0  0  0  0  0  0  0  0  0
    6.0610   -2.8670   21.3780 C   0  0  0  0  0  0  0  0  0  0  0  0
    6.7440   -4.0770   20.7530 C   0  0  0  0  0  0  0  0  0  0  0  0
    8.1610   -3.6480   20.4090 C   0  0  0  0  0  0  0  0  0  0  0  0
   12.4270   -1.8990   23.9790 C   0  0  0  0  0  0  0  0  0  0  0  0
   12.6510   -0.9260   24.9650 C   0  0  0  0  0  0  0  0  0  0  0  0
   13.3360   -1.9980   22.9200 C   0  0  0  0  0  0  0  0  0  0  0  0
   12.7530   -2.9600   25.0040 C   0  0  0  0  0  0  0  0  0  0  0  0
    6.4000    0.3460   17.8500 N   0  0  0  0  0  0  0  0  0  0  0  0
    5.2470    1.2080   17.7960 C   0  0  0  0  0  0  0  0  0  0  0  0
    4.5770    1.5550   18.9540 C   0  0  0  0  0  0  0  0  0  0  0  0
    5.0320    1.0560   20.3230 C   0  0  0  0  0  0  0  0  0  0  0  0
    6.1490    0.2350   20.3800 C   0  0  0  0  0  0  0  0  0  0  0  0
    6.8150   -0.1020   19.0530 C   0  0  0  0  0  0  0  0  0  0  0  0
    9.3770   -1.3150   21.5550 C   0  0  0  0  0  0  0  0  0  0  0  0
   10.6730   -1.3610   22.0570 C   0  0  0  0  0  0  0  0  0  0  0  0
   10.9840   -1.8980   23.4440 C   0  0  0  0  0  0  0  0  0  0  0  0
    9.8900   -2.3480   24.1410 C   0  0  0  0  0  0  0  0  0  0  0  0
    8.5570   -2.3330   23.6950 C   0  0  0  0  0  0  0  0  0  0  0  0
    8.2690   -1.8300   22.4450 C   0  0  0  0  0  0  0  0  0  0  0  0
  2  4  1  0
  3  4  1  0
  3  7  1  0
  6  7  2  0
  7  9  1  0
  1 11  1  0
  9 11  1  0
  1 12  1  0
  8 12  2  0
  5 13  1  0
 13 12  1  6
  5 14  1  0
 10 14  2  0
 14 15  1  0
 15 16  1  0
 17 18  1  0
 17 19  1  0
 17 20  1  0
 21 22  2  0
 22 23  1  0
 23 24  2  0
 13 25  1  0
 24 25  1  0
 21 26  1  0
 25 26  2  0
 27 28  2  0
 17 29  1  0
 28 29  1  0
 29 30  2  0
 30 31  1  0
  5 32  1  0
 27 32  1  0
 31 32  2  0
M  END
