x3110-x1311-x0946
     RDKit          3D

 52 56  0  0  0  0  0  0  0  0999 V2000
    8.0710    0.7470   23.5590 N   0  0  0  0  0  0  0  0  0  0  0  0
   13.7930    5.2570   22.5470 C   0  0  0  0  0  0  0  0  0  0  0  0
   12.3690    5.1290   22.7340 C   0  0  0  0  0  0  0  0  0  0  0  0
    7.0640   -1.7430   21.7380 N   0  0  0  0  0  0  0  0  0  0  0  0
    9.8010    4.7350   23.6870 C   0  0  0  0  0  0  0  0  0  0  0  0
    8.5570    1.1060   21.2070 O   0  0  0  0  0  0  0  0  0  0  0  0
    4.9570   -3.1300   21.0810 O   0  0  0  0  0  0  0  0  0  0  0  0
    8.7280    1.8620   24.1570 C   0  0  0  0  0  0  0  0  0  0  0  0
    7.8440    0.5500   22.0630 C   0  0  0  0  0  0  0  0  0  0  0  0
    6.6360   -0.3570   21.6970 C   0  0  1  0  0  0  0  0  0  0  0  0
    6.2410   -2.9540   21.4330 C   0  0  0  0  0  0  0  0  0  0  0  0
    7.0350   -4.2660   21.5810 C   0  0  1  0  0  0  0  0  0  0  0  0
    8.4410   -4.3040   20.9540 C   0  0  0  0  0  0  0  0  0  0  0  0
   12.2160   -1.8920   24.3200 C   0  0  0  0  0  0  0  0  0  0  0  0
   12.3760   -0.7330   25.0800 C   0  0  0  0  0  0  0  0  0  0  0  0
   13.3500   -1.9190   23.3200 C   0  0  0  0  0  0  0  0  0  0  0  0
   12.1920   -3.0560   24.9620 C   0  0  0  0  0  0  0  0  0  0  0  0
    8.8250    4.9360   22.7510 N   0  0  0  0  0  0  0  0  0  0  0  0
   10.4920    5.7300   23.7050 O   0  0  0  0  0  0  0  0  0  0  0  0
    9.2660    4.9900   24.9970 O   0  0  0  0  0  0  0  0  0  0  0  0
    6.4370    0.4100   17.8640 N   0  0  0  0  0  0  0  0  0  0  0  0
    5.2040    1.3880   17.7600 C   0  0  0  0  0  0  0  0  0  0  0  0
    4.4540    1.7380   19.0450 C   0  0  0  0  0  0  0  0  0  0  0  0
    4.9580    1.1170   20.3760 C   0  0  0  0  0  0  0  0  0  0  0  0
    6.1910    0.1750   20.3610 C   0  0  0  0  0  0  0  0  0  0  0  0
    6.8620   -0.1480   19.1820 C   0  0  0  0  0  0  0  0  0  0  0  0
    9.4590   -1.4590   21.6710 C   0  0  0  0  0  0  0  0  0  0  0  0
   10.7390   -1.4710   22.2060 C   0  0  0  0  0  0  0  0  0  0  0  0
   10.9460   -1.8130   23.5270 C   0  0  0  0  0  0  0  0  0  0  0  0
    9.8220   -2.1500   24.3080 C   0  0  0  0  0  0  0  0  0  0  0  0
    8.5260   -2.1390   23.7460 C   0  0  0  0  0  0  0  0  0  0  0  0
    8.3340   -1.7950   22.4180 C   0  0  0  0  0  0  0  0  0  0  0  0
   12.3150    1.3650   23.0200 C   0  0  0  0  0  0  0  0  0  0  0  0
   12.7350    2.6690   22.7920 C   0  0  0  0  0  0  0  0  0  0  0  0
   11.9360    3.7170   22.9920 C   0  0  0  0  0  0  0  0  0  0  0  0
   10.6200    3.4850   23.4630 C   0  0  0  0  0  0  0  0  0  0  0  0
   10.1460    2.1630   23.6890 C   0  0  0  0  0  0  0  0  0  0  0  0
   11.0110    1.0860   23.4690 C   0  0  0  0  0  0  0  0  0  0  0  0
    8.7730   -5.1810   23.1110 C   0  0  0  0  0  0  0  0  0  0  0  0
    9.4390   -5.5750   24.2500 C   0  0  0  0  0  0  0  0  0  0  0  0
    8.8600   -5.4490   25.6190 C   0  0  0  0  0  0  0  0  0  0  0  0
    7.4540   -4.8590   25.7110 C   0  0  0  0  0  0  0  0  0  0  0  0
    6.7090   -4.4240   24.4410 C   0  0  0  0  0  0  0  0  0  0  0  0
    7.3910   -4.5800   23.0760 C   0  0  0  0  0  0  0  0  0  0  0  0
    4.3900   -6.4670   25.6100 O   0  0  0  0  0  0  0  0  0  0  0  0
    2.1630   -5.7260   24.7120 O   0  0  0  0  0  0  0  0  0  0  0  0
    4.5590   -6.4640   22.3680 C   0  0  0  0  0  0  0  0  0  0  0  0
    4.9990   -5.0800   22.7680 C   0  0  0  0  0  0  0  0  0  0  0  0
    4.3050   -4.5290   23.8340 C   0  0  1  0  0  0  0  0  0  0  0  0
    3.5670   -6.0050   24.5090 S   0  0  0  0  0  0  0  0  0  0  0  0
    3.7420   -7.0490   23.2510 C   0  0  0  0  0  0  0  0  0  0  0  0
    5.3360   -3.8820   24.7320 C   0  0  0  0  0  0  0  0  0  0  0  0
  2  3  1  0
  1  8  1  0
  1  9  1  0
  6  9  2  0
  4 10  1  0
 10  9  1  6
  4 11  1  0
  7 11  2  0
 11 12  1  0
 12 13  1  6
 14 15  1  0
 14 16  1  0
 14 17  1  0
  5 18  1  0
  5 19  1  0
  5 20  1  0
 21 22  2  0
 22 23  1  0
 23 24  2  0
 10 25  1  0
 24 25  1  0
 21 26  1  0
 25 26  2  0
 27 28  2  0
 14 29  1  0
 28 29  1  0
 29 30  2  0
 30 31  1  0
  4 32  1  0
 27 32  1  0
 31 32  2  0
 33 34  2  0
  3 35  1  0
 34 35  1  0
  5 36  1  0
 35 36  2  0
  8 37  1  0
 36 37  1  0
 33 38  1  0
 37 38  2  0
 39 40  2  0
 40 41  1  0
 41 42  2  0
 42 43  1  0
 12 44  1  0
 39 44  1  0
 43 44  2  0
 47 48  1  0
 48 49  1  0
 50 45  1  0
 46 50  1  0
 49 50  1  0
 47 51  2  0
 50 51  1  0
 43 52  1  0
 49 52  1  1
M  END
