x3110-x1380-x3115
     RDKit          3D

 48 52  0  0  0  0  0  0  0  0999 V2000
    7.8110    1.5320   23.1940 N   0  0  0  0  0  0  0  0  0  0  0  0
   13.4980    5.0410   22.5070 C   0  0  0  0  0  0  0  0  0  0  0  0
   11.8940    3.2800   22.5060 O   0  0  0  0  0  0  0  0  0  0  0  0
   12.2560    4.3520   22.0170 C   0  0  0  0  0  0  0  0  0  0  0  0
    6.9110   -1.6950   21.9960 C   0  0  1  0  0  0  0  0  0  0  0  0
   10.9350    4.3720   24.2410 O   0  0  0  0  0  0  0  0  0  0  0  0
   10.9530    3.4070   23.4940 C   0  0  0  0  0  0  0  0  0  0  0  0
    8.5520    0.6310   21.0440 O   0  0  0  0  0  0  0  0  0  0  0  0
    9.9880    2.3840   23.6290 C   0  0  0  0  0  0  0  0  0  0  0  0
    5.0180   -3.1760   20.5930 O   0  0  0  0  0  0  0  0  0  0  0  0
    8.7890    2.5860   22.8950 C   0  0  2  0  0  0  0  0  0  0  0  0
    7.5950    0.6040   22.0800 C   0  0  0  0  0  0  0  0  0  0  0  0
    6.4990   -0.3090   21.9030 C   0  0  1  0  0  0  0  0  0  0  0  0
    6.1070   -2.9420   21.2630 C   0  0  0  0  0  0  0  0  0  0  0  0
    8.2850   -4.6160   21.0560 C   0  0  0  0  0  0  0  0  0  0  0  0
   12.4460   -1.8350   24.2340 C   0  0  0  0  0  0  0  0  0  0  0  0
   12.6330   -0.5650   25.0300 C   0  0  0  0  0  0  0  0  0  0  0  0
   13.4200   -1.8220   23.0680 C   0  0  0  0  0  0  0  0  0  0  0  0
   12.7950   -3.0070   25.1640 C   0  0  0  0  0  0  0  0  0  0  0  0
    8.6860    4.7870   23.0200 O   0  0  0  0  0  0  0  0  0  0  0  0
    8.0060    3.7780   22.8260 C   0  0  0  0  0  0  0  0  0  0  0  0
    8.2510    5.7900   22.4190 C   0  0  0  0  0  0  0  0  0  0  0  0
    5.1860   -1.6570   25.9090 O   0  0  0  0  0  0  0  0  0  0  0  0
    5.6740   -2.9280   25.5080 C   0  0  0  0  0  0  0  0  0  0  0  0
    6.4400    0.2490   17.9910 N   0  0  0  0  0  0  0  0  0  0  0  0
    5.3580    1.0360   17.9260 C   0  0  0  0  0  0  0  0  0  0  0  0
    4.6110    1.4170   19.0160 C   0  0  0  0  0  0  0  0  0  0  0  0
    4.9660    0.9830   20.3000 C   0  0  0  0  0  0  0  0  0  0  0  0
    6.1050    0.1450   20.4720 C   0  0  0  0  0  0  0  0  0  0  0  0
    6.8030   -0.1940   19.2940 C   0  0  0  0  0  0  0  0  0  0  0  0
    9.5180   -1.5360   21.7780 C   0  0  0  0  0  0  0  0  0  0  0  0
   10.8150   -1.5790   22.3100 C   0  0  0  0  0  0  0  0  0  0  0  0
   11.0400   -1.8260   23.6690 C   0  0  0  0  0  0  0  0  0  0  0  0
    9.9690   -2.0410   24.5150 C   0  0  0  0  0  0  0  0  0  0  0  0
    8.5970   -1.9860   23.8900 C   0  0  0  0  0  0  0  0  0  0  0  0
    8.3750   -1.7360   22.5330 C   0  0  0  0  0  0  0  0  0  0  0  0
    6.9950   -4.1470   21.7230 C   0  0  2  0  0  0  0  0  0  0  0  0
    6.0460   -5.2230   22.3160 C   0  0  0  0  0  0  0  0  0  0  0  0
    5.4120   -4.7900   23.7040 C   0  0  0  0  0  0  0  0  0  0  0  0
    5.5450   -3.2770   24.0600 C   0  0  2  0  0  0  0  0  0  0  0  0
    6.4570   -2.8510   22.9660 C   0  0  2  0  0  0  0  0  0  0  0  0
    7.5900   -3.5490   22.9490 C   0  0  0  0  0  0  0  0  0  0  0  0
    7.6000   -4.0950   26.4300 C   0  0  0  0  0  0  0  0  0  0  0  0
    7.8040   -5.2360   27.2020 C   0  0  0  0  0  0  0  0  0  0  0  0
    7.6050   -4.9170   28.5400 C   0  0  0  0  0  0  0  0  0  0  0  0
    6.3810   -4.2940   28.8460 C   0  0  0  0  0  0  0  0  0  0  0  0
    5.4610   -4.0270   27.6730 C   0  0  0  0  0  0  0  0  0  0  0  0
    6.1690   -3.7710   26.4260 N   0  0  0  0  0  0  0  0  0  0  0  0
  2  4  1  0
  3  4  1  0
  3  7  1  0
  6  7  2  0
  7  9  1  0
  1 11  1  0
 11  9  1  1
  1 12  1  0
  8 12  2  0
  5 13  1  0
 13 12  1  6
  5 14  1  0
 10 14  2  0
 16 17  1  0
 16 18  1  0
 16 19  1  0
 11 21  1  0
 20 21  1  0
 20 22  1  0
 23 24  2  0
 25 26  2  0
 26 27  1  0
 27 28  2  0
 13 29  1  0
 28 29  1  0
 25 30  1  0
 29 30  2  0
 31 32  2  0
 16 33  1  0
 32 33  1  0
 33 34  2  0
 34 35  1  0
  5 36  1  6
 31 36  1  0
 35 36  2  0
 14 37  1  0
 37 15  1  6
 37 38  1  0
 38 39  1  0
 40 24  1  1
 39 40  1  0
  5 41  1  0
 40 41  1  0
 37 42  1  0
 41 42  1  1
 43 44  1  0
 44 45  1  0
 45 46  1  0
 46 47  1  0
 24 48  1  0
 43 48  1  0
 47 48  1  0
M  END
