x3117-x1249
     RDKit          3D

 43 46  0  0  0  0  0  0  0  0999 V2000
    6.9730   -1.6410   21.6850 N   0  0  0  0  0  0  0  0  0  0  0  0
    6.7460   -4.9270   20.4350 C   0  0  0  0  0  0  0  0  0  0  0  0
    4.8530   -3.0020   21.1260 O   0  0  0  0  0  0  0  0  0  0  0  0
    6.8220   -4.1370   21.7470 C   0  0  0  0  0  0  0  0  0  0  0  0
    7.9690    1.6510   22.8260 C   0  0  0  0  0  0  0  0  0  0  0  0
    8.1290    1.2260   20.5680 O   0  0  0  0  0  0  0  0  0  0  0  0
    6.1120   -2.8410   21.4950 C   0  0  0  0  0  0  0  0  0  0  0  0
    6.5260   -0.1740   21.5750 C   0  0  1  0  0  0  0  0  0  0  0  0
    7.5280    0.8710   21.5840 C   0  0  0  0  0  0  0  0  0  0  0  0
   12.0850   -1.9670   24.5190 C   0  0  0  0  0  0  0  0  0  0  0  0
   12.9950   -1.7000   23.5410 C   0  0  0  0  0  0  0  0  0  0  0  0
   13.0440   -0.8580   24.2810 C   0  0  0  0  0  0  0  0  0  0  0  0
   12.6350   -3.1630   25.2270 C   0  0  0  0  0  0  0  0  0  0  0  0
    7.6630    1.7920   25.3270 N   0  0  0  0  0  0  0  0  0  0  0  0
    7.2570    1.3130   24.0480 C   0  0  0  0  0  0  0  0  0  0  0  0
    8.5370    0.8230   25.9980 C   0  0  0  0  0  0  0  0  0  0  0  0
    6.2550    0.6090   17.6700 N   0  0  0  0  0  0  0  0  0  0  0  0
    5.1660    1.3570   17.6100 C   0  0  0  0  0  0  0  0  0  0  0  0
    4.3190    1.6880   18.8430 C   0  0  0  0  0  0  0  0  0  0  0  0
    4.7510    1.1610   20.1700 C   0  0  0  0  0  0  0  0  0  0  0  0
    5.9890    0.3280   20.2960 C   0  0  0  0  0  0  0  0  0  0  0  0
    6.6690    0.0980   18.9570 C   0  0  0  0  0  0  0  0  0  0  0  0
    9.9640    5.0070   24.1720 O   0  0  0  0  0  0  0  0  0  0  0  0
   10.7990    3.9640   23.7170 C   0  0  0  0  0  0  0  0  0  0  0  0
   10.0840    2.7750   23.7950 C   0  0  0  0  0  0  0  0  0  0  0  0
    9.0670    2.6930   22.6710 C   0  0  0  0  0  0  0  0  0  0  0  0
    8.3320    4.0580   22.5340 C   0  0  0  0  0  0  0  0  0  0  0  0
    9.0230    5.2990   23.1490 C   0  0  0  0  0  0  0  0  0  0  0  0
    9.4200   -2.2290   21.7850 C   0  0  0  0  0  0  0  0  0  0  0  0
   10.6400   -2.2990   22.4780 C   0  0  0  0  0  0  0  0  0  0  0  0
   10.7420   -1.8960   23.8060 C   0  0  0  0  0  0  0  0  0  0  0  0
    9.5840   -1.4320   24.3960 C   0  0  0  0  0  0  0  0  0  0  0  0
    8.3810   -1.3640   23.7080 C   0  0  0  0  0  0  0  0  0  0  0  0
    8.2370   -1.7500   22.3700 C   0  0  0  0  0  0  0  0  0  0  0  0
    3.3650    0.4830   24.1560 O   0  0  0  0  0  0  0  0  0  0  0  0
    3.9460    0.5840   22.8750 C   0  0  0  0  0  0  0  0  0  0  0  0
    5.2150    1.2760   23.0410 C   0  0  0  0  0  0  0  0  0  0  0  0
    6.1440    0.5370   23.9570 N   0  0  0  0  0  0  0  0  0  0  0  0
    5.4740    0.1450   25.2140 C   0  0  0  0  0  0  0  0  0  0  0  0
    4.1760   -0.3630   24.9800 C   0  0  0  0  0  0  0  0  0  0  0  0
   13.3880   -2.0570   20.8480 N   0  0  0  0  0  0  0  0  0  0  0  0
   13.1680   -1.1000   21.8990 C   0  0  0  0  0  0  0  0  0  0  0  0
   12.9480   -0.1730   22.9050 C   0  0  0  0  0  0  0  0  0  0  0  0
  2  4  1  0
  1  7  1  0
  3  7  2  0
  4  7  1  0
  1  8  1  0
  5  9  1  0
  6  9  2  0
  8  9  1  6
 10 11  1  0
 10 12  1  0
 10 13  1  0
  5 15  2  3
 14 15  1  0
 14 16  1  0
 17 18  2  0
 18 19  1  0
 19 20  2  0
  8 21  1  0
 20 21  1  0
 17 22  1  0
 21 22  2  0
 23 24  1  0
 24 25  1  0
  5 26  1  0
 25 26  1  0
 26 27  1  0
 23 28  1  0
 27 28  1  0
 29 30  2  0
 10 31  1  0
 30 31  1  0
 31 32  2  0
 32 33  1  0
  1 34  1  0
 29 34  1  0
 33 34  2  0
 35 36  1  0
 36 37  1  0
 15 38  1  0
 37 38  1  0
 38 39  1  0
 35 40  1  0
 39 40  1  0
 41 42  3  0
 12 43  1  0
 42 43  1  0
M  END
