x3115-x0771
     RDKit          3D

 47 51  0  0  0  0  0  0  0  0999 V2000
    6.6990   -1.5380   21.9900 C   0  0  1  0  0  0  0  0  0  0  0  0
    6.6890   -4.0100   20.0350 C   0  0  0  0  0  0  0  0  0  0  0  0
    4.6940   -3.0270   21.4990 O   0  0  0  0  0  0  0  0  0  0  0  0
    6.1620   -2.6650   19.8300 C   0  0  0  0  0  0  0  0  0  0  0  0
    7.6220    1.6660   23.2360 N   0  0  0  0  0  0  0  0  0  0  0  0
    8.4380    0.8600   21.2900 O   0  0  0  0  0  0  0  0  0  0  0  0
    5.7540   -2.4370   21.1450 C   0  0  0  0  0  0  0  0  0  0  0  0
    8.5730    5.0800   22.9990 O   0  0  0  0  0  0  0  0  0  0  0  0
    6.4290   -0.0460   21.9140 C   0  0  1  0  0  0  0  0  0  0  0  0
    7.5320    0.8250   22.1340 C   0  0  0  0  0  0  0  0  0  0  0  0
    8.4040    2.8610   23.2230 C   0  0  0  0  0  0  0  0  0  0  0  0
    7.9540    3.9710   22.4920 C   0  0  0  0  0  0  0  0  0  0  0  0
    8.3080    6.0930   22.3400 C   0  0  0  0  0  0  0  0  0  0  0  0
   12.3950   -1.9590   23.6630 C   0  0  0  0  0  0  0  0  0  0  0  0
   13.2950   -2.3760   22.7040 C   0  0  0  0  0  0  0  0  0  0  0  0
   12.6280   -2.8620   24.8820 C   0  0  0  0  0  0  0  0  0  0  0  0
   12.8990   -0.6340   24.0840 C   0  0  0  0  0  0  0  0  0  0  0  0
    0.7210   -1.4420   26.2260 C   0  0  0  0  0  0  0  0  0  0  0  0
    4.3970   -7.1160   25.5430 O   0  0  0  0  0  0  0  0  0  0  0  0
    5.9640   -5.3240   26.6140 O   0  0  0  0  0  0  0  0  0  0  0  0
    1.9210   -6.0760   24.9160 C   0  0  0  0  0  0  0  0  0  0  0  0
    4.9840   -5.6370   25.6010 S   0  0  0  0  0  0  0  0  0  0  0  0
    6.3690   -2.4790   23.1440 C   0  0  0  0  0  0  0  0  0  0  0  0
    6.4530    0.4040   18.0150 N   0  0  0  0  0  0  0  0  0  0  0  0
    5.2320    1.1970   17.9210 C   0  0  0  0  0  0  0  0  0  0  0  0
    4.4900    1.5250   19.0370 C   0  0  0  0  0  0  0  0  0  0  0  0
    4.8300    1.1430   20.3470 C   0  0  0  0  0  0  0  0  0  0  0  0
    5.9970    0.3840   20.5140 C   0  0  0  0  0  0  0  0  0  0  0  0
    6.8070    0.0050   19.4100 C   0  0  0  0  0  0  0  0  0  0  0  0
    9.2490   -1.9350   21.5330 C   0  0  0  0  0  0  0  0  0  0  0  0
   10.6030   -2.0350   21.9270 C   0  0  0  0  0  0  0  0  0  0  0  0
   10.9480   -1.8680   23.2730 C   0  0  0  0  0  0  0  0  0  0  0  0
    9.9400   -1.6130   24.1830 C   0  0  0  0  0  0  0  0  0  0  0  0
    8.6120   -1.5210   23.7600 C   0  0  0  0  0  0  0  0  0  0  0  0
    8.2350   -1.6780   22.4030 C   0  0  0  0  0  0  0  0  0  0  0  0
    1.7730   -2.4930   26.0530 C   0  0  0  0  0  0  0  0  0  0  0  0
    1.4590   -3.7580   25.5870 C   0  0  0  0  0  0  0  0  0  0  0  0
    2.4140   -4.7510   25.4280 C   0  0  0  0  0  0  0  0  0  0  0  0
    3.7640   -4.5020   25.7400 C   0  0  0  0  0  0  0  0  0  0  0  0
    4.1140   -3.2010   26.2160 C   0  0  0  0  0  0  0  0  0  0  0  0
    3.1040   -2.2290   26.3590 C   0  0  0  0  0  0  0  0  0  0  0  0
    6.6200   -4.5120   21.5040 N   0  0  0  0  0  0  0  0  0  0  0  0
    6.0000   -5.8350   21.7510 C   0  0  0  0  0  0  0  0  0  0  0  0
    5.0430   -5.7400   22.7780 C   0  0  0  0  0  0  0  0  0  0  0  0
    5.7030   -5.3510   24.0420 N   0  0  0  0  0  0  0  0  0  0  0  0
    6.9800   -4.6440   23.9360 C   0  0  0  0  0  0  0  0  0  0  0  0
    7.0990   -3.8420   22.8080 C   0  0  2  0  0  0  0  0  0  0  0  0
  2  4  1  0
  1  7  1  0
  3  7  2  0
  4  7  1  0
  1  9  1  0
  5 10  1  0
  6 10  2  0
  9 10  1  6
  5 11  1  0
  8 12  1  0
 11 12  1  0
  8 13  1  0
 14 15  1  0
 14 16  1  0
 14 17  1  0
 19 22  2  0
 20 22  2  0
  1 23  1  0
 24 25  2  0
 25 26  1  0
 26 27  2  0
  9 28  1  0
 27 28  1  0
 24 29  1  0
 28 29  2  0
 30 31  2  0
 14 32  1  0
 31 32  1  0
 32 33  2  0
 33 34  1  0
  1 35  1  6
 30 35  1  0
 34 35  2  0
 18 36  1  0
 36 37  2  0
 21 38  1  0
 37 38  1  0
 22 39  1  0
 38 39  2  0
 39 40  1  0
 36 41  1  0
 40 41  2  0
  2 42  1  0
 42 43  1  0
 43 44  1  0
 22 45  1  0
 44 45  1  0
 45 46  1  0
 47 23  1  1
 42 47  1  0
 46 47  1  0
M  END
