x3113-x0967
     RDKit          3D

 33 34  0  0  0  0  0  0  0  0999 V2000
    7.5490   -1.9070   21.3550 N   0  0  0  0  0  0  0  0  0  0  0  0
    8.3210   -4.5890   20.9260 C   0  0  0  0  0  0  0  0  0  0  0  0
    5.0410   -3.1890   21.0070 O   0  0  0  0  0  0  0  0  0  0  0  0
    6.9910   -4.3810   21.6610 C   0  0  0  0  0  0  0  0  0  0  0  0
    8.0040    1.3020   22.8740 N   0  0  0  0  0  0  0  0  0  0  0  0
    9.2630    0.3510   21.3070 O   0  0  0  0  0  0  0  0  0  0  0  0
    6.4220   -3.0460   21.3020 C   0  0  0  0  0  0  0  0  0  0  0  0
   11.4670    4.1120   23.3160 O   0  0  0  0  0  0  0  0  0  0  0  0
    7.1000   -0.4450   21.4250 C   0  0  1  0  0  0  0  0  0  0  0  0
    8.1820    0.3970   21.8430 C   0  0  0  0  0  0  0  0  0  0  0  0
    8.7970    2.5550   22.8840 C   0  0  2  0  0  0  0  0  0  0  0  0
    9.8680    2.4850   23.8110 C   0  0  0  0  0  0  0  0  0  0  0  0
   11.1490    2.7220   23.2580 C   0  0  0  0  0  0  0  0  0  0  0  0
   12.7810    4.3840   22.8150 C   0  0  0  0  0  0  0  0  0  0  0  0
   11.8510   -1.7120   22.6920 C   0  0  0  0  0  0  0  0  0  0  0  0
   12.5820   -1.8820   21.5370 C   0  0  0  0  0  0  0  0  0  0  0  0
   12.5440   -2.6570   23.7330 C   0  0  0  0  0  0  0  0  0  0  0  0
   12.2550   -0.3270   23.2780 C   0  0  0  0  0  0  0  0  0  0  0  0
    7.9660    4.8080   22.4990 C   0  0  0  0  0  0  0  0  0  0  0  0
    6.7630    3.2920   23.7180 O   0  0  0  0  0  0  0  0  0  0  0  0
    7.7890    3.5450   23.0670 C   0  0  0  0  0  0  0  0  0  0  0  0
    6.4660    0.4390   17.8060 N   0  0  0  0  0  0  0  0  0  0  0  0
    5.2590    1.2980   17.8300 C   0  0  0  0  0  0  0  0  0  0  0  0
    4.5740    1.6050   19.1620 C   0  0  0  0  0  0  0  0  0  0  0  0
    5.1290    1.0640   20.3120 C   0  0  0  0  0  0  0  0  0  0  0  0
    6.3700    0.1960   20.2710 C   0  0  0  0  0  0  0  0  0  0  0  0
    6.8860   -0.0150   19.0180 C   0  0  0  0  0  0  0  0  0  0  0  0
    8.6220   -1.9270   22.4080 C   0  0  0  0  0  0  0  0  0  0  0  0
   10.2720   -1.8460   22.8950 C   0  0  0  0  0  0  0  0  0  0  0  0
   10.4260   -1.9160   24.2000 C   0  0  0  0  0  0  0  0  0  0  0  0
    9.5250   -2.0310   25.1110 C   0  0  0  0  0  0  0  0  0  0  0  0
    8.2320   -2.1020   24.8120 C   0  0  0  0  0  0  0  0  0  0  0  0
    7.7140   -2.0550   23.4340 C   0  0  0  0  0  0  0  0  0  0  0  0
  2  4  1  0
  1  7  1  0
  3  7  2  0
  4  7  1  0
  1  9  1  0
  5 10  1  0
  6 10  2  0
  9 10  1  6
  5 11  1  0
 11 12  1  1
  8 13  1  0
 12 13  1  0
  8 14  1  0
 15 16  1  0
 15 17  1  0
 15 18  1  0
 11 21  1  0
 19 21  1  0
 20 21  2  0
 22 23  2  0
 23 24  1  0
 24 25  2  0
  9 26  1  0
 25 26  1  0
 22 27  1  0
 26 27  2  0
  1 28  1  0
 15 29  1  0
 28 29  2  0
 29 30  1  0
 30 31  2  0
 31 32  1  0
 28 33  1  0
 32 33  2  0
M  END
