x3115-x0540-x0786-x3113
     RDKit          3D

 59 63  0  0  0  0  0  0  0  0999 V2000
    7.1090   -1.8160   21.6050 N   0  0  0  0  0  0  0  0  0  0  0  0
    7.8670   -4.5570   21.0670 C   0  0  0  0  0  0  0  0  0  0  0  0
    4.8410   -2.9630   21.0290 O   0  0  0  0  0  0  0  0  0  0  0  0
    6.5740   -4.3540   21.4110 C   0  0  2  0  0  0  0  0  0  0  0  0
    8.0140    1.2730   23.0460 N   0  0  0  0  0  0  0  0  0  0  0  0
    8.5570    1.1540   20.8910 O   0  0  0  0  0  0  0  0  0  0  0  0
    6.1250   -2.9460   21.3230 C   0  0  0  0  0  0  0  0  0  0  0  0
   11.6790    4.2330   22.9670 O   0  0  0  0  0  0  0  0  0  0  0  0
    6.7210   -0.3710   21.5470 C   0  0  1  0  0  0  0  0  0  0  0  0
    7.8460    0.7300   21.8010 C   0  0  0  0  0  0  0  0  0  0  0  0
    8.8760    2.5130   23.2270 C   0  0  1  0  0  0  0  0  0  0  0  0
   10.1720    2.3660   22.6090 C   0  0  0  0  0  0  0  0  0  0  0  0
   11.3920    2.8850   23.3890 C   0  0  0  0  0  0  0  0  0  0  0  0
   13.0780    4.4550   22.7910 C   0  0  0  0  0  0  0  0  0  0  0  0
   12.4170   -2.0210   24.2630 C   0  0  0  0  0  0  0  0  0  0  0  0
   13.4440   -2.1270   23.1490 C   0  0  0  0  0  0  0  0  0  0  0  0
   12.7740   -3.1080   25.2900 C   0  0  0  0  0  0  0  0  0  0  0  0
   12.6010   -0.6760   24.9640 C   0  0  0  0  0  0  0  0  0  0  0  0
    8.6900    5.0200   23.1090 O   0  0  0  0  0  0  0  0  0  0  0  0
    8.1230    3.7650   22.6790 C   0  0  0  0  0  0  0  0  0  0  0  0
    8.2950    5.9600   22.4000 C   0  0  0  0  0  0  0  0  0  0  0  0
    2.5920    1.5620   24.6080 O   0  0  0  0  0  0  0  0  0  0  0  0
    2.8900    2.5430   23.5990 C   0  0  0  0  0  0  0  0  0  0  0  0
    4.1250    2.7540   23.1140 N   0  0  0  0  0  0  0  0  0  0  0  0
    4.8920    1.6900   22.5300 C   0  0  0  0  0  0  0  0  0  0  0  0
    4.2030    0.9190   21.4490 C   0  0  0  0  0  0  0  0  0  0  0  0
    1.8960    3.3000   23.0920 N   0  0  0  0  0  0  0  0  0  0  0  0
    3.8330   -8.0570   24.8840 O   0  0  0  0  0  0  0  0  0  0  0  0
    3.4340   -7.0430   24.3290 C   0  0  0  0  0  0  0  0  0  0  0  0
    6.4750    0.4190   17.8340 N   0  0  0  0  0  0  0  0  0  0  0  0
    5.2900    1.0520   17.8460 C   0  0  0  0  0  0  0  0  0  0  0  0
    4.5130    1.2440   18.9530 C   0  0  0  0  0  0  0  0  0  0  0  0
    4.9700    0.7670   20.1650 C   0  0  0  0  0  0  0  0  0  0  0  0
    6.1870    0.1230   20.2230 C   0  0  0  0  0  0  0  0  0  0  0  0
    6.8760   -0.0240   19.0370 C   0  0  0  0  0  0  0  0  0  0  0  0
    9.5790   -1.4940   21.7660 C   0  0  0  0  0  0  0  0  0  0  0  0
   10.8100   -1.5550   22.4120 C   0  0  0  0  0  0  0  0  0  0  0  0
   10.9960   -2.0610   23.6930 C   0  0  0  0  0  0  0  0  0  0  0  0
    9.8350   -2.5370   24.3130 C   0  0  0  0  0  0  0  0  0  0  0  0
    8.5700   -2.4820   23.6600 C   0  0  0  0  0  0  0  0  0  0  0  0
    8.4090   -1.9490   22.3560 C   0  0  0  0  0  0  0  0  0  0  0  0
    0.5860    4.4890   24.7170 C   0  0  0  0  0  0  0  0  0  0  0  0
   -0.7640    4.9480   25.2550 C   0  0  0  0  0  0  0  0  0  0  0  0
   -1.8690    4.6440   24.2480 C   0  0  0  0  0  0  0  0  0  0  0  0
   -1.8340    3.1640   23.8020 C   0  0  0  0  0  0  0  0  0  0  0  0
   -0.3980    2.7380   23.4490 C   0  0  0  0  0  0  0  0  0  0  0  0
    0.5800    3.7350   23.5390 C   0  0  0  0  0  0  0  0  0  0  0  0
    5.9280   -4.6520   22.7670 C   0  0  0  0  0  0  0  0  0  0  0  0
    5.0190   -5.7000   22.9690 C   0  0  0  0  0  0  0  0  0  0  0  0
    4.3980   -5.9230   24.2070 C   0  0  0  0  0  0  0  0  0  0  0  0
    4.6330   -5.1340   25.3460 C   0  0  0  0  0  0  0  0  0  0  0  0
    5.5150   -4.0540   25.3200 C   0  0  0  0  0  0  0  0  0  0  0  0
    6.2160   -3.7700   23.9700 C   0  0  0  0  0  0  0  0  0  0  0  0
    1.6670   -5.5620   23.4590 C   0  0  0  0  0  0  0  0  0  0  0  0
    0.5630   -5.0280   24.4350 C   0  0  0  0  0  0  0  0  0  0  0  0
   -0.9150   -6.0840   24.3890 S   0  0  0  0  0  0  0  0  0  0  0  0
   -0.0780   -7.6500   24.8100 C   0  0  0  0  0  0  0  0  0  0  0  0
    1.1250   -7.9660   23.9280 C   0  0  0  0  0  0  0  0  0  0  0  0
    2.1390   -6.8970   23.8270 N   0  0  0  0  0  0  0  0  0  0  0  0
  4  2  1  1
  1  7  1  0
  3  7  2  0
  4  7  1  0
  1  9  1  0
  5 10  1  0
  6 10  2  0
  9 10  1  6
  5 11  1  0
 11 12  1  6
  8 13  1  0
 12 13  1  0
  8 14  1  0
 15 16  1  0
 15 17  1  0
 15 18  1  0
 11 20  1  0
 19 20  1  0
 19 21  1  0
 22 23  2  0
 23 24  1  0
 24 25  1  0
 25 26  1  0
 23 27  1  0
 28 29  2  0
 30 31  2  0
 31 32  1  0
 26 33  1  0
 32 33  2  0
  9 34  1  0
 33 34  1  0
 30 35  1  0
 34 35  2  0
 36 37  2  0
 15 38  1  0
 37 38  1  0
 38 39  2  0
 39 40  1  0
  1 41  1  0
 36 41  1  0
 40 41  2  0
 42 43  1  0
 43 44  1  0
 44 45  1  0
 45 46  1  0
 27 47  1  0
 42 47  1  0
 46 47  1  0
  4 48  1  0
 48 49  2  0
 29 50  1  0
 49 50  1  0
 50 51  2  0
 51 52  1  0
 48 53  1  0
 52 53  2  0
 54 55  1  0
 55 56  1  0
 56 57  1  0
 57 58  1  0
 29 59  1  0
 54 59  1  0
 58 59  1  0
M  END
