x3115-x2540-x3110-x0734
     RDKit          3D

 51 56  0  0  0  0  0  0  0  0999 V2000
    7.7900    1.4400   23.0520 N   0  0  0  0  0  0  0  0  0  0  0  0
   13.3790    5.1760   22.9140 C   0  0  0  0  0  0  0  0  0  0  0  0
   11.9670    3.2900   22.4390 O   0  0  0  0  0  0  0  0  0  0  0  0
   12.4060    4.5540   21.9310 C   0  0  0  0  0  0  0  0  0  0  0  0
    7.1630   -1.5910   21.3960 N   0  0  0  0  0  0  0  0  0  0  0  0
   10.9920    4.3430   24.2150 O   0  0  0  0  0  0  0  0  0  0  0  0
   11.0830    3.3870   23.4630 C   0  0  0  0  0  0  0  0  0  0  0  0
    8.5240    1.3610   20.8590 O   0  0  0  0  0  0  0  0  0  0  0  0
   10.2370    2.1380   23.5380 C   0  0  0  0  0  0  0  0  0  0  0  0
    4.9650   -3.0760   20.7950 O   0  0  0  0  0  0  0  0  0  0  0  0
    8.7910    2.3160   23.4710 C   0  0  1  0  0  0  0  0  0  0  0  0
    7.7360    0.9160   21.6940 C   0  0  0  0  0  0  0  0  0  0  0  0
    6.6370   -0.1600   21.3680 C   0  0  1  0  0  0  0  0  0  0  0  0
    6.2790   -2.7970   21.1710 C   0  0  0  0  0  0  0  0  0  0  0  0
    8.3590   -4.4630   20.9800 C   0  0  0  0  0  0  0  0  0  0  0  0
   12.6180   -2.0230   24.6850 C   0  0  1  0  0  0  0  0  0  0  0  0
   12.1230   -0.6460   24.8840 C   0  0  0  0  0  0  0  0  0  0  0  0
   13.2540   -2.1200   23.3580 C   0  0  0  0  0  0  0  0  0  0  0  0
   11.6960   -3.1530   25.0960 C   0  0  0  0  0  0  0  0  0  0  0  0
    8.5150    4.6550   23.2200 O   0  0  0  0  0  0  0  0  0  0  0  0
    8.5590    3.5860   22.5920 C   0  0  0  0  0  0  0  0  0  0  0  0
    8.3070    5.6640   22.4960 C   0  0  0  0  0  0  0  0  0  0  0  0
    8.4020    2.7060   24.9030 C   0  0  0  0  0  0  0  0  0  0  0  0
   12.1340   -1.1540   23.4690 C   0  0  1  0  0  0  0  0  0  0  0  0
    5.1190   -5.0910   26.7370 N   0  0  0  0  0  0  0  0  0  0  0  0
    4.4030   -5.7990   26.0090 O   0  0  0  0  0  0  0  0  0  0  0  0
    4.7780   -3.9560   27.1070 O   0  0  0  0  0  0  0  0  0  0  0  0
    6.3220    0.6310   17.6710 N   0  0  0  0  0  0  0  0  0  0  0  0
    5.1970    1.4120   17.7210 C   0  0  0  0  0  0  0  0  0  0  0  0
    4.5370    1.6720   18.8690 C   0  0  0  0  0  0  0  0  0  0  0  0
    5.0060    1.1430   20.0780 C   0  0  0  0  0  0  0  0  0  0  0  0
    6.1010    0.3860   20.0840 C   0  0  0  0  0  0  0  0  0  0  0  0
    6.7310    0.1470   18.8480 C   0  0  0  0  0  0  0  0  0  0  0  0
    9.6260   -1.3440   21.9130 C   0  0  0  0  0  0  0  0  0  0  0  0
   10.9400   -1.2310   22.5610 C   0  0  0  0  0  0  0  0  0  0  0  0
   10.4810   -1.4090   23.8560 C   0  0  0  0  0  0  0  0  0  0  0  0
    9.2570   -1.6140   24.4350 C   0  0  0  0  0  0  0  0  0  0  0  0
    8.0220   -1.7000   23.7470 C   0  0  0  0  0  0  0  0  0  0  0  0
    8.2780   -1.5480   22.3350 C   0  0  0  0  0  0  0  0  0  0  0  0
    6.5250   -5.2780   26.5830 C   0  0  0  0  0  0  0  0  0  0  0  0
    7.1680   -5.1630   25.2320 C   0  0  0  0  0  0  0  0  0  0  0  0
    8.5610   -5.3530   25.1630 C   0  0  0  0  0  0  0  0  0  0  0  0
    9.2900   -5.6410   26.3090 C   0  0  0  0  0  0  0  0  0  0  0  0
    8.6710   -5.7490   27.5480 C   0  0  0  0  0  0  0  0  0  0  0  0
    7.3040   -5.5680   27.6810 C   0  0  0  0  0  0  0  0  0  0  0  0
    7.0350   -4.1060   21.5750 C   0  0  0  0  0  0  0  0  0  0  0  0
    6.2510   -5.4270   21.7290 C   0  0  0  0  0  0  0  0  0  0  0  0
    6.0130   -5.9070   23.1470 C   0  0  0  0  0  0  0  0  0  0  0  0
    6.3910   -4.8780   24.1300 N   0  0  0  0  0  0  0  0  0  0  0  0
    6.4000   -3.5450   23.6460 C   0  0  0  0  0  0  0  0  0  0  0  0
    7.4600   -3.6480   22.8990 C   0  0  0  0  0  0  0  0  0  0  0  0
  2  4  1  0
  3  4  1  0
  3  7  1  0
  6  7  2  0
  7  9  1  0
 11  1  1  0
  9 11  1  0
  1 12  1  0
  8 12  2  0
  5 13  1  0
 13 12  1  6
  5 14  1  0
 10 14  2  0
 16 17  1  0
 16 18  1  0
 16 19  1  6
 11 21  1  0
 20 21  1  0
 20 22  1  0
 11 23  1  1
 16 24  1  0
 17 24  1  0
 18 24  1  0
 25 26  2  0
 25 27  1  0
 28 29  2  0
 29 30  1  0
 30 31  2  0
 13 32  1  0
 31 32  1  0
 28 33  1  0
 32 33  2  0
 24 35  1  6
 34 35  2  0
 35 36  1  0
 36 37  2  0
 37 38  1  0
  5 39  1  0
 34 39  1  0
 38 39  2  0
 25 40  1  0
 40 41  2  0
 41 42  1  0
 42 43  2  0
 43 44  1  0
 40 45  1  0
 44 45  2  0
 46 14  1  0
 15 46  1  0
 46 47  1  0
 47 48  1  0
 41 49  1  0
 48 49  1  0
 49 50  1  0
 46 51  1  0
 50 51  1  0
M  CHG  2  25   1  27  -1
M  END
