x3117-x1375
     RDKit          3D

 47 51  0  0  0  0  0  0  0  0999 V2000
    6.8640   -1.2550   21.7900 N   0  0  0  0  0  0  0  0  0  0  0  0
    6.7480   -4.0630   20.1250 C   0  0  0  0  0  0  0  0  0  0  0  0
    5.0210   -3.2940   21.2400 O   0  0  0  0  0  0  0  0  0  0  0  0
    6.9930   -3.0540   21.2500 C   0  0  1  0  0  0  0  0  0  0  0  0
    7.8080    1.7660   23.1210 N   0  0  0  0  0  0  0  0  0  0  0  0
    8.7110    1.4620   21.0680 O   0  0  0  0  0  0  0  0  0  0  0  0
    5.7550   -2.2210   21.5410 C   0  0  0  0  0  0  0  0  0  0  0  0
    6.6670    0.2000   21.5990 C   0  0  1  0  0  0  0  0  0  0  0  0
    7.8220    1.1670   21.8810 C   0  0  0  0  0  0  0  0  0  0  0  0
   12.0700   -1.8170   24.5260 C   0  0  0  0  0  0  0  0  0  0  0  0
   13.1690   -1.3320   23.6160 C   0  0  0  0  0  0  0  0  0  0  0  0
   12.8490   -0.6380   24.8000 C   0  0  0  0  0  0  0  0  0  0  0  0
   12.5460   -3.0450   25.0620 C   0  0  0  0  0  0  0  0  0  0  0  0
    9.7160   -5.2480   26.1340 F   0  0  0  0  0  0  0  0  0  0  0  0
    6.2800    0.3720   17.9260 N   0  0  0  0  0  0  0  0  0  0  0  0
    5.1540    1.1750   17.7680 C   0  0  0  0  0  0  0  0  0  0  0  0
    4.5460    1.6140   18.9260 C   0  0  0  0  0  0  0  0  0  0  0  0
    4.9920    1.3160   20.1650 C   0  0  0  0  0  0  0  0  0  0  0  0
    6.1170    0.5300   20.2990 C   0  0  0  0  0  0  0  0  0  0  0  0
    6.7740    0.0390   19.1790 C   0  0  0  0  0  0  0  0  0  0  0  0
    9.7570    5.0150   24.0610 O   0  0  0  0  0  0  0  0  0  0  0  0
   10.5800    3.9660   23.5620 C   0  0  0  0  0  0  0  0  0  0  0  0
    9.8920    2.7500   23.6410 C   0  0  0  0  0  0  0  0  0  0  0  0
    8.3740    2.9710   23.4290 C   0  0  0  0  0  0  0  0  0  0  0  0
    8.1090    4.0360   22.5580 C   0  0  0  0  0  0  0  0  0  0  0  0
    8.7020    5.3430   23.1490 C   0  0  0  0  0  0  0  0  0  0  0  0
    9.2720   -1.9440   21.7750 C   0  0  0  0  0  0  0  0  0  0  0  0
   10.6030   -2.0860   22.4690 C   0  0  0  0  0  0  0  0  0  0  0  0
   10.7720   -1.7130   23.7980 C   0  0  0  0  0  0  0  0  0  0  0  0
    9.6040   -1.1540   24.5770 C   0  0  0  0  0  0  0  0  0  0  0  0
    8.3090   -1.0550   23.7860 C   0  0  0  0  0  0  0  0  0  0  0  0
    8.1540   -1.4290   22.4540 C   0  0  0  0  0  0  0  0  0  0  0  0
    8.6150   -3.2140   23.3220 C   0  0  0  0  0  0  0  0  0  0  0  0
    9.4200   -3.5420   24.5340 C   0  0  0  0  0  0  0  0  0  0  0  0
    9.1080   -4.7390   25.0560 C   0  0  0  0  0  0  0  0  0  0  0  0
    7.9870   -5.4620   24.2570 C   0  0  0  0  0  0  0  0  0  0  0  0
    7.3110   -4.9380   23.0650 C   0  0  0  0  0  0  0  0  0  0  0  0
    7.6410   -3.6590   22.5130 C   0  0  0  0  0  0  0  0  0  0  0  0
    2.4940   -6.1550   24.0150 O   0  0  0  0  0  0  0  0  0  0  0  0
    3.7730   -8.1790   24.9430 O   0  0  0  0  0  0  0  0  0  0  0  0
    5.6450   -4.9270   24.6520 C   0  0  0  0  0  0  0  0  0  0  0  0
    5.2050   -5.3010   23.3330 C   0  0  0  0  0  0  0  0  0  0  0  0
    4.8730   -6.5800   22.9890 C   0  0  0  0  0  0  0  0  0  0  0  0
    3.7940   -6.7230   24.3050 S   0  0  0  0  0  0  0  0  0  0  0  0
    4.7110   -5.7420   25.2850 C   0  0  0  0  0  0  0  0  0  0  0  0
    7.9660   -4.4810   23.7770 C   0  0  0  0  0  0  0  0  0  0  0  0
    6.5440   -4.1620   23.7290 C   0  0  0  0  0  0  0  0  0  0  0  0
  4  2  1  6
  1  7  1  0
  3  7  2  0
  4  7  1  0
  1  8  1  0
  5  9  1  0
  6  9  2  0
  8  9  1  6
 10 11  1  0
 10 12  1  0
 10 13  1  0
 15 16  2  0
 16 17  1  0
 17 18  2  0
  8 19  1  0
 18 19  1  0
 15 20  1  0
 19 20  2  0
 21 22  1  0
 22 23  1  0
  5 24  1  0
 23 24  1  0
 24 25  1  0
 21 26  1  0
 25 26  1  0
 27 28  2  0
 10 29  1  0
 28 29  1  0
 29 30  2  0
 30 31  1  0
  1 32  1  0
 27 32  1  0
 31 32  2  0
 33 34  2  0
 14 35  1  0
 34 35  1  0
 35 36  2  0
 36 37  1  0
  4 38  1  0
 33 38  1  0
 37 38  2  0
 41 42  1  0
 42 43  1  0
 44 39  1  0
 40 44  1  0
 43 44  1  0
 41 45  2  0
 44 45  1  0
 33 46  1  0
 41 47  1  0
 46 47  1  0
M  END
