x3110-x0072
     RDKit          3D

 38 39  0  0  0  0  0  0  0  0999 V2000
    8.0350    1.0160   23.1950 N   0  0  0  0  0  0  0  0  0  0  0  0
   13.3640    5.1310   22.8950 C   0  0  0  0  0  0  0  0  0  0  0  0
   12.0050    3.2050   22.4770 O   0  0  0  0  0  0  0  0  0  0  0  0
   12.3790    4.4850   21.9470 C   0  0  0  0  0  0  0  0  0  0  0  0
    7.1320   -1.7690   21.5220 N   0  0  0  0  0  0  0  0  0  0  0  0
   10.7910    4.2720   24.0750 O   0  0  0  0  0  0  0  0  0  0  0  0
   11.0380    3.2700   23.4210 C   0  0  0  0  0  0  0  0  0  0  0  0
    8.5750    1.3650   21.0320 O   0  0  0  0  0  0  0  0  0  0  0  0
   10.3100    1.9530   23.5590 C   0  0  0  0  0  0  0  0  0  0  0  0
    4.9240   -3.0710   21.0600 O   0  0  0  0  0  0  0  0  0  0  0  0
    8.8030    2.1620   23.6680 C   0  0  0  0  0  0  0  0  0  0  0  0
    7.8590    0.7500   21.8440 C   0  0  0  0  0  0  0  0  0  0  0  0
    6.7100   -0.2950   21.4500 C   0  0  1  0  0  0  0  0  0  0  0  0
    6.2220   -2.9690   21.3470 C   0  0  0  0  0  0  0  0  0  0  0  0
    6.9330   -4.3030   21.5440 C   0  0  0  0  0  0  0  0  0  0  0  0
    8.3230   -4.4200   20.9300 C   0  0  0  0  0  0  0  0  0  0  0  0
   12.3400   -1.8110   24.0350 C   0  0  0  0  0  0  0  0  0  0  0  0
   12.6000   -0.4720   24.7230 C   0  0  0  0  0  0  0  0  0  0  0  0
   13.3600   -1.9230   22.9090 C   0  0  0  0  0  0  0  0  0  0  0  0
   12.6660   -2.9080   25.0590 C   0  0  0  0  0  0  0  0  0  0  0  0
    6.5310   -5.5440   26.9820 C   0  0  0  0  0  0  0  0  0  0  0  0
    8.1420   -4.8930   26.6270 S   0  0  0  0  0  0  0  0  0  0  0  0
    9.0450   -5.9200   26.1750 O   0  0  0  0  0  0  0  0  0  0  0  0
    8.6350   -4.1470   27.7490 O   0  0  0  0  0  0  0  0  0  0  0  0
    7.8570   -3.8180   25.3520 N   0  0  0  0  0  0  0  0  0  0  0  0
    8.8720   -3.6650   24.5150 C   0  0  0  0  0  0  0  0  0  0  0  0
    6.3460    0.4320   17.7970 N   0  0  0  0  0  0  0  0  0  0  0  0
    5.2290    1.1760   17.8080 C   0  0  0  0  0  0  0  0  0  0  0  0
    4.4960    1.4850   18.9490 C   0  0  0  0  0  0  0  0  0  0  0  0
    4.9540    1.0010   20.1620 C   0  0  0  0  0  0  0  0  0  0  0  0
    6.1160    0.2370   20.1750 C   0  0  0  0  0  0  0  0  0  0  0  0
    6.7710   -0.0250   18.9800 C   0  0  0  0  0  0  0  0  0  0  0  0
    9.4810   -1.1010   21.7680 C   0  0  0  0  0  0  0  0  0  0  0  0
   10.7310   -1.0770   22.3320 C   0  0  0  0  0  0  0  0  0  0  0  0
   10.9430   -1.8620   23.3870 C   0  0  0  0  0  0  0  0  0  0  0  0
    9.8900   -2.6460   23.8120 C   0  0  0  0  0  0  0  0  0  0  0  0
    8.5270   -2.8030   23.3440 C   0  0  0  0  0  0  0  0  0  0  0  0
    8.4330   -1.9040   22.2440 C   0  0  0  0  0  0  0  0  0  0  0  0
  2  4  1  0
  3  4  1  0
  3  7  1  0
  6  7  2  0
  7  9  1  0
  1 11  1  0
  9 11  1  0
  1 12  1  0
  8 12  2  0
  5 13  1  0
 13 12  1  6
  5 14  1  0
 10 14  2  0
 14 15  1  0
 15 16  1  0
 17 18  1  0
 17 19  1  0
 17 20  1  0
 21 22  1  0
 22 23  2  0
 22 24  2  0
 22 25  1  0
 25 26  1  0
 27 28  2  0
 28 29  1  0
 29 30  2  0
 13 31  1  0
 30 31  1  0
 27 32  1  0
 31 32  2  0
 33 34  2  0
 17 35  1  0
 34 35  1  0
 35 36  2  0
 26 37  1  0
 36 37  1  0
  5 38  1  0
 33 38  1  0
 37 38  2  0
M  END
