x3113-x1351
     RDKit          3D

 44 48  0  0  0  0  0  0  0  0999 V2000
    7.1080   -1.7970   22.0590 C   0  0  2  0  0  0  0  0  0  0  0  0
    8.1200   -4.7570   21.0780 C   0  0  0  0  0  0  0  0  0  0  0  0
    5.0310   -3.1950   20.7110 O   0  0  0  0  0  0  0  0  0  0  0  0
    8.1010    1.2840   23.1990 N   0  0  0  0  0  0  0  0  0  0  0  0
    8.6720    0.8680   21.1610 O   0  0  0  0  0  0  0  0  0  0  0  0
    6.1260   -2.9590   21.3740 C   0  0  0  0  0  0  0  0  0  0  0  0
   11.6200    3.6780   22.3790 O   0  0  0  0  0  0  0  0  0  0  0  0
    6.8360   -0.2630   21.8620 C   0  0  1  0  0  0  0  0  0  0  0  0
    7.9140    0.6510   22.0950 C   0  0  0  0  0  0  0  0  0  0  0  0
    9.1530    2.2510   23.3540 C   0  0  0  0  0  0  0  0  0  0  0  0
   10.4700    1.8210   23.1490 C   0  0  0  0  0  0  0  0  0  0  0  0
   11.4710    2.7540   23.4440 C   0  0  0  0  0  0  0  0  0  0  0  0
   12.8230    4.4400   22.5390 C   0  0  0  0  0  0  0  0  0  0  0  0
   12.5360   -1.8530   24.2730 C   0  0  0  0  0  0  0  0  0  0  0  0
   13.4400   -1.7940   23.2280 C   0  0  0  0  0  0  0  0  0  0  0  0
   12.9810   -3.0300   25.1370 C   0  0  0  0  0  0  0  0  0  0  0  0
   12.6020   -0.5720   25.0740 C   0  0  0  0  0  0  0  0  0  0  0  0
    5.3560   -2.9340   25.3720 N   0  0  0  0  0  0  0  0  0  0  0  0
    6.8280   -3.3420   27.1250 O   0  0  0  0  0  0  0  0  0  0  0  0
    6.1400   -2.5510   26.5310 C   0  0  0  0  0  0  0  0  0  0  0  0
    6.4440    0.1800   17.9610 N   0  0  0  0  0  0  0  0  0  0  0  0
    5.2570    1.0110   17.8790 C   0  0  0  0  0  0  0  0  0  0  0  0
    4.6080    1.3880   19.0420 C   0  0  0  0  0  0  0  0  0  0  0  0
    5.1430    0.9410   20.3900 C   0  0  0  0  0  0  0  0  0  0  0  0
    6.2760    0.1560   20.5100 C   0  0  0  0  0  0  0  0  0  0  0  0
    6.9090   -0.2120   19.1720 C   0  0  0  0  0  0  0  0  0  0  0  0
    9.7820   -2.4850   21.6650 C   0  0  0  0  0  0  0  0  0  0  0  0
   10.9910   -2.4370   22.2840 C   0  0  0  0  0  0  0  0  0  0  0  0
   11.1510   -1.8660   23.6840 C   0  0  0  0  0  0  0  0  0  0  0  0
    9.9940   -1.3950   24.2760 C   0  0  0  0  0  0  0  0  0  0  0  0
    8.7370   -1.4090   23.6900 C   0  0  0  0  0  0  0  0  0  0  0  0
    8.6190   -1.9360   22.4160 C   0  0  0  0  0  0  0  0  0  0  0  0
    6.9600   -4.1310   21.9120 C   0  0  2  0  0  0  0  0  0  0  0  0
    7.5460   -3.4880   23.1700 C   0  0  0  0  0  0  0  0  0  0  0  0
    6.6950   -2.2440   23.4800 C   0  0  2  0  0  0  0  0  0  0  0  0
    6.0340   -3.3870   24.2320 C   0  0  2  0  0  0  0  0  0  0  0  0
    5.0590   -4.1690   23.3150 C   0  0  0  0  0  0  0  0  0  0  0  0
    5.8350   -5.0720   22.3320 C   0  0  0  0  0  0  0  0  0  0  0  0
    6.7820   -0.8350   28.1590 C   0  0  0  0  0  0  0  0  0  0  0  0
    6.7810    0.5520   28.7700 C   0  0  0  0  0  0  0  0  0  0  0  0
    5.9680    1.6360   28.1060 C   0  0  0  0  0  0  0  0  0  0  0  0
    5.1960    1.2400   26.8380 C   0  0  0  0  0  0  0  0  0  0  0  0
    5.2810   -0.2100   26.3210 C   0  0  0  0  0  0  0  0  0  0  0  0
    6.0570   -1.1550   27.0020 C   0  0  0  0  0  0  0  0  0  0  0  0
  1  6  1  0
  3  6  2  0
  1  8  1  0
  4  9  1  0
  5  9  2  0
  8  9  1  6
  4 10  1  0
 10 11  1  0
  7 12  1  0
 11 12  1  0
  7 13  1  0
 14 15  1  0
 14 16  1  0
 14 17  1  0
 18 20  1  0
 19 20  2  0
 21 22  2  0
 22 23  1  0
 23 24  2  0
  8 25  1  0
 24 25  1  0
 21 26  1  0
 25 26  2  0
 27 28  2  0
 14 29  1  0
 28 29  1  0
 29 30  2  0
 30 31  1  0
  1 32  1  1
 27 32  1  0
 31 32  2  0
 33  2  1  6
  6 33  1  0
 33 34  1  0
  1 35  1  0
 35 34  1  1
 36 18  1  1
 35 36  1  0
 36 37  1  0
 33 38  1  0
 37 38  1  0
 39 40  2  0
 40 41  1  0
 41 42  2  0
 42 43  1  0
 20 44  1  0
 39 44  1  0
 43 44  2  0
M  END
