x3115-x2776-x2754
     RDKit          3D

 50 55  0  0  0  0  0  0  0  0999 V2000
    6.8100   -1.8440   22.0620 C   0  0  2  0  0  0  0  0  0  0  0  0
    7.0410   -5.2180   20.9500 C   0  0  0  0  0  0  0  0  0  0  0  0
    4.9160   -3.0540   20.8120 O   0  0  0  0  0  0  0  0  0  0  0  0
    7.6240    1.7900   23.0200 N   0  0  0  0  0  0  0  0  0  0  0  0
    8.7380    0.6500   21.2780 O   0  0  0  0  0  0  0  0  0  0  0  0
    5.9820   -3.0590   21.4780 C   0  0  0  0  0  0  0  0  0  0  0  0
    6.5350   -0.2680   21.8100 C   0  0  1  0  0  0  0  0  0  0  0  0
    7.7310    0.7300   21.9970 C   0  0  0  0  0  0  0  0  0  0  0  0
    8.2290    6.8350   22.5140 C   0  0  0  0  0  0  0  0  0  0  0  0
   12.4240   -1.8980   24.2040 C   0  0  0  0  0  0  0  0  0  0  0  0
   13.4070   -1.9490   23.0380 C   0  0  0  0  0  0  0  0  0  0  0  0
   12.8540   -3.0000   25.1850 C   0  0  0  0  0  0  0  0  0  0  0  0
   12.5750   -0.5580   24.9160 C   0  0  0  0  0  0  0  0  0  0  0  0
   10.8200    6.5290   23.5720 O   0  0  0  0  0  0  0  0  0  0  0  0
   10.4010    1.5060   24.0240 C   0  0  0  0  0  0  0  0  0  0  0  0
   11.7760    6.5400   24.6410 C   0  0  0  0  0  0  0  0  0  0  0  0
    4.8090   -2.9780   25.3000 C   0  0  0  0  0  0  0  0  0  0  0  0
    3.6130   -3.2020   25.5150 O   0  0  0  0  0  0  0  0  0  0  0  0
    5.6460   -2.7060   26.3950 N   0  0  0  0  0  0  0  0  0  0  0  0
    5.1670   -2.0420   27.6030 C   0  0  0  0  0  0  0  0  0  0  0  0
    6.3500    0.3160   18.0090 N   0  0  0  0  0  0  0  0  0  0  0  0
    5.2590    1.1370   17.8610 C   0  0  0  0  0  0  0  0  0  0  0  0
    4.5290    1.5220   18.9730 C   0  0  0  0  0  0  0  0  0  0  0  0
    4.9340    1.0450   20.3710 C   0  0  0  0  0  0  0  0  0  0  0  0
    6.0620    0.2200   20.4320 C   0  0  0  0  0  0  0  0  0  0  0  0
    6.7160   -0.1100   19.2410 C   0  0  0  0  0  0  0  0  0  0  0  0
    9.4300   -2.2280   21.7160 C   0  0  0  0  0  0  0  0  0  0  0  0
   10.7630   -2.2380   22.2330 C   0  0  0  0  0  0  0  0  0  0  0  0
   11.0370   -1.9280   23.5890 C   0  0  0  0  0  0  0  0  0  0  0  0
    9.9500   -1.6250   24.3500 C   0  0  0  0  0  0  0  0  0  0  0  0
    8.5770   -1.6120   23.8080 C   0  0  0  0  0  0  0  0  0  0  0  0
    8.3170   -1.9120   22.4910 C   0  0  0  0  0  0  0  0  0  0  0  0
    9.7890    2.8240   23.6420 C   0  0  0  0  0  0  0  0  0  0  0  0
   10.5930    4.0920   23.7790 C   0  0  0  0  0  0  0  0  0  0  0  0
   10.0860    5.3710   23.4320 C   0  0  0  0  0  0  0  0  0  0  0  0
    8.7880    5.5010   22.9200 C   0  0  0  0  0  0  0  0  0  0  0  0
    8.0170    4.3460   22.7910 C   0  0  0  0  0  0  0  0  0  0  0  0
    8.4810    2.9260   23.1590 C   0  0  0  0  0  0  0  0  0  0  0  0
    6.5600   -4.4030   21.9270 C   0  0  2  0  0  0  0  0  0  0  0  0
    7.4180   -3.8230   23.0490 C   0  0  0  0  0  0  0  0  0  0  0  0
    6.4660   -2.6460   23.4420 C   0  0  2  0  0  0  0  0  0  0  0  0
    5.1490   -3.0400   23.7740 C   0  0  1  0  0  0  0  0  0  0  0  0
    4.5500   -4.0770   23.0750 C   0  0  0  0  0  0  0  0  0  0  0  0
    5.4100   -5.0990   22.6680 C   0  0  0  0  0  0  0  0  0  0  0  0
    7.0080   -4.5180   27.4320 C   0  0  0  0  0  0  0  0  0  0  0  0
    8.2340   -5.1760   27.6430 C   0  0  0  0  0  0  0  0  0  0  0  0
    9.4020   -4.7370   27.0420 C   0  0  0  0  0  0  0  0  0  0  0  0
    9.4000   -3.6330   26.2090 C   0  0  0  0  0  0  0  0  0  0  0  0
    8.0600   -2.8940   25.9650 C   0  0  0  0  0  0  0  0  0  0  0  0
    6.9080   -3.3760   26.5970 C   0  0  0  0  0  0  0  0  0  0  0  0
  1  6  1  0
  3  6  2  0
  1  7  1  0
  4  8  1  0
  5  8  2  0
  7  8  1  6
 10 11  1  0
 10 12  1  0
 10 13  1  0
 14 16  1  0
 17 18  2  0
 17 19  1  0
 19 20  1  0
 21 22  2  0
 22 23  1  0
 23 24  2  0
  7 25  1  0
 24 25  1  0
 21 26  1  0
 25 26  2  0
 27 28  2  0
 10 29  1  0
 28 29  1  0
 29 30  2  0
 30 31  1  0
  1 32  1  6
 27 32  1  0
 31 32  2  0
 15 33  1  0
 33 34  2  0
 14 35  1  0
 34 35  1  0
  9 36  1  0
 35 36  2  0
 36 37  1  0
  4 38  1  0
 33 38  1  0
 37 38  2  0
 39  2  1  6
  6 39  1  0
 39 40  1  0
  1 41  1  0
 41 40  1  6
 42 17  1  1
 41 42  1  0
 42 43  1  0
 39 44  1  0
 43 44  1  0
 45 46  2  0
 46 47  1  0
 47 48  2  0
 48 49  1  0
 19 50  1  0
 45 50  1  0
 49 50  2  0
M  END
