x3110-x2754-x0426
     RDKit          3D

 59 63  0  0  0  0  0  0  0  0999 V2000
    7.9880    1.1430   23.2300 N   0  0  0  0  0  0  0  0  0  0  0  0
   13.4290    5.1880   22.8720 C   0  0  0  0  0  0  0  0  0  0  0  0
   12.0080    3.2350   22.4040 O   0  0  0  0  0  0  0  0  0  0  0  0
   12.4620    4.4480   22.0040 C   0  0  0  0  0  0  0  0  0  0  0  0
    7.0560   -1.6780   21.5460 N   0  0  0  0  0  0  0  0  0  0  0  0
   10.9780    4.3460   24.2620 O   0  0  0  0  0  0  0  0  0  0  0  0
   11.0450    3.2930   23.4270 C   0  0  0  0  0  0  0  0  0  0  0  0
    8.4670    1.3580   20.9980 O   0  0  0  0  0  0  0  0  0  0  0  0
   10.0660    2.0250   23.4680 C   0  0  0  0  0  0  0  0  0  0  0  0
    4.9650   -3.0930   20.8740 O   0  0  0  0  0  0  0  0  0  0  0  0
    8.7330    2.3040   23.3070 C   0  0  0  0  0  0  0  0  0  0  0  0
    7.7540    0.7950   21.8570 C   0  0  0  0  0  0  0  0  0  0  0  0
    6.6170   -0.2340   21.5080 C   0  0  1  0  0  0  0  0  0  0  0  0
    6.2100   -2.9000   21.3230 C   0  0  0  0  0  0  0  0  0  0  0  0
    8.1700   -4.7510   21.1000 C   0  0  0  0  0  0  0  0  0  0  0  0
   12.3570   -1.7720   24.4590 C   0  0  0  0  0  0  0  0  0  0  0  0
   12.5100   -0.5770   25.0430 C   0  0  0  0  0  0  0  0  0  0  0  0
   13.3660   -1.7640   23.3000 C   0  0  0  0  0  0  0  0  0  0  0  0
   12.6170   -3.0810   25.1200 C   0  0  0  0  0  0  0  0  0  0  0  0
    2.2690    1.7050   23.8160 C   0  0  0  0  0  0  0  0  0  0  0  0
    2.1530    0.4820   23.7670 O   0  0  0  0  0  0  0  0  0  0  0  0
    3.3990    2.3990   23.2060 N   0  0  0  0  0  0  0  0  0  0  0  0
    3.5280    2.2050   21.7450 C   0  0  0  0  0  0  0  0  0  0  0  0
    4.5870    1.1460   21.3910 C   0  0  0  0  0  0  0  0  0  0  0  0
    2.8110    4.3450   25.2340 F   0  0  0  0  0  0  0  0  0  0  0  0
    4.8520   -3.5250   25.5990 C   0  0  0  0  0  0  0  0  0  0  0  0
    3.6650   -3.3170   25.3800 O   0  0  0  0  0  0  0  0  0  0  0  0
    5.4940   -3.2500   26.8810 N   0  0  0  0  0  0  0  0  0  0  0  0
    5.1070   -1.9990   27.5350 C   0  0  0  0  0  0  0  0  0  0  0  0
    6.3690    0.5940   17.8300 N   0  0  0  0  0  0  0  0  0  0  0  0
    5.2590    1.3920   17.7070 C   0  0  0  0  0  0  0  0  0  0  0  0
    4.3630    1.7820   18.8620 C   0  0  0  0  0  0  0  0  0  0  0  0
    4.8490    1.2320   20.0030 C   0  0  0  0  0  0  0  0  0  0  0  0
    6.0540    0.3580   20.2690 C   0  0  0  0  0  0  0  0  0  0  0  0
    6.7370    0.1090   19.0530 C   0  0  0  0  0  0  0  0  0  0  0  0
    9.4950   -2.0970   21.6950 C   0  0  0  0  0  0  0  0  0  0  0  0
   10.8170   -2.1420   22.3260 C   0  0  0  0  0  0  0  0  0  0  0  0
   10.9870   -1.7600   23.7730 C   0  0  0  0  0  0  0  0  0  0  0  0
    9.8080   -1.3760   24.4330 C   0  0  0  0  0  0  0  0  0  0  0  0
    8.4160   -1.3220   23.7760 C   0  0  0  0  0  0  0  0  0  0  0  0
    8.3140   -1.7190   22.2920 C   0  0  0  0  0  0  0  0  0  0  0  0
    1.5640    3.8530   25.2300 C   0  0  0  0  0  0  0  0  0  0  0  0
    1.2370    2.5120   24.5220 C   0  0  0  0  0  0  0  0  0  0  0  0
   -0.2000    1.9730   24.5350 C   0  0  0  0  0  0  0  0  0  0  0  0
   -1.2940    2.7820   25.2550 C   0  0  0  0  0  0  0  0  0  0  0  0
   -0.8810    4.1090   25.9370 C   0  0  0  0  0  0  0  0  0  0  0  0
    0.5660    4.5960   25.8920 C   0  0  0  0  0  0  0  0  0  0  0  0
    6.9180   -4.1410   21.7770 C   0  0  1  0  0  0  0  0  0  0  0  0
    7.6320   -3.5530   23.0050 C   0  0  0  0  0  0  0  0  0  0  0  0
    6.5970   -2.9840   23.9160 C   0  0  0  0  0  0  0  0  0  0  0  0
    5.8180   -4.0950   24.5380 C   0  0  2  0  0  0  0  0  0  0  0  0
    5.3640   -5.1170   23.6820 C   0  0  0  0  0  0  0  0  0  0  0  0
    5.9390   -5.3170   22.3850 C   0  0  0  0  0  0  0  0  0  0  0  0
    7.1770   -4.8510   27.6980 C   0  0  0  0  0  0  0  0  0  0  0  0
    8.4910   -5.3010   27.7930 C   0  0  0  0  0  0  0  0  0  0  0  0
    9.5110   -4.6020   27.1790 C   0  0  0  0  0  0  0  0  0  0  0  0
    9.2220   -3.4510   26.4700 C   0  0  0  0  0  0  0  0  0  0  0  0
    7.9050   -2.9940   26.3740 C   0  0  0  0  0  0  0  0  0  0  0  0
    6.8630   -3.6920   26.9860 C   0  0  0  0  0  0  0  0  0  0  0  0
  2  4  1  0
  3  4  1  0
  3  7  1  0
  6  7  2  0
  7  9  1  0
  1 11  1  0
  9 11  1  0
  1 12  1  0
  8 12  2  0
  5 13  1  0
 13 12  1  6
  5 14  1  0
 10 14  2  0
 16 17  1  0
 16 18  1  0
 16 19  1  0
 20 21  2  0
 20 22  1  0
 22 23  1  0
 23 24  1  0
 26 27  2  0
 26 28  1  0
 28 29  1  0
 30 31  2  0
 31 32  1  0
 24 33  1  0
 32 33  2  0
 13 34  1  0
 33 34  1  0
 30 35  1  0
 34 35  2  0
 36 37  2  0
 16 38  1  0
 37 38  1  0
 38 39  2  0
 39 40  1  0
  5 41  1  0
 36 41  1  0
 40 41  2  0
 25 42  1  0
 20 43  1  0
 42 43  2  0
 43 44  1  0
 44 45  2  0
 45 46  1  0
 42 47  1  0
 46 47  2  0
 48 14  1  0
 48 15  1  6
 48 49  1  0
 49 50  1  0
 51 26  1  6
 50 51  1  0
 51 52  1  0
 48 53  1  0
 52 53  1  0
 54 55  2  0
 55 56  1  0
 56 57  2  0
 57 58  1  0
 28 59  1  0
 54 59  1  0
 58 59  2  0
M  END
