x3117-x1458-x2776
     RDKit          3D

 48 52  0  0  0  0  0  0  0  0999 V2000
    7.0540   -1.6140   21.6520 C   0  0  2  0  0  0  0  0  0  0  0  0
    7.0070   -5.0260   20.6030 C   0  0  0  0  0  0  0  0  0  0  0  0
    4.8410   -2.9320   20.7300 O   0  0  0  0  0  0  0  0  0  0  0  0
    7.6910    1.8390   22.8940 N   0  0  0  0  0  0  0  0  0  0  0  0
    8.6640    1.2540   20.9310 O   0  0  0  0  0  0  0  0  0  0  0  0
    6.0330   -2.8690   21.2270 C   0  0  0  0  0  0  0  0  0  0  0  0
   10.7180    6.5170   23.9400 O   0  0  0  0  0  0  0  0  0  0  0  0
    6.6470   -0.0720   21.5310 C   0  0  1  0  0  0  0  0  0  0  0  0
   13.2160   -2.8780   24.1300 O   0  0  0  0  0  0  0  0  0  0  0  0
    7.7680    1.0450   21.7410 C   0  0  0  0  0  0  0  0  0  0  0  0
   10.4370    1.6510   23.8990 C   0  0  0  0  0  0  0  0  0  0  0  0
   11.8210    6.3520   24.8320 C   0  0  0  0  0  0  0  0  0  0  0  0
   12.5140   -1.6570   23.8650 C   0  0  0  0  0  0  0  0  0  0  0  0
   13.2350   -0.9850   22.9020 C   0  0  0  0  0  0  0  0  0  0  0  0
   13.2940   -3.1960   25.5340 C   0  0  0  0  0  0  0  0  0  0  0  0
   12.4110   -0.9900   25.0340 C   0  0  0  0  0  0  0  0  0  0  0  0
    6.9860   -3.5950   26.7430 N   0  0  0  0  0  0  0  0  0  0  0  0
    8.9560   -4.7860   27.1310 C   0  0  0  0  0  0  0  0  0  0  0  0
    4.6900   -4.5450   26.3980 O   0  0  0  0  0  0  0  0  0  0  0  0
    7.6780   -4.5440   27.6400 C   0  0  0  0  0  0  0  0  0  0  0  0
    6.8880   -5.6840   27.6440 C   0  0  0  0  0  0  0  0  0  0  0  0
    6.4000   -2.4130   27.3920 C   0  0  0  0  0  0  0  0  0  0  0  0
    5.9470   -4.1710   25.8900 C   0  0  0  0  0  0  0  0  0  0  0  0
    6.7470   -2.2680   22.9240 C   0  0  0  0  0  0  0  0  0  0  0  0
    6.3740    0.5570   17.7160 N   0  0  0  0  0  0  0  0  0  0  0  0
    5.1770    1.4180   17.7120 C   0  0  0  0  0  0  0  0  0  0  0  0
    4.5520    1.7020   18.9090 C   0  0  0  0  0  0  0  0  0  0  0  0
    5.0040    1.2230   20.1410 C   0  0  0  0  0  0  0  0  0  0  0  0
    6.1500    0.4070   20.2030 C   0  0  0  0  0  0  0  0  0  0  0  0
    6.7900    0.0970   19.0000 C   0  0  0  0  0  0  0  0  0  0  0  0
    9.7650    2.9890   23.6320 C   0  0  0  0  0  0  0  0  0  0  0  0
   10.4820    4.1500   23.8780 C   0  0  0  0  0  0  0  0  0  0  0  0
    9.9470    5.4260   23.6640 C   0  0  0  0  0  0  0  0  0  0  0  0
    8.6400    5.4970   23.1720 C   0  0  0  0  0  0  0  0  0  0  0  0
    7.9390    4.3240   22.9310 C   0  0  0  0  0  0  0  0  0  0  0  0
    8.4370    3.0440   23.1420 C   0  0  0  0  0  0  0  0  0  0  0  0
    9.5880   -1.3310   21.5590 C   0  0  0  0  0  0  0  0  0  0  0  0
   10.8810   -1.3600   22.1190 C   0  0  0  0  0  0  0  0  0  0  0  0
   11.0760   -1.7150   23.4340 C   0  0  0  0  0  0  0  0  0  0  0  0
    9.9760   -2.0590   24.1980 C   0  0  0  0  0  0  0  0  0  0  0  0
    8.7290   -2.0210   23.6010 C   0  0  0  0  0  0  0  0  0  0  0  0
    8.4870   -1.6610   22.2620 C   0  0  0  0  0  0  0  0  0  0  0  0
    6.6040   -4.2260   21.6140 C   0  0  2  0  0  0  0  0  0  0  0  0
    7.5110   -3.5930   22.6670 C   0  0  2  0  0  0  0  0  0  0  0  0
    7.6130   -4.2520   24.0010 C   0  0  0  0  0  0  0  0  0  0  0  0
    6.1680   -4.2860   24.4100 C   0  0  1  0  0  0  0  0  0  0  0  0
    5.5800   -5.4580   23.7030 C   0  0  0  0  0  0  0  0  0  0  0  0
    5.4370   -5.0680   22.2360 C   0  0  0  0  0  0  0  0  0  0  0  0
  1  6  1  0
  3  6  2  0
  1  8  1  0
  4 10  1  0
  5 10  2  0
  8 10  1  6
  7 12  1  0
 13  9  1  0
 13 14  1  0
  9 15  1  0
 13 16  1  0
 17 20  1  0
 18 20  1  0
 20 21  1  0
 17 22  1  0
 17 23  1  0
 19 23  2  0
  1 24  1  0
 25 26  2  0
 26 27  1  0
 27 28  2  0
  8 29  1  0
 28 29  1  0
 25 30  1  0
 29 30  2  0
 11 31  1  0
 31 32  2  0
  7 33  1  0
 32 33  1  0
 33 34  2  0
 34 35  1  0
  4 36  1  0
 31 36  1  0
 35 36  2  0
 37 38  2  0
 13 39  1  0
 38 39  1  0
 39 40  2  0
 40 41  1  0
  1 42  1  6
 37 42  1  0
 41 42  2  0
 43  2  1  6
  6 43  1  0
 44 24  1  1
 43 44  1  0
 44 45  1  0
 46 23  1  1
 45 46  1  0
 46 47  1  0
 43 48  1  0
 47 48  1  0
M  END
