x3117-x2694
     RDKit          3D

 34 36  0  0  0  0  0  0  0  0999 V2000
    6.8750   -1.4730   21.9790 N   0  0  0  0  0  0  0  0  0  0  0  0
    7.5850   -3.8910   20.2020 C   0  0  0  0  0  0  0  0  0  0  0  0
    4.8320   -3.1060   21.4450 O   0  0  0  0  0  0  0  0  0  0  0  0
    6.5970   -2.8080   19.9020 C   0  0  0  0  0  0  0  0  0  0  0  0
    7.6410    2.1640   22.8640 N   0  0  0  0  0  0  0  0  0  0  0  0
    9.0130    0.7490   21.6510 O   0  0  0  0  0  0  0  0  0  0  0  0
    6.0130   -2.4630   21.2100 C   0  0  0  0  0  0  0  0  0  0  0  0
   10.9550    6.7760   23.8160 O   0  0  0  0  0  0  0  0  0  0  0  0
    6.6850    0.0090   21.7590 C   0  0  1  0  0  0  0  0  0  0  0  0
    7.8740    0.9370   22.0690 C   0  0  0  0  0  0  0  0  0  0  0  0
   10.3260    1.7950   24.0370 C   0  0  0  0  0  0  0  0  0  0  0  0
   11.8810    6.6060   24.9070 C   0  0  0  0  0  0  0  0  0  0  0  0
   12.1920   -1.5090   22.9130 C   0  0  0  0  0  0  0  0  0  0  0  0
   12.6120   -0.2110   23.2580 C   0  0  0  0  0  0  0  0  0  0  0  0
   12.7450   -1.8350   21.5170 C   0  0  0  0  0  0  0  0  0  0  0  0
   12.9990   -2.4650   23.8060 C   0  0  0  0  0  0  0  0  0  0  0  0
   12.2220   -2.7560   25.0660 C   0  0  0  0  0  0  0  0  0  0  0  0
    6.3250    0.6230   17.7640 N   0  0  0  0  0  0  0  0  0  0  0  0
    5.2320    1.3420   17.7070 C   0  0  0  0  0  0  0  0  0  0  0  0
    4.4660    1.6860   18.9850 C   0  0  0  0  0  0  0  0  0  0  0  0
    4.8840    1.2610   20.3700 C   0  0  0  0  0  0  0  0  0  0  0  0
    6.1570    0.4450   20.4210 C   0  0  0  0  0  0  0  0  0  0  0  0
    6.8110    0.1630   19.0560 C   0  0  0  0  0  0  0  0  0  0  0  0
    8.4830   -2.0500   23.9260 N   0  0  0  0  0  0  0  0  0  0  0  0
    9.9250   -2.0220   24.0860 O   0  0  0  0  0  0  0  0  0  0  0  0
   10.6360   -1.6210   22.9400 C   0  0  0  0  0  0  0  0  0  0  0  0
    9.5860   -1.4010   22.0550 C   0  0  0  0  0  0  0  0  0  0  0  0
    8.2180   -1.6550   22.6450 C   0  0  0  0  0  0  0  0  0  0  0  0
    9.7640    3.1310   23.6540 C   0  0  0  0  0  0  0  0  0  0  0  0
   10.6470    4.3510   23.9010 C   0  0  0  0  0  0  0  0  0  0  0  0
   10.1190    5.7200   23.5490 C   0  0  0  0  0  0  0  0  0  0  0  0
    8.8330    5.7430   22.9940 C   0  0  0  0  0  0  0  0  0  0  0  0
    8.0590    4.5750   22.7790 C   0  0  0  0  0  0  0  0  0  0  0  0
    8.4960    3.2770   23.1010 C   0  0  0  0  0  0  0  0  0  0  0  0
  2  4  1  0
  1  7  1  0
  3  7  2  0
  4  7  1  0
  1  9  1  0
  5 10  1  0
  6 10  2  0
  9 10  1  6
  8 12  1  0
 13 14  1  0
 13 15  1  0
 13 16  1  0
 16 17  1  0
 18 19  2  0
 19 20  1  0
 20 21  2  0
  9 22  1  0
 21 22  1  0
 18 23  1  0
 22 23  2  0
 24 25  1  0
 13 26  1  0
 25 26  1  0
 26 27  2  0
  1 28  1  0
 24 28  2  0
 27 28  1  0
 11 29  1  0
 29 30  2  0
  8 31  1  0
 30 31  1  0
 31 32  2  0
 32 33  1  0
  5 34  1  0
 29 34  1  0
 33 34  2  0
M  END
