x3110-x1308-x3113
     RDKit          3D

 50 54  0  0  0  0  0  0  0  0999 V2000
    7.9030    1.2870   23.2720 N   0  0  0  0  0  0  0  0  0  0  0  0
   13.5290    5.1710   22.5750 C   0  0  0  0  0  0  0  0  0  0  0  0
   12.0320    3.2710   22.4420 O   0  0  0  0  0  0  0  0  0  0  0  0
   12.2890    4.4000   22.0310 C   0  0  0  0  0  0  0  0  0  0  0  0
    6.8470   -1.6800   21.8350 C   0  0  2  0  0  0  0  0  0  0  0  0
   10.7290    4.1670   24.0840 O   0  0  0  0  0  0  0  0  0  0  0  0
   11.0640    3.2070   23.4060 C   0  0  0  0  0  0  0  0  0  0  0  0
    8.5690    1.5350   20.8590 O   0  0  0  0  0  0  0  0  0  0  0  0
   10.3750    1.8260   23.6300 C   0  0  0  0  0  0  0  0  0  0  0  0
    4.8320   -2.9310   20.7280 O   0  0  0  0  0  0  0  0  0  0  0  0
    8.9080    2.2620   23.7310 C   0  0  0  0  0  0  0  0  0  0  0  0
    7.7730    0.9110   21.8640 C   0  0  0  0  0  0  0  0  0  0  0  0
    6.6860   -0.1890   21.5810 C   0  0  1  0  0  0  0  0  0  0  0  0
    6.0750   -2.8460   21.0890 C   0  0  0  0  0  0  0  0  0  0  0  0
    6.7950   -4.1210   20.9830 C   0  0  1  0  0  0  0  0  0  0  0  0
    8.2460   -3.9830   20.6400 C   0  0  0  0  0  0  0  0  0  0  0  0
   12.4350   -2.0510   24.0570 C   0  0  0  0  0  0  0  0  0  0  0  0
   13.2060   -1.1330   23.4080 C   0  0  0  0  0  0  0  0  0  0  0  0
   12.7400   -0.7070   24.5970 C   0  0  0  0  0  0  0  0  0  0  0  0
   12.8830   -2.9090   24.9920 C   0  0  0  0  0  0  0  0  0  0  0  0
    0.5300   -1.1630   26.4480 Cl  0  0  0  0  0  0  0  0  0  0  0  0
    6.4740   -5.1170   26.9990 O   0  0  0  0  0  0  0  0  0  0  0  0
    4.7750   -6.8600   26.3270 O   0  0  0  0  0  0  0  0  0  0  0  0
    5.4010   -5.5710   26.1430 S   0  0  0  0  0  0  0  0  0  0  0  0
    6.0840   -2.1090   23.0640 C   0  0  0  0  0  0  0  0  0  0  0  0
    5.7380   -3.4770   23.2540 C   0  0  0  0  0  0  0  0  0  0  0  0
    6.3850    0.3930   17.7960 N   0  0  0  0  0  0  0  0  0  0  0  0
    5.2120    1.2660   17.8230 C   0  0  0  0  0  0  0  0  0  0  0  0
    4.5760    1.6130   18.9280 C   0  0  0  0  0  0  0  0  0  0  0  0
    5.0700    1.1190   20.1260 C   0  0  0  0  0  0  0  0  0  0  0  0
    6.1990    0.2770   20.2010 C   0  0  0  0  0  0  0  0  0  0  0  0
    6.8860   -0.1220   19.0730 C   0  0  0  0  0  0  0  0  0  0  0  0
    9.3910   -1.4970   21.7160 C   0  0  0  0  0  0  0  0  0  0  0  0
   10.6760   -1.5920   22.2530 C   0  0  0  0  0  0  0  0  0  0  0  0
   10.9930   -2.0190   23.5740 C   0  0  0  0  0  0  0  0  0  0  0  0
    9.8000   -2.4200   24.4600 C   0  0  0  0  0  0  0  0  0  0  0  0
    8.3780   -2.3110   23.8440 C   0  0  0  0  0  0  0  0  0  0  0  0
    8.2590   -1.8180   22.4160 C   0  0  0  0  0  0  0  0  0  0  0  0
    6.5120   -4.6430   22.3680 C   0  0  0  0  0  0  0  0  0  0  0  0
    7.6650   -5.0290   23.0130 C   0  0  0  0  0  0  0  0  0  0  0  0
    7.3860   -5.1780   24.3600 C   0  0  0  0  0  0  0  0  0  0  0  0
    5.9300   -5.4650   24.5560 N   0  0  0  0  0  0  0  0  0  0  0  0
    5.1850   -6.2570   23.5370 C   0  0  0  0  0  0  0  0  0  0  0  0
    5.6380   -5.8940   22.2900 C   0  0  0  0  0  0  0  0  0  0  0  0
    4.3880   -3.0270   26.5610 C   0  0  0  0  0  0  0  0  0  0  0  0
    3.2860   -1.9640   26.6460 C   0  0  0  0  0  0  0  0  0  0  0  0
    1.7870   -2.3210   26.3420 C   0  0  0  0  0  0  0  0  0  0  0  0
    1.5150   -3.7670   25.9510 C   0  0  0  0  0  0  0  0  0  0  0  0
    2.6720   -4.7510   25.8940 C   0  0  0  0  0  0  0  0  0  0  0  0
    4.1120   -4.3520   26.2120 C   0  0  0  0  0  0  0  0  0  0  0  0
  2  4  1  0
  3  4  1  0
  3  7  1  0
  6  7  2  0
  7  9  1  0
  1 11  1  0
  9 11  1  0
  1 12  1  0
  8 12  2  0
  5 13  1  0
 13 12  1  6
  5 14  1  0
 10 14  2  0
 14 15  1  0
 15 16  1  1
 17 18  1  0
 17 19  1  0
 17 20  1  0
 22 24  2  0
 23 24  2  0
  5 25  1  0
 25 26  1  0
 27 28  2  0
 28 29  1  0
 29 30  2  0
 13 31  1  0
 30 31  1  0
 27 32  1  0
 31 32  2  0
 33 34  2  0
 17 35  1  0
 34 35  1  0
 35 36  2  0
 36 37  1  0
  5 38  1  1
 33 38  1  0
 37 38  2  0
 15 39  1  0
 39 26  1  0
 39 40  1  0
 40 41  1  0
 24 42  1  0
 41 42  1  0
 42 43  1  0
 39 44  1  0
 43 44  1  0
 45 46  2  0
 21 47  1  0
 46 47  1  0
 47 48  2  0
 48 49  1  0
 24 50  1  0
 45 50  1  0
 49 50  2  0
M  END
