x3115-x2754-x3110-x0426-x1077
     RDKit          3D

 69 74  0  0  0  0  0  0  0  0999 V2000
    7.8240    1.3260   23.2560 N   0  0  0  0  0  0  0  0  0  0  0  0
   13.3770    5.1310   22.8660 C   0  0  0  0  0  0  0  0  0  0  0  0
   11.9860    3.3940   22.3990 O   0  0  0  0  0  0  0  0  0  0  0  0
   12.3500    4.4890   21.9600 C   0  0  0  0  0  0  0  0  0  0  0  0
    6.9580   -1.6350   21.6910 N   0  0  0  0  0  0  0  0  0  0  0  0
   10.9350    4.2790   24.1820 O   0  0  0  0  0  0  0  0  0  0  0  0
   11.0500    3.3150   23.4070 C   0  0  0  0  0  0  0  0  0  0  0  0
    8.5690    1.3890   20.9600 O   0  0  0  0  0  0  0  0  0  0  0  0
   10.1570    2.0360   23.5670 C   0  0  0  0  0  0  0  0  0  0  0  0
    4.9350   -3.0600   20.9150 O   0  0  0  0  0  0  0  0  0  0  0  0
    8.6890    2.4020   23.5200 C   0  0  1  0  0  0  0  0  0  0  0  0
    7.6680    0.8130   21.9120 C   0  0  0  0  0  0  0  0  0  0  0  0
    6.5740   -0.2400   21.5310 C   0  0  1  0  0  0  0  0  0  0  0  0
    6.1810   -2.8690   21.3580 C   0  0  0  0  0  0  0  0  0  0  0  0
    8.1300   -4.7200   21.1620 C   0  0  0  0  0  0  0  0  0  0  0  0
   12.3130   -1.7840   24.2230 C   0  0  0  0  0  0  0  0  0  0  0  0
   12.4380   -0.5070   25.0290 C   0  0  0  0  0  0  0  0  0  0  0  0
   13.3360   -1.7040   23.1170 C   0  0  0  0  0  0  0  0  0  0  0  0
   12.7400   -2.9570   25.1150 C   0  0  0  0  0  0  0  0  0  0  0  0
    8.5350    4.8710   23.1920 O   0  0  0  0  0  0  0  0  0  0  0  0
    8.4350    3.5890   22.5330 C   0  0  0  0  0  0  0  0  0  0  0  0
    8.2020    5.9660   22.3300 C   0  0  0  0  0  0  0  0  0  0  0  0
    2.2820    1.8170   23.7680 C   0  0  0  0  0  0  0  0  0  0  0  0
    2.1530    0.5990   23.7150 O   0  0  0  0  0  0  0  0  0  0  0  0
    3.3330    2.5000   23.1840 N   0  0  0  0  0  0  0  0  0  0  0  0
    4.3030    1.8780   22.4230 C   0  0  0  0  0  0  0  0  0  0  0  0
    3.7630    1.3660   21.2250 C   0  0  0  0  0  0  0  0  0  0  0  0
    2.7750    4.3140   25.2040 F   0  0  0  0  0  0  0  0  0  0  0  0
    4.6770   -3.7150   25.5960 C   0  0  0  0  0  0  0  0  0  0  0  0
    3.4700   -3.6510   25.5430 O   0  0  0  0  0  0  0  0  0  0  0  0
    5.2920   -3.4380   26.8000 N   0  0  0  0  0  0  0  0  0  0  0  0
    4.9990   -2.2460   27.3800 C   0  0  0  0  0  0  0  0  0  0  0  0
    6.4030    0.6300   17.7350 N   0  0  0  0  0  0  0  0  0  0  0  0
    5.1580    1.3720   17.7180 C   0  0  0  0  0  0  0  0  0  0  0  0
    4.3910    1.5530   18.8580 C   0  0  0  0  0  0  0  0  0  0  0  0
    4.7570    1.0590   20.1140 C   0  0  0  0  0  0  0  0  0  0  0  0
    6.0860    0.2780   20.2380 C   0  0  0  0  0  0  0  0  0  0  0  0
    6.8150    0.1330   18.9100 C   0  0  0  0  0  0  0  0  0  0  0  0
    9.3740   -1.9350   21.6720 C   0  0  0  0  0  0  0  0  0  0  0  0
   10.7510   -1.9830   22.2900 C   0  0  0  0  0  0  0  0  0  0  0  0
   10.8950   -1.7500   23.6250 C   0  0  0  0  0  0  0  0  0  0  0  0
    9.7510   -1.4770   24.3770 C   0  0  0  0  0  0  0  0  0  0  0  0
    8.4520   -1.4280   23.7870 C   0  0  0  0  0  0  0  0  0  0  0  0
    8.2400   -1.6610   22.4060 C   0  0  0  0  0  0  0  0  0  0  0  0
    1.5350    3.8010   25.1850 C   0  0  0  0  0  0  0  0  0  0  0  0
    1.2500    2.6080   24.5100 C   0  0  0  0  0  0  0  0  0  0  0  0
   -0.0760    2.1260   24.5330 C   0  0  0  0  0  0  0  0  0  0  0  0
   -1.0820    2.8130   25.2060 C   0  0  0  0  0  0  0  0  0  0  0  0
   -0.7780    3.9990   25.8700 C   0  0  0  0  0  0  0  0  0  0  0  0
    0.5290    4.4960   25.8620 C   0  0  0  0  0  0  0  0  0  0  0  0
    7.7010   -4.2170   25.5360 O   0  0  0  0  0  0  0  0  0  0  0  0
    7.6670   -5.4880   24.9140 C   0  0  0  0  0  0  0  0  0  0  0  0
    8.5900   -5.5820   23.9860 C   0  0  0  0  0  0  0  0  0  0  0  0
    9.8810   -5.2420   24.3410 C   0  0  0  0  0  0  0  0  0  0  0  0
   10.1130   -4.4540   25.5410 N   0  0  0  0  0  0  0  0  0  0  0  0
    9.4100   -4.8730   26.7710 C   0  0  0  0  0  0  0  0  0  0  0  0
    8.1900   -4.2040   26.8870 C   0  0  2  0  0  0  0  0  0  0  0  0
    6.9860   -4.1550   21.7090 C   0  0  1  0  0  0  0  0  0  0  0  0
    7.5160   -3.5470   23.0280 C   0  0  0  0  0  0  0  0  0  0  0  0
    6.3730   -2.9310   23.8430 C   0  0  0  0  0  0  0  0  0  0  0  0
    5.5840   -4.1030   24.3760 C   0  0  2  0  0  0  0  0  0  0  0  0
    4.9590   -4.7530   23.1360 C   0  0  0  0  0  0  0  0  0  0  0  0
    5.9430   -5.2470   22.1600 C   0  0  0  0  0  0  0  0  0  0  0  0
    7.1200   -4.8960   27.6690 C   0  0  0  0  0  0  0  0  0  0  0  0
    8.3000   -5.4670   27.9450 C   0  0  0  0  0  0  0  0  0  0  0  0
    9.3380   -4.7700   27.3120 C   0  0  0  0  0  0  0  0  0  0  0  0
    9.0120   -3.6180   26.5060 C   0  0  0  0  0  0  0  0  0  0  0  0
    7.6580   -3.1640   26.3230 C   0  0  0  0  0  0  0  0  0  0  0  0
    6.6010   -3.8550   26.9540 C   0  0  0  0  0  0  0  0  0  0  0  0
  2  4  1  0
  3  4  1  0
  3  7  1  0
  6  7  2  0
  7  9  1  0
  1 11  1  0
 11  9  1  6
  1 12  1  0
  8 12  2  0
  5 13  1  0
 13 12  1  6
  5 14  1  0
 10 14  2  0
 16 17  1  0
 16 18  1  0
 16 19  1  0
 11 21  1  0
 20 21  1  0
 20 22  1  0
 23 24  2  0
 23 25  1  0
 25 26  1  0
 26 27  1  0
 29 30  2  0
 29 31  1  0
 31 32  1  0
 33 34  2  0
 34 35  1  0
 27 36  1  0
 35 36  2  0
 13 37  1  0
 36 37  1  0
 33 38  1  0
 37 38  2  0
 39 40  2  0
 16 41  1  0
 40 41  1  0
 41 42  2  0
 42 43  1  0
  5 44  1  0
 39 44  1  0
 43 44  2  0
 28 45  1  0
 23 46  1  0
 45 46  2  0
 46 47  1  0
 47 48  2  0
 48 49  1  0
 45 50  1  0
 49 50  2  0
 51 52  1  0
 52 53  1  0
 53 54  1  0
 54 55  1  0
 55 56  1  0
 51 57  1  0
 56 57  1  0
 58 14  1  0
 58 15  1  6
 58 59  1  0
 59 60  1  0
 61 29  1  1
 60 61  1  0
 61 62  1  0
 58 63  1  0
 62 63  1  0
 57 64  1  1
 64 65  2  0
 65 66  1  0
 66 67  2  0
 67 68  1  0
 31 69  1  0
 64 69  1  0
 68 69  2  0
M  END
