x3115-x2908
     RDKit          3D

 32 33  0  0  0  0  0  0  0  0999 V2000
    6.9420   -1.8030   21.7230 N   0  0  0  0  0  0  0  0  0  0  0  0
    6.7270   -5.0080   20.4590 C   0  0  0  0  0  0  0  0  0  0  0  0
    4.8490   -3.0530   21.2250 O   0  0  0  0  0  0  0  0  0  0  0  0
    6.7570   -4.2940   21.7880 C   0  0  0  0  0  0  0  0  0  0  0  0
    7.1660    1.6780   22.8250 N   0  0  0  0  0  0  0  0  0  0  0  0
    8.8320    0.6180   21.6180 O   0  0  0  0  0  0  0  0  0  0  0  0
    6.0900   -2.9810   21.5590 C   0  0  0  0  0  0  0  0  0  0  0  0
    8.4840    5.1820   22.9010 O   0  0  0  0  0  0  0  0  0  0  0  0
    6.6100   -0.3140   21.5410 C   0  0  1  0  0  0  0  0  0  0  0  0
    7.6690    0.6860   22.0020 C   0  0  0  0  0  0  0  0  0  0  0  0
    7.9710    2.7990   23.1500 C   0  0  0  0  0  0  0  0  0  0  0  0
    7.7590    4.0930   22.3130 C   0  0  0  0  0  0  0  0  0  0  0  0
    8.3270    6.3590   22.2300 C   0  0  0  0  0  0  0  0  0  0  0  0
   12.1190   -1.8360   24.4530 C   0  0  0  0  0  0  0  0  0  0  0  0
   13.2780   -2.1680   23.7690 C   0  0  0  0  0  0  0  0  0  0  0  0
   12.8940   -3.0040   25.1200 C   0  0  0  0  0  0  0  0  0  0  0  0
   12.3280   -0.5070   25.1390 C   0  0  0  0  0  0  0  0  0  0  0  0
    4.1700    1.5160   21.3450 C   0  0  0  0  0  0  0  0  0  0  0  0
    6.2880    0.3250   17.7600 N   0  0  0  0  0  0  0  0  0  0  0  0
    5.2010    1.1580   17.7700 C   0  0  0  0  0  0  0  0  0  0  0  0
    4.5260    1.5240   18.9300 C   0  0  0  0  0  0  0  0  0  0  0  0
    4.9570    1.0460   20.1660 C   0  0  0  0  0  0  0  0  0  0  0  0
    6.0440    0.2130   20.2530 C   0  0  0  0  0  0  0  0  0  0  0  0
    6.7010   -0.1520   19.0860 C   0  0  0  0  0  0  0  0  0  0  0  0
    9.4010   -1.5070   21.7950 C   0  0  0  0  0  0  0  0  0  0  0  0
   10.6450   -1.5100   22.4250 C   0  0  0  0  0  0  0  0  0  0  0  0
   10.7440   -1.8930   23.7590 C   0  0  0  0  0  0  0  0  0  0  0  0
    9.5890   -2.2870   24.4400 C   0  0  0  0  0  0  0  0  0  0  0  0
    8.3270   -2.2840   23.7990 C   0  0  0  0  0  0  0  0  0  0  0  0
    8.2240   -1.8770   22.4480 C   0  0  0  0  0  0  0  0  0  0  0  0
   13.3700   -1.5700   21.1870 Cl  0  0  0  0  0  0  0  0  0  0  0  0
   13.0770   -2.7160   22.3830 C   0  0  0  0  0  0  0  0  0  0  0  0
  2  4  1  0
  1  7  1  0
  3  7  2  0
  4  7  1  0
  1  9  1  0
  5 10  1  0
  6 10  2  0
  9 10  1  6
  5 11  1  0
  8 12  1  0
 11 12  1  0
  8 13  1  0
 14 15  1  0
 14 16  1  0
 14 17  1  0
 19 20  2  0
 20 21  1  0
 18 22  1  0
 21 22  2  0
  9 23  1  0
 22 23  1  0
 19 24  1  0
 23 24  2  0
 25 26  2  0
 14 27  1  0
 26 27  1  0
 27 28  2  0
 28 29  1  0
  1 30  1  0
 25 30  1  0
 29 30  2  0
 15 32  1  0
 31 32  1  0
M  END
