x3110-x0734-x3115
     RDKit          3D

 49 52  0  0  0  0  0  0  0  0999 V2000
    7.9070    1.3390   23.1750 N   0  0  0  0  0  0  0  0  0  0  0  0
   13.3440    5.1070   22.7040 C   0  0  0  0  0  0  0  0  0  0  0  0
   11.8460    3.2670   22.5300 O   0  0  0  0  0  0  0  0  0  0  0  0
   12.2240    4.3410   22.0610 C   0  0  0  0  0  0  0  0  0  0  0  0
    7.0120   -1.5670   21.6570 N   0  0  0  0  0  0  0  0  0  0  0  0
   10.9090    4.3100   24.1770 O   0  0  0  0  0  0  0  0  0  0  0  0
   11.0030    3.3560   23.4240 C   0  0  0  0  0  0  0  0  0  0  0  0
    8.4590    1.2400   20.9510 O   0  0  0  0  0  0  0  0  0  0  0  0
   10.1810    2.2030   23.4480 C   0  0  0  0  0  0  0  0  0  0  0  0
    4.9520   -3.0700   20.9060 O   0  0  0  0  0  0  0  0  0  0  0  0
    8.7800    2.4540   23.4080 C   0  0  1  0  0  0  0  0  0  0  0  0
    7.6950    0.8120   21.8350 C   0  0  0  0  0  0  0  0  0  0  0  0
    6.6220   -0.1000   21.5160 C   0  0  1  0  0  0  0  0  0  0  0  0
    6.2140   -2.8150   21.3160 C   0  0  0  0  0  0  0  0  0  0  0  0
    8.3640   -4.5130   20.9860 C   0  0  0  0  0  0  0  0  0  0  0  0
   12.2540   -1.7720   24.2870 C   0  0  0  0  0  0  0  0  0  0  0  0
   12.4790   -0.6100   25.0260 C   0  0  0  0  0  0  0  0  0  0  0  0
   13.2830   -1.7290   23.1410 C   0  0  0  0  0  0  0  0  0  0  0  0
   12.5140   -2.9100   24.9300 C   0  0  0  0  0  0  0  0  0  0  0  0
    8.4920    4.7600   23.1560 O   0  0  0  0  0  0  0  0  0  0  0  0
    8.4840    3.6980   22.5070 C   0  0  0  0  0  0  0  0  0  0  0  0
    8.2530    5.7480   22.4570 C   0  0  0  0  0  0  0  0  0  0  0  0
    5.0700   -5.0030   26.3970 N   0  0  0  0  0  0  0  0  0  0  0  0
    4.3930   -5.7560   25.6830 O   0  0  0  0  0  0  0  0  0  0  0  0
    4.6770   -3.9150   26.8400 O   0  0  0  0  0  0  0  0  0  0  0  0
    6.3740    0.3900   17.8210 N   0  0  0  0  0  0  0  0  0  0  0  0
    5.2000    1.2730   17.7990 C   0  0  0  0  0  0  0  0  0  0  0  0
    4.5300    1.6580   18.9260 C   0  0  0  0  0  0  0  0  0  0  0  0
    5.0390    1.1670   20.1030 C   0  0  0  0  0  0  0  0  0  0  0  0
    6.1450    0.3410   20.1590 C   0  0  0  0  0  0  0  0  0  0  0  0
    6.8460   -0.0820   19.0190 C   0  0  0  0  0  0  0  0  0  0  0  0
    9.4120   -1.8500   21.6930 C   0  0  0  0  0  0  0  0  0  0  0  0
   10.6900   -1.9080   22.2790 C   0  0  0  0  0  0  0  0  0  0  0  0
   10.8450   -1.7310   23.6500 C   0  0  0  0  0  0  0  0  0  0  0  0
    9.6990   -1.5050   24.4130 C   0  0  0  0  0  0  0  0  0  0  0  0
    8.4270   -1.4460   23.8170 C   0  0  0  0  0  0  0  0  0  0  0  0
    8.2560   -1.6160   22.4300 C   0  0  0  0  0  0  0  0  0  0  0  0
    6.5060   -5.1970   26.3290 C   0  0  0  0  0  0  0  0  0  0  0  0
    7.1920   -5.0500   25.1150 C   0  0  0  0  0  0  0  0  0  0  0  0
    8.7250   -5.2400   25.0000 C   0  0  0  0  0  0  0  0  0  0  0  0
    9.4850   -5.5990   26.2530 C   0  0  0  0  0  0  0  0  0  0  0  0
    8.6830   -5.7510   27.5480 C   0  0  0  0  0  0  0  0  0  0  0  0
    7.1670   -5.5320   27.5210 C   0  0  0  0  0  0  0  0  0  0  0  0
    7.0540   -4.0310   21.6220 C   0  0  0  0  0  0  0  0  0  0  0  0
    6.0290   -5.1520   21.9080 C   0  0  0  0  0  0  0  0  0  0  0  0
    6.4620   -5.7360   23.1050 C   0  0  0  0  0  0  0  0  0  0  0  0
    6.5080   -4.7740   24.2370 N   0  0  0  0  0  0  0  0  0  0  0  0
    6.6860   -3.4250   23.8250 C   0  0  0  0  0  0  0  0  0  0  0  0
    7.6860   -3.5490   22.9090 C   0  0  0  0  0  0  0  0  0  0  0  0
  2  4  1  0
  3  4  1  0
  3  7  1  0
  6  7  2  0
  7  9  1  0
  1 11  1  0
 11  9  1  6
  1 12  1  0
  8 12  2  0
  5 13  1  0
 13 12  1  6
  5 14  1  0
 10 14  2  0
 16 17  1  0
 16 18  1  0
 16 19  1  0
 11 21  1  0
 20 21  1  0
 20 22  1  0
 23 24  2  0
 23 25  1  0
 26 27  2  0
 27 28  1  0
 28 29  2  0
 13 30  1  0
 29 30  1  0
 26 31  1  0
 30 31  2  0
 32 33  2  0
 16 34  1  0
 33 34  1  0
 34 35  2  0
 35 36  1  0
  5 37  1  0
 32 37  1  0
 36 37  2  0
 23 38  1  0
 38 39  2  0
 39 40  1  0
 40 41  2  0
 41 42  1  0
 38 43  1  0
 42 43  2  0
 44 14  1  0
 15 44  1  0
 44 45  1  0
 45 46  1  0
 39 47  1  0
 46 47  1  0
 47 48  1  0
 44 49  1  0
 48 49  1  0
M  CHG  2  23   1  25  -1
M  END
