x3110-x1380
     RDKit          3D

 45 49  0  0  0  0  0  0  0  0999 V2000
    7.9480    1.0910   23.4550 N   0  0  0  0  0  0  0  0  0  0  0  0
   13.3710    5.1320   22.7380 C   0  0  0  0  0  0  0  0  0  0  0  0
   11.9790    3.2140   22.4990 O   0  0  0  0  0  0  0  0  0  0  0  0
   12.2860    4.3300   22.0750 C   0  0  0  0  0  0  0  0  0  0  0  0
    6.9400   -1.8100   22.0770 C   0  0  1  0  0  0  0  0  0  0  0  0
   10.8100    4.1410   24.2130 O   0  0  0  0  0  0  0  0  0  0  0  0
   10.9960    3.1990   23.4560 C   0  0  0  0  0  0  0  0  0  0  0  0
    8.4240    0.9990   21.0310 O   0  0  0  0  0  0  0  0  0  0  0  0
   10.1890    2.0400   23.5390 C   0  0  0  0  0  0  0  0  0  0  0  0
    5.0510   -3.2290   20.6340 O   0  0  0  0  0  0  0  0  0  0  0  0
    8.8000    2.2740   23.4700 C   0  0  0  0  0  0  0  0  0  0  0  0
    7.6550    0.5430   22.1370 C   0  0  0  0  0  0  0  0  0  0  0  0
    6.6240   -0.4080   21.8480 C   0  0  1  0  0  0  0  0  0  0  0  0
    6.1300   -2.9990   21.3230 C   0  0  0  0  0  0  0  0  0  0  0  0
    8.3070   -4.6170   21.1100 C   0  0  0  0  0  0  0  0  0  0  0  0
   12.4460   -1.8640   24.1290 C   0  0  0  0  0  0  0  0  0  0  0  0
   12.6700   -0.5250   24.8110 C   0  0  0  0  0  0  0  0  0  0  0  0
   13.4320   -1.9240   22.9840 C   0  0  0  0  0  0  0  0  0  0  0  0
   12.7770   -2.9620   25.1550 C   0  0  0  0  0  0  0  0  0  0  0  0
    4.4890   -2.2710   25.8180 O   0  0  0  0  0  0  0  0  0  0  0  0
    5.4150   -2.9880   25.5010 C   0  0  0  0  0  0  0  0  0  0  0  0
    6.4710    0.1650   18.0110 N   0  0  0  0  0  0  0  0  0  0  0  0
    5.2900    1.0510   17.9250 C   0  0  0  0  0  0  0  0  0  0  0  0
    4.6100    1.3980   19.0900 C   0  0  0  0  0  0  0  0  0  0  0  0
    5.0900    0.8880   20.2980 C   0  0  0  0  0  0  0  0  0  0  0  0
    6.1900    0.0610   20.4400 C   0  0  0  0  0  0  0  0  0  0  0  0
    6.8430   -0.2700   19.2470 C   0  0  0  0  0  0  0  0  0  0  0  0
    9.5360   -1.4100   21.7000 C   0  0  0  0  0  0  0  0  0  0  0  0
   10.8210   -1.4550   22.2680 C   0  0  0  0  0  0  0  0  0  0  0  0
   11.0320   -1.9000   23.5800 C   0  0  0  0  0  0  0  0  0  0  0  0
    9.9660   -2.3240   24.3260 C   0  0  0  0  0  0  0  0  0  0  0  0
    8.7050   -2.2820   23.7810 C   0  0  0  0  0  0  0  0  0  0  0  0
    8.4440   -1.8260   22.4710 C   0  0  0  0  0  0  0  0  0  0  0  0
    7.0260   -4.1260   21.7980 C   0  0  2  0  0  0  0  0  0  0  0  0
    6.2360   -5.2700   22.4180 C   0  0  0  0  0  0  0  0  0  0  0  0
    5.7940   -4.8260   23.8500 C   0  0  0  0  0  0  0  0  0  0  0  0
    5.5600   -3.2770   23.9790 C   0  0  2  0  0  0  0  0  0  0  0  0
    6.7370   -2.3890   23.5090 C   0  0  1  0  0  0  0  0  0  0  0  0
    7.6820   -3.4760   23.0630 C   0  0  0  0  0  0  0  0  0  0  0  0
    7.6050   -4.0950   26.3000 C   0  0  0  0  0  0  0  0  0  0  0  0
    7.9180   -5.1000   27.2450 C   0  0  0  0  0  0  0  0  0  0  0  0
    7.3390   -4.9830   28.5040 C   0  0  0  0  0  0  0  0  0  0  0  0
    5.9790   -4.7010   28.4640 C   0  0  0  0  0  0  0  0  0  0  0  0
    5.7940   -3.4500   27.8760 C   0  0  0  0  0  0  0  0  0  0  0  0
    6.2630   -3.5100   26.4720 N   0  0  0  0  0  0  0  0  0  0  0  0
  2  4  1  0
  3  4  1  0
  3  7  1  0
  6  7  2  0
  7  9  1  0
  1 11  1  0
  9 11  1  0
  1 12  1  0
  8 12  2  0
  5 13  1  0
 13 12  1  6
  5 14  1  0
 10 14  2  0
 16 17  1  0
 16 18  1  0
 16 19  1  0
 20 21  2  0
 22 23  2  0
 23 24  1  0
 24 25  2  0
 13 26  1  0
 25 26  1  0
 22 27  1  0
 26 27  2  0
 28 29  2  0
 16 30  1  0
 29 30  1  0
 30 31  2  0
 31 32  1  0
  5 33  1  6
 28 33  1  0
 32 33  2  0
 14 34  1  0
 34 15  1  6
 34 35  1  0
 35 36  1  0
 37 21  1  1
 36 37  1  0
  5 38  1  0
 37 38  1  0
 34 39  1  0
 38 39  1  6
 40 41  1  0
 41 42  1  0
 42 43  1  0
 43 44  1  0
 21 45  1  0
 40 45  1  0
 44 45  1  0
M  END
