x3115-x1458
     RDKit          3D

 41 44  0  0  0  0  0  0  0  0999 V2000
    6.9540   -1.9620   22.0090 C   0  0  2  0  0  0  0  0  0  0  0  0
    7.0400   -5.2800   20.5320 C   0  0  0  0  0  0  0  0  0  0  0  0
    4.9530   -3.1210   20.8620 O   0  0  0  0  0  0  0  0  0  0  0  0
    7.2000    1.6710   22.9680 N   0  0  0  0  0  0  0  0  0  0  0  0
    8.7070    0.6010   21.5260 O   0  0  0  0  0  0  0  0  0  0  0  0
    6.0730   -3.1500   21.4430 C   0  0  0  0  0  0  0  0  0  0  0  0
    8.4230    5.1200   23.0320 O   0  0  0  0  0  0  0  0  0  0  0  0
    6.5360   -0.4610   21.7770 C   0  0  1  0  0  0  0  0  0  0  0  0
    7.5980    0.6140   22.0630 C   0  0  0  0  0  0  0  0  0  0  0  0
    8.0710    2.6950   23.3070 C   0  0  0  0  0  0  0  0  0  0  0  0
    7.8000    3.9710   22.4390 C   0  0  0  0  0  0  0  0  0  0  0  0
    8.2970    6.2500   22.2760 C   0  0  0  0  0  0  0  0  0  0  0  0
   12.3350   -1.7630   24.2430 C   0  0  0  0  0  0  0  0  0  0  0  0
   13.4510   -2.3080   23.6230 C   0  0  0  0  0  0  0  0  0  0  0  0
   12.9400   -2.9520   25.0450 C   0  0  0  0  0  0  0  0  0  0  0  0
   12.5790   -0.4300   24.9240 C   0  0  0  0  0  0  0  0  0  0  0  0
    6.8660   -3.4630   26.3130 N   0  0  0  0  0  0  0  0  0  0  0  0
    8.8860   -4.5270   27.1200 C   0  0  0  0  0  0  0  0  0  0  0  0
    4.5480   -3.5910   25.9370 O   0  0  0  0  0  0  0  0  0  0  0  0
    7.5440   -4.6620   26.6920 C   0  0  0  0  0  0  0  0  0  0  0  0
    6.8190   -5.5150   27.5520 C   0  0  0  0  0  0  0  0  0  0  0  0
    6.9180   -2.4420   27.3180 C   0  0  0  0  0  0  0  0  0  0  0  0
    5.6650   -3.5060   25.4490 C   0  0  0  0  0  0  0  0  0  0  0  0
    6.4130    0.1730   18.0580 N   0  0  0  0  0  0  0  0  0  0  0  0
    5.2080    1.0200   17.9250 C   0  0  0  0  0  0  0  0  0  0  0  0
    4.4540    1.3410   19.0730 C   0  0  0  0  0  0  0  0  0  0  0  0
    4.8760    0.8530   20.3180 C   0  0  0  0  0  0  0  0  0  0  0  0
    6.0230    0.0590   20.4420 C   0  0  0  0  0  0  0  0  0  0  0  0
    6.7560   -0.2590   19.2910 C   0  0  0  0  0  0  0  0  0  0  0  0
    9.6710   -2.4950   21.6180 C   0  0  0  0  0  0  0  0  0  0  0  0
   10.9130   -2.3910   22.2680 C   0  0  0  0  0  0  0  0  0  0  0  0
   11.0000   -1.8820   23.5630 C   0  0  0  0  0  0  0  0  0  0  0  0
    9.8570   -1.4760   24.2110 C   0  0  0  0  0  0  0  0  0  0  0  0
    8.6530   -1.5750   23.5560 C   0  0  0  0  0  0  0  0  0  0  0  0
    8.5350   -2.0800   22.2580 C   0  0  0  0  0  0  0  0  0  0  0  0
    6.6930   -4.4630   21.7620 C   0  0  2  0  0  0  0  0  0  0  0  0
    7.7000   -3.8890   22.7950 C   0  0  0  0  0  0  0  0  0  0  0  0
    6.9060   -2.8100   23.3840 C   0  0  2  0  0  0  0  0  0  0  0  0
    5.7500   -3.4320   23.9170 C   0  0  1  0  0  0  0  0  0  0  0  0
    5.8480   -4.8130   23.7510 C   0  0  0  0  0  0  0  0  0  0  0  0
    5.6090   -5.2160   22.4690 C   0  0  0  0  0  0  0  0  0  0  0  0
  1  6  1  0
  3  6  2  0
  1  8  1  0
  4  9  1  0
  5  9  2  0
  8  9  1  6
  4 10  1  0
  7 11  1  0
 10 11  1  0
  7 12  1  0
 13 14  1  0
 13 15  1  0
 13 16  1  0
 17 20  1  0
 18 20  1  0
 20 21  1  0
 17 22  1  0
 17 23  1  0
 19 23  2  0
 24 25  2  0
 25 26  1  0
 26 27  2  0
  8 28  1  0
 27 28  1  0
 24 29  1  0
 28 29  2  0
 30 31  2  0
 13 32  1  0
 31 32  1  0
 32 33  2  0
 33 34  1  0
  1 35  1  6
 30 35  1  0
 34 35  2  0
 36  2  1  6
  6 36  1  0
 36 37  1  0
  1 38  1  0
 38 37  1  6
 39 23  1  1
 38 39  1  0
 39 40  1  0
 36 41  1  0
 40 41  1  0
M  END
