x3110-x1380-x0426
     RDKit          3D

 57 62  0  0  0  0  0  0  0  0999 V2000
    8.0720    1.0730   23.3410 N   0  0  0  0  0  0  0  0  0  0  0  0
   13.4970    5.1270   22.5540 C   0  0  0  0  0  0  0  0  0  0  0  0
   12.0360    3.2540   22.4910 O   0  0  0  0  0  0  0  0  0  0  0  0
   12.3200    4.3570   22.0270 C   0  0  0  0  0  0  0  0  0  0  0  0
    6.9230   -1.6950   22.0100 C   0  0  1  0  0  0  0  0  0  0  0  0
   10.8110    4.2180   24.1440 O   0  0  0  0  0  0  0  0  0  0  0  0
   11.0380    3.2540   23.4270 C   0  0  0  0  0  0  0  0  0  0  0  0
    8.2740    1.2850   20.8650 O   0  0  0  0  0  0  0  0  0  0  0  0
   10.2620    2.0830   23.5340 C   0  0  0  0  0  0  0  0  0  0  0  0
    5.0590   -3.2460   20.7240 O   0  0  0  0  0  0  0  0  0  0  0  0
    8.8740    2.2820   23.4210 C   0  0  0  0  0  0  0  0  0  0  0  0
    7.6540    0.6670   22.0060 C   0  0  0  0  0  0  0  0  0  0  0  0
    6.6190   -0.2990   21.7610 C   0  0  1  0  0  0  0  0  0  0  0  0
    6.1660   -2.9540   21.3470 C   0  0  0  0  0  0  0  0  0  0  0  0
    8.3390   -4.6480   21.0580 C   0  0  0  0  0  0  0  0  0  0  0  0
   12.4750   -1.8180   24.1650 C   0  0  0  0  0  0  0  0  0  0  0  0
   12.6050   -0.5160   24.9290 C   0  0  0  0  0  0  0  0  0  0  0  0
   13.4380   -1.7910   23.0000 C   0  0  0  0  0  0  0  0  0  0  0  0
   12.8700   -2.9460   25.1350 C   0  0  0  0  0  0  0  0  0  0  0  0
    2.3820    1.8260   23.6600 C   0  0  0  0  0  0  0  0  0  0  0  0
    2.2070    0.6150   23.7330 O   0  0  0  0  0  0  0  0  0  0  0  0
    3.3930    2.5330   23.0480 N   0  0  0  0  0  0  0  0  0  0  0  0
    4.5630    1.9870   22.3220 C   0  0  0  0  0  0  0  0  0  0  0  0
    4.1620    1.0340   21.3800 C   0  0  0  0  0  0  0  0  0  0  0  0
    2.7500    4.3290   25.1950 F   0  0  0  0  0  0  0  0  0  0  0  0
    4.2910   -3.0010   25.6850 O   0  0  0  0  0  0  0  0  0  0  0  0
    5.4560   -3.3190   25.5220 C   0  0  0  0  0  0  0  0  0  0  0  0
    6.4740    0.3470   17.9310 N   0  0  0  0  0  0  0  0  0  0  0  0
    5.3050    1.0010   17.8910 C   0  0  0  0  0  0  0  0  0  0  0  0
    4.4640    1.2840   18.9400 C   0  0  0  0  0  0  0  0  0  0  0  0
    4.8890    0.8400   20.2030 C   0  0  0  0  0  0  0  0  0  0  0  0
    6.1220    0.1480   20.3720 C   0  0  0  0  0  0  0  0  0  0  0  0
    6.9250   -0.1180   19.2500 C   0  0  0  0  0  0  0  0  0  0  0  0
    9.5590   -1.4550   21.7720 C   0  0  0  0  0  0  0  0  0  0  0  0
   10.8600   -1.5050   22.3350 C   0  0  0  0  0  0  0  0  0  0  0  0
   11.0440   -1.8300   23.6980 C   0  0  0  0  0  0  0  0  0  0  0  0
    9.8630   -2.1310   24.5530 C   0  0  0  0  0  0  0  0  0  0  0  0
    8.6230   -2.0840   24.0080 C   0  0  0  0  0  0  0  0  0  0  0  0
    8.3970   -1.7270   22.5120 C   0  0  0  0  0  0  0  0  0  0  0  0
    1.5100    3.8170   25.1970 C   0  0  0  0  0  0  0  0  0  0  0  0
    1.1920    2.5220   24.4380 C   0  0  0  0  0  0  0  0  0  0  0  0
   -0.2540    2.0540   24.5250 C   0  0  0  0  0  0  0  0  0  0  0  0
   -1.2730    2.8670   25.3290 C   0  0  0  0  0  0  0  0  0  0  0  0
   -0.7950    4.0310   25.9570 C   0  0  0  0  0  0  0  0  0  0  0  0
    0.5180    4.4930   25.9040 C   0  0  0  0  0  0  0  0  0  0  0  0
    7.1510   -4.0390   21.7980 C   0  0  2  0  0  0  0  0  0  0  0  0
    6.2200   -5.1570   22.3060 C   0  0  0  0  0  0  0  0  0  0  0  0
    5.3210   -4.6180   23.2400 C   0  0  0  0  0  0  0  0  0  0  0  0
    6.0020   -3.5810   24.1240 C   0  0  1  0  0  0  0  0  0  0  0  0
    6.7760   -2.4250   23.4540 C   0  0  1  0  0  0  0  0  0  0  0  0
    7.8560   -3.3490   22.9710 C   0  0  0  0  0  0  0  0  0  0  0  0
    7.7060   -4.1030   26.5780 C   0  0  0  0  0  0  0  0  0  0  0  0
    7.8320   -5.4420   27.3140 C   0  0  0  0  0  0  0  0  0  0  0  0
    7.1890   -5.3540   28.6760 C   0  0  0  0  0  0  0  0  0  0  0  0
    5.7870   -4.7620   28.6010 C   0  0  0  0  0  0  0  0  0  0  0  0
    5.8160   -3.3710   27.9970 C   0  0  0  0  0  0  0  0  0  0  0  0
    6.3810   -3.4570   26.6580 N   0  0  0  0  0  0  0  0  0  0  0  0
  2  4  1  0
  3  4  1  0
  3  7  1  0
  6  7  2  0
  7  9  1  0
  1 11  1  0
  9 11  1  0
  1 12  1  0
  8 12  2  0
  5 13  1  0
 13 12  1  6
  5 14  1  0
 10 14  2  0
 16 17  1  0
 16 18  1  0
 16 19  1  0
 20 21  2  0
 20 22  1  0
 22 23  1  0
 23 24  1  0
 26 27  2  0
 28 29  2  0
 29 30  1  0
 24 31  1  0
 30 31  2  0
 13 32  1  0
 31 32  1  0
 28 33  1  0
 32 33  2  0
 34 35  2  0
 16 36  1  0
 35 36  1  0
 36 37  2  0
 37 38  1  0
  5 39  1  6
 34 39  1  0
 38 39  2  0
 25 40  1  0
 20 41  1  0
 40 41  2  0
 41 42  1  0
 42 43  2  0
 43 44  1  0
 40 45  1  0
 44 45  2  0
 14 46  1  0
 46 15  1  6
 46 47  1  0
 47 48  1  0
 49 27  1  6
 48 49  1  0
  5 50  1  0
 49 50  1  0
 46 51  1  0
 50 51  1  6
 52 53  1  0
 53 54  1  0
 54 55  1  0
 55 56  1  0
 27 57  1  0
 52 57  1  0
 56 57  1  0
M  END
