x3115-x2764
     RDKit          3D

 30 31  0  0  0  0  0  0  0  0999 V2000
    6.6940   -1.6990   21.7650 N   0  0  0  0  0  0  0  0  0  0  0  0
    6.5590   -4.8370   20.2980 C   0  0  0  0  0  0  0  0  0  0  0  0
    4.7170   -2.9840   21.3630 O   0  0  0  0  0  0  0  0  0  0  0  0
    6.6950   -4.1820   21.6550 C   0  0  0  0  0  0  0  0  0  0  0  0
    7.0420    1.7580   22.8640 N   0  0  0  0  0  0  0  0  0  0  0  0
    8.5860    0.6310   21.5580 O   0  0  0  0  0  0  0  0  0  0  0  0
    5.9360   -2.8930   21.5840 C   0  0  0  0  0  0  0  0  0  0  0  0
    8.5010    5.2030   22.9450 O   0  0  0  0  0  0  0  0  0  0  0  0
    6.3260   -0.2360   21.6440 C   0  0  1  0  0  0  0  0  0  0  0  0
    7.4480    0.7430   22.0170 C   0  0  0  0  0  0  0  0  0  0  0  0
    7.9260    2.8230   23.1790 C   0  0  0  0  0  0  0  0  0  0  0  0
    7.7820    4.1220   22.3360 C   0  0  0  0  0  0  0  0  0  0  0  0
    8.3690    6.3780   22.2630 C   0  0  0  0  0  0  0  0  0  0  0  0
   12.3940   -1.7990   24.5290 C   0  0  0  0  0  0  0  0  0  0  0  0
   13.4920   -2.2560   23.8240 C   0  0  0  0  0  0  0  0  0  0  0  0
   13.0300   -3.0630   25.1170 C   0  0  0  0  0  0  0  0  0  0  0  0
   12.6500   -0.5540   25.2780 C   0  0  0  0  0  0  0  0  0  0  0  0
    7.9950   -1.8720   21.3600 N   0  0  0  0  0  0  0  0  0  0  0  0
    6.3380    0.4820   17.8710 N   0  0  0  0  0  0  0  0  0  0  0  0
    5.1700    1.3870   17.7300 C   0  0  0  0  0  0  0  0  0  0  0  0
    4.4190    1.6960   18.8650 C   0  0  0  0  0  0  0  0  0  0  0  0
    4.7730    1.1750   20.1030 C   0  0  0  0  0  0  0  0  0  0  0  0
    5.8730    0.3390   20.2410 C   0  0  0  0  0  0  0  0  0  0  0  0
    6.6930   -0.0600   19.2050 C   0  0  0  0  0  0  0  0  0  0  0  0
   10.0950   -2.3520   21.7690 C   0  0  0  0  0  0  0  0  0  0  0  0
   11.2290   -2.3560   22.5210 C   0  0  0  0  0  0  0  0  0  0  0  0
   11.1420   -1.8160   23.7640 C   0  0  0  0  0  0  0  0  0  0  0  0
    9.9720   -1.2790   24.3040 C   0  0  0  0  0  0  0  0  0  0  0  0
    8.8460   -1.2850   23.5090 C   0  0  0  0  0  0  0  0  0  0  0  0
    8.9450   -1.8210   22.2350 C   0  0  0  0  0  0  0  0  0  0  0  0
  2  4  1  0
  1  7  1  0
  3  7  2  0
  4  7  1  0
  1  9  1  0
  5 10  1  0
  6 10  2  0
  9 10  1  6
  5 11  1  0
  8 12  1  0
 11 12  1  0
  8 13  1  0
 14 15  1  0
 14 16  1  0
 14 17  1  0
  1 18  1  0
 19 20  2  0
 20 21  1  0
 21 22  2  0
  9 23  1  0
 22 23  1  0
 19 24  1  0
 23 24  2  0
 25 26  2  0
 14 27  1  0
 26 27  1  0
 27 28  2  0
 28 29  1  0
 18 30  1  0
 25 30  1  0
 29 30  2  0
M  END
