x3115-x0786
     RDKit          3D

 43 46  0  0  0  0  0  0  0  0999 V2000
    6.8950   -1.7710   21.5710 N   0  0  0  0  0  0  0  0  0  0  0  0
    7.7010   -4.5700   21.0510 C   0  0  0  0  0  0  0  0  0  0  0  0
    4.7780   -2.8850   20.8870 O   0  0  0  0  0  0  0  0  0  0  0  0
    6.3130   -4.2990   21.5300 C   0  0  2  0  0  0  0  0  0  0  0  0
    7.1820    1.6610   22.8420 N   0  0  0  0  0  0  0  0  0  0  0  0
    8.7660    0.5990   21.5380 O   0  0  0  0  0  0  0  0  0  0  0  0
    5.9700   -2.8990   21.3020 C   0  0  0  0  0  0  0  0  0  0  0  0
    8.4810    5.1720   22.9010 O   0  0  0  0  0  0  0  0  0  0  0  0
    6.5110   -0.2860   21.5450 C   0  0  1  0  0  0  0  0  0  0  0  0
    7.6210    0.6780   21.9740 C   0  0  0  0  0  0  0  0  0  0  0  0
    8.0070    2.7810   23.1250 C   0  0  0  0  0  0  0  0  0  0  0  0
    7.7540    4.0840   22.3120 C   0  0  0  0  0  0  0  0  0  0  0  0
    8.3220    6.3500   22.2320 C   0  0  0  0  0  0  0  0  0  0  0  0
   12.0960   -1.8390   24.4030 C   0  0  0  0  0  0  0  0  0  0  0  0
   12.8310   -2.9070   24.9000 C   0  0  0  0  0  0  0  0  0  0  0  0
   13.2630   -2.4340   23.5970 C   0  0  0  0  0  0  0  0  0  0  0  0
   12.5320   -0.4420   24.8440 C   0  0  0  0  0  0  0  0  0  0  0  0
    3.7150   -8.1010   24.9010 O   0  0  0  0  0  0  0  0  0  0  0  0
    3.3110   -7.0860   24.3540 C   0  0  0  0  0  0  0  0  0  0  0  0
    6.3380    0.4660   17.7530 N   0  0  0  0  0  0  0  0  0  0  0  0
    5.2050    1.2260   17.7520 C   0  0  0  0  0  0  0  0  0  0  0  0
    4.4500    1.5110   18.8790 C   0  0  0  0  0  0  0  0  0  0  0  0
    4.8230    1.0310   20.1290 C   0  0  0  0  0  0  0  0  0  0  0  0
    5.9590    0.2620   20.2590 C   0  0  0  0  0  0  0  0  0  0  0  0
    6.6930   -0.0180   19.1020 C   0  0  0  0  0  0  0  0  0  0  0  0
    9.3710   -1.5220   21.7560 C   0  0  0  0  0  0  0  0  0  0  0  0
   10.6030   -1.5320   22.3950 C   0  0  0  0  0  0  0  0  0  0  0  0
   10.7110   -1.8920   23.7270 C   0  0  0  0  0  0  0  0  0  0  0  0
    9.5270   -2.2600   24.3770 C   0  0  0  0  0  0  0  0  0  0  0  0
    8.2560   -2.2560   23.7260 C   0  0  0  0  0  0  0  0  0  0  0  0
    8.1620   -1.8640   22.3560 C   0  0  0  0  0  0  0  0  0  0  0  0
    5.7330   -4.5890   22.8940 C   0  0  0  0  0  0  0  0  0  0  0  0
    4.8620   -5.6510   23.0320 C   0  0  0  0  0  0  0  0  0  0  0  0
    4.2760   -5.9170   24.2610 C   0  0  0  0  0  0  0  0  0  0  0  0
    4.5730   -5.1120   25.3700 C   0  0  0  0  0  0  0  0  0  0  0  0
    5.4610   -4.0400   25.2310 C   0  0  0  0  0  0  0  0  0  0  0  0
    6.0390   -3.7810   23.9860 C   0  0  0  0  0  0  0  0  0  0  0  0
    1.5830   -5.5970   23.5080 C   0  0  0  0  0  0  0  0  0  0  0  0
    0.7180   -5.0620   24.4930 C   0  0  0  0  0  0  0  0  0  0  0  0
   -0.7210   -6.0670   24.2200 S   0  0  0  0  0  0  0  0  0  0  0  0
   -0.0640   -7.5260   24.7190 C   0  0  0  0  0  0  0  0  0  0  0  0
    0.9970   -7.9880   23.9310 C   0  0  0  0  0  0  0  0  0  0  0  0
    2.0540   -6.9480   23.8250 N   0  0  0  0  0  0  0  0  0  0  0  0
  4  2  1  1
  1  7  1  0
  3  7  2  0
  4  7  1  0
  1  9  1  0
  5 10  1  0
  6 10  2  0
  9 10  1  6
  5 11  1  0
  8 12  1  0
 11 12  1  0
  8 13  1  0
 14 15  1  0
 14 16  1  0
 14 17  1  0
 18 19  2  0
 20 21  2  0
 21 22  1  0
 22 23  2  0
  9 24  1  0
 23 24  1  0
 20 25  1  0
 24 25  2  0
 26 27  2  0
 14 28  1  0
 27 28  1  0
 28 29  2  0
 29 30  1  0
  1 31  1  0
 26 31  1  0
 30 31  2  0
  4 32  1  0
 32 33  2  0
 19 34  1  0
 33 34  1  0
 34 35  2  0
 35 36  1  0
 32 37  1  0
 36 37  2  0
 38 39  1  0
 39 40  1  0
 40 41  1  0
 41 42  1  0
 19 43  1  0
 38 43  1  0
 42 43  1  0
M  END
