x3113-x3117
     RDKit          3D

 35 38  0  0  0  0  0  0  0  0999 V2000
    6.8610   -1.6040   22.1830 N   0  0  0  0  0  0  0  0  0  0  0  0
    6.8090   -4.6970   20.3610 C   0  0  0  0  0  0  0  0  0  0  0  0
    4.8220   -3.0460   21.3360 O   0  0  0  0  0  0  0  0  0  0  0  0
    6.9410   -4.0410   21.7320 C   0  0  0  0  0  0  0  0  0  0  0  0
    8.1110    1.4780   23.3270 N   0  0  0  0  0  0  0  0  0  0  0  0
    8.7380    0.6010   21.3280 O   0  0  0  0  0  0  0  0  0  0  0  0
    6.0800   -2.8100   21.7250 C   0  0  0  0  0  0  0  0  0  0  0  0
   11.2590    3.4380   23.7340 N   0  0  0  0  0  0  0  0  0  0  0  0
    6.6430   -0.0900   21.9390 C   0  0  1  0  0  0  0  0  0  0  0  0
    7.8680    0.6550   22.1850 C   0  0  0  0  0  0  0  0  0  0  0  0
   10.4410    1.5510   22.9970 C   0  0  0  0  0  0  0  0  0  0  0  0
   11.6400    2.2310   23.2580 C   0  0  0  0  0  0  0  0  0  0  0  0
   11.7970    4.6350   23.2010 C   0  0  0  0  0  0  0  0  0  0  0  0
   12.5180   -1.9500   24.1190 C   0  0  0  0  0  0  0  0  0  0  0  0
   13.4260   -2.0270   23.0800 C   0  0  0  0  0  0  0  0  0  0  0  0
   12.8530   -3.0670   25.0930 C   0  0  0  0  0  0  0  0  0  0  0  0
   12.7080   -0.6400   24.8720 C   0  0  0  0  0  0  0  0  0  0  0  0
    6.4760    0.2190   17.9840 N   0  0  0  0  0  0  0  0  0  0  0  0
    5.2930    1.0680   17.9000 C   0  0  0  0  0  0  0  0  0  0  0  0
    4.6550    1.4480   19.0770 C   0  0  0  0  0  0  0  0  0  0  0  0
    5.0540    1.0890   20.3590 C   0  0  0  0  0  0  0  0  0  0  0  0
    6.1770    0.2870   20.5350 C   0  0  0  0  0  0  0  0  0  0  0  0
    6.8640   -0.1290   19.2300 C   0  0  0  0  0  0  0  0  0  0  0  0
    9.3680   -2.0240   21.7260 C   0  0  0  0  0  0  0  0  0  0  0  0
   10.7750   -2.1030   22.2430 C   0  0  0  0  0  0  0  0  0  0  0  0
   11.1290   -1.9200   23.5560 C   0  0  0  0  0  0  0  0  0  0  0  0
   10.0920   -1.6610   24.4360 C   0  0  0  0  0  0  0  0  0  0  0  0
    8.5970   -1.5630   23.9910 C   0  0  0  0  0  0  0  0  0  0  0  0
    8.2230   -1.7300   22.6560 C   0  0  0  0  0  0  0  0  0  0  0  0
    9.3320    4.6770   24.2650 O   0  0  0  0  0  0  0  0  0  0  0  0
    9.8370    3.3360   24.0320 C   0  0  1  0  0  0  0  0  0  0  0  0
    9.2420    2.4490   23.1480 C   0  0  2  0  0  0  0  0  0  0  0  0
    8.7590    3.1590   21.9230 C   0  0  0  0  0  0  0  0  0  0  0  0
    8.0910    4.4690   22.3280 C   0  0  0  0  0  0  0  0  0  0  0  0
    9.0100    5.2850   23.2340 C   0  0  0  0  0  0  0  0  0  0  0  0
  2  4  1  0
  1  7  1  0
  3  7  2  0
  4  7  1  0
  1  9  1  0
  5 10  1  0
  6 10  2  0
  9 10  1  6
  8 12  1  0
 11 12  1  0
  8 13  1  0
 14 15  1  0
 14 16  1  0
 14 17  1  0
 18 19  2  0
 19 20  1  0
 20 21  2  0
  9 22  1  0
 21 22  1  0
 18 23  1  0
 22 23  2  0
 24 25  2  0
 14 26  1  0
 25 26  1  0
 26 27  2  0
 27 28  1  0
  1 29  1  0
 24 29  1  0
 28 29  2  0
  8 31  1  0
 31 30  1  6
 32  5  1  1
 11 32  1  0
 31 32  1  0
 32 33  1  0
 33 34  1  0
 30 35  1  0
 34 35  1  0
M  END
