x3113-x2754
     RDKit          3D

 45 49  0  0  0  0  0  0  0  0999 V2000
    6.8970   -1.7380   22.1370 C   0  0  2  0  0  0  0  0  0  0  0  0
    8.1250   -4.6180   21.0220 C   0  0  0  0  0  0  0  0  0  0  0  0
    5.0070   -3.1640   20.5950 O   0  0  0  0  0  0  0  0  0  0  0  0
    8.2440    1.2350   23.0890 N   0  0  0  0  0  0  0  0  0  0  0  0
    8.6750    0.8180   21.0410 O   0  0  0  0  0  0  0  0  0  0  0  0
    6.0460   -2.9250   21.3220 C   0  0  0  0  0  0  0  0  0  0  0  0
   11.6030    4.0130   23.3490 O   0  0  0  0  0  0  0  0  0  0  0  0
    6.8010   -0.2130   21.7820 C   0  0  1  0  0  0  0  0  0  0  0  0
    7.9500    0.6250   21.9910 C   0  0  0  0  0  0  0  0  0  0  0  0
    9.2380    2.2830   23.1170 C   0  0  0  0  0  0  0  0  0  0  0  0
   10.4750    2.0360   23.7370 C   0  0  0  0  0  0  0  0  0  0  0  0
   11.6170    2.6070   23.1460 C   0  0  0  0  0  0  0  0  0  0  0  0
   12.8270    4.5880   22.8800 C   0  0  0  0  0  0  0  0  0  0  0  0
   12.5190   -1.9980   24.2960 C   0  0  0  0  0  0  0  0  0  0  0  0
   13.4490   -2.1060   23.2690 C   0  0  0  0  0  0  0  0  0  0  0  0
   12.8660   -3.0910   25.3220 C   0  0  0  0  0  0  0  0  0  0  0  0
   12.6810   -0.6330   24.9500 C   0  0  0  0  0  0  0  0  0  0  0  0
    4.8670   -3.1000   25.4670 C   0  0  0  0  0  0  0  0  0  0  0  0
    3.6680   -2.9170   25.2450 O   0  0  0  0  0  0  0  0  0  0  0  0
    5.4770   -2.9800   26.7240 N   0  0  0  0  0  0  0  0  0  0  0  0
    5.0500   -2.0360   27.7530 C   0  0  0  0  0  0  0  0  0  0  0  0
    6.5700    0.2760   18.0180 N   0  0  0  0  0  0  0  0  0  0  0  0
    5.3380    1.0680   17.8610 C   0  0  0  0  0  0  0  0  0  0  0  0
    4.4960    1.4630   19.0690 C   0  0  0  0  0  0  0  0  0  0  0  0
    4.8900    1.0840   20.3470 C   0  0  0  0  0  0  0  0  0  0  0  0
    6.1760    0.2740   20.4860 C   0  0  0  0  0  0  0  0  0  0  0  0
    6.8530   -0.0330   19.3130 C   0  0  0  0  0  0  0  0  0  0  0  0
    9.4830   -2.2030   21.7820 C   0  0  0  0  0  0  0  0  0  0  0  0
   10.9110   -2.2670   22.3360 C   0  0  0  0  0  0  0  0  0  0  0  0
   11.1490   -1.9880   23.6780 C   0  0  0  0  0  0  0  0  0  0  0  0
   10.0530   -1.6580   24.4930 C   0  0  0  0  0  0  0  0  0  0  0  0
    8.7740   -1.6020   23.9840 C   0  0  0  0  0  0  0  0  0  0  0  0
    8.3950   -1.8780   22.5420 C   0  0  0  0  0  0  0  0  0  0  0  0
    6.8910   -4.0860   21.8130 C   0  0  2  0  0  0  0  0  0  0  0  0
    7.1930   -3.2620   22.9900 C   0  0  0  0  0  0  0  0  0  0  0  0
    6.0370   -2.3060   23.3590 C   0  0  2  0  0  0  0  0  0  0  0  0
    5.7800   -3.5120   24.2870 C   0  0  2  0  0  0  0  0  0  0  0  0
    5.1610   -4.7460   23.5780 C   0  0  0  0  0  0  0  0  0  0  0  0
    6.0580   -5.2120   22.4150 C   0  0  0  0  0  0  0  0  0  0  0  0
    7.0250   -4.7660   27.7230 C   0  0  0  0  0  0  0  0  0  0  0  0
    8.4040   -5.3570   27.8680 C   0  0  0  0  0  0  0  0  0  0  0  0
    9.5660   -4.6940   27.1440 C   0  0  0  0  0  0  0  0  0  0  0  0
    9.2250   -3.4650   26.3160 C   0  0  0  0  0  0  0  0  0  0  0  0
    7.9120   -3.0110   26.2590 C   0  0  0  0  0  0  0  0  0  0  0  0
    6.7900   -3.5480   26.8820 C   0  0  0  0  0  0  0  0  0  0  0  0
  1  6  1  0
  3  6  2  0
  1  8  1  0
  4  9  1  0
  5  9  2  0
  8  9  1  6
  4 10  1  0
 10 11  1  0
  7 12  1  0
 11 12  1  0
  7 13  1  0
 14 15  1  0
 14 16  1  0
 14 17  1  0
 18 19  2  0
 18 20  1  0
 20 21  1  0
 22 23  2  0
 23 24  1  0
 24 25  2  0
  8 26  1  0
 25 26  1  0
 22 27  1  0
 26 27  2  0
 28 29  2  0
 14 30  1  0
 29 30  1  0
 30 31  2  0
 31 32  1  0
  1 33  1  1
 28 33  1  0
 32 33  2  0
 34  2  1  6
  6 34  1  0
 34 35  1  0
  1 36  1  0
 36 35  1  1
 37 18  1  1
 36 37  1  0
 37 38  1  0
 34 39  1  0
 38 39  1  0
 40 41  2  0
 41 42  1  0
 42 43  2  0
 43 44  1  0
 20 45  1  0
 40 45  1  0
 44 45  2  0
M  END
