x3117-x3110-x0771-x0731
     RDKit          3D

 58 66  0  0  0  0  0  0  0  0999 V2000
    8.0680    2.1800   22.3880 N   0  0  0  0  0  0  0  0  0  0  0  0
   13.3930    5.1050   22.8270 C   0  0  0  0  0  0  0  0  0  0  0  0
   12.1400    3.2450   23.0510 O   0  0  0  0  0  0  0  0  0  0  0  0
   12.3500    4.2200   22.2880 C   0  0  0  0  0  0  0  0  0  0  0  0
    6.6640   -1.3150   22.2500 C   0  0  2  0  0  0  0  0  0  0  0  0
   10.9440    3.0390   23.2180 C   0  0  0  0  0  0  0  0  0  0  0  0
    9.2220    0.2720   21.3970 O   0  0  0  0  0  0  0  0  0  0  0  0
   10.2370    1.7930   23.5350 C   0  0  0  0  0  0  0  0  0  0  0  0
    4.8080   -2.9720   21.2290 O   0  0  0  0  0  0  0  0  0  0  0  0
    8.0500    0.8660   21.8310 C   0  0  0  0  0  0  0  0  0  0  0  0
    6.6850    0.0800   21.6690 C   0  0  1  0  0  0  0  0  0  0  0  0
    6.0750   -2.6470   21.5850 C   0  0  0  0  0  0  0  0  0  0  0  0
    7.1180   -3.6920   21.4480 C   0  0  2  0  0  0  0  0  0  0  0  0
    6.8580   -4.3000   20.1220 C   0  0  0  0  0  0  0  0  0  0  0  0
   12.3020   -1.7420   24.0440 C   0  0  0  0  0  0  0  0  0  0  0  0
   12.5750   -0.5680   24.9700 C   0  0  0  0  0  0  0  0  0  0  0  0
   13.3050   -1.8230   22.9190 C   0  0  0  0  0  0  0  0  0  0  0  0
   12.5940   -2.9830   24.8710 C   0  0  0  0  0  0  0  0  0  0  0  0
    0.4610   -1.3480   26.3590 C   0  0  0  0  0  0  0  0  0  0  0  0
    3.8570   -6.8540   25.2050 O   0  0  0  0  0  0  0  0  0  0  0  0
    5.1360   -5.5180   26.8490 O   0  0  0  0  0  0  0  0  0  0  0  0
    1.5200   -5.9760   24.8400 C   0  0  0  0  0  0  0  0  0  0  0  0
    4.4910   -5.6040   25.5570 S   0  0  0  0  0  0  0  0  0  0  0  0
    5.8980   -1.3290   23.4920 C   0  0  0  0  0  0  0  0  0  0  0  0
    8.2690   -5.3960   25.3010 O   0  0  0  0  0  0  0  0  0  0  0  0
    6.4160   -6.4710   26.9110 O   0  0  0  0  0  0  0  0  0  0  0  0
    6.9260   -5.4030   25.7530 S   0  0  0  0  0  0  0  0  0  0  0  0
    6.3490    0.3300   17.8560 N   0  0  0  0  0  0  0  0  0  0  0  0
    5.3170    1.1100   17.8130 C   0  0  0  0  0  0  0  0  0  0  0  0
    4.6570    1.5880   18.9820 C   0  0  0  0  0  0  0  0  0  0  0  0
    5.0630    1.2700   20.2510 C   0  0  0  0  0  0  0  0  0  0  0  0
    6.1840    0.4350   20.2870 C   0  0  0  0  0  0  0  0  0  0  0  0
    6.8130   -0.0310   19.1180 C   0  0  0  0  0  0  0  0  0  0  0  0
    9.2770   -1.9720   21.7390 C   0  0  0  0  0  0  0  0  0  0  0  0
   10.6090   -2.0540   22.2140 C   0  0  0  0  0  0  0  0  0  0  0  0
   10.9100   -1.7010   23.5210 C   0  0  0  0  0  0  0  0  0  0  0  0
    9.9090   -1.2770   24.3720 C   0  0  0  0  0  0  0  0  0  0  0  0
    8.6420   -1.2150   23.8780 C   0  0  0  0  0  0  0  0  0  0  0  0
    8.2660   -1.5300   22.6090 C   0  0  0  0  0  0  0  0  0  0  0  0
    9.6380    4.9320   23.1260 O   0  0  0  0  0  0  0  0  0  0  0  0
    9.8990    3.6880   23.2410 C   0  0  0  0  0  0  0  0  0  0  0  0
    8.9730    2.6520   23.4400 C   0  0  1  0  0  0  0  0  0  0  0  0
    8.1680    3.0160   24.3980 C   0  0  0  0  0  0  0  0  0  0  0  0
    7.6700    4.3310   24.2630 C   0  0  0  0  0  0  0  0  0  0  0  0
    8.2320    5.1450   23.2660 C   0  0  0  0  0  0  0  0  0  0  0  0
    1.5320   -2.4490   26.1100 C   0  0  0  0  0  0  0  0  0  0  0  0
    1.0940   -3.6610   25.5930 C   0  0  0  0  0  0  0  0  0  0  0  0
    1.9730   -4.6540   25.3860 C   0  0  0  0  0  0  0  0  0  0  0  0
    3.2570   -4.3220   25.7320 C   0  0  0  0  0  0  0  0  0  0  0  0
    3.7860   -3.1520   26.2320 C   0  0  0  0  0  0  0  0  0  0  0  0
    2.8600   -2.1330   26.4390 C   0  0  0  0  0  0  0  0  0  0  0  0
    5.7520   -5.2860   22.2830 C   0  0  2  0  0  0  0  0  0  0  0  0
    6.4220   -6.3240   22.3750 C   0  0  2  0  0  0  0  0  0  0  0  0
    5.7780   -6.4070   23.4970 C   0  0  1  0  0  0  0  0  0  0  0  0
    5.7590   -5.3650   24.4830 C   0  0  1  0  0  0  0  0  0  0  0  0
    5.9750   -4.3170   23.6650 C   0  0  1  0  0  0  0  0  0  0  0  0
    6.7510   -4.7020   22.5450 C   0  0  1  0  0  0  0  0  0  0  0  0
    1.1040    0.0170   26.2880 C   0  0  0  0  0  0  0  0  0  0  0  0
  2  4  1  0
  3  4  1  0
  3  6  1  0
  6  8  1  0
  1 10  1  0
  7 10  2  0
  5 11  1  0
 11 10  1  6
  5 12  1  0
  9 12  2  0
 12 13  1  0
 13 14  1  6
 15 16  1  0
 15 17  1  0
 15 18  1  0
 20 23  2  0
 21 23  2  0
  5 24  1  1
 25 27  2  0
 26 27  2  0
 28 29  2  0
 29 30  1  0
 30 31  2  0
 11 32  1  0
 31 32  1  0
 28 33  1  0
 32 33  2  0
 34 35  2  0
 15 36  1  0
 35 36  1  0
 36 37  2  0
 37 38  1  0
  5 39  1  0
 34 39  1  0
 38 39  2  0
  6 41  2  0
 40 41  1  0
 42  1  1  6
  8 42  1  0
 41 42  1  0
 42 43  1  0
 43 44  1  0
 40 45  1  0
 44 45  1  0
 19 46  1  0
 46 47  2  0
 22 48  1  0
 47 48  1  0
 23 49  1  0
 48 49  2  0
 49 50  1  0
 46 51  1  0
 50 51  2  0
 52 53  1  1
 52 54  1  0
 53 54  1  1
 55 23  1  0
 55 27  1  1
 54 55  1  1
 52 56  1  0
 56 55  1  1
 57 13  1  6
 52 57  1  0
 53 57  1  0
 56 57  1  0
 19 58  1  0
M  END
