x3110-x0786-x1493
     RDKit          3D

 49 52  0  0  0  0  0  0  0  0999 V2000
    7.8840    1.0900   23.3230 N   0  0  0  0  0  0  0  0  0  0  0  0
   13.5150    5.1140   22.5350 C   0  0  0  0  0  0  0  0  0  0  0  0
   11.8980    3.1490   22.5960 O   0  0  0  0  0  0  0  0  0  0  0  0
   12.2850    4.3920   22.0120 C   0  0  0  0  0  0  0  0  0  0  0  0
    6.9200   -1.4960   21.7170 N   0  0  0  0  0  0  0  0  0  0  0  0
   10.9050    4.2710   24.1170 O   0  0  0  0  0  0  0  0  0  0  0  0
   11.0170    3.2660   23.4280 C   0  0  0  0  0  0  0  0  0  0  0  0
    8.5280    0.8520   21.1070 O   0  0  0  0  0  0  0  0  0  0  0  0
   10.0540    2.0600   23.5310 C   0  0  0  0  0  0  0  0  0  0  0  0
    4.8430   -2.9580   21.0020 O   0  0  0  0  0  0  0  0  0  0  0  0
    8.6830    2.3350   23.3340 C   0  0  0  0  0  0  0  0  0  0  0  0
    7.7160    0.5250   21.9750 C   0  0  0  0  0  0  0  0  0  0  0  0
    6.6010   -0.3410   21.6740 C   0  0  1  0  0  0  0  0  0  0  0  0
    6.0890   -2.7010   21.4200 C   0  0  0  0  0  0  0  0  0  0  0  0
    6.8390   -3.9300   21.7120 C   0  0  2  0  0  0  0  0  0  0  0  0
    6.8590   -4.8310   20.4870 C   0  0  0  0  0  0  0  0  0  0  0  0
   12.3310   -1.7760   24.2710 C   0  0  0  0  0  0  0  0  0  0  0  0
   12.5560   -0.6310   25.0010 C   0  0  0  0  0  0  0  0  0  0  0  0
   13.3120   -1.7570   23.0710 C   0  0  0  0  0  0  0  0  0  0  0  0
   12.6060   -2.9800   24.9000 C   0  0  0  0  0  0  0  0  0  0  0  0
    4.2780   -7.9510   24.6840 O   0  0  0  0  0  0  0  0  0  0  0  0
    3.7900   -6.8630   24.4120 C   0  0  0  0  0  0  0  0  0  0  0  0
    3.9920   -5.9850   26.0730 C   0  0  0  0  0  0  0  0  0  0  0  0
    5.7380   -5.9360   26.4860 O   0  0  0  0  0  0  0  0  0  0  0  0
    4.9030   -6.8380   26.6990 C   0  0  0  0  0  0  0  0  0  0  0  0
    6.3990    0.4070   17.8240 N   0  0  0  0  0  0  0  0  0  0  0  0
    5.2210    1.2900   17.7870 C   0  0  0  0  0  0  0  0  0  0  0  0
    4.4090    1.6780   18.9930 C   0  0  0  0  0  0  0  0  0  0  0  0
    4.9120    1.0890   20.2860 C   0  0  0  0  0  0  0  0  0  0  0  0
    6.1360    0.1830   20.3400 C   0  0  0  0  0  0  0  0  0  0  0  0
    6.8020   -0.0910   19.0030 C   0  0  0  0  0  0  0  0  0  0  0  0
    9.4070   -2.0410   21.6870 C   0  0  0  0  0  0  0  0  0  0  0  0
   10.6680   -2.1110   22.2640 C   0  0  0  0  0  0  0  0  0  0  0  0
   10.9120   -1.7220   23.6890 C   0  0  0  0  0  0  0  0  0  0  0  0
    9.7230   -1.2660   24.4880 C   0  0  0  0  0  0  0  0  0  0  0  0
    8.4040   -1.2400   23.7250 C   0  0  0  0  0  0  0  0  0  0  0  0
    8.2550   -1.6030   22.3690 C   0  0  0  0  0  0  0  0  0  0  0  0
    6.1230   -4.3600   22.9660 C   0  0  0  0  0  0  0  0  0  0  0  0
    5.2870   -5.3960   23.2190 C   0  0  0  0  0  0  0  0  0  0  0  0
    4.6950   -5.6450   24.4710 C   0  0  0  0  0  0  0  0  0  0  0  0
    4.8690   -4.8710   25.7200 C   0  0  0  0  0  0  0  0  0  0  0  0
    5.7230   -3.8470   25.2460 C   0  0  0  0  0  0  0  0  0  0  0  0
    6.3020   -3.5870   24.0480 C   0  0  0  0  0  0  0  0  0  0  0  0
    1.7800   -5.4270   23.6080 C   0  0  0  0  0  0  0  0  0  0  0  0
    0.7240   -5.0470   24.4420 C   0  0  0  0  0  0  0  0  0  0  0  0
   -0.6730   -6.1920   24.2800 S   0  0  0  0  0  0  0  0  0  0  0  0
    0.2560   -7.7000   24.7460 C   0  0  0  0  0  0  0  0  0  0  0  0
    1.4400   -7.8650   24.0170 C   0  0  0  0  0  0  0  0  0  0  0  0
    2.3510   -6.7030   24.0290 N   0  0  0  0  0  0  0  0  0  0  0  0
  2  4  1  0
  3  4  1  0
  3  7  1  0
  6  7  2  0
  7  9  1  0
  1 11  1  0
  9 11  1  0
  1 12  1  0
  8 12  2  0
  5 13  1  0
 13 12  1  6
  5 14  1  0
 10 14  2  0
 14 15  1  0
 15 16  1  6
 17 18  1  0
 17 19  1  0
 17 20  1  0
 21 22  2  0
 23 25  1  0
 24 25  2  0
 26 27  2  0
 27 28  1  0
 28 29  2  0
 13 30  1  0
 29 30  1  0
 26 31  1  0
 30 31  2  0
 32 33  2  0
 17 34  1  0
 33 34  1  0
 34 35  2  0
 35 36  1  0
  5 37  1  0
 32 37  1  0
 36 37  2  0
 15 38  1  0
 38 39  2  0
 22 40  1  0
 39 40  1  0
 23 41  1  0
 40 41  2  0
 41 42  1  0
 38 43  1  0
 42 43  2  0
 44 45  1  0
 45 46  1  0
 46 47  1  0
 47 48  1  0
 22 49  1  0
 44 49  1  0
 48 49  1  0
M  END
