x3110-x3113
     RDKit          3D

 32 33  0  0  0  0  0  0  0  0999 V2000
    8.0170    1.0620   23.2540 N   0  0  0  0  0  0  0  0  0  0  0  0
   13.3550    5.1420   22.8950 C   0  0  0  0  0  0  0  0  0  0  0  0
   12.0010    3.2140   22.4780 O   0  0  0  0  0  0  0  0  0  0  0  0
   12.3680    4.4970   21.9510 C   0  0  0  0  0  0  0  0  0  0  0  0
    6.8890   -1.6910   21.8150 N   0  0  0  0  0  0  0  0  0  0  0  0
   10.8290    4.2520   24.1320 O   0  0  0  0  0  0  0  0  0  0  0  0
   11.0550    3.2670   23.4450 C   0  0  0  0  0  0  0  0  0  0  0  0
    8.5710    1.3420   21.0780 O   0  0  0  0  0  0  0  0  0  0  0  0
   10.3120    1.9580   23.5570 C   0  0  0  0  0  0  0  0  0  0  0  0
    4.7510   -3.0070   21.3950 O   0  0  0  0  0  0  0  0  0  0  0  0
    8.8170    2.1950   23.7110 C   0  0  0  0  0  0  0  0  0  0  0  0
    7.8270    0.7830   21.9090 C   0  0  0  0  0  0  0  0  0  0  0  0
    6.6170   -0.2040   21.5480 C   0  0  1  0  0  0  0  0  0  0  0  0
    6.0370   -2.8320   21.3270 C   0  0  0  0  0  0  0  0  0  0  0  0
    6.7340   -3.9750   20.6580 C   0  0  0  0  0  0  0  0  0  0  0  0
    8.1710   -3.6640   20.3930 C   0  0  0  0  0  0  0  0  0  0  0  0
   12.3040   -1.8220   24.0220 C   0  0  0  0  0  0  0  0  0  0  0  0
   12.5460   -0.5740   24.8700 C   0  0  0  0  0  0  0  0  0  0  0  0
   13.3250   -1.8240   22.8890 C   0  0  0  0  0  0  0  0  0  0  0  0
   12.6330   -3.0010   24.9300 C   0  0  0  0  0  0  0  0  0  0  0  0
    6.3290    0.3980   17.8100 N   0  0  0  0  0  0  0  0  0  0  0  0
    5.2280    1.1680   17.8120 C   0  0  0  0  0  0  0  0  0  0  0  0
    4.5250    1.5130   18.9340 C   0  0  0  0  0  0  0  0  0  0  0  0
    4.9870    1.0430   20.1460 C   0  0  0  0  0  0  0  0  0  0  0  0
    6.1340    0.2450   20.2000 C   0  0  0  0  0  0  0  0  0  0  0  0
    6.7620   -0.0530   19.0030 C   0  0  0  0  0  0  0  0  0  0  0  0
    9.3060   -1.4790   21.6140 C   0  0  0  0  0  0  0  0  0  0  0  0
   10.6180   -1.5040   22.1060 C   0  0  0  0  0  0  0  0  0  0  0  0
   10.8810   -1.8220   23.4330 C   0  0  0  0  0  0  0  0  0  0  0  0
    9.7780   -2.1270   24.2170 C   0  0  0  0  0  0  0  0  0  0  0  0
    8.4560   -2.1160   23.7390 C   0  0  0  0  0  0  0  0  0  0  0  0
    8.2120   -1.7770   22.4080 C   0  0  0  0  0  0  0  0  0  0  0  0
  2  4  1  0
  3  4  1  0
  3  7  1  0
  6  7  2  0
  7  9  1  0
  1 11  1  0
  9 11  1  0
  1 12  1  0
  8 12  2  0
  5 13  1  0
 13 12  1  6
  5 14  1  0
 10 14  2  0
 14 15  1  0
 15 16  1  0
 17 18  1  0
 17 19  1  0
 17 20  1  0
 21 22  2  0
 22 23  1  0
 23 24  2  0
 13 25  1  0
 24 25  1  0
 21 26  1  0
 25 26  2  0
 27 28  2  0
 17 29  1  0
 28 29  1  0
 29 30  2  0
 30 31  1  0
  5 32  1  0
 27 32  1  0
 31 32  2  0
M  END
