x3110-x2754-x3113
     RDKit          3D

 47 50  0  0  0  0  0  0  0  0999 V2000
    7.9330    1.1390   23.2010 N   0  0  0  0  0  0  0  0  0  0  0  0
   13.3700    5.1230   22.7230 C   0  0  0  0  0  0  0  0  0  0  0  0
   11.9380    3.2340   22.5210 O   0  0  0  0  0  0  0  0  0  0  0  0
   12.2730    4.3320   22.0680 C   0  0  0  0  0  0  0  0  0  0  0  0
    7.1110   -1.6430   21.5940 N   0  0  0  0  0  0  0  0  0  0  0  0
   10.9770    4.4160   24.1700 O   0  0  0  0  0  0  0  0  0  0  0  0
   11.0990    3.3090   23.4060 C   0  0  0  0  0  0  0  0  0  0  0  0
    8.4020    1.2590   20.9640 O   0  0  0  0  0  0  0  0  0  0  0  0
   10.2490    2.0400   23.5130 C   0  0  0  0  0  0  0  0  0  0  0  0
    4.9660   -3.0990   20.9360 O   0  0  0  0  0  0  0  0  0  0  0  0
    8.7750    2.3600   23.5650 C   0  0  0  0  0  0  0  0  0  0  0  0
    7.7280    0.7140   21.8540 C   0  0  0  0  0  0  0  0  0  0  0  0
    6.7410   -0.2940   21.5140 C   0  0  1  0  0  0  0  0  0  0  0  0
    6.2180   -2.8640   21.3850 C   0  0  0  0  0  0  0  0  0  0  0  0
    8.0870   -4.7580   21.0640 C   0  0  0  0  0  0  0  0  0  0  0  0
   12.2970   -1.8310   24.3580 C   0  0  0  0  0  0  0  0  0  0  0  0
   12.3640   -0.6270   25.0500 C   0  0  0  0  0  0  0  0  0  0  0  0
   13.3470   -1.7890   23.2700 C   0  0  0  0  0  0  0  0  0  0  0  0
   12.5590   -2.9440   25.0460 C   0  0  0  0  0  0  0  0  0  0  0  0
    4.8100   -3.3830   25.3860 C   0  0  0  0  0  0  0  0  0  0  0  0
    3.6570   -3.0710   25.0800 O   0  0  0  0  0  0  0  0  0  0  0  0
    5.3920   -3.1810   26.6230 N   0  0  0  0  0  0  0  0  0  0  0  0
    4.9770   -2.0320   27.4460 C   0  0  0  0  0  0  0  0  0  0  0  0
    6.3480    0.4380   17.7440 N   0  0  0  0  0  0  0  0  0  0  0  0
    5.2360    1.1920   17.7450 C   0  0  0  0  0  0  0  0  0  0  0  0
    4.5390    1.4610   19.0700 C   0  0  0  0  0  0  0  0  0  0  0  0
    4.9970    0.9840   20.2670 C   0  0  0  0  0  0  0  0  0  0  0  0
    6.1670    0.2100   20.2450 C   0  0  0  0  0  0  0  0  0  0  0  0
    6.8280   -0.0710   19.0380 C   0  0  0  0  0  0  0  0  0  0  0  0
    9.5090   -2.2020   21.7210 C   0  0  0  0  0  0  0  0  0  0  0  0
   10.7690   -2.2700   22.3150 C   0  0  0  0  0  0  0  0  0  0  0  0
   10.9820   -1.8380   23.6170 C   0  0  0  0  0  0  0  0  0  0  0  0
    9.8340   -1.3580   24.2450 C   0  0  0  0  0  0  0  0  0  0  0  0
    8.5880   -1.2970   23.6240 C   0  0  0  0  0  0  0  0  0  0  0  0
    8.3710   -1.7160   22.3080 C   0  0  0  0  0  0  0  0  0  0  0  0
    6.9320   -4.1190   21.8650 C   0  0  1  0  0  0  0  0  0  0  0  0
    7.5980   -3.6470   23.1450 C   0  0  0  0  0  0  0  0  0  0  0  0
    6.6120   -3.0940   23.9510 C   0  0  0  0  0  0  0  0  0  0  0  0
    5.7330   -4.0600   24.3540 C   0  0  2  0  0  0  0  0  0  0  0  0
    4.9850   -4.5850   23.2770 C   0  0  0  0  0  0  0  0  0  0  0  0
    5.8320   -5.1510   22.2850 C   0  0  0  0  0  0  0  0  0  0  0  0
    6.9780   -4.7780   27.5960 C   0  0  0  0  0  0  0  0  0  0  0  0
    8.3690   -5.3750   27.8250 C   0  0  0  0  0  0  0  0  0  0  0  0
    9.5090   -4.6850   27.1200 C   0  0  0  0  0  0  0  0  0  0  0  0
    9.3070   -3.4700   26.2330 C   0  0  0  0  0  0  0  0  0  0  0  0
    7.8750   -2.8910   26.0320 C   0  0  0  0  0  0  0  0  0  0  0  0
    6.7430   -3.6510   26.7830 C   0  0  0  0  0  0  0  0  0  0  0  0
  2  4  1  0
  3  4  1  0
  3  7  1  0
  6  7  2  0
  7  9  1  0
  1 11  1  0
  9 11  1  0
  1 12  1  0
  8 12  2  0
  5 13  1  0
 13 12  1  6
  5 14  1  0
 10 14  2  0
 16 17  1  0
 16 18  1  0
 16 19  1  0
 20 21  2  0
 20 22  1  0
 22 23  1  0
 24 25  2  0
 25 26  1  0
 26 27  2  0
 13 28  1  0
 27 28  1  0
 24 29  1  0
 28 29  2  0
 30 31  2  0
 16 32  1  0
 31 32  1  0
 32 33  2  0
 33 34  1  0
  5 35  1  0
 30 35  1  0
 34 35  2  0
 36 14  1  0
 36 15  1  6
 36 37  1  0
 37 38  1  0
 39 20  1  1
 38 39  1  0
 39 40  1  0
 36 41  1  0
 40 41  1  0
 42 43  2  0
 43 44  1  0
 44 45  2  0
 45 46  1  0
 22 47  1  0
 42 47  1  0
 46 47  2  0
M  END
