x3110-x2764
     RDKit          3D

 33 34  0  0  0  0  0  0  0  0999 V2000
    7.8380    1.5220   23.0210 N   0  0  0  0  0  0  0  0  0  0  0  0
   13.3630    5.0720   22.7180 C   0  0  0  0  0  0  0  0  0  0  0  0
   11.8020    3.2740   22.6090 O   0  0  0  0  0  0  0  0  0  0  0  0
   12.2320    4.3090   22.0900 C   0  0  0  0  0  0  0  0  0  0  0  0
    6.8810   -1.6770   21.8190 N   0  0  0  0  0  0  0  0  0  0  0  0
   10.9180    4.4600   24.1860 O   0  0  0  0  0  0  0  0  0  0  0  0
   10.9720    3.4540   23.5010 C   0  0  0  0  0  0  0  0  0  0  0  0
    8.6330    0.6860   21.0840 O   0  0  0  0  0  0  0  0  0  0  0  0
   10.0990    2.3440   23.6200 C   0  0  0  0  0  0  0  0  0  0  0  0
    4.7690   -3.0380   21.4050 O   0  0  0  0  0  0  0  0  0  0  0  0
    8.8540    2.5380   22.9710 C   0  0  2  0  0  0  0  0  0  0  0  0
    7.7070    0.6420   21.8760 C   0  0  0  0  0  0  0  0  0  0  0  0
    6.5690   -0.1940   21.6160 C   0  0  1  0  0  0  0  0  0  0  0  0
    6.0510   -2.8470   21.3690 C   0  0  0  0  0  0  0  0  0  0  0  0
    6.7420   -4.0240   20.7530 C   0  0  0  0  0  0  0  0  0  0  0  0
    8.1760   -3.6470   20.4100 C   0  0  0  0  0  0  0  0  0  0  0  0
   12.3000   -1.8430   24.0260 C   0  0  0  0  0  0  0  0  0  0  0  0
   12.5690   -0.5870   24.8510 C   0  0  0  0  0  0  0  0  0  0  0  0
   13.3170   -1.8630   22.8880 C   0  0  0  0  0  0  0  0  0  0  0  0
   12.6330   -3.0140   24.9490 C   0  0  0  0  0  0  0  0  0  0  0  0
    8.1140    3.6570   23.1910 N   0  0  0  0  0  0  0  0  0  0  0  0
    6.3810    0.3450   17.9270 N   0  0  0  0  0  0  0  0  0  0  0  0
    5.2970    1.1340   17.8440 C   0  0  0  0  0  0  0  0  0  0  0  0
    4.5590    1.5220   18.9270 C   0  0  0  0  0  0  0  0  0  0  0  0
    4.9660    1.0810   20.1650 C   0  0  0  0  0  0  0  0  0  0  0  0
    6.1010    0.2680   20.2460 C   0  0  0  0  0  0  0  0  0  0  0  0
    6.8320   -0.1230   19.1150 C   0  0  0  0  0  0  0  0  0  0  0  0
    9.3400   -1.4850   21.6270 C   0  0  0  0  0  0  0  0  0  0  0  0
   10.6710   -1.5170   22.1200 C   0  0  0  0  0  0  0  0  0  0  0  0
   10.8660   -1.8460   23.4610 C   0  0  0  0  0  0  0  0  0  0  0  0
    9.7620   -2.1460   24.2430 C   0  0  0  0  0  0  0  0  0  0  0  0
    8.4510   -2.1220   23.7510 C   0  0  0  0  0  0  0  0  0  0  0  0
    8.2180   -1.7790   22.4180 C   0  0  0  0  0  0  0  0  0  0  0  0
  2  4  1  0
  3  4  1  0
  3  7  1  0
  6  7  2  0
  7  9  1  0
  1 11  1  0
  9 11  1  0
  1 12  1  0
  8 12  2  0
  5 13  1  0
 13 12  1  6
  5 14  1  0
 10 14  2  0
 14 15  1  0
 15 16  1  0
 17 18  1  0
 17 19  1  0
 17 20  1  0
 11 21  1  1
 22 23  2  0
 23 24  1  0
 24 25  2  0
 13 26  1  0
 25 26  1  0
 22 27  1  0
 26 27  2  0
 28 29  2  0
 17 30  1  0
 29 30  1  0
 30 31  2  0
 31 32  1  0
  5 33  1  0
 28 33  1  0
 32 33  2  0
M  END
