x3117-x0354
     RDKit          3D

 42 45  0  0  0  0  0  0  0  0999 V2000
    6.9360   -1.6980   21.6610 N   0  0  0  0  0  0  0  0  0  0  0  0
    6.7460   -4.9630   20.4830 C   0  0  0  0  0  0  0  0  0  0  0  0
    4.8190   -3.0100   21.2220 O   0  0  0  0  0  0  0  0  0  0  0  0
    6.7930   -4.1780   21.7990 C   0  0  0  0  0  0  0  0  0  0  0  0
    7.4750    1.6520   23.2070 N   0  0  0  0  0  0  0  0  0  0  0  0
    8.7680    0.7530   21.4800 O   0  0  0  0  0  0  0  0  0  0  0  0
    6.0780   -2.8830   21.5390 C   0  0  0  0  0  0  0  0  0  0  0  0
    6.5500   -0.2540   21.6490 C   0  0  1  0  0  0  0  0  0  0  0  0
    7.6910    0.7110   22.0750 C   0  0  0  0  0  0  0  0  0  0  0  0
   12.0260   -1.6960   24.3070 C   0  0  0  0  0  0  0  0  0  0  0  0
   12.1850   -0.6360   25.1610 C   0  0  0  0  0  0  0  0  0  0  0  0
   12.9670   -1.4080   23.3460 C   0  0  0  0  0  0  0  0  0  0  0  0
   12.6040   -2.9500   24.9790 C   0  0  0  0  0  0  0  0  0  0  0  0
    7.8780   -1.8980   25.9600 O   0  0  0  0  0  0  0  0  0  0  0  0
    7.9380   -0.3100   27.5760 O   0  0  0  0  0  0  0  0  0  0  0  0
    8.7870   -1.1050   25.7130 C   0  0  0  0  0  0  0  0  0  0  0  0
    8.9690   -0.0640   26.6090 C   0  0  0  0  0  0  0  0  0  0  0  0
    5.4180    3.8020   30.7370 C   0  0  0  0  0  0  0  0  0  0  0  0
    6.2950    0.5650   17.6830 N   0  0  0  0  0  0  0  0  0  0  0  0
    5.2240    1.3140   17.6630 C   0  0  0  0  0  0  0  0  0  0  0  0
    4.4380    1.6220   18.9330 C   0  0  0  0  0  0  0  0  0  0  0  0
    4.7930    1.1300   20.3140 C   0  0  0  0  0  0  0  0  0  0  0  0
    6.0430    0.2730   20.3490 C   0  0  0  0  0  0  0  0  0  0  0  0
    6.7030    0.0530   18.9800 C   0  0  0  0  0  0  0  0  0  0  0  0
    9.5060    4.9950   24.1670 O   0  0  0  0  0  0  0  0  0  0  0  0
   10.4200    3.9180   23.9720 C   0  0  0  0  0  0  0  0  0  0  0  0
    9.7170    2.7210   23.7610 C   0  0  0  0  0  0  0  0  0  0  0  0
    8.2150    2.8930   23.4580 C   0  0  0  0  0  0  0  0  0  0  0  0
    8.1790    3.9910   22.4000 C   0  0  0  0  0  0  0  0  0  0  0  0
    8.7570    5.2980   22.9770 C   0  0  0  0  0  0  0  0  0  0  0  0
    9.4020   -2.0450   21.7170 C   0  0  0  0  0  0  0  0  0  0  0  0
   10.5950   -2.0140   22.4180 C   0  0  0  0  0  0  0  0  0  0  0  0
   10.6850   -1.7000   23.7660 C   0  0  0  0  0  0  0  0  0  0  0  0
    9.3920   -1.4330   24.3830 C   0  0  0  0  0  0  0  0  0  0  0  0
    8.2630   -1.4710   23.6020 C   0  0  0  0  0  0  0  0  0  0  0  0
    8.2000   -1.7530   22.2860 C   0  0  0  0  0  0  0  0  0  0  0  0
    7.7610    1.9280   28.2250 C   0  0  0  0  0  0  0  0  0  0  0  0
    7.1170    2.9680   29.0350 C   0  0  0  0  0  0  0  0  0  0  0  0
    6.0580    2.7240   29.9150 C   0  0  0  0  0  0  0  0  0  0  0  0
    5.6380    1.3910   29.9710 C   0  0  0  0  0  0  0  0  0  0  0  0
    6.2450    0.3910   29.2080 C   0  0  0  0  0  0  0  0  0  0  0  0
    7.3000    0.6240   28.3360 C   0  0  0  0  0  0  0  0  0  0  0  0
  2  4  1  0
  1  7  1  0
  3  7  2  0
  4  7  1  0
  1  8  1  0
  5  9  1  0
  6  9  2  0
  8  9  1  6
 10 11  1  0
 10 12  1  0
 10 13  1  0
 14 16  2  0
 15 17  1  0
 16 17  1  0
 19 20  2  0
 20 21  1  0
 21 22  2  0
  8 23  1  0
 22 23  1  0
 19 24  1  0
 23 24  2  0
 25 26  1  0
 26 27  1  0
  5 28  1  0
 27 28  1  0
 28 29  1  0
 25 30  1  0
 29 30  1  0
 31 32  2  0
 10 33  1  0
 32 33  1  0
 16 34  1  0
 33 34  2  0
 34 35  1  0
  1 36  1  0
 31 36  1  0
 35 36  2  0
 37 38  2  0
 18 39  1  0
 38 39  1  0
 39 40  2  0
 40 41  1  0
 15 42  1  0
 37 42  1  0
 41 42  2  0
M  END
