x3110-x1351
     RDKit          3D

 46 50  0  0  0  0  0  0  0  0999 V2000
    7.9590    1.2090   23.2380 N   0  0  0  0  0  0  0  0  0  0  0  0
   13.4450    5.0790   22.8660 C   0  0  0  0  0  0  0  0  0  0  0  0
   12.0120    3.2210   22.4260 O   0  0  0  0  0  0  0  0  0  0  0  0
   12.4130    4.5010   21.9230 C   0  0  0  0  0  0  0  0  0  0  0  0
    7.0650   -1.7930   21.9610 C   0  0  1  0  0  0  0  0  0  0  0  0
   10.9520    4.2980   24.1120 O   0  0  0  0  0  0  0  0  0  0  0  0
   11.0920    3.3070   23.4120 C   0  0  0  0  0  0  0  0  0  0  0  0
    8.4730    1.3540   21.0300 O   0  0  0  0  0  0  0  0  0  0  0  0
   10.2400    2.0580   23.5630 C   0  0  0  0  0  0  0  0  0  0  0  0
    5.0190   -3.1730   20.8430 O   0  0  0  0  0  0  0  0  0  0  0  0
    8.7330    2.3170   23.5780 C   0  0  0  0  0  0  0  0  0  0  0  0
    7.7760    0.8290   21.9140 C   0  0  0  0  0  0  0  0  0  0  0  0
    6.6360   -0.2530   21.6750 C   0  0  1  0  0  0  0  0  0  0  0  0
    6.1840   -3.0180   21.4390 C   0  0  0  0  0  0  0  0  0  0  0  0
    8.1010   -4.8580   21.0980 C   0  0  0  0  0  0  0  0  0  0  0  0
   12.4680   -1.7520   24.1560 C   0  0  0  0  0  0  0  0  0  0  0  0
   12.5470   -0.5250   25.0420 C   0  0  0  0  0  0  0  0  0  0  0  0
   13.4210   -1.5910   22.9900 C   0  0  0  0  0  0  0  0  0  0  0  0
   12.9300   -2.9480   24.9900 C   0  0  0  0  0  0  0  0  0  0  0  0
    5.0950   -2.5780   25.0250 N   0  0  0  0  0  0  0  0  0  0  0  0
    6.9060   -3.2080   26.2820 O   0  0  0  0  0  0  0  0  0  0  0  0
    6.0760   -2.3800   25.9960 C   0  0  0  0  0  0  0  0  0  0  0  0
    6.3660    0.2990   17.9120 N   0  0  0  0  0  0  0  0  0  0  0  0
    5.2660    1.0670   17.8680 C   0  0  0  0  0  0  0  0  0  0  0  0
    4.5480    1.4340   18.9800 C   0  0  0  0  0  0  0  0  0  0  0  0
    4.9750    1.0010   20.2380 C   0  0  0  0  0  0  0  0  0  0  0  0
    6.1200    0.2100   20.3170 C   0  0  0  0  0  0  0  0  0  0  0  0
    6.7730   -0.1150   19.1290 C   0  0  0  0  0  0  0  0  0  0  0  0
    9.6090   -2.2310   21.7360 C   0  0  0  0  0  0  0  0  0  0  0  0
   10.9000   -2.2290   22.2490 C   0  0  0  0  0  0  0  0  0  0  0  0
   11.0900   -1.7820   23.5510 C   0  0  0  0  0  0  0  0  0  0  0  0
   10.0220   -1.3480   24.3030 C   0  0  0  0  0  0  0  0  0  0  0  0
    8.7580   -1.3610   23.7630 C   0  0  0  0  0  0  0  0  0  0  0  0
    8.5130   -1.8060   22.4590 C   0  0  0  0  0  0  0  0  0  0  0  0
    6.9600   -4.2240   21.9220 C   0  0  1  0  0  0  0  0  0  0  0  0
    7.5590   -3.5720   23.1740 C   0  0  0  0  0  0  0  0  0  0  0  0
    6.6780   -2.5060   23.3440 C   0  0  2  0  0  0  0  0  0  0  0  0
    5.3670   -2.9280   23.6140 C   0  0  1  0  0  0  0  0  0  0  0  0
    4.9920   -4.3200   23.4160 C   0  0  0  0  0  0  0  0  0  0  0  0
    5.8440   -5.1300   22.4150 C   0  0  0  0  0  0  0  0  0  0  0  0
    6.8080   -0.9250   27.8910 C   0  0  0  0  0  0  0  0  0  0  0  0
    6.7640    0.4160   28.6310 C   0  0  0  0  0  0  0  0  0  0  0  0
    5.9830    1.4480   28.1340 C   0  0  0  0  0  0  0  0  0  0  0  0
    5.2490    1.2390   26.9600 C   0  0  0  0  0  0  0  0  0  0  0  0
    5.2820    0.0060   26.2690 C   0  0  0  0  0  0  0  0  0  0  0  0
    6.0530   -1.0790   26.7250 C   0  0  0  0  0  0  0  0  0  0  0  0
  2  4  1  0
  3  4  1  0
  3  7  1  0
  6  7  2  0
  7  9  1  0
  1 11  1  0
  9 11  1  0
  1 12  1  0
  8 12  2  0
  5 13  1  0
 13 12  1  6
  5 14  1  0
 10 14  2  0
 16 17  1  0
 16 18  1  0
 16 19  1  0
 20 22  1  0
 21 22  2  0
 23 24  2  0
 24 25  1  0
 25 26  2  0
 13 27  1  0
 26 27  1  0
 23 28  1  0
 27 28  2  0
 29 30  2  0
 16 31  1  0
 30 31  1  0
 31 32  2  0
 32 33  1  0
  5 34  1  6
 29 34  1  0
 33 34  2  0
 14 35  1  0
 35 15  1  6
 35 36  1  0
  5 37  1  0
 37 36  1  6
 38 20  1  1
 37 38  1  0
 38 39  1  0
 35 40  1  0
 39 40  1  0
 41 42  2  0
 42 43  1  0
 43 44  2  0
 44 45  1  0
 22 46  1  0
 41 46  1  0
 45 46  2  0
M  END
