x3115-x3117-x2776-x2754
     RDKit          3D

 50 55  0  0  0  0  0  0  0  0999 V2000
    6.8510   -1.7920   22.1200 C   0  0  2  0  0  0  0  0  0  0  0  0
    7.0030   -5.2500   20.7970 C   0  0  0  0  0  0  0  0  0  0  0  0
    4.8870   -3.0190   20.8440 O   0  0  0  0  0  0  0  0  0  0  0  0
    7.6810    1.7970   22.9240 N   0  0  0  0  0  0  0  0  0  0  0  0
    8.8540    0.5560   21.3550 O   0  0  0  0  0  0  0  0  0  0  0  0
    5.9680   -2.9750   21.5080 C   0  0  0  0  0  0  0  0  0  0  0  0
    6.5880   -0.2290   21.8600 C   0  0  1  0  0  0  0  0  0  0  0  0
    7.8370    0.7370   22.0180 C   0  0  0  0  0  0  0  0  0  0  0  0
    8.2210    6.7560   22.5360 C   0  0  0  0  0  0  0  0  0  0  0  0
   12.4020   -1.8860   24.1670 C   0  0  0  0  0  0  0  0  0  0  0  0
   13.3840   -1.9730   23.0020 C   0  0  0  0  0  0  0  0  0  0  0  0
   12.8430   -2.9870   25.1540 C   0  0  0  0  0  0  0  0  0  0  0  0
   12.5630   -0.5580   24.8940 C   0  0  0  0  0  0  0  0  0  0  0  0
   10.7720    6.4960   23.6130 O   0  0  0  0  0  0  0  0  0  0  0  0
   10.4160    1.5620   23.9530 C   0  0  0  0  0  0  0  0  0  0  0  0
   11.7780    6.5300   24.6440 C   0  0  0  0  0  0  0  0  0  0  0  0
    4.7720   -2.8940   25.3860 C   0  0  0  0  0  0  0  0  0  0  0  0
    3.5770   -3.0820   25.6120 O   0  0  0  0  0  0  0  0  0  0  0  0
    5.6630   -2.7100   26.4470 N   0  0  0  0  0  0  0  0  0  0  0  0
    5.1000   -2.0690   27.6390 C   0  0  0  0  0  0  0  0  0  0  0  0
    6.3930    0.3030   17.9570 N   0  0  0  0  0  0  0  0  0  0  0  0
    5.2060    1.1500   17.8740 C   0  0  0  0  0  0  0  0  0  0  0  0
    4.4220    1.5530   19.1050 C   0  0  0  0  0  0  0  0  0  0  0  0
    4.8890    1.0750   20.4380 C   0  0  0  0  0  0  0  0  0  0  0  0
    6.0330    0.2720   20.5180 C   0  0  0  0  0  0  0  0  0  0  0  0
    6.7640   -0.0960   19.1980 C   0  0  0  0  0  0  0  0  0  0  0  0
    9.4130   -2.2080   21.7480 C   0  0  0  0  0  0  0  0  0  0  0  0
   10.7130   -2.2230   22.2590 C   0  0  0  0  0  0  0  0  0  0  0  0
   10.9810   -1.8910   23.6070 C   0  0  0  0  0  0  0  0  0  0  0  0
    9.9090   -1.5550   24.3950 C   0  0  0  0  0  0  0  0  0  0  0  0
    8.6240   -1.5370   23.8890 C   0  0  0  0  0  0  0  0  0  0  0  0
    8.3280   -1.8640   22.5400 C   0  0  0  0  0  0  0  0  0  0  0  0
    9.7960    2.8860   23.5900 C   0  0  0  0  0  0  0  0  0  0  0  0
   10.5890    4.0550   23.7770 C   0  0  0  0  0  0  0  0  0  0  0  0
   10.0740    5.3160   23.4500 C   0  0  0  0  0  0  0  0  0  0  0  0
    8.7880    5.4230   22.9240 C   0  0  0  0  0  0  0  0  0  0  0  0
    8.0050    4.2750   22.7480 C   0  0  0  0  0  0  0  0  0  0  0  0
    8.4800    2.9890   23.0800 C   0  0  0  0  0  0  0  0  0  0  0  0
    6.4940   -4.3350   21.8940 C   0  0  2  0  0  0  0  0  0  0  0  0
    7.3740   -3.8170   23.0350 C   0  0  0  0  0  0  0  0  0  0  0  0
    6.5030   -2.5950   23.4710 C   0  0  2  0  0  0  0  0  0  0  0  0
    5.1810   -2.8790   23.8870 C   0  0  1  0  0  0  0  0  0  0  0  0
    4.4740   -4.1130   23.2970 C   0  0  0  0  0  0  0  0  0  0  0  0
    5.3870   -5.0800   22.5860 C   0  0  0  0  0  0  0  0  0  0  0  0
    6.9730   -4.5500   27.4750 C   0  0  0  0  0  0  0  0  0  0  0  0
    8.3250   -5.2600   27.6870 C   0  0  0  0  0  0  0  0  0  0  0  0
    9.4320   -4.7080   27.0450 C   0  0  0  0  0  0  0  0  0  0  0  0
    9.2980   -3.5680   26.2510 C   0  0  0  0  0  0  0  0  0  0  0  0
    8.0630   -2.9350   26.0710 C   0  0  0  0  0  0  0  0  0  0  0  0
    6.8910   -3.4070   26.6700 C   0  0  0  0  0  0  0  0  0  0  0  0
  1  6  1  0
  3  6  2  0
  1  7  1  0
  4  8  1  0
  5  8  2  0
  7  8  1  6
 10 11  1  0
 10 12  1  0
 10 13  1  0
 14 16  1  0
 17 18  2  0
 17 19  1  0
 19 20  1  0
 21 22  2  0
 22 23  1  0
 23 24  2  0
  7 25  1  0
 24 25  1  0
 21 26  1  0
 25 26  2  0
 27 28  2  0
 10 29  1  0
 28 29  1  0
 29 30  2  0
 30 31  1  0
  1 32  1  6
 27 32  1  0
 31 32  2  0
 15 33  1  0
 33 34  2  0
 14 35  1  0
 34 35  1  0
  9 36  1  0
 35 36  2  0
 36 37  1  0
  4 38  1  0
 33 38  1  0
 37 38  2  0
 39  2  1  6
  6 39  1  0
 39 40  1  0
  1 41  1  0
 41 40  1  6
 42 17  1  1
 41 42  1  0
 42 43  1  0
 39 44  1  0
 43 44  1  0
 45 46  2  0
 46 47  1  0
 47 48  2  0
 48 49  1  0
 19 50  1  0
 45 50  1  0
 49 50  2  0
M  END
