x3115-x3110-x2754
     RDKit          3D

 50 53  0  0  0  0  0  0  0  0999 V2000
    7.8390    1.3460   23.1530 N   0  0  0  0  0  0  0  0  0  0  0  0
   13.3830    5.1330   22.8890 C   0  0  0  0  0  0  0  0  0  0  0  0
   11.9130    3.2320   22.4490 O   0  0  0  0  0  0  0  0  0  0  0  0
   12.3090    4.5250   22.0130 C   0  0  0  0  0  0  0  0  0  0  0  0
    6.9850   -1.6490   21.5780 N   0  0  0  0  0  0  0  0  0  0  0  0
   11.0050    4.1800   24.1460 O   0  0  0  0  0  0  0  0  0  0  0  0
   11.0600    3.2160   23.3960 C   0  0  0  0  0  0  0  0  0  0  0  0
    8.5790    1.3230   21.0180 O   0  0  0  0  0  0  0  0  0  0  0  0
   10.1200    2.0260   23.6100 C   0  0  0  0  0  0  0  0  0  0  0  0
    5.0070   -3.1480   20.9650 O   0  0  0  0  0  0  0  0  0  0  0  0
    8.6470    2.4420   23.5180 C   0  0  1  0  0  0  0  0  0  0  0  0
    7.7680    0.8750   21.8460 C   0  0  0  0  0  0  0  0  0  0  0  0
    6.6070   -0.1700   21.4550 C   0  0  1  0  0  0  0  0  0  0  0  0
    6.3040   -2.9540   21.3760 C   0  0  0  0  0  0  0  0  0  0  0  0
    8.1020   -4.7340   21.1690 C   0  0  0  0  0  0  0  0  0  0  0  0
   12.3140   -1.7870   24.2460 C   0  0  0  0  0  0  0  0  0  0  0  0
   12.4820   -0.5550   25.1070 C   0  0  0  0  0  0  0  0  0  0  0  0
   13.3250   -1.7290   23.1010 C   0  0  0  0  0  0  0  0  0  0  0  0
   12.6970   -2.9960   25.1120 C   0  0  0  0  0  0  0  0  0  0  0  0
    8.5100    4.8650   23.1870 O   0  0  0  0  0  0  0  0  0  0  0  0
    8.4300    3.5970   22.5010 C   0  0  0  0  0  0  0  0  0  0  0  0
    8.2200    5.9830   22.3420 C   0  0  0  0  0  0  0  0  0  0  0  0
    4.6150   -3.3720   25.3050 C   0  0  0  0  0  0  0  0  0  0  0  0
    3.3890   -3.4490   25.3660 O   0  0  0  0  0  0  0  0  0  0  0  0
    5.4330   -3.0360   26.4320 N   0  0  0  0  0  0  0  0  0  0  0  0
    4.9560   -2.1400   27.4960 C   0  0  0  0  0  0  0  0  0  0  0  0
    6.3180    0.5670   17.7880 N   0  0  0  0  0  0  0  0  0  0  0  0
    5.2050    1.3350   17.7150 C   0  0  0  0  0  0  0  0  0  0  0  0
    4.3560    1.6950   18.9280 C   0  0  0  0  0  0  0  0  0  0  0  0
    4.8800    1.1270   20.2400 C   0  0  0  0  0  0  0  0  0  0  0  0
    6.0220    0.3770   20.1990 C   0  0  0  0  0  0  0  0  0  0  0  0
    6.7020    0.1100   18.9970 C   0  0  0  0  0  0  0  0  0  0  0  0
    9.4790   -2.0080   21.6890 C   0  0  0  0  0  0  0  0  0  0  0  0
   10.7420   -2.0530   22.2700 C   0  0  0  0  0  0  0  0  0  0  0  0
   10.9170   -1.7630   23.6090 C   0  0  0  0  0  0  0  0  0  0  0  0
    9.7260   -1.4390   24.2770 C   0  0  0  0  0  0  0  0  0  0  0  0
    8.4440   -1.3880   23.6980 C   0  0  0  0  0  0  0  0  0  0  0  0
    8.3060   -1.6840   22.3340 C   0  0  0  0  0  0  0  0  0  0  0  0
    6.9550   -4.2110   21.7290 C   0  0  1  0  0  0  0  0  0  0  0  0
    7.4820   -3.8780   23.1280 C   0  0  0  0  0  0  0  0  0  0  0  0
    6.6380   -3.0300   23.8220 C   0  0  0  0  0  0  0  0  0  0  0  0
    5.2580   -3.6380   23.9260 C   0  0  1  0  0  0  0  0  0  0  0  0
    5.2610   -5.1270   23.4960 C   0  0  0  0  0  0  0  0  0  0  0  0
    5.8880   -5.3000   22.0780 C   0  0  0  0  0  0  0  0  0  0  0  0
    6.8600   -4.9190   27.5860 C   0  0  0  0  0  0  0  0  0  0  0  0
    8.2480   -5.2830   27.6650 C   0  0  0  0  0  0  0  0  0  0  0  0
    9.4990   -4.6660   27.0570 C   0  0  0  0  0  0  0  0  0  0  0  0
    9.4050   -3.4770   26.2140 C   0  0  0  0  0  0  0  0  0  0  0  0
    8.0050   -3.0050   26.0670 C   0  0  0  0  0  0  0  0  0  0  0  0
    6.7340   -3.6310   26.6830 C   0  0  0  0  0  0  0  0  0  0  0  0
  2  4  1  0
  3  4  1  0
  3  7  1  0
  6  7  2  0
  7  9  1  0
  1 11  1  0
 11  9  1  6
  1 12  1  0
  8 12  2  0
  5 13  1  0
 13 12  1  6
  5 14  1  0
 10 14  2  0
 16 17  1  0
 16 18  1  0
 16 19  1  0
 11 21  1  0
 20 21  1  0
 20 22  1  0
 23 24  2  0
 23 25  1  0
 25 26  1  0
 27 28  2  0
 28 29  1  0
 29 30  2  0
 13 31  1  0
 30 31  1  0
 27 32  1  0
 31 32  2  0
 33 34  2  0
 16 35  1  0
 34 35  1  0
 35 36  2  0
 36 37  1  0
  5 38  1  0
 33 38  1  0
 37 38  2  0
 39 14  1  0
 39 15  1  6
 39 40  1  0
 40 41  1  0
 42 23  1  1
 41 42  1  0
 42 43  1  0
 39 44  1  0
 43 44  1  0
 45 46  2  0
 46 47  1  0
 47 48  2  0
 48 49  1  0
 25 50  1  0
 45 50  1  0
 49 50  2  0
M  END
