x3115-x2643
     RDKit          3D

 31 32  0  0  0  0  0  0  0  0999 V2000
    6.8490   -1.7480   21.9430 N   0  0  0  0  0  0  0  0  0  0  0  0
    6.6620   -4.8560   20.3430 C   0  0  0  0  0  0  0  0  0  0  0  0
    4.7890   -3.0120   21.2820 O   0  0  0  0  0  0  0  0  0  0  0  0
    6.7440   -4.2220   21.7080 C   0  0  0  0  0  0  0  0  0  0  0  0
    7.5820    1.7570   22.8260 N   0  0  0  0  0  0  0  0  0  0  0  0
    8.8280    0.4620   21.4010 O   0  0  0  0  0  0  0  0  0  0  0  0
    6.0180   -2.9110   21.6230 C   0  0  0  0  0  0  0  0  0  0  0  0
    8.6790    5.2610   23.0460 O   0  0  0  0  0  0  0  0  0  0  0  0
    6.5710   -0.3110   21.6930 C   0  0  1  0  0  0  0  0  0  0  0  0
    7.7640    0.6560   21.9760 C   0  0  0  0  0  0  0  0  0  0  0  0
    8.3430    2.8760   22.5000 C   0  0  0  0  0  0  0  0  0  0  0  0
    7.7160    4.2140   22.9170 C   0  0  0  0  0  0  0  0  0  0  0  0
    8.3630    6.4300   22.2770 C   0  0  0  0  0  0  0  0  0  0  0  0
   12.0890   -2.1520   24.3210 C   0  0  0  0  0  0  0  0  0  0  0  0
   13.2530   -2.4440   23.3560 C   0  0  0  0  0  0  0  0  0  0  0  0
   11.9190   -3.2700   25.3550 C   0  0  0  0  0  0  0  0  0  0  0  0
   12.2980   -0.8070   25.0190 C   0  0  0  0  0  0  0  0  0  0  0  0
    6.3220    0.3880   17.8090 N   0  0  0  0  0  0  0  0  0  0  0  0
    5.1200    1.2200   17.7850 C   0  0  0  0  0  0  0  0  0  0  0  0
    4.4800    1.4590   18.9870 C   0  0  0  0  0  0  0  0  0  0  0  0
    4.8860    0.9900   20.2120 C   0  0  0  0  0  0  0  0  0  0  0  0
    6.0070    0.2100   20.3850 C   0  0  0  0  0  0  0  0  0  0  0  0
    6.7720   -0.1270   19.1310 C   0  0  0  0  0  0  0  0  0  0  0  0
    9.3700   -1.5830   21.6730 C   0  0  0  0  0  0  0  0  0  0  0  0
   10.5790   -1.7140   22.3450 C   0  0  0  0  0  0  0  0  0  0  0  0
   10.7150   -2.0710   23.6730 C   0  0  0  0  0  0  0  0  0  0  0  0
    9.5740   -2.3450   24.4450 C   0  0  0  0  0  0  0  0  0  0  0  0
    8.2890   -2.2500   23.8750 C   0  0  0  0  0  0  0  0  0  0  0  0
    8.1460   -1.8790   22.5330 C   0  0  0  0  0  0  0  0  0  0  0  0
   13.2470    0.2580   22.7760 Cl  0  0  0  0  0  0  0  0  0  0  0  0
   12.1510    0.3570   24.0610 C   0  0  0  0  0  0  0  0  0  0  0  0
  2  4  1  0
  1  7  1  0
  3  7  2  0
  4  7  1  0
  1  9  1  0
  5 10  1  0
  6 10  2  0
  9 10  1  6
  5 11  1  0
  8 12  1  0
 11 12  1  0
  8 13  1  0
 14 15  1  0
 14 16  1  0
 14 17  1  0
 18 19  2  0
 19 20  1  0
 20 21  2  0
  9 22  1  0
 21 22  1  0
 18 23  1  0
 22 23  2  0
 24 25  2  0
 14 26  1  0
 25 26  1  0
 26 27  2  0
 27 28  1  0
  1 29  1  0
 24 29  1  0
 28 29  2  0
 17 31  1  0
 30 31  1  0
M  END
