x3115-x1493-x0731-x3110
     RDKit          3D

 55 59  0  0  0  0  0  0  0  0999 V2000
    7.8660    1.4090   23.1650 N   0  0  0  0  0  0  0  0  0  0  0  0
   13.5410    5.1610   22.5020 C   0  0  0  0  0  0  0  0  0  0  0  0
   11.9900    3.2580   22.5510 O   0  0  0  0  0  0  0  0  0  0  0  0
   12.2660    4.5290   21.9800 C   0  0  0  0  0  0  0  0  0  0  0  0
    7.1720   -1.7720   21.6870 C   0  0  2  0  0  0  0  0  0  0  0  0
   11.0190    4.2980   24.1150 O   0  0  0  0  0  0  0  0  0  0  0  0
   11.1320    3.2960   23.4110 C   0  0  0  0  0  0  0  0  0  0  0  0
    8.6500    1.3660   20.9450 O   0  0  0  0  0  0  0  0  0  0  0  0
   10.1990    2.1110   23.6210 C   0  0  0  0  0  0  0  0  0  0  0  0
    5.2110   -3.5750   20.5610 O   0  0  0  0  0  0  0  0  0  0  0  0
    8.6730    2.4830   23.5340 C   0  0  1  0  0  0  0  0  0  0  0  0
    7.8680    0.9070   21.7810 C   0  0  0  0  0  0  0  0  0  0  0  0
    6.7820   -0.1950   21.4840 C   0  0  1  0  0  0  0  0  0  0  0  0
    5.9980   -2.6900   21.0550 C   0  0  0  0  0  0  0  0  0  0  0  0
    6.8480   -3.9180   20.9940 C   0  0  1  0  0  0  0  0  0  0  0  0
    8.2900   -3.6110   20.5640 C   0  0  0  0  0  0  0  0  0  0  0  0
   12.4910   -1.9500   24.1080 C   0  0  0  0  0  0  0  0  0  0  0  0
   12.6260   -0.6620   24.8530 C   0  0  0  0  0  0  0  0  0  0  0  0
   13.4590   -1.9360   22.9160 C   0  0  0  0  0  0  0  0  0  0  0  0
   12.9200   -3.0430   25.0790 C   0  0  0  0  0  0  0  0  0  0  0  0
    8.5040    4.7890   23.1800 O   0  0  0  0  0  0  0  0  0  0  0  0
    8.3940    3.7030   22.5990 C   0  0  0  0  0  0  0  0  0  0  0  0
    8.2270    5.9300   22.3620 C   0  0  0  0  0  0  0  0  0  0  0  0
    0.8540   -0.3840   26.1190 C   0  0  0  0  0  0  0  0  0  0  0  0
    5.3630   -5.1760   26.8640 O   0  0  0  0  0  0  0  0  0  0  0  0
    3.5740   -6.6220   25.8130 O   0  0  0  0  0  0  0  0  0  0  0  0
    4.3680   -5.4230   25.8400 S   0  0  0  0  0  0  0  0  0  0  0  0
    6.7010   -2.1820   23.0630 C   0  0  0  0  0  0  0  0  0  0  0  0
    6.0200   -6.3260   26.4630 C   0  0  0  0  0  0  0  0  0  0  0  0
    7.6090   -5.6660   24.9830 O   0  0  0  0  0  0  0  0  0  0  0  0
    6.4190   -5.7870   25.2400 C   0  0  0  0  0  0  0  0  0  0  0  0
    6.3620    0.5310   17.7180 N   0  0  0  0  0  0  0  0  0  0  0  0
    5.2240    1.3170   17.7710 C   0  0  0  0  0  0  0  0  0  0  0  0
    4.5480    1.6320   18.9380 C   0  0  0  0  0  0  0  0  0  0  0  0
    5.0250    1.1490   20.1560 C   0  0  0  0  0  0  0  0  0  0  0  0
    6.1760    0.3510   20.2040 C   0  0  0  0  0  0  0  0  0  0  0  0
    6.8080    0.0580   18.9980 C   0  0  0  0  0  0  0  0  0  0  0  0
    9.6600   -1.2690   21.7190 C   0  0  0  0  0  0  0  0  0  0  0  0
   10.9070   -1.3210   22.3240 C   0  0  0  0  0  0  0  0  0  0  0  0
   11.1010   -2.0090   23.5200 C   0  0  0  0  0  0  0  0  0  0  0  0
   10.0710   -2.6820   24.1190 C   0  0  0  0  0  0  0  0  0  0  0  0
    8.7900   -2.6900   23.5940 C   0  0  0  0  0  0  0  0  0  0  0  0
    8.5730   -1.9040   22.2920 C   0  0  0  0  0  0  0  0  0  0  0  0
    1.7110   -1.5990   26.0380 C   0  0  0  0  0  0  0  0  0  0  0  0
    1.1350   -2.8940   25.4380 C   0  0  0  0  0  0  0  0  0  0  0  0
    2.0700   -4.1120   25.3990 C   0  0  0  0  0  0  0  0  0  0  0  0
    3.3500   -4.0210   25.8850 C   0  0  0  0  0  0  0  0  0  0  0  0
    3.9380   -2.7250   26.4800 C   0  0  0  0  0  0  0  0  0  0  0  0
    3.0110   -1.5100   26.5190 C   0  0  0  0  0  0  0  0  0  0  0  0
    6.8660   -4.5380   22.2310 N   0  0  0  0  0  0  0  0  0  0  0  0
    6.6460   -3.6800   23.3890 C   0  0  2  0  0  0  0  0  0  0  0  0
    5.3240   -3.9900   23.9700 C   0  0  0  0  0  0  0  0  0  0  0  0
    5.2840   -5.4170   24.3690 C   0  0  2  0  0  0  0  0  0  0  0  0
    5.1920   -6.1530   23.1850 C   0  0  0  0  0  0  0  0  0  0  0  0
    6.2500   -5.8480   22.2570 C   0  0  0  0  0  0  0  0  0  0  0  0
  2  4  1  0
  3  4  1  0
  3  7  1  0
  6  7  2  0
  7  9  1  0
  1 11  1  0
 11  9  1  6
  1 12  1  0
  8 12  2  0
  5 13  1  0
 13 12  1  6
  5 14  1  0
 10 14  2  0
 14 15  1  0
 15 16  1  1
 17 18  1  0
 17 19  1  0
 17 20  1  0
 11 22  1  0
 21 22  1  0
 21 23  1  0
 25 27  2  0
 26 27  2  0
  5 28  1  0
 29 31  1  0
 30 31  2  0
 32 33  2  0
 33 34  1  0
 34 35  2  0
 13 36  1  0
 35 36  1  0
 32 37  1  0
 36 37  2  0
 38 39  2  0
 17 40  1  0
 39 40  1  0
 40 41  2  0
 41 42  1  0
  5 43  1  6
 38 43  1  0
 42 43  2  0
 24 44  1  0
 44 45  2  0
 45 46  1  0
 27 47  1  0
 46 47  2  0
 47 48  1  0
 44 49  1  0
 48 49  2  0
 15 50  1  0
 51 28  1  6
 50 51  1  0
 51 52  1  0
 27 53  1  0
 53 31  1  1
 52 53  1  0
 53 54  1  0
 50 55  1  0
 54 55  1  0
M  END
