x3110-x0755-x0981
     RDKit          3D

 57 60  0  0  0  0  0  0  0  0999 V2000
    7.9570    0.9220   23.2440 N   0  0  0  0  0  0  0  0  0  0  0  0
   13.3790    5.1210   22.6850 C   0  0  0  0  0  0  0  0  0  0  0  0
   11.8970    3.2390   22.5420 O   0  0  0  0  0  0  0  0  0  0  0  0
   12.2490    4.3330   22.0900 C   0  0  0  0  0  0  0  0  0  0  0  0
    7.0040   -1.6610   21.6840 N   0  0  0  0  0  0  0  0  0  0  0  0
   10.8080    4.2820   24.1050 O   0  0  0  0  0  0  0  0  0  0  0  0
   11.0160    3.2930   23.4250 C   0  0  0  0  0  0  0  0  0  0  0  0
    8.6070    1.2680   20.9380 O   0  0  0  0  0  0  0  0  0  0  0  0
   10.2450    1.9390   23.5140 C   0  0  0  0  0  0  0  0  0  0  0  0
    4.9110   -3.0460   20.9780 O   0  0  0  0  0  0  0  0  0  0  0  0
    8.6880    2.0580   23.6610 C   0  0  0  0  0  0  0  0  0  0  0  0
    7.8070    0.5870   21.9060 C   0  0  0  0  0  0  0  0  0  0  0  0
    6.6810   -0.4760   21.6130 C   0  0  1  0  0  0  0  0  0  0  0  0
    6.1230   -2.9080   21.4820 C   0  0  0  0  0  0  0  0  0  0  0  0
    6.6740   -4.2590   21.9690 C   0  0  2  0  0  0  0  0  0  0  0  0
    8.0390   -4.6950   21.1900 C   0  0  0  0  0  0  0  0  0  0  0  0
   12.1860   -1.7930   24.4620 C   0  0  0  0  0  0  0  0  0  0  0  0
   12.7110   -0.5720   24.7560 C   0  0  0  0  0  0  0  0  0  0  0  0
   13.1750   -1.3230   23.4830 C   0  0  0  0  0  0  0  0  0  0  0  0
   12.7820   -3.0110   25.0860 C   0  0  0  0  0  0  0  0  0  0  0  0
    1.4020   -8.3900   21.8050 C   0  0  0  0  0  0  0  0  0  0  0  0
    3.0840   -6.9400   22.6080 N   0  0  0  0  0  0  0  0  0  0  0  0
    0.8670   -6.2980   22.5320 O   0  0  0  0  0  0  0  0  0  0  0  0
    1.7440   -7.1420   22.3480 C   0  0  0  0  0  0  0  0  0  0  0  0
    2.4430   -8.0860   26.1740 N   0  0  0  0  0  0  0  0  0  0  0  0
    4.1250   -8.1620   24.3850 O   0  0  0  0  0  0  0  0  0  0  0  0
    3.3800   -5.8750   23.4150 C   0  0  1  0  0  0  0  0  0  0  0  0
    2.9750   -6.1180   24.7410 C   0  0  0  0  0  0  0  0  0  0  0  0
    3.2100   -7.4580   25.0650 C   0  0  0  0  0  0  0  0  0  0  0  0
    4.5970   -6.2120   26.4440 O   0  0  0  0  0  0  0  0  0  0  0  0
    6.2360   -4.3750   26.7950 O   0  0  0  0  0  0  0  0  0  0  0  0
    5.5620   -1.9870   26.0370 F   0  0  0  0  0  0  0  0  0  0  0  0
    5.1490   -4.9430   26.0300 S   0  0  0  0  0  0  0  0  0  0  0  0
    6.3750    0.2900   17.9160 N   0  0  0  0  0  0  0  0  0  0  0  0
    5.2450    1.0420   17.8860 C   0  0  0  0  0  0  0  0  0  0  0  0
    4.4750    1.3570   18.9920 C   0  0  0  0  0  0  0  0  0  0  0  0
    4.9660    0.8400   20.1690 C   0  0  0  0  0  0  0  0  0  0  0  0
    6.1150    0.0650   20.3280 C   0  0  0  0  0  0  0  0  0  0  0  0
    6.7980   -0.1910   19.1330 C   0  0  0  0  0  0  0  0  0  0  0  0
    9.5830   -2.2610   21.7070 C   0  0  0  0  0  0  0  0  0  0  0  0
   10.7790   -2.2580   22.4250 C   0  0  0  0  0  0  0  0  0  0  0  0
   10.8400   -1.7980   23.7250 C   0  0  0  0  0  0  0  0  0  0  0  0
    9.6280   -1.3450   24.2760 C   0  0  0  0  0  0  0  0  0  0  0  0
    8.4070   -1.3350   23.5780 C   0  0  0  0  0  0  0  0  0  0  0  0
    8.3890   -1.7960   22.2550 C   0  0  0  0  0  0  0  0  0  0  0  0
    2.5150   -4.0510   25.9610 C   0  0  0  0  0  0  0  0  0  0  0  0
    3.8850   -3.7080   25.9940 C   0  0  0  0  0  0  0  0  0  0  0  0
    4.2520   -2.3610   26.0010 C   0  0  0  0  0  0  0  0  0  0  0  0
    3.2390   -1.4180   25.9710 C   0  0  0  0  0  0  0  0  0  0  0  0
    1.9100   -1.7500   25.9370 C   0  0  0  0  0  0  0  0  0  0  0  0
    1.5110   -3.0700   25.9310 C   0  0  0  0  0  0  0  0  0  0  0  0
    6.7710   -6.4460   22.1720 N   0  0  0  0  0  0  0  0  0  0  0  0
    7.7990   -5.8640   23.0910 C   0  0  0  0  0  0  0  0  0  0  0  0
    7.1580   -5.0060   24.2640 C   0  0  0  0  0  0  0  0  0  0  0  0
    5.6810   -5.0140   24.4110 N   0  0  0  0  0  0  0  0  0  0  0  0
    4.9450   -5.8080   23.3330 C   0  0  2  0  0  0  0  0  0  0  0  0
    5.6990   -5.5190   22.1250 C   0  0  1  0  0  0  0  0  0  0  0  0
  2  4  1  0
  3  4  1  0
  3  7  1  0
  6  7  2  0
  7  9  1  0
  1 11  1  0
  9 11  1  0
  1 12  1  0
  8 12  2  0
  5 13  1  0
 13 12  1  6
  5 14  1  0
 10 14  2  0
 14 15  1  0
 15 16  1  6
 17 18  1  0
 17 19  1  0
 17 20  1  0
 21 24  1  0
 22 24  1  0
 23 24  2  0
 22 27  1  0
 27 28  1  1
 25 29  1  0
 26 29  2  0
 28 29  1  0
 30 33  2  0
 31 33  2  0
 34 35  2  0
 35 36  1  0
 36 37  2  0
 13 38  1  0
 37 38  1  0
 34 39  1  0
 38 39  2  0
 40 41  2  0
 17 42  1  0
 41 42  1  0
 42 43  2  0
 43 44  1  0
  5 45  1  0
 40 45  1  0
 44 45  2  0
 33 47  1  0
 46 47  2  0
 32 48  1  0
 47 48  1  0
 48 49  2  0
 49 50  1  0
 46 51  1  0
 50 51  2  0
 52 53  1  0
 53 54  1  0
 33 55  1  0
 54 55  1  0
 27 56  1  0
 56 55  1  1
 15 57  1  0
 57 52  1  1
 56 57  1  0
M  END
