x3117-x1077
     RDKit          3D

 40 43  0  0  0  0  0  0  0  0999 V2000
    6.8300   -1.5840   21.9920 N   0  0  0  0  0  0  0  0  0  0  0  0
    7.1540   -3.4460   19.5520 C   0  0  0  0  0  0  0  0  0  0  0  0
    4.7770   -3.0470   21.4280 O   0  0  0  0  0  0  0  0  0  0  0  0
    6.9640   -3.8420   21.0070 C   0  0  0  0  0  0  0  0  0  0  0  0
    7.6400    1.9390   22.8720 N   0  0  0  0  0  0  0  0  0  0  0  0
    8.8090    0.6220   21.4130 O   0  0  0  0  0  0  0  0  0  0  0  0
    6.0700   -2.7680   21.5100 C   0  0  0  0  0  0  0  0  0  0  0  0
    6.5220   -0.1510   21.7250 C   0  0  1  0  0  0  0  0  0  0  0  0
    7.7310    0.7740   21.9760 C   0  0  0  0  0  0  0  0  0  0  0  0
   12.3080   -1.7830   24.1540 C   0  0  0  0  0  0  0  0  0  0  0  0
   12.4600   -0.6240   24.9130 C   0  0  0  0  0  0  0  0  0  0  0  0
   13.2730   -1.7180   23.1920 C   0  0  0  0  0  0  0  0  0  0  0  0
   12.6730   -2.9610   25.0810 C   0  0  0  0  0  0  0  0  0  0  0  0
    6.2870    0.3920   17.8220 N   0  0  0  0  0  0  0  0  0  0  0  0
    5.2150    1.1420   17.7830 C   0  0  0  0  0  0  0  0  0  0  0  0
    4.3910    1.5940   18.7960 C   0  0  0  0  0  0  0  0  0  0  0  0
    4.8650    1.1160   20.1560 C   0  0  0  0  0  0  0  0  0  0  0  0
    6.0810    0.2590   20.3550 C   0  0  0  0  0  0  0  0  0  0  0  0
    6.7830   -0.0890   19.0250 C   0  0  0  0  0  0  0  0  0  0  0  0
    9.7910    5.2520   24.1360 O   0  0  0  0  0  0  0  0  0  0  0  0
   10.5840    4.1550   23.7230 C   0  0  0  0  0  0  0  0  0  0  0  0
    9.7610    2.8780   23.8320 C   0  0  0  0  0  0  0  0  0  0  0  0
    8.6210    3.0370   22.7960 C   0  0  0  0  0  0  0  0  0  0  0  0
    7.9430    4.4320   22.9300 C   0  0  0  0  0  0  0  0  0  0  0  0
    8.7880    5.5260   23.1640 C   0  0  0  0  0  0  0  0  0  0  0  0
    9.2930   -1.5340   21.5220 C   0  0  0  0  0  0  0  0  0  0  0  0
   10.6910   -1.5850   22.0290 C   0  0  0  0  0  0  0  0  0  0  0  0
   10.9130   -1.7470   23.4820 C   0  0  0  0  0  0  0  0  0  0  0  0
    9.6550   -1.8680   24.3270 C   0  0  0  0  0  0  0  0  0  0  0  0
    8.2450   -1.8400   23.9350 C   0  0  0  0  0  0  0  0  0  0  0  0
    8.1720   -1.6670   22.5490 C   0  0  0  0  0  0  0  0  0  0  0  0
    6.9820   -5.8490   25.6480 O   0  0  0  0  0  0  0  0  0  0  0  0
    7.3450   -5.2540   24.3890 C   0  0  0  0  0  0  0  0  0  0  0  0
    8.6590   -5.4250   23.9560 C   0  0  0  0  0  0  0  0  0  0  0  0
    9.7370   -4.9130   24.6970 C   0  0  0  0  0  0  0  0  0  0  0  0
    9.3950   -4.2250   25.9400 N   0  0  0  0  0  0  0  0  0  0  0  0
    8.9510   -5.1700   26.9380 C   0  0  0  0  0  0  0  0  0  0  0  0
    7.4970   -5.3280   26.8790 C   0  0  0  0  0  0  0  0  0  0  0  0
    8.4960   -2.0190   25.3560 C   0  0  0  0  0  0  0  0  0  0  0  0
    8.2790   -3.2960   25.8070 C   0  0  0  0  0  0  0  0  0  0  0  0
  2  4  1  0
  1  7  1  0
  3  7  2  0
  4  7  1  0
  1  8  1  0
  5  9  1  0
  6  9  2  0
  8  9  1  6
 10 11  1  0
 10 12  1  0
 10 13  1  0
 14 15  2  0
 15 16  1  0
 16 17  2  0
  8 18  1  0
 17 18  1  0
 14 19  1  0
 18 19  2  0
 20 21  1  0
 21 22  1  0
  5 23  1  0
 22 23  1  0
 23 24  1  0
 20 25  1  0
 24 25  1  0
 26 27  2  0
 10 28  1  0
 27 28  1  0
 28 29  2  0
 29 30  1  0
  1 31  1  0
 26 31  1  0
 30 31  2  0
 32 33  1  0
 33 34  1  0
 34 35  1  0
 35 36  1  0
 36 37  1  0
 32 38  1  0
 37 38  1  0
 30 39  1  0
 36 40  1  0
 39 40  1  0
M  END
