x3110-x1380-x3113
     RDKit          3D

 45 49  0  0  0  0  0  0  0  0999 V2000
    8.1120    1.0140   23.3850 N   0  0  0  0  0  0  0  0  0  0  0  0
   13.3670    5.1640   22.7750 C   0  0  0  0  0  0  0  0  0  0  0  0
   12.0150    3.2420   22.4530 O   0  0  0  0  0  0  0  0  0  0  0  0
   12.3270    4.3620   22.0510 C   0  0  0  0  0  0  0  0  0  0  0  0
    6.9210   -1.7720   21.9780 C   0  0  1  0  0  0  0  0  0  0  0  0
   10.8580    4.1610   24.1820 O   0  0  0  0  0  0  0  0  0  0  0  0
   11.0580    3.2160   23.4310 C   0  0  0  0  0  0  0  0  0  0  0  0
    8.3900    1.2350   20.9200 O   0  0  0  0  0  0  0  0  0  0  0  0
   10.2930    2.0380   23.5390 C   0  0  0  0  0  0  0  0  0  0  0  0
    5.2270   -3.6230   20.4020 O   0  0  0  0  0  0  0  0  0  0  0  0
    8.9030    2.2290   23.4830 C   0  0  0  0  0  0  0  0  0  0  0  0
    7.7380    0.6080   22.0380 C   0  0  0  0  0  0  0  0  0  0  0  0
    6.7060   -0.3450   21.7490 C   0  0  1  0  0  0  0  0  0  0  0  0
    5.9100   -2.7290   21.0410 C   0  0  0  0  0  0  0  0  0  0  0  0
    8.1620   -4.3960   21.0520 C   0  0  0  0  0  0  0  0  0  0  0  0
   12.4420   -1.9140   24.1190 C   0  0  0  0  0  0  0  0  0  0  0  0
   12.6970   -0.5680   24.7860 C   0  0  0  0  0  0  0  0  0  0  0  0
   13.4260   -2.0030   22.9740 C   0  0  0  0  0  0  0  0  0  0  0  0
   12.7780   -2.9910   25.1590 C   0  0  0  0  0  0  0  0  0  0  0  0
    4.7150   -2.5810   25.7360 O   0  0  0  0  0  0  0  0  0  0  0  0
    5.8100   -3.1090   25.6570 C   0  0  0  0  0  0  0  0  0  0  0  0
    6.4440    0.2200   17.9370 N   0  0  0  0  0  0  0  0  0  0  0  0
    5.2680    1.1170   17.8870 C   0  0  0  0  0  0  0  0  0  0  0  0
    4.6260    1.4680   19.0690 C   0  0  0  0  0  0  0  0  0  0  0  0
    5.1400    0.9540   20.2570 C   0  0  0  0  0  0  0  0  0  0  0  0
    6.2380    0.1200   20.3610 C   0  0  0  0  0  0  0  0  0  0  0  0
    6.8500   -0.2170   19.1580 C   0  0  0  0  0  0  0  0  0  0  0  0
    9.5270   -1.4470   21.6970 C   0  0  0  0  0  0  0  0  0  0  0  0
   10.8120   -1.5010   22.2660 C   0  0  0  0  0  0  0  0  0  0  0  0
   11.0180   -1.9470   23.5730 C   0  0  0  0  0  0  0  0  0  0  0  0
    9.9420   -2.3690   24.3120 C   0  0  0  0  0  0  0  0  0  0  0  0
    8.6740   -2.3190   23.7660 C   0  0  0  0  0  0  0  0  0  0  0  0
    8.4190   -1.8540   22.4540 C   0  0  0  0  0  0  0  0  0  0  0  0
    6.8090   -3.8500   21.6320 C   0  0  2  0  0  0  0  0  0  0  0  0
    6.0560   -5.0290   22.2870 C   0  0  0  0  0  0  0  0  0  0  0  0
    5.4940   -4.6000   23.6790 C   0  0  0  0  0  0  0  0  0  0  0  0
    6.3670   -3.4650   24.2790 C   0  0  1  0  0  0  0  0  0  0  0  0
    6.3220   -2.2280   23.3470 C   0  0  1  0  0  0  0  0  0  0  0  0
    7.4000   -3.0980   22.7950 C   0  0  0  0  0  0  0  0  0  0  0  0
    7.7900   -4.2760   26.6220 C   0  0  0  0  0  0  0  0  0  0  0  0
    7.8050   -5.3810   27.4850 C   0  0  0  0  0  0  0  0  0  0  0  0
    7.1490   -5.2010   28.6870 C   0  0  0  0  0  0  0  0  0  0  0  0
    5.8580   -4.7300   28.5290 C   0  0  0  0  0  0  0  0  0  0  0  0
    5.9260   -3.4190   28.0630 C   0  0  0  0  0  0  0  0  0  0  0  0
    6.5910   -3.4210   26.7380 N   0  0  0  0  0  0  0  0  0  0  0  0
  2  4  1  0
  3  4  1  0
  3  7  1  0
  6  7  2  0
  7  9  1  0
  1 11  1  0
  9 11  1  0
  1 12  1  0
  8 12  2  0
  5 13  1  0
 13 12  1  6
  5 14  1  0
 10 14  2  0
 16 17  1  0
 16 18  1  0
 16 19  1  0
 20 21  2  0
 22 23  2  0
 23 24  1  0
 24 25  2  0
 13 26  1  0
 25 26  1  0
 22 27  1  0
 26 27  2  0
 28 29  2  0
 16 30  1  0
 29 30  1  0
 30 31  2  0
 31 32  1  0
  5 33  1  1
 28 33  1  0
 32 33  2  0
 14 34  1  0
 34 15  1  6
 34 35  1  0
 35 36  1  0
 37 21  1  1
 36 37  1  0
  5 38  1  0
 37 38  1  0
 34 39  1  0
 38 39  1  1
 40 41  1  0
 41 42  1  0
 42 43  1  0
 43 44  1  0
 21 45  1  0
 40 45  1  0
 44 45  1  0
M  END
