x3110-x1311-x1493
     RDKit          3D

 48 51  0  0  0  0  0  0  0  0999 V2000
    7.9190    1.1140   23.2740 N   0  0  0  0  0  0  0  0  0  0  0  0
   13.4030    5.0360   22.7780 C   0  0  0  0  0  0  0  0  0  0  0  0
   11.8870    3.2370   22.4580 O   0  0  0  0  0  0  0  0  0  0  0  0
   12.2780    4.3420   22.0650 C   0  0  0  0  0  0  0  0  0  0  0  0
    7.0770   -1.7340   21.7020 N   0  0  0  0  0  0  0  0  0  0  0  0
   11.0220    4.3900   24.1810 O   0  0  0  0  0  0  0  0  0  0  0  0
   11.0940    3.3000   23.3850 C   0  0  0  0  0  0  0  0  0  0  0  0
    8.3990    1.0460   21.0460 O   0  0  0  0  0  0  0  0  0  0  0  0
   10.2390    2.0340   23.5020 C   0  0  0  0  0  0  0  0  0  0  0  0
    4.9320   -3.0990   21.1050 O   0  0  0  0  0  0  0  0  0  0  0  0
    8.7640    2.3590   23.5410 C   0  0  0  0  0  0  0  0  0  0  0  0
    7.7090    0.6030   21.9570 C   0  0  0  0  0  0  0  0  0  0  0  0
    6.6990   -0.3870   21.6850 C   0  0  1  0  0  0  0  0  0  0  0  0
    6.2300   -2.9360   21.3970 C   0  0  0  0  0  0  0  0  0  0  0  0
    7.0110   -4.2640   21.4400 C   0  0  1  0  0  0  0  0  0  0  0  0
    8.4530   -4.3020   20.9240 C   0  0  0  0  0  0  0  0  0  0  0  0
   12.3290   -1.8180   24.2650 C   0  0  0  0  0  0  0  0  0  0  0  0
   12.4740   -0.6380   24.9980 C   0  0  0  0  0  0  0  0  0  0  0  0
   13.3680   -1.7730   23.1910 C   0  0  0  0  0  0  0  0  0  0  0  0
   12.7000   -3.0110   25.1510 C   0  0  0  0  0  0  0  0  0  0  0  0
    6.5140    0.3360   17.9570 N   0  0  0  0  0  0  0  0  0  0  0  0
    5.2960    1.1410   17.7650 C   0  0  0  0  0  0  0  0  0  0  0  0
    4.4490    1.4370   19.0190 C   0  0  0  0  0  0  0  0  0  0  0  0
    4.8710    0.9230   20.3960 C   0  0  0  0  0  0  0  0  0  0  0  0
    6.0520    0.1890   20.4210 C   0  0  0  0  0  0  0  0  0  0  0  0
    6.8030   -0.0770   19.2520 C   0  0  0  0  0  0  0  0  0  0  0  0
    9.4970   -1.4170   21.7360 C   0  0  0  0  0  0  0  0  0  0  0  0
   10.7200   -1.4430   22.3460 C   0  0  0  0  0  0  0  0  0  0  0  0
   10.9190   -1.8490   23.6460 C   0  0  0  0  0  0  0  0  0  0  0  0
    9.7710   -2.2620   24.3330 C   0  0  0  0  0  0  0  0  0  0  0  0
    8.4980   -2.2460   23.7210 C   0  0  0  0  0  0  0  0  0  0  0  0
    8.3360   -1.8170   22.4010 C   0  0  0  0  0  0  0  0  0  0  0  0
    8.7940   -5.1780   23.0090 C   0  0  0  0  0  0  0  0  0  0  0  0
    9.3620   -5.5040   24.1100 C   0  0  0  0  0  0  0  0  0  0  0  0
    8.6910   -5.2930   25.2780 C   0  0  0  0  0  0  0  0  0  0  0  0
    7.4010   -4.7390   25.2160 C   0  0  0  0  0  0  0  0  0  0  0  0
    6.5800   -4.3160   24.1010 C   0  0  0  0  0  0  0  0  0  0  0  0
    7.4030   -4.5710   22.9540 C   0  0  0  0  0  0  0  0  0  0  0  0
    4.4710   -5.9840   25.8160 O   0  0  0  0  0  0  0  0  0  0  0  0
    2.4170   -6.5310   24.4760 O   0  0  0  0  0  0  0  0  0  0  0  0
    6.5830   -5.8620   26.8230 O   0  0  0  0  0  0  0  0  0  0  0  0
    5.7360   -5.3670   26.0890 C   0  0  0  0  0  0  0  0  0  0  0  0
    5.2770   -6.4450   22.5480 C   0  0  0  0  0  0  0  0  0  0  0  0
    4.9840   -4.9570   22.5040 C   0  0  0  0  0  0  0  0  0  0  0  0
    3.9060   -4.6720   23.5500 C   0  0  0  0  0  0  0  0  0  0  0  0
    3.8080   -6.1270   24.5320 S   0  0  1  0  0  0  0  0  0  0  0  0
    4.7070   -7.0870   23.5550 C   0  0  0  0  0  0  0  0  0  0  0  0
    5.8800   -4.1300   25.4220 C   0  0  0  0  0  0  0  0  0  0  0  0
  2  4  1  0
  3  4  1  0
  3  7  1  0
  6  7  2  0
  7  9  1  0
  1 11  1  0
  9 11  1  0
  1 12  1  0
  8 12  2  0
  5 13  1  0
 13 12  1  6
  5 14  1  0
 10 14  2  0
 14 15  1  0
 15 16  1  6
 17 18  1  0
 17 19  1  0
 17 20  1  0
 21 22  2  0
 22 23  1  0
 23 24  2  0
 13 25  1  0
 24 25  1  0
 21 26  1  0
 25 26  2  0
 27 28  2  0
 17 29  1  0
 28 29  1  0
 29 30  2  0
 30 31  1  0
  5 32  1  0
 27 32  1  0
 31 32  2  0
 33 34  2  0
 34 35  1  0
 35 36  2  0
 36 37  1  0
 15 38  1  0
 33 38  1  0
 37 38  2  0
 39 42  1  0
 41 42  2  0
 43 44  1  0
 44 45  1  0
 46 39  1  0
 46 40  1  1
 45 46  1  0
 43 47  2  0
 46 47  1  0
 37 48  1  0
 42 48  1  0
M  END
