x3110-x2703
     RDKit          3D

 39 43  0  0  0  0  0  0  0  0999 V2000
    7.8100    1.9630   22.9480 C   0  0  1  0  0  0  0  0  0  0  0  0
   13.6400    5.2390   22.4890 C   0  0  0  0  0  0  0  0  0  0  0  0
   12.1660    3.4640   23.0020 O   0  0  0  0  0  0  0  0  0  0  0  0
   12.3640    4.5280   22.1240 C   0  0  0  0  0  0  0  0  0  0  0  0
    6.7990   -1.5870   21.9730 N   0  0  0  0  0  0  0  0  0  0  0  0
    9.8880    4.2040   23.2020 N   0  0  0  0  0  0  0  0  0  0  0  0
   10.8310    3.2570   23.2980 C   0  0  0  0  0  0  0  0  0  0  0  0
    8.9790    0.4710   21.6310 O   0  0  0  0  0  0  0  0  0  0  0  0
   10.3080    1.9770   23.8150 C   0  0  0  0  0  0  0  0  0  0  0  0
    4.7850   -3.1140   21.5130 O   0  0  0  0  0  0  0  0  0  0  0  0
    7.8660    0.7070   22.0780 C   0  0  0  0  0  0  0  0  0  0  0  0
    6.6350   -0.1500   21.7120 C   0  0  1  0  0  0  0  0  0  0  0  0
    5.9870   -2.6590   21.2950 C   0  0  0  0  0  0  0  0  0  0  0  0
    6.5820   -3.3370   20.1750 C   0  0  0  0  0  0  0  0  0  0  0  0
    7.9380   -3.8960   20.3920 C   0  0  0  0  0  0  0  0  0  0  0  0
   12.2850   -1.8190   23.9990 C   0  0  0  0  0  0  0  0  0  0  0  0
   12.4840   -0.5620   24.8550 C   0  0  0  0  0  0  0  0  0  0  0  0
   13.3490   -1.7930   22.9070 C   0  0  0  0  0  0  0  0  0  0  0  0
   12.6100   -2.9940   24.9170 C   0  0  0  0  0  0  0  0  0  0  0  0
    6.1970    4.4280   22.1630 C   0  0  0  0  0  0  0  0  0  0  0  0
    9.4300    0.8880   24.3290 C   0  0  0  0  0  0  0  0  0  0  0  0
    6.3820    0.3450   17.9980 N   0  0  0  0  0  0  0  0  0  0  0  0
    5.3240    1.1590   17.8900 C   0  0  0  0  0  0  0  0  0  0  0  0
    4.6600    1.5580   19.0070 C   0  0  0  0  0  0  0  0  0  0  0  0
    5.1090    1.1110   20.2270 C   0  0  0  0  0  0  0  0  0  0  0  0
    6.1990    0.2760   20.3740 C   0  0  0  0  0  0  0  0  0  0  0  0
    6.8330   -0.1050   19.1860 C   0  0  0  0  0  0  0  0  0  0  0  0
    9.2050   -1.7070   21.6730 C   0  0  0  0  0  0  0  0  0  0  0  0
   10.6030   -1.7640   22.1030 C   0  0  0  0  0  0  0  0  0  0  0  0
   10.8470   -1.7950   23.4390 C   0  0  0  0  0  0  0  0  0  0  0  0
    9.7160   -1.7880   24.3400 C   0  0  0  0  0  0  0  0  0  0  0  0
    8.4750   -1.7440   23.9180 C   0  0  0  0  0  0  0  0  0  0  0  0
    8.1620   -1.6910   22.5040 C   0  0  0  0  0  0  0  0  0  0  0  0
    8.9790    2.7310   23.6330 C   0  0  2  0  0  0  0  0  0  0  0  0
    9.0440    3.9470   24.2990 C   0  0  2  0  0  0  0  0  0  0  0  0
    9.1330    5.3460   24.1650 C   0  0  0  0  0  0  0  0  0  0  0  0
    8.2540    5.7490   22.9340 C   0  0  0  0  0  0  0  0  0  0  0  0
    7.7160    4.5410   22.1020 C   0  0  1  0  0  0  0  0  0  0  0  0
    8.4560    3.1720   22.3500 C   0  0  2  0  0  0  0  0  0  0  0  0
  2  4  1  0
  3  4  1  0
  3  7  1  0
  6  7  1  0
  7  9  2  0
  1 11  1  6
  8 11  2  0
  5 12  1  0
 12 11  1  6
  5 13  1  0
 10 13  2  0
 13 14  1  0
 14 15  1  0
 16 17  1  0
 16 18  1  0
 16 19  1  0
  9 21  1  0
 22 23  2  0
 23 24  1  0
 24 25  2  0
 12 26  1  0
 25 26  1  0
 22 27  1  0
 26 27  2  0
 28 29  2  0
 16 30  1  0
 29 30  1  0
 30 31  2  0
 31 32  1  0
  5 33  1  0
 28 33  1  0
 32 33  2  0
  1 34  1  0
 34  9  1  6
  6 35  1  0
 34 35  1  0
 35 36  1  6
 36 37  1  0
 38 20  1  1
 37 38  1  0
  1 39  1  0
 34 39  1  0
 39 38  1  1
M  END
