x3110-x1375
     RDKit          3D

 48 51  0  0  0  0  0  0  0  0999 V2000
    8.0660    1.1860   23.2450 N   0  0  0  0  0  0  0  0  0  0  0  0
   13.2620    5.2920   21.9260 C   0  0  0  0  0  0  0  0  0  0  0  0
   11.8640    3.4380   22.5040 O   0  0  0  0  0  0  0  0  0  0  0  0
   12.8470    4.1330   22.7640 C   0  0  0  0  0  0  0  0  0  0  0  0
    6.8090   -1.5270   21.9520 N   0  0  0  0  0  0  0  0  0  0  0  0
   10.7760    4.3310   24.1490 O   0  0  0  0  0  0  0  0  0  0  0  0
   11.0130    3.4030   23.3940 C   0  0  0  0  0  0  0  0  0  0  0  0
    8.4070    1.2490   20.9710 O   0  0  0  0  0  0  0  0  0  0  0  0
   10.3530    2.1550   23.4200 C   0  0  0  0  0  0  0  0  0  0  0  0
    4.7570   -2.9890   21.3480 O   0  0  0  0  0  0  0  0  0  0  0  0
    8.9490    2.2770   23.4950 C   0  0  0  0  0  0  0  0  0  0  0  0
    7.7130    0.7860   21.8990 C   0  0  0  0  0  0  0  0  0  0  0  0
    6.5790   -0.0590   21.6370 C   0  0  1  0  0  0  0  0  0  0  0  0
    6.0300   -2.7320   21.4860 C   0  0  0  0  0  0  0  0  0  0  0  0
    6.9000   -3.8650   21.1140 C   0  0  1  0  0  0  0  0  0  0  0  0
    7.3230   -3.3100   19.7300 C   0  0  0  0  0  0  0  0  0  0  0  0
   12.2570   -1.7710   24.1230 C   0  0  0  0  0  0  0  0  0  0  0  0
   12.5120   -0.5290   24.9520 C   0  0  0  0  0  0  0  0  0  0  0  0
   13.2770   -1.7790   22.9800 C   0  0  0  0  0  0  0  0  0  0  0  0
   12.6010   -2.9510   25.0410 C   0  0  0  0  0  0  0  0  0  0  0  0
   10.2950   -4.9490   26.0460 F   0  0  0  0  0  0  0  0  0  0  0  0
    6.3860    0.4430   17.8990 N   0  0  0  0  0  0  0  0  0  0  0  0
    5.2260    1.2770   17.7440 C   0  0  0  0  0  0  0  0  0  0  0  0
    4.5580    1.5990   18.9300 C   0  0  0  0  0  0  0  0  0  0  0  0
    4.9720    1.1670   20.1820 C   0  0  0  0  0  0  0  0  0  0  0  0
    6.0980    0.3810   20.2830 C   0  0  0  0  0  0  0  0  0  0  0  0
    6.7510    0.0510   19.1260 C   0  0  0  0  0  0  0  0  0  0  0  0
    9.2720   -1.6910   21.6890 C   0  0  0  0  0  0  0  0  0  0  0  0
   10.6140   -1.7520   22.1730 C   0  0  0  0  0  0  0  0  0  0  0  0
   10.8160   -1.7400   23.5660 C   0  0  0  0  0  0  0  0  0  0  0  0
    9.7040   -1.6800   24.4170 C   0  0  0  0  0  0  0  0  0  0  0  0
    8.3960   -1.6240   23.9140 C   0  0  0  0  0  0  0  0  0  0  0  0
    8.1560   -1.6230   22.5350 C   0  0  0  0  0  0  0  0  0  0  0  0
    8.8920   -3.7700   22.8610 C   0  0  0  0  0  0  0  0  0  0  0  0
    9.8510   -3.8990   23.9930 C   0  0  0  0  0  0  0  0  0  0  0  0
    9.5020   -4.7470   24.9910 C   0  0  0  0  0  0  0  0  0  0  0  0
    8.1270   -5.4800   24.8060 C   0  0  0  0  0  0  0  0  0  0  0  0
    7.2180   -5.2110   23.5070 C   0  0  0  0  0  0  0  0  0  0  0  0
    7.7010   -4.1970   22.3980 C   0  0  0  0  0  0  0  0  0  0  0  0
    2.1450   -6.6100   24.4140 O   0  0  0  0  0  0  0  0  0  0  0  0
    4.3900   -7.9400   24.8570 O   0  0  0  0  0  0  0  0  0  0  0  0
    5.5340   -4.6960   24.5980 C   0  0  0  0  0  0  0  0  0  0  0  0
    5.4880   -5.6060   23.3070 C   0  0  0  0  0  0  0  0  0  0  0  0
    4.2620   -6.0440   22.8690 C   0  0  0  0  0  0  0  0  0  0  0  0
    3.7370   -6.5880   24.3940 S   0  0  0  0  0  0  0  0  0  0  0  0
    4.4530   -5.3290   25.2100 C   0  0  0  0  0  0  0  0  0  0  0  0
    8.0440   -4.6820   23.7460 C   0  0  0  0  0  0  0  0  0  0  0  0
    6.6730   -4.1760   23.7370 C   0  0  0  0  0  0  0  0  0  0  0  0
  2  4  1  0
  3  4  1  0
  3  7  1  0
  6  7  2  0
  7  9  1  0
  1 11  1  0
  9 11  1  0
  1 12  1  0
  8 12  2  0
  5 13  1  0
 13 12  1  6
  5 14  1  0
 10 14  2  0
 14 15  1  0
 15 16  1  6
 17 18  1  0
 17 19  1  0
 17 20  1  0
 22 23  2  0
 23 24  1  0
 24 25  2  0
 13 26  1  0
 25 26  1  0
 22 27  1  0
 26 27  2  0
 28 29  2  0
 17 30  1  0
 29 30  1  0
 30 31  2  0
 31 32  1  0
  5 33  1  0
 28 33  1  0
 32 33  2  0
 34 35  2  0
 21 36  1  0
 35 36  1  0
 36 37  2  0
 37 38  1  0
 15 39  1  0
 34 39  1  0
 38 39  2  0
 42 43  1  0
 43 44  1  0
 45 40  1  0
 41 45  1  0
 44 45  1  0
 42 46  2  0
 45 46  1  0
 34 47  1  0
 42 48  1  0
 47 48  1  0
M  END
