x3117-x2572
     RDKit          3D

 35 37  0  0  0  0  0  0  0  0999 V2000
    6.8770   -1.6340   21.8960 N   0  0  0  0  0  0  0  0  0  0  0  0
    6.6710   -4.8560   20.4130 C   0  0  0  0  0  0  0  0  0  0  0  0
    4.7900   -2.9900   21.2760 O   0  0  0  0  0  0  0  0  0  0  0  0
    6.8060   -4.1200   21.7490 C   0  0  0  0  0  0  0  0  0  0  0  0
    7.5360    1.7240   23.1840 N   0  0  0  0  0  0  0  0  0  0  0  0
    8.7760    0.7930   21.4420 O   0  0  0  0  0  0  0  0  0  0  0  0
    6.0460   -2.8290   21.6140 C   0  0  0  0  0  0  0  0  0  0  0  0
    6.5540   -0.1900   21.6900 C   0  0  1  0  0  0  0  0  0  0  0  0
    7.7160    0.7660   22.0630 C   0  0  0  0  0  0  0  0  0  0  0  0
   12.1760   -1.8800   24.4560 C   0  0  0  0  0  0  0  0  0  0  0  0
   12.4810   -0.7320   25.1630 C   0  0  0  0  0  0  0  0  0  0  0  0
   13.2280   -2.0160   23.6420 C   0  0  0  0  0  0  0  0  0  0  0  0
   12.1100   -3.1260   25.3340 C   0  0  0  0  0  0  0  0  0  0  0  0
    4.2640    1.7320   21.4460 C   0  0  0  0  0  0  0  0  0  0  0  0
    6.3400    0.2560   17.8310 N   0  0  0  0  0  0  0  0  0  0  0  0
    5.2290    1.2100   17.7580 C   0  0  0  0  0  0  0  0  0  0  0  0
    4.5040    1.7190   18.9890 C   0  0  0  0  0  0  0  0  0  0  0  0
    4.8960    1.2750   20.3660 C   0  0  0  0  0  0  0  0  0  0  0  0
    6.0730    0.2810   20.3640 C   0  0  0  0  0  0  0  0  0  0  0  0
    6.7340   -0.1810   19.0680 C   0  0  0  0  0  0  0  0  0  0  0  0
    9.7820    5.0080   24.0350 O   0  0  0  0  0  0  0  0  0  0  0  0
   10.6160    3.9500   23.5630 C   0  0  0  0  0  0  0  0  0  0  0  0
    9.8140    2.6190   23.6030 C   0  0  0  0  0  0  0  0  0  0  0  0
    8.3120    2.9520   23.4880 C   0  0  0  0  0  0  0  0  0  0  0  0
    8.0490    4.0070   22.6150 C   0  0  0  0  0  0  0  0  0  0  0  0
    8.7580    5.3050   23.0770 C   0  0  0  0  0  0  0  0  0  0  0  0
    9.2710   -2.1050   21.7720 C   0  0  0  0  0  0  0  0  0  0  0  0
   10.6520   -2.1860   22.3570 C   0  0  0  0  0  0  0  0  0  0  0  0
   10.8270   -1.8170   23.8020 C   0  0  0  0  0  0  0  0  0  0  0  0
    9.6540   -1.4280   24.4620 C   0  0  0  0  0  0  0  0  0  0  0  0
    8.3860   -1.3750   23.8470 C   0  0  0  0  0  0  0  0  0  0  0  0
    8.1760   -1.7090   22.5030 C   0  0  0  0  0  0  0  0  0  0  0  0
   13.8840   -1.3310   20.4520 N   0  0  0  0  0  0  0  0  0  0  0  0
   13.1300   -1.8230   21.3550 C   0  0  0  0  0  0  0  0  0  0  0  0
   13.1480   -1.0420   22.4900 C   0  0  0  0  0  0  0  0  0  0  0  0
  2  4  1  0
  1  7  1  0
  3  7  2  0
  4  7  1  0
  1  8  1  0
  5  9  1  0
  6  9  2  0
  8  9  1  6
 10 11  1  0
 10 12  1  0
 10 13  1  0
 15 16  2  0
 16 17  1  0
 14 18  1  0
 17 18  2  0
  8 19  1  0
 18 19  1  0
 15 20  1  0
 19 20  2  0
 21 22  1  0
 22 23  1  0
  5 24  1  0
 23 24  1  0
 24 25  1  0
 21 26  1  0
 25 26  1  0
 27 28  2  0
 10 29  1  0
 28 29  1  0
 29 30  2  0
 30 31  1  0
  1 32  1  0
 27 32  1  0
 31 32  2  0
 33 34  3  0
 12 35  1  0
 34 35  1  0
M  END
