x3115-x0305
     RDKit          3D

 36 37  0  0  0  0  0  0  0  0999 V2000
    6.8950   -1.8080   21.6210 N   0  0  0  0  0  0  0  0  0  0  0  0
    6.6930   -5.0090   20.4310 C   0  0  0  0  0  0  0  0  0  0  0  0
    4.8280   -3.0310   21.2020 O   0  0  0  0  0  0  0  0  0  0  0  0
    6.7060   -4.2980   21.7600 C   0  0  0  0  0  0  0  0  0  0  0  0
    7.2170    1.5930   22.9750 N   0  0  0  0  0  0  0  0  0  0  0  0
    8.5960    0.7940   21.3170 O   0  0  0  0  0  0  0  0  0  0  0  0
    6.0590   -2.9840   21.5130 C   0  0  0  0  0  0  0  0  0  0  0  0
    8.5020    5.1520   23.0670 O   0  0  0  0  0  0  0  0  0  0  0  0
    6.4670   -0.3330   21.5760 C   0  0  1  0  0  0  0  0  0  0  0  0
    7.5440    0.7170   21.9430 C   0  0  0  0  0  0  0  0  0  0  0  0
    8.0940    2.6850   23.2790 C   0  0  0  0  0  0  0  0  0  0  0  0
    7.8200    4.0190   22.4970 C   0  0  0  0  0  0  0  0  0  0  0  0
    8.3640    6.2920   22.3280 C   0  0  0  0  0  0  0  0  0  0  0  0
   12.0240   -1.8390   24.2690 C   0  0  1  0  0  0  0  0  0  0  0  0
   13.1780   -2.0780   23.5820 C   0  0  0  0  0  0  0  0  0  0  0  0
   12.7640   -3.0260   24.9220 C   0  0  0  0  0  0  0  0  0  0  0  0
   12.0530   -0.5740   25.0790 C   0  0  0  0  0  0  0  0  0  0  0  0
    6.3500    0.4740   17.8440 N   0  0  0  0  0  0  0  0  0  0  0  0
    5.1790    1.3450   17.7250 C   0  0  0  0  0  0  0  0  0  0  0  0
    4.4470    1.6140   18.8800 C   0  0  0  0  0  0  0  0  0  0  0  0
    4.8040    1.0990   20.1130 C   0  0  0  0  0  0  0  0  0  0  0  0
    5.9210    0.2860   20.2330 C   0  0  0  0  0  0  0  0  0  0  0  0
    6.6640   -0.0170   19.1220 C   0  0  0  0  0  0  0  0  0  0  0  0
    9.3280   -1.3140   21.6410 C   0  0  0  0  0  0  0  0  0  0  0  0
   10.5400   -1.3570   22.3270 C   0  0  0  0  0  0  0  0  0  0  0  0
   10.6830   -1.9390   23.5670 C   0  0  0  0  0  0  0  0  0  0  0  0
    9.5670   -2.5440   24.1300 C   0  0  0  0  0  0  0  0  0  0  0  0
    8.3370   -2.5120   23.4750 C   0  0  0  0  0  0  0  0  0  0  0  0
    8.2270   -1.8780   22.2390 C   0  0  0  0  0  0  0  0  0  0  0  0
   13.1330   -1.9030   21.2510 C   0  0  0  0  0  0  0  0  0  0  0  0
   13.8240   -1.3920   20.5160 N   0  0  0  0  0  0  0  0  0  0  0  0
   13.2000   -1.1570   22.3980 C   0  0  0  0  0  0  0  0  0  0  0  0
    8.5160    0.2720   27.2170 C   0  0  0  0  0  0  0  0  0  0  0  0
    8.3560    0.2020   25.8220 C   0  0  0  0  0  0  0  0  0  0  0  0
    9.6600    0.3870   25.1930 N   0  0  0  0  0  0  0  0  0  0  0  0
   10.6490   -0.5080   25.7140 C   0  0  0  0  0  0  0  0  0  0  0  0
  2  4  1  0
  1  7  1  0
  3  7  2  0
  4  7  1  0
  1  9  1  0
  5 10  1  0
  6 10  2  0
  9 10  1  6
  5 11  1  0
  8 12  1  0
 11 12  1  0
  8 13  1  0
 14 15  1  0
 14 16  1  1
 14 17  1  0
 18 19  2  0
 19 20  1  0
 20 21  2  0
  9 22  1  0
 21 22  1  0
 18 23  1  0
 22 23  2  0
 24 25  2  0
 14 26  1  0
 25 26  1  0
 26 27  2  0
 27 28  1  0
  1 29  1  0
 24 29  1  0
 28 29  2  0
 30 31  3  0
 15 32  1  0
 30 32  1  0
 33 34  1  0
 34 35  1  0
 17 36  1  0
 35 36  1  0
M  END
