x3115-x2193
     RDKit          3D

 37 39  0  0  0  0  0  0  0  0999 V2000
    6.9830   -1.6170   21.7630 N   0  0  0  0  0  0  0  0  0  0  0  0
    6.8100   -4.5970   20.1710 C   0  0  0  0  0  0  0  0  0  0  0  0
    4.8380   -3.0360   21.2640 O   0  0  0  0  0  0  0  0  0  0  0  0
    6.9240   -4.0830   21.5690 C   0  0  0  0  0  0  0  0  0  0  0  0
    8.2630    1.3900   23.1500 N   0  0  0  0  0  0  0  0  0  0  0  0
    8.5910    1.2030   20.9040 O   0  0  0  0  0  0  0  0  0  0  0  0
    6.1330   -2.8320   21.5240 C   0  0  0  0  0  0  0  0  0  0  0  0
    8.4570    5.0340   23.0940 O   0  0  0  0  0  0  0  0  0  0  0  0
    6.7020   -0.0900   21.6770 C   0  0  1  0  0  0  0  0  0  0  0  0
    7.9390    0.8670   21.8870 C   0  0  0  0  0  0  0  0  0  0  0  0
    7.7620    2.6890   23.4690 C   0  0  0  0  0  0  0  0  0  0  0  0
    8.1630    3.7990   22.4350 C   0  0  0  0  0  0  0  0  0  0  0  0
    8.2520    6.1370   22.3120 C   0  0  0  0  0  0  0  0  0  0  0  0
   12.1650   -1.7750   24.1870 C   0  0  0  0  0  0  0  0  0  0  0  0
   13.2950   -2.2280   23.4950 C   0  0  0  0  0  0  0  0  0  0  0  0
   12.8110   -2.9800   24.9270 C   0  0  0  0  0  0  0  0  0  0  0  0
   12.4150   -0.4940   24.9700 C   0  0  0  0  0  0  0  0  0  0  0  0
    9.6510    1.3480   23.4820 C   0  0  0  0  0  0  0  0  0  0  0  0
    6.2850    0.3670   17.8720 N   0  0  0  0  0  0  0  0  0  0  0  0
    5.1340    1.1080   17.8470 C   0  0  0  0  0  0  0  0  0  0  0  0
    4.4250    1.4780   18.9940 C   0  0  0  0  0  0  0  0  0  0  0  0
    4.9030    1.0910   20.2440 C   0  0  0  0  0  0  0  0  0  0  0  0
    6.0560    0.3570   20.3870 C   0  0  0  0  0  0  0  0  0  0  0  0
    6.7360   -0.0080   19.2230 C   0  0  0  0  0  0  0  0  0  0  0  0
    9.4200   -1.3830   21.7020 C   0  0  0  0  0  0  0  0  0  0  0  0
   10.6780   -1.4040   22.2150 C   0  0  0  0  0  0  0  0  0  0  0  0
   10.7810   -1.7830   23.4980 C   0  0  0  0  0  0  0  0  0  0  0  0
    9.6250   -2.1480   24.1750 C   0  0  0  0  0  0  0  0  0  0  0  0
    8.2170   -2.2060   23.8000 C   0  0  0  0  0  0  0  0  0  0  0  0
    8.2880   -1.7430   22.4410 C   0  0  0  0  0  0  0  0  0  0  0  0
    8.9480   -6.2710   26.3580 N   0  0  0  0  0  0  0  0  0  0  0  0
    8.0800   -5.3920   26.9520 C   0  0  0  0  0  0  0  0  0  0  0  0
    8.6490   -4.1440   26.8950 C   0  0  0  0  0  0  0  0  0  0  0  0
    9.1710   -3.6680   25.5810 N   0  0  0  0  0  0  0  0  0  0  0  0
    9.4760   -4.5980   24.6860 C   0  0  0  0  0  0  0  0  0  0  0  0
    9.0190   -5.8960   24.9240 C   0  0  0  0  0  0  0  0  0  0  0  0
    8.4080   -2.6250   25.1080 C   0  0  0  0  0  0  0  0  0  0  0  0
  2  4  1  0
  1  7  1  0
  3  7  2  0
  4  7  1  0
  1  9  1  0
  5 10  1  0
  6 10  2  0
  9 10  1  6
  5 11  1  0
  8 12  1  0
 11 12  1  0
  8 13  1  0
 14 15  1  0
 14 16  1  0
 14 17  1  0
  5 18  1  0
 19 20  2  0
 20 21  1  0
 21 22  2  0
  9 23  1  0
 22 23  1  0
 19 24  1  0
 23 24  2  0
 25 26  2  0
 14 27  1  0
 26 27  1  0
 27 28  2  0
 28 29  1  0
  1 30  1  0
 25 30  1  0
 29 30  2  0
 31 32  1  0
 32 33  1  0
 33 34  1  0
 34 35  1  0
 31 36  1  0
 35 36  1  0
 29 37  1  0
 34 37  1  0
M  END
