x3115-x0786-x0731-x3110
     RDKit          3D

 58 62  0  0  0  0  0  0  0  0999 V2000
    7.9410    1.4890   22.9270 N   0  0  0  0  0  0  0  0  0  0  0  0
   13.3820    5.1200   22.8410 C   0  0  0  0  0  0  0  0  0  0  0  0
   11.8780    3.2590   22.5200 O   0  0  0  0  0  0  0  0  0  0  0  0
   12.3580    4.4750   21.9250 C   0  0  0  0  0  0  0  0  0  0  0  0
    7.0510   -1.6270   21.5640 N   0  0  0  0  0  0  0  0  0  0  0  0
   11.1630    4.5270   24.2510 O   0  0  0  0  0  0  0  0  0  0  0  0
   11.0680    3.5150   23.5780 C   0  0  0  0  0  0  0  0  0  0  0  0
    8.4970    1.2130   20.7940 O   0  0  0  0  0  0  0  0  0  0  0  0
   10.0580    2.4030   23.7830 C   0  0  0  0  0  0  0  0  0  0  0  0
    5.0160   -3.1580   20.9180 O   0  0  0  0  0  0  0  0  0  0  0  0
    8.7750    2.6090   22.9510 C   0  0  2  0  0  0  0  0  0  0  0  0
    7.7580    0.8680   21.7000 C   0  0  0  0  0  0  0  0  0  0  0  0
    6.5750   -0.1770   21.5260 C   0  0  1  0  0  0  0  0  0  0  0  0
    6.2560   -2.8590   21.4280 C   0  0  0  0  0  0  0  0  0  0  0  0
    6.9670   -4.0320   22.0890 C   0  0  2  0  0  0  0  0  0  0  0  0
    7.4600   -5.1310   21.1210 C   0  0  0  0  0  0  0  0  0  0  0  0
   12.2900   -1.8230   24.1170 C   0  0  0  0  0  0  0  0  0  0  0  0
   12.4260   -0.5770   24.9830 C   0  0  0  0  0  0  0  0  0  0  0  0
   13.3750   -1.7760   23.0370 C   0  0  0  0  0  0  0  0  0  0  0  0
   12.6370   -3.0260   24.9960 C   0  0  0  0  0  0  0  0  0  0  0  0
    8.7500    5.1190   23.0660 O   0  0  0  0  0  0  0  0  0  0  0  0
    8.0160    3.9130   23.3210 C   0  0  0  0  0  0  0  0  0  0  0  0
    8.1980    5.9630   22.3430 C   0  0  0  0  0  0  0  0  0  0  0  0
    4.0410   -7.9250   25.0470 O   0  0  0  0  0  0  0  0  0  0  0  0
    3.4690   -6.9360   24.6050 C   0  0  0  0  0  0  0  0  0  0  0  0
    1.6670   -0.8940   26.6380 C   0  0  0  0  0  0  0  0  0  0  0  0
    6.4960   -4.7950   24.9660 O   0  0  0  0  0  0  0  0  0  0  0  0
    4.3600   -5.9250   25.3510 O   0  0  0  0  0  0  0  0  0  0  0  0
    5.1230   -5.0110   24.4970 S   0  0  0  0  0  0  0  0  0  0  0  0
    6.3250    0.4630   17.8390 N   0  0  0  0  0  0  0  0  0  0  0  0
    5.2520    1.2510   17.7830 C   0  0  0  0  0  0  0  0  0  0  0  0
    4.5310    1.6130   18.8820 C   0  0  0  0  0  0  0  0  0  0  0  0
    4.9750    1.1240   20.0980 C   0  0  0  0  0  0  0  0  0  0  0  0
    6.1150    0.2960   20.1720 C   0  0  0  0  0  0  0  0  0  0  0  0
    6.7840   -0.0380   19.0350 C   0  0  0  0  0  0  0  0  0  0  0  0
    9.4650   -1.3190   21.6110 C   0  0  0  0  0  0  0  0  0  0  0  0
   10.7430   -1.3600   22.1990 C   0  0  0  0  0  0  0  0  0  0  0  0
   10.8800   -1.8190   23.4970 C   0  0  0  0  0  0  0  0  0  0  0  0
    9.7550   -2.2450   24.1960 C   0  0  0  0  0  0  0  0  0  0  0  0
    8.4660   -2.2170   23.6230 C   0  0  0  0  0  0  0  0  0  0  0  0
    8.3100   -1.7370   22.2890 C   0  0  0  0  0  0  0  0  0  0  0  0
    5.7930   -4.2830   23.0550 C   0  0  0  0  0  0  0  0  0  0  0  0
    5.2220   -5.5530   23.4070 C   0  0  0  0  0  0  0  0  0  0  0  0
    4.1780   -5.6100   24.4480 C   0  0  0  0  0  0  0  0  0  0  0  0
    3.7590   -4.4200   25.1970 C   0  0  1  0  0  0  0  0  0  0  0  0
    4.3440   -3.4470   24.5470 C   0  0  0  0  0  0  0  0  0  0  0  0
    5.2500   -3.1620   23.6160 C   0  0  0  0  0  0  0  0  0  0  0  0
    1.5570   -6.0200   23.1730 C   0  0  0  0  0  0  0  0  0  0  0  0
    0.3330   -5.3830   23.5190 C   0  0  0  0  0  0  0  0  0  0  0  0
   -0.9360   -6.4790   24.2330 S   0  0  0  0  0  0  0  0  0  0  0  0
    0.1050   -7.6500   25.1740 C   0  0  0  0  0  0  0  0  0  0  0  0
    1.2860   -8.0980   24.4810 C   0  0  0  0  0  0  0  0  0  0  0  0
    2.1300   -6.9500   24.1650 N   0  0  0  0  0  0  0  0  0  0  0  0
    2.3530   -2.0230   25.9690 C   0  0  2  0  0  0  0  0  0  0  0  0
    1.5910   -3.0210   25.4030 C   0  0  0  0  0  0  0  0  0  0  0  0
    2.2820   -4.2910   24.9890 C   0  0  0  0  0  0  0  0  0  0  0  0
    4.0750   -3.9090   26.5950 C   0  0  0  0  0  0  0  0  0  0  0  0
    3.3510   -2.7060   26.9150 C   0  0  0  0  0  0  0  0  0  0  0  0
  2  4  1  0
  3  4  1  0
  3  7  1  0
  6  7  2  0
  7  9  1  0
  1 11  1  0
 11  9  1  1
  1 12  1  0
  8 12  2  0
  5 13  1  0
 13 12  1  6
  5 14  1  0
 10 14  2  0
 14 15  1  0
 15 16  1  6
 17 18  1  0
 17 19  1  0
 17 20  1  0
 11 22  1  0
 21 22  1  0
 21 23  1  0
 24 25  2  0
 27 29  2  0
 28 29  2  0
 30 31  2  0
 31 32  1  0
 32 33  2  0
 13 34  1  0
 33 34  1  0
 30 35  1  0
 34 35  2  0
 36 37  2  0
 17 38  1  0
 37 38  1  0
 38 39  2  0
 39 40  1  0
  5 41  1  0
 36 41  1  0
 40 41  2  0
 15 42  1  0
 42 43  1  0
 25 44  1  0
 43 44  2  0
 45 44  1  0
 29 46  1  0
 45 46  1  0
 42 47  1  0
 46 47  2  0
 48 49  1  0
 49 50  1  0
 50 51  1  0
 51 52  1  0
 25 53  1  0
 48 53  1  0
 52 53  1  0
 54 26  1  1
 54 55  1  0
 45 56  1  1
 55 56  2  0
 45 57  1  0
 54 58  1  0
 57 58  2  0
M  END
