x3110-x0995
     RDKit          3D

 33 34  0  0  0  0  0  0  0  0999 V2000
    8.0380    1.0200   23.2400 N   0  0  0  0  0  0  0  0  0  0  0  0
   13.3630    5.1400   22.8920 C   0  0  0  0  0  0  0  0  0  0  0  0
   12.0000    3.2180   22.4820 O   0  0  0  0  0  0  0  0  0  0  0  0
   12.3570    4.5040   21.9580 C   0  0  0  0  0  0  0  0  0  0  0  0
    6.9880   -1.7570   21.7150 N   0  0  0  0  0  0  0  0  0  0  0  0
   10.8110    4.2460   24.1280 O   0  0  0  0  0  0  0  0  0  0  0  0
   11.0460    3.2630   23.4430 C   0  0  0  0  0  0  0  0  0  0  0  0
    8.5920    1.3220   21.0690 O   0  0  0  0  0  0  0  0  0  0  0  0
   10.3180    1.9460   23.5520 C   0  0  0  0  0  0  0  0  0  0  0  0
    4.7920   -2.9790   21.2400 O   0  0  0  0  0  0  0  0  0  0  0  0
    8.8170    2.1650   23.7000 C   0  0  0  0  0  0  0  0  0  0  0  0
    7.8580    0.7400   21.8910 C   0  0  0  0  0  0  0  0  0  0  0  0
    6.6730   -0.2710   21.5180 C   0  0  1  0  0  0  0  0  0  0  0  0
    6.0880   -2.9100   21.3630 C   0  0  0  0  0  0  0  0  0  0  0  0
    6.7390   -4.2380   21.1170 C   0  0  0  0  0  0  0  0  0  0  0  0
    8.2130   -4.1850   20.8380 C   0  0  0  0  0  0  0  0  0  0  0  0
   12.3200   -1.8350   24.0800 C   0  0  0  0  0  0  0  0  0  0  0  0
   12.5180   -0.5920   24.9460 C   0  0  0  0  0  0  0  0  0  0  0  0
   13.3430   -1.7720   22.9510 C   0  0  0  0  0  0  0  0  0  0  0  0
   12.6770   -3.0250   24.9630 C   0  0  0  0  0  0  0  0  0  0  0  0
    3.3940    2.1820   18.9450 N   0  0  0  0  0  0  0  0  0  0  0  0
    6.3330    0.4070   17.8060 N   0  0  0  0  0  0  0  0  0  0  0  0
    5.2100    1.1440   17.8490 C   0  0  0  0  0  0  0  0  0  0  0  0
    4.5120    1.4420   18.9940 C   0  0  0  0  0  0  0  0  0  0  0  0
    5.0030    0.9590   20.1800 C   0  0  0  0  0  0  0  0  0  0  0  0
    6.1680    0.1960   20.1920 C   0  0  0  0  0  0  0  0  0  0  0  0
    6.7860   -0.0530   18.9810 C   0  0  0  0  0  0  0  0  0  0  0  0
    9.3830   -1.3730   21.6380 C   0  0  0  0  0  0  0  0  0  0  0  0
   10.6730   -1.3870   22.1900 C   0  0  0  0  0  0  0  0  0  0  0  0
   10.9070   -1.8640   23.4690 C   0  0  0  0  0  0  0  0  0  0  0  0
    9.8020   -2.3470   24.1650 C   0  0  0  0  0  0  0  0  0  0  0  0
    8.5060   -2.3450   23.6330 C   0  0  0  0  0  0  0  0  0  0  0  0
    8.2870   -1.8450   22.3550 C   0  0  0  0  0  0  0  0  0  0  0  0
  2  4  1  0
  3  4  1  0
  3  7  1  0
  6  7  2  0
  7  9  1  0
  1 11  1  0
  9 11  1  0
  1 12  1  0
  8 12  2  0
  5 13  1  0
 13 12  1  6
  5 14  1  0
 10 14  2  0
 14 15  1  0
 15 16  1  0
 17 18  1  0
 17 19  1  0
 17 20  1  0
 22 23  2  0
 21 24  1  0
 23 24  1  0
 24 25  2  0
 13 26  1  0
 25 26  1  0
 22 27  1  0
 26 27  2  0
 28 29  2  0
 17 30  1  0
 29 30  1  0
 30 31  2  0
 31 32  1  0
  5 33  1  0
 28 33  1  0
 32 33  2  0
M  END
