x3110-x0691-x3113
     RDKit          3D

 50 54  0  0  0  0  0  0  0  0999 V2000
    7.9130    1.3020   23.3140 N   0  0  0  0  0  0  0  0  0  0  0  0
   13.3620    5.1290   22.8730 C   0  0  0  0  0  0  0  0  0  0  0  0
   12.1010    3.3320   22.4240 O   0  0  0  0  0  0  0  0  0  0  0  0
   12.3560    4.4540   21.9700 C   0  0  0  0  0  0  0  0  0  0  0  0
    6.8700   -1.7320   21.9820 C   0  0  2  0  0  0  0  0  0  0  0  0
   10.8910    4.2660   24.0950 O   0  0  0  0  0  0  0  0  0  0  0  0
   11.1330    3.3060   23.3900 C   0  0  0  0  0  0  0  0  0  0  0  0
    8.3780    1.3590   20.8280 O   0  0  0  0  0  0  0  0  0  0  0  0
   10.3490    1.9830   23.5490 C   0  0  0  0  0  0  0  0  0  0  0  0
    4.8300   -2.9220   20.7760 O   0  0  0  0  0  0  0  0  0  0  0  0
    8.8590    2.3130   23.4120 C   0  0  0  0  0  0  0  0  0  0  0  0
    7.6380    0.8160   21.9240 C   0  0  0  0  0  0  0  0  0  0  0  0
    6.5100   -0.2560   21.6320 C   0  0  1  0  0  0  0  0  0  0  0  0
    6.0760   -2.8930   21.1320 C   0  0  0  0  0  0  0  0  0  0  0  0
    6.7110   -4.1760   20.9360 C   0  0  1  0  0  0  0  0  0  0  0  0
    8.2020   -4.1540   20.6420 C   0  0  0  0  0  0  0  0  0  0  0  0
   12.3590   -1.7880   24.1130 C   0  0  0  0  0  0  0  0  0  0  0  0
   12.4870   -0.5850   24.8130 C   0  0  0  0  0  0  0  0  0  0  0  0
   13.3170   -1.9340   22.9680 C   0  0  0  0  0  0  0  0  0  0  0  0
   12.7270   -2.9190   25.0250 C   0  0  0  0  0  0  0  0  0  0  0  0
    3.8710   -6.9060   26.3890 O   0  0  0  0  0  0  0  0  0  0  0  0
    5.7360   -5.1630   27.1130 O   0  0  0  0  0  0  0  0  0  0  0  0
    3.2570   -0.6130   25.9830 F   0  0  0  0  0  0  0  0  0  0  0  0
    4.6680   -5.5800   26.0110 S   0  0  0  0  0  0  0  0  0  0  0  0
    6.3160   -2.2640   23.2630 C   0  0  0  0  0  0  0  0  0  0  0  0
    5.5140   -3.5600   22.9560 C   0  0  0  0  0  0  0  0  0  0  0  0
    6.4280    0.3980   17.8030 N   0  0  0  0  0  0  0  0  0  0  0  0
    5.3120    1.2690   17.8270 C   0  0  0  0  0  0  0  0  0  0  0  0
    4.6250    1.6120   18.9840 C   0  0  0  0  0  0  0  0  0  0  0  0
    5.0410    1.0880   20.2080 C   0  0  0  0  0  0  0  0  0  0  0  0
    6.1400    0.2340   20.2100 C   0  0  0  0  0  0  0  0  0  0  0  0
    6.8310   -0.1200   19.0520 C   0  0  0  0  0  0  0  0  0  0  0  0
    9.4870   -1.4370   21.7510 C   0  0  0  0  0  0  0  0  0  0  0  0
   10.7860   -1.4650   22.3040 C   0  0  0  0  0  0  0  0  0  0  0  0
   10.8950   -1.8430   23.6350 C   0  0  0  0  0  0  0  0  0  0  0  0
    9.8470   -2.2020   24.4330 C   0  0  0  0  0  0  0  0  0  0  0  0
    8.5930   -2.1600   23.8370 C   0  0  0  0  0  0  0  0  0  0  0  0
    8.3290   -1.7820   22.5040 C   0  0  0  0  0  0  0  0  0  0  0  0
    2.8970   -1.9040   25.9120 C   0  0  0  0  0  0  0  0  0  0  0  0
    3.8340   -2.9540   25.9790 C   0  0  0  0  0  0  0  0  0  0  0  0
    3.4420   -4.3000   25.9060 C   0  0  0  0  0  0  0  0  0  0  0  0
    2.0890   -4.6230   25.7560 C   0  0  0  0  0  0  0  0  0  0  0  0
    1.1670   -3.5730   25.6910 C   0  0  0  0  0  0  0  0  0  0  0  0
    1.5470   -2.2310   25.7690 C   0  0  0  0  0  0  0  0  0  0  0  0
    6.3440   -4.7340   22.2830 C   0  0  0  0  0  0  0  0  0  0  0  0
    5.5390   -5.9870   22.1130 C   0  0  0  0  0  0  0  0  0  0  0  0
    4.9540   -6.3490   23.4780 C   0  0  0  0  0  0  0  0  0  0  0  0
    5.4550   -5.4080   24.5230 N   0  0  0  0  0  0  0  0  0  0  0  0
    6.9250   -5.1360   24.6160 C   0  0  0  0  0  0  0  0  0  0  0  0
    7.5370   -5.0490   23.1780 C   0  0  0  0  0  0  0  0  0  0  0  0
  2  4  1  0
  3  4  1  0
  3  7  1  0
  6  7  2  0
  7  9  1  0
  1 11  1  0
  9 11  1  0
  1 12  1  0
  8 12  2  0
  5 13  1  0
 13 12  1  6
  5 14  1  0
 10 14  2  0
 14 15  1  0
 15 16  1  1
 17 18  1  0
 17 19  1  0
 17 20  1  0
 21 24  2  0
 22 24  2  0
  5 25  1  0
 25 26  1  0
 27 28  2  0
 28 29  1  0
 29 30  2  0
 13 31  1  0
 30 31  1  0
 27 32  1  0
 31 32  2  0
 33 34  2  0
 17 35  1  0
 34 35  1  0
 35 36  2  0
 36 37  1  0
  5 38  1  1
 33 38  1  0
 37 38  2  0
 23 39  1  0
 39 40  2  0
 24 41  1  0
 40 41  1  0
 41 42  2  0
 42 43  1  0
 39 44  1  0
 43 44  2  0
 15 45  1  0
 45 26  1  0
 45 46  1  0
 46 47  1  0
 24 48  1  0
 47 48  1  0
 48 49  1  0
 45 50  1  0
 49 50  1  0
M  END
