x3117-x2193
     RDKit          3D

 39 43  0  0  0  0  0  0  0  0999 V2000
    6.9520   -1.6450   21.9730 N   0  0  0  0  0  0  0  0  0  0  0  0
    7.1310   -3.4850   19.5470 C   0  0  0  0  0  0  0  0  0  0  0  0
    4.8080   -3.0760   21.4250 O   0  0  0  0  0  0  0  0  0  0  0  0
    6.9870   -3.8970   21.0010 C   0  0  0  0  0  0  0  0  0  0  0  0
    6.7350    2.0220   22.8530 N   0  0  0  0  0  0  0  0  0  0  0  0
    8.1480    0.3470   23.4360 O   0  0  0  0  0  0  0  0  0  0  0  0
    6.1250   -2.8100   21.5080 C   0  0  0  0  0  0  0  0  0  0  0  0
    6.6240   -0.1840   21.7490 C   0  0  1  0  0  0  0  0  0  0  0  0
    7.5410    0.8410   22.5310 C   0  0  1  0  0  0  0  0  0  0  0  0
   12.4530   -1.7770   24.2340 C   0  0  0  0  0  0  0  0  0  0  0  0
   12.6320   -0.6490   25.0180 C   0  0  0  0  0  0  0  0  0  0  0  0
   13.4050   -1.7380   23.2690 C   0  0  0  0  0  0  0  0  0  0  0  0
   12.7950   -2.9870   25.1280 C   0  0  0  0  0  0  0  0  0  0  0  0
    8.8970    1.5400   21.9770 C   0  0  0  0  0  0  0  0  0  0  0  0
    6.4750    0.4000   17.8730 N   0  0  0  0  0  0  0  0  0  0  0  0
    5.3280    1.3320   17.7380 C   0  0  0  0  0  0  0  0  0  0  0  0
    4.5870    1.7550   18.9940 C   0  0  0  0  0  0  0  0  0  0  0  0
    5.0150    1.2480   20.3250 C   0  0  0  0  0  0  0  0  0  0  0  0
    6.2170    0.2950   20.3850 C   0  0  0  0  0  0  0  0  0  0  0  0
    6.9220   -0.1100   19.0880 C   0  0  0  0  0  0  0  0  0  0  0  0
    9.7910    3.9170   22.5610 O   0  0  0  0  0  0  0  0  0  0  0  0
    9.6080    2.5280   23.0510 C   0  0  1  0  0  0  0  0  0  0  0  0
    8.5160    2.6460   24.0590 C   0  0  0  0  0  0  0  0  0  0  0  0
    7.6240    3.0900   22.9810 C   0  0  2  0  0  0  0  0  0  0  0  0
    7.3950    4.4130   22.9610 C   0  0  0  0  0  0  0  0  0  0  0  0
    8.8250    4.9860   22.9320 C   0  0  0  0  0  0  0  0  0  0  0  0
    9.3980   -1.3430   21.7230 C   0  0  0  0  0  0  0  0  0  0  0  0
   10.8410   -1.3570   22.2340 C   0  0  0  0  0  0  0  0  0  0  0  0
   11.0550   -1.7860   23.6640 C   0  0  0  0  0  0  0  0  0  0  0  0
    9.9270   -2.1480   24.3510 C   0  0  0  0  0  0  0  0  0  0  0  0
    8.6360   -2.1260   23.8180 C   0  0  0  0  0  0  0  0  0  0  0  0
    8.3170   -1.7140   22.5130 C   0  0  0  0  0  0  0  0  0  0  0  0
    8.6950   -6.1750   26.1940 N   0  0  0  0  0  0  0  0  0  0  0  0
    8.7430   -5.2650   27.1110 C   0  0  0  0  0  0  0  0  0  0  0  0
    8.5660   -3.9840   26.6030 C   0  0  0  0  0  0  0  0  0  0  0  0
    8.0290   -3.9520   25.2330 N   0  0  0  0  0  0  0  0  0  0  0  0
    9.0060   -4.5820   24.3350 C   0  0  0  0  0  0  0  0  0  0  0  0
    9.4600   -5.7890   25.0000 C   0  0  0  0  0  0  0  0  0  0  0  0
    7.6440   -2.6030   24.8050 C   0  0  0  0  0  0  0  0  0  0  0  0
  2  4  1  0
  1  7  1  0
  3  7  2  0
  4  7  1  0
  8  1  1  6
  5  9  1  0
  9  6  1  1
  8  9  1  0
 10 11  1  0
 10 12  1  0
 10 13  1  0
  9 14  1  0
 15 16  2  0
 16 17  1  0
 17 18  2  0
  8 19  1  0
 18 19  1  0
 15 20  1  0
 19 20  2  0
 22 14  1  6
 21 22  1  0
 22 23  1  0
  5 24  1  0
 23 24  1  0
 24 25  1  1
 21 26  1  0
 25 26  1  0
 27 28  2  0
 10 29  1  0
 28 29  1  0
 29 30  2  0
 30 31  1  0
  1 32  1  0
 27 32  1  0
 31 32  2  0
 33 34  1  0
 34 35  1  0
 35 36  1  0
 36 37  1  0
 33 38  1  0
 37 38  1  0
 31 39  1  0
 36 39  1  0
M  END
