x3115-x0689-x2776-x0771
     RDKit          3D

 58 67  0  0  0  0  0  0  0  0999 V2000
    6.7740   -1.5700   21.9750 C   0  0  1  0  0  0  0  0  0  0  0  0
    6.9370   -4.5860   20.4230 C   0  0  0  0  0  0  0  0  0  0  0  0
    5.1740   -3.4780   20.5760 O   0  0  0  0  0  0  0  0  0  0  0  0
    6.9210   -3.5090   21.4940 C   0  0  1  0  0  0  0  0  0  0  0  0
    7.7710    1.7140   23.1180 N   0  0  0  0  0  0  0  0  0  0  0  0
    8.6350    1.1930   20.9300 O   0  0  0  0  0  0  0  0  0  0  0  0
    5.7970   -2.5290   21.1590 C   0  0  0  0  0  0  0  0  0  0  0  0
    6.4950   -0.0240   21.7120 C   0  0  1  0  0  0  0  0  0  0  0  0
    7.6930    0.9830   21.9580 C   0  0  0  0  0  0  0  0  0  0  0  0
    8.0820    6.9700   22.4500 C   0  0  0  0  0  0  0  0  0  0  0  0
   12.3580   -1.8080   24.0950 C   0  0  0  0  0  0  0  0  0  0  0  0
   13.3120   -1.7860   22.9050 C   0  0  0  0  0  0  0  0  0  0  0  0
   12.7870   -2.9840   24.9700 C   0  0  0  0  0  0  0  0  0  0  0  0
   12.5530   -0.5620   24.9480 C   0  0  0  0  0  0  0  0  0  0  0  0
   10.8750    6.7420   23.6050 O   0  0  0  0  0  0  0  0  0  0  0  0
   10.4410    1.5780   24.1170 C   0  0  0  0  0  0  0  0  0  0  0  0
   11.8220    6.6870   24.6720 C   0  0  0  0  0  0  0  0  0  0  0  0
    5.1490   -7.0380   26.5650 O   0  0  0  0  0  0  0  0  0  0  0  0
    7.3440   -5.8150   26.6990 O   0  0  0  0  0  0  0  0  0  0  0  0
    5.9780   -5.8890   26.2930 S   0  0  0  0  0  0  0  0  0  0  0  0
    6.0780   -2.3310   23.1810 C   0  0  0  0  0  0  0  0  0  0  0  0
    3.3610   -5.2620   24.2600 N   0  0  0  0  0  0  0  0  0  0  0  0
    4.6280   -3.9060   26.2650 O   0  0  0  0  0  0  0  0  0  0  0  0
    4.4770   -4.4000   24.9130 S   0  0  1  0  0  0  0  0  0  0  0  0
    6.3090    0.3880   17.9390 N   0  0  0  0  0  0  0  0  0  0  0  0
    5.1770    1.1430   17.8300 C   0  0  0  0  0  0  0  0  0  0  0  0
    4.4300    1.5260   18.9120 C   0  0  0  0  0  0  0  0  0  0  0  0
    4.8160    1.1580   20.1790 C   0  0  0  0  0  0  0  0  0  0  0  0
    5.9640    0.4000   20.3620 C   0  0  0  0  0  0  0  0  0  0  0  0
    6.6540    0.0490   19.1980 C   0  0  0  0  0  0  0  0  0  0  0  0
    9.3990   -2.1520   21.7270 C   0  0  0  0  0  0  0  0  0  0  0  0
   10.6700   -2.1640   22.3200 C   0  0  0  0  0  0  0  0  0  0  0  0
   10.9380   -1.7580   23.6310 C   0  0  0  0  0  0  0  0  0  0  0  0
    9.8210   -1.3300   24.3530 C   0  0  0  0  0  0  0  0  0  0  0  0
    8.5710   -1.3270   23.7460 C   0  0  0  0  0  0  0  0  0  0  0  0
    8.2880   -1.7190   22.4320 C   0  0  0  0  0  0  0  0  0  0  0  0
    9.8120    2.8800   23.7100 C   0  0  0  0  0  0  0  0  0  0  0  0
   10.6440    4.1830   23.8460 C   0  0  0  0  0  0  0  0  0  0  0  0
   10.1370    5.5920   23.4670 C   0  0  0  0  0  0  0  0  0  0  0  0
    8.7190    5.6440   22.9030 C   0  0  0  0  0  0  0  0  0  0  0  0
    8.0080    4.2950   22.8260 C   0  0  0  0  0  0  0  0  0  0  0  0
    8.5190    2.9210   23.2230 C   0  0  0  0  0  0  0  0  0  0  0  0
    5.4410   -4.9080   22.6020 C   0  0  2  0  0  0  0  0  0  0  0  0
    6.0660   -6.1620   22.1420 C   0  0  0  0  0  0  0  0  0  0  0  0
    5.3930   -6.3400   23.4920 C   0  0  1  0  0  0  0  0  0  0  0  0
    5.8150   -5.4270   24.6310 C   0  0  2  0  0  0  0  0  0  0  0  0
    6.8230   -4.7580   23.7570 C   0  0  2  0  0  0  0  0  0  0  0  0
    6.3340   -3.7880   22.7910 C   0  0  1  0  0  0  0  0  0  0  0  0
    2.0030   -6.4980   25.7400 C   0  0  0  0  0  0  0  0  0  0  0  0
    1.7780   -2.8220   25.9570 C   0  0  0  0  0  0  0  0  0  0  0  0
    1.6720   -4.1570   25.7460 C   0  0  0  0  0  0  0  0  0  0  0  0
    2.3350   -5.0760   26.2170 C   0  0  0  0  0  0  0  0  0  0  0  0
    3.0270   -4.2440   26.8660 C   0  0  0  0  0  0  0  0  0  0  0  0
    2.9830   -2.8210   26.9450 C   0  0  0  0  0  0  0  0  0  0  0  0
    2.2060   -1.7620   26.3990 C   0  0  0  0  0  0  0  0  0  0  0  0
    3.0500   -6.6640   24.6750 C   0  0  0  0  0  0  0  0  0  0  0  0
    0.4060   -0.1860   26.3850 C   0  0  0  0  0  0  0  0  0  0  0  0
    1.9430   -0.3890   26.3390 C   0  0  0  0  0  0  0  0  0  0  0  0
  4  2  1  6
  1  7  1  0
  3  7  2  0
  4  7  1  0
  1  8  1  0
  5  9  1  0
  6  9  2  0
  8  9  1  6
 11 12  1  0
 11 13  1  0
 11 14  1  0
 15 17  1  0
 18 20  2  0
 19 20  2  0
  1 21  1  0
 22 24  2  0
 23 24  2  0
 25 26  2  0
 26 27  1  0
 27 28  2  0
  8 29  1  0
 28 29  1  0
 25 30  1  0
 29 30  2  0
 31 32  2  0
 11 33  1  0
 32 33  1  0
 33 34  2  0
 34 35  1  0
  1 36  1  6
 31 36  1  0
 35 36  2  0
 16 37  1  0
 37 38  2  0
 15 39  1  0
 38 39  1  0
 10 40  1  0
 39 40  2  0
 40 41  1  0
  5 42  1  0
 37 42  1  0
 41 42  2  0
 43 44  1  6
 43 45  1  0
 45 44  1  6
 46 20  1  1
 24 46  1  1
 45 46  1  0
 43 47  1  0
 47 46  1  1
  4 48  1  0
 48 21  1  1
 43 48  1  0
 47 48  1  0
 50 51  1  0
 49 52  1  0
 51 52  2  0
 51 53  1  0
 52 53  1  0
 50 54  1  0
 53 54  2  0
 50 55  2  0
 54 55  1  0
 22 56  1  0
 49 56  1  0
 55 58  1  0
 57 58  1  0
M  END
