x3117-x3110-x1402
     RDKit          3D

 53 59  0  0  0  0  0  0  0  0999 V2000
    7.9860    1.6950   23.2920 N   0  0  0  0  0  0  0  0  0  0  0  0
   13.4800    5.2410   22.7560 C   0  0  0  0  0  0  0  0  0  0  0  0
   11.9620    3.4570   23.3390 O   0  0  0  0  0  0  0  0  0  0  0  0
   12.3720    4.2110   22.4540 C   0  0  0  0  0  0  0  0  0  0  0  0
    6.8110   -1.5600   22.1280 C   0  0  2  0  0  0  0  0  0  0  0  0
   10.7670    3.3240   23.2880 C   0  0  0  0  0  0  0  0  0  0  0  0
    8.7990    0.8120   21.3260 O   0  0  0  0  0  0  0  0  0  0  0  0
   10.0260    2.5070   22.2930 C   0  0  0  0  0  0  0  0  0  0  0  0
    4.8280   -2.9390   20.9590 O   0  0  0  0  0  0  0  0  0  0  0  0
    7.8840    0.8530   22.1410 C   0  0  0  0  0  0  0  0  0  0  0  0
    6.6080    0.0090   21.8350 C   0  0  1  0  0  0  0  0  0  0  0  0
    6.0540   -2.7340   21.3940 C   0  0  0  0  0  0  0  0  0  0  0  0
    6.9860   -3.8540   21.3510 C   0  0  2  0  0  0  0  0  0  0  0  0
    6.8770   -4.5690   20.0570 C   0  0  0  0  0  0  0  0  0  0  0  0
   12.3830   -1.7380   24.1010 C   0  0  0  0  0  0  0  0  0  0  0  0
   12.6160   -0.5450   24.9080 C   0  0  0  0  0  0  0  0  0  0  0  0
   13.3590   -1.7590   22.9630 C   0  0  0  0  0  0  0  0  0  0  0  0
   12.7590   -2.9580   24.9440 C   0  0  0  0  0  0  0  0  0  0  0  0
    0.6910   -1.2030   26.3110 Cl  0  0  0  0  0  0  0  0  0  0  0  0
    3.9530   -6.5980   26.5310 O   0  0  0  0  0  0  0  0  0  0  0  0
    6.0710   -5.4040   27.2170 O   0  0  0  0  0  0  0  0  0  0  0  0
    4.9050   -5.5880   26.1380 S   0  0  0  0  0  0  0  0  0  0  0  0
    6.1140   -2.0840   23.3900 C   0  0  0  0  0  0  0  0  0  0  0  0
    5.5230   -3.5080   23.2320 C   0  0  0  0  0  0  0  0  0  0  0  0
    6.4410    0.2950   18.0150 N   0  0  0  0  0  0  0  0  0  0  0  0
    5.2460    1.1470   17.8910 C   0  0  0  0  0  0  0  0  0  0  0  0
    4.5240    1.5900   18.9520 C   0  0  0  0  0  0  0  0  0  0  0  0
    4.9780    1.2030   20.2110 C   0  0  0  0  0  0  0  0  0  0  0  0
    6.1260    0.3890   20.4500 C   0  0  0  0  0  0  0  0  0  0  0  0
    6.7870   -0.0180   19.2860 C   0  0  0  0  0  0  0  0  0  0  0  0
    9.3790   -2.0960   21.7510 C   0  0  0  0  0  0  0  0  0  0  0  0
   10.7040   -2.1380   22.2200 C   0  0  0  0  0  0  0  0  0  0  0  0
   10.9970   -1.7410   23.5340 C   0  0  0  0  0  0  0  0  0  0  0  0
    9.9520   -1.3170   24.3430 C   0  0  0  0  0  0  0  0  0  0  0  0
    8.6490   -1.2870   23.8540 C   0  0  0  0  0  0  0  0  0  0  0  0
    8.3260   -1.6640   22.5700 C   0  0  0  0  0  0  0  0  0  0  0  0
    9.2090    4.4980   24.7250 O   0  0  0  0  0  0  0  0  0  0  0  0
    9.6010    3.7160   23.8350 C   0  0  0  0  0  0  0  0  0  0  0  0
    8.7530    2.9570   22.9600 C   0  0  2  0  0  0  0  0  0  0  0  0
    7.8560    3.8080   22.3290 C   0  0  0  0  0  0  0  0  0  0  0  0
    7.6020    5.0350   22.9740 C   0  0  0  0  0  0  0  0  0  0  0  0
    8.5340    5.4940   23.9300 C   0  0  0  0  0  0  0  0  0  0  0  0
    6.4420   -4.5390   22.5790 C   0  0  0  0  0  0  0  0  0  0  0  0
    7.4570   -5.0940   23.3200 C   0  0  0  0  0  0  0  0  0  0  0  0
    7.1060   -5.1960   24.6310 C   0  0  0  0  0  0  0  0  0  0  0  0
    5.6760   -5.5840   24.6520 N   0  0  0  0  0  0  0  0  0  0  0  0
    5.0550   -6.3580   23.5330 C   0  0  0  0  0  0  0  0  0  0  0  0
    5.5070   -5.7190   22.2510 C   0  0  0  0  0  0  0  0  0  0  0  0
    2.2850   -3.8080   26.2440 S   0  0  0  0  0  0  0  0  0  0  0  0
    3.9710   -4.0790   26.1470 C   0  0  0  0  0  0  0  0  0  0  0  0
    4.5480   -2.6800   26.0690 C   0  0  0  0  0  0  0  0  0  0  0  0
    3.4920   -1.6180   26.1110 C   0  0  0  0  0  0  0  0  0  0  0  0
    2.1740   -2.0470   26.2150 C   0  0  0  0  0  0  0  0  0  0  0  0
  2  4  1  0
  3  4  1  0
  3  6  1  0
  6  8  1  0
  1 10  1  0
  7 10  2  0
  5 11  1  0
 11 10  1  6
  5 12  1  0
  9 12  2  0
 12 13  1  0
 13 14  1  6
 15 16  1  0
 15 17  1  0
 15 18  1  0
 20 22  2  0
 21 22  2  0
  5 23  1  0
 23 24  1  0
 25 26  2  0
 26 27  1  0
 27 28  2  0
 11 29  1  0
 28 29  1  0
 25 30  1  0
 29 30  2  0
 31 32  2  0
 15 33  1  0
 32 33  1  0
 33 34  2  0
 34 35  1  0
  5 36  1  1
 31 36  1  0
 35 36  2  0
  6 38  2  0
 37 38  1  0
 39  1  1  1
  8 39  1  0
 38 39  1  0
 39 40  1  0
 40 41  1  0
 37 42  1  0
 41 42  1  0
 13 43  1  0
 43 24  1  0
 43 44  1  0
 44 45  1  0
 22 46  1  0
 45 46  1  0
 46 47  1  0
 43 48  1  0
 47 48  1  0
 22 50  1  0
 49 50  1  0
 50 51  2  0
 51 52  1  0
 19 53  1  0
 49 53  1  0
 52 53  2  0
M  END
