x3110-x0978-x0689
     RDKit          3D

 54 58  0  0  0  0  0  0  0  0999 V2000
    7.8170    1.0470   23.1780 N   0  0  0  0  0  0  0  0  0  0  0  0
   13.3400    5.3560   22.0160 C   0  0  0  0  0  0  0  0  0  0  0  0
   11.7430    3.6240   22.4870 O   0  0  0  0  0  0  0  0  0  0  0  0
   12.7510    4.2420   22.8180 C   0  0  0  0  0  0  0  0  0  0  0  0
    6.9500   -1.5370   21.5410 N   0  0  0  0  0  0  0  0  0  0  0  0
   10.7860    4.1070   24.4050 O   0  0  0  0  0  0  0  0  0  0  0  0
   10.8840    3.4430   23.3800 C   0  0  0  0  0  0  0  0  0  0  0  0
    8.5880    1.2750   20.9060 O   0  0  0  0  0  0  0  0  0  0  0  0
    9.9780    2.2450   22.9610 C   0  0  0  0  0  0  0  0  0  0  0  0
    4.8980   -3.0000   20.8220 O   0  0  0  0  0  0  0  0  0  0  0  0
    8.5110    2.2320   23.4970 C   0  0  0  0  0  0  0  0  0  0  0  0
    7.7240    0.6570   21.8540 C   0  0  0  0  0  0  0  0  0  0  0  0
    6.6000   -0.3820   21.5400 C   0  0  1  0  0  0  0  0  0  0  0  0
    6.1170   -2.7860   21.3040 C   0  0  0  0  0  0  0  0  0  0  0  0
    6.7420   -4.0660   21.7640 C   0  0  2  0  0  0  0  0  0  0  0  0
    8.1580   -4.4530   21.1500 C   0  0  0  0  0  0  0  0  0  0  0  0
   12.2330   -1.9790   24.0810 C   0  0  0  0  0  0  0  0  0  0  0  0
   12.9250   -0.8100   24.1310 C   0  0  0  0  0  0  0  0  0  0  0  0
   13.2760   -1.8250   23.0590 C   0  0  0  0  0  0  0  0  0  0  0  0
   12.6650   -3.0330   25.0300 C   0  0  0  0  0  0  0  0  0  0  0  0
    2.4320   -5.5150   22.9530 N   0  0  0  0  0  0  0  0  0  0  0  0
    2.5370   -6.8250   25.2510 C   0  0  0  0  0  0  0  0  0  0  0  0
    4.4500   -7.5760   24.7720 O   0  0  0  0  0  0  0  0  0  0  0  0
    3.7560   -6.5710   24.6160 C   0  0  1  0  0  0  0  0  0  0  0  0
    1.3400   -7.3470   22.1520 O   0  0  0  0  0  0  0  0  0  0  0  0
    3.5980   -6.1850   23.2290 C   0  0  2  0  0  0  0  0  0  0  0  0
    4.2330   -4.0330   22.7480 O   0  0  0  0  0  0  0  0  0  0  0  0
    1.2860   -6.2190   22.6490 C   0  0  0  0  0  0  0  0  0  0  0  0
    0.0850   -5.5600   22.9130 C   0  0  0  0  0  0  0  0  0  0  0  0
    4.6300   -5.9460   26.6840 O   0  0  0  0  0  0  0  0  0  0  0  0
    4.5330   -5.2080   25.4530 S   0  0  0  0  0  0  0  0  0  0  0  0
    6.3520    0.4330   17.8960 N   0  0  0  0  0  0  0  0  0  0  0  0
    5.2460    1.1980   17.7750 C   0  0  0  0  0  0  0  0  0  0  0  0
    4.5090    1.4580   18.9240 C   0  0  0  0  0  0  0  0  0  0  0  0
    4.8990    0.9620   20.1490 C   0  0  0  0  0  0  0  0  0  0  0  0
    6.0400    0.1880   20.2740 C   0  0  0  0  0  0  0  0  0  0  0  0
    6.7420   -0.0590   19.0990 C   0  0  0  0  0  0  0  0  0  0  0  0
    9.5140   -1.2320   21.5400 C   0  0  0  0  0  0  0  0  0  0  0  0
   10.7380   -1.3590   22.1770 C   0  0  0  0  0  0  0  0  0  0  0  0
   10.8360   -1.8990   23.4450 C   0  0  0  0  0  0  0  0  0  0  0  0
    9.6310   -2.3220   24.0550 C   0  0  0  0  0  0  0  0  0  0  0  0
    8.3740   -2.1930   23.3960 C   0  0  0  0  0  0  0  0  0  0  0  0
    8.3340   -1.6320   22.1090 C   0  0  0  0  0  0  0  0  0  0  0  0
    6.5960   -6.3390   22.1270 N   0  0  0  0  0  0  0  0  0  0  0  0
    5.7470   -5.2790   21.8150 C   0  0  1  0  0  0  0  0  0  0  0  0
    4.9050   -5.2710   22.9630 C   0  0  2  0  0  0  0  0  0  0  0  0
    5.5690   -5.0780   24.1700 N   0  0  0  0  0  0  0  0  0  0  0  0
    7.0190   -5.2980   24.2420 C   0  0  0  0  0  0  0  0  0  0  0  0
    7.5910   -5.9280   23.1480 C   0  0  0  0  0  0  0  0  0  0  0  0
    3.5500   -2.2930   26.0840 S   0  0  0  0  0  0  0  0  0  0  0  0
    3.3140   -3.9110   25.5920 C   0  0  0  0  0  0  0  0  0  0  0  0
    1.9350   -4.0950   25.2800 C   0  0  0  0  0  0  0  0  0  0  0  0
    1.1190   -2.9930   25.4310 C   0  0  0  0  0  0  0  0  0  0  0  0
    1.8680   -1.7590   25.9150 C   0  0  0  0  0  0  0  0  0  0  0  0
  2  4  1  0
  3  4  1  0
  3  7  1  0
  6  7  2  0
  7  9  1  0
  1 11  1  0
  9 11  1  0
  1 12  1  0
  8 12  2  0
  5 13  1  0
 13 12  1  6
  5 14  1  0
 10 14  2  0
 14 15  1  0
 15 16  1  6
 17 18  1  0
 17 19  1  0
 17 20  1  0
 24 22  1  1
 24 23  1  0
 26 21  1  1
 24 26  1  0
 21 28  1  0
 25 28  2  0
 28 29  1  0
 24 31  1  0
 30 31  2  0
 32 33  2  0
 33 34  1  0
 34 35  2  0
 13 36  1  0
 35 36  1  0
 32 37  1  0
 36 37  2  0
 38 39  2  0
 17 40  1  0
 39 40  1  0
 40 41  2  0
 41 42  1  0
  5 43  1  0
 38 43  1  0
 42 43  2  0
 15 45  1  0
 45 44  1  1
 26 46  1  0
 46 27  1  6
 45 46  1  0
 31 47  1  0
 46 47  1  0
 47 48  1  0
 44 49  1  0
 48 49  1  0
 31 51  1  0
 50 51  1  0
 51 52  2  0
 52 53  1  0
 50 54  1  0
 53 54  2  0
M  END
