x3115-x0691
     RDKit          3D

 47 51  0  0  0  0  0  0  0  0999 V2000
    6.6850   -1.4890   22.0690 C   0  0  1  0  0  0  0  0  0  0  0  0
    6.5220   -4.0370   20.0510 C   0  0  0  0  0  0  0  0  0  0  0  0
    4.6580   -3.0500   21.6040 O   0  0  0  0  0  0  0  0  0  0  0  0
    6.0770   -2.6590   19.9080 C   0  0  0  0  0  0  0  0  0  0  0  0
    7.7190    1.6160   23.1920 N   0  0  0  0  0  0  0  0  0  0  0  0
    8.4420    0.9330   21.1610 O   0  0  0  0  0  0  0  0  0  0  0  0
    5.7160   -2.4420   21.2630 C   0  0  0  0  0  0  0  0  0  0  0  0
    8.5970    5.0590   23.0270 O   0  0  0  0  0  0  0  0  0  0  0  0
    6.4630   -0.0040   21.8360 C   0  0  1  0  0  0  0  0  0  0  0  0
    7.5810    0.8490   22.0430 C   0  0  0  0  0  0  0  0  0  0  0  0
    8.4660    2.8330   23.2170 C   0  0  0  0  0  0  0  0  0  0  0  0
    7.9830    3.9480   22.5160 C   0  0  0  0  0  0  0  0  0  0  0  0
    8.3310    6.0720   22.3710 C   0  0  0  0  0  0  0  0  0  0  0  0
   12.4090   -1.9930   23.6890 C   0  0  0  0  0  0  0  0  0  0  0  0
   13.2470   -2.4130   22.6740 C   0  0  0  0  0  0  0  0  0  0  0  0
   12.6470   -2.8930   24.9030 C   0  0  0  0  0  0  0  0  0  0  0  0
   12.8940   -0.6530   24.0880 C   0  0  0  0  0  0  0  0  0  0  0  0
    4.0590   -6.9670   25.5840 O   0  0  0  0  0  0  0  0  0  0  0  0
    5.7680   -5.3060   26.6840 O   0  0  0  0  0  0  0  0  0  0  0  0
    3.3120   -0.5990   25.9900 F   0  0  0  0  0  0  0  0  0  0  0  0
    4.8500   -5.5830   25.6050 S   0  0  0  0  0  0  0  0  0  0  0  0
    5.8280   -2.2540   23.0580 C   0  0  0  0  0  0  0  0  0  0  0  0
    5.3240   -3.4280   22.3980 C   0  0  0  0  0  0  0  0  0  0  0  0
    6.4090    0.3930   18.0020 N   0  0  0  0  0  0  0  0  0  0  0  0
    5.2310    1.1940   17.8800 C   0  0  0  0  0  0  0  0  0  0  0  0
    4.4800    1.5800   18.9450 C   0  0  0  0  0  0  0  0  0  0  0  0
    4.8740    1.1880   20.2220 C   0  0  0  0  0  0  0  0  0  0  0  0
    6.0330    0.3980   20.4510 C   0  0  0  0  0  0  0  0  0  0  0  0
    6.8440   -0.0380   19.3790 C   0  0  0  0  0  0  0  0  0  0  0  0
    9.1950   -1.7370   21.5640 C   0  0  0  0  0  0  0  0  0  0  0  0
   10.5470   -1.8530   21.9440 C   0  0  0  0  0  0  0  0  0  0  0  0
   10.9290   -1.9050   23.2820 C   0  0  0  0  0  0  0  0  0  0  0  0
    9.8970   -1.8540   24.2170 C   0  0  0  0  0  0  0  0  0  0  0  0
    8.5500   -1.7430   23.8390 C   0  0  0  0  0  0  0  0  0  0  0  0
    8.1830   -1.6730   22.4910 C   0  0  0  0  0  0  0  0  0  0  0  0
    2.9640   -1.8850   25.8560 C   0  0  0  0  0  0  0  0  0  0  0  0
    3.9030   -2.9120   25.8000 C   0  0  0  0  0  0  0  0  0  0  0  0
    3.5930   -4.2520   25.6650 C   0  0  0  0  0  0  0  0  0  0  0  0
    2.2560   -4.6280   25.5730 C   0  0  0  0  0  0  0  0  0  0  0  0
    1.1840   -3.7140   25.6130 C   0  0  0  0  0  0  0  0  0  0  0  0
    1.4860   -2.3270   25.7570 C   0  0  0  0  0  0  0  0  0  0  0  0
    6.2740   -4.4600   21.6270 C   0  0  0  0  0  0  0  0  0  0  0  0
    5.6420   -5.6880   21.7140 C   0  0  0  0  0  0  0  0  0  0  0  0
    4.9770   -5.9720   22.9060 C   0  0  0  0  0  0  0  0  0  0  0  0
    5.6070   -5.3600   24.0900 N   0  0  0  0  0  0  0  0  0  0  0  0
    7.0000   -4.8530   23.9640 C   0  0  0  0  0  0  0  0  0  0  0  0
    7.4290   -4.7320   22.6160 C   0  0  0  0  0  0  0  0  0  0  0  0
  2  4  1  0
  1  7  1  0
  3  7  2  0
  4  7  1  0
  1  9  1  0
  5 10  1  0
  6 10  2  0
  9 10  1  6
  5 11  1  0
  8 12  1  0
 11 12  1  0
  8 13  1  0
 14 15  1  0
 14 16  1  0
 14 17  1  0
 18 21  2  0
 19 21  2  0
  1 22  1  0
 22 23  1  0
 24 25  2  0
 25 26  1  0
 26 27  2  0
  9 28  1  0
 27 28  1  0
 24 29  1  0
 28 29  2  0
 30 31  2  0
 14 32  1  0
 31 32  1  0
 32 33  2  0
 33 34  1  0
  1 35  1  1
 30 35  1  0
 34 35  2  0
 20 36  1  0
 36 37  2  0
 21 38  1  0
 37 38  1  0
 38 39  2  0
 39 40  1  0
 36 41  1  0
 40 41  2  0
  2 42  1  0
 42 23  1  0
 42 43  1  0
 43 44  1  0
 21 45  1  0
 44 45  1  0
 45 46  1  0
 42 47  1  0
 46 47  1  0
M  END
