x3110-x0426
     RDKit          3D

 44 46  0  0  0  0  0  0  0  0999 V2000
    8.0170    1.0070   23.2090 N   0  0  0  0  0  0  0  0  0  0  0  0
   13.3590    5.1430   22.8940 C   0  0  0  0  0  0  0  0  0  0  0  0
   11.9910    3.2170   22.4980 O   0  0  0  0  0  0  0  0  0  0  0  0
   12.3490    4.5030   21.9670 C   0  0  0  0  0  0  0  0  0  0  0  0
    7.0290   -1.7750   21.6310 N   0  0  0  0  0  0  0  0  0  0  0  0
   10.7780    4.2520   24.1170 O   0  0  0  0  0  0  0  0  0  0  0  0
   11.0220    3.2640   23.4430 C   0  0  0  0  0  0  0  0  0  0  0  0
    8.5400    1.3170   21.0340 O   0  0  0  0  0  0  0  0  0  0  0  0
   10.2900    1.9490   23.5510 C   0  0  0  0  0  0  0  0  0  0  0  0
    4.8820   -3.0420   21.1030 O   0  0  0  0  0  0  0  0  0  0  0  0
    8.7860    2.1630   23.6640 C   0  0  0  0  0  0  0  0  0  0  0  0
    7.8170    0.7270   21.8610 C   0  0  0  0  0  0  0  0  0  0  0  0
    6.6360   -0.2990   21.4870 C   0  0  1  0  0  0  0  0  0  0  0  0
    6.1620   -2.9710   21.3870 C   0  0  0  0  0  0  0  0  0  0  0  0
    6.8680   -4.3170   21.5090 C   0  0  0  0  0  0  0  0  0  0  0  0
    8.2850   -4.4060   20.9490 C   0  0  0  0  0  0  0  0  0  0  0  0
   12.3580   -1.8800   24.0910 C   0  0  0  0  0  0  0  0  0  0  0  0
   12.4930   -0.5760   24.8870 C   0  0  0  0  0  0  0  0  0  0  0  0
   13.3700   -1.8190   22.9540 C   0  0  0  0  0  0  0  0  0  0  0  0
   12.8000   -3.0070   25.0220 C   0  0  0  0  0  0  0  0  0  0  0  0
    2.3550    1.8360   23.7440 C   0  0  0  0  0  0  0  0  0  0  0  0
    2.2930    0.4200   23.7640 O   0  0  0  0  0  0  0  0  0  0  0  0
    3.3510    2.5410   23.0740 N   0  0  0  0  0  0  0  0  0  0  0  0
    4.3150    1.9540   22.3090 C   0  0  0  0  0  0  0  0  0  0  0  0
    3.8690    1.0610   21.3360 C   0  0  0  0  0  0  0  0  0  0  0  0
    2.8240    4.2850   25.1690 F   0  0  0  0  0  0  0  0  0  0  0  0
    6.3620    0.5240   17.8040 N   0  0  0  0  0  0  0  0  0  0  0  0
    5.1690    1.1490   17.8090 C   0  0  0  0  0  0  0  0  0  0  0  0
    4.3680    1.3230   18.9250 C   0  0  0  0  0  0  0  0  0  0  0  0
    4.8260    0.8360   20.1380 C   0  0  0  0  0  0  0  0  0  0  0  0
    6.0770    0.1990   20.1740 C   0  0  0  0  0  0  0  0  0  0  0  0
    6.7920    0.0610   18.9890 C   0  0  0  0  0  0  0  0  0  0  0  0
    9.4890   -1.3220   21.7000 C   0  0  0  0  0  0  0  0  0  0  0  0
   10.7480   -1.3520   22.2910 C   0  0  0  0  0  0  0  0  0  0  0  0
   10.9230   -1.9300   23.5200 C   0  0  0  0  0  0  0  0  0  0  0  0
    9.8150   -2.4860   24.1300 C   0  0  0  0  0  0  0  0  0  0  0  0
    8.5420   -2.4630   23.5440 C   0  0  0  0  0  0  0  0  0  0  0  0
    8.3370   -1.8690   22.3020 C   0  0  0  0  0  0  0  0  0  0  0  0
    1.5700    3.8140   25.1790 C   0  0  0  0  0  0  0  0  0  0  0  0
    1.3000    2.6000   24.4830 C   0  0  0  0  0  0  0  0  0  0  0  0
   -0.0230    2.0660   24.4730 C   0  0  0  0  0  0  0  0  0  0  0  0
   -1.1570    2.7710   25.1950 C   0  0  0  0  0  0  0  0  0  0  0  0
   -0.8700    4.0450   25.9270 C   0  0  0  0  0  0  0  0  0  0  0  0
    0.5930    4.5420   25.8780 C   0  0  0  0  0  0  0  0  0  0  0  0
  2  4  1  0
  3  4  1  0
  3  7  1  0
  6  7  2  0
  7  9  1  0
  1 11  1  0
  9 11  1  0
  1 12  1  0
  8 12  2  0
  5 13  1  0
 13 12  1  6
  5 14  1  0
 10 14  2  0
 14 15  1  0
 15 16  1  0
 17 18  1  0
 17 19  1  0
 17 20  1  0
 21 22  2  0
 21 23  1  0
 23 24  1  0
 24 25  1  0
 27 28  2  0
 28 29  1  0
 25 30  1  0
 29 30  2  0
 13 31  1  0
 30 31  1  0
 27 32  1  0
 31 32  2  0
 33 34  2  0
 17 35  1  0
 34 35  1  0
 35 36  2  0
 36 37  1  0
  5 38  1  0
 33 38  1  0
 37 38  2  0
 26 39  1  0
 21 40  1  0
 39 40  2  0
 40 41  1  0
 41 42  2  0
 42 43  1  0
 39 44  1  0
 43 44  2  0
M  END
