x3113-x3115
     RDKit          3D

 33 34  0  0  0  0  0  0  0  0999 V2000
    7.0330   -1.8110   21.8830 N   0  0  0  0  0  0  0  0  0  0  0  0
    8.2200   -4.4840   20.9920 C   0  0  0  0  0  0  0  0  0  0  0  0
    4.9030   -3.0950   21.1840 O   0  0  0  0  0  0  0  0  0  0  0  0
    6.8250   -4.3680   21.6530 C   0  0  0  0  0  0  0  0  0  0  0  0
    7.8850    1.5360   22.8650 N   0  0  0  0  0  0  0  0  0  0  0  0
    8.9170    0.3390   21.2870 O   0  0  0  0  0  0  0  0  0  0  0  0
    6.1700   -3.0010   21.5460 C   0  0  0  0  0  0  0  0  0  0  0  0
   11.6250    3.6860   22.3100 O   0  0  0  0  0  0  0  0  0  0  0  0
    6.7370   -0.3020   21.6950 C   0  0  1  0  0  0  0  0  0  0  0  0
    7.9050    0.5080   21.9290 C   0  0  0  0  0  0  0  0  0  0  0  0
    8.8910    2.6320   22.7540 C   0  0  2  0  0  0  0  0  0  0  0  0
   10.1260    2.1250   23.2280 C   0  0  0  0  0  0  0  0  0  0  0  0
   11.1330    3.0730   23.4910 C   0  0  0  0  0  0  0  0  0  0  0  0
   12.8470    4.3930   22.5670 C   0  0  0  0  0  0  0  0  0  0  0  0
   12.4760   -2.0560   24.2800 C   0  0  0  0  0  0  0  0  0  0  0  0
   13.4150   -2.1570   23.2610 C   0  0  0  0  0  0  0  0  0  0  0  0
   12.8330   -3.1300   25.3200 C   0  0  0  0  0  0  0  0  0  0  0  0
   12.6610   -0.6890   24.9390 C   0  0  0  0  0  0  0  0  0  0  0  0
    9.0370    4.8940   22.9130 O   0  0  0  0  0  0  0  0  0  0  0  0
    8.3600    3.9440   23.3100 C   0  0  0  0  0  0  0  0  0  0  0  0
    8.3430    5.8130   22.4450 C   0  0  0  0  0  0  0  0  0  0  0  0
    6.5180    0.3440   17.9790 N   0  0  0  0  0  0  0  0  0  0  0  0
    5.3020    1.1690   17.8150 C   0  0  0  0  0  0  0  0  0  0  0  0
    4.4810    1.5120   19.0540 C   0  0  0  0  0  0  0  0  0  0  0  0
    4.8720    1.0700   20.3060 C   0  0  0  0  0  0  0  0  0  0  0  0
    6.1360    0.2370   20.4170 C   0  0  0  0  0  0  0  0  0  0  0  0
    6.8290   -0.0470   19.2480 C   0  0  0  0  0  0  0  0  0  0  0  0
    9.4780   -1.6990   21.8010 C   0  0  0  0  0  0  0  0  0  0  0  0
   10.9360   -1.7350   22.3020 C   0  0  0  0  0  0  0  0  0  0  0  0
   11.0900   -2.0380   23.6610 C   0  0  0  0  0  0  0  0  0  0  0  0
    9.9670   -2.3060   24.4660 C   0  0  0  0  0  0  0  0  0  0  0  0
    8.6600   -2.2720   23.9830 C   0  0  0  0  0  0  0  0  0  0  0  0
    8.3480   -1.9370   22.5380 C   0  0  0  0  0  0  0  0  0  0  0  0
  2  4  1  0
  1  7  1  0
  3  7  2  0
  4  7  1  0
  1  9  1  0
  5 10  1  0
  6 10  2  0
  9 10  1  6
  5 11  1  0
 11 12  1  1
  8 13  1  0
 12 13  1  0
  8 14  1  0
 15 16  1  0
 15 17  1  0
 15 18  1  0
 11 20  1  0
 19 20  1  0
 19 21  1  0
 22 23  2  0
 23 24  1  0
 24 25  2  0
  9 26  1  0
 25 26  1  0
 22 27  1  0
 26 27  2  0
 28 29  2  0
 15 30  1  0
 29 30  1  0
 30 31  2  0
 31 32  1  0
  1 33  1  0
 28 33  1  0
 32 33  2  0
M  END
