x3115-x0734
     RDKit          3D

 43 47  0  0  0  0  0  0  0  0999 V2000
    7.0580   -1.9960   21.9210 C   0  0  2  0  0  0  0  0  0  0  0  0
    6.8310   -5.2650   20.2590 C   0  0  0  0  0  0  0  0  0  0  0  0
    4.9010   -3.0320   20.7870 O   0  0  0  0  0  0  0  0  0  0  0  0
    7.6400    1.4420   23.3300 N   0  0  0  0  0  0  0  0  0  0  0  0
    8.5990    0.8000   21.2970 O   0  0  0  0  0  0  0  0  0  0  0  0
    6.0560   -3.1190   21.3120 C   0  0  0  0  0  0  0  0  0  0  0  0
    8.6040    4.9310   23.0380 O   0  0  0  0  0  0  0  0  0  0  0  0
    6.6150   -0.4780   21.9180 C   0  0  1  0  0  0  0  0  0  0  0  0
    7.7110    0.6130   22.1310 C   0  0  0  0  0  0  0  0  0  0  0  0
    7.3670    2.8190   23.3250 C   0  0  0  0  0  0  0  0  0  0  0  0
    8.3920    3.6330   22.4540 C   0  0  0  0  0  0  0  0  0  0  0  0
    8.2030    5.9820   22.2610 C   0  0  0  0  0  0  0  0  0  0  0  0
   12.3400   -1.7850   24.3370 C   0  0  0  0  0  0  0  0  0  0  0  0
   13.4210   -2.3220   23.6460 C   0  0  0  0  0  0  0  0  0  0  0  0
   12.9380   -3.0040   25.0890 C   0  0  0  0  0  0  0  0  0  0  0  0
   12.6240   -0.4980   25.0530 C   0  0  0  0  0  0  0  0  0  0  0  0
    5.2220   -4.8070   26.5170 N   0  0  0  0  0  0  0  0  0  0  0  0
    4.5710   -5.7060   25.9590 O   0  0  0  0  0  0  0  0  0  0  0  0
    4.7270   -3.7590   26.9520 O   0  0  0  0  0  0  0  0  0  0  0  0
    6.4130    0.2300   18.0820 N   0  0  0  0  0  0  0  0  0  0  0  0
    5.2140    1.0570   17.9300 C   0  0  0  0  0  0  0  0  0  0  0  0
    4.4880    1.3500   19.0930 C   0  0  0  0  0  0  0  0  0  0  0  0
    4.8700    0.8920   20.3600 C   0  0  0  0  0  0  0  0  0  0  0  0
    6.0130    0.1090   20.5280 C   0  0  0  0  0  0  0  0  0  0  0  0
    6.7540   -0.2050   19.3920 C   0  0  0  0  0  0  0  0  0  0  0  0
    9.6020   -2.3150   21.7370 C   0  0  0  0  0  0  0  0  0  0  0  0
   10.8480   -2.2450   22.3700 C   0  0  0  0  0  0  0  0  0  0  0  0
   10.9910   -1.8730   23.6890 C   0  0  0  0  0  0  0  0  0  0  0  0
    9.8540   -1.5580   24.4150 C   0  0  0  0  0  0  0  0  0  0  0  0
    8.6200   -1.6160   23.7970 C   0  0  0  0  0  0  0  0  0  0  0  0
    8.4880   -1.9890   22.4550 C   0  0  0  0  0  0  0  0  0  0  0  0
    6.6660   -4.8030   26.3250 C   0  0  0  0  0  0  0  0  0  0  0  0
    7.2530   -4.2520   25.1670 C   0  0  0  0  0  0  0  0  0  0  0  0
    8.6540   -4.2930   25.0570 C   0  0  0  0  0  0  0  0  0  0  0  0
    9.3760   -4.8790   26.1100 C   0  0  0  0  0  0  0  0  0  0  0  0
    8.8080   -5.4230   27.2600 C   0  0  0  0  0  0  0  0  0  0  0  0
    7.4160   -5.3840   27.3700 C   0  0  0  0  0  0  0  0  0  0  0  0
    6.5930   -4.5380   21.5330 C   0  0  1  0  0  0  0  0  0  0  0  0
    5.6060   -5.3060   22.4550 C   0  0  0  0  0  0  0  0  0  0  0  0
    5.4310   -4.7800   23.7900 C   0  0  0  0  0  0  0  0  0  0  0  0
    6.3930   -3.6970   24.1770 N   0  0  0  0  0  0  0  0  0  0  0  0
    6.7900   -3.2700   22.8410 C   0  0  2  0  0  0  0  0  0  0  0  0
    7.7210   -4.1500   22.4000 C   0  0  0  0  0  0  0  0  0  0  0  0
  1  6  1  0
  3  6  2  0
  1  8  1  0
  4  9  1  0
  5  9  2  0
  8  9  1  6
  4 10  1  0
  7 11  1  0
 10 11  1  0
  7 12  1  0
 13 14  1  0
 13 15  1  0
 13 16  1  0
 17 18  2  0
 17 19  1  0
 20 21  2  0
 21 22  1  0
 22 23  2  0
  8 24  1  0
 23 24  1  0
 20 25  1  0
 24 25  2  0
 26 27  2  0
 13 28  1  0
 27 28  1  0
 28 29  2  0
 29 30  1  0
  1 31  1  6
 26 31  1  0
 30 31  2  0
 17 32  1  0
 32 33  2  0
 33 34  1  0
 34 35  2  0
 35 36  1  0
 32 37  1  0
 36 37  2  0
 38  2  1  6
  6 38  1  0
 38 39  1  0
 39 40  1  0
 33 41  1  0
 40 41  1  0
  1 42  1  0
 42 41  1  1
 38 43  1  0
 42 43  1  0
M  CHG  2  17   1  19  -1
M  END
