x3117-x3110-x0820
     RDKit          3D

 47 53  0  0  0  0  0  0  0  0999 V2000
    7.9700    1.5790   23.3690 N   0  0  0  0  0  0  0  0  0  0  0  0
   13.6760    5.2370   22.5400 C   0  0  0  0  0  0  0  0  0  0  0  0
   12.1170    3.6350   23.4100 O   0  0  0  0  0  0  0  0  0  0  0  0
   12.3800    4.5280   22.3230 C   0  0  0  0  0  0  0  0  0  0  0  0
    7.1290   -1.8400   21.8350 C   0  0  2  0  0  0  0  0  0  0  0  0
   10.8990    3.3540   23.3100 C   0  0  0  0  0  0  0  0  0  0  0  0
    8.8170    0.8800   21.2470 O   0  0  0  0  0  0  0  0  0  0  0  0
   10.1030    2.5300   22.3310 C   0  0  0  0  0  0  0  0  0  0  0  0
    4.9680   -3.1140   20.5910 O   0  0  0  0  0  0  0  0  0  0  0  0
    7.8290    0.7240   22.2490 C   0  0  0  0  0  0  0  0  0  0  0  0
    6.6560   -0.3150   21.9380 C   0  0  1  0  0  0  0  0  0  0  0  0
    6.0840   -2.9500   21.1890 C   0  0  0  0  0  0  0  0  0  0  0  0
    6.8880   -4.1210   21.6350 C   0  0  1  0  0  0  0  0  0  0  0  0
    8.2410   -4.5040   21.0730 C   0  0  0  0  0  0  0  0  0  0  0  0
   12.4520   -1.8420   24.0870 C   0  0  0  0  0  0  0  0  0  0  0  0
   12.6050   -0.5750   24.6770 C   0  0  0  0  0  0  0  0  0  0  0  0
   13.4430   -1.8970   22.9750 C   0  0  0  0  0  0  0  0  0  0  0  0
   12.7940   -2.9550   25.1180 C   0  0  0  0  0  0  0  0  0  0  0  0
    6.9980   -3.1720   22.8500 C   0  0  2  0  0  0  0  0  0  0  0  0
    6.5170    0.2340   18.0990 N   0  0  0  0  0  0  0  0  0  0  0  0
    5.3500    1.0440   18.0040 C   0  0  0  0  0  0  0  0  0  0  0  0
    4.5190    1.4540   19.2250 C   0  0  0  0  0  0  0  0  0  0  0  0
    4.9830    0.9820   20.4770 C   0  0  0  0  0  0  0  0  0  0  0  0
    6.1350    0.1860   20.5800 C   0  0  0  0  0  0  0  0  0  0  0  0
    6.8260   -0.1370   19.3800 C   0  0  0  0  0  0  0  0  0  0  0  0
    9.5630   -1.2940   21.6980 C   0  0  0  0  0  0  0  0  0  0  0  0
   10.8460   -1.3110   22.2750 C   0  0  0  0  0  0  0  0  0  0  0  0
   11.0490   -1.9040   23.5010 C   0  0  0  0  0  0  0  0  0  0  0  0
    9.8940   -2.5390   24.1670 C   0  0  0  0  0  0  0  0  0  0  0  0
    8.6280   -2.5360   23.6340 C   0  0  0  0  0  0  0  0  0  0  0  0
    8.4250   -1.8490   22.2820 C   0  0  0  0  0  0  0  0  0  0  0  0
    9.1270    4.3410   24.7980 O   0  0  0  0  0  0  0  0  0  0  0  0
    9.5500    3.6030   23.8700 C   0  0  0  0  0  0  0  0  0  0  0  0
    8.7260    2.8520   23.0130 C   0  0  2  0  0  0  0  0  0  0  0  0
    7.8480    3.6390   22.3200 C   0  0  0  0  0  0  0  0  0  0  0  0
    7.7980    4.9640   22.7530 C   0  0  0  0  0  0  0  0  0  0  0  0
    8.4530    5.4110   24.0910 C   0  0  0  0  0  0  0  0  0  0  0  0
    6.0470   -3.6020   24.0790 C   0  0  0  0  0  0  0  0  0  0  0  0
    6.7080   -3.9840   25.4200 C   0  0  0  0  0  0  0  0  0  0  0  0
    5.7650   -4.3810   26.5360 C   0  0  0  0  0  0  0  0  0  0  0  0
    4.3850   -4.3820   26.2640 C   0  0  0  0  0  0  0  0  0  0  0  0
    3.9010   -4.0270   25.0090 C   0  0  0  0  0  0  0  0  0  0  0  0
    4.7040   -3.6390   23.9230 C   0  0  0  0  0  0  0  0  0  0  0  0
    6.2610   -4.7350   27.7910 C   0  0  0  0  0  0  0  0  0  0  0  0
    7.6240   -4.7560   28.1020 C   0  0  0  0  0  0  0  0  0  0  0  0
    8.5550   -4.4120   27.1200 C   0  0  0  0  0  0  0  0  0  0  0  0
    8.1420   -4.0400   25.8350 C   0  0  0  0  0  0  0  0  0  0  0  0
  2  4  1  0
  3  4  1  0
  3  6  1  0
  6  8  1  0
  1 10  1  0
  7 10  2  0
  5 11  1  0
 11 10  1  6
  5 12  1  0
  9 12  2  0
 12 13  1  0
 13 14  1  6
 15 16  1  0
 15 17  1  0
 15 18  1  0
  5 19  1  0
 13 19  1  0
 20 21  2  0
 21 22  1  0
 22 23  2  0
 11 24  1  0
 23 24  1  0
 20 25  1  0
 24 25  2  0
 26 27  2  0
 15 28  1  0
 27 28  1  0
 28 29  2  0
 29 30  1  0
  5 31  1  6
 26 31  1  0
 30 31  2  0
  6 33  2  0
 32 33  1  0
 34  1  1  1
  8 34  1  0
 33 34  1  0
 34 35  1  0
 35 36  1  0
 32 37  1  0
 36 37  1  0
 19 38  1  1
 38 39  2  0
 39 40  1  0
 40 41  2  0
 41 42  1  0
 38 43  1  0
 42 43  2  0
 40 44  1  0
 44 45  2  0
 45 46  1  0
 39 47  1  0
 46 47  2  0
M  END
