x3117-x2643
     RDKit          3D

 33 35  0  0  0  0  0  0  0  0999 V2000
    6.8690   -1.6670   22.0030 N   0  0  0  0  0  0  0  0  0  0  0  0
    6.6650   -4.8350   20.3680 C   0  0  0  0  0  0  0  0  0  0  0  0
    4.8010   -3.0250   21.3260 O   0  0  0  0  0  0  0  0  0  0  0  0
    6.8290   -4.1640   21.7360 C   0  0  0  0  0  0  0  0  0  0  0  0
    7.6260    1.9060   22.8420 N   0  0  0  0  0  0  0  0  0  0  0  0
    8.8250    0.4760   21.4910 O   0  0  0  0  0  0  0  0  0  0  0  0
    6.0630   -2.8710   21.6690 C   0  0  0  0  0  0  0  0  0  0  0  0
    6.5230   -0.2330   21.7750 C   0  0  1  0  0  0  0  0  0  0  0  0
    7.7350    0.6880   22.0110 C   0  0  0  0  0  0  0  0  0  0  0  0
   12.3350   -1.8540   24.4280 C   0  0  0  0  0  0  0  0  0  0  0  0
   12.5150   -0.7020   25.1690 C   0  0  0  0  0  0  0  0  0  0  0  0
   13.2510   -1.7560   23.4620 C   0  0  0  0  0  0  0  0  0  0  0  0
   12.8070   -3.0730   25.2220 C   0  0  0  0  0  0  0  0  0  0  0  0
    6.2640    0.3330   17.8880 N   0  0  0  0  0  0  0  0  0  0  0  0
    5.1980    1.0840   17.8310 C   0  0  0  0  0  0  0  0  0  0  0  0
    4.3920    1.5210   18.8700 C   0  0  0  0  0  0  0  0  0  0  0  0
    4.8210    1.0650   20.2690 C   0  0  0  0  0  0  0  0  0  0  0  0
    6.0490    0.2010   20.4220 C   0  0  0  0  0  0  0  0  0  0  0  0
    6.7320   -0.1310   19.0930 C   0  0  0  0  0  0  0  0  0  0  0  0
    9.8210    5.1600   24.1190 O   0  0  0  0  0  0  0  0  0  0  0  0
   10.6000    4.1140   23.5690 C   0  0  0  0  0  0  0  0  0  0  0  0
    9.8020    2.8170   23.6400 C   0  0  0  0  0  0  0  0  0  0  0  0
    8.5790    3.0270   22.7160 C   0  0  0  0  0  0  0  0  0  0  0  0
    7.8900    4.3740   23.0850 C   0  0  0  0  0  0  0  0  0  0  0  0
    8.7510    5.4730   23.2310 C   0  0  0  0  0  0  0  0  0  0  0  0
    9.3680   -2.2610   21.7250 C   0  0  0  0  0  0  0  0  0  0  0  0
   10.7220   -2.2880   22.3760 C   0  0  0  0  0  0  0  0  0  0  0  0
   10.9520   -1.8320   23.7920 C   0  0  0  0  0  0  0  0  0  0  0  0
    9.7170   -1.3350   24.5410 C   0  0  0  0  0  0  0  0  0  0  0  0
    8.4550   -1.3220   23.9070 C   0  0  0  0  0  0  0  0  0  0  0  0
    8.1950   -1.7370   22.5860 C   0  0  0  0  0  0  0  0  0  0  0  0
   12.7430    0.9050   23.1290 Cl  0  0  0  0  0  0  0  0  0  0  0  0
   13.0040   -0.7070   22.4420 C   0  0  0  0  0  0  0  0  0  0  0  0
  2  4  1  0
  1  7  1  0
  3  7  2  0
  4  7  1  0
  1  8  1  0
  5  9  1  0
  6  9  2  0
  8  9  1  6
 10 11  1  0
 10 12  1  0
 10 13  1  0
 14 15  2  0
 15 16  1  0
 16 17  2  0
  8 18  1  0
 17 18  1  0
 14 19  1  0
 18 19  2  0
 20 21  1  0
 21 22  1  0
  5 23  1  0
 22 23  1  0
 23 24  1  0
 20 25  1  0
 24 25  1  0
 26 27  2  0
 10 28  1  0
 27 28  1  0
 28 29  2  0
 29 30  1  0
  1 31  1  0
 26 31  1  0
 30 31  2  0
 12 33  1  0
 32 33  1  0
M  END
