x3110-x1493-x1375
     RDKit          3D

 49 52  0  0  0  0  0  0  0  0999 V2000
    8.0470    1.1840   23.1630 N   0  0  0  0  0  0  0  0  0  0  0  0
   13.3730    5.1900   22.9210 C   0  0  0  0  0  0  0  0  0  0  0  0
   12.0440    3.2440   22.4140 O   0  0  0  0  0  0  0  0  0  0  0  0
   12.4810    4.5140   21.9060 C   0  0  0  0  0  0  0  0  0  0  0  0
    6.8270   -1.4690   21.9500 N   0  0  0  0  0  0  0  0  0  0  0  0
   10.9570    4.3050   24.1080 O   0  0  0  0  0  0  0  0  0  0  0  0
   11.1320    3.3190   23.4080 C   0  0  0  0  0  0  0  0  0  0  0  0
    8.6020    1.4340   20.9850 O   0  0  0  0  0  0  0  0  0  0  0  0
   10.3470    2.0380   23.5450 C   0  0  0  0  0  0  0  0  0  0  0  0
    4.8350   -3.0390   21.2890 O   0  0  0  0  0  0  0  0  0  0  0  0
    8.8510    2.3050   23.6260 C   0  0  0  0  0  0  0  0  0  0  0  0
    7.8460    0.9150   21.8170 C   0  0  0  0  0  0  0  0  0  0  0  0
    6.5890   -0.0160   21.5220 C   0  0  1  0  0  0  0  0  0  0  0  0
    6.1090   -2.7260   21.5870 C   0  0  0  0  0  0  0  0  0  0  0  0
    7.1620   -3.7960   21.5640 C   0  0  2  0  0  0  0  0  0  0  0  0
    7.0130   -4.7750   20.4720 C   0  0  0  0  0  0  0  0  0  0  0  0
   12.2470   -1.7550   24.0660 C   0  0  0  0  0  0  0  0  0  0  0  0
   12.4510   -0.5490   24.9830 C   0  0  0  0  0  0  0  0  0  0  0  0
   13.3130   -1.7140   22.9510 C   0  0  0  0  0  0  0  0  0  0  0  0
   12.5860   -2.9760   24.9370 C   0  0  0  0  0  0  0  0  0  0  0  0
    9.9110   -5.5420   26.4160 F   0  0  0  0  0  0  0  0  0  0  0  0
    6.6470    0.2550   18.2760 N   0  0  0  0  0  0  0  0  0  0  0  0
    5.4400    0.7980   17.8950 C   0  0  0  0  0  0  0  0  0  0  0  0
    4.4080    1.1210   18.7760 C   0  0  0  0  0  0  0  0  0  0  0  0
    4.4900    0.9400   20.1170 C   0  0  0  0  0  0  0  0  0  0  0  0
    5.7060    0.4160   20.4950 C   0  0  0  0  0  0  0  0  0  0  0  0
    6.7830    0.0640   19.6350 C   0  0  0  0  0  0  0  0  0  0  0  0
    9.2510   -1.8380   21.6920 C   0  0  0  0  0  0  0  0  0  0  0  0
   10.5820   -1.9180   22.1620 C   0  0  0  0  0  0  0  0  0  0  0  0
   10.8100   -1.7080   23.5130 C   0  0  0  0  0  0  0  0  0  0  0  0
    9.7790   -1.4340   24.4010 C   0  0  0  0  0  0  0  0  0  0  0  0
    8.4460   -1.3560   23.9120 C   0  0  0  0  0  0  0  0  0  0  0  0
    8.1650   -1.5550   22.5380 C   0  0  0  0  0  0  0  0  0  0  0  0
    8.1620   -3.4020   23.9130 C   0  0  0  0  0  0  0  0  0  0  0  0
    8.8440   -3.7850   25.1060 C   0  0  0  0  0  0  0  0  0  0  0  0
    9.2410   -5.1240   25.3450 C   0  0  0  0  0  0  0  0  0  0  0  0
    8.8360   -5.8330   24.2710 C   0  0  0  0  0  0  0  0  0  0  0  0
    8.1770   -5.6660   23.0720 C   0  0  0  0  0  0  0  0  0  0  0  0
    7.8270   -4.3080   22.8760 C   0  0  0  0  0  0  0  0  0  0  0  0
    3.3960   -7.6500   24.5400 O   0  0  0  0  0  0  0  0  0  0  0  0
    5.3460   -6.3250   25.3130 O   0  0  0  0  0  0  0  0  0  0  0  0
    7.2530   -4.5180   25.2870 N   0  0  0  0  0  0  0  0  0  0  0  0
    6.4770   -5.6950   24.8960 C   0  0  0  0  0  0  0  0  0  0  0  0
    3.9230   -4.2850   23.3960 C   0  0  0  0  0  0  0  0  0  0  0  0
    4.9280   -4.9700   22.7140 C   0  0  0  0  0  0  0  0  0  0  0  0
    4.8730   -6.3570   22.8440 C   0  0  0  0  0  0  0  0  0  0  0  0
    4.2310   -6.4630   24.4280 S   0  0  1  0  0  0  0  0  0  0  0  0
    3.3450   -4.9320   24.4090 C   0  0  0  0  0  0  0  0  0  0  0  0
    8.4370   -4.4330   24.3440 C   0  0  0  0  0  0  0  0  0  0  0  0
  2  4  1  0
  3  4  1  0
  3  7  1  0
  6  7  2  0
  7  9  1  0
  1 11  1  0
  9 11  1  0
  1 12  1  0
  8 12  2  0
  5 13  1  0
 13 12  1  6
  5 14  1  0
 10 14  2  0
 14 15  1  0
 15 16  1  1
 17 18  1  0
 17 19  1  0
 17 20  1  0
 22 23  2  0
 23 24  1  0
 24 25  2  0
 13 26  1  0
 25 26  1  0
 22 27  1  0
 26 27  2  0
 28 29  2  0
 17 30  1  0
 29 30  1  0
 30 31  2  0
 31 32  1  0
  5 33  1  0
 28 33  1  0
 32 33  2  0
 34 35  2  0
 21 36  1  0
 35 36  1  0
 36 37  2  0
 37 38  1  0
 15 39  1  0
 34 39  1  0
 38 39  2  0
 41 43  1  0
 42 43  2  3
 44 45  1  0
 45 46  1  0
 47 40  1  6
 41 47  1  0
 46 47  1  0
 44 48  2  0
 47 48  1  0
 37 49  1  0
 42 49  1  0
M  END
