x3115-x2754-x3110-x2908
     RDKit          3D

 53 56  0  0  0  0  0  0  0  0999 V2000
    7.9320    1.4580   22.9310 N   0  0  0  0  0  0  0  0  0  0  0  0
   13.3900    5.1800   22.9030 C   0  0  0  0  0  0  0  0  0  0  0  0
   11.9000    3.3730   22.4560 O   0  0  0  0  0  0  0  0  0  0  0  0
   12.4230    4.5920   21.9230 C   0  0  0  0  0  0  0  0  0  0  0  0
    6.9980   -1.6370   21.5050 N   0  0  0  0  0  0  0  0  0  0  0  0
   11.1550    4.4560   24.3120 O   0  0  0  0  0  0  0  0  0  0  0  0
   11.1200    3.5200   23.5470 C   0  0  0  0  0  0  0  0  0  0  0  0
    8.4880    1.1570   20.8450 O   0  0  0  0  0  0  0  0  0  0  0  0
   10.1600    2.3440   23.7060 C   0  0  0  0  0  0  0  0  0  0  0  0
    4.9480   -3.0620   20.8680 O   0  0  0  0  0  0  0  0  0  0  0  0
    8.8450    2.6160   22.9650 C   0  0  2  0  0  0  0  0  0  0  0  0
    7.7130    0.8070   21.7480 C   0  0  0  0  0  0  0  0  0  0  0  0
    6.5400   -0.2180   21.4680 C   0  0  1  0  0  0  0  0  0  0  0  0
    6.2100   -2.8830   21.2860 C   0  0  0  0  0  0  0  0  0  0  0  0
    8.0670   -4.7020   21.1380 C   0  0  0  0  0  0  0  0  0  0  0  0
   12.0780   -1.5770   24.5420 C   0  0  0  0  0  0  0  0  0  0  0  0
   12.0840   -0.4660   25.3020 C   0  0  0  0  0  0  0  0  0  0  0  0
   13.2680   -1.3380   23.6800 C   0  0  0  0  0  0  0  0  0  0  0  0
   12.4600   -2.8580   25.3070 C   0  0  0  0  0  0  0  0  0  0  0  0
    8.8660    5.0850   23.1000 O   0  0  0  0  0  0  0  0  0  0  0  0
    8.1230    3.9020   23.4440 C   0  0  0  0  0  0  0  0  0  0  0  0
    8.1330    6.0030   22.2870 C   0  0  0  0  0  0  0  0  0  0  0  0
    4.2320    1.6680   21.3340 C   0  0  0  0  0  0  0  0  0  0  0  0
    4.7650   -3.4310   25.4390 C   0  0  0  0  0  0  0  0  0  0  0  0
    3.5800   -3.1550   25.2280 O   0  0  0  0  0  0  0  0  0  0  0  0
    5.4150   -3.2040   26.6570 N   0  0  0  0  0  0  0  0  0  0  0  0
    4.9580   -2.0930   27.4890 C   0  0  0  0  0  0  0  0  0  0  0  0
    6.3020    0.4410   17.7470 N   0  0  0  0  0  0  0  0  0  0  0  0
    5.2730    1.2990   17.7240 C   0  0  0  0  0  0  0  0  0  0  0  0
    4.5970    1.6950   18.8560 C   0  0  0  0  0  0  0  0  0  0  0  0
    4.9790    1.2100   20.0980 C   0  0  0  0  0  0  0  0  0  0  0  0
    6.0530    0.3180   20.1540 C   0  0  0  0  0  0  0  0  0  0  0  0
    6.6670   -0.0300   18.9590 C   0  0  0  0  0  0  0  0  0  0  0  0
    9.4550   -1.9690   21.7380 C   0  0  0  0  0  0  0  0  0  0  0  0
   10.7300   -2.0190   22.2720 C   0  0  0  0  0  0  0  0  0  0  0  0
   10.7760   -1.6110   23.7410 C   0  0  0  0  0  0  0  0  0  0  0  0
    9.4800   -1.2320   24.3690 C   0  0  0  0  0  0  0  0  0  0  0  0
    8.2770   -1.2410   23.6570 C   0  0  0  0  0  0  0  0  0  0  0  0
    8.2670   -1.6150   22.3210 C   0  0  0  0  0  0  0  0  0  0  0  0
    6.9650   -4.1440   21.7010 C   0  0  1  0  0  0  0  0  0  0  0  0
    7.6220   -3.6640   22.9950 C   0  0  0  0  0  0  0  0  0  0  0  0
    6.5980   -2.9820   23.8500 C   0  0  0  0  0  0  0  0  0  0  0  0
    5.6680   -4.0610   24.3530 C   0  0  2  0  0  0  0  0  0  0  0  0
    5.0240   -4.7780   23.1580 C   0  0  0  0  0  0  0  0  0  0  0  0
    5.9100   -5.2320   22.1330 C   0  0  0  0  0  0  0  0  0  0  0  0
    7.0260   -4.8080   27.6060 C   0  0  0  0  0  0  0  0  0  0  0  0
    8.3400   -5.2650   27.7840 C   0  0  0  0  0  0  0  0  0  0  0  0
    9.4010   -4.5860   27.2130 C   0  0  0  0  0  0  0  0  0  0  0  0
    9.1480   -3.4370   26.4590 C   0  0  0  0  0  0  0  0  0  0  0  0
    7.8400   -2.9800   26.2860 C   0  0  0  0  0  0  0  0  0  0  0  0
    6.7560   -3.6580   26.8520 C   0  0  0  0  0  0  0  0  0  0  0  0
   13.4340   -1.6100   21.0180 Cl  0  0  0  0  0  0  0  0  0  0  0  0
   13.2670   -2.3000   22.6030 C   0  0  0  0  0  0  0  0  0  0  0  0
  2  4  1  0
  3  4  1  0
  3  7  1  0
  6  7  2  0
  7  9  1  0
  1 11  1  0
 11  9  1  1
  1 12  1  0
  8 12  2  0
  5 13  1  0
 13 12  1  6
  5 14  1  0
 10 14  2  0
 16 17  1  0
 16 18  1  0
 16 19  1  0
 11 21  1  0
 20 21  1  0
 20 22  1  0
 24 25  2  0
 24 26  1  0
 26 27  1  0
 28 29  2  0
 29 30  1  0
 23 31  1  0
 30 31  2  0
 13 32  1  0
 31 32  1  0
 28 33  1  0
 32 33  2  0
 34 35  2  0
 16 36  1  0
 35 36  1  0
 36 37  2  0
 37 38  1  0
  5 39  1  0
 34 39  1  0
 38 39  2  0
 40 14  1  0
 40 15  1  6
 40 41  1  0
 41 42  1  0
 43 24  1  1
 42 43  1  0
 43 44  1  0
 40 45  1  0
 44 45  1  0
 46 47  2  0
 47 48  1  0
 48 49  2  0
 49 50  1  0
 26 51  1  0
 46 51  1  0
 50 51  2  0
 18 53  1  0
 52 53  1  0
M  END
