x3117-x2694-x0771-x1308
     RDKit          3D

 57 62  0  0  0  0  0  0  0  0999 V2000
    7.0190   -1.3180   21.9410 C   0  0  1  0  0  0  0  0  0  0  0  0
    6.6920   -3.7380   20.2820 C   0  0  0  0  0  0  0  0  0  0  0  0
    4.9380   -3.0830   20.8870 O   0  0  0  0  0  0  0  0  0  0  0  0
    6.5290   -2.4560   20.2750 C   0  0  0  0  0  0  0  0  0  0  0  0
    7.7290    2.2460   22.8570 N   0  0  0  0  0  0  0  0  0  0  0  0
    8.9150    1.3130   21.1520 O   0  0  0  0  0  0  0  0  0  0  0  0
    5.7850   -2.2830   21.4830 C   0  0  0  0  0  0  0  0  0  0  0  0
   10.9840    6.7090   23.8850 O   0  0  0  0  0  0  0  0  0  0  0  0
    6.7450    0.2590   21.6800 C   0  0  1  0  0  0  0  0  0  0  0  0
    7.9180    1.3000   21.8680 C   0  0  0  0  0  0  0  0  0  0  0  0
   10.3390    1.8910   24.0140 C   0  0  0  0  0  0  0  0  0  0  0  0
   11.8700    6.5520   25.0000 C   0  0  0  0  0  0  0  0  0  0  0  0
   12.3210   -1.4500   22.8790 C   0  0  0  0  0  0  0  0  0  0  0  0
   12.7470   -0.0050   23.2190 C   0  0  0  0  0  0  0  0  0  0  0  0
   12.8930   -1.8740   21.5090 C   0  0  0  0  0  0  0  0  0  0  0  0
   13.0550   -2.3670   23.8690 C   0  0  0  0  0  0  0  0  0  0  0  0
   12.3070   -2.8080   25.0240 C   0  0  0  0  0  0  0  0  0  0  0  0
    0.2800   -1.3700   25.9500 C   0  0  0  0  0  0  0  0  0  0  0  0
    4.9650   -5.5630   26.5070 O   0  0  0  0  0  0  0  0  0  0  0  0
    6.3340   -3.6460   25.8280 O   0  0  0  0  0  0  0  0  0  0  0  0
    2.2220   -5.7570   24.8070 C   0  0  0  0  0  0  0  0  0  0  0  0
    5.2820   -4.5630   25.5060 S   0  0  0  0  0  0  0  0  0  0  0  0
    6.3990   -1.8750   23.1810 C   0  0  0  0  0  0  0  0  0  0  0  0
    5.6520   -3.0280   22.7670 C   0  0  0  0  0  0  0  0  0  0  0  0
   -0.1220   -1.2490   27.6490 Cl  0  0  0  0  0  0  0  0  0  0  0  0
    5.7780   -5.5530   26.9130 O   0  0  0  0  0  0  0  0  0  0  0  0
    4.1640   -7.1510   25.7700 O   0  0  0  0  0  0  0  0  0  0  0  0
    5.4340   -6.4560   25.8100 S   0  0  0  0  0  0  0  0  0  0  0  0
    6.3210    0.4850   17.7370 N   0  0  0  0  0  0  0  0  0  0  0  0
    5.2450    1.2690   17.7970 C   0  0  0  0  0  0  0  0  0  0  0  0
    4.5920    1.7450   18.9100 C   0  0  0  0  0  0  0  0  0  0  0  0
    5.0780    1.4070   20.1690 C   0  0  0  0  0  0  0  0  0  0  0  0
    6.2060    0.5990   20.3120 C   0  0  0  0  0  0  0  0  0  0  0  0
    6.8420    0.1180   19.0440 C   0  0  0  0  0  0  0  0  0  0  0  0
    8.7310   -1.9120   23.7340 N   0  0  0  0  0  0  0  0  0  0  0  0
   10.1160   -1.9380   23.9780 O   0  0  0  0  0  0  0  0  0  0  0  0
   10.7920   -1.5300   22.8630 C   0  0  0  0  0  0  0  0  0  0  0  0
    9.7700   -1.2630   21.9320 C   0  0  0  0  0  0  0  0  0  0  0  0
    8.4980   -1.4880   22.4610 C   0  0  0  0  0  0  0  0  0  0  0  0
    9.7950    3.2780   23.6540 C   0  0  0  0  0  0  0  0  0  0  0  0
   10.5930    4.4000   23.8960 C   0  0  0  0  0  0  0  0  0  0  0  0
   10.1360    5.6610   23.5960 C   0  0  0  0  0  0  0  0  0  0  0  0
    8.8880    5.7920   23.0400 C   0  0  0  0  0  0  0  0  0  0  0  0
    8.0890    4.6950   22.7880 C   0  0  0  0  0  0  0  0  0  0  0  0
    8.5150    3.4180   23.0900 C   0  0  0  0  0  0  0  0  0  0  0  0
    1.5070   -2.2060   25.8070 C   0  0  0  0  0  0  0  0  0  0  0  0
    1.4020   -3.5540   25.3870 C   0  0  0  0  0  0  0  0  0  0  0  0
    2.5200   -4.3460   25.2560 C   0  0  0  0  0  0  0  0  0  0  0  0
    3.7290   -3.7480   25.5560 C   0  0  0  0  0  0  0  0  0  0  0  0
    3.7850   -2.4570   25.9490 C   0  0  0  0  0  0  0  0  0  0  0  0
    2.6950   -1.6450   26.0870 C   0  0  0  0  0  0  0  0  0  0  0  0
    6.3510   -4.2130   21.8980 C   0  0  1  0  0  0  0  0  0  0  0  0
    5.4120   -5.2510   22.0310 C   0  0  0  0  0  0  0  0  0  0  0  0
    4.6050   -5.5550   23.2180 C   0  0  0  0  0  0  0  0  0  0  0  0
    5.7710   -5.6320   24.2120 C   0  0  1  0  0  0  0  0  0  0  0  0
    6.8430   -4.7960   24.2310 C   0  0  0  0  0  0  0  0  0  0  0  0
    7.3420   -4.5850   22.7830 C   0  0  0  0  0  0  0  0  0  0  0  0
  2  4  1  0
  1  7  1  0
  3  7  2  0
  4  7  1  0
  1  9  1  0
  5 10  1  0
  6 10  2  0
  9 10  1  6
  8 12  1  0
 13 14  1  0
 13 15  1  0
 13 16  1  0
 16 17  1  0
 19 22  2  0
 20 22  2  0
  1 23  1  0
 23 24  1  0
 18 25  1  0
 26 28  2  0
 27 28  2  0
 29 30  2  0
 30 31  1  0
 31 32  2  0
  9 33  1  0
 32 33  1  0
 29 34  1  0
 33 34  2  0
 35 36  1  0
 13 37  1  0
 36 37  1  0
 37 38  2  0
  1 39  1  6
 35 39  2  0
 38 39  1  0
 11 40  1  0
 40 41  2  0
  8 42  1  0
 41 42  1  0
 42 43  2  0
 43 44  1  0
  5 45  1  0
 40 45  1  0
 44 45  2  0
 18 46  1  0
 46 47  2  0
 21 48  1  0
 47 48  1  0
 22 49  1  0
 48 49  2  0
 49 50  1  0
 46 51  1  0
 50 51  2  0
 52  2  1  6
 52 24  1  0
 52 53  1  0
 53 54  1  0
 22 55  1  0
 55 28  1  1
 55 54  1  0
 55 56  1  0
 52 57  1  0
 56 57  1  0
M  END
