x3110-x2754-x3117
     RDKit          3D

 51 56  0  0  0  0  0  0  0  0999 V2000
    7.9340    1.4570   23.3410 N   0  0  0  0  0  0  0  0  0  0  0  0
   13.3160    5.1740   23.1350 C   0  0  0  0  0  0  0  0  0  0  0  0
   12.1510    3.0990   23.4340 O   0  0  0  0  0  0  0  0  0  0  0  0
   12.5160    4.0930   22.4540 C   0  0  0  0  0  0  0  0  0  0  0  0
    7.0570   -1.5930   21.6600 N   0  0  0  0  0  0  0  0  0  0  0  0
   10.8310    2.9130   23.4410 C   0  0  0  0  0  0  0  0  0  0  0  0
    8.9610    0.3200   21.5690 O   0  0  0  0  0  0  0  0  0  0  0  0
   10.2450    1.7870   22.9200 C   0  0  0  0  0  0  0  0  0  0  0  0
    4.9370   -3.0450   20.9210 O   0  0  0  0  0  0  0  0  0  0  0  0
    7.9390    0.5160   22.2080 C   0  0  0  0  0  0  0  0  0  0  0  0
    6.7010   -0.1050   21.7720 C   0  0  1  0  0  0  0  0  0  0  0  0
    6.1860   -2.8160   21.3860 C   0  0  0  0  0  0  0  0  0  0  0  0
    8.2080   -4.6380   21.1530 C   0  0  0  0  0  0  0  0  0  0  0  0
   12.3480   -1.8080   24.3590 C   0  0  0  0  0  0  0  0  0  0  0  0
   12.4710   -0.6260   25.0570 C   0  0  0  0  0  0  0  0  0  0  0  0
   13.3810   -1.8030   23.2330 C   0  0  0  0  0  0  0  0  0  0  0  0
   12.6880   -2.9410   25.1450 C   0  0  0  0  0  0  0  0  0  0  0  0
    4.6340   -3.2680   25.2620 C   0  0  0  0  0  0  0  0  0  0  0  0
    3.4230   -3.0680   25.1930 O   0  0  0  0  0  0  0  0  0  0  0  0
    5.4130   -3.1270   26.5230 N   0  0  0  0  0  0  0  0  0  0  0  0
    4.9270   -2.1600   27.5170 C   0  0  0  0  0  0  0  0  0  0  0  0
    6.3640    0.3370   18.0140 N   0  0  0  0  0  0  0  0  0  0  0  0
    5.2450    1.0690   17.8520 C   0  0  0  0  0  0  0  0  0  0  0  0
    4.3510    1.5450   19.0010 C   0  0  0  0  0  0  0  0  0  0  0  0
    4.8080    1.1490   20.3780 C   0  0  0  0  0  0  0  0  0  0  0  0
    6.0950    0.3310   20.4800 C   0  0  0  0  0  0  0  0  0  0  0  0
    6.7400    0.0050   19.2660 C   0  0  0  0  0  0  0  0  0  0  0  0
    9.6430   -2.0880   21.7660 C   0  0  0  0  0  0  0  0  0  0  0  0
   10.8580   -2.1330   22.3940 C   0  0  0  0  0  0  0  0  0  0  0  0
   10.9600   -1.7690   23.7000 C   0  0  0  0  0  0  0  0  0  0  0  0
    9.8370   -1.3630   24.3910 C   0  0  0  0  0  0  0  0  0  0  0  0
    8.5650   -1.3100   23.7340 C   0  0  0  0  0  0  0  0  0  0  0  0
    8.3350   -1.6510   22.3900 C   0  0  0  0  0  0  0  0  0  0  0  0
    8.8350    4.5700   24.4000 O   0  0  0  0  0  0  0  0  0  0  0  0
    9.4810    3.5380   23.8480 C   0  0  0  0  0  0  0  0  0  0  0  0
    8.9310    2.4960   23.1320 C   0  0  2  0  0  0  0  0  0  0  0  0
    8.3330    3.2060   22.1060 C   0  0  0  0  0  0  0  0  0  0  0  0
    7.6110    4.5510   22.5050 C   0  0  0  0  0  0  0  0  0  0  0  0
    8.3640    5.3360   23.3890 C   0  0  0  0  0  0  0  0  0  0  0  0
    6.8930   -4.0860   21.8190 C   0  0  1  0  0  0  0  0  0  0  0  0
    7.4990   -3.7550   23.1730 C   0  0  0  0  0  0  0  0  0  0  0  0
    6.6480   -3.0650   23.9740 C   0  0  0  0  0  0  0  0  0  0  0  0
    5.3570   -3.6780   23.9940 C   0  0  1  0  0  0  0  0  0  0  0  0
    5.4330   -5.0180   23.5990 C   0  0  0  0  0  0  0  0  0  0  0  0
    5.7840   -5.0970   22.2020 C   0  0  0  0  0  0  0  0  0  0  0  0
    6.9440   -4.7940   27.4780 C   0  0  0  0  0  0  0  0  0  0  0  0
    8.2260   -5.3170   27.7080 C   0  0  0  0  0  0  0  0  0  0  0  0
    9.5550   -4.7180   27.2080 C   0  0  0  0  0  0  0  0  0  0  0  0
    9.3410   -3.4510   26.4040 C   0  0  0  0  0  0  0  0  0  0  0  0
    7.9490   -2.8670   26.1510 C   0  0  0  0  0  0  0  0  0  0  0  0
    6.7250   -3.6180   26.7360 C   0  0  0  0  0  0  0  0  0  0  0  0
  2  4  1  0
  3  4  1  0
  3  6  1  0
  6  8  1  0
  1 10  1  0
  7 10  2  0
  5 11  1  0
 11 10  1  6
  5 12  1  0
  9 12  2  0
 14 15  1  0
 14 16  1  0
 14 17  1  0
 18 19  2  0
 18 20  1  0
 20 21  1  0
 22 23  2  0
 23 24  1  0
 24 25  2  0
 11 26  1  0
 25 26  1  0
 22 27  1  0
 26 27  2  0
 28 29  2  0
 14 30  1  0
 29 30  1  0
 30 31  2  0
 31 32  1  0
  5 33  1  0
 28 33  1  0
 32 33  2  0
  6 35  2  0
 34 35  1  0
 36  1  1  1
  8 36  1  0
 35 36  1  0
 36 37  1  0
 37 38  1  0
 34 39  1  0
 38 39  1  0
 40 12  1  0
 40 13  1  6
 40 41  1  0
 41 42  1  0
 43 18  1  1
 42 43  1  0
 43 44  1  0
 40 45  1  0
 44 45  1  0
 46 47  2  0
 47 48  1  0
 48 49  2  0
 49 50  1  0
 20 51  1  0
 46 51  1  0
 50 51  2  0
M  END
