x3110-x3115-x0981
     RDKit          3D

 47 48  0  0  0  0  0  0  0  0999 V2000
    7.9890    1.2890   23.1560 N   0  0  0  0  0  0  0  0  0  0  0  0
   13.3850    5.1800   22.9080 C   0  0  0  0  0  0  0  0  0  0  0  0
   11.9800    3.2830   22.4460 O   0  0  0  0  0  0  0  0  0  0  0  0
   12.4540    4.5280   21.9170 C   0  0  0  0  0  0  0  0  0  0  0  0
    7.1370   -1.7320   21.6090 N   0  0  0  0  0  0  0  0  0  0  0  0
   11.0140    4.3720   24.1990 O   0  0  0  0  0  0  0  0  0  0  0  0
   11.0900    3.4050   23.4580 C   0  0  0  0  0  0  0  0  0  0  0  0
    8.7210    1.2370   21.0260 O   0  0  0  0  0  0  0  0  0  0  0  0
   10.1970    2.1950   23.5580 C   0  0  0  0  0  0  0  0  0  0  0  0
    5.1690   -3.5000   20.8600 O   0  0  0  0  0  0  0  0  0  0  0  0
    8.7100    2.5280   23.4410 C   0  0  1  0  0  0  0  0  0  0  0  0
    7.9230    0.7950   21.8610 C   0  0  0  0  0  0  0  0  0  0  0  0
    6.7580   -0.2390   21.5420 C   0  0  1  0  0  0  0  0  0  0  0  0
    6.0230   -2.6140   21.1570 C   0  0  0  0  0  0  0  0  0  0  0  0
    6.5690   -3.9420   21.7830 C   0  0  2  0  0  0  0  0  0  0  0  0
    7.9520   -4.5010   21.2280 C   0  0  0  0  0  0  0  0  0  0  0  0
   12.2980   -1.9100   24.2210 C   0  0  0  0  0  0  0  0  0  0  0  0
   12.4930   -0.6160   25.0100 C   0  0  0  0  0  0  0  0  0  0  0  0
   13.3390   -1.9510   23.0840 C   0  0  0  0  0  0  0  0  0  0  0  0
   12.6800   -3.0490   25.1830 C   0  0  0  0  0  0  0  0  0  0  0  0
    8.5560    4.8530   23.2030 O   0  0  0  0  0  0  0  0  0  0  0  0
    8.5000    3.5690   22.5510 C   0  0  0  0  0  0  0  0  0  0  0  0
    8.1990    5.9410   22.3410 C   0  0  0  0  0  0  0  0  0  0  0  0
    1.4220   -8.3900   21.8290 C   0  0  0  0  0  0  0  0  0  0  0  0
    3.1950   -6.8890   22.6090 N   0  0  0  0  0  0  0  0  0  0  0  0
    0.8370   -6.2910   22.5910 O   0  0  0  0  0  0  0  0  0  0  0  0
    1.7190   -7.1230   22.3710 C   0  0  0  0  0  0  0  0  0  0  0  0
    2.6280   -7.9540   26.2460 N   0  0  0  0  0  0  0  0  0  0  0  0
    4.1150   -8.1210   24.4390 O   0  0  0  0  0  0  0  0  0  0  0  0
    3.4110   -5.8230   23.4420 C   0  0  1  0  0  0  0  0  0  0  0  0
    5.5350   -5.0080   21.9960 N   0  0  0  0  0  0  0  0  0  0  0  0
    5.4670   -4.7640   24.2400 O   0  0  0  0  0  0  0  0  0  0  0  0
    3.2100   -6.0520   24.8280 C   0  0  0  0  0  0  0  0  0  0  0  0
    3.3830   -7.4240   25.1010 C   0  0  0  0  0  0  0  0  0  0  0  0
    4.8840   -5.1710   23.2370 C   0  0  0  0  0  0  0  0  0  0  0  0
    6.3550    0.3260   17.8460 N   0  0  0  0  0  0  0  0  0  0  0  0
    5.2630    1.1150   17.8540 C   0  0  0  0  0  0  0  0  0  0  0  0
    4.6010    1.4830   19.0090 C   0  0  0  0  0  0  0  0  0  0  0  0
    5.1080    1.0160   20.1980 C   0  0  0  0  0  0  0  0  0  0  0  0
    6.2430    0.2060   20.1920 C   0  0  0  0  0  0  0  0  0  0  0  0
    6.8760   -0.1530   18.9910 C   0  0  0  0  0  0  0  0  0  0  0  0
    9.5210   -1.4160   21.7390 C   0  0  0  0  0  0  0  0  0  0  0  0
   10.7760   -1.4480   22.3440 C   0  0  0  0  0  0  0  0  0  0  0  0
   10.9190   -1.9470   23.6200 C   0  0  0  0  0  0  0  0  0  0  0  0
    9.7860   -2.4350   24.2840 C   0  0  0  0  0  0  0  0  0  0  0  0
    8.4820   -2.4200   23.6860 C   0  0  0  0  0  0  0  0  0  0  0  0
    8.3770   -1.8850   22.3830 C   0  0  0  0  0  0  0  0  0  0  0  0
  2  4  1  0
  3  4  1  0
  3  7  1  0
  6  7  2  0
  7  9  1  0
  1 11  1  0
 11  9  1  6
  1 12  1  0
  8 12  2  0
  5 13  1  0
 13 12  1  6
  5 14  1  0
 10 14  2  0
 14 15  1  0
 15 16  1  6
 17 18  1  0
 17 19  1  0
 17 20  1  0
 11 22  1  0
 21 22  1  0
 21 23  1  0
 24 27  1  0
 25 27  1  0
 26 27  2  0
 25 30  1  0
 15 31  1  0
 30 33  1  1
 28 34  1  0
 29 34  2  0
 33 34  1  0
 30 35  1  0
 31 35  1  0
 32 35  2  0
 36 37  2  0
 37 38  1  0
 38 39  2  0
 13 40  1  0
 39 40  1  0
 36 41  1  0
 40 41  2  0
 42 43  2  0
 17 44  1  0
 43 44  1  0
 44 45  2  0
 45 46  1  0
  5 47  1  0
 42 47  1  0
 46 47  2  0
M  END
