x3110-x0540
     RDKit          3D

 44 46  0  0  0  0  0  0  0  0999 V2000
    8.0470    1.0310   23.2140 N   0  0  0  0  0  0  0  0  0  0  0  0
   13.3620    5.1120   22.6600 C   0  0  0  0  0  0  0  0  0  0  0  0
   11.8990    3.2360   22.5740 O   0  0  0  0  0  0  0  0  0  0  0  0
   12.2040    4.3350   22.1050 C   0  0  0  0  0  0  0  0  0  0  0  0
    6.9520   -1.7940   21.7650 N   0  0  0  0  0  0  0  0  0  0  0  0
   10.7670    4.2360   24.1200 O   0  0  0  0  0  0  0  0  0  0  0  0
   11.0110    3.2660   23.4250 C   0  0  0  0  0  0  0  0  0  0  0  0
    8.4960    0.9790   20.9790 O   0  0  0  0  0  0  0  0  0  0  0  0
   10.3260    2.0270   23.4760 C   0  0  0  0  0  0  0  0  0  0  0  0
    4.7930   -3.0680   21.4020 O   0  0  0  0  0  0  0  0  0  0  0  0
    8.9140    2.1490   23.4510 C   0  0  0  0  0  0  0  0  0  0  0  0
    7.7660    0.5510   21.8710 C   0  0  0  0  0  0  0  0  0  0  0  0
    6.6720   -0.3260   21.5550 C   0  0  1  0  0  0  0  0  0  0  0  0
    6.0770   -2.9170   21.3350 C   0  0  0  0  0  0  0  0  0  0  0  0
    6.7470   -4.0800   20.6970 C   0  0  0  0  0  0  0  0  0  0  0  0
    8.1820   -3.6710   20.3910 C   0  0  0  0  0  0  0  0  0  0  0  0
   12.3940   -1.8900   24.0470 C   0  0  0  0  0  0  0  0  0  0  0  0
   12.6180   -0.6010   24.8350 C   0  0  0  0  0  0  0  0  0  0  0  0
   13.3740   -1.9110   22.8890 C   0  0  0  0  0  0  0  0  0  0  0  0
   12.7480   -3.0280   24.9920 C   0  0  0  0  0  0  0  0  0  0  0  0
    2.6720    1.6070   24.4060 O   0  0  0  0  0  0  0  0  0  0  0  0
    2.8660    2.4530   23.5330 C   0  0  0  0  0  0  0  0  0  0  0  0
    4.0980    2.7390   23.0040 N   0  0  0  0  0  0  0  0  0  0  0  0
    4.8270    1.7820   22.4010 C   0  0  0  0  0  0  0  0  0  0  0  0
    4.1430    1.0630   21.4130 C   0  0  0  0  0  0  0  0  0  0  0  0
    1.9150    3.2460   22.9350 N   0  0  0  0  0  0  0  0  0  0  0  0
    6.3740    0.5380   17.8360 N   0  0  0  0  0  0  0  0  0  0  0  0
    5.2180    1.2130   17.7900 C   0  0  0  0  0  0  0  0  0  0  0  0
    4.5040    1.3710   18.9690 C   0  0  0  0  0  0  0  0  0  0  0  0
    4.9710    0.8600   20.1700 C   0  0  0  0  0  0  0  0  0  0  0  0
    6.1710    0.1830   20.2200 C   0  0  0  0  0  0  0  0  0  0  0  0
    6.8330    0.0400   19.0070 C   0  0  0  0  0  0  0  0  0  0  0  0
    9.3890   -1.3630   21.7590 C   0  0  0  0  0  0  0  0  0  0  0  0
   10.6870   -1.3690   22.2760 C   0  0  0  0  0  0  0  0  0  0  0  0
   10.9730   -1.9410   23.4930 C   0  0  0  0  0  0  0  0  0  0  0  0
    9.9520   -2.5380   24.1900 C   0  0  0  0  0  0  0  0  0  0  0  0
    8.5270   -2.5340   23.6330 C   0  0  0  0  0  0  0  0  0  0  0  0
    8.2720   -1.9220   22.4050 C   0  0  0  0  0  0  0  0  0  0  0  0
    0.6990    4.3110   24.8560 C   0  0  0  0  0  0  0  0  0  0  0  0
   -0.6330    4.9680   25.2470 C   0  0  0  0  0  0  0  0  0  0  0  0
   -1.7450    4.6310   24.2390 C   0  0  0  0  0  0  0  0  0  0  0  0
   -1.7540    3.1600   23.8220 C   0  0  0  0  0  0  0  0  0  0  0  0
   -0.3640    2.6570   23.4060 C   0  0  0  0  0  0  0  0  0  0  0  0
    0.6130    3.6610   23.4710 C   0  0  0  0  0  0  0  0  0  0  0  0
  2  4  1  0
  3  4  1  0
  3  7  1  0
  6  7  2  0
  7  9  1  0
  1 11  1  0
  9 11  1  0
  1 12  1  0
  8 12  2  0
  5 13  1  0
 13 12  1  6
  5 14  1  0
 10 14  2  0
 14 15  1  0
 15 16  1  0
 17 18  1  0
 17 19  1  0
 17 20  1  0
 21 22  2  0
 22 23  1  0
 23 24  1  0
 24 25  1  0
 22 26  1  0
 27 28  2  0
 28 29  1  0
 25 30  1  0
 29 30  2  0
 13 31  1  0
 30 31  1  0
 27 32  1  0
 31 32  2  0
 33 34  2  0
 17 35  1  0
 34 35  1  0
 35 36  2  0
 36 37  1  0
  5 38  1  0
 33 38  1  0
 37 38  2  0
 39 40  1  0
 40 41  1  0
 41 42  1  0
 42 43  1  0
 26 44  1  0
 39 44  1  0
 43 44  1  0
M  END
