x3117-x2563
     RDKit          3D

 40 45  0  0  0  0  0  0  0  0999 V2000
    7.0630   -1.6940   21.5960 N   0  0  0  0  0  0  0  0  0  0  0  0
    6.8370   -4.6460   20.6680 C   0  0  0  0  0  0  0  0  0  0  0  0
    5.0260   -3.3800   21.2930 O   0  0  0  0  0  0  0  0  0  0  0  0
    6.8090   -3.5620   21.7560 C   0  0  0  0  0  0  0  0  0  0  0  0
    7.6370    1.6090   23.0210 N   0  0  0  0  0  0  0  0  0  0  0  0
    8.7300    1.1350   21.1460 O   0  0  0  0  0  0  0  0  0  0  0  0
    5.8630   -2.4260   21.3860 C   0  0  0  0  0  0  0  0  0  0  0  0
    6.9350   -0.2390   21.7940 C   0  0  1  0  0  0  0  0  0  0  0  0
    8.0650    0.6590   22.0870 C   0  0  2  0  0  0  0  0  0  0  0  0
   12.2490   -2.8440   24.3660 C   0  0  0  0  0  0  0  0  0  0  0  0
   12.8430   -1.5280   24.9250 C   0  0  0  0  0  0  0  0  0  0  0  0
   13.6530   -2.4670   24.1660 C   0  0  0  0  0  0  0  0  0  0  0  0
   11.9200   -3.5420   25.5390 C   0  0  0  0  0  0  0  0  0  0  0  0
    5.4320    1.2770   18.7170 C   0  0  1  0  0  0  0  0  0  0  0  0
    4.6750    0.8300   17.9570 C   0  0  0  0  0  0  0  0  0  0  0  0
    4.3370    0.8000   19.5090 C   0  0  0  0  0  0  0  0  0  0  0  0
    5.1510    0.9600   20.6240 C   0  0  0  0  0  0  0  0  0  0  0  0
    6.2360    0.3720   20.7080 C   0  0  0  0  0  0  0  0  0  0  0  0
    6.5070    0.5600   19.4000 C   0  0  0  0  0  0  0  0  0  0  0  0
    9.6510    5.1650   23.9410 O   0  0  0  0  0  0  0  0  0  0  0  0
   10.4940    4.1120   23.4400 C   0  0  0  0  0  0  0  0  0  0  0  0
    9.7550    2.7440   23.4860 C   0  0  0  0  0  0  0  0  0  0  0  0
    8.3760    2.8830   23.3970 C   0  0  0  0  0  0  0  0  0  0  0  0
    7.9370    4.1210   22.5960 C   0  0  0  0  0  0  0  0  0  0  0  0
    8.5580    5.4220   23.0500 C   0  0  0  0  0  0  0  0  0  0  0  0
   10.1640   -0.9050   21.8080 C   0  0  0  0  0  0  0  0  0  0  0  0
   11.1480   -1.7210   22.3170 C   0  0  0  0  0  0  0  0  0  0  0  0
   11.1590   -2.0500   23.7710 C   0  0  0  0  0  0  0  0  0  0  0  0
   10.0280   -1.5030   24.6200 C   0  0  0  0  0  0  0  0  0  0  0  0
    9.0600   -0.6840   24.0730 C   0  0  0  0  0  0  0  0  0  0  0  0
    9.0780   -0.3250   22.7220 C   0  0  0  0  0  0  0  0  0  0  0  0
   11.9330    0.6890   22.8520 C   0  0  0  0  0  0  0  0  0  0  0  0
   12.2670   -0.2270   23.7770 C   0  0  0  0  0  0  0  0  0  0  0  0
   11.6030   -0.6780   25.1030 C   0  0  0  0  0  0  0  0  0  0  0  0
   10.4930    0.2300   25.0470 C   0  0  0  0  0  0  0  0  0  0  0  0
   10.1040    1.1800   24.1190 C   0  0  0  0  0  0  0  0  0  0  0  0
   10.8220    1.4190   22.9990 C   0  0  0  0  0  0  0  0  0  0  0  0
    4.5630    2.4580   19.0330 C   0  0  0  0  0  0  0  0  0  0  0  0
    3.9200    1.2520   19.4070 C   0  0  0  0  0  0  0  0  0  0  0  0
    4.9640    0.3170   19.5240 C   0  0  0  0  0  0  0  0  0  0  0  0
  2  4  1  0
  1  7  1  0
  3  7  2  0
  4  7  1  0
  8  1  1  6
  5  9  1  0
  9  6  1  6
  8  9  1  0
 10 11  1  0
 10 12  1  0
 10 13  1  0
 14 15  1  6
 14 16  1  0
 15 16  2  0
 16 17  1  0
  8 18  1  0
 17 18  1  0
 14 19  1  0
 18 19  2  0
 20 21  1  0
 21 22  1  0
  5 23  1  0
 22 23  1  0
 23 24  1  0
 20 25  1  0
 24 25  1  0
 26 27  2  0
 10 28  1  0
 27 28  1  0
 28 29  2  0
 29 30  1  0
  9 31  1  0
 26 31  1  0
 30 31  2  0
 32 33  2  0
 11 34  1  0
 33 34  1  0
 34 35  2  0
 35 36  1  0
 32 37  1  0
 36 37  2  0
 14 38  1  0
 38 39  2  0
 17 40  2  0
 39 40  1  0
M  END
