x3110-x2646
     RDKit          3D

 35 36  0  0  0  0  0  0  0  0999 V2000
    8.1110    1.0120   23.2300 N   0  0  0  0  0  0  0  0  0  0  0  0
   13.3360    5.1250   22.7350 C   0  0  0  0  0  0  0  0  0  0  0  0
   11.9070    3.2320   22.5350 O   0  0  0  0  0  0  0  0  0  0  0  0
   12.2390    4.3310   22.0850 C   0  0  0  0  0  0  0  0  0  0  0  0
    7.0510   -1.7600   21.6910 N   0  0  0  0  0  0  0  0  0  0  0  0
   10.8150    4.2270   24.1200 O   0  0  0  0  0  0  0  0  0  0  0  0
   11.0480    3.2570   23.4180 C   0  0  0  0  0  0  0  0  0  0  0  0
    8.4790    1.2110   20.9790 O   0  0  0  0  0  0  0  0  0  0  0  0
   10.3790    2.0120   23.4950 C   0  0  0  0  0  0  0  0  0  0  0  0
    4.8850   -3.0450   21.1000 O   0  0  0  0  0  0  0  0  0  0  0  0
    8.9670    2.1170   23.5310 C   0  0  0  0  0  0  0  0  0  0  0  0
    7.8020    0.6440   21.8620 C   0  0  0  0  0  0  0  0  0  0  0  0
    6.7330   -0.2660   21.5270 C   0  0  1  0  0  0  0  0  0  0  0  0
    6.1610   -2.9410   21.4200 C   0  0  0  0  0  0  0  0  0  0  0  0
    6.8230   -4.2970   21.5570 C   0  0  0  0  0  0  0  0  0  0  0  0
    8.2360   -4.4000   20.9410 C   0  0  0  0  0  0  0  0  0  0  0  0
   12.1790   -1.9150   24.4280 C   0  0  0  0  0  0  0  0  0  0  0  0
   12.3830   -0.6110   25.1720 C   0  0  0  0  0  0  0  0  0  0  0  0
   13.3270   -1.9330   23.4890 C   0  0  0  0  0  0  0  0  0  0  0  0
   12.4800   -3.0960   25.3490 C   0  0  0  0  0  0  0  0  0  0  0  0
    4.4760    1.4970   21.3510 C   0  0  0  0  0  0  0  0  0  0  0  0
    6.3290    0.3780   17.7440 N   0  0  0  0  0  0  0  0  0  0  0  0
    5.2730    1.2110   17.7950 C   0  0  0  0  0  0  0  0  0  0  0  0
    4.6430    1.5890   18.9680 C   0  0  0  0  0  0  0  0  0  0  0  0
    5.1250    1.0920   20.1760 C   0  0  0  0  0  0  0  0  0  0  0  0
    6.2090    0.2350   20.2000 C   0  0  0  0  0  0  0  0  0  0  0  0
    6.8160   -0.1350   19.0160 C   0  0  0  0  0  0  0  0  0  0  0  0
    9.4530   -1.4570   21.7570 C   0  0  0  0  0  0  0  0  0  0  0  0
   10.6900   -1.5000   22.4160 C   0  0  0  0  0  0  0  0  0  0  0  0
   10.8020   -1.9290   23.7400 C   0  0  0  0  0  0  0  0  0  0  0  0
    9.6530   -2.3340   24.3980 C   0  0  0  0  0  0  0  0  0  0  0  0
    8.4100   -2.3020   23.7580 C   0  0  0  0  0  0  0  0  0  0  0  0
    8.2820   -1.8600   22.4320 C   0  0  0  0  0  0  0  0  0  0  0  0
   13.3390   -1.7590   20.9550 Cl  0  0  0  0  0  0  0  0  0  0  0  0
   13.2160   -0.8680   22.4490 C   0  0  0  0  0  0  0  0  0  0  0  0
  2  4  1  0
  3  4  1  0
  3  7  1  0
  6  7  2  0
  7  9  1  0
  1 11  1  0
  9 11  1  0
  1 12  1  0
  8 12  2  0
  5 13  1  0
 13 12  1  6
  5 14  1  0
 10 14  2  0
 14 15  1  0
 15 16  1  0
 17 18  1  0
 17 19  1  0
 17 20  1  0
 22 23  2  0
 23 24  1  0
 21 25  1  0
 24 25  2  0
 13 26  1  0
 25 26  1  0
 22 27  1  0
 26 27  2  0
 28 29  2  0
 17 30  1  0
 29 30  1  0
 30 31  2  0
 31 32  1  0
  5 33  1  0
 28 33  1  0
 32 33  2  0
 19 35  1  0
 34 35  1  0
M  END
