x3115-x0426-x2754-x3110
     RDKit          3D

 62 66  0  0  0  0  0  0  0  0999 V2000
    7.8140    1.3540   23.1480 N   0  0  0  0  0  0  0  0  0  0  0  0
   13.3930    5.0860   22.8690 C   0  0  0  0  0  0  0  0  0  0  0  0
   11.9440    3.2270   22.4570 O   0  0  0  0  0  0  0  0  0  0  0  0
   12.3520    4.5020   21.9470 C   0  0  0  0  0  0  0  0  0  0  0  0
    7.0680   -1.6670   21.5900 N   0  0  0  0  0  0  0  0  0  0  0  0
   10.9460    4.3040   24.1930 O   0  0  0  0  0  0  0  0  0  0  0  0
   11.0290    3.3360   23.4550 C   0  0  0  0  0  0  0  0  0  0  0  0
    8.4720    1.3670   20.9680 O   0  0  0  0  0  0  0  0  0  0  0  0
   10.1410    2.1220   23.5320 C   0  0  0  0  0  0  0  0  0  0  0  0
    4.9630   -3.0830   20.8690 O   0  0  0  0  0  0  0  0  0  0  0  0
    8.6570    2.5110   23.5040 C   0  0  1  0  0  0  0  0  0  0  0  0
    7.7150    0.8880   21.8320 C   0  0  0  0  0  0  0  0  0  0  0  0
    6.5980   -0.2260   21.5180 C   0  0  1  0  0  0  0  0  0  0  0  0
    6.2010   -2.8850   21.3440 C   0  0  0  0  0  0  0  0  0  0  0  0
    8.1890   -4.7480   21.1430 C   0  0  0  0  0  0  0  0  0  0  0  0
   12.2930   -1.7660   24.2050 C   0  0  0  0  0  0  0  0  0  0  0  0
   12.4330   -0.5390   25.0920 C   0  0  0  0  0  0  0  0  0  0  0  0
   13.3600   -1.7070   23.1100 C   0  0  0  0  0  0  0  0  0  0  0  0
   12.6470   -2.9910   25.0660 C   0  0  0  0  0  0  0  0  0  0  0  0
    8.5570    4.7980   23.1300 O   0  0  0  0  0  0  0  0  0  0  0  0
    8.3750    3.7170   22.5570 C   0  0  0  0  0  0  0  0  0  0  0  0
    8.2070    5.9290   22.3200 C   0  0  0  0  0  0  0  0  0  0  0  0
    2.3120    1.7970   23.7870 C   0  0  0  0  0  0  0  0  0  0  0  0
    2.1960    0.5700   23.7090 O   0  0  0  0  0  0  0  0  0  0  0  0
    3.3690    2.4960   23.2350 N   0  0  0  0  0  0  0  0  0  0  0  0
    4.2910    1.9210   22.4230 C   0  0  0  0  0  0  0  0  0  0  0  0
    3.8120    1.1190   21.2070 C   0  0  0  0  0  0  0  0  0  0  0  0
    2.8380    4.2700   25.1740 F   0  0  0  0  0  0  0  0  0  0  0  0
    4.8400   -3.6510   25.7280 C   0  0  0  0  0  0  0  0  0  0  0  0
    3.6280   -3.6110   25.6400 O   0  0  0  0  0  0  0  0  0  0  0  0
    5.5380   -3.2450   26.8590 N   0  0  0  0  0  0  0  0  0  0  0  0
    5.1670   -2.1590   27.5670 C   0  0  0  0  0  0  0  0  0  0  0  0
    6.4290    0.6100   17.8790 N   0  0  0  0  0  0  0  0  0  0  0  0
    5.2250    1.2610   17.7180 C   0  0  0  0  0  0  0  0  0  0  0  0
    4.3930    1.4010   18.8470 C   0  0  0  0  0  0  0  0  0  0  0  0
    4.8120    0.9070   20.0830 C   0  0  0  0  0  0  0  0  0  0  0  0
    6.0480    0.2840   20.2110 C   0  0  0  0  0  0  0  0  0  0  0  0
    6.8040    0.1540   19.0760 C   0  0  0  0  0  0  0  0  0  0  0  0
    9.4570   -2.0140   21.6880 C   0  0  0  0  0  0  0  0  0  0  0  0
   10.7100   -2.0510   22.2670 C   0  0  0  0  0  0  0  0  0  0  0  0
   10.8820   -1.7430   23.6020 C   0  0  0  0  0  0  0  0  0  0  0  0
    9.7510   -1.3980   24.3620 C   0  0  0  0  0  0  0  0  0  0  0  0
    8.4730   -1.3660   23.7340 C   0  0  0  0  0  0  0  0  0  0  0  0
    8.3030   -1.6730   22.3720 C   0  0  0  0  0  0  0  0  0  0  0  0
    1.5860    3.7860   25.1790 C   0  0  0  0  0  0  0  0  0  0  0  0
    1.2750    2.5810   24.5170 C   0  0  0  0  0  0  0  0  0  0  0  0
   -0.0220    2.0810   24.5230 C   0  0  0  0  0  0  0  0  0  0  0  0
   -1.0910    2.6940   25.1550 C   0  0  0  0  0  0  0  0  0  0  0  0
   -0.8880    3.9930   25.9000 C   0  0  0  0  0  0  0  0  0  0  0  0
    0.4960    4.6130   25.9460 C   0  0  0  0  0  0  0  0  0  0  0  0
    6.9350   -4.1400   21.8730 C   0  0  1  0  0  0  0  0  0  0  0  0
    7.5080   -3.5000   23.1180 C   0  0  0  0  0  0  0  0  0  0  0  0
    6.3770   -2.9680   23.9450 C   0  0  0  0  0  0  0  0  0  0  0  0
    5.7420   -4.1620   24.5850 C   0  0  2  0  0  0  0  0  0  0  0  0
    5.0470   -4.9520   23.4660 C   0  0  0  0  0  0  0  0  0  0  0  0
    5.9580   -5.1930   22.3940 C   0  0  0  0  0  0  0  0  0  0  0  0
    7.2330   -4.7870   27.7460 C   0  0  0  0  0  0  0  0  0  0  0  0
    8.5430   -5.2440   27.8180 C   0  0  0  0  0  0  0  0  0  0  0  0
    9.5830   -4.6400   27.0970 C   0  0  0  0  0  0  0  0  0  0  0  0
    9.3880   -3.5390   26.2530 C   0  0  0  0  0  0  0  0  0  0  0  0
    7.9690   -3.0110   26.1510 C   0  0  0  0  0  0  0  0  0  0  0  0
    6.8960   -3.7010   26.9450 C   0  0  0  0  0  0  0  0  0  0  0  0
  2  4  1  0
  3  4  1  0
  3  7  1  0
  6  7  2  0
  7  9  1  0
  1 11  1  0
 11  9  1  6
  1 12  1  0
  8 12  2  0
  5 13  1  0
 13 12  1  6
  5 14  1  0
 10 14  2  0
 16 17  1  0
 16 18  1  0
 16 19  1  0
 11 21  1  0
 20 21  1  0
 20 22  1  0
 23 24  2  0
 23 25  1  0
 25 26  1  0
 26 27  1  0
 29 30  2  0
 29 31  1  0
 31 32  1  0
 33 34  2  0
 34 35  1  0
 27 36  1  0
 35 36  2  0
 13 37  1  0
 36 37  1  0
 33 38  1  0
 37 38  2  0
 39 40  2  0
 16 41  1  0
 40 41  1  0
 41 42  2  0
 42 43  1  0
  5 44  1  0
 39 44  1  0
 43 44  2  0
 28 45  1  0
 23 46  1  0
 45 46  2  0
 46 47  1  0
 47 48  2  0
 48 49  1  0
 45 50  1  0
 49 50  2  0
 51 14  1  0
 51 15  1  6
 51 52  1  0
 52 53  1  0
 54 29  1  1
 53 54  1  0
 54 55  1  0
 51 56  1  0
 55 56  1  0
 57 58  2  0
 58 59  1  0
 59 60  2  0
 60 61  1  0
 31 62  1  0
 57 62  1  0
 61 62  2  0
M  END
