x3117-x2540
     RDKit          3D

 33 36  0  0  0  0  0  0  0  0999 V2000
    7.0490   -1.3230   21.7580 N   0  0  0  0  0  0  0  0  0  0  0  0
    6.7010   -3.6880   19.8140 C   0  0  0  0  0  0  0  0  0  0  0  0
    4.9450   -3.2190   21.3550 O   0  0  0  0  0  0  0  0  0  0  0  0
    6.8610   -3.2480   21.2760 C   0  0  0  0  0  0  0  0  0  0  0  0
    8.1380    2.4730   21.9920 N   0  0  0  0  0  0  0  0  0  0  0  0
    9.3060    0.5810   21.5380 O   0  0  0  0  0  0  0  0  0  0  0  0
    5.8190   -2.1950   21.5850 C   0  0  0  0  0  0  0  0  0  0  0  0
    6.9130    0.1670   21.6020 C   0  0  1  0  0  0  0  0  0  0  0  0
    8.1960    1.0190   21.7190 C   0  0  0  0  0  0  0  0  0  0  0  0
    8.3490    2.2950   24.9930 C   0  0  0  0  0  0  0  0  0  0  0  0
   10.2760    2.1270   23.1460 C   0  0  0  0  0  0  0  0  0  0  0  0
   12.1420   -1.5230   23.0870 C   0  0  0  0  0  0  0  0  0  0  0  0
   12.6470   -1.6590   21.8010 C   0  0  0  0  0  0  0  0  0  0  0  0
   12.7020   -0.1890   23.6190 C   0  0  0  0  0  0  0  0  0  0  0  0
   12.7760   -2.7120   23.8150 C   0  0  0  0  0  0  0  0  0  0  0  0
   12.9410   -2.3380   25.2650 C   0  0  0  0  0  0  0  0  0  0  0  0
    6.2190    0.5780   17.6790 N   0  0  0  0  0  0  0  0  0  0  0  0
    5.1850    1.3800   17.6760 C   0  0  0  0  0  0  0  0  0  0  0  0
    4.5590    1.8690   18.9820 C   0  0  0  0  0  0  0  0  0  0  0  0
    5.0680    1.4990   20.3510 C   0  0  0  0  0  0  0  0  0  0  0  0
    6.2730    0.5870   20.3290 C   0  0  0  0  0  0  0  0  0  0  0  0
    6.7800    0.1670   18.9480 C   0  0  0  0  0  0  0  0  0  0  0  0
    9.7080   -1.8730   24.2940 O   0  0  0  0  0  0  0  0  0  0  0  0
    8.3860   -1.8490   23.9840 N   0  0  0  0  0  0  0  0  0  0  0  0
    8.2310   -1.5410   22.6550 C   0  0  0  0  0  0  0  0  0  0  0  0
    9.4810   -1.3900   22.1130 C   0  0  0  0  0  0  0  0  0  0  0  0
   10.5570   -1.5900   23.1460 C   0  0  0  0  0  0  0  0  0  0  0  0
   10.1100    5.5780   23.2270 O   0  0  0  0  0  0  0  0  0  0  0  0
   10.1740    4.5440   24.2020 C   0  0  0  0  0  0  0  0  0  0  0  0
    8.8650    3.1910   23.6590 S   0  0  0  0  0  0  0  0  0  0  0  0
    7.2210    4.0700   23.4620 C   0  0  0  0  0  0  0  0  0  0  0  0
    8.3410    4.9370   23.8740 C   0  0  2  0  0  0  0  0  0  0  0  0
    8.8680    5.7600   22.9110 C   0  0  0  0  0  0  0  0  0  0  0  0
  2  4  1  0
  1  7  1  0
  3  7  2  0
  4  7  1  0
  1  8  1  0
  5  9  1  0
  6  9  2  0
  8  9  1  6
 12 13  1  0
 12 14  1  0
 12 15  1  0
 15 16  1  0
 17 18  2  0
 18 19  1  0
 19 20  2  0
  8 21  1  0
 20 21  1  0
 17 22  1  0
 21 22  2  0
 23 24  1  0
  1 25  1  0
 24 25  2  0
 25 26  1  0
 12 27  1  0
 23 27  1  0
 26 27  2  0
 28 29  1  0
  5 30  1  0
 10 30  1  0
 11 30  1  0
 29 30  1  0
 30 31  1  0
 30 32  1  0
 32 31  1  6
 28 33  1  0
 32 33  1  0
M  END
