x3117-x0981
     RDKit          3D

 43 45  0  0  0  0  0  0  0  0999 V2000
    6.8480   -1.8810   21.9580 N   0  0  0  0  0  0  0  0  0  0  0  0
    6.3750   -4.7940   20.1380 C   0  0  0  0  0  0  0  0  0  0  0  0
    4.6940   -2.9810   21.4460 O   0  0  0  0  0  0  0  0  0  0  0  0
    6.3600   -4.5330   21.6460 C   0  0  1  0  0  0  0  0  0  0  0  0
    7.3630    1.7220   22.9890 N   0  0  0  0  0  0  0  0  0  0  0  0
    8.4910    0.7510   21.2000 O   0  0  0  0  0  0  0  0  0  0  0  0
    5.9320   -3.0590   21.7080 C   0  0  0  0  0  0  0  0  0  0  0  0
    6.4140   -0.4450   21.8170 C   0  0  1  0  0  0  0  0  0  0  0  0
    7.5080    0.6700   21.9360 C   0  0  0  0  0  0  0  0  0  0  0  0
   12.3470   -1.7170   24.2680 C   0  0  0  0  0  0  0  0  0  0  0  0
   12.5250   -0.6240   25.0910 C   0  0  0  0  0  0  0  0  0  0  0  0
   13.2420   -1.5330   23.2510 C   0  0  0  0  0  0  0  0  0  0  0  0
   12.8020   -2.9630   25.0430 C   0  0  0  0  0  0  0  0  0  0  0  0
    1.4140   -8.4580   21.7660 C   0  0  0  0  0  0  0  0  0  0  0  0
    3.0630   -6.8780   22.7920 N   0  0  0  0  0  0  0  0  0  0  0  0
    0.5080   -6.3600   22.3740 O   0  0  0  0  0  0  0  0  0  0  0  0
    1.6680   -7.2020   22.3380 C   0  0  0  0  0  0  0  0  0  0  0  0
    2.4550   -8.2150   26.1010 N   0  0  0  0  0  0  0  0  0  0  0  0
    4.0030   -8.0840   24.5250 O   0  0  0  0  0  0  0  0  0  0  0  0
    3.3240   -5.7610   23.4780 C   0  0  1  0  0  0  0  0  0  0  0  0
    5.3960   -5.4760   22.2210 N   0  0  0  0  0  0  0  0  0  0  0  0
    5.1330   -4.6660   24.3170 O   0  0  0  0  0  0  0  0  0  0  0  0
    2.8620   -6.0060   24.9220 C   0  0  0  0  0  0  0  0  0  0  0  0
    3.1410   -7.5140   25.1660 C   0  0  0  0  0  0  0  0  0  0  0  0
    4.6330   -5.2820   23.3820 C   0  0  0  0  0  0  0  0  0  0  0  0
    6.4650    0.3510   17.9360 N   0  0  0  0  0  0  0  0  0  0  0  0
    5.4040    1.1890   17.8320 C   0  0  0  0  0  0  0  0  0  0  0  0
    4.5160    1.6070   19.0130 C   0  0  0  0  0  0  0  0  0  0  0  0
    4.9560    0.9820   20.3360 C   0  0  0  0  0  0  0  0  0  0  0  0
    6.0340    0.1290   20.4700 C   0  0  0  0  0  0  0  0  0  0  0  0
    6.7790   -0.1580   19.1620 C   0  0  0  0  0  0  0  0  0  0  0  0
    9.7100    4.9710   24.0800 O   0  0  0  0  0  0  0  0  0  0  0  0
   10.4720    3.8450   23.6410 C   0  0  0  0  0  0  0  0  0  0  0  0
    9.6700    2.5350   23.6650 C   0  0  0  0  0  0  0  0  0  0  0  0
    8.2080    2.8980   23.3950 C   0  0  0  0  0  0  0  0  0  0  0  0
    8.1580    4.0400   22.5780 C   0  0  0  0  0  0  0  0  0  0  0  0
    8.6670    5.2290   23.1440 C   0  0  0  0  0  0  0  0  0  0  0  0
    9.4740   -2.3150   21.7760 C   0  0  0  0  0  0  0  0  0  0  0  0
   10.7330   -2.2380   22.3990 C   0  0  0  0  0  0  0  0  0  0  0  0
   10.9240   -1.7860   23.7050 C   0  0  0  0  0  0  0  0  0  0  0  0
    9.8030   -1.4030   24.4260 C   0  0  0  0  0  0  0  0  0  0  0  0
    8.4820   -1.4630   23.8270 C   0  0  0  0  0  0  0  0  0  0  0  0
    8.2000   -1.8890   22.5250 C   0  0  0  0  0  0  0  0  0  0  0  0
  4  2  1  6
  1  7  1  0
  3  7  2  0
  4  7  1  0
  1  8  1  0
  5  9  1  0
  6  9  2  0
  8  9  1  6
 10 11  1  0
 10 12  1  0
 10 13  1  0
 14 17  1  0
 15 17  1  0
 16 17  2  0
 15 20  1  0
  4 21  1  0
 20 23  1  1
 18 24  1  0
 19 24  2  0
 23 24  1  0
 20 25  1  0
 21 25  1  0
 22 25  2  0
 26 27  2  0
 27 28  1  0
 28 29  2  0
  8 30  1  0
 29 30  1  0
 26 31  1  0
 30 31  2  0
 32 33  1  0
 33 34  1  0
  5 35  1  0
 34 35  1  0
 35 36  1  0
 32 37  1  0
 36 37  1  0
 38 39  2  0
 10 40  1  0
 39 40  1  0
 40 41  2  0
 41 42  1  0
  1 43  1  0
 38 43  1  0
 42 43  2  0
M  END
