x3117-x3110-x0771-x1077
     RDKit          3D

 60 67  0  0  0  0  0  0  0  0999 V2000
    7.8580    1.9780   22.5480 N   0  0  0  0  0  0  0  0  0  0  0  0
   13.6250    5.1520   22.7270 C   0  0  0  0  0  0  0  0  0  0  0  0
   12.3410    3.1420   22.9430 O   0  0  0  0  0  0  0  0  0  0  0  0
   12.5720    4.1610   22.2910 C   0  0  0  0  0  0  0  0  0  0  0  0
    6.9110   -1.5910   21.8570 N   0  0  0  0  0  0  0  0  0  0  0  0
   11.0300    3.0300   23.1530 C   0  0  0  0  0  0  0  0  0  0  0  0
    9.0100    0.3540   21.3610 O   0  0  0  0  0  0  0  0  0  0  0  0
   10.1790    1.7730   23.5150 C   0  0  0  0  0  0  0  0  0  0  0  0
    4.8090   -2.9700   21.2060 O   0  0  0  0  0  0  0  0  0  0  0  0
    7.9460    0.6910   21.8400 C   0  0  0  0  0  0  0  0  0  0  0  0
    6.6660   -0.2440   21.6310 C   0  0  1  0  0  0  0  0  0  0  0  0
    6.1240   -2.7960   21.3310 C   0  0  0  0  0  0  0  0  0  0  0  0
    6.8590   -4.0690   20.9070 C   0  0  1  0  0  0  0  0  0  0  0  0
    8.3000   -3.7820   20.5030 C   0  0  0  0  0  0  0  0  0  0  0  0
   12.2930   -1.7920   24.1550 C   0  0  0  0  0  0  0  0  0  0  0  0
   12.4460   -0.5150   24.9490 C   0  0  0  0  0  0  0  0  0  0  0  0
   13.3370   -1.8020   23.0360 C   0  0  0  0  0  0  0  0  0  0  0  0
   12.6930   -2.9320   25.1100 C   0  0  0  0  0  0  0  0  0  0  0  0
    0.6890   -1.3000   26.4480 C   0  0  0  0  0  0  0  0  0  0  0  0
    4.0380   -7.0420   25.4480 O   0  0  0  0  0  0  0  0  0  0  0  0
    6.0520   -5.5480   26.2780 N   0  0  0  0  0  0  0  0  0  0  0  0
    1.7270   -6.0620   24.9400 C   0  0  0  0  0  0  0  0  0  0  0  0
    4.7120   -5.7690   25.5560 S   0  0  2  0  0  0  0  0  0  0  0  0
    6.4000    0.3160   17.8820 N   0  0  0  0  0  0  0  0  0  0  0  0
    5.3200    1.1310   17.8310 C   0  0  0  0  0  0  0  0  0  0  0  0
    4.5930    1.5320   19.1060 C   0  0  0  0  0  0  0  0  0  0  0  0
    5.0800    1.0430   20.2930 C   0  0  0  0  0  0  0  0  0  0  0  0
    6.2060    0.2070   20.3030 C   0  0  0  0  0  0  0  0  0  0  0  0
    6.8260   -0.1300   19.0810 C   0  0  0  0  0  0  0  0  0  0  0  0
    9.3490   -1.8050   21.6860 C   0  0  0  0  0  0  0  0  0  0  0  0
   10.6510   -1.8570   22.2280 C   0  0  0  0  0  0  0  0  0  0  0  0
   10.8510   -1.7650   23.6070 C   0  0  0  0  0  0  0  0  0  0  0  0
    9.7290   -1.6320   24.4290 C   0  0  0  0  0  0  0  0  0  0  0  0
    8.4260   -1.5830   23.8720 C   0  0  0  0  0  0  0  0  0  0  0  0
    8.2230   -1.6650   22.4810 C   0  0  0  0  0  0  0  0  0  0  0  0
    9.3380    5.1350   23.1470 O   0  0  0  0  0  0  0  0  0  0  0  0
    9.7850    3.8140   23.2290 C   0  0  0  0  0  0  0  0  0  0  0  0
    8.8160    2.6240   23.4590 C   0  0  1  0  0  0  0  0  0  0  0  0
    8.1020    3.1120   24.4830 C   0  0  0  0  0  0  0  0  0  0  0  0
    7.4640    4.3300   24.1090 C   0  0  0  0  0  0  0  0  0  0  0  0
    8.1220    5.1010   23.0640 C   0  0  0  0  0  0  0  0  0  0  0  0
    7.3430   -5.2140   25.5500 N   0  0  0  0  0  0  0  0  0  0  0  0
    7.4230   -5.5210   24.1780 C   0  0  2  0  0  0  0  0  0  0  0  0
    8.7610   -5.6970   23.7830 C   0  0  0  0  0  0  0  0  0  0  0  0
    9.6400   -5.6720   24.8440 C   0  0  0  0  0  0  0  0  0  0  0  0
   10.1140   -4.3850   25.2280 N   0  0  0  0  0  0  0  0  0  0  0  0
    9.1780   -3.6790   26.1940 C   0  0  0  0  0  0  0  0  0  0  0  0
    7.7090   -3.8620   25.9310 C   0  0  0  0  0  0  0  0  0  0  0  0
    1.6600   -2.4170   26.2300 C   0  0  0  0  0  0  0  0  0  0  0  0
    1.1430   -3.7280   25.6710 C   0  0  0  0  0  0  0  0  0  0  0  0
    2.1470   -4.7270   25.4980 C   0  0  0  0  0  0  0  0  0  0  0  0
    3.4860   -4.4590   25.8350 C   0  0  0  0  0  0  0  0  0  0  0  0
    4.0320   -3.2380   26.3700 C   0  0  0  0  0  0  0  0  0  0  0  0
    3.1910   -2.1960   26.5880 C   0  0  0  0  0  0  0  0  0  0  0  0
    6.7780   -4.9850   21.9480 N   0  0  0  0  0  0  0  0  0  0  0  0
    5.8330   -6.1270   21.8720 C   0  0  0  0  0  0  0  0  0  0  0  0
    4.8990   -6.1890   22.7860 C   0  0  0  0  0  0  0  0  0  0  0  0
    5.0710   -5.3240   23.9580 N   0  0  0  0  0  0  0  0  0  0  0  0
    5.6840   -4.0380   23.7160 C   0  0  0  0  0  0  0  0  0  0  0  0
    6.8870   -4.3990   23.2520 C   0  0  1  0  0  0  0  0  0  0  0  0
  2  4  1  0
  3  4  1  0
  3  6  1  0
  6  8  1  0
  1 10  1  0
  7 10  2  0
  5 11  1  0
 11 10  1  6
  5 12  1  0
  9 12  2  0
 12 13  1  0
 13 14  1  1
 15 16  1  0
 15 17  1  0
 15 18  1  0
 20 23  2  0
 21 23  2  0
 24 25  2  0
 25 26  1  0
 26 27  2  0
 11 28  1  0
 27 28  1  0
 24 29  1  0
 28 29  2  0
 30 31  2  0
 15 32  1  0
 31 32  1  0
 32 33  2  0
 33 34  1  0
  5 35  1  0
 30 35  1  0
 34 35  2  0
  6 37  2  0
 36 37  1  0
 38  1  1  6
  8 38  1  0
 37 38  1  0
 38 39  1  0
 39 40  1  0
 36 41  1  0
 40 41  1  0
 21 42  1  0
 42 43  1  0
 43 44  1  6
 44 45  1  0
 45 46  1  0
 46 47  1  0
 42 48  1  0
 47 48  1  0
 19 49  1  0
 49 50  2  0
 22 51  1  0
 50 51  1  0
 23 52  1  1
 51 52  2  0
 52 53  1  0
 49 54  1  0
 53 54  2  0
 13 55  1  0
 55 56  1  0
 56 57  1  0
 23 58  1  0
 57 58  1  0
 58 59  1  0
 43 60  1  0
 60 55  1  6
 59 60  1  0
M  END
