x3115-x3117-x3110-x2754
     RDKit          3D

 52 58  0  0  0  0  0  0  0  0999 V2000
    7.8370    1.5030   23.1390 N   0  0  0  0  0  0  0  0  0  0  0  0
   13.2000    5.0670   21.6760 C   0  0  0  0  0  0  0  0  0  0  0  0
   12.4000    3.5030   23.1840 O   0  0  0  0  0  0  0  0  0  0  0  0
   13.0900    4.5270   23.0980 C   0  0  0  0  0  0  0  0  0  0  0  0
    7.0250   -1.7650   21.6930 N   0  0  0  0  0  0  0  0  0  0  0  0
   11.1670    3.7940   23.6250 C   0  0  0  0  0  0  0  0  0  0  0  0
    8.7660    0.7460   21.2080 O   0  0  0  0  0  0  0  0  0  0  0  0
   10.5660    2.9460   22.5240 C   0  0  0  0  0  0  0  0  0  0  0  0
    4.9630   -3.1150   21.0650 O   0  0  0  0  0  0  0  0  0  0  0  0
    7.8280    0.6870   21.9890 C   0  0  0  0  0  0  0  0  0  0  0  0
    6.6210   -0.3020   21.5780 C   0  0  1  0  0  0  0  0  0  0  0  0
    6.2450   -3.0070   21.5010 C   0  0  0  0  0  0  0  0  0  0  0  0
    8.1470   -4.7610   21.0710 C   0  0  0  0  0  0  0  0  0  0  0  0
   12.2990   -1.7890   24.1690 C   0  0  0  0  0  0  0  0  0  0  0  0
   12.5000   -0.5530   25.0290 C   0  0  0  0  0  0  0  0  0  0  0  0
   13.3570   -1.8090   23.0620 C   0  0  0  0  0  0  0  0  0  0  0  0
   12.6130   -3.0000   25.0610 C   0  0  0  0  0  0  0  0  0  0  0  0
    6.5520    4.6060   24.0800 C   0  0  0  0  0  0  0  0  0  0  0  0
    4.6940   -3.3210   25.3540 C   0  0  0  0  0  0  0  0  0  0  0  0
    3.4470   -3.3390   25.6590 O   0  0  0  0  0  0  0  0  0  0  0  0
    5.5050   -2.9190   26.4770 N   0  0  0  0  0  0  0  0  0  0  0  0
    5.0010   -2.2930   27.5870 C   0  0  0  0  0  0  0  0  0  0  0  0
    6.4080    0.4100   17.9380 N   0  0  0  0  0  0  0  0  0  0  0  0
    5.2520    1.2450   17.7920 C   0  0  0  0  0  0  0  0  0  0  0  0
    4.5410    1.5420   18.9290 C   0  0  0  0  0  0  0  0  0  0  0  0
    4.9100    1.0720   20.1980 C   0  0  0  0  0  0  0  0  0  0  0  0
    6.0590    0.2640   20.3010 C   0  0  0  0  0  0  0  0  0  0  0  0
    6.7540   -0.0250   19.1130 C   0  0  0  0  0  0  0  0  0  0  0  0
    9.4920   -2.0890   21.7460 C   0  0  0  0  0  0  0  0  0  0  0  0
   10.7860   -2.1210   22.2590 C   0  0  0  0  0  0  0  0  0  0  0  0
   10.9580   -1.7940   23.5960 C   0  0  0  0  0  0  0  0  0  0  0  0
    9.8290   -1.4620   24.3450 C   0  0  0  0  0  0  0  0  0  0  0  0
    8.5300   -1.4400   23.7850 C   0  0  0  0  0  0  0  0  0  0  0  0
    8.3350   -1.7590   22.4350 C   0  0  0  0  0  0  0  0  0  0  0  0
    9.3500    4.7110   24.8650 O   0  0  0  0  0  0  0  0  0  0  0  0
    9.9380    3.8810   23.7810 C   0  0  0  0  0  0  0  0  0  0  0  0
    8.8190    3.1870   22.7710 S   0  0  0  0  0  0  0  0  0  0  0  0
    7.7710    4.5550   21.8530 C   0  0  0  0  0  0  0  0  0  0  0  0
    7.8780    4.6050   23.3130 C   0  0  1  0  0  0  0  0  0  0  0  0
    8.8140    5.6260   23.8990 C   0  0  0  0  0  0  0  0  0  0  0  0
    6.9000   -4.3270   21.8640 C   0  0  1  0  0  0  0  0  0  0  0  0
    7.4460   -3.8860   23.2160 C   0  0  0  0  0  0  0  0  0  0  0  0
    6.4070   -2.8740   23.7380 C   0  0  0  0  0  0  0  0  0  0  0  0
    5.0780   -3.6690   23.9730 C   0  0  1  0  0  0  0  0  0  0  0  0
    5.1630   -5.1490   23.5120 C   0  0  0  0  0  0  0  0  0  0  0  0
    5.8010   -5.3600   22.1220 C   0  0  0  0  0  0  0  0  0  0  0  0
    6.9660   -4.7320   27.4160 C   0  0  0  0  0  0  0  0  0  0  0  0
    8.2420   -5.2880   27.6110 C   0  0  0  0  0  0  0  0  0  0  0  0
    9.3660   -4.6670   27.1030 C   0  0  0  0  0  0  0  0  0  0  0  0
    9.2400   -3.4890   26.3940 C   0  0  0  0  0  0  0  0  0  0  0  0
    7.9690   -2.9340   26.2030 C   0  0  0  0  0  0  0  0  0  0  0  0
    6.8090   -3.5350   26.7020 C   0  0  0  0  0  0  0  0  0  0  0  0
  2  4  1  0
  3  4  1  0
  3  6  1  0
  6  8  1  0
  1 10  1  0
  7 10  2  0
  5 11  1  0
 11 10  1  6
  5 12  1  0
  9 12  2  0
 14 15  1  0
 14 16  1  0
 14 17  1  0
 19 20  2  0
 19 21  1  0
 21 22  1  0
 23 24  2  0
 24 25  1  0
 25 26  2  0
 11 27  1  0
 26 27  1  0
 23 28  1  0
 27 28  2  0
 29 30  2  0
 14 31  1  0
 30 31  1  0
 31 32  2  0
 32 33  1  0
  5 34  1  0
 29 34  1  0
 33 34  2  0
  6 36  2  0
 35 36  1  0
  1 37  1  0
  8 37  1  0
 36 37  1  0
 37 38  1  0
 39 18  1  1
 37 39  1  0
 38 39  1  0
 35 40  1  0
 39 40  1  0
 41 12  1  0
 41 13  1  6
 41 42  1  0
 42 43  1  0
 44 19  1  1
 43 44  1  0
 44 45  1  0
 41 46  1  0
 45 46  1  0
 47 48  2  0
 48 49  1  0
 49 50  2  0
 50 51  1  0
 21 52  1  0
 47 52  1  0
 51 52  2  0
M  END
