x3110-x0689-x0981
     RDKit          3D

 55 58  0  0  0  0  0  0  0  0999 V2000
    7.9720    0.8650   23.1960 N   0  0  0  0  0  0  0  0  0  0  0  0
   13.3820    5.1120   22.6580 C   0  0  0  0  0  0  0  0  0  0  0  0
   11.9010    3.2270   22.5400 O   0  0  0  0  0  0  0  0  0  0  0  0
   12.2350    4.3270   22.0900 C   0  0  0  0  0  0  0  0  0  0  0  0
    7.0070   -1.5510   21.5460 N   0  0  0  0  0  0  0  0  0  0  0  0
   10.7920    4.2360   24.1110 O   0  0  0  0  0  0  0  0  0  0  0  0
   11.0120    3.2600   23.4180 C   0  0  0  0  0  0  0  0  0  0  0  0
    8.5880    1.3930   20.9160 O   0  0  0  0  0  0  0  0  0  0  0  0
   10.2570    1.8920   23.4810 C   0  0  0  0  0  0  0  0  0  0  0  0
    4.9120   -3.0220   20.8960 O   0  0  0  0  0  0  0  0  0  0  0  0
    8.7000    1.9750   23.6820 C   0  0  0  0  0  0  0  0  0  0  0  0
    7.7960    0.6480   21.8400 C   0  0  0  0  0  0  0  0  0  0  0  0
    6.6770   -0.3910   21.4820 C   0  0  1  0  0  0  0  0  0  0  0  0
    6.1450   -2.7920   21.3680 C   0  0  0  0  0  0  0  0  0  0  0  0
    6.7800   -4.0590   21.8870 C   0  0  2  0  0  0  0  0  0  0  0  0
    8.1260   -4.5450   21.1300 C   0  0  0  0  0  0  0  0  0  0  0  0
   12.1170   -1.9220   24.3740 C   0  0  0  0  0  0  0  0  0  0  0  0
   12.7380   -0.7580   24.7490 C   0  0  0  0  0  0  0  0  0  0  0  0
   13.2290   -1.5760   23.4800 C   0  0  0  0  0  0  0  0  0  0  0  0
   12.5150   -3.1390   25.1410 C   0  0  0  0  0  0  0  0  0  0  0  0
    1.3910   -8.4320   21.7710 C   0  0  0  0  0  0  0  0  0  0  0  0
    3.0460   -7.0450   22.7320 N   0  0  0  0  0  0  0  0  0  0  0  0
    0.8670   -6.3320   22.4750 O   0  0  0  0  0  0  0  0  0  0  0  0
    1.7300   -7.2030   22.3550 C   0  0  0  0  0  0  0  0  0  0  0  0
    2.3670   -8.1810   26.2730 N   0  0  0  0  0  0  0  0  0  0  0  0
    3.5500   -8.3640   24.4130 O   0  0  0  0  0  0  0  0  0  0  0  0
    3.3470   -5.9140   23.4470 C   0  0  1  0  0  0  0  0  0  0  0  0
    4.7870   -3.9000   23.8030 C   0  0  0  0  0  0  0  0  0  0  0  0
    3.0910   -6.2430   24.9630 C   0  0  2  0  0  0  0  0  0  0  0  0
    2.9990   -7.6320   25.2090 C   0  0  0  0  0  0  0  0  0  0  0  0
    5.2360   -3.6840   24.9500 O   0  0  0  0  0  0  0  0  0  0  0  0
    6.3520    0.4380   17.7830 N   0  0  0  0  0  0  0  0  0  0  0  0
    5.2390    1.1950   17.8230 C   0  0  0  0  0  0  0  0  0  0  0  0
    4.5380    1.4630   18.9760 C   0  0  0  0  0  0  0  0  0  0  0  0
    4.9870    0.9430   20.1830 C   0  0  0  0  0  0  0  0  0  0  0  0
    6.1430    0.1590   20.1890 C   0  0  0  0  0  0  0  0  0  0  0  0
    6.7820   -0.0680   18.9700 C   0  0  0  0  0  0  0  0  0  0  0  0
    9.5050   -1.3340   21.6890 C   0  0  0  0  0  0  0  0  0  0  0  0
   10.7490   -1.4160   22.3420 C   0  0  0  0  0  0  0  0  0  0  0  0
   10.8130   -1.8570   23.6670 C   0  0  0  0  0  0  0  0  0  0  0  0
    9.6610   -2.2320   24.3520 C   0  0  0  0  0  0  0  0  0  0  0  0
    8.3900   -2.1720   23.7370 C   0  0  0  0  0  0  0  0  0  0  0  0
    8.2770   -1.6770   22.2700 C   0  0  0  0  0  0  0  0  0  0  0  0
    6.6500   -6.3600   22.1020 N   0  0  0  0  0  0  0  0  0  0  0  0
    5.7260   -5.2570   22.0710 C   0  0  1  0  0  0  0  0  0  0  0  0
    4.8620   -5.3280   23.2150 C   0  0  2  0  0  0  0  0  0  0  0  0
    5.6590   -6.0130   24.2860 N   0  0  0  0  0  0  0  0  0  0  0  0
    7.0430   -5.5210   24.2450 C   0  0  0  0  0  0  0  0  0  0  0  0
    7.6630   -5.9660   23.0950 C   0  0  0  0  0  0  0  0  0  0  0  0
    3.7430   -1.8250   26.2410 S   0  0  0  0  0  0  0  0  0  0  0  0
    3.3140   -3.5340   25.9630 C   0  0  0  0  0  0  0  0  0  0  0  0
    2.0800   -4.0160   25.6110 C   0  0  0  0  0  0  0  0  0  0  0  0
    1.2180   -2.7290   25.5330 C   0  0  0  0  0  0  0  0  0  0  0  0
    2.0340   -1.4760   25.8620 C   0  0  0  0  0  0  0  0  0  0  0  0
    1.8030   -5.5390   25.3840 C   0  0  0  0  0  0  0  0  0  0  0  0
  2  4  1  0
  3  4  1  0
  3  7  1  0
  6  7  2  0
  7  9  1  0
  1 11  1  0
  9 11  1  0
  1 12  1  0
  8 12  2  0
  5 13  1  0
 13 12  1  6
  5 14  1  0
 10 14  2  0
 14 15  1  0
 15 16  1  6
 17 18  1  0
 17 19  1  0
 17 20  1  0
 21 24  1  0
 22 24  1  0
 23 24  2  0
 27 22  1  6
 27 29  1  0
 25 30  1  0
 26 30  2  0
 29 30  1  0
 28 31  2  0
 32 33  2  0
 33 34  1  0
 34 35  2  0
 13 36  1  0
 35 36  1  0
 32 37  1  0
 36 37  2  0
 38 39  2  0
 17 40  1  0
 39 40  1  0
 40 41  2  0
 41 42  1  0
  5 43  1  0
 38 43  1  0
 42 43  2  0
 15 45  1  0
 45 44  1  1
 27 46  1  0
 46 28  1  1
 45 46  1  0
 46 47  1  0
 47 48  1  0
 44 49  1  0
 48 49  1  0
 50 51  1  0
 51 52  2  0
 52 53  1  0
 50 54  1  0
 53 54  2  0
 29 55  1  6
 52 55  1  0
M  END
