x3110-x1308-x0946
     RDKit          3D

 56 61  0  0  0  0  0  0  0  0999 V2000
    7.9300    1.1320   23.3470 N   0  0  0  0  0  0  0  0  0  0  0  0
   13.2870    5.2740   21.6510 C   0  0  0  0  0  0  0  0  0  0  0  0
   13.2800    4.6540   22.9890 C   0  0  0  0  0  0  0  0  0  0  0  0
    6.8550   -1.6270   21.9840 C   0  0  2  0  0  0  0  0  0  0  0  0
   10.3050    4.9380   23.6630 C   0  0  0  0  0  0  0  0  0  0  0  0
    8.5400    1.3980   21.0150 O   0  0  0  0  0  0  0  0  0  0  0  0
    4.8250   -2.9260   20.8650 O   0  0  0  0  0  0  0  0  0  0  0  0
    8.6890    2.3360   23.7880 C   0  0  0  0  0  0  0  0  0  0  0  0
    7.7380    0.8230   21.9940 C   0  0  0  0  0  0  0  0  0  0  0  0
    6.5990   -0.1160   21.6560 C   0  0  1  0  0  0  0  0  0  0  0  0
    6.0910   -2.7980   21.1590 C   0  0  0  0  0  0  0  0  0  0  0  0
    6.8270   -4.0260   20.8500 C   0  0  1  0  0  0  0  0  0  0  0  0
    8.2960   -3.8170   20.5330 C   0  0  0  0  0  0  0  0  0  0  0  0
   12.4100   -1.9080   24.1790 C   0  0  0  0  0  0  0  0  0  0  0  0
   12.6160   -0.7390   24.8900 C   0  0  0  0  0  0  0  0  0  0  0  0
   13.4340   -1.9780   23.0590 C   0  0  0  0  0  0  0  0  0  0  0  0
   12.7280   -3.0150   25.1940 C   0  0  0  0  0  0  0  0  0  0  0  0
    9.1440    5.2440   22.7850 N   0  0  0  0  0  0  0  0  0  0  0  0
    9.9190    5.1910   24.7980 O   0  0  0  0  0  0  0  0  0  0  0  0
   11.1430    5.8370   23.5050 O   0  0  0  0  0  0  0  0  0  0  0  0
    0.4900   -1.1640   26.4290 Cl  0  0  0  0  0  0  0  0  0  0  0  0
    6.5190   -5.1000   26.9880 O   0  0  0  0  0  0  0  0  0  0  0  0
    4.8260   -6.8770   26.3510 O   0  0  0  0  0  0  0  0  0  0  0  0
    5.4540   -5.5930   26.1500 S   0  0  0  0  0  0  0  0  0  0  0  0
    6.1010   -2.1970   23.1210 C   0  0  0  0  0  0  0  0  0  0  0  0
    5.6180   -3.5350   23.0080 C   0  0  0  0  0  0  0  0  0  0  0  0
    6.3980    0.3960   17.8190 N   0  0  0  0  0  0  0  0  0  0  0  0
    5.3040    1.1800   17.8200 C   0  0  0  0  0  0  0  0  0  0  0  0
    4.5930    1.5660   18.9380 C   0  0  0  0  0  0  0  0  0  0  0  0
    4.9810    1.1530   20.2080 C   0  0  0  0  0  0  0  0  0  0  0  0
    6.1130    0.3420   20.2950 C   0  0  0  0  0  0  0  0  0  0  0  0
    6.8320   -0.0420   19.0120 C   0  0  0  0  0  0  0  0  0  0  0  0
    9.3990   -1.4890   21.6680 C   0  0  0  0  0  0  0  0  0  0  0  0
   10.8650   -1.5440   22.1480 C   0  0  0  0  0  0  0  0  0  0  0  0
   11.0250   -1.8690   23.6090 C   0  0  0  0  0  0  0  0  0  0  0  0
    9.7920   -2.1270   24.4510 C   0  0  0  0  0  0  0  0  0  0  0  0
    8.5140   -2.0500   23.8720 C   0  0  0  0  0  0  0  0  0  0  0  0
    8.3080   -1.7340   22.5170 C   0  0  0  0  0  0  0  0  0  0  0  0
   12.1570    1.0230   22.9410 C   0  0  0  0  0  0  0  0  0  0  0  0
   12.8730    2.1930   22.8710 C   0  0  0  0  0  0  0  0  0  0  0  0
   12.3590    3.4540   23.0850 C   0  0  0  0  0  0  0  0  0  0  0  0
   10.8900    3.5190   23.4170 C   0  0  0  0  0  0  0  0  0  0  0  0
   10.1690    2.3100   23.4770 C   0  0  0  0  0  0  0  0  0  0  0  0
   10.8020    1.0910   23.2460 C   0  0  0  0  0  0  0  0  0  0  0  0
    6.4960   -4.6380   22.1940 C   0  0  0  0  0  0  0  0  0  0  0  0
    7.6300   -4.8620   22.9330 C   0  0  0  0  0  0  0  0  0  0  0  0
    7.3820   -5.1270   24.2740 C   0  0  0  0  0  0  0  0  0  0  0  0
    5.9480   -5.5200   24.5280 N   0  0  0  0  0  0  0  0  0  0  0  0
    5.1330   -6.2790   23.5100 C   0  0  0  0  0  0  0  0  0  0  0  0
    5.7320   -5.9760   22.1420 C   0  0  0  0  0  0  0  0  0  0  0  0
    4.4310   -2.8740   26.5770 C   0  0  0  0  0  0  0  0  0  0  0  0
    3.2260   -1.9120   26.6200 C   0  0  0  0  0  0  0  0  0  0  0  0
    1.7770   -2.2970   26.3370 C   0  0  0  0  0  0  0  0  0  0  0  0
    1.5470   -3.7630   25.9720 C   0  0  0  0  0  0  0  0  0  0  0  0
    2.7210   -4.7580   25.9190 C   0  0  0  0  0  0  0  0  0  0  0  0
    4.1600   -4.3910   26.2100 C   0  0  0  0  0  0  0  0  0  0  0  0
  2  3  1  0
  1  8  1  0
  1  9  1  0
  6  9  2  0
  4 10  1  0
 10  9  1  6
  4 11  1  0
  7 11  2  0
 11 12  1  0
 12 13  1  1
 14 15  1  0
 14 16  1  0
 14 17  1  0
  5 18  1  0
  5 19  1  0
  5 20  1  0
 22 24  2  0
 23 24  2  0
  4 25  1  0
 25 26  1  0
 27 28  2  0
 28 29  1  0
 29 30  2  0
 10 31  1  0
 30 31  1  0
 27 32  1  0
 31 32  2  0
 33 34  2  0
 14 35  1  0
 34 35  1  0
 35 36  2  0
 36 37  1  0
  4 38  1  1
 33 38  1  0
 37 38  2  0
 39 40  2  0
  3 41  1  0
 40 41  1  0
  5 42  1  0
 41 42  2  0
  8 43  1  0
 42 43  1  0
 39 44  1  0
 43 44  2  0
 12 45  1  0
 45 26  1  0
 45 46  1  0
 46 47  1  0
 24 48  1  0
 47 48  1  0
 48 49  1  0
 45 50  1  0
 49 50  1  0
 51 52  2  0
 21 53  1  0
 52 53  1  0
 53 54  2  0
 54 55  1  0
 24 56  1  0
 51 56  1  0
 55 56  2  0
M  END
