x3117-x2600
     RDKit          3D

 34 36  0  0  0  0  0  0  0  0999 V2000
    6.9010   -1.5930   21.7670 N   0  0  0  0  0  0  0  0  0  0  0  0
    6.6880   -4.8480   20.4340 C   0  0  0  0  0  0  0  0  0  0  0  0
    4.7880   -2.9700   21.2320 O   0  0  0  0  0  0  0  0  0  0  0  0
    6.7850   -4.0780   21.7490 C   0  0  0  0  0  0  0  0  0  0  0  0
    7.6210    1.8920   22.7240 N   0  0  0  0  0  0  0  0  0  0  0  0
    8.9380    0.6290   21.4260 O   0  0  0  0  0  0  0  0  0  0  0  0
    6.0420   -2.7840   21.5550 C   0  0  0  0  0  0  0  0  0  0  0  0
    6.6210   -0.1310   21.6020 C   0  0  1  0  0  0  0  0  0  0  0  0
    7.8160    0.7920   21.9000 C   0  0  0  0  0  0  0  0  0  0  0  0
   11.9910   -1.9440   24.6710 C   0  0  0  0  0  0  0  0  0  0  0  0
   13.1920   -2.2150   23.8020 C   0  0  0  0  0  0  0  0  0  0  0  0
   13.1380   -1.1340   24.2800 C   0  0  0  0  0  0  0  0  0  0  0  0
   12.0970   -3.1770   25.3380 C   0  0  0  0  0  0  0  0  0  0  0  0
    6.3000    0.3430   17.9290 N   0  0  0  0  0  0  0  0  0  0  0  0
    5.1620    1.1340   17.7960 C   0  0  0  0  0  0  0  0  0  0  0  0
    4.5190    1.4610   18.9740 C   0  0  0  0  0  0  0  0  0  0  0  0
    4.9390    1.0710   20.2050 C   0  0  0  0  0  0  0  0  0  0  0  0
    6.0820    0.2940   20.3100 C   0  0  0  0  0  0  0  0  0  0  0  0
    6.7710   -0.0860   19.1660 C   0  0  0  0  0  0  0  0  0  0  0  0
    9.8150    4.9890   24.0910 O   0  0  0  0  0  0  0  0  0  0  0  0
   10.4860    3.8360   23.6100 C   0  0  0  0  0  0  0  0  0  0  0  0
    9.6040    2.7610   23.6810 C   0  0  0  0  0  0  0  0  0  0  0  0
    8.4260    3.0010   22.7000 C   0  0  0  0  0  0  0  0  0  0  0  0
    7.7680    4.2230   22.9570 C   0  0  0  0  0  0  0  0  0  0  0  0
    8.7650    5.3930   23.2060 C   0  0  0  0  0  0  0  0  0  0  0  0
    9.3130   -2.1450   21.7960 C   0  0  0  0  0  0  0  0  0  0  0  0
   10.6240   -2.2340   22.5270 C   0  0  0  0  0  0  0  0  0  0  0  0
   10.7370   -1.8760   23.8650 C   0  0  0  0  0  0  0  0  0  0  0  0
    9.5290   -1.3820   24.6100 C   0  0  0  0  0  0  0  0  0  0  0  0
    8.2620   -1.3340   23.7850 C   0  0  0  0  0  0  0  0  0  0  0  0
    8.1660   -1.6970   22.4520 C   0  0  0  0  0  0  0  0  0  0  0  0
   13.7750   -1.4330   20.5990 N   0  0  0  0  0  0  0  0  0  0  0  0
   13.0310   -1.7470   21.8000 C   0  0  0  0  0  0  0  0  0  0  0  0
   13.0500   -0.6070   22.8320 C   0  0  0  0  0  0  0  0  0  0  0  0
  2  4  1  0
  1  7  1  0
  3  7  2  0
  4  7  1  0
  1  8  1  0
  5  9  1  0
  6  9  2  0
  8  9  1  6
 10 11  1  0
 10 12  1  0
 10 13  1  0
 14 15  2  0
 15 16  1  0
 16 17  2  0
  8 18  1  0
 17 18  1  0
 14 19  1  0
 18 19  2  0
 20 21  1  0
 21 22  1  0
  5 23  1  0
 22 23  1  0
 23 24  1  0
 20 25  1  0
 24 25  1  0
 26 27  2  0
 10 28  1  0
 27 28  1  0
 28 29  2  0
 29 30  1  0
  1 31  1  0
 26 31  1  0
 30 31  2  0
 32 33  3  0
 12 34  1  0
 33 34  1  0
M  END
