x3113-x0305
     RDKit          3D

 37 38  0  0  0  0  0  0  0  0999 V2000
    7.1100   -1.7780   21.7440 N   0  0  0  0  0  0  0  0  0  0  0  0
    8.2180   -4.5780   21.0070 C   0  0  0  0  0  0  0  0  0  0  0  0
    4.9320   -3.1150   21.1450 O   0  0  0  0  0  0  0  0  0  0  0  0
    6.8540   -4.3600   21.7110 C   0  0  0  0  0  0  0  0  0  0  0  0
    8.2830    1.0710   23.0430 N   0  0  0  0  0  0  0  0  0  0  0  0
    8.4070    1.1450   20.8140 O   0  0  0  0  0  0  0  0  0  0  0  0
    6.2180   -2.9930   21.5060 C   0  0  0  0  0  0  0  0  0  0  0  0
   11.5700    3.9910   23.3650 O   0  0  0  0  0  0  0  0  0  0  0  0
    6.7480   -0.2760   21.5980 C   0  0  1  0  0  0  0  0  0  0  0  0
    7.8530    0.6510   21.7950 C   0  0  0  0  0  0  0  0  0  0  0  0
    9.1950    2.2520   23.1020 C   0  0  0  0  0  0  0  0  0  0  0  0
   10.4120    1.9690   23.7460 C   0  0  0  0  0  0  0  0  0  0  0  0
   11.5570    2.5780   23.1940 C   0  0  0  0  0  0  0  0  0  0  0  0
   12.7990    4.5460   22.8830 C   0  0  0  0  0  0  0  0  0  0  0  0
   12.2780   -2.0150   24.3910 C   0  0  0  0  0  0  0  0  0  0  0  0
   13.3280   -1.9560   23.5390 C   0  0  0  0  0  0  0  0  0  0  0  0
   12.6830   -3.2110   25.2140 C   0  0  0  0  0  0  0  0  0  0  0  0
   12.4050   -0.7010   25.1550 C   0  0  0  0  0  0  0  0  0  0  0  0
    6.3830    0.2850   17.8520 N   0  0  0  0  0  0  0  0  0  0  0  0
    5.2140    1.1500   17.8410 C   0  0  0  0  0  0  0  0  0  0  0  0
    4.5630    1.5150   19.0050 C   0  0  0  0  0  0  0  0  0  0  0  0
    5.0360    1.0560   20.2140 C   0  0  0  0  0  0  0  0  0  0  0  0
    6.2630    0.1570   20.2800 C   0  0  0  0  0  0  0  0  0  0  0  0
    6.8150   -0.1420   19.0450 C   0  0  0  0  0  0  0  0  0  0  0  0
    9.5880   -2.2570   21.7700 C   0  0  0  0  0  0  0  0  0  0  0  0
   10.8020   -2.3200   22.3240 C   0  0  0  0  0  0  0  0  0  0  0  0
   10.9650   -2.0500   23.6060 C   0  0  0  0  0  0  0  0  0  0  0  0
    9.6150   -1.7170   24.3120 C   0  0  0  0  0  0  0  0  0  0  0  0
    8.2230   -1.6080   23.8790 C   0  0  0  0  0  0  0  0  0  0  0  0
    8.3280   -1.8920   22.5050 C   0  0  0  0  0  0  0  0  0  0  0  0
   13.0580   -1.8240   21.1340 C   0  0  0  0  0  0  0  0  0  0  0  0
   14.0080   -1.1580   20.2690 N   0  0  0  0  0  0  0  0  0  0  0  0
   13.0520   -1.0370   22.4050 C   0  0  0  0  0  0  0  0  0  0  0  0
    7.9780   -0.0670   27.3870 C   0  0  0  0  0  0  0  0  0  0  0  0
    8.2610   -0.0020   25.8880 C   0  0  1  0  0  0  0  0  0  0  0  0
    9.5190    0.6530   25.7180 N   0  0  0  0  0  0  0  0  0  0  0  0
    8.3730   -1.3650   25.2800 C   0  0  0  0  0  0  0  0  0  0  0  0
  2  4  1  0
  1  7  1  0
  3  7  2  0
  4  7  1  0
  1  9  1  0
  5 10  1  0
  6 10  2  0
  9 10  1  6
  5 11  1  0
 11 12  1  0
  8 13  1  0
 12 13  1  0
  8 14  1  0
 15 16  1  0
 15 17  1  0
 15 18  1  0
 19 20  2  0
 20 21  1  0
 21 22  2  0
  9 23  1  0
 22 23  1  0
 19 24  1  0
 23 24  2  0
 25 26  2  0
 15 27  1  0
 26 27  1  0
 27 28  2  0
 28 29  1  0
  1 30  1  0
 25 30  1  0
 29 30  2  0
 31 32  3  0
 16 33  1  0
 31 33  1  0
 35 34  1  1
 35 36  1  0
 29 37  1  0
 35 37  1  0
M  END
