x3115-x2754-x3110-x3113
     RDKit          3D

 50 53  0  0  0  0  0  0  0  0999 V2000
    7.9510    1.4780   22.9420 N   0  0  0  0  0  0  0  0  0  0  0  0
   13.4020    5.0130   22.7710 C   0  0  0  0  0  0  0  0  0  0  0  0
   11.6870    3.3530   22.4890 O   0  0  0  0  0  0  0  0  0  0  0  0
   12.2970    4.4940   21.8720 C   0  0  0  0  0  0  0  0  0  0  0  0
    7.1030   -1.6560   21.6070 N   0  0  0  0  0  0  0  0  0  0  0  0
   11.3030    4.6950   24.2750 O   0  0  0  0  0  0  0  0  0  0  0  0
   11.0370    3.6990   23.6270 C   0  0  0  0  0  0  0  0  0  0  0  0
    8.4500    1.2720   20.7370 O   0  0  0  0  0  0  0  0  0  0  0  0
    9.9500    2.7270   24.0140 C   0  0  0  0  0  0  0  0  0  0  0  0
    4.9610   -3.0860   20.8610 O   0  0  0  0  0  0  0  0  0  0  0  0
    8.9000    2.4900   23.0570 C   0  0  2  0  0  0  0  0  0  0  0  0
    7.7480    0.8670   21.6520 C   0  0  0  0  0  0  0  0  0  0  0  0
    6.6220   -0.2060   21.4660 C   0  0  1  0  0  0  0  0  0  0  0  0
    6.2260   -2.8570   21.3430 C   0  0  0  0  0  0  0  0  0  0  0  0
    8.1840   -4.7120   21.1760 C   0  0  0  0  0  0  0  0  0  0  0  0
   12.2700   -1.7550   24.2410 C   0  0  0  0  0  0  0  0  0  0  0  0
   12.4730   -0.5520   25.0950 C   0  0  0  0  0  0  0  0  0  0  0  0
   13.3360   -1.6730   23.1680 C   0  0  0  0  0  0  0  0  0  0  0  0
   12.6310   -2.9540   25.0890 C   0  0  0  0  0  0  0  0  0  0  0  0
    8.7590    4.8330   23.0490 O   0  0  0  0  0  0  0  0  0  0  0  0
    8.0730    3.8060   22.9710 C   0  0  0  0  0  0  0  0  0  0  0  0
    8.2820    5.8170   22.4280 C   0  0  0  0  0  0  0  0  0  0  0  0
    4.7390   -3.3520   25.2920 C   0  0  0  0  0  0  0  0  0  0  0  0
    3.5080   -3.3630   25.3830 O   0  0  0  0  0  0  0  0  0  0  0  0
    5.5310   -3.1000   26.4410 N   0  0  0  0  0  0  0  0  0  0  0  0
    5.0630   -2.2400   27.4490 C   0  0  0  0  0  0  0  0  0  0  0  0
    6.3290    0.4750   17.7260 N   0  0  0  0  0  0  0  0  0  0  0  0
    5.2120    1.2520   17.7700 C   0  0  0  0  0  0  0  0  0  0  0  0
    4.5290    1.5620   18.8860 C   0  0  0  0  0  0  0  0  0  0  0  0
    4.9980    1.0620   20.1070 C   0  0  0  0  0  0  0  0  0  0  0  0
    6.0960    0.2990   20.1500 C   0  0  0  0  0  0  0  0  0  0  0  0
    6.7400    0.0190   18.9190 C   0  0  0  0  0  0  0  0  0  0  0  0
    9.5050   -2.0060   21.7270 C   0  0  0  0  0  0  0  0  0  0  0  0
   10.7880   -2.0600   22.2730 C   0  0  0  0  0  0  0  0  0  0  0  0
   10.9480   -1.7480   23.5810 C   0  0  0  0  0  0  0  0  0  0  0  0
    9.8330   -1.3880   24.3470 C   0  0  0  0  0  0  0  0  0  0  0  0
    8.4520   -1.3110   23.8210 C   0  0  0  0  0  0  0  0  0  0  0  0
    8.3370   -1.6590   22.3760 C   0  0  0  0  0  0  0  0  0  0  0  0
    6.8680   -4.2200   21.8240 C   0  0  1  0  0  0  0  0  0  0  0  0
    7.5090   -3.8660   23.1480 C   0  0  0  0  0  0  0  0  0  0  0  0
    6.6390   -3.1060   23.9150 C   0  0  0  0  0  0  0  0  0  0  0  0
    5.3650   -3.6050   23.8890 C   0  0  1  0  0  0  0  0  0  0  0  0
    5.2430   -4.9530   23.5210 C   0  0  0  0  0  0  0  0  0  0  0  0
    5.8280   -5.2710   22.2830 C   0  0  0  0  0  0  0  0  0  0  0  0
    6.9510   -4.8210   27.4560 C   0  0  0  0  0  0  0  0  0  0  0  0
    8.1970   -5.3170   27.6780 C   0  0  0  0  0  0  0  0  0  0  0  0
    9.4720   -4.6930   27.1600 C   0  0  0  0  0  0  0  0  0  0  0  0
    9.2270   -3.4390   26.3540 C   0  0  0  0  0  0  0  0  0  0  0  0
    7.9520   -3.0160   26.1890 C   0  0  0  0  0  0  0  0  0  0  0  0
    6.8220   -3.6570   26.7040 C   0  0  0  0  0  0  0  0  0  0  0  0
  2  4  1  0
  3  4  1  0
  3  7  1  0
  6  7  2  0
  7  9  1  0
  1 11  1  0
 11  9  1  1
  1 12  1  0
  8 12  2  0
  5 13  1  0
 13 12  1  6
  5 14  1  0
 10 14  2  0
 16 17  1  0
 16 18  1  0
 16 19  1  0
 11 21  1  0
 20 21  1  0
 20 22  1  0
 23 24  2  0
 23 25  1  0
 25 26  1  0
 27 28  2  0
 28 29  1  0
 29 30  2  0
 13 31  1  0
 30 31  1  0
 27 32  1  0
 31 32  2  0
 33 34  2  0
 16 35  1  0
 34 35  1  0
 35 36  2  0
 36 37  1  0
  5 38  1  0
 33 38  1  0
 37 38  2  0
 39 14  1  0
 39 15  1  6
 39 40  1  0
 40 41  1  0
 42 23  1  1
 41 42  1  0
 42 43  1  0
 39 44  1  0
 43 44  1  0
 45 46  2  0
 46 47  1  0
 47 48  2  0
 48 49  1  0
 25 50  1  0
 45 50  1  0
 49 50  2  0
M  END
