x3115-x1311-x3117-x2776
     RDKit          3D

 49 53  0  0  0  0  0  0  0  0999 V2000
    6.9270   -1.8150   21.8350 N   0  0  0  0  0  0  0  0  0  0  0  0
    6.7850   -5.1640   20.6410 C   0  0  0  0  0  0  0  0  0  0  0  0
    4.8410   -2.9910   21.0800 O   0  0  0  0  0  0  0  0  0  0  0  0
    6.5210   -4.4390   21.7610 C   0  0  2  0  0  0  0  0  0  0  0  0
    7.6630    1.6950   22.9310 N   0  0  0  0  0  0  0  0  0  0  0  0
    8.8600    0.5430   21.3950 O   0  0  0  0  0  0  0  0  0  0  0  0
    6.0420   -3.0180   21.5260 C   0  0  0  0  0  0  0  0  0  0  0  0
    6.6310   -0.3490   21.6160 C   0  0  1  0  0  0  0  0  0  0  0  0
    7.7860    0.6450   22.0010 C   0  0  0  0  0  0  0  0  0  0  0  0
    8.0160    6.6550   22.2760 C   0  0  0  0  0  0  0  0  0  0  0  0
   12.3050   -1.8520   24.2380 C   0  0  0  0  0  0  0  0  0  0  0  0
   13.3400   -1.7300   23.1160 C   0  0  0  0  0  0  0  0  0  0  0  0
   12.7810   -3.0080   25.1280 C   0  0  0  0  0  0  0  0  0  0  0  0
   12.3970   -0.5670   25.0540 C   0  0  0  0  0  0  0  0  0  0  0  0
   10.8270    6.5120   23.5850 O   0  0  0  0  0  0  0  0  0  0  0  0
   10.3350    1.5650   24.0910 C   0  0  0  0  0  0  0  0  0  0  0  0
   11.7780    6.4660   24.6570 C   0  0  0  0  0  0  0  0  0  0  0  0
    6.3350    0.4370   17.7330 N   0  0  0  0  0  0  0  0  0  0  0  0
    5.1670    1.2260   17.8250 C   0  0  0  0  0  0  0  0  0  0  0  0
    4.5230    1.4590   19.0440 C   0  0  0  0  0  0  0  0  0  0  0  0
    4.9420    0.9660   20.2980 C   0  0  0  0  0  0  0  0  0  0  0  0
    6.1000    0.1760   20.3220 C   0  0  0  0  0  0  0  0  0  0  0  0
    6.8090   -0.1010   18.9930 C   0  0  0  0  0  0  0  0  0  0  0  0
    9.4850   -1.5270   21.7560 C   0  0  0  0  0  0  0  0  0  0  0  0
   10.7460   -1.5430   22.3330 C   0  0  0  0  0  0  0  0  0  0  0  0
   10.8830   -1.8880   23.6740 C   0  0  0  0  0  0  0  0  0  0  0  0
    9.7730   -2.2320   24.4530 C   0  0  0  0  0  0  0  0  0  0  0  0
    8.4760   -2.2240   23.8820 C   0  0  0  0  0  0  0  0  0  0  0  0
    8.2070   -1.8880   22.5500 C   0  0  0  0  0  0  0  0  0  0  0  0
    9.7540    2.9120   23.6350 C   0  0  0  0  0  0  0  0  0  0  0  0
   10.5750    4.0410   23.8210 C   0  0  0  0  0  0  0  0  0  0  0  0
   10.0290    5.4020   23.3840 C   0  0  0  0  0  0  0  0  0  0  0  0
    8.6700    5.3870   22.7750 C   0  0  0  0  0  0  0  0  0  0  0  0
    7.9770    4.1740   22.6590 C   0  0  0  0  0  0  0  0  0  0  0  0
    8.4740    2.9460   23.0750 C   0  0  0  0  0  0  0  0  0  0  0  0
    8.6670   -5.3940   22.9140 C   0  0  0  0  0  0  0  0  0  0  0  0
    9.5260   -5.7150   24.1320 C   0  0  0  0  0  0  0  0  0  0  0  0
    9.1260   -5.3890   25.5270 C   0  0  0  0  0  0  0  0  0  0  0  0
    7.7610   -4.7140   25.5930 C   0  0  0  0  0  0  0  0  0  0  0  0
    6.9670   -4.4350   24.3100 C   0  0  0  0  0  0  0  0  0  0  0  0
    7.4430   -4.7740   23.0160 C   0  0  0  0  0  0  0  0  0  0  0  0
    4.4770   -6.3440   25.6410 O   0  0  0  0  0  0  0  0  0  0  0  0
    2.2550   -5.3880   24.9170 O   0  0  0  0  0  0  0  0  0  0  0  0
    4.4360   -6.5280   22.4440 C   0  0  0  0  0  0  0  0  0  0  0  0
    4.9520   -5.2090   22.7480 C   0  0  0  0  0  0  0  0  0  0  0  0
    4.4730   -4.4110   23.8470 C   0  0  1  0  0  0  0  0  0  0  0  0
    3.6180   -5.7380   24.6290 S   0  0  0  0  0  0  0  0  0  0  0  0
    3.5940   -7.1980   23.2810 C   0  0  0  0  0  0  0  0  0  0  0  0
    5.6400   -3.7810   24.6120 C   0  0  0  0  0  0  0  0  0  0  0  0
  4  2  1  6
  1  7  1  0
  3  7  2  0
  4  7  1  0
  1  8  1  0
  5  9  1  0
  6  9  2  0
  8  9  1  6
 11 12  1  0
 11 13  1  0
 11 14  1  0
 15 17  1  0
 18 19  2  0
 19 20  1  0
 20 21  2  0
  8 22  1  0
 21 22  1  0
 18 23  1  0
 22 23  2  0
 24 25  2  0
 11 26  1  0
 25 26  1  0
 26 27  2  0
 27 28  1  0
  1 29  1  0
 24 29  1  0
 28 29  2  0
 16 30  1  0
 30 31  2  0
 15 32  1  0
 31 32  1  0
 10 33  1  0
 32 33  2  0
 33 34  1  0
  5 35  1  0
 30 35  1  0
 34 35  2  0
 36 37  2  0
 37 38  1  0
 38 39  2  0
 39 40  1  0
  4 41  1  0
 36 41  1  0
 40 41  2  0
 44 45  1  0
 45 46  1  0
 47 42  1  0
 43 47  1  0
 46 47  1  0
 44 48  2  0
 47 48  1  0
 40 49  1  0
 46 49  1  1
M  END
