x3110-x0354
     RDKit          3D

 43 45  0  0  0  0  0  0  0  0999 V2000
    7.9900    1.1230   23.2400 N   0  0  0  0  0  0  0  0  0  0  0  0
   13.3610    5.1460   22.8840 C   0  0  0  0  0  0  0  0  0  0  0  0
   11.9850    3.2280   22.5050 O   0  0  0  0  0  0  0  0  0  0  0  0
   12.3250    4.5170   21.9790 C   0  0  0  0  0  0  0  0  0  0  0  0
    6.8940   -1.6740   21.8660 N   0  0  0  0  0  0  0  0  0  0  0  0
   10.9230    4.1850   24.2920 O   0  0  0  0  0  0  0  0  0  0  0  0
   11.0810    3.2510   23.5150 C   0  0  0  0  0  0  0  0  0  0  0  0
    8.5690    1.3510   21.0660 O   0  0  0  0  0  0  0  0  0  0  0  0
   10.2920    1.9680   23.5540 C   0  0  0  0  0  0  0  0  0  0  0  0
    4.7570   -3.0200   21.4170 O   0  0  0  0  0  0  0  0  0  0  0  0
    8.8030    2.2520   23.6720 C   0  0  0  0  0  0  0  0  0  0  0  0
    7.8200    0.8090   21.9020 C   0  0  0  0  0  0  0  0  0  0  0  0
    6.6210   -0.1930   21.5550 C   0  0  1  0  0  0  0  0  0  0  0  0
    6.0470   -2.8270   21.3510 C   0  0  0  0  0  0  0  0  0  0  0  0
    6.7340   -3.9600   20.6420 C   0  0  0  0  0  0  0  0  0  0  0  0
    8.1790   -3.6830   20.3850 C   0  0  0  0  0  0  0  0  0  0  0  0
   12.2400   -1.8010   24.1260 C   0  0  0  0  0  0  0  0  0  0  0  0
   12.4670   -0.5670   24.9950 C   0  0  0  0  0  0  0  0  0  0  0  0
   13.2250   -1.6890   22.9530 C   0  0  0  0  0  0  0  0  0  0  0  0
   12.7080   -2.9910   24.9620 C   0  0  0  0  0  0  0  0  0  0  0  0
    7.5760   -2.0740   25.3920 O   0  0  0  0  0  0  0  0  0  0  0  0
    7.5040   -0.5720   27.3850 O   0  0  0  0  0  0  0  0  0  0  0  0
    8.4860   -1.2510   25.4690 C   0  0  0  0  0  0  0  0  0  0  0  0
    8.3800   -0.1640   26.3340 C   0  0  0  0  0  0  0  0  0  0  0  0
    5.4810    3.8050   30.6760 C   0  0  0  0  0  0  0  0  0  0  0  0
    6.3290    0.3520   17.8130 N   0  0  0  0  0  0  0  0  0  0  0  0
    5.2210    1.1180   17.8170 C   0  0  0  0  0  0  0  0  0  0  0  0
    4.5090    1.4790   18.9460 C   0  0  0  0  0  0  0  0  0  0  0  0
    4.9850    1.0210   20.1590 C   0  0  0  0  0  0  0  0  0  0  0  0
    6.1300    0.2360   20.1970 C   0  0  0  0  0  0  0  0  0  0  0  0
    6.7750   -0.0850   19.0060 C   0  0  0  0  0  0  0  0  0  0  0  0
    9.3710   -1.9970   21.7560 C   0  0  0  0  0  0  0  0  0  0  0  0
   10.5960   -2.0120   22.3250 C   0  0  0  0  0  0  0  0  0  0  0  0
   10.7450   -1.7740   23.6780 C   0  0  0  0  0  0  0  0  0  0  0  0
    9.7080   -1.5070   24.6480 C   0  0  0  0  0  0  0  0  0  0  0  0
    8.4950   -1.5310   23.8490 C   0  0  0  0  0  0  0  0  0  0  0  0
    8.2560   -1.7480   22.4820 C   0  0  0  0  0  0  0  0  0  0  0  0
    7.3490    1.6960   28.0080 C   0  0  0  0  0  0  0  0  0  0  0  0
    6.8750    2.7840   28.7900 C   0  0  0  0  0  0  0  0  0  0  0  0
    5.9540    2.6340   29.8700 C   0  0  0  0  0  0  0  0  0  0  0  0
    5.4860    1.2190   30.1500 C   0  0  0  0  0  0  0  0  0  0  0  0
    5.9700    0.0560   29.3410 C   0  0  0  0  0  0  0  0  0  0  0  0
    6.9640    0.3740   28.2140 C   0  0  0  0  0  0  0  0  0  0  0  0
  2  4  1  0
  3  4  1  0
  3  7  1  0
  6  7  2  0
  7  9  1  0
  1 11  1  0
  9 11  1  0
  1 12  1  0
  8 12  2  0
  5 13  1  0
 13 12  1  6
  5 14  1  0
 10 14  2  0
 14 15  1  0
 15 16  1  0
 17 18  1  0
 17 19  1  0
 17 20  1  0
 21 23  2  0
 22 24  1  0
 23 24  1  0
 26 27  2  0
 27 28  1  0
 28 29  2  0
 13 30  1  0
 29 30  1  0
 26 31  1  0
 30 31  2  0
 32 33  2  0
 17 34  1  0
 33 34  1  0
 23 35  1  0
 34 35  2  0
 35 36  1  0
  5 37  1  0
 32 37  1  0
 36 37  2  0
 38 39  2  0
 25 40  1  0
 39 40  1  0
 40 41  2  0
 41 42  1  0
 22 43  1  0
 38 43  1  0
 42 43  2  0
M  END
