x3117-x2754-x3110-x3113-x0426
     RDKit          3D

 63 69  0  0  0  0  0  0  0  0999 V2000
    8.0960    1.5220   23.2230 N   0  0  0  0  0  0  0  0  0  0  0  0
   13.2970    5.2160   23.0000 C   0  0  0  0  0  0  0  0  0  0  0  0
   12.0840    3.3830   23.4110 O   0  0  0  0  0  0  0  0  0  0  0  0
   12.5480    4.0700   22.4810 C   0  0  0  0  0  0  0  0  0  0  0  0
    6.9890   -1.5930   21.7390 N   0  0  0  0  0  0  0  0  0  0  0  0
   10.7450    3.2530   23.4260 C   0  0  0  0  0  0  0  0  0  0  0  0
    8.6190    1.2760   20.9010 O   0  0  0  0  0  0  0  0  0  0  0  0
   10.1300    2.4070   22.4540 C   0  0  0  0  0  0  0  0  0  0  0  0
    4.9770   -3.1160   20.9770 O   0  0  0  0  0  0  0  0  0  0  0  0
    7.8370    0.8680   21.9750 C   0  0  0  0  0  0  0  0  0  0  0  0
    6.6580   -0.2190   21.6730 C   0  0  1  0  0  0  0  0  0  0  0  0
    6.2520   -2.8990   21.4060 C   0  0  0  0  0  0  0  0  0  0  0  0
    8.1480   -4.5940   21.1720 C   0  0  0  0  0  0  0  0  0  0  0  0
   12.2470   -1.7810   24.2170 C   0  0  0  0  0  0  0  0  0  0  0  0
   12.4510   -0.5490   25.0570 C   0  0  0  0  0  0  0  0  0  0  0  0
   13.2650   -1.6250   23.0580 C   0  0  0  0  0  0  0  0  0  0  0  0
   12.5860   -3.0530   24.9920 C   0  0  0  0  0  0  0  0  0  0  0  0
    2.2750    1.8170   23.8350 C   0  0  0  0  0  0  0  0  0  0  0  0
    2.1640    0.5980   23.7250 O   0  0  0  0  0  0  0  0  0  0  0  0
    3.3450    2.5240   23.3140 N   0  0  0  0  0  0  0  0  0  0  0  0
    4.2820    1.8590   22.5020 C   0  0  0  0  0  0  0  0  0  0  0  0
    3.7770    1.1870   21.2910 C   0  0  0  0  0  0  0  0  0  0  0  0
    2.7420    4.3340   25.2550 F   0  0  0  0  0  0  0  0  0  0  0  0
    4.8460   -3.4990   25.4280 C   0  0  0  0  0  0  0  0  0  0  0  0
    3.6690   -3.7750   25.6000 O   0  0  0  0  0  0  0  0  0  0  0  0
    5.6520   -3.0580   26.4960 N   0  0  0  0  0  0  0  0  0  0  0  0
    5.1570   -2.2990   27.4600 C   0  0  0  0  0  0  0  0  0  0  0  0
    6.5150    0.4790   17.9660 N   0  0  0  0  0  0  0  0  0  0  0  0
    5.3210    1.1110   17.7880 C   0  0  0  0  0  0  0  0  0  0  0  0
    4.4750    1.3010   18.9480 C   0  0  0  0  0  0  0  0  0  0  0  0
    4.8110    0.8950   20.2250 C   0  0  0  0  0  0  0  0  0  0  0  0
    6.0540    0.2770   20.3440 C   0  0  0  0  0  0  0  0  0  0  0  0
    6.8240    0.0990   19.2070 C   0  0  0  0  0  0  0  0  0  0  0  0
    9.4360   -1.9540   21.6830 C   0  0  0  0  0  0  0  0  0  0  0  0
   10.6910   -2.0020   22.2680 C   0  0  0  0  0  0  0  0  0  0  0  0
   10.8400   -1.7450   23.5930 C   0  0  0  0  0  0  0  0  0  0  0  0
    9.7470   -1.4320   24.3980 C   0  0  0  0  0  0  0  0  0  0  0  0
    8.5130   -1.4000   23.7430 C   0  0  0  0  0  0  0  0  0  0  0  0
    8.3050   -1.6510   22.3960 C   0  0  0  0  0  0  0  0  0  0  0  0
    9.0800    4.4350   24.8790 O   0  0  0  0  0  0  0  0  0  0  0  0
    9.5550    3.5860   23.9370 C   0  0  0  0  0  0  0  0  0  0  0  0
    8.7810    2.8110   23.0670 C   0  0  2  0  0  0  0  0  0  0  0  0
    7.9710    3.5970   22.3650 C   0  0  0  0  0  0  0  0  0  0  0  0
    7.8650    4.9540   22.8020 C   0  0  0  0  0  0  0  0  0  0  0  0
    8.4400    5.4100   24.0230 C   0  0  0  0  0  0  0  0  0  0  0  0
    1.5050    3.8040   25.2250 C   0  0  0  0  0  0  0  0  0  0  0  0
    1.2350    2.6020   24.5580 C   0  0  0  0  0  0  0  0  0  0  0  0
   -0.0540    2.1470   24.5860 C   0  0  0  0  0  0  0  0  0  0  0  0
   -1.1000    2.8000   25.2300 C   0  0  0  0  0  0  0  0  0  0  0  0
   -0.8340    3.9800   25.8840 C   0  0  0  0  0  0  0  0  0  0  0  0
    0.4650    4.4810   25.8820 C   0  0  0  0  0  0  0  0  0  0  0  0
    7.1090   -4.1510   21.7350 C   0  0  1  0  0  0  0  0  0  0  0  0
    7.6480   -3.8090   23.1440 C   0  0  0  0  0  0  0  0  0  0  0  0
    6.7210   -3.1360   23.9380 C   0  0  0  0  0  0  0  0  0  0  0  0
    5.4250   -3.6200   23.9330 C   0  0  1  0  0  0  0  0  0  0  0  0
    5.3310   -4.9360   23.4320 C   0  0  0  0  0  0  0  0  0  0  0  0
    6.0720   -5.2700   22.0910 C   0  0  0  0  0  0  0  0  0  0  0  0
    7.1150   -4.7250   27.5340 C   0  0  0  0  0  0  0  0  0  0  0  0
    8.3920   -5.2970   27.7810 C   0  0  0  0  0  0  0  0  0  0  0  0
    9.5360   -4.7330   27.2050 C   0  0  0  0  0  0  0  0  0  0  0  0
    9.4490   -3.6320   26.4000 C   0  0  0  0  0  0  0  0  0  0  0  0
    8.1500   -2.9560   26.0820 C   0  0  0  0  0  0  0  0  0  0  0  0
    6.9630   -3.6000   26.7220 C   0  0  0  0  0  0  0  0  0  0  0  0
  2  4  1  0
  3  4  1  0
  3  6  1  0
  6  8  1  0
  1 10  1  0
  7 10  2  0
  5 11  1  0
 11 10  1  6
  5 12  1  0
  9 12  2  0
 14 15  1  0
 14 16  1  0
 14 17  1  0
 18 19  2  0
 18 20  1  0
 20 21  1  0
 21 22  1  0
 24 25  2  0
 24 26  1  0
 26 27  1  0
 28 29  2  0
 29 30  1  0
 22 31  1  0
 30 31  2  0
 11 32  1  0
 31 32  1  0
 28 33  1  0
 32 33  2  0
 34 35  2  0
 14 36  1  0
 35 36  1  0
 36 37  2  0
 37 38  1  0
  5 39  1  0
 34 39  1  0
 38 39  2  0
  6 41  2  0
 40 41  1  0
 42  1  1  1
  8 42  1  0
 41 42  1  0
 42 43  1  0
 43 44  1  0
 40 45  1  0
 44 45  1  0
 23 46  1  0
 18 47  1  0
 46 47  2  0
 47 48  1  0
 48 49  2  0
 49 50  1  0
 46 51  1  0
 50 51  2  0
 52 12  1  0
 52 13  1  6
 52 53  1  0
 53 54  1  0
 55 24  1  1
 54 55  1  0
 55 56  1  0
 52 57  1  0
 56 57  1  0
 58 59  2  0
 59 60  1  0
 60 61  2  0
 61 62  1  0
 26 63  1  0
 58 63  1  0
 62 63  2  0
M  END
