x3117-x0995
     RDKit          3D

 32 34  0  0  0  0  0  0  0  0999 V2000
    6.8730   -1.6710   22.0600 N   0  0  0  0  0  0  0  0  0  0  0  0
    6.6780   -4.8640   20.4360 C   0  0  0  0  0  0  0  0  0  0  0  0
    4.8100   -3.0380   21.3400 O   0  0  0  0  0  0  0  0  0  0  0  0
    6.8490   -4.1590   21.7850 C   0  0  0  0  0  0  0  0  0  0  0  0
    7.4360    1.8110   23.1620 N   0  0  0  0  0  0  0  0  0  0  0  0
    8.7890    0.7060   21.6020 O   0  0  0  0  0  0  0  0  0  0  0  0
    6.0710   -2.8750   21.7050 C   0  0  0  0  0  0  0  0  0  0  0  0
    6.5430   -0.2400   21.8090 C   0  0  1  0  0  0  0  0  0  0  0  0
    7.6890    0.7460   22.1540 C   0  0  0  0  0  0  0  0  0  0  0  0
   12.4090   -1.7630   24.3220 C   0  0  0  0  0  0  0  0  0  0  0  0
   12.5270   -0.6220   25.0890 C   0  0  0  0  0  0  0  0  0  0  0  0
   13.2930   -1.6030   23.3000 C   0  0  0  0  0  0  0  0  0  0  0  0
   12.8860   -2.9770   25.1350 C   0  0  0  0  0  0  0  0  0  0  0  0
    3.2530    2.3590   18.8730 N   0  0  0  0  0  0  0  0  0  0  0  0
    6.3240    0.2950   17.9080 N   0  0  0  0  0  0  0  0  0  0  0  0
    5.2230    1.0860   17.8450 C   0  0  0  0  0  0  0  0  0  0  0  0
    4.4450    1.5140   18.9130 C   0  0  0  0  0  0  0  0  0  0  0  0
    4.9150    1.0340   20.2680 C   0  0  0  0  0  0  0  0  0  0  0  0
    6.1210    0.1680   20.4360 C   0  0  0  0  0  0  0  0  0  0  0  0
    6.7850   -0.1630   19.0870 C   0  0  0  0  0  0  0  0  0  0  0  0
    9.7750    4.9620   24.0920 O   0  0  0  0  0  0  0  0  0  0  0  0
   10.5920    3.9270   23.5510 C   0  0  0  0  0  0  0  0  0  0  0  0
    9.8440    2.5830   23.6190 C   0  0  0  0  0  0  0  0  0  0  0  0
    8.3340    2.9280   23.5560 C   0  0  0  0  0  0  0  0  0  0  0  0
    8.1240    4.2000   22.7020 C   0  0  0  0  0  0  0  0  0  0  0  0
    8.7850    5.3450   23.1420 C   0  0  0  0  0  0  0  0  0  0  0  0
    9.3640   -2.1620   21.6910 C   0  0  0  0  0  0  0  0  0  0  0  0
   10.7600   -2.1750   22.2840 C   0  0  0  0  0  0  0  0  0  0  0  0
   11.0110   -1.7780   23.7190 C   0  0  0  0  0  0  0  0  0  0  0  0
    9.7720   -1.3810   24.4990 C   0  0  0  0  0  0  0  0  0  0  0  0
    8.4840   -1.3730   23.9460 C   0  0  0  0  0  0  0  0  0  0  0  0
    8.2050   -1.7240   22.6170 C   0  0  0  0  0  0  0  0  0  0  0  0
  2  4  1  0
  1  7  1  0
  3  7  2  0
  4  7  1  0
  1  8  1  0
  5  9  1  0
  6  9  2  0
  8  9  1  6
 10 11  1  0
 10 12  1  0
 10 13  1  0
 15 16  2  0
 14 17  1  0
 16 17  1  0
 17 18  2  0
  8 19  1  0
 18 19  1  0
 15 20  1  0
 19 20  2  0
 21 22  1  0
 22 23  1  0
  5 24  1  0
 23 24  1  0
 24 25  1  0
 21 26  1  0
 25 26  1  0
 27 28  2  0
 10 29  1  0
 28 29  1  0
 29 30  2  0
 30 31  1  0
  1 32  1  0
 27 32  1  0
 31 32  2  0
M  END
