x3115-x1493-x0771-x3113
     RDKit          3D

 54 58  0  0  0  0  0  0  0  0999 V2000
    6.7940   -1.4480   22.0110 C   0  0  1  0  0  0  0  0  0  0  0  0
    7.5740   -3.7170   20.3490 C   0  0  0  0  0  0  0  0  0  0  0  0
    4.8490   -3.0740   21.2950 O   0  0  0  0  0  0  0  0  0  0  0  0
    6.6440   -2.7000   19.8500 C   0  0  0  0  0  0  0  0  0  0  0  0
    8.0340    1.6430   23.0040 N   0  0  0  0  0  0  0  0  0  0  0  0
    8.4850    1.1480   20.8440 O   0  0  0  0  0  0  0  0  0  0  0  0
    5.9810   -2.4470   21.0650 C   0  0  0  0  0  0  0  0  0  0  0  0
   11.8730    4.2360   23.3630 O   0  0  0  0  0  0  0  0  0  0  0  0
    6.4980    0.1010   21.7290 C   0  0  1  0  0  0  0  0  0  0  0  0
    7.7620    0.9910   21.8220 C   0  0  0  0  0  0  0  0  0  0  0  0
    8.8940    2.7110   22.9000 C   0  0  2  0  0  0  0  0  0  0  0  0
   10.1000    2.7270   23.8520 C   0  0  0  0  0  0  0  0  0  0  0  0
   11.4890    2.8760   23.1960 C   0  0  0  0  0  0  0  0  0  0  0  0
   13.1140    4.5260   22.7280 C   0  0  0  0  0  0  0  0  0  0  0  0
   12.4960   -1.8980   24.0620 C   0  0  0  0  0  0  0  0  0  0  0  0
   13.4250   -2.0210   22.9480 C   0  0  0  0  0  0  0  0  0  0  0  0
   12.8870   -2.9700   25.0430 C   0  0  0  0  0  0  0  0  0  0  0  0
   12.7040   -0.5740   24.7860 C   0  0  0  0  0  0  0  0  0  0  0  0
    8.7950    5.0260   23.0680 O   0  0  0  0  0  0  0  0  0  0  0  0
    8.0840    4.0340   22.9050 C   0  0  0  0  0  0  0  0  0  0  0  0
    8.3270    6.1500   22.3530 C   0  0  0  0  0  0  0  0  0  0  0  0
    0.7160   -1.4780   26.4420 C   0  0  0  0  0  0  0  0  0  0  0  0
    4.0960   -7.4870   25.2040 O   0  0  0  0  0  0  0  0  0  0  0  0
    5.6710   -5.9920   26.7120 O   0  0  0  0  0  0  0  0  0  0  0  0
    1.5760   -6.1330   24.7830 C   0  0  0  0  0  0  0  0  0  0  0  0
    4.8070   -6.0440   25.3680 S   0  0  0  0  0  0  0  0  0  0  0  0
    6.3610   -2.1800   23.1720 C   0  0  0  0  0  0  0  0  0  0  0  0
    7.0820   -5.4380   24.6820 C   0  0  0  0  0  0  0  0  0  0  0  0
    7.7520   -5.9520   26.7590 O   0  0  0  0  0  0  0  0  0  0  0  0
    7.0520   -5.2750   26.0340 C   0  0  0  0  0  0  0  0  0  0  0  0
    6.4580    0.5280   17.8990 N   0  0  0  0  0  0  0  0  0  0  0  0
    5.2410    1.3180   17.7740 C   0  0  0  0  0  0  0  0  0  0  0  0
    4.4640    1.6770   18.8790 C   0  0  0  0  0  0  0  0  0  0  0  0
    4.8340    1.2930   20.1790 C   0  0  0  0  0  0  0  0  0  0  0  0
    5.9920    0.5450   20.3730 C   0  0  0  0  0  0  0  0  0  0  0  0
    6.7570    0.1850   19.2600 C   0  0  0  0  0  0  0  0  0  0  0  0
    9.4160   -2.1700   21.6470 C   0  0  0  0  0  0  0  0  0  0  0  0
   10.7270   -2.2460   22.1800 C   0  0  0  0  0  0  0  0  0  0  0  0
   11.0890   -1.8530   23.4690 C   0  0  0  0  0  0  0  0  0  0  0  0
   10.0240   -1.3700   24.2120 C   0  0  0  0  0  0  0  0  0  0  0  0
    8.7270   -1.2870   23.7060 C   0  0  0  0  0  0  0  0  0  0  0  0
    8.3840   -1.6820   22.3950 C   0  0  0  0  0  0  0  0  0  0  0  0
    1.6960   -2.5440   26.1860 C   0  0  0  0  0  0  0  0  0  0  0  0
    1.2440   -3.7840   25.6310 C   0  0  0  0  0  0  0  0  0  0  0  0
    2.1020   -4.8680   25.3580 C   0  0  0  0  0  0  0  0  0  0  0  0
    3.5790   -4.7570   25.6500 C   0  0  0  0  0  0  0  0  0  0  0  0
    4.0620   -3.4460   26.2320 C   0  0  0  0  0  0  0  0  0  0  0  0
    3.0360   -2.3470   26.4820 C   0  0  0  0  0  0  0  0  0  0  0  0
    6.9380   -4.3970   21.6280 N   0  0  0  0  0  0  0  0  0  0  0  0
    6.3780   -5.7650   21.5740 C   0  0  0  0  0  0  0  0  0  0  0  0
    5.7890   -6.3470   22.8860 C   0  0  0  0  0  0  0  0  0  0  0  0
    5.6860   -5.5520   24.0360 C   0  0  1  0  0  0  0  0  0  0  0  0
    5.4820   -4.2810   23.6610 C   0  0  0  0  0  0  0  0  0  0  0  0
    6.6900   -3.7040   22.9690 C   0  0  2  0  0  0  0  0  0  0  0  0
  2  4  1  0
  1  7  1  0
  3  7  2  0
  4  7  1  0
  1  9  1  0
  5 10  1  0
  6 10  2  0
  9 10  1  6
  5 11  1  0
 11 12  1  1
  8 13  1  0
 12 13  1  0
  8 14  1  0
 15 16  1  0
 15 17  1  0
 15 18  1  0
 11 20  1  0
 19 20  1  0
 19 21  1  0
 23 26  2  0
 24 26  2  0
  1 27  1  0
 28 30  1  0
 29 30  2  0
 31 32  2  0
 32 33  1  0
 33 34  2  0
  9 35  1  0
 34 35  1  0
 31 36  1  0
 35 36  2  0
 37 38  2  0
 15 39  1  0
 38 39  1  0
 39 40  2  0
 40 41  1  0
  1 42  1  6
 37 42  1  0
 41 42  2  0
 22 43  1  0
 43 44  2  0
 25 45  1  0
 44 45  1  0
 26 46  1  0
 45 46  2  0
 46 47  1  0
 43 48  1  0
 47 48  2  0
  2 49  1  0
 49 50  1  0
 50 51  1  0
 26 52  1  0
 52 28  1  1
 51 52  1  0
 52 53  1  0
 54 27  1  6
 49 54  1  0
 53 54  1  0
M  END
