x3110-x0820-x0946
     RDKit          3D

 49 54  0  0  0  0  0  0  0  0999 V2000
    7.8520    1.1870   23.4070 N   0  0  0  0  0  0  0  0  0  0  0  0
   13.3720    5.1230   21.6060 C   0  0  0  0  0  0  0  0  0  0  0  0
   13.1110    4.6690   23.0430 C   0  0  0  0  0  0  0  0  0  0  0  0
    7.0700   -1.9140   21.9130 C   0  0  2  0  0  0  0  0  0  0  0  0
   10.3770    4.9290   23.7020 C   0  0  0  0  0  0  0  0  0  0  0  0
    8.4030    1.3340   20.9270 O   0  0  0  0  0  0  0  0  0  0  0  0
    4.9960   -3.1400   20.7530 O   0  0  0  0  0  0  0  0  0  0  0  0
    8.6370    2.4260   23.8810 C   0  0  0  0  0  0  0  0  0  0  0  0
    7.7250    0.7660   21.9990 C   0  0  0  0  0  0  0  0  0  0  0  0
    6.6770   -0.4200   21.8120 C   0  0  1  0  0  0  0  0  0  0  0  0
    6.1790   -3.0660   21.3030 C   0  0  0  0  0  0  0  0  0  0  0  0
    6.9470   -4.2670   21.6230 C   0  0  1  0  0  0  0  0  0  0  0  0
    8.2870   -4.5300   20.9470 C   0  0  0  0  0  0  0  0  0  0  0  0
   12.3400   -1.9550   24.3650 C   0  0  0  0  0  0  0  0  0  0  0  0
   12.8640   -0.7290   24.7080 C   0  0  0  0  0  0  0  0  0  0  0  0
   13.4280   -1.5660   23.4570 C   0  0  0  0  0  0  0  0  0  0  0  0
   12.7900   -3.1120   25.2240 C   0  0  0  0  0  0  0  0  0  0  0  0
    8.9310    5.1020   23.6360 N   0  0  0  0  0  0  0  0  0  0  0  0
   10.7440    5.6410   22.7980 O   0  0  0  0  0  0  0  0  0  0  0  0
   10.9510    5.4750   24.6390 O   0  0  0  0  0  0  0  0  0  0  0  0
    6.9770   -3.2480   22.8320 C   0  0  2  0  0  0  0  0  0  0  0  0
    6.4040    0.2210   17.9830 N   0  0  0  0  0  0  0  0  0  0  0  0
    5.2950    0.9770   17.9320 C   0  0  0  0  0  0  0  0  0  0  0  0
    4.6100    1.2840   19.0700 C   0  0  0  0  0  0  0  0  0  0  0  0
    5.0350    0.8220   20.3990 C   0  0  0  0  0  0  0  0  0  0  0  0
    6.1490    0.0710   20.4510 C   0  0  0  0  0  0  0  0  0  0  0  0
    6.8460   -0.2450   19.2560 C   0  0  0  0  0  0  0  0  0  0  0  0
    9.6070   -1.5240   21.7790 C   0  0  0  0  0  0  0  0  0  0  0  0
   10.8360   -1.5540   22.3900 C   0  0  0  0  0  0  0  0  0  0  0  0
   10.9720   -1.9550   23.7020 C   0  0  0  0  0  0  0  0  0  0  0  0
    9.8830   -2.3450   24.4400 C   0  0  0  0  0  0  0  0  0  0  0  0
    8.5760   -2.3560   23.9240 C   0  0  0  0  0  0  0  0  0  0  0  0
    8.4780   -1.8990   22.4500 C   0  0  0  0  0  0  0  0  0  0  0  0
   11.9990    0.9520   22.9740 C   0  0  0  0  0  0  0  0  0  0  0  0
   12.9680    2.1000   22.8400 C   0  0  0  0  0  0  0  0  0  0  0  0
   12.2320    3.4300   23.1310 C   0  0  0  0  0  0  0  0  0  0  0  0
   10.8940    3.5140   23.4560 C   0  0  0  0  0  0  0  0  0  0  0  0
   10.1080    2.3450   23.5400 C   0  0  0  0  0  0  0  0  0  0  0  0
   10.6690    1.1070   23.3050 C   0  0  0  0  0  0  0  0  0  0  0  0
    5.9810   -3.6350   23.9520 C   0  0  0  0  0  0  0  0  0  0  0  0
    6.6800   -4.0190   25.3170 C   0  0  0  0  0  0  0  0  0  0  0  0
    5.8100   -4.4130   26.4870 C   0  0  0  0  0  0  0  0  0  0  0  0
    4.2640   -4.4520   26.3370 C   0  0  0  0  0  0  0  0  0  0  0  0
    3.6050   -4.0930   25.0170 C   0  0  0  0  0  0  0  0  0  0  0  0
    4.4400   -3.6790   23.8090 C   0  0  0  0  0  0  0  0  0  0  0  0
    6.4090   -4.7880   27.8550 C   0  0  0  0  0  0  0  0  0  0  0  0
    7.7910   -4.7710   28.0170 C   0  0  0  0  0  0  0  0  0  0  0  0
    8.6940   -4.4270   26.9840 C   0  0  0  0  0  0  0  0  0  0  0  0
    8.0730   -4.0460   25.6090 C   0  0  0  0  0  0  0  0  0  0  0  0
  2  3  1  0
  1  8  1  0
  1  9  1  0
  6  9  2  0
  4 10  1  0
 10  9  1  6
  4 11  1  0
  7 11  2  0
 11 12  1  0
 12 13  1  6
 14 15  1  0
 14 16  1  0
 14 17  1  0
  5 18  1  0
  5 19  1  0
  5 20  1  0
  4 21  1  0
 12 21  1  0
 22 23  2  0
 23 24  1  0
 24 25  2  0
 10 26  1  0
 25 26  1  0
 22 27  1  0
 26 27  2  0
 28 29  2  0
 14 30  1  0
 29 30  1  0
 30 31  2  0
 31 32  1  0
  4 33  1  6
 28 33  1  0
 32 33  2  0
 34 35  2  0
  3 36  1  0
 35 36  1  0
  5 37  1  0
 36 37  2  0
  8 38  1  0
 37 38  1  0
 34 39  1  0
 38 39  2  0
 21 40  1  6
 40 41  2  0
 41 42  1  0
 42 43  2  0
 43 44  1  0
 40 45  1  0
 44 45  2  0
 42 46  1  0
 46 47  2  0
 47 48  1  0
 41 49  1  0
 48 49  2  0
M  END
