x3115-x3117-x2754-x3113
     RDKit          3D

 51 58  0  0  0  0  0  0  0  0999 V2000
    6.9310   -1.8360   22.1350 C   0  0  2  0  0  0  0  0  0  0  0  0
    7.9400   -4.9060   21.2060 C   0  0  0  0  0  0  0  0  0  0  0  0
    5.0630   -3.2260   20.7600 O   0  0  0  0  0  0  0  0  0  0  0  0
    7.9400    2.0240   22.4460 N   0  0  0  0  0  0  0  0  0  0  0  0
    9.1950    0.1420   21.7390 O   0  0  0  0  0  0  0  0  0  0  0  0
    6.2050   -3.0980   21.4450 C   0  0  0  0  0  0  0  0  0  0  0  0
   11.5700    3.7540   22.7950 N   0  0  0  0  0  0  0  0  0  0  0  0
    6.7700   -0.2380   21.8600 C   0  0  1  0  0  0  0  0  0  0  0  0
    8.0980    0.6020   22.0180 C   0  0  0  0  0  0  0  0  0  0  0  0
   10.5540    1.8360   23.6450 C   0  0  0  0  0  0  0  0  0  0  0  0
   11.6950    2.4120   23.0750 C   0  0  0  0  0  0  0  0  0  0  0  0
   12.7990    4.4780   22.7980 C   0  0  0  0  0  0  0  0  0  0  0  0
   12.5030   -1.9530   24.2380 C   0  0  0  0  0  0  0  0  0  0  0  0
   13.4730   -2.0320   23.0760 C   0  0  0  0  0  0  0  0  0  0  0  0
   12.8690   -3.0560   25.2610 C   0  0  0  0  0  0  0  0  0  0  0  0
   12.6530   -0.6140   24.9470 C   0  0  0  0  0  0  0  0  0  0  0  0
    7.9400    5.4760   23.2040 C   0  0  0  0  0  0  0  0  0  0  0  0
    4.8650   -2.9450   25.0620 C   0  0  0  0  0  0  0  0  0  0  0  0
    3.5110   -2.9810   25.3920 O   0  0  0  0  0  0  0  0  0  0  0  0
    5.6540   -2.7140   26.2010 N   0  0  0  0  0  0  0  0  0  0  0  0
    5.1450   -2.0370   27.2630 C   0  0  0  0  0  0  0  0  0  0  0  0
    6.4330    0.1650   18.0960 N   0  0  0  0  0  0  0  0  0  0  0  0
    5.2640    0.9830   17.9420 C   0  0  0  0  0  0  0  0  0  0  0  0
    4.5890    1.3770   19.0750 C   0  0  0  0  0  0  0  0  0  0  0  0
    5.0860    0.9520   20.4540 C   0  0  0  0  0  0  0  0  0  0  0  0
    6.2340    0.1670   20.4780 C   0  0  0  0  0  0  0  0  0  0  0  0
    6.9030   -0.2300   19.2960 C   0  0  0  0  0  0  0  0  0  0  0  0
    9.4980   -2.2140   21.6650 C   0  0  0  0  0  0  0  0  0  0  0  0
   10.9150   -2.2440   22.2030 C   0  0  0  0  0  0  0  0  0  0  0  0
   11.1350   -1.9590   23.6470 C   0  0  0  0  0  0  0  0  0  0  0  0
    9.9770   -1.6860   24.3630 C   0  0  0  0  0  0  0  0  0  0  0  0
    8.6880   -1.6620   23.8400 C   0  0  0  0  0  0  0  0  0  0  0  0
    8.4130   -1.9250   22.4860 C   0  0  0  0  0  0  0  0  0  0  0  0
   10.0760    5.2170   22.7880 O   0  0  0  0  0  0  0  0  0  0  0  0
   10.5000    4.1740   23.6300 C   0  0  1  0  0  0  0  0  0  0  0  0
    9.1050    2.9790   23.7450 S   0  0  0  0  0  0  0  0  0  0  0  0
    7.6980    3.9580   24.5270 C   0  0  0  0  0  0  0  0  0  0  0  0
    8.5990    4.5650   23.8020 C   0  0  2  0  0  0  0  0  0  0  0  0
    8.8420    4.8600   22.5340 C   0  0  0  0  0  0  0  0  0  0  0  0
    6.9860   -4.2970   21.9810 C   0  0  2  0  0  0  0  0  0  0  0  0
    7.4430   -3.7000   23.3160 C   0  0  0  0  0  0  0  0  0  0  0  0
    6.5610   -2.5990   23.4620 C   0  0  2  0  0  0  0  0  0  0  0  0
    5.2870   -3.1600   23.6290 C   0  0  1  0  0  0  0  0  0  0  0  0
    5.1460   -4.5710   23.4110 C   0  0  0  0  0  0  0  0  0  0  0  0
    5.9110   -5.2410   22.4330 C   0  0  0  0  0  0  0  0  0  0  0  0
    6.8480   -4.5470   27.3080 C   0  0  0  0  0  0  0  0  0  0  0  0
    8.1410   -5.2610   27.6090 C   0  0  0  0  0  0  0  0  0  0  0  0
    9.2550   -4.7040   27.0200 C   0  0  0  0  0  0  0  0  0  0  0  0
    9.4370   -3.5700   26.1680 C   0  0  0  0  0  0  0  0  0  0  0  0
    8.0240   -2.9920   25.9910 C   0  0  0  0  0  0  0  0  0  0  0  0
    6.8540   -3.4110   26.4880 C   0  0  0  0  0  0  0  0  0  0  0  0
  1  6  1  0
  3  6  2  0
  1  8  1  0
  4  9  1  0
  5  9  2  0
  8  9  1  6
  7 11  1  0
 10 11  1  0
  7 12  1  0
 13 14  1  0
 13 15  1  0
 13 16  1  0
 18 19  2  0
 18 20  1  0
 20 21  1  0
 22 23  2  0
 23 24  1  0
 24 25  2  0
  8 26  1  0
 25 26  1  0
 22 27  1  0
 26 27  2  0
 28 29  2  0
 13 30  1  0
 29 30  1  0
 30 31  2  0
 31 32  1  0
  1 33  1  6
 28 33  1  0
 32 33  2  0
  7 35  1  0
 35 34  1  6
  4 36  1  0
 10 36  1  0
 35 36  1  0
 36 37  1  0
 38 17  1  6
 36 38  1  0
 37 38  1  0
 34 39  1  0
 38 39  1  0
 40  2  1  6
  6 40  1  0
 40 41  1  0
  1 42  1  0
 42 41  1  6
 43 18  1  1
 42 43  1  0
 43 44  1  0
 40 45  1  0
 44 45  1  0
 46 47  2  0
 47 48  1  0
 48 49  2  0
 49 50  1  0
 20 51  1  0
 46 51  1  0
 50 51  2  0
M  END
