x3110-x1493-x0691
     RDKit          3D

 53 57  0  0  0  0  0  0  0  0999 V2000
    7.9310    1.2920   23.3930 N   0  0  0  0  0  0  0  0  0  0  0  0
   13.4040    5.2190   22.8800 C   0  0  0  0  0  0  0  0  0  0  0  0
   12.0560    3.2270   22.3610 O   0  0  0  0  0  0  0  0  0  0  0  0
   12.4690    4.4630   21.9890 C   0  0  0  0  0  0  0  0  0  0  0  0
    6.8320   -1.4760   21.8600 C   0  0  2  0  0  0  0  0  0  0  0  0
   10.7670    4.3360   24.1710 O   0  0  0  0  0  0  0  0  0  0  0  0
   11.0960    3.2340   23.3270 C   0  0  0  0  0  0  0  0  0  0  0  0
    8.5010    1.5070   20.9450 O   0  0  0  0  0  0  0  0  0  0  0  0
   10.3330    2.1230   23.5550 C   0  0  0  0  0  0  0  0  0  0  0  0
    4.9270   -3.0310   20.7010 O   0  0  0  0  0  0  0  0  0  0  0  0
    8.8090    2.4000   23.6200 C   0  0  0  0  0  0  0  0  0  0  0  0
    7.6860    0.9520   21.9930 C   0  0  0  0  0  0  0  0  0  0  0  0
    6.5000    0.0120   21.6100 C   0  0  1  0  0  0  0  0  0  0  0  0
    6.1250   -2.7510   21.1930 C   0  0  0  0  0  0  0  0  0  0  0  0
    7.1010   -3.8290   21.3900 C   0  0  2  0  0  0  0  0  0  0  0  0
    7.1250   -4.7320   20.2160 C   0  0  0  0  0  0  0  0  0  0  0  0
   12.4960   -1.7050   24.1750 C   0  0  0  0  0  0  0  0  0  0  0  0
   12.6540   -0.5150   24.8300 C   0  0  0  0  0  0  0  0  0  0  0  0
   13.4160   -1.7690   22.9910 C   0  0  0  0  0  0  0  0  0  0  0  0
   12.8280   -2.9920   24.9790 C   0  0  0  0  0  0  0  0  0  0  0  0
    3.5070   -6.5230   26.2560 O   0  0  0  0  0  0  0  0  0  0  0  0
    5.2420   -4.8710   27.0790 O   0  0  0  0  0  0  0  0  0  0  0  0
    2.9810   -0.1380   26.1360 F   0  0  0  0  0  0  0  0  0  0  0  0
    4.2330   -5.2740   26.1230 S   0  0  0  0  0  0  0  0  0  0  0  0
    6.0850   -1.8790   23.1350 C   0  0  0  0  0  0  0  0  0  0  0  0
    5.3440   -3.2210   22.9160 C   0  0  0  0  0  0  0  0  0  0  0  0
    5.7690   -6.2740   24.8990 C   0  0  0  0  0  0  0  0  0  0  0  0
    7.5560   -5.6490   26.8640 O   0  0  0  0  0  0  0  0  0  0  0  0
    6.8750   -5.8260   25.8800 C   0  0  0  0  0  0  0  0  0  0  0  0
    6.3630    0.5260   17.7920 N   0  0  0  0  0  0  0  0  0  0  0  0
    5.2280    1.4130   17.7060 C   0  0  0  0  0  0  0  0  0  0  0  0
    4.5400    1.7990   18.8240 C   0  0  0  0  0  0  0  0  0  0  0  0
    4.9630    1.3120   20.1670 C   0  0  0  0  0  0  0  0  0  0  0  0
    6.0660    0.4670   20.2410 C   0  0  0  0  0  0  0  0  0  0  0  0
    6.7550    0.0700   19.0870 C   0  0  0  0  0  0  0  0  0  0  0  0
    9.3980   -2.0560   21.7150 C   0  0  0  0  0  0  0  0  0  0  0  0
   10.8220   -2.1240   22.2740 C   0  0  0  0  0  0  0  0  0  0  0  0
   11.0960   -1.6910   23.5840 C   0  0  0  0  0  0  0  0  0  0  0  0
    9.9490   -1.1640   24.4340 C   0  0  0  0  0  0  0  0  0  0  0  0
    8.5540   -1.1150   23.8480 C   0  0  0  0  0  0  0  0  0  0  0  0
    8.2920   -1.5810   22.4180 C   0  0  0  0  0  0  0  0  0  0  0  0
    2.5440   -1.4090   26.0750 C   0  0  0  0  0  0  0  0  0  0  0  0
    3.5040   -2.5800   26.1190 C   0  0  0  0  0  0  0  0  0  0  0  0
    3.0460   -4.0280   26.0540 C   0  0  0  0  0  0  0  0  0  0  0  0
    1.5490   -4.3180   25.9280 C   0  0  0  0  0  0  0  0  0  0  0  0
    0.6220   -3.1270   25.8880 C   0  0  0  0  0  0  0  0  0  0  0  0
    1.1790   -1.6810   25.9700 C   0  0  0  0  0  0  0  0  0  0  0  0
    6.3290   -4.4180   22.5580 C   0  0  1  0  0  0  0  0  0  0  0  0
    5.3660   -5.5340   22.2410 C   0  0  0  0  0  0  0  0  0  0  0  0
    4.3580   -5.5180   23.3770 C   0  0  0  0  0  0  0  0  0  0  0  0
    4.8900   -5.1930   24.6460 C   0  0  1  0  0  0  0  0  0  0  0  0
    5.9640   -4.2650   24.7320 C   0  0  0  0  0  0  0  0  0  0  0  0
    6.9590   -4.4600   23.7610 C   0  0  0  0  0  0  0  0  0  0  0  0
  2  4  1  0
  3  4  1  0
  3  7  1  0
  6  7  2  0
  7  9  1  0
  1 11  1  0
  9 11  1  0
  1 12  1  0
  8 12  2  0
  5 13  1  0
 13 12  1  6
  5 14  1  0
 10 14  2  0
 14 15  1  0
 15 16  1  6
 17 18  1  0
 17 19  1  0
 17 20  1  0
 21 24  2  0
 22 24  2  0
  5 25  1  0
 25 26  1  0
 27 29  1  0
 28 29  2  0
 30 31  2  0
 31 32  1  0
 32 33  2  0
 13 34  1  0
 33 34  1  0
 30 35  1  0
 34 35  2  0
 36 37  2  0
 17 38  1  0
 37 38  1  0
 38 39  2  0
 39 40  1  0
  5 41  1  1
 36 41  1  0
 40 41  2  0
 23 42  1  0
 42 43  2  0
 24 44  1  0
 43 44  1  0
 44 45  2  0
 45 46  1  0
 42 47  1  0
 46 47  2  0
 15 48  1  0
 48 26  1  1
 48 49  1  0
 49 50  1  0
 24 51  1  0
 51 27  1  1
 50 51  1  0
 51 52  1  0
 48 53  1  0
 52 53  1  0
M  END
