x3110-x1308-x0691
     RDKit          3D

 54 61  0  0  0  0  0  0  0  0999 V2000
    7.9420    1.0980   23.1960 N   0  0  0  0  0  0  0  0  0  0  0  0
   13.3760    5.1960   22.8310 C   0  0  0  0  0  0  0  0  0  0  0  0
   12.0210    3.2320   22.3860 O   0  0  0  0  0  0  0  0  0  0  0  0
   12.3410    4.3620   22.0250 C   0  0  0  0  0  0  0  0  0  0  0  0
    6.8620   -1.5840   21.8450 C   0  0  2  0  0  0  0  0  0  0  0  0
   10.9110    4.3960   24.1890 O   0  0  0  0  0  0  0  0  0  0  0  0
   11.0880    3.2350   23.3750 C   0  0  0  0  0  0  0  0  0  0  0  0
    8.3930    1.4130   20.7500 O   0  0  0  0  0  0  0  0  0  0  0  0
   10.3430    2.0670   23.5220 C   0  0  0  0  0  0  0  0  0  0  0  0
    4.8430   -2.9270   20.6290 O   0  0  0  0  0  0  0  0  0  0  0  0
    8.8060    2.1950   23.5270 C   0  0  0  0  0  0  0  0  0  0  0  0
    7.6830    0.7600   21.8000 C   0  0  0  0  0  0  0  0  0  0  0  0
    6.6690   -0.2080   21.5300 C   0  0  1  0  0  0  0  0  0  0  0  0
    6.0500   -2.8130   21.1260 C   0  0  0  0  0  0  0  0  0  0  0  0
    6.7200   -4.1020   21.2680 C   0  0  1  0  0  0  0  0  0  0  0  0
    8.1950   -4.1680   20.9910 C   0  0  0  0  0  0  0  0  0  0  0  0
   12.3630   -1.8450   24.1810 C   0  0  0  0  0  0  0  0  0  0  0  0
   12.5200   -0.6090   25.0410 C   0  0  0  0  0  0  0  0  0  0  0  0
   13.3600   -1.9410   22.9940 C   0  0  0  0  0  0  0  0  0  0  0  0
   12.6190   -3.0000   24.9610 C   0  0  0  0  0  0  0  0  0  0  0  0
    0.6270   -1.3830   26.5310 Cl  0  0  0  0  0  0  0  0  0  0  0  0
    6.9520   -5.1010   26.7980 O   0  0  0  0  0  0  0  0  0  0  0  0
    5.1690   -6.8940   26.6440 O   0  0  0  0  0  0  0  0  0  0  0  0
    5.7530   -5.6430   26.2150 S   0  0  0  0  0  0  0  0  0  0  0  0
    6.1600   -1.8760   23.1430 C   0  0  0  0  0  0  0  0  0  0  0  0
    5.2010   -3.0000   22.8000 C   0  0  0  0  0  0  0  0  0  0  0  0
    3.4670   -6.3300   24.9720 O   0  0  0  0  0  0  0  0  0  0  0  0
    4.2220   -3.9400   25.3040 O   0  0  0  0  0  0  0  0  0  0  0  0
    3.7450   -0.7340   26.3930 F   0  0  0  0  0  0  0  0  0  0  0  0
    4.2550   -5.1700   24.5720 S   0  0  0  0  0  0  0  0  0  0  0  0
    6.4430    0.3650   17.8010 N   0  0  0  0  0  0  0  0  0  0  0  0
    5.2910    1.2600   17.7690 C   0  0  0  0  0  0  0  0  0  0  0  0
    4.6030    1.6460   18.9100 C   0  0  0  0  0  0  0  0  0  0  0  0
    5.0320    1.1670   20.1650 C   0  0  0  0  0  0  0  0  0  0  0  0
    6.1590    0.3100   20.1530 C   0  0  0  0  0  0  0  0  0  0  0  0
    6.8650   -0.1060   19.0470 C   0  0  0  0  0  0  0  0  0  0  0  0
    9.4730   -1.3840   21.7200 C   0  0  0  0  0  0  0  0  0  0  0  0
   10.7800   -1.4430   22.2550 C   0  0  0  0  0  0  0  0  0  0  0  0
   10.9460   -1.8270   23.5910 C   0  0  0  0  0  0  0  0  0  0  0  0
    9.8370   -2.1600   24.3520 C   0  0  0  0  0  0  0  0  0  0  0  0
    8.5850   -2.0880   23.7720 C   0  0  0  0  0  0  0  0  0  0  0  0
    8.3340   -1.6970   22.4580 C   0  0  0  0  0  0  0  0  0  0  0  0
    5.3020   -5.2920   22.5180 C   0  0  1  0  0  0  0  0  0  0  0  0
    5.9850   -4.2430   22.6360 C   0  0  1  0  0  0  0  0  0  0  0  0
    6.5240   -4.6330   23.7200 C   0  0  1  0  0  0  0  0  0  0  0  0
    5.9110   -5.6400   24.4390 C   0  0  1  0  0  0  0  0  0  0  0  0
    5.6480   -6.6100   23.4790 C   0  0  2  0  0  0  0  0  0  0  0  0
    5.5770   -6.4390   22.1260 C   0  0  0  0  0  0  0  0  0  0  0  0
    4.4120   -3.2140   26.3550 C   0  0  0  0  0  0  0  0  0  0  0  0
    3.3950   -2.0350   26.4040 C   0  0  0  0  0  0  0  0  0  0  0  0
    1.9500   -2.4400   26.4620 C   0  0  0  0  0  0  0  0  0  0  0  0
    1.9230   -3.9240   26.4610 C   0  0  0  0  0  0  0  0  0  0  0  0
    3.2750   -4.6310   26.3940 C   0  0  0  0  0  0  0  0  0  0  0  0
    4.5210   -4.4720   26.3350 C   0  0  0  0  0  0  0  0  0  0  0  0
  2  4  1  0
  3  4  1  0
  3  7  1  0
  6  7  2  0
  7  9  1  0
  1 11  1  0
  9 11  1  0
  1 12  1  0
  8 12  2  0
  5 13  1  0
 13 12  1  6
  5 14  1  0
 10 14  2  0
 14 15  1  0
 15 16  1  1
 17 18  1  0
 17 19  1  0
 17 20  1  0
 22 24  2  0
 23 24  2  0
  5 25  1  0
 25 26  1  0
 27 30  2  0
 28 30  2  0
 31 32  2  0
 32 33  1  0
 33 34  2  0
 13 35  1  0
 34 35  1  0
 31 36  1  0
 35 36  2  0
 37 38  2  0
 17 39  1  0
 38 39  1  0
 39 40  2  0
 40 41  1  0
  5 42  1  1
 37 42  1  0
 41 42  2  0
 15 44  1  0
 44 26  1  1
 43 44  1  0
 43 45  1  0
 44 45  1  0
 46 24  1  0
 46 30  1  6
 45 46  1  1
 43 47  1  0
 46 47  1  0
 43 48  1  1
 47 48  1  6
 29 50  1  0
 49 50  2  0
 21 51  1  0
 50 51  1  0
 51 52  2  0
 49 53  1  0
 52 53  1  0
 24 54  1  0
 49 54  1  0
 53 54  2  0
M  END
