x3115-x1380-x0426-x3110
     RDKit          3D

 60 65  0  0  0  0  0  0  0  0999 V2000
    7.8720    1.3550   23.2550 N   0  0  0  0  0  0  0  0  0  0  0  0
   13.5110    5.0640   22.8370 C   0  0  0  0  0  0  0  0  0  0  0  0
   11.9300    3.3220   22.3700 O   0  0  0  0  0  0  0  0  0  0  0  0
   12.4340    4.5610   21.9070 C   0  0  0  0  0  0  0  0  0  0  0  0
    6.9230   -1.8040   22.2060 C   0  0  1  0  0  0  0  0  0  0  0  0
   11.0450    4.3610   24.1880 O   0  0  0  0  0  0  0  0  0  0  0  0
   11.1020    3.4050   23.4290 C   0  0  0  0  0  0  0  0  0  0  0  0
    8.5410    1.2060   21.0150 O   0  0  0  0  0  0  0  0  0  0  0  0
   10.2170    2.1490   23.5780 C   0  0  0  0  0  0  0  0  0  0  0  0
    5.0790   -3.2700   20.8660 O   0  0  0  0  0  0  0  0  0  0  0  0
    8.6700    2.4580   23.5040 C   0  0  1  0  0  0  0  0  0  0  0  0
    7.7830    0.8010   21.9080 C   0  0  0  0  0  0  0  0  0  0  0  0
    6.6330   -0.2660   21.6800 C   0  0  1  0  0  0  0  0  0  0  0  0
    6.2420   -3.0670   21.4780 C   0  0  0  0  0  0  0  0  0  0  0  0
    8.1860   -4.8030   21.1290 C   0  0  0  0  0  0  0  0  0  0  0  0
   12.3620   -1.7710   24.1400 C   0  0  0  0  0  0  0  0  0  0  0  0
   12.5110   -0.5290   24.9460 C   0  0  0  0  0  0  0  0  0  0  0  0
   13.3460   -1.7390   22.9730 C   0  0  0  0  0  0  0  0  0  0  0  0
   12.8000   -2.9220   25.0600 C   0  0  0  0  0  0  0  0  0  0  0  0
    8.5640    4.9210   23.1570 O   0  0  0  0  0  0  0  0  0  0  0  0
    8.3330    3.6430   22.5430 C   0  0  0  0  0  0  0  0  0  0  0  0
    8.2080    6.0320   22.3060 C   0  0  0  0  0  0  0  0  0  0  0  0
    2.2920    1.8080   23.7850 C   0  0  0  0  0  0  0  0  0  0  0  0
    2.1730    0.5970   23.6600 O   0  0  0  0  0  0  0  0  0  0  0  0
    3.3630    2.5290   23.2890 N   0  0  0  0  0  0  0  0  0  0  0  0
    4.4140    1.8590   22.4760 C   0  0  0  0  0  0  0  0  0  0  0  0
    3.8540    1.1840   21.2200 C   0  0  0  0  0  0  0  0  0  0  0  0
    2.7060    4.4100   25.2870 F   0  0  0  0  0  0  0  0  0  0  0  0
    4.3940   -3.0210   25.6980 O   0  0  0  0  0  0  0  0  0  0  0  0
    5.5580   -3.3440   25.5280 C   0  0  0  0  0  0  0  0  0  0  0  0
    6.4870    0.3930   17.9240 N   0  0  0  0  0  0  0  0  0  0  0  0
    5.3260    1.0270   17.8130 C   0  0  0  0  0  0  0  0  0  0  0  0
    4.4990    1.2670   18.8750 C   0  0  0  0  0  0  0  0  0  0  0  0
    4.8690    0.8510   20.1480 C   0  0  0  0  0  0  0  0  0  0  0  0
    6.0930    0.1970   20.3180 C   0  0  0  0  0  0  0  0  0  0  0  0
    6.8350   -0.0020   19.1680 C   0  0  0  0  0  0  0  0  0  0  0  0
    9.3560   -1.6030   21.7110 C   0  0  0  0  0  0  0  0  0  0  0  0
   10.6960   -1.6030   22.1910 C   0  0  0  0  0  0  0  0  0  0  0  0
   10.9410   -1.7880   23.5710 C   0  0  0  0  0  0  0  0  0  0  0  0
    9.8650   -1.9730   24.4220 C   0  0  0  0  0  0  0  0  0  0  0  0
    8.5700   -1.9740   23.9350 C   0  0  0  0  0  0  0  0  0  0  0  0
    8.2610   -1.7900   22.5620 C   0  0  0  0  0  0  0  0  0  0  0  0
    1.4730    3.8670   25.2540 C   0  0  0  0  0  0  0  0  0  0  0  0
    1.2450    2.5610   24.5050 C   0  0  0  0  0  0  0  0  0  0  0  0
   -0.2040    2.0410   24.5420 C   0  0  0  0  0  0  0  0  0  0  0  0
   -1.2150    2.8920   25.3160 C   0  0  0  0  0  0  0  0  0  0  0  0
   -0.8490    4.0810   25.9580 C   0  0  0  0  0  0  0  0  0  0  0  0
    0.4590    4.5510   25.9260 C   0  0  0  0  0  0  0  0  0  0  0  0
    7.1790   -4.2090   21.7940 C   0  0  2  0  0  0  0  0  0  0  0  0
    6.2540   -5.2650   22.3930 C   0  0  0  0  0  0  0  0  0  0  0  0
    5.4510   -4.6760   23.3560 C   0  0  0  0  0  0  0  0  0  0  0  0
    6.0730   -3.6890   24.1310 C   0  0  1  0  0  0  0  0  0  0  0  0
    6.7600   -2.4500   23.4240 C   0  0  1  0  0  0  0  0  0  0  0  0
    7.8850   -3.4340   22.9210 C   0  0  0  0  0  0  0  0  0  0  0  0
    7.7130   -4.1290   26.5310 C   0  0  0  0  0  0  0  0  0  0  0  0
    8.0790   -4.9130   27.8180 C   0  0  0  0  0  0  0  0  0  0  0  0
    6.8570   -5.3440   28.5950 C   0  0  0  0  0  0  0  0  0  0  0  0
    5.6990   -4.5880   28.4700 C   0  0  0  0  0  0  0  0  0  0  0  0
    5.9370   -3.3010   27.9990 C   0  0  0  0  0  0  0  0  0  0  0  0
    6.4390   -3.3890   26.6360 N   0  0  0  0  0  0  0  0  0  0  0  0
  2  4  1  0
  3  4  1  0
  3  7  1  0
  6  7  2  0
  7  9  1  0
  1 11  1  0
 11  9  1  6
  1 12  1  0
  8 12  2  0
  5 13  1  0
 13 12  1  6
  5 14  1  0
 10 14  2  0
 16 17  1  0
 16 18  1  0
 16 19  1  0
 11 21  1  0
 20 21  1  0
 20 22  1  0
 23 24  2  0
 23 25  1  0
 25 26  1  0
 26 27  1  0
 29 30  2  0
 31 32  2  0
 32 33  1  0
 27 34  1  0
 33 34  2  0
 13 35  1  0
 34 35  1  0
 31 36  1  0
 35 36  2  0
 37 38  2  0
 16 39  1  0
 38 39  1  0
 39 40  2  0
 40 41  1  0
  5 42  1  6
 37 42  1  0
 41 42  2  0
 28 43  1  0
 23 44  1  0
 43 44  2  0
 44 45  1  0
 45 46  2  0
 46 47  1  0
 43 48  1  0
 47 48  2  0
 14 49  1  0
 49 15  1  6
 49 50  1  0
 50 51  1  0
 52 30  1  1
 51 52  1  0
  5 53  1  0
 52 53  1  0
 49 54  1  0
 53 54  1  6
 55 56  1  0
 56 57  1  0
 57 58  1  0
 58 59  1  0
 30 60  1  0
 55 60  1  0
 59 60  1  0
M  END
