x3115-x0981
     RDKit          3D

 41 42  0  0  0  0  0  0  0  0999 V2000
    6.8430   -1.8760   21.8650 N   0  0  0  0  0  0  0  0  0  0  0  0
    6.4040   -4.8620   20.1580 C   0  0  0  0  0  0  0  0  0  0  0  0
    4.6840   -2.9650   21.4150 O   0  0  0  0  0  0  0  0  0  0  0  0
    6.3630   -4.4960   21.6170 C   0  0  1  0  0  0  0  0  0  0  0  0
    7.5750    1.6350   22.7960 N   0  0  0  0  0  0  0  0  0  0  0  0
    8.8100    0.3460   21.3490 O   0  0  0  0  0  0  0  0  0  0  0  0
    5.9070   -3.0340   21.6490 C   0  0  0  0  0  0  0  0  0  0  0  0
    8.6930    5.1400   23.0250 O   0  0  0  0  0  0  0  0  0  0  0  0
    6.5350   -0.4190   21.6440 C   0  0  1  0  0  0  0  0  0  0  0  0
    7.7480    0.5380   21.9270 C   0  0  0  0  0  0  0  0  0  0  0  0
    8.3490    2.7700   22.5340 C   0  0  0  0  0  0  0  0  0  0  0  0
    7.7020    4.1140   22.9130 C   0  0  0  0  0  0  0  0  0  0  0  0
    8.3850    6.3170   22.2650 C   0  0  0  0  0  0  0  0  0  0  0  0
   12.1530   -2.0390   24.2400 C   0  0  0  0  0  0  0  0  0  0  0  0
   13.2500   -2.2900   23.1910 C   0  0  0  0  0  0  0  0  0  0  0  0
   12.0770   -3.1910   25.2450 C   0  0  0  0  0  0  0  0  0  0  0  0
   12.4570   -0.7450   25.0150 C   0  0  0  0  0  0  0  0  0  0  0  0
    1.3800   -8.4690   21.7180 C   0  0  0  0  0  0  0  0  0  0  0  0
    2.9120   -6.8970   22.7140 N   0  0  0  0  0  0  0  0  0  0  0  0
    0.6650   -6.4090   22.4150 O   0  0  0  0  0  0  0  0  0  0  0  0
    1.5980   -7.2090   22.3010 C   0  0  0  0  0  0  0  0  0  0  0  0
    2.4540   -8.1910   26.2190 N   0  0  0  0  0  0  0  0  0  0  0  0
    3.9680   -8.1680   24.5980 O   0  0  0  0  0  0  0  0  0  0  0  0
    3.1500   -5.8230   23.5430 C   0  0  1  0  0  0  0  0  0  0  0  0
    5.2950   -5.4420   22.1940 N   0  0  0  0  0  0  0  0  0  0  0  0
    5.0660   -4.5640   24.2390 O   0  0  0  0  0  0  0  0  0  0  0  0
    2.8970   -6.1030   24.8870 C   0  0  0  0  0  0  0  0  0  0  0  0
    3.1340   -7.5550   25.2300 C   0  0  0  0  0  0  0  0  0  0  0  0
    4.5730   -5.2420   23.3390 C   0  0  0  0  0  0  0  0  0  0  0  0
    6.3280    0.2590   17.9370 N   0  0  0  0  0  0  0  0  0  0  0  0
    5.2170    1.0090   17.8850 C   0  0  0  0  0  0  0  0  0  0  0  0
    4.4450    1.3380   18.9960 C   0  0  0  0  0  0  0  0  0  0  0  0
    4.8390    0.8750   20.2490 C   0  0  0  0  0  0  0  0  0  0  0  0
    6.0060    0.0920   20.3350 C   0  0  0  0  0  0  0  0  0  0  0  0
    6.7080   -0.1890   19.1530 C   0  0  0  0  0  0  0  0  0  0  0  0
    9.3060   -1.7570   21.7070 C   0  0  0  0  0  0  0  0  0  0  0  0
   10.5940   -1.7830   22.2280 C   0  0  0  0  0  0  0  0  0  0  0  0
   10.7760   -2.0090   23.5850 C   0  0  0  0  0  0  0  0  0  0  0  0
    9.6520   -2.2190   24.3920 C   0  0  0  0  0  0  0  0  0  0  0  0
    8.3640   -2.1930   23.8510 C   0  0  0  0  0  0  0  0  0  0  0  0
    8.1730   -1.9550   22.4900 C   0  0  0  0  0  0  0  0  0  0  0  0
  4  2  1  6
  1  7  1  0
  3  7  2  0
  4  7  1  0
  1  9  1  0
  5 10  1  0
  6 10  2  0
  9 10  1  6
  5 11  1  0
  8 12  1  0
 11 12  1  0
  8 13  1  0
 14 15  1  0
 14 16  1  0
 14 17  1  0
 18 21  1  0
 19 21  1  0
 20 21  2  0
 19 24  1  0
  4 25  1  0
 24 27  1  1
 22 28  1  0
 23 28  2  0
 27 28  1  0
 24 29  1  0
 25 29  1  0
 26 29  2  0
 30 31  2  0
 31 32  1  0
 32 33  2  0
  9 34  1  0
 33 34  1  0
 30 35  1  0
 34 35  2  0
 36 37  2  0
 14 38  1  0
 37 38  1  0
 38 39  2  0
 39 40  1  0
  1 41  1  0
 36 41  1  0
 40 41  2  0
M  END
