x3110-x1380-x0946
     RDKit          3D

 51 56  0  0  0  0  0  0  0  0999 V2000
    7.9740    0.8230   23.6110 N   0  0  0  0  0  0  0  0  0  0  0  0
   14.0320    5.0910   22.4620 C   0  0  0  0  0  0  0  0  0  0  0  0
   12.6020    5.1080   22.6800 C   0  0  0  0  0  0  0  0  0  0  0  0
    7.0210   -1.7750   22.1510 C   0  0  1  0  0  0  0  0  0  0  0  0
    9.8950    4.9330   23.6670 C   0  0  0  0  0  0  0  0  0  0  0  0
    8.5470    1.1580   21.2760 O   0  0  0  0  0  0  0  0  0  0  0  0
    5.0600   -3.2380   20.7730 O   0  0  0  0  0  0  0  0  0  0  0  0
    8.6390    1.9930   24.1080 C   0  0  0  0  0  0  0  0  0  0  0  0
    7.7310    0.5430   22.2000 C   0  0  0  0  0  0  0  0  0  0  0  0
    6.6570   -0.3340   21.8400 C   0  0  1  0  0  0  0  0  0  0  0  0
    6.1810   -2.9930   21.4180 C   0  0  0  0  0  0  0  0  0  0  0  0
    8.3300   -4.6450   21.0910 C   0  0  0  0  0  0  0  0  0  0  0  0
   12.3830   -1.8760   24.2050 C   0  0  0  0  0  0  0  0  0  0  0  0
   12.5670   -0.6600   24.8780 C   0  0  0  0  0  0  0  0  0  0  0  0
   13.4290   -1.8790   23.1000 C   0  0  0  0  0  0  0  0  0  0  0  0
   12.6330   -2.9570   24.9460 C   0  0  0  0  0  0  0  0  0  0  0  0
    8.5560    4.6930   23.6630 N   0  0  0  0  0  0  0  0  0  0  0  0
   10.3020    5.7740   22.9280 O   0  0  0  0  0  0  0  0  0  0  0  0
   10.4250    5.4300   24.6570 O   0  0  0  0  0  0  0  0  0  0  0  0
    4.4080   -2.5110   25.7150 O   0  0  0  0  0  0  0  0  0  0  0  0
    5.4400   -3.0850   25.3920 C   0  0  0  0  0  0  0  0  0  0  0  0
    6.4740    0.2340   18.0630 N   0  0  0  0  0  0  0  0  0  0  0  0
    5.3310    1.0910   17.8710 C   0  0  0  0  0  0  0  0  0  0  0  0
    4.6730    1.4150   19.0650 C   0  0  0  0  0  0  0  0  0  0  0  0
    5.0820    0.9610   20.3220 C   0  0  0  0  0  0  0  0  0  0  0  0
    6.1970    0.1400   20.4510 C   0  0  0  0  0  0  0  0  0  0  0  0
    6.8580   -0.1980   19.2900 C   0  0  0  0  0  0  0  0  0  0  0  0
    9.4800   -1.4670   21.6910 C   0  0  0  0  0  0  0  0  0  0  0  0
   10.8070   -1.5060   22.2330 C   0  0  0  0  0  0  0  0  0  0  0  0
   10.9720   -1.8580   23.5940 C   0  0  0  0  0  0  0  0  0  0  0  0
    9.8680   -2.1680   24.3630 C   0  0  0  0  0  0  0  0  0  0  0  0
    8.5900   -2.1280   23.8190 C   0  0  0  0  0  0  0  0  0  0  0  0
    8.3760   -1.7770   22.4770 C   0  0  0  0  0  0  0  0  0  0  0  0
   12.3620    1.1940   22.9620 C   0  0  0  0  0  0  0  0  0  0  0  0
   12.8420    2.6210   22.7380 C   0  0  0  0  0  0  0  0  0  0  0  0
   12.0630    3.7380   22.9450 C   0  0  0  0  0  0  0  0  0  0  0  0
   10.6520    3.6420   23.4330 C   0  0  0  0  0  0  0  0  0  0  0  0
   10.0780    2.2200   23.6590 C   0  0  0  0  0  0  0  0  0  0  0  0
   11.0180    1.0200   23.4040 C   0  0  0  0  0  0  0  0  0  0  0  0
    7.1090   -4.1130   21.8420 C   0  0  2  0  0  0  0  0  0  0  0  0
    6.0860   -5.1500   22.2730 C   0  0  0  0  0  0  0  0  0  0  0  0
    5.4910   -4.7030   23.4800 C   0  0  0  0  0  0  0  0  0  0  0  0
    5.6480   -3.3440   23.8890 C   0  0  2  0  0  0  0  0  0  0  0  0
    6.7880   -2.6400   23.5070 C   0  0  1  0  0  0  0  0  0  0  0  0
    7.7390   -3.5430   23.0880 C   0  0  0  0  0  0  0  0  0  0  0  0
    7.7160   -4.1200   26.2870 C   0  0  0  0  0  0  0  0  0  0  0  0
    7.9760   -5.3530   27.1770 C   0  0  0  0  0  0  0  0  0  0  0  0
    7.3510   -5.2220   28.5710 C   0  0  0  0  0  0  0  0  0  0  0  0
    5.9250   -4.7230   28.5240 C   0  0  0  0  0  0  0  0  0  0  0  0
    5.8630   -3.3900   27.8210 C   0  0  0  0  0  0  0  0  0  0  0  0
    6.3920   -3.4880   26.4630 N   0  0  0  0  0  0  0  0  0  0  0  0
  2  3  1  0
  1  8  1  0
  1  9  1  0
  6  9  2  0
  4 10  1  0
 10  9  1  6
  4 11  1  0
  7 11  2  0
 13 14  1  0
 13 15  1  0
 13 16  1  0
  5 17  1  0
  5 18  1  0
  5 19  1  0
 20 21  2  0
 22 23  2  0
 23 24  1  0
 24 25  2  0
 10 26  1  0
 25 26  1  0
 22 27  1  0
 26 27  2  0
 28 29  2  0
 13 30  1  0
 29 30  1  0
 30 31  2  0
 31 32  1  0
  4 33  1  6
 28 33  1  0
 32 33  2  0
 34 35  2  0
  3 36  1  0
 35 36  1  0
  5 37  1  0
 36 37  2  0
  8 38  1  0
 37 38  1  0
 34 39  1  0
 38 39  2  0
 11 40  1  0
 40 12  1  6
 40 41  1  0
 41 42  1  0
 43 21  1  1
 42 43  1  0
  4 44  1  0
 43 44  1  0
 40 45  1  0
 44 45  1  6
 46 47  1  0
 47 48  1  0
 48 49  1  0
 49 50  1  0
 21 51  1  0
 46 51  1  0
 50 51  1  0
M  END
