x3110-x0755-x0978
     RDKit          3D

 57 60  0  0  0  0  0  0  0  0999 V2000
    7.9790    0.8760   23.2750 N   0  0  0  0  0  0  0  0  0  0  0  0
   13.3730    5.1210   22.6980 C   0  0  0  0  0  0  0  0  0  0  0  0
   11.8920    3.2400   22.5430 O   0  0  0  0  0  0  0  0  0  0  0  0
   12.2450    4.3350   22.0960 C   0  0  0  0  0  0  0  0  0  0  0  0
    6.9070   -1.7030   21.7910 N   0  0  0  0  0  0  0  0  0  0  0  0
   10.8000    4.2790   24.1040 O   0  0  0  0  0  0  0  0  0  0  0  0
   11.0130    3.2890   23.4290 C   0  0  0  0  0  0  0  0  0  0  0  0
    8.5750    1.2080   20.9480 O   0  0  0  0  0  0  0  0  0  0  0  0
   10.2530    1.9290   23.5230 C   0  0  0  0  0  0  0  0  0  0  0  0
    4.6830   -2.9290   21.3870 O   0  0  0  0  0  0  0  0  0  0  0  0
    8.6940    2.0300   23.6730 C   0  0  0  0  0  0  0  0  0  0  0  0
    7.7900    0.5410   21.9410 C   0  0  0  0  0  0  0  0  0  0  0  0
    6.6340   -0.4990   21.6770 C   0  0  1  0  0  0  0  0  0  0  0  0
    5.9640   -2.9020   21.4730 C   0  0  0  0  0  0  0  0  0  0  0  0
    6.3670   -4.3450   21.1170 C   0  0  1  0  0  0  0  0  0  0  0  0
    7.9140   -4.3330   20.9170 C   0  0  0  0  0  0  0  0  0  0  0  0
   12.1550   -1.8120   24.4370 C   0  0  0  0  0  0  0  0  0  0  0  0
   12.6620   -0.5990   24.8040 C   0  0  0  0  0  0  0  0  0  0  0  0
   13.1570   -1.3100   23.4840 C   0  0  0  0  0  0  0  0  0  0  0  0
   12.7260   -3.0290   25.0750 C   0  0  0  0  0  0  0  0  0  0  0  0
    2.6700   -5.4330   23.0220 N   0  0  0  0  0  0  0  0  0  0  0  0
    2.3510   -8.0510   24.2480 C   0  0  0  0  0  0  0  0  0  0  0  0
    4.4330   -7.8110   24.6770 O   0  0  0  0  0  0  0  0  0  0  0  0
    3.4390   -7.1900   24.3510 C   0  0  1  0  0  0  0  0  0  0  0  0
    1.3240   -7.0430   22.1310 O   0  0  0  0  0  0  0  0  0  0  0  0
    3.5990   -6.4120   23.1770 C   0  0  2  0  0  0  0  0  0  0  0  0
    1.4180   -5.9960   22.7870 C   0  0  0  0  0  0  0  0  0  0  0  0
    0.2990   -5.3600   23.3170 C   0  0  0  0  0  0  0  0  0  0  0  0
    4.5180   -6.1860   25.9950 O   0  0  0  0  0  0  0  0  0  0  0  0
    5.9830   -4.4520   26.8760 O   0  0  0  0  0  0  0  0  0  0  0  0
    2.0700   -5.3470   25.6660 F   0  0  0  0  0  0  0  0  0  0  0  0
    5.4140   -1.9250   26.1070 F   0  0  0  0  0  0  0  0  0  0  0  0
    5.1040   -4.8820   25.8090 S   0  0  0  0  0  0  0  0  0  0  0  0
    6.4110    0.2930   18.0030 N   0  0  0  0  0  0  0  0  0  0  0  0
    5.2910    1.0290   17.8600 C   0  0  0  0  0  0  0  0  0  0  0  0
    4.5340    1.2740   19.0030 C   0  0  0  0  0  0  0  0  0  0  0  0
    4.9060    0.7970   20.2520 C   0  0  0  0  0  0  0  0  0  0  0  0
    6.0750    0.0470   20.3840 C   0  0  0  0  0  0  0  0  0  0  0  0
    6.7910   -0.1810   19.2120 C   0  0  0  0  0  0  0  0  0  0  0  0
    9.4980   -2.1970   21.7340 C   0  0  0  0  0  0  0  0  0  0  0  0
   10.6990   -2.1920   22.4190 C   0  0  0  0  0  0  0  0  0  0  0  0
   10.7890   -1.8150   23.7400 C   0  0  0  0  0  0  0  0  0  0  0  0
    9.5800   -1.4340   24.3740 C   0  0  0  0  0  0  0  0  0  0  0  0
    8.3380   -1.4360   23.6790 C   0  0  0  0  0  0  0  0  0  0  0  0
    8.3110   -1.8200   22.3280 C   0  0  0  0  0  0  0  0  0  0  0  0
    2.4520   -4.0720   25.7930 C   0  0  0  0  0  0  0  0  0  0  0  0
    3.8100   -3.6980   25.8780 C   0  0  0  0  0  0  0  0  0  0  0  0
    4.1480   -2.3520   26.0160 C   0  0  0  0  0  0  0  0  0  0  0  0
    3.1220   -1.4250   26.0600 C   0  0  0  0  0  0  0  0  0  0  0  0
    1.8000   -1.7840   25.9750 C   0  0  0  0  0  0  0  0  0  0  0  0
    1.4300   -3.1080   25.8410 C   0  0  0  0  0  0  0  0  0  0  0  0
    7.1640   -6.1960   22.2810 N   0  0  0  0  0  0  0  0  0  0  0  0
    7.7700   -5.3540   23.3660 C   0  0  0  0  0  0  0  0  0  0  0  0
    6.7680   -4.2270   23.8360 C   0  0  0  0  0  0  0  0  0  0  0  0
    5.4040   -4.6910   24.1220 N   0  0  0  0  0  0  0  0  0  0  0  0
    5.0230   -5.7500   23.1380 C   0  0  2  0  0  0  0  0  0  0  0  0
    5.8660   -5.6420   21.9430 C   0  0  1  0  0  0  0  0  0  0  0  0
  2  4  1  0
  3  4  1  0
  3  7  1  0
  6  7  2  0
  7  9  1  0
  1 11  1  0
  9 11  1  0
  1 12  1  0
  8 12  2  0
  5 13  1  0
 13 12  1  6
  5 14  1  0
 10 14  2  0
 14 15  1  0
 15 16  1  1
 17 18  1  0
 17 19  1  0
 17 20  1  0
 24 22  1  6
 23 24  1  0
 26 21  1  1
 24 26  1  0
 21 27  1  0
 25 27  2  0
 27 28  1  0
 29 33  2  0
 30 33  2  0
 34 35  2  0
 35 36  1  0
 36 37  2  0
 13 38  1  0
 37 38  1  0
 34 39  1  0
 38 39  2  0
 40 41  2  0
 17 42  1  0
 41 42  1  0
 42 43  2  0
 43 44  1  0
  5 45  1  0
 40 45  1  0
 44 45  2  0
 31 46  1  0
 33 47  1  0
 46 47  2  0
 32 48  1  0
 47 48  1  0
 48 49  2  0
 49 50  1  0
 46 51  1  0
 50 51  2  0
 52 53  1  0
 53 54  1  0
 33 55  1  0
 54 55  1  0
 26 56  1  0
 56 55  1  6
 15 57  1  0
 57 52  1  1
 56 57  1  0
M  END
