x3115-x3117
     RDKit          3D

 32 34  0  0  0  0  0  0  0  0999 V2000
    6.8160   -1.6490   22.1790 N   0  0  0  0  0  0  0  0  0  0  0  0
    6.6490   -4.6950   20.3260 C   0  0  0  0  0  0  0  0  0  0  0  0
    4.7930   -3.0410   21.3710 O   0  0  0  0  0  0  0  0  0  0  0  0
    6.8520   -4.1200   21.7070 C   0  0  0  0  0  0  0  0  0  0  0  0
    7.6350    1.9010   22.9490 N   0  0  0  0  0  0  0  0  0  0  0  0
    8.8730    0.6300   21.4760 O   0  0  0  0  0  0  0  0  0  0  0  0
    6.0520   -2.8610   21.7370 C   0  0  0  0  0  0  0  0  0  0  0  0
    6.6080   -0.1450   21.7980 C   0  0  1  0  0  0  0  0  0  0  0  0
    7.8150    0.8120   22.0650 C   0  0  0  0  0  0  0  0  0  0  0  0
    7.6710    5.2230   22.0470 C   0  0  0  0  0  0  0  0  0  0  0  0
   11.9930   -2.1180   24.2400 C   0  0  0  0  0  0  0  0  0  0  0  0
   13.2130   -2.1370   23.5550 C   0  0  0  0  0  0  0  0  0  0  0  0
   11.7240   -3.1190   25.1730 C   0  0  0  0  0  0  0  0  0  0  0  0
   12.1910   -0.7670   24.9960 C   0  0  0  0  0  0  0  0  0  0  0  0
    6.3320    0.2580   17.9140 N   0  0  0  0  0  0  0  0  0  0  0  0
    5.2270    1.0080   17.8620 C   0  0  0  0  0  0  0  0  0  0  0  0
    4.4520    1.4350   19.0900 C   0  0  0  0  0  0  0  0  0  0  0  0
    4.9090    1.0430   20.3070 C   0  0  0  0  0  0  0  0  0  0  0  0
    6.0690    0.2640   20.4270 C   0  0  0  0  0  0  0  0  0  0  0  0
    6.7160   -0.0890   19.2030 C   0  0  0  0  0  0  0  0  0  0  0  0
    9.2920   -1.6360   21.5830 C   0  0  0  0  0  0  0  0  0  0  0  0
   10.6160   -1.7300   21.9440 C   0  0  0  0  0  0  0  0  0  0  0  0
   10.9760   -1.9410   23.2380 C   0  0  0  0  0  0  0  0  0  0  0  0
   10.0660   -2.0900   24.3150 C   0  0  0  0  0  0  0  0  0  0  0  0
    8.6660   -2.0060   23.9920 C   0  0  0  0  0  0  0  0  0  0  0  0
    8.2090   -1.7780   22.6440 C   0  0  0  0  0  0  0  0  0  0  0  0
   10.0620    4.9130   24.3260 O   0  0  0  0  0  0  0  0  0  0  0  0
   10.5410    3.8790   23.5710 C   0  0  0  0  0  0  0  0  0  0  0  0
    9.6200    2.8130   23.6350 C   0  0  0  0  0  0  0  0  0  0  0  0
    8.4780    3.1250   22.8650 C   0  0  2  0  0  0  0  0  0  0  0  0
    7.8930    4.3510   23.2820 C   0  0  1  0  0  0  0  0  0  0  0  0
    8.7020    5.1730   24.0670 C   0  0  0  0  0  0  0  0  0  0  0  0
  2  4  1  0
  1  7  1  0
  3  7  2  0
  4  7  1  0
  1  8  1  0
  5  9  1  0
  6  9  2  0
  8  9  1  6
 11 12  1  0
 11 13  1  0
 11 14  1  0
 15 16  2  0
 16 17  1  0
 17 18  2  0
  8 19  1  0
 18 19  1  0
 15 20  1  0
 19 20  2  0
 21 22  2  0
 11 23  1  0
 22 23  1  0
 23 24  2  0
 24 25  1  0
  1 26  1  0
 21 26  1  0
 25 26  2  0
 27 28  1  0
 28 29  1  0
 30  5  1  1
 29 30  1  0
 31 10  1  6
 30 31  1  0
 27 32  1  0
 31 32  1  0
M  END
