x3115-x1351
     RDKit          3D

 43 47  0  0  0  0  0  0  0  0999 V2000
    6.8590   -1.9070   22.0690 C   0  0  2  0  0  0  0  0  0  0  0  0
    6.7950   -5.1150   20.4280 C   0  0  0  0  0  0  0  0  0  0  0  0
    4.8570   -2.9780   20.7540 O   0  0  0  0  0  0  0  0  0  0  0  0
    7.4830    1.6370   23.2030 N   0  0  0  0  0  0  0  0  0  0  0  0
    8.8090    0.5440   21.6150 O   0  0  0  0  0  0  0  0  0  0  0  0
    5.9380   -3.0130   21.3980 C   0  0  0  0  0  0  0  0  0  0  0  0
    8.5380    5.1020   23.0240 O   0  0  0  0  0  0  0  0  0  0  0  0
    6.5670   -0.3630   21.9080 C   0  0  1  0  0  0  0  0  0  0  0  0
    7.7360    0.6050   22.2100 C   0  0  0  0  0  0  0  0  0  0  0  0
    8.3730    2.6880   23.4230 C   0  0  0  0  0  0  0  0  0  0  0  0
    7.9810    3.8920   22.5010 C   0  0  0  0  0  0  0  0  0  0  0  0
    8.2670    6.2010   22.2580 C   0  0  0  0  0  0  0  0  0  0  0  0
   12.4170   -1.7610   23.8830 C   0  0  0  0  0  0  0  0  0  0  0  0
   13.3900   -2.5320   23.3010 C   0  0  0  0  0  0  0  0  0  0  0  0
   13.0150   -2.7830   24.8920 C   0  0  0  0  0  0  0  0  0  0  0  0
   12.9350   -0.3510   24.0130 C   0  0  0  0  0  0  0  0  0  0  0  0
    5.3930   -2.4170   25.0280 N   0  0  0  0  0  0  0  0  0  0  0  0
    6.6720   -3.2210   26.7690 O   0  0  0  0  0  0  0  0  0  0  0  0
    6.0680   -2.2970   26.2590 C   0  0  0  0  0  0  0  0  0  0  0  0
    6.3870    0.2340   18.0190 N   0  0  0  0  0  0  0  0  0  0  0  0
    5.2300    0.9600   17.9540 C   0  0  0  0  0  0  0  0  0  0  0  0
    4.4570    1.2780   19.0690 C   0  0  0  0  0  0  0  0  0  0  0  0
    4.8250    0.8740   20.3600 C   0  0  0  0  0  0  0  0  0  0  0  0
    5.9820    0.1390   20.5710 C   0  0  0  0  0  0  0  0  0  0  0  0
    6.7340   -0.1690   19.4110 C   0  0  0  0  0  0  0  0  0  0  0  0
    9.3840   -2.1050   21.6200 C   0  0  0  0  0  0  0  0  0  0  0  0
   10.7130   -2.0790   22.0300 C   0  0  0  0  0  0  0  0  0  0  0  0
   11.0060   -1.8330   23.3550 C   0  0  0  0  0  0  0  0  0  0  0  0
    9.9710   -1.6310   24.2160 C   0  0  0  0  0  0  0  0  0  0  0  0
    8.6430   -1.6530   23.8080 C   0  0  0  0  0  0  0  0  0  0  0  0
    8.3390   -1.8980   22.4490 C   0  0  0  0  0  0  0  0  0  0  0  0
    6.5050   -4.3540   21.7180 C   0  0  2  0  0  0  0  0  0  0  0  0
    7.6110   -3.9690   22.7350 C   0  0  0  0  0  0  0  0  0  0  0  0
    7.0370   -2.8330   23.3320 C   0  0  2  0  0  0  0  0  0  0  0  0
    5.9460   -3.2770   24.0750 C   0  0  2  0  0  0  0  0  0  0  0  0
    4.9150   -3.8100   23.2840 C   0  0  0  0  0  0  0  0  0  0  0  0
    5.3400   -4.9280   22.5280 C   0  0  0  0  0  0  0  0  0  0  0  0
    6.6660   -0.7930   28.1540 C   0  0  0  0  0  0  0  0  0  0  0  0
    6.6520    0.4380   28.8600 C   0  0  0  0  0  0  0  0  0  0  0  0
    5.9240    1.4860   28.2630 C   0  0  0  0  0  0  0  0  0  0  0  0
    5.2670    1.2910   27.0500 C   0  0  0  0  0  0  0  0  0  0  0  0
    5.3060    0.0780   26.3960 C   0  0  0  0  0  0  0  0  0  0  0  0
    6.0050   -0.9860   26.9300 C   0  0  0  0  0  0  0  0  0  0  0  0
  1  6  1  0
  3  6  2  0
  1  8  1  0
  4  9  1  0
  5  9  2  0
  8  9  1  6
  4 10  1  0
  7 11  1  0
 10 11  1  0
  7 12  1  0
 13 14  1  0
 13 15  1  0
 13 16  1  0
 17 19  1  0
 18 19  2  0
 20 21  2  0
 21 22  1  0
 22 23  2  0
  8 24  1  0
 23 24  1  0
 20 25  1  0
 24 25  2  0
 26 27  2  0
 13 28  1  0
 27 28  1  0
 28 29  2  0
 29 30  1  0
  1 31  1  6
 26 31  1  0
 30 31  2  0
 32  2  1  6
  6 32  1  0
 32 33  1  0
  1 34  1  0
 34 33  1  6
 35 17  1  6
 34 35  1  0
 35 36  1  0
 32 37  1  0
 36 37  1  0
 38 39  2  0
 39 40  1  0
 40 41  2  0
 41 42  1  0
 19 43  1  0
 38 43  1  0
 42 43  2  0
M  END
