x3117-x1358
     RDKit          3D

 46 51  0  0  0  0  0  0  0  0999 V2000
    7.0040   -1.8630   22.0300 C   0  0  2  0  0  0  0  0  0  0  0  0
    6.8200   -5.1670   20.4070 C   0  0  0  0  0  0  0  0  0  0  0  0
    4.8400   -2.9680   20.9850 O   0  0  0  0  0  0  0  0  0  0  0  0
    7.5040    1.9870   22.6550 N   0  0  0  0  0  0  0  0  0  0  0  0
    8.9910    0.4420   21.6550 O   0  0  0  0  0  0  0  0  0  0  0  0
    6.0170   -3.0270   21.4860 C   0  0  0  0  0  0  0  0  0  0  0  0
    6.6740   -0.3570   21.8390 C   0  0  1  0  0  0  0  0  0  0  0  0
    7.8400    0.6490   22.0270 C   0  0  0  0  0  0  0  0  0  0  0  0
   12.6280   -1.9070   23.8590 C   0  0  0  0  0  0  0  0  0  0  0  0
   13.0030   -0.6620   24.2520 C   0  0  0  0  0  0  0  0  0  0  0  0
   13.4860   -2.2520   22.8930 C   0  0  0  0  0  0  0  0  0  0  0  0
   12.8750   -2.8630   25.0350 C   0  0  0  0  0  0  0  0  0  0  0  0
    6.5110   -2.5010   26.1500 N   0  0  0  0  0  0  0  0  0  0  0  0
    5.3880   -0.1660   25.4700 O   0  0  0  0  0  0  0  0  0  0  0  0
    4.2840   -3.0850   25.7490 O   0  0  0  0  0  0  0  0  0  0  0  0
    5.4600   -3.0200   25.4220 C   0  0  0  0  0  0  0  0  0  0  0  0
    6.3530    0.1690   17.9920 N   0  0  0  0  0  0  0  0  0  0  0  0
    5.1540    1.0120   17.8780 C   0  0  0  0  0  0  0  0  0  0  0  0
    4.3640    1.4310   19.1260 C   0  0  0  0  0  0  0  0  0  0  0  0
    4.8230    0.9840   20.4980 C   0  0  0  0  0  0  0  0  0  0  0  0
    6.0970    0.1110   20.5190 C   0  0  0  0  0  0  0  0  0  0  0  0
    6.8060   -0.2600   19.2140 C   0  0  0  0  0  0  0  0  0  0  0  0
    9.5100    5.2980   24.2590 O   0  0  0  0  0  0  0  0  0  0  0  0
   10.3700    4.1900   24.0240 C   0  0  0  0  0  0  0  0  0  0  0  0
    9.5780    2.8800   23.7670 C   0  0  0  0  0  0  0  0  0  0  0  0
    8.5080    3.0630   22.6750 C   0  0  0  0  0  0  0  0  0  0  0  0
    7.8240    4.2780   22.7820 C   0  0  0  0  0  0  0  0  0  0  0  0
    8.6560    5.5310   23.1410 C   0  0  0  0  0  0  0  0  0  0  0  0
    9.4470   -2.2400   21.5770 C   0  0  0  0  0  0  0  0  0  0  0  0
   10.8840   -2.2670   21.9950 C   0  0  0  0  0  0  0  0  0  0  0  0
   11.2200   -1.8890   23.4040 C   0  0  0  0  0  0  0  0  0  0  0  0
   10.1480   -1.5350   24.1840 C   0  0  0  0  0  0  0  0  0  0  0  0
    8.8320   -1.5250   23.7210 C   0  0  0  0  0  0  0  0  0  0  0  0
    8.4650   -1.8820   22.4090 C   0  0  0  0  0  0  0  0  0  0  0  0
    5.9210   -0.2610   26.7260 C   0  0  0  0  0  0  0  0  0  0  0  0
    6.5140   -1.4810   27.1030 C   0  0  0  0  0  0  0  0  0  0  0  0
    7.0620   -1.6080   28.3790 C   0  0  0  0  0  0  0  0  0  0  0  0
    6.9980   -0.4630   29.2590 C   0  0  0  0  0  0  0  0  0  0  0  0
    6.4170    0.7520   28.9030 C   0  0  0  0  0  0  0  0  0  0  0  0
    5.8730    0.8340   27.6080 C   0  0  0  0  0  0  0  0  0  0  0  0
    6.5450   -4.4110   21.7030 C   0  0  2  0  0  0  0  0  0  0  0  0
    7.6930   -3.9370   22.6320 C   0  0  0  0  0  0  0  0  0  0  0  0
    6.9750   -2.7710   23.3470 C   0  0  2  0  0  0  0  0  0  0  0  0
    5.9050   -3.5690   24.0890 C   0  0  2  0  0  0  0  0  0  0  0  0
    4.9190   -4.2350   23.3730 C   0  0  0  0  0  0  0  0  0  0  0  0
    5.4230   -5.1260   22.4420 C   0  0  0  0  0  0  0  0  0  0  0  0
  1  6  1  0
  3  6  2  0
  1  7  1  0
  4  8  1  0
  5  8  2  0
  7  8  1  6
  9 10  1  0
  9 11  1  0
  9 12  1  0
 13 16  1  0
 15 16  2  0
 17 18  2  0
 18 19  1  0
 19 20  2  0
  7 21  1  0
 20 21  1  0
 17 22  1  0
 21 22  2  0
 23 24  1  0
 24 25  1  0
  4 26  1  0
 25 26  1  0
 26 27  1  0
 23 28  1  0
 27 28  1  0
 29 30  2  0
  9 31  1  0
 30 31  1  0
 31 32  2  0
 32 33  1  0
  1 34  1  6
 29 34  1  0
 33 34  2  0
 14 35  1  0
 13 36  1  0
 35 36  2  0
 36 37  1  0
 37 38  2  0
 38 39  1  0
 35 40  1  0
 39 40  2  0
 41  2  1  6
  6 41  1  0
 41 42  1  0
  1 43  1  0
 43 42  1  6
 44 16  1  1
 43 44  1  0
 44 45  1  0
 41 46  1  0
 45 46  1  0
M  END
