x3115-x1380-x2776-x2703
     RDKit          3D

 50 55  0  0  0  0  0  0  0  0999 V2000
    6.9590   -1.8750   22.1430 C   0  0  2  0  0  0  0  0  0  0  0  0
    7.1550   -5.2660   20.7580 C   0  0  0  0  0  0  0  0  0  0  0  0
    4.9210   -3.0850   20.9750 O   0  0  0  0  0  0  0  0  0  0  0  0
    7.5480    1.8180   22.9170 N   0  0  0  0  0  0  0  0  0  0  0  0
    8.9280    0.5450   21.5350 O   0  0  0  0  0  0  0  0  0  0  0  0
    6.0520   -3.0500   21.5700 C   0  0  0  0  0  0  0  0  0  0  0  0
    6.6530   -0.3060   21.8910 C   0  0  1  0  0  0  0  0  0  0  0  0
    7.8480    0.7170   22.0990 C   0  0  0  0  0  0  0  0  0  0  0  0
    8.2940    6.8030   22.3740 C   0  0  0  0  0  0  0  0  0  0  0  0
   12.4370   -1.9040   24.1610 C   0  0  0  0  0  0  0  0  0  0  0  0
   13.4290   -2.0400   23.0140 C   0  0  0  0  0  0  0  0  0  0  0  0
   12.8480   -2.9780   25.1860 C   0  0  0  0  0  0  0  0  0  0  0  0
   12.5920   -0.5520   24.8480 C   0  0  0  0  0  0  0  0  0  0  0  0
   10.7710    6.4560   23.5710 O   0  0  0  0  0  0  0  0  0  0  0  0
   10.2210    1.5820   24.0840 C   0  0  0  0  0  0  0  0  0  0  0  0
   11.7640    6.4650   24.6170 C   0  0  0  0  0  0  0  0  0  0  0  0
    9.3490    0.9540   25.1730 C   0  0  0  0  0  0  0  0  0  0  0  0
    6.5610    4.5090   21.9940 C   0  0  0  0  0  0  0  0  0  0  0  0
    4.7360   -2.0200   25.7550 O   0  0  0  0  0  0  0  0  0  0  0  0
    5.5800   -2.8810   25.5800 C   0  0  0  0  0  0  0  0  0  0  0  0
    6.3460    0.2580   17.9770 N   0  0  0  0  0  0  0  0  0  0  0  0
    5.2020    1.0820   17.9020 C   0  0  0  0  0  0  0  0  0  0  0  0
    4.4460    1.4910   19.1160 C   0  0  0  0  0  0  0  0  0  0  0  0
    4.8890    1.0520   20.3480 C   0  0  0  0  0  0  0  0  0  0  0  0
    6.1260    0.1630   20.5240 C   0  0  0  0  0  0  0  0  0  0  0  0
    6.7700   -0.1800   19.3400 C   0  0  0  0  0  0  0  0  0  0  0  0
    9.5070   -2.1270   21.7090 C   0  0  0  0  0  0  0  0  0  0  0  0
   10.8310   -2.1320   22.2140 C   0  0  0  0  0  0  0  0  0  0  0  0
   11.0350   -1.9270   23.5750 C   0  0  0  0  0  0  0  0  0  0  0  0
    9.9450   -1.7300   24.3710 C   0  0  0  0  0  0  0  0  0  0  0  0
    8.6210   -1.7100   23.9320 C   0  0  0  0  0  0  0  0  0  0  0  0
    8.4460   -1.9160   22.5600 C   0  0  0  0  0  0  0  0  0  0  0  0
    9.6440    2.8960   23.6240 C   0  0  0  0  0  0  0  0  0  0  0  0
   10.4510    4.0490   23.7930 C   0  0  0  0  0  0  0  0  0  0  0  0
   10.0200    5.3070   23.4080 C   0  0  0  0  0  0  0  0  0  0  0  0
    8.7590    5.4390   22.8170 C   0  0  0  0  0  0  0  0  0  0  0  0
    7.9220    4.3070   22.6340 C   0  0  0  0  0  0  0  0  0  0  0  0
    8.3630    3.0210   23.0490 C   0  0  0  0  0  0  0  0  0  0  0  0
    6.6480   -4.3940   21.8750 C   0  0  1  0  0  0  0  0  0  0  0  0
    5.5900   -5.2440   22.5520 C   0  0  0  0  0  0  0  0  0  0  0  0
    5.3380   -4.8110   23.8370 C   0  0  0  0  0  0  0  0  0  0  0  0
    5.6270   -3.3270   24.1110 C   0  0  2  0  0  0  0  0  0  0  0  0
    6.8960   -2.7810   23.4550 C   0  0  1  0  0  0  0  0  0  0  0  0
    7.6390   -3.9040   22.9380 C   0  0  0  0  0  0  0  0  0  0  0  0
    7.6700   -3.9640   26.4050 C   0  0  0  0  0  0  0  0  0  0  0  0
    8.1120   -4.8750   27.3970 C   0  0  0  0  0  0  0  0  0  0  0  0
    7.2700   -5.2860   28.4340 C   0  0  0  0  0  0  0  0  0  0  0  0
    6.0110   -4.7250   28.5250 C   0  0  0  0  0  0  0  0  0  0  0  0
    5.8800   -3.4330   28.0330 C   0  0  0  0  0  0  0  0  0  0  0  0
    6.3350   -3.3580   26.6560 N   0  0  0  0  0  0  0  0  0  0  0  0
  1  6  1  0
  3  6  2  0
  1  7  1  0
  4  8  1  0
  5  8  2  0
  7  8  1  6
 10 11  1  0
 10 12  1  0
 10 13  1  0
 14 16  1  0
 15 17  1  0
 19 20  2  0
 21 22  2  0
 22 23  1  0
 23 24  2  0
  7 25  1  0
 24 25  1  0
 21 26  1  0
 25 26  2  0
 27 28  2  0
 10 29  1  0
 28 29  1  0
 29 30  2  0
 30 31  1  0
  1 32  1  6
 27 32  1  0
 31 32  2  0
 15 33  1  0
 33 34  2  0
 14 35  1  0
 34 35  1  0
  9 36  1  0
 35 36  2  0
 18 37  1  0
 36 37  1  0
  4 38  1  0
 33 38  1  0
 37 38  2  0
 39  2  1  6
  6 39  1  0
 39 40  1  0
 40 41  1  0
 42 20  1  1
 41 42  1  0
  1 43  1  0
 42 43  1  0
 39 44  1  0
 43 44  1  6
 45 46  1  0
 46 47  1  0
 47 48  1  0
 48 49  1  0
 20 50  1  0
 45 50  1  0
 49 50  1  0
M  END
