x3110-x0786
     RDKit          3D

 46 49  0  0  0  0  0  0  0  0999 V2000
    8.0480    1.0090   23.2060 N   0  0  0  0  0  0  0  0  0  0  0  0
   13.3570    5.1460   22.8970 C   0  0  0  0  0  0  0  0  0  0  0  0
   12.0070    3.2150   22.4700 O   0  0  0  0  0  0  0  0  0  0  0  0
   12.3680    4.5020   21.9520 C   0  0  0  0  0  0  0  0  0  0  0  0
    7.0290   -1.7530   21.6230 N   0  0  0  0  0  0  0  0  0  0  0  0
   10.8230    4.2410   24.1180 O   0  0  0  0  0  0  0  0  0  0  0  0
   11.0550    3.2590   23.4310 C   0  0  0  0  0  0  0  0  0  0  0  0
    8.5920    1.3480   21.0430 O   0  0  0  0  0  0  0  0  0  0  0  0
   10.3240    1.9410   23.5410 C   0  0  0  0  0  0  0  0  0  0  0  0
    4.8480   -2.9510   20.9270 O   0  0  0  0  0  0  0  0  0  0  0  0
    8.8220    2.1540   23.6770 C   0  0  0  0  0  0  0  0  0  0  0  0
    7.8650    0.7510   21.8560 C   0  0  0  0  0  0  0  0  0  0  0  0
    6.6880   -0.2660   21.4690 C   0  0  1  0  0  0  0  0  0  0  0  0
    6.0980   -2.9000   21.3220 C   0  0  0  0  0  0  0  0  0  0  0  0
    6.6210   -4.2820   21.5550 C   0  0  1  0  0  0  0  0  0  0  0  0
    8.0610   -4.5320   21.0780 C   0  0  0  0  0  0  0  0  0  0  0  0
   12.3140   -1.8930   24.1990 C   0  0  0  0  0  0  0  0  0  0  0  0
   12.4680   -0.5790   24.9660 C   0  0  0  0  0  0  0  0  0  0  0  0
   13.3460   -1.8800   23.0660 C   0  0  0  0  0  0  0  0  0  0  0  0
   12.7190   -3.0120   25.1700 C   0  0  0  0  0  0  0  0  0  0  0  0
    3.8200   -8.0790   24.8500 O   0  0  0  0  0  0  0  0  0  0  0  0
    3.4200   -7.0500   24.3360 C   0  0  0  0  0  0  0  0  0  0  0  0
    6.3350    0.4320   17.7680 N   0  0  0  0  0  0  0  0  0  0  0  0
    5.2300    1.1950   17.7940 C   0  0  0  0  0  0  0  0  0  0  0  0
    4.5440    1.5040   18.9450 C   0  0  0  0  0  0  0  0  0  0  0  0
    5.0110    1.0160   20.1610 C   0  0  0  0  0  0  0  0  0  0  0  0
    6.1600    0.2330   20.1560 C   0  0  0  0  0  0  0  0  0  0  0  0
    6.7740   -0.0320   18.9440 C   0  0  0  0  0  0  0  0  0  0  0  0
    9.4620   -1.4470   21.6810 C   0  0  0  0  0  0  0  0  0  0  0  0
   10.7480   -1.4670   22.2490 C   0  0  0  0  0  0  0  0  0  0  0  0
   10.9050   -1.8980   23.5700 C   0  0  0  0  0  0  0  0  0  0  0  0
    9.7690   -2.3040   24.2770 C   0  0  0  0  0  0  0  0  0  0  0  0
    8.4940   -2.2780   23.6750 C   0  0  0  0  0  0  0  0  0  0  0  0
    8.3030   -1.8430   22.3450 C   0  0  0  0  0  0  0  0  0  0  0  0
    5.9110   -4.6360   22.8490 C   0  0  0  0  0  0  0  0  0  0  0  0
    5.0270   -5.6900   23.0070 C   0  0  0  0  0  0  0  0  0  0  0  0
    4.3690   -5.9290   24.2160 C   0  0  0  0  0  0  0  0  0  0  0  0
    4.5710   -5.1200   25.3530 C   0  0  0  0  0  0  0  0  0  0  0  0
    5.4640   -4.0180   25.2990 C   0  0  0  0  0  0  0  0  0  0  0  0
    6.1490   -3.7950   23.9600 C   0  0  0  0  0  0  0  0  0  0  0  0
    1.5750   -5.5810   23.4250 C   0  0  0  0  0  0  0  0  0  0  0  0
    0.5360   -5.0220   24.4300 C   0  0  0  0  0  0  0  0  0  0  0  0
   -0.7560   -6.2220   24.2890 S   0  0  0  0  0  0  0  0  0  0  0  0
    0.0750   -7.5850   24.8080 C   0  0  0  0  0  0  0  0  0  0  0  0
    1.1300   -7.9740   23.9700 C   0  0  0  0  0  0  0  0  0  0  0  0
    2.1170   -6.8600   23.8660 N   0  0  0  0  0  0  0  0  0  0  0  0
  2  4  1  0
  3  4  1  0
  3  7  1  0
  6  7  2  0
  7  9  1  0
  1 11  1  0
  9 11  1  0
  1 12  1  0
  8 12  2  0
  5 13  1  0
 13 12  1  6
  5 14  1  0
 10 14  2  0
 14 15  1  0
 15 16  1  1
 17 18  1  0
 17 19  1  0
 17 20  1  0
 21 22  2  0
 23 24  2  0
 24 25  1  0
 25 26  2  0
 13 27  1  0
 26 27  1  0
 23 28  1  0
 27 28  2  0
 29 30  2  0
 17 31  1  0
 30 31  1  0
 31 32  2  0
 32 33  1  0
  5 34  1  0
 29 34  1  0
 33 34  2  0
 15 35  1  0
 35 36  2  0
 22 37  1  0
 36 37  1  0
 37 38  2  0
 38 39  1  0
 35 40  1  0
 39 40  2  0
 41 42  1  0
 42 43  1  0
 43 44  1  0
 44 45  1  0
 22 46  1  0
 41 46  1  0
 45 46  1  0
M  END
