x3117-x3110-x0771-x1308
     RDKit          3D

 58 64  0  0  0  0  0  0  0  0999 V2000
    7.9140    1.5030   23.3220 N   0  0  0  0  0  0  0  0  0  0  0  0
   13.4370    5.0490   22.8280 C   0  0  0  0  0  0  0  0  0  0  0  0
   11.9980    3.3080   23.4010 O   0  0  0  0  0  0  0  0  0  0  0  0
   12.2530    4.1210   22.4950 C   0  0  0  0  0  0  0  0  0  0  0  0
    6.8560   -1.6460   21.9750 C   0  0  2  0  0  0  0  0  0  0  0  0
   10.8070    3.0650   23.4290 C   0  0  0  0  0  0  0  0  0  0  0  0
    8.5570    1.2730   20.9680 O   0  0  0  0  0  0  0  0  0  0  0  0
   10.0970    1.8110   22.7780 C   0  0  0  0  0  0  0  0  0  0  0  0
    4.8170   -2.9170   20.8480 O   0  0  0  0  0  0  0  0  0  0  0  0
    7.6920    0.8960   22.0310 C   0  0  0  0  0  0  0  0  0  0  0  0
    6.5090   -0.1000   21.6620 C   0  0  1  0  0  0  0  0  0  0  0  0
    6.0480   -2.8550   21.2200 C   0  0  0  0  0  0  0  0  0  0  0  0
    6.7240   -4.1710   21.1110 C   0  0  1  0  0  0  0  0  0  0  0  0
    8.1980   -3.9900   20.7890 C   0  0  0  0  0  0  0  0  0  0  0  0
   12.4540   -1.8660   24.1820 C   0  0  0  0  0  0  0  0  0  0  0  0
   12.5720   -0.5600   24.9900 C   0  0  0  0  0  0  0  0  0  0  0  0
   13.4430   -1.8620   23.0590 C   0  0  0  0  0  0  0  0  0  0  0  0
   12.8280   -3.0080   25.1410 C   0  0  0  0  0  0  0  0  0  0  0  0
    0.2650   -1.6140   26.1370 C   0  0  0  0  0  0  0  0  0  0  0  0
    4.7840   -6.6740   26.5290 O   0  0  0  0  0  0  0  0  0  0  0  0
    5.9830   -4.5670   27.2820 O   0  0  0  0  0  0  0  0  0  0  0  0
    2.0430   -6.3330   25.0970 C   0  0  0  0  0  0  0  0  0  0  0  0
    5.0080   -5.2460   26.4790 S   0  0  0  0  0  0  0  0  0  0  0  0
    6.2700   -2.1430   23.1450 C   0  0  0  0  0  0  0  0  0  0  0  0
    0.7330    0.0530   26.4450 Cl  0  0  0  0  0  0  0  0  0  0  0  0
    6.7930   -5.8700   25.7420 O   0  0  0  0  0  0  0  0  0  0  0  0
    4.8320   -7.0580   24.6650 O   0  0  0  0  0  0  0  0  0  0  0  0
    5.8320   -6.0020   24.6490 S   0  0  0  0  0  0  0  0  0  0  0  0
    6.3570    0.4490   17.7780 N   0  0  0  0  0  0  0  0  0  0  0  0
    5.2590    1.2930   17.7980 C   0  0  0  0  0  0  0  0  0  0  0  0
    4.5760    1.6780   18.9350 C   0  0  0  0  0  0  0  0  0  0  0  0
    5.0090    1.1980   20.1700 C   0  0  0  0  0  0  0  0  0  0  0  0
    6.1150    0.3400   20.2640 C   0  0  0  0  0  0  0  0  0  0  0  0
    6.7870   -0.0420   19.0980 C   0  0  0  0  0  0  0  0  0  0  0  0
    9.4370   -1.6150   21.7440 C   0  0  0  0  0  0  0  0  0  0  0  0
   10.7360   -1.6700   22.2860 C   0  0  0  0  0  0  0  0  0  0  0  0
   11.0390   -1.8550   23.6560 C   0  0  0  0  0  0  0  0  0  0  0  0
    9.9860   -2.0040   24.5060 C   0  0  0  0  0  0  0  0  0  0  0  0
    8.5450   -1.9620   24.0130 C   0  0  0  0  0  0  0  0  0  0  0  0
    8.3380   -1.7410   22.4980 C   0  0  0  0  0  0  0  0  0  0  0  0
    9.2600    4.5930   24.6480 O   0  0  0  0  0  0  0  0  0  0  0  0
    9.6410    3.6050   23.9530 C   0  0  0  0  0  0  0  0  0  0  0  0
    8.9050    2.5580   23.1610 C   0  0  2  0  0  0  0  0  0  0  0  0
    8.1990    3.3210   22.0720 C   0  0  0  0  0  0  0  0  0  0  0  0
    7.8410    4.7910   22.5350 C   0  0  0  0  0  0  0  0  0  0  0  0
    8.5820    5.4720   23.7250 C   0  0  0  0  0  0  0  0  0  0  0  0
    1.4920   -2.5110   26.1660 C   0  0  0  0  0  0  0  0  0  0  0  0
    1.2310   -3.9110   25.6190 C   0  0  0  0  0  0  0  0  0  0  0  0
    2.3480   -4.9560   25.6240 C   0  0  0  0  0  0  0  0  0  0  0  0
    3.6300   -4.3630   26.2310 C   0  0  0  0  0  0  0  0  0  0  0  0
    3.7420   -3.0470   26.6700 C   0  0  0  0  0  0  0  0  0  0  0  0
    2.7260   -2.1320   26.6480 C   0  0  0  0  0  0  0  0  0  0  0  0
    6.4380   -4.6680   22.4760 N   0  0  0  0  0  0  0  0  0  0  0  0
    5.1870   -5.2870   22.4690 C   0  0  0  0  0  0  0  0  0  0  0  0
    4.2990   -4.9100   23.4940 C   0  0  0  0  0  0  0  0  0  0  0  0
    5.0060   -4.6320   24.6560 C   0  0  1  0  0  0  0  0  0  0  0  0
    6.1180   -3.7900   24.8070 C   0  0  0  0  0  0  0  0  0  0  0  0
    6.6920   -3.5950   23.5080 C   0  0  2  0  0  0  0  0  0  0  0  0
  2  4  1  0
  3  4  1  0
  3  6  1  0
  6  8  1  0
  1 10  1  0
  7 10  2  0
  5 11  1  0
 11 10  1  6
  5 12  1  0
  9 12  2  0
 12 13  1  0
 13 14  1  1
 15 16  1  0
 15 17  1  0
 15 18  1  0
 20 23  2  0
 21 23  2  0
  5 24  1  0
 19 25  1  0
 26 28  2  0
 27 28  2  0
 29 30  2  0
 30 31  1  0
 31 32  2  0
 11 33  1  0
 32 33  1  0
 29 34  1  0
 33 34  2  0
 35 36  2  0
 15 37  1  0
 36 37  1  0
 37 38  2  0
 38 39  1  0
  5 40  1  1
 35 40  1  0
 39 40  2  0
  6 42  2  0
 41 42  1  0
 43  1  1  1
  8 43  1  0
 42 43  1  0
 43 44  1  0
 44 45  1  0
 41 46  1  0
 45 46  1  0
 19 47  1  0
 47 48  2  0
 22 49  1  0
 48 49  1  0
 23 50  1  0
 49 50  2  0
 50 51  1  0
 47 52  1  0
 51 52  2  0
 13 53  1  0
 53 54  1  0
 54 55  1  0
 23 56  1  0
 56 28  1  6
 56 55  1  0
 56 57  1  0
 58 24  1  6
 53 58  1  0
 57 58  1  0
M  END
