x3110-x0734-x0426
     RDKit          3D

 58 62  0  0  0  0  0  0  0  0999 V2000
    7.9910    1.0910   23.2690 N   0  0  0  0  0  0  0  0  0  0  0  0
   13.5670    5.0920   22.4960 C   0  0  0  0  0  0  0  0  0  0  0  0
   11.9720    3.2810   22.4910 O   0  0  0  0  0  0  0  0  0  0  0  0
   12.2770    4.3760   22.0030 C   0  0  0  0  0  0  0  0  0  0  0  0
    6.9480   -1.5580   21.6330 N   0  0  0  0  0  0  0  0  0  0  0  0
   11.0090    4.5130   24.2240 O   0  0  0  0  0  0  0  0  0  0  0  0
   11.1640    3.3720   23.4000 C   0  0  0  0  0  0  0  0  0  0  0  0
    8.3460    1.2750   20.9310 O   0  0  0  0  0  0  0  0  0  0  0  0
   10.3030    2.0590   23.5490 C   0  0  0  0  0  0  0  0  0  0  0  0
    4.9230   -3.0410   20.9080 O   0  0  0  0  0  0  0  0  0  0  0  0
    8.8130    2.2870   23.6710 C   0  0  0  0  0  0  0  0  0  0  0  0
    7.6600    0.7650   21.8420 C   0  0  0  0  0  0  0  0  0  0  0  0
    6.5290   -0.0940   21.5770 C   0  0  1  0  0  0  0  0  0  0  0  0
    6.1910   -2.8040   21.2890 C   0  0  0  0  0  0  0  0  0  0  0  0
    8.3540   -4.4360   20.9130 C   0  0  0  0  0  0  0  0  0  0  0  0
   12.1840   -1.8740   24.3150 C   0  0  0  0  0  0  0  0  0  0  0  0
   12.3650   -0.6970   25.0210 C   0  0  0  0  0  0  0  0  0  0  0  0
   13.3420   -1.9330   23.3100 C   0  0  0  0  0  0  0  0  0  0  0  0
   12.1670   -3.0170   24.9930 C   0  0  0  0  0  0  0  0  0  0  0  0
    2.3480    1.7710   23.8200 C   0  0  0  0  0  0  0  0  0  0  0  0
    2.2420    0.5460   23.7450 O   0  0  0  0  0  0  0  0  0  0  0  0
    3.4170    2.4580   23.2660 N   0  0  0  0  0  0  0  0  0  0  0  0
    4.2900    1.8780   22.3630 C   0  0  0  0  0  0  0  0  0  0  0  0
    3.6840    1.3570   21.0640 C   0  0  0  0  0  0  0  0  0  0  0  0
    2.8230    4.2980   25.2130 F   0  0  0  0  0  0  0  0  0  0  0  0
    5.1200   -5.0990   26.8400 N   0  0  0  0  0  0  0  0  0  0  0  0
    4.4370   -5.8410   26.1130 O   0  0  0  0  0  0  0  0  0  0  0  0
    4.7510   -3.9610   27.1560 O   0  0  0  0  0  0  0  0  0  0  0  0
    6.3780    0.6770   17.7870 N   0  0  0  0  0  0  0  0  0  0  0  0
    5.2080    1.3040   17.7000 C   0  0  0  0  0  0  0  0  0  0  0  0
    4.2720    1.5310   18.8620 C   0  0  0  0  0  0  0  0  0  0  0  0
    4.6030    1.1050   20.1090 C   0  0  0  0  0  0  0  0  0  0  0  0
    5.9570    0.4090   20.2530 C   0  0  0  0  0  0  0  0  0  0  0  0
    6.7800    0.2330   18.9790 C   0  0  0  0  0  0  0  0  0  0  0  0
    9.3110   -1.8650   21.6630 C   0  0  0  0  0  0  0  0  0  0  0  0
   10.6940   -1.9580   22.2590 C   0  0  0  0  0  0  0  0  0  0  0  0
   10.8240   -1.7980   23.6220 C   0  0  0  0  0  0  0  0  0  0  0  0
    9.6590   -1.5590   24.3700 C   0  0  0  0  0  0  0  0  0  0  0  0
    8.3690   -1.4750   23.7780 C   0  0  0  0  0  0  0  0  0  0  0  0
    8.1870   -1.6310   22.3880 C   0  0  0  0  0  0  0  0  0  0  0  0
    1.5860    3.7830   25.1910 C   0  0  0  0  0  0  0  0  0  0  0  0
    1.3080    2.5720   24.5350 C   0  0  0  0  0  0  0  0  0  0  0  0
   -0.0770    2.0850   24.5640 C   0  0  0  0  0  0  0  0  0  0  0  0
   -1.1370    2.7430   25.2000 C   0  0  0  0  0  0  0  0  0  0  0  0
   -0.7650    3.9340   25.8220 C   0  0  0  0  0  0  0  0  0  0  0  0
    0.5360    4.4520   25.8310 C   0  0  0  0  0  0  0  0  0  0  0  0
    6.5470   -5.2700   26.6760 C   0  0  0  0  0  0  0  0  0  0  0  0
    7.0900   -5.1040   25.3050 C   0  0  0  0  0  0  0  0  0  0  0  0
    8.6160   -5.2940   25.2060 C   0  0  0  0  0  0  0  0  0  0  0  0
    9.3640   -5.5990   26.3400 C   0  0  0  0  0  0  0  0  0  0  0  0
    8.7420   -5.7380   27.5940 C   0  0  0  0  0  0  0  0  0  0  0  0
    7.3460   -5.5790   27.7840 C   0  0  0  0  0  0  0  0  0  0  0  0
    7.0270   -4.0240   21.5330 C   0  0  0  0  0  0  0  0  0  0  0  0
    6.0790   -5.2590   21.7540 C   0  0  0  0  0  0  0  0  0  0  0  0
    6.2100   -5.8370   23.1570 C   0  0  0  0  0  0  0  0  0  0  0  0
    6.3340   -4.8060   24.2050 N   0  0  0  0  0  0  0  0  0  0  0  0
    6.5680   -3.4420   23.8400 C   0  0  0  0  0  0  0  0  0  0  0  0
    7.6350   -3.6380   22.8450 C   0  0  0  0  0  0  0  0  0  0  0  0
  2  4  1  0
  3  4  1  0
  3  7  1  0
  6  7  2  0
  7  9  1  0
  1 11  1  0
  9 11  1  0
  1 12  1  0
  8 12  2  0
  5 13  1  0
 13 12  1  6
  5 14  1  0
 10 14  2  0
 16 17  1  0
 16 18  1  0
 16 19  1  0
 20 21  2  0
 20 22  1  0
 22 23  1  0
 23 24  1  0
 26 27  2  0
 26 28  1  0
 29 30  2  0
 30 31  1  0
 24 32  1  0
 31 32  2  0
 13 33  1  0
 32 33  1  0
 29 34  1  0
 33 34  2  0
 35 36  2  0
 16 37  1  0
 36 37  1  0
 37 38  2  0
 38 39  1  0
  5 40  1  0
 35 40  1  0
 39 40  2  0
 25 41  1  0
 20 42  1  0
 41 42  2  0
 42 43  1  0
 43 44  2  0
 44 45  1  0
 41 46  1  0
 45 46  2  0
 26 47  1  0
 47 48  2  0
 48 49  1  0
 49 50  2  0
 50 51  1  0
 47 52  1  0
 51 52  2  0
 53 14  1  0
 15 53  1  0
 53 54  1  0
 54 55  1  0
 48 56  1  0
 55 56  1  0
 56 57  1  0
 53 58  1  0
 57 58  1  0
M  CHG  2  26   1  28  -1
M  END
