x3115-x2540-x2754-x3110
     RDKit          3D

 52 57  0  0  0  0  0  0  0  0999 V2000
    7.8310    1.3470   23.1030 N   0  0  0  0  0  0  0  0  0  0  0  0
   13.3760    5.1610   22.9010 C   0  0  0  0  0  0  0  0  0  0  0  0
   11.9550    3.2850   22.4690 O   0  0  0  0  0  0  0  0  0  0  0  0
   12.4220    4.5250   21.9340 C   0  0  0  0  0  0  0  0  0  0  0  0
    7.0290   -1.6670   21.5370 N   0  0  0  0  0  0  0  0  0  0  0  0
   10.9960    4.2770   24.2890 O   0  0  0  0  0  0  0  0  0  0  0  0
   11.0770    3.3660   23.4920 C   0  0  0  0  0  0  0  0  0  0  0  0
    8.4890    1.2160   20.9760 O   0  0  0  0  0  0  0  0  0  0  0  0
   10.1690    2.1350   23.5240 C   0  0  0  0  0  0  0  0  0  0  0  0
    4.9640   -3.1000   20.9540 O   0  0  0  0  0  0  0  0  0  0  0  0
    8.6740    2.5090   23.4550 C   0  0  1  0  0  0  0  0  0  0  0  0
    7.6880    0.7950   21.8460 C   0  0  0  0  0  0  0  0  0  0  0  0
    6.5370   -0.2440   21.4870 C   0  0  1  0  0  0  0  0  0  0  0  0
    6.2420   -2.9290   21.3510 C   0  0  0  0  0  0  0  0  0  0  0  0
    8.1320   -4.7050   21.1640 C   0  0  0  0  0  0  0  0  0  0  0  0
   12.5850   -2.0450   24.7880 C   0  0  1  0  0  0  0  0  0  0  0  0
   11.9640   -0.8040   24.8400 C   0  0  0  0  0  0  0  0  0  0  0  0
   13.3710   -2.1590   23.5010 C   0  0  0  0  0  0  0  0  0  0  0  0
   11.7520   -3.2520   25.2370 C   0  0  0  0  0  0  0  0  0  0  0  0
    8.5440    4.9490   23.0890 O   0  0  0  0  0  0  0  0  0  0  0  0
    8.4480    3.6640   22.4430 C   0  0  0  0  0  0  0  0  0  0  0  0
    8.1540    6.0340   22.2450 C   0  0  0  0  0  0  0  0  0  0  0  0
    8.2480    3.0440   24.8230 C   0  0  0  0  0  0  0  0  0  0  0  0
   12.1130   -1.3910   23.4620 C   0  0  1  0  0  0  0  0  0  0  0  0
    4.6140   -3.3760   25.2970 C   0  0  0  0  0  0  0  0  0  0  0  0
    3.4010   -3.5460   25.3720 O   0  0  0  0  0  0  0  0  0  0  0  0
    5.4120   -3.0470   26.4340 N   0  0  0  0  0  0  0  0  0  0  0  0
    4.9720   -2.2050   27.3870 C   0  0  0  0  0  0  0  0  0  0  0  0
    6.3470    0.4880   17.7120 N   0  0  0  0  0  0  0  0  0  0  0  0
    5.1800    1.2850   17.7560 C   0  0  0  0  0  0  0  0  0  0  0  0
    4.4630    1.5580   18.9290 C   0  0  0  0  0  0  0  0  0  0  0  0
    4.8970    1.0430   20.1630 C   0  0  0  0  0  0  0  0  0  0  0  0
    6.0460    0.2660   20.1700 C   0  0  0  0  0  0  0  0  0  0  0  0
    6.7570   -0.0030   18.8970 C   0  0  0  0  0  0  0  0  0  0  0  0
    9.5260   -1.7820   21.8300 C   0  0  0  0  0  0  0  0  0  0  0  0
   10.9860   -1.6760   22.4180 C   0  0  0  0  0  0  0  0  0  0  0  0
   10.5320   -1.2310   23.7770 C   0  0  0  0  0  0  0  0  0  0  0  0
    9.2850   -0.9930   24.3270 C   0  0  0  0  0  0  0  0  0  0  0  0
    8.1170   -1.1210   23.6630 C   0  0  0  0  0  0  0  0  0  0  0  0
    8.2370   -1.5260   22.3630 C   0  0  0  0  0  0  0  0  0  0  0  0
    7.0080   -4.2030   21.7410 C   0  0  1  0  0  0  0  0  0  0  0  0
    7.5750   -3.7350   23.1080 C   0  0  0  0  0  0  0  0  0  0  0  0
    6.5850   -2.8540   23.8710 C   0  0  0  0  0  0  0  0  0  0  0  0
    5.2380   -3.5170   23.8810 C   0  0  1  0  0  0  0  0  0  0  0  0
    5.2090   -4.8410   23.3680 C   0  0  0  0  0  0  0  0  0  0  0  0
    5.8320   -5.1550   22.1380 C   0  0  0  0  0  0  0  0  0  0  0  0
    6.9560   -4.7870   27.4340 C   0  0  0  0  0  0  0  0  0  0  0  0
    8.2450   -5.3030   27.6490 C   0  0  0  0  0  0  0  0  0  0  0  0
    9.3850   -4.6750   27.1150 C   0  0  0  0  0  0  0  0  0  0  0  0
    9.2590   -3.5200   26.3570 C   0  0  0  0  0  0  0  0  0  0  0  0
    8.0070   -2.9860   26.1310 C   0  0  0  0  0  0  0  0  0  0  0  0
    6.7210   -3.6190   26.6810 C   0  0  0  0  0  0  0  0  0  0  0  0
  2  4  1  0
  3  4  1  0
  3  7  1  0
  6  7  2  0
  7  9  1  0
 11  1  1  0
  9 11  1  0
  1 12  1  0
  8 12  2  0
  5 13  1  0
 13 12  1  6
  5 14  1  0
 10 14  2  0
 16 17  1  0
 16 18  1  0
 16 19  1  6
 11 21  1  0
 20 21  1  0
 20 22  1  0
 11 23  1  1
 16 24  1  0
 17 24  1  0
 18 24  1  0
 25 26  2  0
 25 27  1  0
 27 28  1  0
 29 30  2  0
 30 31  1  0
 31 32  2  0
 13 33  1  0
 32 33  1  0
 29 34  1  0
 33 34  2  0
 24 36  1  6
 35 36  2  0
 36 37  1  0
 37 38  2  0
 38 39  1  0
  5 40  1  0
 35 40  1  0
 39 40  2  0
 41 14  1  0
 41 15  1  6
 41 42  1  0
 42 43  1  0
 44 25  1  1
 43 44  1  0
 44 45  1  0
 41 46  1  0
 45 46  1  0
 47 48  2  0
 48 49  1  0
 49 50  2  0
 50 51  1  0
 27 52  1  0
 47 52  1  0
 51 52  2  0
M  END
