x3110-x0946
     RDKit          3D

 38 40  0  0  0  0  0  0  0  0999 V2000
    8.0350    0.9940   23.4760 N   0  0  0  0  0  0  0  0  0  0  0  0
   13.4140    5.2460   23.3000 C   0  0  0  0  0  0  0  0  0  0  0  0
   13.0110    4.3260   22.2400 C   0  0  0  0  0  0  0  0  0  0  0  0
    7.0500   -1.7480   21.7440 N   0  0  0  0  0  0  0  0  0  0  0  0
   10.2460    4.7790   23.3500 C   0  0  0  0  0  0  0  0  0  0  0  0
    8.5690    1.3410   21.1930 O   0  0  0  0  0  0  0  0  0  0  0  0
    4.8810   -3.0420   21.1280 O   0  0  0  0  0  0  0  0  0  0  0  0
    8.7630    2.1160   24.1150 C   0  0  0  0  0  0  0  0  0  0  0  0
    7.8460    0.7420   22.0350 C   0  0  0  0  0  0  0  0  0  0  0  0
    6.7030   -0.2570   21.5930 C   0  0  1  0  0  0  0  0  0  0  0  0
    6.1710   -2.9440   21.4380 C   0  0  0  0  0  0  0  0  0  0  0  0
    6.8740   -4.2960   21.5280 C   0  0  0  0  0  0  0  0  0  0  0  0
    8.2780   -4.3890   20.9520 C   0  0  0  0  0  0  0  0  0  0  0  0
   12.3430   -1.9540   24.2480 C   0  0  0  0  0  0  0  0  0  0  0  0
   12.5240   -0.6630   25.0540 C   0  0  0  0  0  0  0  0  0  0  0  0
   13.3610   -1.9930   23.1070 C   0  0  0  0  0  0  0  0  0  0  0  0
   12.7520   -3.0840   25.2090 C   0  0  0  0  0  0  0  0  0  0  0  0
    9.0110    4.9290   22.6510 N   0  0  0  0  0  0  0  0  0  0  0  0
    9.9630    5.1650   24.6660 O   0  0  0  0  0  0  0  0  0  0  0  0
   11.0530    5.8520   22.9610 O   0  0  0  0  0  0  0  0  0  0  0  0
    6.3720    0.3260   17.8470 N   0  0  0  0  0  0  0  0  0  0  0  0
    5.2750    1.1070   17.8620 C   0  0  0  0  0  0  0  0  0  0  0  0
    4.5950    1.4650   18.9970 C   0  0  0  0  0  0  0  0  0  0  0  0
    5.0640    1.0060   20.2100 C   0  0  0  0  0  0  0  0  0  0  0  0
    6.1990    0.2020   20.2380 C   0  0  0  0  0  0  0  0  0  0  0  0
    6.8220   -0.1210   19.0350 C   0  0  0  0  0  0  0  0  0  0  0  0
    9.4970   -1.4540   21.7180 C   0  0  0  0  0  0  0  0  0  0  0  0
   10.7620   -1.5050   22.3110 C   0  0  0  0  0  0  0  0  0  0  0  0
   10.9280   -1.9390   23.6260 C   0  0  0  0  0  0  0  0  0  0  0  0
    9.7980   -2.3400   24.3550 C   0  0  0  0  0  0  0  0  0  0  0  0
    8.5210   -2.2810   23.7220 C   0  0  0  0  0  0  0  0  0  0  0  0
    8.3530   -1.8370   22.4020 C   0  0  0  0  0  0  0  0  0  0  0  0
   12.1450    0.8270   23.1400 C   0  0  0  0  0  0  0  0  0  0  0  0
   12.7900    1.9720   22.7410 C   0  0  0  0  0  0  0  0  0  0  0  0
   12.1740    3.2040   22.7740 C   0  0  0  0  0  0  0  0  0  0  0  0
   10.8930    3.3520   23.2500 C   0  0  0  0  0  0  0  0  0  0  0  0
   10.2070    2.1850   23.6330 C   0  0  0  0  0  0  0  0  0  0  0  0
   10.8500    0.9440   23.5750 C   0  0  0  0  0  0  0  0  0  0  0  0
  2  3  1  0
  1  8  1  0
  1  9  1  0
  6  9  2  0
  4 10  1  0
 10  9  1  6
  4 11  1  0
  7 11  2  0
 11 12  1  0
 12 13  1  0
 14 15  1  0
 14 16  1  0
 14 17  1  0
  5 18  1  0
  5 19  1  0
  5 20  1  0
 21 22  2  0
 22 23  1  0
 23 24  2  0
 10 25  1  0
 24 25  1  0
 21 26  1  0
 25 26  2  0
 27 28  2  0
 14 29  1  0
 28 29  1  0
 29 30  2  0
 30 31  1  0
  4 32  1  0
 27 32  1  0
 31 32  2  0
 33 34  2  0
  3 35  1  0
 34 35  1  0
  5 36  1  0
 35 36  2  0
  8 37  1  0
 36 37  1  0
 33 38  1  0
 37 38  2  0
M  END
