x3110-x1308-x0978
     RDKit          3D

 56 60  0  0  0  0  0  0  0  0999 V2000
    8.0390    1.0510   23.1490 N   0  0  0  0  0  0  0  0  0  0  0  0
   13.3770    5.1630   22.9140 C   0  0  0  0  0  0  0  0  0  0  0  0
   12.0220    3.1950   22.4160 O   0  0  0  0  0  0  0  0  0  0  0  0
   12.4100    4.4910   21.9430 C   0  0  0  0  0  0  0  0  0  0  0  0
    7.0540   -1.7590   21.6290 N   0  0  0  0  0  0  0  0  0  0  0  0
   10.8930    4.2330   24.1150 O   0  0  0  0  0  0  0  0  0  0  0  0
   11.0290    3.2300   23.4170 C   0  0  0  0  0  0  0  0  0  0  0  0
    8.3510    1.2150   20.9070 O   0  0  0  0  0  0  0  0  0  0  0  0
   10.2670    2.0590   23.5040 C   0  0  0  0  0  0  0  0  0  0  0  0
    4.9360   -3.0750   20.9530 O   0  0  0  0  0  0  0  0  0  0  0  0
    8.7320    2.2440   23.4130 C   0  0  0  0  0  0  0  0  0  0  0  0
    7.7170    0.6550   21.8280 C   0  0  0  0  0  0  0  0  0  0  0  0
    6.6800   -0.3100   21.4940 C   0  0  1  0  0  0  0  0  0  0  0  0
    6.1600   -2.9430   21.4140 C   0  0  0  0  0  0  0  0  0  0  0  0
    6.8920   -4.1780   21.8900 C   0  0  2  0  0  0  0  0  0  0  0  0
    8.2080   -4.5960   21.1050 C   0  0  0  0  0  0  0  0  0  0  0  0
   12.3220   -1.8200   24.2590 C   0  0  0  0  0  0  0  0  0  0  0  0
   12.5750   -0.6810   25.0070 C   0  0  0  0  0  0  0  0  0  0  0  0
   13.3240   -1.8840   23.0800 C   0  0  0  0  0  0  0  0  0  0  0  0
   12.7050   -2.9800   25.1970 C   0  0  0  0  0  0  0  0  0  0  0  0
    2.3980   -5.4970   22.9150 N   0  0  0  0  0  0  0  0  0  0  0  0
    2.6120   -8.1160   24.5100 C   0  0  0  0  0  0  0  0  0  0  0  0
    4.5050   -7.0940   25.3050 N   0  0  0  0  0  0  0  0  0  0  0  0
    3.3270   -6.9050   24.4890 C   0  0  1  0  0  0  0  0  0  0  0  0
    1.1240   -7.3850   22.1380 O   0  0  0  0  0  0  0  0  0  0  0  0
    3.6810   -6.2740   23.1130 C   0  0  2  0  0  0  0  0  0  0  0  0
    4.3450   -4.0350   22.7890 O   0  0  0  0  0  0  0  0  0  0  0  0
    1.1370   -6.2530   22.5950 C   0  0  0  0  0  0  0  0  0  0  0  0
   -0.0280   -5.5360   22.8470 C   0  0  0  0  0  0  0  0  0  0  0  0
    0.6290   -1.0620   26.6680 Cl  0  0  0  0  0  0  0  0  0  0  0  0
    6.1970   -5.4040   26.8030 O   0  0  0  0  0  0  0  0  0  0  0  0
    5.1370   -5.6400   25.8440 S   0  0  1  0  0  0  0  0  0  0  0  0
    6.3740    0.4600   17.8220 N   0  0  0  0  0  0  0  0  0  0  0  0
    5.2880    1.2490   17.8040 C   0  0  0  0  0  0  0  0  0  0  0  0
    4.5370    1.6020   18.9330 C   0  0  0  0  0  0  0  0  0  0  0  0
    5.0270    1.0580   20.1390 C   0  0  0  0  0  0  0  0  0  0  0  0
    6.1540    0.2470   20.1760 C   0  0  0  0  0  0  0  0  0  0  0  0
    6.7740   -0.0150   18.9960 C   0  0  0  0  0  0  0  0  0  0  0  0
    9.5370   -1.3670   21.6830 C   0  0  0  0  0  0  0  0  0  0  0  0
   10.7650   -1.4090   22.3590 C   0  0  0  0  0  0  0  0  0  0  0  0
   10.9480   -1.8510   23.6560 C   0  0  0  0  0  0  0  0  0  0  0  0
    9.7870   -2.2740   24.2770 C   0  0  0  0  0  0  0  0  0  0  0  0
    8.5420   -2.2460   23.6240 C   0  0  0  0  0  0  0  0  0  0  0  0
    8.3460   -1.7930   22.2900 C   0  0  0  0  0  0  0  0  0  0  0  0
    6.8320   -6.4720   22.4050 N   0  0  0  0  0  0  0  0  0  0  0  0
    7.8450   -5.8110   23.2360 C   0  0  0  0  0  0  0  0  0  0  0  0
    7.2410   -5.0150   24.2240 C   0  0  0  0  0  0  0  0  0  0  0  0
    5.7770   -5.2190   24.3450 N   0  0  0  0  0  0  0  0  0  0  0  0
    4.9540   -5.3020   23.0950 C   0  0  1  0  0  0  0  0  0  0  0  0
    5.9100   -5.4190   22.0530 C   0  0  1  0  0  0  0  0  0  0  0  0
    4.2830   -2.9600   26.3820 C   0  0  0  0  0  0  0  0  0  0  0  0
    3.3450   -1.9260   26.5650 C   0  0  0  0  0  0  0  0  0  0  0  0
    1.8310   -2.2650   26.4530 C   0  0  0  0  0  0  0  0  0  0  0  0
    1.3920   -3.7100   26.1450 C   0  0  0  0  0  0  0  0  0  0  0  0
    2.4040   -4.7970   25.9540 C   0  0  0  0  0  0  0  0  0  0  0  0
    3.8750   -4.4420   26.0680 C   0  0  0  0  0  0  0  0  0  0  0  0
  2  4  1  0
  3  4  1  0
  3  7  1  0
  6  7  2  0
  7  9  1  0
  1 11  1  0
  9 11  1  0
  1 12  1  0
  8 12  2  0
  5 13  1  0
 13 12  1  6
  5 14  1  0
 10 14  2  0
 14 15  1  0
 15 16  1  6
 17 18  1  0
 17 19  1  0
 17 20  1  0
 24 22  1  6
 23 24  1  0
 26 21  1  1
 24 26  1  0
 21 28  1  0
 25 28  2  0
 28 29  1  0
 23 32  2  0
 31 32  2  0
 33 34  2  0
 34 35  1  0
 35 36  2  0
 13 37  1  0
 36 37  1  0
 33 38  1  0
 37 38  2  0
 39 40  2  0
 17 41  1  0
 40 41  1  0
 41 42  2  0
 42 43  1  0
  5 44  1  0
 39 44  1  0
 43 44  2  0
 45 46  1  0
 46 47  1  0
 32 48  1  0
 47 48  1  0
 26 49  1  0
 49 27  1  6
 48 49  1  0
 15 50  1  0
 50 45  1  1
 49 50  1  0
 51 52  2  0
 30 53  1  0
 52 53  1  0
 53 54  2  0
 54 55  1  0
 32 56  1  1
 51 56  1  0
 55 56  2  0
M  END
