x3115-x3110-x2754-x3113
     RDKit          3D

 50 53  0  0  0  0  0  0  0  0999 V2000
    7.9420    1.4380   22.9790 N   0  0  0  0  0  0  0  0  0  0  0  0
   13.5500    4.9600   22.7620 C   0  0  0  0  0  0  0  0  0  0  0  0
   11.8970    3.3290   22.4250 O   0  0  0  0  0  0  0  0  0  0  0  0
   12.3770    4.5510   21.8950 C   0  0  0  0  0  0  0  0  0  0  0  0
    6.9970   -1.6670   21.6100 N   0  0  0  0  0  0  0  0  0  0  0  0
   11.1750    4.4280   24.2880 O   0  0  0  0  0  0  0  0  0  0  0  0
   11.1190    3.4840   23.5190 C   0  0  0  0  0  0  0  0  0  0  0  0
    8.5440    1.1810   20.8820 O   0  0  0  0  0  0  0  0  0  0  0  0
   10.1320    2.3060   23.6690 C   0  0  0  0  0  0  0  0  0  0  0  0
    4.9650   -3.0990   20.9280 O   0  0  0  0  0  0  0  0  0  0  0  0
    8.8370    2.6110   22.9520 C   0  0  2  0  0  0  0  0  0  0  0  0
    7.7690    0.8210   21.7730 C   0  0  0  0  0  0  0  0  0  0  0  0
    6.6060   -0.2120   21.4590 C   0  0  1  0  0  0  0  0  0  0  0  0
    6.2170   -2.9200   21.3580 C   0  0  0  0  0  0  0  0  0  0  0  0
    8.1080   -4.6020   21.1580 C   0  0  0  0  0  0  0  0  0  0  0  0
   12.2970   -1.8120   24.2500 C   0  0  0  0  0  0  0  0  0  0  0  0
   12.4890   -0.5580   25.0910 C   0  0  0  0  0  0  0  0  0  0  0  0
   13.3120   -1.7230   23.0910 C   0  0  0  0  0  0  0  0  0  0  0  0
   12.6820   -2.9980   25.1510 C   0  0  0  0  0  0  0  0  0  0  0  0
    8.8530    5.0950   23.1130 O   0  0  0  0  0  0  0  0  0  0  0  0
    8.1410    3.9040   23.4500 C   0  0  0  0  0  0  0  0  0  0  0  0
    8.1380    6.0160   22.2630 C   0  0  0  0  0  0  0  0  0  0  0  0
    4.7470   -3.3880   25.2720 C   0  0  0  0  0  0  0  0  0  0  0  0
    3.5080   -3.4150   25.2460 O   0  0  0  0  0  0  0  0  0  0  0  0
    5.4770   -3.1040   26.4590 N   0  0  0  0  0  0  0  0  0  0  0  0
    5.0020   -2.1940   27.5070 C   0  0  0  0  0  0  0  0  0  0  0  0
    6.3530    0.5200   17.7440 N   0  0  0  0  0  0  0  0  0  0  0  0
    5.1760    1.3940   17.7050 C   0  0  0  0  0  0  0  0  0  0  0  0
    4.5090    1.6490   19.0340 C   0  0  0  0  0  0  0  0  0  0  0  0
    4.9840    1.1120   20.1940 C   0  0  0  0  0  0  0  0  0  0  0  0
    6.1080    0.3100   20.1500 C   0  0  0  0  0  0  0  0  0  0  0  0
    6.7390    0.0400   18.9400 C   0  0  0  0  0  0  0  0  0  0  0  0
    9.4850   -2.0410   21.7310 C   0  0  0  0  0  0  0  0  0  0  0  0
   10.7490   -2.0900   22.3000 C   0  0  0  0  0  0  0  0  0  0  0  0
   10.8940   -1.7820   23.6260 C   0  0  0  0  0  0  0  0  0  0  0  0
    9.7300   -1.4340   24.3400 C   0  0  0  0  0  0  0  0  0  0  0  0
    8.4640   -1.3920   23.7250 C   0  0  0  0  0  0  0  0  0  0  0  0
    8.3140   -1.7030   22.3630 C   0  0  0  0  0  0  0  0  0  0  0  0
    6.9110   -4.2280   21.7250 C   0  0  1  0  0  0  0  0  0  0  0  0
    7.5400   -3.8230   23.1050 C   0  0  0  0  0  0  0  0  0  0  0  0
    6.6260   -3.0290   23.8010 C   0  0  0  0  0  0  0  0  0  0  0  0
    5.4190   -3.6700   23.8980 C   0  0  1  0  0  0  0  0  0  0  0  0
    5.3010   -5.0110   23.4290 C   0  0  0  0  0  0  0  0  0  0  0  0
    5.9790   -5.3570   22.2160 C   0  0  0  0  0  0  0  0  0  0  0  0
    6.9930   -4.9720   27.4520 C   0  0  0  0  0  0  0  0  0  0  0  0
    8.3340   -5.3740   27.6110 C   0  0  0  0  0  0  0  0  0  0  0  0
    9.3840   -4.6220   27.1210 C   0  0  0  0  0  0  0  0  0  0  0  0
    9.2270   -3.4340   26.4480 C   0  0  0  0  0  0  0  0  0  0  0  0
    8.0170   -2.8200   26.1650 C   0  0  0  0  0  0  0  0  0  0  0  0
    6.8160   -3.6310   26.6920 C   0  0  0  0  0  0  0  0  0  0  0  0
  2  4  1  0
  3  4  1  0
  3  7  1  0
  6  7  2  0
  7  9  1  0
  1 11  1  0
 11  9  1  1
  1 12  1  0
  8 12  2  0
  5 13  1  0
 13 12  1  6
  5 14  1  0
 10 14  2  0
 16 17  1  0
 16 18  1  0
 16 19  1  0
 11 21  1  0
 20 21  1  0
 20 22  1  0
 23 24  2  0
 23 25  1  0
 25 26  1  0
 27 28  2  0
 28 29  1  0
 29 30  2  0
 13 31  1  0
 30 31  1  0
 27 32  1  0
 31 32  2  0
 33 34  2  0
 16 35  1  0
 34 35  1  0
 35 36  2  0
 36 37  1  0
  5 38  1  0
 33 38  1  0
 37 38  2  0
 39 14  1  0
 39 15  1  6
 39 40  1  0
 40 41  1  0
 42 23  1  1
 41 42  1  0
 42 43  1  0
 39 44  1  0
 43 44  1  0
 45 46  2  0
 46 47  1  0
 47 48  2  0
 48 49  1  0
 25 50  1  0
 45 50  1  0
 49 50  2  0
M  END
