x3113-x2569
     RDKit          3D

 33 34  0  0  0  0  0  0  0  0999 V2000
    7.0730   -1.7800   21.7960 N   0  0  0  0  0  0  0  0  0  0  0  0
    8.2200   -4.4760   21.0110 C   0  0  0  0  0  0  0  0  0  0  0  0
    4.9120   -3.1010   21.1720 O   0  0  0  0  0  0  0  0  0  0  0  0
    6.8450   -4.3400   21.7040 C   0  0  0  0  0  0  0  0  0  0  0  0
    8.1060    1.1640   23.1520 N   0  0  0  0  0  0  0  0  0  0  0  0
    8.5920    0.8630   20.9990 O   0  0  0  0  0  0  0  0  0  0  0  0
    6.1900   -2.9840   21.5300 C   0  0  0  0  0  0  0  0  0  0  0  0
   11.4830    3.8740   23.3790 O   0  0  0  0  0  0  0  0  0  0  0  0
    6.7210   -0.2820   21.6670 C   0  0  1  0  0  0  0  0  0  0  0  0
    7.8490    0.5830   21.9170 C   0  0  0  0  0  0  0  0  0  0  0  0
    9.1150    2.2620   23.2190 C   0  0  0  0  0  0  0  0  0  0  0  0
   10.3370    1.8340   23.7760 C   0  0  0  0  0  0  0  0  0  0  0  0
   11.5010    2.4510   23.2680 C   0  0  0  0  0  0  0  0  0  0  0  0
   12.7070    4.4430   22.8910 C   0  0  0  0  0  0  0  0  0  0  0  0
   12.3820   -2.1330   24.5300 C   0  0  0  0  0  0  0  0  0  0  0  0
   13.4370   -2.2200   23.6860 C   0  0  0  0  0  0  0  0  0  0  0  0
   12.6720   -3.2640   25.5250 C   0  0  0  0  0  0  0  0  0  0  0  0
   12.5750   -0.7620   25.1700 C   0  0  0  0  0  0  0  0  0  0  0  0
    6.4170    0.2860   17.8960 N   0  0  0  0  0  0  0  0  0  0  0  0
    5.2520    1.1540   17.8640 C   0  0  0  0  0  0  0  0  0  0  0  0
    4.5860    1.5230   19.0170 C   0  0  0  0  0  0  0  0  0  0  0  0
    5.0380    1.0640   20.2400 C   0  0  0  0  0  0  0  0  0  0  0  0
    6.2600    0.1590   20.3290 C   0  0  0  0  0  0  0  0  0  0  0  0
    6.8290   -0.1410   19.1010 C   0  0  0  0  0  0  0  0  0  0  0  0
    9.6060   -1.4430   21.8760 C   0  0  0  0  0  0  0  0  0  0  0  0
   10.8270   -1.5330   22.5290 C   0  0  0  0  0  0  0  0  0  0  0  0
   11.0410   -2.0760   23.7910 C   0  0  0  0  0  0  0  0  0  0  0  0
    9.7400   -2.6200   24.4310 C   0  0  0  0  0  0  0  0  0  0  0  0
    8.5070   -2.5230   23.7680 C   0  0  0  0  0  0  0  0  0  0  0  0
    8.3130   -1.9530   22.5030 C   0  0  0  0  0  0  0  0  0  0  0  0
   13.9190   -1.2120   20.4010 N   0  0  0  0  0  0  0  0  0  0  0  0
   13.3770   -0.8710   21.6960 C   0  0  0  0  0  0  0  0  0  0  0  0
   13.0370   -2.1830   22.2690 C   0  0  0  0  0  0  0  0  0  0  0  0
  2  4  1  0
  1  7  1  0
  3  7  2  0
  4  7  1  0
  1  9  1  0
  5 10  1  0
  6 10  2  0
  9 10  1  6
  5 11  1  0
 11 12  1  0
  8 13  1  0
 12 13  1  0
  8 14  1  0
 15 16  1  0
 15 17  1  0
 15 18  1  0
 19 20  2  0
 20 21  1  0
 21 22  2  0
  9 23  1  0
 22 23  1  0
 19 24  1  0
 23 24  2  0
 25 26  2  0
 15 27  1  0
 26 27  1  0
 27 28  2  0
 28 29  1  0
  1 30  1  0
 25 30  1  0
 29 30  2  0
 31 32  3  0
 16 33  1  0
 32 33  1  0
M  END
