x3124-x0771
     RDKit          3D

 44 48  0  0  0  0  0  0  0  0999 V2000
    6.7580   -1.4920   22.0910 C   0  0  1  0  0  0  0  0  0  0  0  0
    6.8700   -3.9470   20.0540 C   0  0  0  0  0  0  0  0  0  0  0  0
    4.7830   -3.0610   21.3590 O   0  0  0  0  0  0  0  0  0  0  0  0
    6.6450   -2.5010   20.0560 C   0  0  0  0  0  0  0  0  0  0  0  0
    7.7470    1.6050   23.2990 N   0  0  0  0  0  0  0  0  0  0  0  0
    8.4600    1.3980   21.1080 O   0  0  0  0  0  0  0  0  0  0  0  0
    5.8610   -2.4290   21.2130 C   0  0  0  0  0  0  0  0  0  0  0  0
    6.5420    0.0400   21.7930 C   0  0  1  0  0  0  0  0  0  0  0  0
    7.6780    1.0670   22.0240 C   0  0  0  0  0  0  0  0  0  0  0  0
    8.7540    2.4990   23.6450 C   0  0  0  0  0  0  0  0  0  0  0  0
   12.3800   -1.7800   23.9810 C   0  0  0  0  0  0  0  0  0  0  0  0
   12.6260   -0.5870   24.6160 C   0  0  0  0  0  0  0  0  0  0  0  0
   13.3880   -1.9770   22.8610 C   0  0  0  0  0  0  0  0  0  0  0  0
   12.6840   -2.9230   24.9490 C   0  0  0  0  0  0  0  0  0  0  0  0
    0.5910   -1.3670   26.2180 C   0  0  0  0  0  0  0  0  0  0  0  0
    4.4070   -6.9220   25.4260 O   0  0  0  0  0  0  0  0  0  0  0  0
    5.9600   -5.2900   26.5380 O   0  0  0  0  0  0  0  0  0  0  0  0
    1.8900   -6.0840   24.9090 C   0  0  0  0  0  0  0  0  0  0  0  0
    4.9780   -5.5980   25.5260 S   0  0  0  0  0  0  0  0  0  0  0  0
    6.3560   -2.4370   23.1100 C   0  0  0  0  0  0  0  0  0  0  0  0
    6.4140    0.3880   18.0340 N   0  0  0  0  0  0  0  0  0  0  0  0
    5.2550    1.1150   17.9340 C   0  0  0  0  0  0  0  0  0  0  0  0
    4.4700    1.5130   18.9860 C   0  0  0  0  0  0  0  0  0  0  0  0
    4.8760    1.1610   20.2680 C   0  0  0  0  0  0  0  0  0  0  0  0
    6.0590    0.4220   20.4470 C   0  0  0  0  0  0  0  0  0  0  0  0
    6.7770    0.0650   19.2930 C   0  0  0  0  0  0  0  0  0  0  0  0
    9.3190   -1.9920   21.6400 C   0  0  0  0  0  0  0  0  0  0  0  0
   10.6490   -2.0530   22.1220 C   0  0  0  0  0  0  0  0  0  0  0  0
   10.9550   -1.7370   23.4600 C   0  0  0  0  0  0  0  0  0  0  0  0
    9.9000   -1.3710   24.2810 C   0  0  0  0  0  0  0  0  0  0  0  0
    8.6040   -1.3140   23.8000 C   0  0  0  0  0  0  0  0  0  0  0  0
    8.2930   -1.6200   22.4720 C   0  0  0  0  0  0  0  0  0  0  0  0
    1.6700   -2.4440   26.0340 C   0  0  0  0  0  0  0  0  0  0  0  0
    1.3490   -3.7320   25.5760 C   0  0  0  0  0  0  0  0  0  0  0  0
    2.3330   -4.7140   25.4110 C   0  0  0  0  0  0  0  0  0  0  0  0
    3.6610   -4.4150   25.7050 C   0  0  0  0  0  0  0  0  0  0  0  0
    3.9770   -3.1350   26.1580 C   0  0  0  0  0  0  0  0  0  0  0  0
    3.0100   -2.1310   26.3310 C   0  0  0  0  0  0  0  0  0  0  0  0
    6.7850   -4.5440   21.4810 N   0  0  0  0  0  0  0  0  0  0  0  0
    6.1530   -5.8750   21.6490 C   0  0  0  0  0  0  0  0  0  0  0  0
    5.1940   -5.9220   22.8340 C   0  0  0  0  0  0  0  0  0  0  0  0
    5.6160   -5.1460   24.0080 N   0  0  0  0  0  0  0  0  0  0  0  0
    6.9860   -4.5980   23.9430 C   0  0  0  0  0  0  0  0  0  0  0  0
    7.1040   -3.8190   22.8020 C   0  0  2  0  0  0  0  0  0  0  0  0
  2  4  1  0
  1  7  1  0
  3  7  2  0
  4  7  1  0
  1  8  1  0
  5  9  1  0
  6  9  2  0
  8  9  1  6
  5 10  1  0
 11 12  1  0
 11 13  1  0
 11 14  1  0
 16 19  2  0
 17 19  2  0
  1 20  1  0
 21 22  2  0
 22 23  1  0
 23 24  2  0
  8 25  1  0
 24 25  1  0
 21 26  1  0
 25 26  2  0
 27 28  2  0
 11 29  1  0
 28 29  1  0
 29 30  2  0
 30 31  1  0
  1 32  1  6
 27 32  1  0
 31 32  2  0
 15 33  1  0
 33 34  2  0
 18 35  1  0
 34 35  1  0
 19 36  1  0
 35 36  2  0
 36 37  1  0
 33 38  1  0
 37 38  2  0
  2 39  1  0
 39 40  1  0
 40 41  1  0
 19 42  1  0
 41 42  1  0
 42 43  1  0
 44 20  1  1
 39 44  1  0
 43 44  1  0
M  END
