x3124-x0995
     RDKit          3D

 27 28  0  0  0  0  0  0  0  0999 V2000
    6.9190   -1.7480   21.9230 N   0  0  0  0  0  0  0  0  0  0  0  0
    6.7160   -4.9090   20.4120 C   0  0  0  0  0  0  0  0  0  0  0  0
    4.8290   -3.0580   21.3010 O   0  0  0  0  0  0  0  0  0  0  0  0
    6.8460   -4.2210   21.7600 C   0  0  0  0  0  0  0  0  0  0  0  0
    7.8290    1.3470   23.1580 N   0  0  0  0  0  0  0  0  0  0  0  0
    8.2190    0.8900   21.4160 O   0  0  0  0  0  0  0  0  0  0  0  0
    6.0850   -2.9380   21.6400 C   0  0  0  0  0  0  0  0  0  0  0  0
    6.4460   -0.3800   21.6930 C   0  0  1  0  0  0  0  0  0  0  0  0
    7.4100    0.6420   22.3250 C   0  0  0  0  0  0  0  0  0  0  0  0
    8.4370    2.6180   22.6750 C   0  0  0  0  0  0  0  0  0  0  0  0
   12.3150   -1.9100   24.1340 C   0  0  0  0  0  0  0  0  0  0  0  0
   12.5410   -0.5300   24.7760 C   0  0  0  0  0  0  0  0  0  0  0  0
   13.2790   -2.0640   22.9500 C   0  0  0  0  0  0  0  0  0  0  0  0
   12.7830   -2.9660   25.1540 C   0  0  0  0  0  0  0  0  0  0  0  0
    3.2610    2.2970   18.9750 N   0  0  0  0  0  0  0  0  0  0  0  0
    6.4420    0.3460   17.9020 N   0  0  0  0  0  0  0  0  0  0  0  0
    5.3550    1.1170   17.7990 C   0  0  0  0  0  0  0  0  0  0  0  0
    4.4790    1.4700   18.9680 C   0  0  0  0  0  0  0  0  0  0  0  0
    4.8880    0.9160   20.3070 C   0  0  0  0  0  0  0  0  0  0  0  0
    6.0350    0.1340   20.3320 C   0  0  0  0  0  0  0  0  0  0  0  0
    6.7440   -0.1150   19.1490 C   0  0  0  0  0  0  0  0  0  0  0  0
    9.3440   -1.6280   21.7620 C   0  0  0  0  0  0  0  0  0  0  0  0
   10.6400   -1.6650   22.2740 C   0  0  0  0  0  0  0  0  0  0  0  0
   10.8680   -1.9180   23.6380 C   0  0  0  0  0  0  0  0  0  0  0  0
    9.7430   -2.1440   24.4470 C   0  0  0  0  0  0  0  0  0  0  0  0
    8.4360   -2.1070   23.9170 C   0  0  0  0  0  0  0  0  0  0  0  0
    8.2170   -1.8400   22.5540 C   0  0  0  0  0  0  0  0  0  0  0  0
  2  4  1  0
  1  7  1  0
  3  7  2  0
  4  7  1  0
  1  8  1  0
  5  9  1  0
  6  9  2  0
  8  9  1  6
  5 10  1  0
 11 12  1  0
 11 13  1  0
 11 14  1  0
 16 17  2  0
 15 18  1  0
 17 18  1  0
 18 19  2  0
  8 20  1  0
 19 20  1  0
 16 21  1  0
 20 21  2  0
 22 23  2  0
 11 24  1  0
 23 24  1  0
 24 25  2  0
 25 26  1  0
  1 27  1  0
 22 27  1  0
 26 27  2  0
M  END
