x3124-x1358
     RDKit          3D

 41 45  0  0  0  0  0  0  0  0999 V2000
    6.9200   -1.7910   21.9390 C   0  0  2  0  0  0  0  0  0  0  0  0
    6.8130   -5.1430   20.3450 C   0  0  0  0  0  0  0  0  0  0  0  0
    4.8270   -2.9500   20.6470 O   0  0  0  0  0  0  0  0  0  0  0  0
    7.5150    1.5000   23.2490 N   0  0  0  0  0  0  0  0  0  0  0  0
    8.6730    0.8150   21.3160 O   0  0  0  0  0  0  0  0  0  0  0  0
    5.9080   -2.9500   21.2520 C   0  0  0  0  0  0  0  0  0  0  0  0
    6.5210   -0.2590   21.7760 C   0  0  1  0  0  0  0  0  0  0  0  0
    7.6930    0.7060   22.0560 C   0  0  0  0  0  0  0  0  0  0  0  0
    8.4450    2.4500   23.6530 C   0  0  0  0  0  0  0  0  0  0  0  0
   12.4300   -1.8000   24.1470 C   0  0  0  0  0  0  0  0  0  0  0  0
   12.6380   -0.5520   24.9830 C   0  0  0  0  0  0  0  0  0  0  0  0
   13.3950   -1.8220   22.9660 C   0  0  0  0  0  0  0  0  0  0  0  0
   12.8320   -2.9870   25.0080 C   0  0  0  0  0  0  0  0  0  0  0  0
    6.8280   -2.2340   26.1730 N   0  0  0  0  0  0  0  0  0  0  0  0
    5.4890   -0.0910   25.4190 O   0  0  0  0  0  0  0  0  0  0  0  0
    4.5820   -3.0940   25.5890 O   0  0  0  0  0  0  0  0  0  0  0  0
    5.9800   -2.9060   25.4130 C   0  0  0  0  0  0  0  0  0  0  0  0
    6.4330    0.3070   17.9980 N   0  0  0  0  0  0  0  0  0  0  0  0
    5.2380    1.1530   17.8290 C   0  0  0  0  0  0  0  0  0  0  0  0
    4.4550    1.4930   19.0920 C   0  0  0  0  0  0  0  0  0  0  0  0
    4.8820    1.0210   20.3220 C   0  0  0  0  0  0  0  0  0  0  0  0
    6.0230    0.2380   20.4180 C   0  0  0  0  0  0  0  0  0  0  0  0
    6.7240   -0.0740   19.2580 C   0  0  0  0  0  0  0  0  0  0  0  0
    9.6120   -2.3110   21.6920 C   0  0  0  0  0  0  0  0  0  0  0  0
   10.8840   -2.2800   22.2860 C   0  0  0  0  0  0  0  0  0  0  0  0
   11.0390   -1.8310   23.5930 C   0  0  0  0  0  0  0  0  0  0  0  0
    9.9520   -1.4180   24.3300 C   0  0  0  0  0  0  0  0  0  0  0  0
    8.7080   -1.4400   23.7570 C   0  0  0  0  0  0  0  0  0  0  0  0
    8.4030   -1.8480   22.4640 C   0  0  0  0  0  0  0  0  0  0  0  0
    5.9240   -0.0800   26.7690 C   0  0  0  0  0  0  0  0  0  0  0  0
    6.6200   -1.2350   27.1360 C   0  0  0  0  0  0  0  0  0  0  0  0
    7.0830   -1.3310   28.4490 C   0  0  0  0  0  0  0  0  0  0  0  0
    6.8440   -0.2820   29.3150 C   0  0  0  0  0  0  0  0  0  0  0  0
    6.1610    0.8610   28.9480 C   0  0  0  0  0  0  0  0  0  0  0  0
    5.6790    0.9890   27.6570 C   0  0  0  0  0  0  0  0  0  0  0  0
    6.5390   -4.3080   21.5630 C   0  0  2  0  0  0  0  0  0  0  0  0
    7.5320   -3.6400   22.3480 C   0  0  0  0  0  0  0  0  0  0  0  0
    6.4560   -2.9110   22.9250 C   0  0  1  0  0  0  0  0  0  0  0  0
    6.7190   -3.5290   24.2470 C   0  0  2  0  0  0  0  0  0  0  0  0
    6.1760   -4.9370   24.0610 C   0  0  0  0  0  0  0  0  0  0  0  0
    5.6970   -5.1370   22.5760 C   0  0  0  0  0  0  0  0  0  0  0  0
  1  6  1  0
  3  6  2  0
  1  7  1  0
  4  8  1  0
  5  8  2  0
  7  8  1  6
  4  9  1  0
 10 11  1  0
 10 12  1  0
 10 13  1  0
 14 17  1  0
 16 17  2  0
 18 19  2  0
 19 20  1  0
 20 21  2  0
  7 22  1  0
 21 22  1  0
 18 23  1  0
 22 23  2  0
 24 25  2  0
 10 26  1  0
 25 26  1  0
 26 27  2  0
 27 28  1  0
  1 29  1  6
 24 29  1  0
 28 29  2  0
 15 30  1  0
 14 31  1  0
 30 31  2  0
 31 32  1  0
 32 33  2  0
 33 34  1  0
 30 35  1  0
 34 35  2  0
 36  2  1  6
  6 36  1  0
 36 37  1  0
  1 38  1  0
 38 37  1  6
 39 17  1  1
 38 39  1  0
 39 40  1  0
 36 41  1  0
 40 41  1  0
M  END
