x3124-x1311
     RDKit          3D

 40 43  0  0  0  0  0  0  0  0999 V2000
    6.8450   -1.6160   21.9810 N   0  0  0  0  0  0  0  0  0  0  0  0
    6.9280   -4.8110   20.5480 C   0  0  0  0  0  0  0  0  0  0  0  0
    4.8570   -3.1060   21.3400 O   0  0  0  0  0  0  0  0  0  0  0  0
    7.1410   -3.9480   21.7650 C   0  0  1  0  0  0  0  0  0  0  0  0
    7.7870    1.4190   23.1690 N   0  0  0  0  0  0  0  0  0  0  0  0
    8.1380    0.9330   21.4260 O   0  0  0  0  0  0  0  0  0  0  0  0
    6.1200   -2.8510   21.6730 C   0  0  0  0  0  0  0  0  0  0  0  0
    6.3310   -0.2740   21.7450 C   0  0  1  0  0  0  0  0  0  0  0  0
    7.3330    0.7230   22.3490 C   0  0  0  0  0  0  0  0  0  0  0  0
    8.4770    2.6430   22.6780 C   0  0  0  0  0  0  0  0  0  0  0  0
   12.2640   -1.8080   24.1990 C   0  0  0  0  0  0  0  0  0  0  0  0
   12.4410   -0.5280   25.0210 C   0  0  0  0  0  0  0  0  0  0  0  0
   13.2660   -1.7480   23.0380 C   0  0  0  0  0  0  0  0  0  0  0  0
   12.7280   -2.9750   25.0910 C   0  0  0  0  0  0  0  0  0  0  0  0
    6.4430    0.3850   17.9340 N   0  0  0  0  0  0  0  0  0  0  0  0
    5.2920    1.2390   17.7640 C   0  0  0  0  0  0  0  0  0  0  0  0
    4.4270    1.5900   18.9500 C   0  0  0  0  0  0  0  0  0  0  0  0
    4.8270    1.0270   20.2970 C   0  0  0  0  0  0  0  0  0  0  0  0
    5.9600    0.2250   20.3660 C   0  0  0  0  0  0  0  0  0  0  0  0
    6.6810   -0.0440   19.1990 C   0  0  0  0  0  0  0  0  0  0  0  0
    9.2920   -1.5490   21.8110 C   0  0  0  0  0  0  0  0  0  0  0  0
   10.5770   -1.5950   22.3220 C   0  0  0  0  0  0  0  0  0  0  0  0
   10.8250   -1.7980   23.6880 C   0  0  0  0  0  0  0  0  0  0  0  0
    9.6950   -1.9650   24.5090 C   0  0  0  0  0  0  0  0  0  0  0  0
    8.3860   -1.9160   23.9670 C   0  0  0  0  0  0  0  0  0  0  0  0
    8.1530   -1.7010   22.5960 C   0  0  0  0  0  0  0  0  0  0  0  0
    8.8650   -5.0020   23.0970 C   0  0  0  0  0  0  0  0  0  0  0  0
    9.5200   -5.5110   24.2280 C   0  0  0  0  0  0  0  0  0  0  0  0
    8.9080   -5.4750   25.4480 C   0  0  0  0  0  0  0  0  0  0  0  0
    7.6370   -4.9440   25.5390 C   0  0  0  0  0  0  0  0  0  0  0  0
    6.9840   -4.4460   24.4010 C   0  0  0  0  0  0  0  0  0  0  0  0
    7.6000   -4.4560   23.1510 C   0  0  0  0  0  0  0  0  0  0  0  0
    4.3940   -6.5300   25.5830 O   0  0  0  0  0  0  0  0  0  0  0  0
    2.2690   -5.4780   24.7200 O   0  0  0  0  0  0  0  0  0  0  0  0
    4.5700   -6.4770   22.3150 C   0  0  0  0  0  0  0  0  0  0  0  0
    5.1510   -5.3160   22.7150 C   0  0  0  0  0  0  0  0  0  0  0  0
    4.5140   -4.6130   23.7520 C   0  0  1  0  0  0  0  0  0  0  0  0
    3.6080   -5.9740   24.5060 S   0  0  0  0  0  0  0  0  0  0  0  0
    3.6550   -7.0250   23.1260 C   0  0  0  0  0  0  0  0  0  0  0  0
    5.5890   -3.9110   24.5750 C   0  0  0  0  0  0  0  0  0  0  0  0
  4  2  1  6
  1  7  1  0
  3  7  2  0
  4  7  1  0
  1  8  1  0
  5  9  1  0
  6  9  2  0
  8  9  1  6
  5 10  1  0
 11 12  1  0
 11 13  1  0
 11 14  1  0
 15 16  2  0
 16 17  1  0
 17 18  2  0
  8 19  1  0
 18 19  1  0
 15 20  1  0
 19 20  2  0
 21 22  2  0
 11 23  1  0
 22 23  1  0
 23 24  2  0
 24 25  1  0
  1 26  1  0
 21 26  1  0
 25 26  2  0
 27 28  2  0
 28 29  1  0
 29 30  2  0
 30 31  1  0
  4 32  1  0
 27 32  1  0
 31 32  2  0
 35 36  1  0
 36 37  1  0
 38 33  1  0
 34 38  1  0
 37 38  1  0
 35 39  2  0
 38 39  1  0
 31 40  1  0
 37 40  1  1
M  END
