x3124-x2608
     RDKit          3D

 29 30  0  0  0  0  0  0  0  0999 V2000
    6.8790   -1.7120   21.9080 N   0  0  0  0  0  0  0  0  0  0  0  0
    6.7280   -4.9550   20.4990 C   0  0  0  0  0  0  0  0  0  0  0  0
    4.8230   -3.0440   21.2780 O   0  0  0  0  0  0  0  0  0  0  0  0
    6.8290   -4.1940   21.8140 C   0  0  0  0  0  0  0  0  0  0  0  0
    7.7750    1.3110   23.2460 N   0  0  0  0  0  0  0  0  0  0  0  0
    8.1380    0.9740   21.4550 O   0  0  0  0  0  0  0  0  0  0  0  0
    6.0660   -2.9160   21.6390 C   0  0  0  0  0  0  0  0  0  0  0  0
    6.3930   -0.3480   21.6970 C   0  0  1  0  0  0  0  0  0  0  0  0
    7.3530    0.6540   22.3660 C   0  0  0  0  0  0  0  0  0  0  0  0
    8.6180    2.4850   22.8830 C   0  0  0  0  0  0  0  0  0  0  0  0
   12.3080   -1.9710   23.9860 C   0  0  0  0  0  0  0  0  0  0  0  0
   12.5480   -0.5640   24.5070 C   0  0  0  0  0  0  0  0  0  0  0  0
   13.2650   -2.2300   22.8160 C   0  0  0  0  0  0  0  0  0  0  0  0
   12.7410   -2.9790   25.0450 C   0  0  0  0  0  0  0  0  0  0  0  0
    6.4370    0.3970   17.9060 N   0  0  0  0  0  0  0  0  0  0  0  0
    5.2820    1.2520   17.7660 C   0  0  0  0  0  0  0  0  0  0  0  0
    4.4350    1.5780   18.9750 C   0  0  0  0  0  0  0  0  0  0  0  0
    4.8560    0.9880   20.3040 C   0  0  0  0  0  0  0  0  0  0  0  0
    5.9920    0.1860   20.3370 C   0  0  0  0  0  0  0  0  0  0  0  0
    6.6950   -0.0590   19.1570 C   0  0  0  0  0  0  0  0  0  0  0  0
    9.2770   -2.1260   21.7190 C   0  0  0  0  0  0  0  0  0  0  0  0
   10.5710   -2.1920   22.1890 C   0  0  0  0  0  0  0  0  0  0  0  0
   10.8680   -1.9170   23.5200 C   0  0  0  0  0  0  0  0  0  0  0  0
    9.7920   -1.5790   24.3490 C   0  0  0  0  0  0  0  0  0  0  0  0
    8.4740   -1.5190   23.8470 C   0  0  0  0  0  0  0  0  0  0  0  0
    8.1930   -1.7900   22.4990 C   0  0  0  0  0  0  0  0  0  0  0  0
   12.6610    2.7030   22.8060 C   0  0  0  0  0  0  0  0  0  0  0  0
   12.8010    0.3900   23.3390 C   0  0  0  0  0  0  0  0  0  0  0  0
   11.9750    1.4950   23.4170 C   0  0  0  0  0  0  0  0  0  0  0  0
  2  4  1  0
  1  7  1  0
  3  7  2  0
  4  7  1  0
  1  8  1  0
  5  9  1  0
  6  9  2  0
  8  9  1  6
  5 10  1  0
 11 12  1  0
 11 13  1  0
 11 14  1  0
 15 16  2  0
 16 17  1  0
 17 18  2  0
  8 19  1  0
 18 19  1  0
 15 20  1  0
 19 20  2  0
 21 22  2  0
 11 23  1  0
 22 23  1  0
 23 24  2  0
 24 25  1  0
  1 26  1  0
 21 26  1  0
 25 26  2  0
 12 28  1  0
 27 29  1  0
 28 29  1  0
M  END
