x3124-x0426-x2754-x3110
     RDKit          3D

 59 63  0  0  0  0  0  0  0  0999 V2000
    7.9370    1.2260   23.1500 N   0  0  0  0  0  0  0  0  0  0  0  0
   13.3640    5.1310   22.8840 C   0  0  0  0  0  0  0  0  0  0  0  0
   11.9960    3.2070   22.4710 O   0  0  0  0  0  0  0  0  0  0  0  0
   12.3540    4.4970   21.9600 C   0  0  0  0  0  0  0  0  0  0  0  0
    7.0900   -1.6990   21.5410 N   0  0  0  0  0  0  0  0  0  0  0  0
   10.9380    4.2590   24.1930 O   0  0  0  0  0  0  0  0  0  0  0  0
   11.0780    3.2840   23.4710 C   0  0  0  0  0  0  0  0  0  0  0  0
    8.4760    1.4170   20.9550 O   0  0  0  0  0  0  0  0  0  0  0  0
   10.2600    2.0260   23.5770 C   0  0  0  0  0  0  0  0  0  0  0  0
    4.9420   -3.0710   20.9420 O   0  0  0  0  0  0  0  0  0  0  0  0
    8.7730    2.3710   23.5160 C   0  0  0  0  0  0  0  0  0  0  0  0
    7.7700    0.8610   21.8170 C   0  0  0  0  0  0  0  0  0  0  0  0
    6.6620   -0.2440   21.4990 C   0  0  1  0  0  0  0  0  0  0  0  0
    6.2050   -2.9090   21.3560 C   0  0  0  0  0  0  0  0  0  0  0  0
    8.2190   -4.7000   21.1150 C   0  0  0  0  0  0  0  0  0  0  0  0
   12.3190   -1.8190   24.2860 C   0  0  0  0  0  0  0  0  0  0  0  0
   12.4830   -0.5550   25.1080 C   0  0  0  0  0  0  0  0  0  0  0  0
   13.3240   -1.7800   23.1330 C   0  0  0  0  0  0  0  0  0  0  0  0
   12.7390   -3.0010   25.1780 C   0  0  0  0  0  0  0  0  0  0  0  0
    2.2590    1.7960   23.8190 C   0  0  0  0  0  0  0  0  0  0  0  0
    2.1470    0.5770   23.7580 O   0  0  0  0  0  0  0  0  0  0  0  0
    3.3080    2.4890   23.2500 N   0  0  0  0  0  0  0  0  0  0  0  0
    4.3540    1.8250   22.4810 C   0  0  0  0  0  0  0  0  0  0  0  0
    3.7900    1.2550   21.1820 C   0  0  0  0  0  0  0  0  0  0  0  0
    2.7520    4.2910   25.2200 F   0  0  0  0  0  0  0  0  0  0  0  0
    4.7670   -3.4120   25.5900 C   0  0  0  0  0  0  0  0  0  0  0  0
    3.5780   -3.6030   25.7860 O   0  0  0  0  0  0  0  0  0  0  0  0
    5.6320   -3.0020   26.6170 N   0  0  0  0  0  0  0  0  0  0  0  0
    5.1480   -2.1380   27.6970 C   0  0  0  0  0  0  0  0  0  0  0  0
    6.4350    0.5610   17.8440 N   0  0  0  0  0  0  0  0  0  0  0  0
    5.2690    1.2010   17.7680 C   0  0  0  0  0  0  0  0  0  0  0  0
    4.4370    1.4120   18.8300 C   0  0  0  0  0  0  0  0  0  0  0  0
    4.8010    0.9570   20.0960 C   0  0  0  0  0  0  0  0  0  0  0  0
    6.0370    0.2940   20.2240 C   0  0  0  0  0  0  0  0  0  0  0  0
    6.7930    0.1220   19.0620 C   0  0  0  0  0  0  0  0  0  0  0  0
    9.5200   -2.0990   21.7200 C   0  0  0  0  0  0  0  0  0  0  0  0
   10.7600   -2.1350   22.3350 C   0  0  0  0  0  0  0  0  0  0  0  0
   10.9110   -1.7860   23.6640 C   0  0  0  0  0  0  0  0  0  0  0  0
    9.7420   -1.4080   24.3370 C   0  0  0  0  0  0  0  0  0  0  0  0
    8.4820   -1.3730   23.6870 C   0  0  0  0  0  0  0  0  0  0  0  0
    8.3560   -1.7260   22.3290 C   0  0  0  0  0  0  0  0  0  0  0  0
    1.5060    3.7830   25.2040 C   0  0  0  0  0  0  0  0  0  0  0  0
    1.2210    2.5870   24.5440 C   0  0  0  0  0  0  0  0  0  0  0  0
   -0.0980    2.1080   24.5650 C   0  0  0  0  0  0  0  0  0  0  0  0
   -1.1030    2.8150   25.2340 C   0  0  0  0  0  0  0  0  0  0  0  0
   -0.8060    4.0060   25.8880 C   0  0  0  0  0  0  0  0  0  0  0  0
    0.5030    4.4880   25.8710 C   0  0  0  0  0  0  0  0  0  0  0  0
    6.8940   -4.2210   21.7940 C   0  0  1  0  0  0  0  0  0  0  0  0
    7.5350   -3.7420   23.1070 C   0  0  0  0  0  0  0  0  0  0  0  0
    6.6040   -2.8920   23.9320 C   0  0  0  0  0  0  0  0  0  0  0  0
    5.2910   -3.6000   24.1350 C   0  0  1  0  0  0  0  0  0  0  0  0
    5.3390   -5.0760   23.6580 C   0  0  0  0  0  0  0  0  0  0  0  0
    5.9430   -5.3350   22.2590 C   0  0  0  0  0  0  0  0  0  0  0  0
    7.1540   -4.7560   27.5440 C   0  0  0  0  0  0  0  0  0  0  0  0
    8.4410   -5.2890   27.7010 C   0  0  0  0  0  0  0  0  0  0  0  0
    9.5350   -4.6670   27.1270 C   0  0  0  0  0  0  0  0  0  0  0  0
    9.3530   -3.5150   26.3940 C   0  0  0  0  0  0  0  0  0  0  0  0
    8.0670   -2.9850   26.2420 C   0  0  0  0  0  0  0  0  0  0  0  0
    6.9380   -3.5880   26.8080 C   0  0  0  0  0  0  0  0  0  0  0  0
  2  4  1  0
  3  4  1  0
  3  7  1  0
  6  7  2  0
  7  9  1  0
  1 11  1  0
  9 11  1  0
  1 12  1  0
  8 12  2  0
  5 13  1  0
 13 12  1  6
  5 14  1  0
 10 14  2  0
 16 17  1  0
 16 18  1  0
 16 19  1  0
 20 21  2  0
 20 22  1  0
 22 23  1  0
 23 24  1  0
 26 27  2  0
 26 28  1  0
 28 29  1  0
 30 31  2  0
 31 32  1  0
 24 33  1  0
 32 33  2  0
 13 34  1  0
 33 34  1  0
 30 35  1  0
 34 35  2  0
 36 37  2  0
 16 38  1  0
 37 38  1  0
 38 39  2  0
 39 40  1  0
  5 41  1  0
 36 41  1  0
 40 41  2  0
 25 42  1  0
 20 43  1  0
 42 43  2  0
 43 44  1  0
 44 45  2  0
 45 46  1  0
 42 47  1  0
 46 47  2  0
 48 14  1  0
 48 15  1  6
 48 49  1  0
 49 50  1  0
 51 26  1  1
 50 51  1  0
 51 52  1  0
 48 53  1  0
 52 53  1  0
 54 55  2  0
 55 56  1  0
 56 57  2  0
 57 58  1  0
 28 59  1  0
 54 59  1  0
 58 59  2  0
M  END
