x3124-x1380
     RDKit          3D

 39 43  0  0  0  0  0  0  0  0999 V2000
    6.8560   -1.9650   22.1030 C   0  0  2  0  0  0  0  0  0  0  0  0
    7.0140   -5.1940   20.6050 C   0  0  0  0  0  0  0  0  0  0  0  0
    4.9270   -3.0790   20.6350 O   0  0  0  0  0  0  0  0  0  0  0  0
    7.4580    1.5050   23.1590 N   0  0  0  0  0  0  0  0  0  0  0  0
    8.7690    0.4710   21.4980 O   0  0  0  0  0  0  0  0  0  0  0  0
    5.9470   -3.0540   21.3500 C   0  0  0  0  0  0  0  0  0  0  0  0
    6.5210   -0.4090   21.8780 C   0  0  1  0  0  0  0  0  0  0  0  0
    7.7180    0.5240   22.1330 C   0  0  0  0  0  0  0  0  0  0  0  0
    7.9560    2.7940   23.0460 C   0  0  0  0  0  0  0  0  0  0  0  0
   12.4390   -1.8100   24.1650 C   0  0  0  0  0  0  0  0  0  0  0  0
   12.5830   -0.4800   24.8990 C   0  0  0  0  0  0  0  0  0  0  0  0
   13.4320   -1.9080   23.0170 C   0  0  0  0  0  0  0  0  0  0  0  0
   12.8310   -2.9350   25.1370 C   0  0  0  0  0  0  0  0  0  0  0  0
    4.8400   -1.9630   25.7640 O   0  0  0  0  0  0  0  0  0  0  0  0
    5.5800   -2.8970   25.4900 C   0  0  0  0  0  0  0  0  0  0  0  0
    6.4410    0.2050   18.0630 N   0  0  0  0  0  0  0  0  0  0  0  0
    5.2570    1.0380   17.9150 C   0  0  0  0  0  0  0  0  0  0  0  0
    4.4630    1.3750   19.1610 C   0  0  0  0  0  0  0  0  0  0  0  0
    4.9100    0.8800   20.3650 C   0  0  0  0  0  0  0  0  0  0  0  0
    6.0460    0.0930   20.4990 C   0  0  0  0  0  0  0  0  0  0  0  0
    6.7580   -0.2090   19.3260 C   0  0  0  0  0  0  0  0  0  0  0  0
    9.6000   -2.3730   21.6780 C   0  0  0  0  0  0  0  0  0  0  0  0
   10.8880   -2.3030   22.2540 C   0  0  0  0  0  0  0  0  0  0  0  0
   11.0670   -1.8890   23.5690 C   0  0  0  0  0  0  0  0  0  0  0  0
    9.9580   -1.5490   24.2780 C   0  0  0  0  0  0  0  0  0  0  0  0
    8.6790   -1.5780   23.7970 C   0  0  0  0  0  0  0  0  0  0  0  0
    8.3830   -1.9830   22.4840 C   0  0  0  0  0  0  0  0  0  0  0  0
    6.6180   -4.3340   21.8140 C   0  0  1  0  0  0  0  0  0  0  0  0
    5.6250   -5.1480   22.6470 C   0  0  0  0  0  0  0  0  0  0  0  0
    5.5850   -4.6990   23.9540 C   0  0  0  0  0  0  0  0  0  0  0  0
    5.6560   -3.3060   23.9950 C   0  0  2  0  0  0  0  0  0  0  0  0
    6.8050   -2.7560   23.4410 C   0  0  1  0  0  0  0  0  0  0  0  0
    7.6270   -3.7620   22.8520 C   0  0  0  0  0  0  0  0  0  0  0  0
    7.6190   -4.0450   26.3460 C   0  0  0  0  0  0  0  0  0  0  0  0
    7.8490   -5.2150   27.1170 C   0  0  0  0  0  0  0  0  0  0  0  0
    7.5750   -5.1020   28.5060 C   0  0  0  0  0  0  0  0  0  0  0  0
    6.1750   -4.5430   28.7280 C   0  0  0  0  0  0  0  0  0  0  0  0
    5.8290   -3.3460   27.8920 C   0  0  0  0  0  0  0  0  0  0  0  0
    6.2480   -3.5310   26.5060 N   0  0  0  0  0  0  0  0  0  0  0  0
  1  6  1  0
  3  6  2  0
  1  7  1  0
  4  8  1  0
  5  8  2  0
  7  8  1  6
  4  9  1  0
 10 11  1  0
 10 12  1  0
 10 13  1  0
 14 15  2  0
 16 17  2  0
 17 18  1  0
 18 19  2  0
  7 20  1  0
 19 20  1  0
 16 21  1  0
 20 21  2  0
 22 23  2  0
 10 24  1  0
 23 24  1  0
 24 25  2  0
 25 26  1  0
  1 27  1  6
 22 27  1  0
 26 27  2  0
 28  2  1  6
  6 28  1  0
 28 29  1  0
 29 30  1  0
 31 15  1  1
 30 31  1  0
  1 32  1  0
 31 32  1  0
 28 33  1  0
 32 33  1  6
 34 35  1  0
 35 36  1  0
 36 37  1  0
 37 38  1  0
 15 39  1  0
 34 39  1  0
 38 39  1  0
M  END
