x3124-x3117
     RDKit          3D

 31 33  0  0  0  0  0  0  0  0999 V2000
    6.7750   -1.5840   21.9590 N   0  0  0  0  0  0  0  0  0  0  0  0
    6.7590   -4.8730   20.4960 C   0  0  0  0  0  0  0  0  0  0  0  0
    4.8020   -3.0160   21.2760 O   0  0  0  0  0  0  0  0  0  0  0  0
    6.8300   -4.0880   21.8030 C   0  0  0  0  0  0  0  0  0  0  0  0
    7.5720    1.7200   22.9190 N   0  0  0  0  0  0  0  0  0  0  0  0
    8.7570    0.5420   21.4100 O   0  0  0  0  0  0  0  0  0  0  0  0
    6.0330   -2.8220   21.6520 C   0  0  0  0  0  0  0  0  0  0  0  0
    6.5760   -0.1230   21.6510 C   0  0  1  0  0  0  0  0  0  0  0  0
    7.6770    0.6910   21.9820 C   0  0  0  0  0  0  0  0  0  0  0  0
   12.4570   -1.8140   24.1220 C   0  0  0  0  0  0  0  0  0  0  0  0
   12.6370   -0.5790   24.9550 C   0  0  0  0  0  0  0  0  0  0  0  0
   13.3230   -1.9650   23.0210 C   0  0  0  0  0  0  0  0  0  0  0  0
   12.7890   -2.9930   25.0230 C   0  0  0  0  0  0  0  0  0  0  0  0
    6.2850    0.3490   17.8840 N   0  0  0  0  0  0  0  0  0  0  0  0
    5.1760    1.1060   17.8430 C   0  0  0  0  0  0  0  0  0  0  0  0
    4.4690    1.4790   18.9400 C   0  0  0  0  0  0  0  0  0  0  0  0
    4.9170    1.0690   20.1770 C   0  0  0  0  0  0  0  0  0  0  0  0
    6.0590    0.2970   20.2970 C   0  0  0  0  0  0  0  0  0  0  0  0
    6.6870   -0.0280   19.1060 C   0  0  0  0  0  0  0  0  0  0  0  0
    9.1980   -2.0180   21.7160 C   0  0  0  0  0  0  0  0  0  0  0  0
   10.6470   -2.0910   22.2040 C   0  0  0  0  0  0  0  0  0  0  0  0
   11.0360   -1.7830   23.6380 C   0  0  0  0  0  0  0  0  0  0  0  0
    9.8860   -1.4060   24.5940 C   0  0  0  0  0  0  0  0  0  0  0  0
    8.4610   -1.3690   23.9820 C   0  0  0  0  0  0  0  0  0  0  0  0
    8.1220   -1.6720   22.5140 C   0  0  0  0  0  0  0  0  0  0  0  0
    9.7920    5.0430   24.1580 O   0  0  0  0  0  0  0  0  0  0  0  0
   10.4780    3.9780   23.6890 C   0  0  0  0  0  0  0  0  0  0  0  0
    9.5380    2.7760   23.8670 C   0  0  0  0  0  0  0  0  0  0  0  0
    8.4880    2.8800   22.9260 C   0  0  0  0  0  0  0  0  0  0  0  0
    7.8310    4.1150   23.0700 C   0  0  0  0  0  0  0  0  0  0  0  0
    8.7050    5.3040   23.2670 C   0  0  0  0  0  0  0  0  0  0  0  0
  2  4  1  0
  1  7  1  0
  3  7  2  0
  4  7  1  0
  1  8  1  0
  5  9  1  0
  6  9  2  0
  8  9  1  6
 10 11  1  0
 10 12  1  0
 10 13  1  0
 14 15  2  0
 15 16  1  0
 16 17  2  0
  8 18  1  0
 17 18  1  0
 14 19  1  0
 18 19  2  0
 20 21  2  0
 10 22  1  0
 21 22  1  0
 22 23  2  0
 23 24  1  0
  1 25  1  0
 20 25  1  0
 24 25  2  0
 26 27  1  0
 27 28  1  0
  5 29  1  0
 28 29  1  0
 29 30  1  0
 26 31  1  0
 30 31  1  0
M  END
