x3124-x2540
     RDKit          3D

 29 30  0  0  0  0  0  0  0  0999 V2000
    6.9910   -1.3120   21.7410 N   0  0  0  0  0  0  0  0  0  0  0  0
    6.6870   -3.7450   19.8520 C   0  0  0  0  0  0  0  0  0  0  0  0
    4.9470   -3.2260   21.3380 O   0  0  0  0  0  0  0  0  0  0  0  0
    6.8850   -3.2140   21.2660 C   0  0  0  0  0  0  0  0  0  0  0  0
    8.8510    1.3060   22.7900 N   0  0  0  0  0  0  0  0  0  0  0  0
    8.3920    1.6450   21.0160 O   0  0  0  0  0  0  0  0  0  0  0  0
    5.7960   -2.2090   21.5620 C   0  0  0  0  0  0  0  0  0  0  0  0
    6.8360    0.1370   21.5150 C   0  0  1  0  0  0  0  0  0  0  0  0
    8.0470    0.9720   22.0040 C   0  0  0  0  0  0  0  0  0  0  0  0
    9.0590    2.7420   23.1550 C   0  0  0  0  0  0  0  0  0  0  0  0
    8.6910    2.9490   24.6520 C   0  0  0  0  0  0  0  0  0  0  0  0
    8.3020    3.7830   22.3130 C   0  0  0  0  0  0  0  0  0  0  0  0
   10.5770    3.0110   23.0110 C   0  0  0  0  0  0  0  0  0  0  0  0
   11.8340   -1.3990   23.6090 C   0  0  0  0  0  0  0  0  0  0  0  0
   12.6980   -1.0880   22.3670 C   0  0  0  0  0  0  0  0  0  0  0  0
   12.0440   -0.3120   24.6750 C   0  0  0  0  0  0  0  0  0  0  0  0
   12.3520   -2.7360   24.1700 C   0  0  0  0  0  0  0  0  0  0  0  0
   13.3480   -2.5770   25.1120 C   0  0  0  0  0  0  0  0  0  0  0  0
    6.3380    0.4860   17.7890 N   0  0  0  0  0  0  0  0  0  0  0  0
    5.2920    1.3350   17.7770 C   0  0  0  0  0  0  0  0  0  0  0  0
    4.6970    1.8260   18.9020 C   0  0  0  0  0  0  0  0  0  0  0  0
    5.2070    1.4270   20.1150 C   0  0  0  0  0  0  0  0  0  0  0  0
    6.2940    0.5510   20.2100 C   0  0  0  0  0  0  0  0  0  0  0  0
    6.8040    0.1200   18.9970 C   0  0  0  0  0  0  0  0  0  0  0  0
    9.6300   -2.1810   24.2670 O   0  0  0  0  0  0  0  0  0  0  0  0
    8.2760   -2.2290   23.8700 N   0  0  0  0  0  0  0  0  0  0  0  0
    8.1790   -1.5520   22.5620 C   0  0  0  0  0  0  0  0  0  0  0  0
    9.4950   -1.1540   22.2660 C   0  0  0  0  0  0  0  0  0  0  0  0
   10.3400   -1.5320   23.2990 C   0  0  0  0  0  0  0  0  0  0  0  0
  2  4  1  0
  1  7  1  0
  3  7  2  0
  4  7  1  0
  1  8  1  0
  5  9  1  0
  6  9  2  0
  8  9  1  6
 10  5  1  0
 10 11  1  0
 10 12  1  0
 10 13  1  0
 14 15  1  0
 14 16  1  0
 14 17  1  0
 17 18  1  0
 19 20  2  0
 20 21  1  0
 21 22  2  0
  8 23  1  0
 22 23  1  0
 19 24  1  0
 23 24  2  0
 25 26  1  0
  1 27  1  0
 26 27  2  0
 27 28  1  0
 14 29  1  0
 25 29  1  0
 28 29  2  0
M  END
