x3124-x3110
     RDKit          3D

 32 33  0  0  0  0  0  0  0  0999 V2000
    8.0980    0.9880   23.3370 N   0  0  0  0  0  0  0  0  0  0  0  0
   13.4090    5.2080   22.8500 C   0  0  0  0  0  0  0  0  0  0  0  0
   11.9960    3.2400   22.3910 O   0  0  0  0  0  0  0  0  0  0  0  0
   12.4430    4.4560   21.9880 C   0  0  0  0  0  0  0  0  0  0  0  0
    7.0220   -1.7920   21.7170 N   0  0  0  0  0  0  0  0  0  0  0  0
   10.9510    4.3990   24.2060 O   0  0  0  0  0  0  0  0  0  0  0  0
   11.0440    3.3060   23.4250 C   0  0  0  0  0  0  0  0  0  0  0  0
    8.5190    1.2840   21.1030 O   0  0  0  0  0  0  0  0  0  0  0  0
   10.1170    1.9990   23.5490 C   0  0  0  0  0  0  0  0  0  0  0  0
    4.8230   -2.9910   21.1660 O   0  0  0  0  0  0  0  0  0  0  0  0
    8.7650    2.2000   23.4200 C   0  0  0  0  0  0  0  0  0  0  0  0
    7.8290    0.6920   21.9640 C   0  0  0  0  0  0  0  0  0  0  0  0
    6.6780   -0.3010   21.5880 C   0  0  1  0  0  0  0  0  0  0  0  0
    6.1110   -2.9370   21.3850 C   0  0  0  0  0  0  0  0  0  0  0  0
    6.7090   -4.3190   21.2920 C   0  0  0  0  0  0  0  0  0  0  0  0
    8.1890   -4.3350   20.9310 C   0  0  0  0  0  0  0  0  0  0  0  0
   12.3680   -1.8360   24.2950 C   0  0  0  0  0  0  0  0  0  0  0  0
   12.4930   -0.6520   24.9980 C   0  0  0  0  0  0  0  0  0  0  0  0
   13.3780   -1.7710   23.1540 C   0  0  0  0  0  0  0  0  0  0  0  0
   12.7910   -3.0120   25.1910 C   0  0  0  0  0  0  0  0  0  0  0  0
    6.3860    0.4860   17.7470 N   0  0  0  0  0  0  0  0  0  0  0  0
    5.1880    1.3370   17.7240 C   0  0  0  0  0  0  0  0  0  0  0  0
    4.3960    1.6680   18.9860 C   0  0  0  0  0  0  0  0  0  0  0  0
    4.8910    1.0980   20.3030 C   0  0  0  0  0  0  0  0  0  0  0  0
    6.1560    0.2250   20.2830 C   0  0  0  0  0  0  0  0  0  0  0  0
    6.8090   -0.0110   18.9180 C   0  0  0  0  0  0  0  0  0  0  0  0
    9.4410   -1.4210   21.7470 C   0  0  0  0  0  0  0  0  0  0  0  0
   10.7010   -1.4250   22.3310 C   0  0  0  0  0  0  0  0  0  0  0  0
   10.9400   -1.9090   23.7430 C   0  0  0  0  0  0  0  0  0  0  0  0
    9.7960   -2.3710   24.4140 C   0  0  0  0  0  0  0  0  0  0  0  0
    8.5240   -2.3610   23.7960 C   0  0  0  0  0  0  0  0  0  0  0  0
    8.3060   -1.8670   22.4090 C   0  0  0  0  0  0  0  0  0  0  0  0
  2  4  1  0
  3  4  1  0
  3  7  1  0
  6  7  2  0
  7  9  1  0
  1 11  1  0
  9 11  1  0
  1 12  1  0
  8 12  2  0
  5 13  1  0
 13 12  1  6
  5 14  1  0
 10 14  2  0
 14 15  1  0
 15 16  1  0
 17 18  1  0
 17 19  1  0
 17 20  1  0
 21 22  2  0
 22 23  1  0
 23 24  2  0
 13 25  1  0
 24 25  1  0
 21 26  1  0
 25 26  2  0
 27 28  2  0
 17 29  1  0
 28 29  1  0
 29 30  2  0
 30 31  1  0
  5 32  1  0
 27 32  1  0
 31 32  2  0
M  END
