x3124-x0354
     RDKit          3D

 37 39  0  0  0  0  0  0  0  0999 V2000
    6.8360   -1.7090   21.6630 N   0  0  0  0  0  0  0  0  0  0  0  0
    6.7390   -4.9530   20.4540 C   0  0  0  0  0  0  0  0  0  0  0  0
    4.8020   -3.0110   21.2330 O   0  0  0  0  0  0  0  0  0  0  0  0
    6.7830   -4.1840   21.7650 C   0  0  0  0  0  0  0  0  0  0  0  0
    7.7510    1.3420   23.0890 N   0  0  0  0  0  0  0  0  0  0  0  0
    8.1750    0.9020   21.3440 O   0  0  0  0  0  0  0  0  0  0  0  0
    6.0310   -2.9080   21.5320 C   0  0  0  0  0  0  0  0  0  0  0  0
    6.3590   -0.3310   21.5630 C   0  0  1  0  0  0  0  0  0  0  0  0
    7.3360    0.6610   22.2280 C   0  0  0  0  0  0  0  0  0  0  0  0
    8.4990    2.5630   22.6730 C   0  0  0  0  0  0  0  0  0  0  0  0
   12.0020   -1.7260   24.2600 C   0  0  0  0  0  0  0  0  0  0  0  0
   12.3100   -0.5480   25.1670 C   0  0  0  0  0  0  0  0  0  0  0  0
   13.0110   -1.6400   23.0870 C   0  0  0  0  0  0  0  0  0  0  0  0
   12.4670   -3.0020   24.9490 C   0  0  0  0  0  0  0  0  0  0  0  0
    7.7490   -2.1010   25.9500 O   0  0  0  0  0  0  0  0  0  0  0  0
    7.8950   -0.3970   27.7180 O   0  0  0  0  0  0  0  0  0  0  0  0
    8.6210   -1.2670   25.6790 C   0  0  0  0  0  0  0  0  0  0  0  0
    8.8340   -0.0940   26.6340 C   0  0  0  0  0  0  0  0  0  0  0  0
    5.4860    3.7840   30.7340 C   0  0  0  0  0  0  0  0  0  0  0  0
    6.3400    0.4470   17.8480 N   0  0  0  0  0  0  0  0  0  0  0  0
    5.2610    1.2660   17.7850 C   0  0  0  0  0  0  0  0  0  0  0  0
    4.5280    1.5550   18.9160 C   0  0  0  0  0  0  0  0  0  0  0  0
    4.8820    1.0270   20.1350 C   0  0  0  0  0  0  0  0  0  0  0  0
    5.9840    0.2020   20.2040 C   0  0  0  0  0  0  0  0  0  0  0  0
    6.6870   -0.0690   19.0370 C   0  0  0  0  0  0  0  0  0  0  0  0
    9.3590   -2.0150   21.6180 C   0  0  0  0  0  0  0  0  0  0  0  0
   10.5470   -1.9900   22.3200 C   0  0  0  0  0  0  0  0  0  0  0  0
   10.5670   -1.7350   23.6940 C   0  0  0  0  0  0  0  0  0  0  0  0
    9.2520   -1.5270   24.3150 C   0  0  0  0  0  0  0  0  0  0  0  0
    8.1290   -1.5560   23.5200 C   0  0  0  0  0  0  0  0  0  0  0  0
    8.1910   -1.7840   22.2130 C   0  0  0  0  0  0  0  0  0  0  0  0
    7.7890    1.8000   28.3840 C   0  0  0  0  0  0  0  0  0  0  0  0
    7.2110    2.8520   29.1270 C   0  0  0  0  0  0  0  0  0  0  0  0
    6.0920    2.6590   29.9470 C   0  0  0  0  0  0  0  0  0  0  0  0
    5.5630    1.3850   30.0030 C   0  0  0  0  0  0  0  0  0  0  0  0
    6.1300    0.3530   29.2790 C   0  0  0  0  0  0  0  0  0  0  0  0
    7.2490    0.5420   28.4640 C   0  0  0  0  0  0  0  0  0  0  0  0
  2  4  1  0
  1  7  1  0
  3  7  2  0
  4  7  1  0
  1  8  1  0
  5  9  1  0
  6  9  2  0
  8  9  1  6
  5 10  1  0
 11 12  1  0
 11 13  1  0
 11 14  1  0
 15 17  2  0
 16 18  1  0
 17 18  1  0
 20 21  2  0
 21 22  1  0
 22 23  2  0
  8 24  1  0
 23 24  1  0
 20 25  1  0
 24 25  2  0
 26 27  2  0
 11 28  1  0
 27 28  1  0
 17 29  1  0
 28 29  2  0
 29 30  1  0
  1 31  1  0
 26 31  1  0
 30 31  2  0
 32 33  2  0
 19 34  1  0
 33 34  1  0
 34 35  2  0
 35 36  1  0
 16 37  1  0
 32 37  1  0
 36 37  2  0
M  END
