x3124-x0305
     RDKit          3D

 33 34  0  0  0  0  0  0  0  0999 V2000
    6.8980   -1.6750   21.8040 N   0  0  0  0  0  0  0  0  0  0  0  0
    6.7560   -4.9430   20.4870 C   0  0  0  0  0  0  0  0  0  0  0  0
    4.8330   -3.0360   21.2390 O   0  0  0  0  0  0  0  0  0  0  0  0
    6.8480   -4.1570   21.7880 C   0  0  0  0  0  0  0  0  0  0  0  0
    7.6880    1.3750   23.1860 N   0  0  0  0  0  0  0  0  0  0  0  0
    8.1480    0.9740   21.4290 O   0  0  0  0  0  0  0  0  0  0  0  0
    6.0790   -2.8880   21.5820 C   0  0  0  0  0  0  0  0  0  0  0  0
    6.3810   -0.3270   21.6230 C   0  0  1  0  0  0  0  0  0  0  0  0
    7.3130    0.6910   22.3060 C   0  0  0  0  0  0  0  0  0  0  0  0
    8.7170    2.4010   22.8530 C   0  0  0  0  0  0  0  0  0  0  0  0
   12.1090   -1.7270   24.1820 C   0  0  0  0  0  0  0  0  0  0  0  0
   12.2350   -0.5110   25.0840 C   0  0  0  0  0  0  0  0  0  0  0  0
   13.1930   -1.6390   23.1510 C   0  0  0  0  0  0  0  0  0  0  0  0
   12.5610   -2.9550   24.9610 C   0  0  0  0  0  0  0  0  0  0  0  0
    6.4210    0.4560   17.8520 N   0  0  0  0  0  0  0  0  0  0  0  0
    5.2660    1.3120   17.7280 C   0  0  0  0  0  0  0  0  0  0  0  0
    4.4200    1.6210   18.9370 C   0  0  0  0  0  0  0  0  0  0  0  0
    4.8450    1.0150   20.2580 C   0  0  0  0  0  0  0  0  0  0  0  0
    5.9790    0.2180   20.2740 C   0  0  0  0  0  0  0  0  0  0  0  0
    6.6830   -0.0140   19.0960 C   0  0  0  0  0  0  0  0  0  0  0  0
    9.2790   -1.9080   21.7260 C   0  0  0  0  0  0  0  0  0  0  0  0
   10.5410   -1.9340   22.1940 C   0  0  0  0  0  0  0  0  0  0  0  0
   10.7170   -1.7490   23.5320 C   0  0  0  0  0  0  0  0  0  0  0  0
    9.5470   -1.5640   24.2710 C   0  0  0  0  0  0  0  0  0  0  0  0
    8.1380   -1.5140   23.8970 C   0  0  0  0  0  0  0  0  0  0  0  0
    8.1600   -1.7080   22.4960 C   0  0  0  0  0  0  0  0  0  0  0  0
   12.9040   -2.0700   20.8790 C   0  0  0  0  0  0  0  0  0  0  0  0
   13.7640   -1.3510   20.6990 N   0  0  0  0  0  0  0  0  0  0  0  0
   12.9690   -2.6750   22.1020 C   0  0  0  0  0  0  0  0  0  0  0  0
    8.1110   -0.0180   27.2270 C   0  0  0  0  0  0  0  0  0  0  0  0
    8.2270   -0.0580   25.8400 C   0  0  1  0  0  0  0  0  0  0  0  0
    9.4950    0.6320   25.5650 N   0  0  0  0  0  0  0  0  0  0  0  0
    8.3780   -1.3370   25.3460 C   0  0  0  0  0  0  0  0  0  0  0  0
  2  4  1  0
  1  7  1  0
  3  7  2  0
  4  7  1  0
  1  8  1  0
  5  9  1  0
  6  9  2  0
  8  9  1  6
  5 10  1  0
 11 12  1  0
 11 13  1  0
 11 14  1  0
 15 16  2  0
 16 17  1  0
 17 18  2  0
  8 19  1  0
 18 19  1  0
 15 20  1  0
 19 20  2  0
 21 22  2  0
 11 23  1  0
 22 23  1  0
 23 24  2  0
 24 25  1  0
  1 26  1  0
 21 26  1  0
 25 26  2  0
 27 28  3  0
 13 29  1  0
 27 29  1  0
 31 30  1  1
 31 32  1  0
 25 33  1  0
 31 33  1  0
M  END
