x3124-x2703
     RDKit          3D

 34 36  0  0  0  0  0  0  0  0999 V2000
    6.9020   -1.6450   21.7560 N   0  0  0  0  0  0  0  0  0  0  0  0
    6.7350   -4.9100   20.4530 C   0  0  0  0  0  0  0  0  0  0  0  0
    4.8220   -3.0080   21.2040 O   0  0  0  0  0  0  0  0  0  0  0  0
    6.8180   -4.1390   21.7610 C   0  0  0  0  0  0  0  0  0  0  0  0
    7.4790    1.6010   23.0780 N   0  0  0  0  0  0  0  0  0  0  0  0
    8.1610    1.0310   21.4250 O   0  0  0  0  0  0  0  0  0  0  0  0
    6.0690   -2.8580   21.5450 C   0  0  0  0  0  0  0  0  0  0  0  0
    6.3760   -0.2810   21.5750 C   0  0  1  0  0  0  0  0  0  0  0  0
    7.2350    0.8230   22.2290 C   0  0  0  0  0  0  0  0  0  0  0  0
   10.1860    1.8350   24.0590 C   0  0  0  0  0  0  0  0  0  0  0  0
    9.1730    1.1710   25.0520 C   0  0  0  0  0  0  0  0  0  0  0  0
    6.1120    4.1310   21.8960 C   0  0  0  0  0  0  0  0  0  0  0  0
   12.1340   -1.9990   24.1320 C   0  0  0  0  0  0  0  0  0  0  0  0
   12.1150   -3.0590   25.0780 C   0  0  0  0  0  0  0  0  0  0  0  0
   12.5310   -0.6810   24.8160 C   0  0  0  0  0  0  0  0  0  0  0  0
   13.2230   -2.2760   23.0760 C   0  0  0  0  0  0  0  0  0  0  0  0
    6.3580    0.4680   17.8000 N   0  0  0  0  0  0  0  0  0  0  0  0
    5.1560    1.2970   17.7220 C   0  0  0  0  0  0  0  0  0  0  0  0
    4.4410    1.5170   18.8810 C   0  0  0  0  0  0  0  0  0  0  0  0
    4.8470    0.9920   20.0790 C   0  0  0  0  0  0  0  0  0  0  0  0
    5.9730    0.2190   20.2220 C   0  0  0  0  0  0  0  0  0  0  0  0
    6.7180   -0.0480   19.0990 C   0  0  0  0  0  0  0  0  0  0  0  0
   10.6370   -1.5480   22.2240 N   0  0  0  0  0  0  0  0  0  0  0  0
   10.7340   -1.9170   23.5160 C   0  0  0  0  0  0  0  0  0  0  0  0
    9.6180   -2.2230   24.3090 C   0  0  0  0  0  0  0  0  0  0  0  0
    8.3440   -2.1390   23.7320 C   0  0  0  0  0  0  0  0  0  0  0  0
    8.1910   -1.7600   22.4020 C   0  0  0  0  0  0  0  0  0  0  0  0
    9.3750   -1.4810   21.7170 C   0  0  0  0  0  0  0  0  0  0  0  0
    9.4560    3.0630   23.4860 C   0  0  0  0  0  0  0  0  0  0  0  0
   10.1190    4.3040   23.4580 C   0  0  0  0  0  0  0  0  0  0  0  0
    9.4740    5.4250   22.9400 C   0  0  0  0  0  0  0  0  0  0  0  0
    8.1770    5.3060   22.4480 C   0  0  0  0  0  0  0  0  0  0  0  0
    7.5340    4.0680   22.4830 C   0  0  0  0  0  0  0  0  0  0  0  0
    8.1370    2.9100   23.0020 C   0  0  0  0  0  0  0  0  0  0  0  0
  2  4  1  0
  1  7  1  0
  3  7  2  0
  4  7  1  0
  1  8  1  0
  5  9  1  0
  6  9  2  0
  8  9  1  6
 10 11  1  0
 13 14  1  0
 13 15  1  0
 13 16  1  0
 17 18  2  0
 18 19  1  0
 19 20  2  0
  8 21  1  0
 20 21  1  0
 17 22  1  0
 21 22  2  0
 13 24  1  0
 23 24  2  0
 24 25  1  0
 25 26  2  0
  1 27  1  0
 26 27  1  0
 23 28  1  0
 27 28  2  0
 10 29  1  0
 29 30  2  0
 30 31  1  0
 31 32  2  0
 12 33  1  0
 32 33  1  0
  5 34  1  0
 29 34  1  0
 33 34  2  0
M  END
