x3124-x0104
     RDKit          3D

 41 44  0  0  0  0  0  0  0  0999 V2000
    6.0140   -1.8540   21.6220 N   0  0  0  0  0  0  0  0  0  0  0  0
    6.9550   -3.0530   19.1510 C   0  0  0  0  0  0  0  0  0  0  0  0
    4.6620   -3.5770   22.0240 O   0  0  0  0  0  0  0  0  0  0  0  0
    5.6530   -3.5740   19.8330 C   0  0  0  0  0  0  0  0  0  0  0  0
    5.4120   -0.4350   24.1970 N   0  0  0  0  0  0  0  0  0  0  0  0
    6.1080    1.2970   22.8900 O   0  0  0  0  0  0  0  0  0  0  0  0
    5.3820   -2.9990   21.2210 C   0  0  0  0  0  0  0  0  0  0  0  0
    5.3340   -0.5520   21.8190 C   0  0  1  0  0  0  0  0  0  0  0  0
    5.6470    0.1550   22.9640 C   0  0  0  0  0  0  0  0  0  0  0  0
    6.7070   -0.6990   24.8750 C   0  0  0  0  0  0  0  0  0  0  0  0
   12.4550   -2.0170   24.8330 C   0  0  0  0  0  0  0  0  0  0  0  0
   12.6180   -0.5560   25.1200 C   0  0  0  0  0  0  0  0  0  0  0  0
   12.2450   -2.3810   23.5540 C   0  0  2  0  0  0  0  0  0  0  0  0
   13.6870   -2.6860   25.3530 C   0  0  0  0  0  0  0  0  0  0  0  0
   10.2530    5.3750   23.0530 C   0  0  0  0  0  0  0  0  0  0  0  0
    9.4490    4.2710   23.3310 C   0  0  0  0  0  0  0  0  0  0  0  0
    8.8840    4.1550   24.4180 O   0  0  0  0  0  0  0  0  0  0  0  0
    9.3500    3.2950   22.2350 N   0  0  0  0  0  0  0  0  0  0  0  0
    8.4560    2.2980   22.4730 C   0  0  0  0  0  0  0  0  0  0  0  0
    8.1960    1.4340   21.4000 C   0  0  0  0  0  0  0  0  0  0  0  0
   13.3920   -0.6920   22.4500 F   0  0  0  0  0  0  0  0  0  0  0  0
   13.3610   -2.0430   22.6180 C   0  0  0  0  0  0  0  0  0  0  0  0
    6.0160    0.5050   18.1440 N   0  0  0  0  0  0  0  0  0  0  0  0
    5.1690    1.5530   17.8410 C   0  0  0  0  0  0  0  0  0  0  0  0
    4.2030    2.0560   18.9240 C   0  0  0  0  0  0  0  0  0  0  0  0
    4.1850    1.4050   20.3080 C   0  0  0  0  0  0  0  0  0  0  0  0
    5.1840    0.2570   20.4910 C   0  0  0  0  0  0  0  0  0  0  0  0
    6.1070   -0.1590   19.3230 C   0  0  0  0  0  0  0  0  0  0  0  0
    8.5040   -1.6190   22.3180 C   0  0  0  0  0  0  0  0  0  0  0  0
    9.7280   -2.3750   22.9360 C   0  0  0  0  0  0  0  0  0  0  0  0
    9.3070   -3.4990   23.2340 C   0  0  0  0  0  0  0  0  0  0  0  0
    8.2380   -4.3230   23.2570 C   0  0  0  0  0  0  0  0  0  0  0  0
    7.0710   -3.7430   22.7100 C   0  0  0  0  0  0  0  0  0  0  0  0
    7.2090   -2.2990   22.1910 C   0  0  0  0  0  0  0  0  0  0  0  0
    8.1230   -0.0150   21.8300 C   0  0  0  0  0  0  0  0  0  0  0  0
    6.9170   -0.9570   21.8570 C   0  0  0  0  0  0  0  0  0  0  0  0
    7.1870   -2.2330   22.3310 N   0  0  0  0  0  0  0  0  0  0  0  0
    8.5100   -2.3630   22.6680 C   0  0  0  0  0  0  0  0  0  0  0  0
    9.1590   -0.8540   22.3200 C   0  0  0  0  0  0  0  0  0  0  0  0
   10.9430   -1.8880   23.0690 C   0  0  0  0  0  0  0  0  0  0  0  0
   10.5500   -0.6240   22.5530 C   0  0  0  0  0  0  0  0  0  0  0  0
  2  4  1  0
  1  7  1  0
  3  7  2  0
  4  7  1  0
  1  8  1  0
  5  9  1  0
  6  9  2  0
  8  9  1  1
  5 10  1  0
 11 12  1  0
 11 13  1  0
 11 14  1  0
 15 16  1  0
 16 17  2  0
 16 18  1  0
 18 19  1  0
 19 20  1  0
 13 22  1  6
 21 22  1  0
 23 24  2  0
 24 25  1  0
 25 26  2  0
  8 27  1  0
 26 27  1  0
 23 28  1  0
 27 28  2  0
 29 30  2  0
 30 31  1  0
 31 32  2  0
 32 33  1  0
  1 34  1  0
 29 34  1  0
 33 34  2  0
 20 35  1  0
 35 36  2  0
 36 37  1  0
 31 38  1  0
 37 38  1  0
 35 39  1  0
 38 39  2  0
 13 40  1  0
 30 40  1  0
 39 41  1  0
 40 41  2  0
M  END
