x3124-x0759
     RDKit          3D

 29 32  0  0  0  0  0  0  0  0999 V2000
    7.1930   -3.3100   19.2900 C   0  0  0  0  0  0  0  0  0  0  0  0
    4.7090   -3.0000   21.4830 O   0  0  0  0  0  0  0  0  0  0  0  0
    6.5410   -3.9590   20.4890 C   0  0  0  0  0  0  0  0  0  0  0  0
    7.4220    0.9770   22.9970 N   0  0  0  0  0  0  0  0  0  0  0  0
    8.7720    1.3790   21.1980 O   0  0  0  0  0  0  0  0  0  0  0  0
    6.0020   -2.8760   21.3300 C   0  0  0  0  0  0  0  0  0  0  0  0
    7.3690   -0.4580   21.1300 C   0  0  2  0  0  0  0  0  0  0  0  0
    7.9170    0.6600   21.7600 C   0  0  0  0  0  0  0  0  0  0  0  0
    7.9400    2.2700   23.3150 C   0  0  0  0  0  0  0  0  0  0  0  0
   12.2320   -1.7330   23.8370 C   0  0  0  0  0  0  0  0  0  0  0  0
   12.4510   -0.4590   24.6570 C   0  0  0  0  0  0  0  0  0  0  0  0
   12.9670   -1.9460   22.6660 C   0  0  0  0  0  0  0  0  0  0  0  0
   12.7350   -2.7400   24.8510 C   0  0  0  0  0  0  0  0  0  0  0  0
    6.1990    0.3840   17.7060 N   0  0  0  0  0  0  0  0  0  0  0  0
    5.0850    1.0900   17.9560 C   0  0  0  0  0  0  0  0  0  0  0  0
    4.5870    1.3420   19.2220 C   0  0  0  0  0  0  0  0  0  0  0  0
    5.3160    0.8270   20.2950 C   0  0  0  0  0  0  0  0  0  0  0  0
    6.4870    0.1010   20.0420 C   0  0  0  0  0  0  0  0  0  0  0  0
    6.8690   -0.0920   18.7490 C   0  0  0  0  0  0  0  0  0  0  0  0
    8.3940   -2.6670   22.2560 C   0  0  1  0  0  0  0  0  0  0  0  0
    9.9650   -2.4300   22.2950 C   0  0  0  0  0  0  0  0  0  0  0  0
   10.7160   -1.9650   23.5970 C   0  0  0  0  0  0  0  0  0  0  0  0
    9.6610   -1.7420   24.6840 C   0  0  0  0  0  0  0  0  0  0  0  0
    8.4450   -1.0420   24.0530 C   0  0  0  0  0  0  0  0  0  0  0  0
    7.7070   -1.9950   23.3190 C   0  0  1  0  0  0  0  0  0  0  0  0
    7.1290   -1.8360   21.8790 C   0  0  2  0  0  0  0  0  0  0  0  0
    7.1710   -3.0230   24.2760 O   0  0  0  0  0  0  0  0  0  0  0  0
    7.3130   -4.2030   23.6220 C   0  0  0  0  0  0  0  0  0  0  0  0
    7.9920   -4.0700   22.4710 C   0  0  0  0  0  0  0  0  0  0  0  0
  1  3  1  0
  2  6  2  0
  3  6  1  0
  4  8  1  0
  5  8  2  0
  7  8  1  1
  4  9  1  0
 10 11  1  0
 10 12  1  0
 10 13  1  0
 14 15  2  0
 15 16  1  0
 16 17  2  0
  7 18  1  0
 17 18  1  0
 14 19  1  0
 18 19  2  0
 20 21  1  6
 10 22  1  0
 21 22  2  0
 22 23  1  0
 23 24  1  0
 20 25  1  0
 25 24  1  1
 26  6  1  1
  7 26  1  0
 20 26  1  0
 25 26  1  0
 25 27  1  0
 27 28  1  0
 20 29  1  0
 28 29  2  0
M  END
