x3124-x2646
     RDKit          3D

 29 30  0  0  0  0  0  0  0  0999 V2000
    6.8250   -1.6590   21.8690 N   0  0  0  0  0  0  0  0  0  0  0  0
    6.7590   -4.9340   20.4810 C   0  0  0  0  0  0  0  0  0  0  0  0
    4.8140   -3.0320   21.2730 O   0  0  0  0  0  0  0  0  0  0  0  0
    6.8210   -4.1490   21.7900 C   0  0  0  0  0  0  0  0  0  0  0  0
    7.3890    1.3870   23.1460 N   0  0  0  0  0  0  0  0  0  0  0  0
    8.5430    0.7720   21.3120 O   0  0  0  0  0  0  0  0  0  0  0  0
    6.0520   -2.8760   21.6220 C   0  0  0  0  0  0  0  0  0  0  0  0
    6.5140   -0.2340   21.6130 C   0  0  1  0  0  0  0  0  0  0  0  0
    7.5280    0.6340   22.0030 C   0  0  0  0  0  0  0  0  0  0  0  0
    8.1460    2.6450   22.9360 C   0  0  0  0  0  0  0  0  0  0  0  0
   12.2750   -1.8500   24.3430 C   0  0  0  0  0  0  0  0  0  0  0  0
   12.4010   -0.6060   25.1870 C   0  0  0  0  0  0  0  0  0  0  0  0
   13.3460   -2.1320   23.5270 C   0  0  0  0  0  0  0  0  0  0  0  0
   12.1550   -2.9960   25.2940 C   0  0  0  0  0  0  0  0  0  0  0  0
    4.0360    1.3100   21.4460 C   0  0  0  0  0  0  0  0  0  0  0  0
    6.3310    0.4310   17.7830 N   0  0  0  0  0  0  0  0  0  0  0  0
    5.1950    1.1560   17.8060 C   0  0  0  0  0  0  0  0  0  0  0  0
    4.4520    1.4400   18.9550 C   0  0  0  0  0  0  0  0  0  0  0  0
    4.8660    0.9790   20.1940 C   0  0  0  0  0  0  0  0  0  0  0  0
    6.0110    0.2460   20.2810 C   0  0  0  0  0  0  0  0  0  0  0  0
    6.7380   -0.0160   18.9710 C   0  0  0  0  0  0  0  0  0  0  0  0
    9.2540   -1.4530   21.6050 C   0  0  0  0  0  0  0  0  0  0  0  0
   10.6630   -1.4960   22.2190 C   0  0  0  0  0  0  0  0  0  0  0  0
   10.9060   -1.8270   23.6950 C   0  0  0  0  0  0  0  0  0  0  0  0
    9.6440   -2.1290   24.5180 C   0  0  0  0  0  0  0  0  0  0  0  0
    8.3790   -2.0730   23.8880 C   0  0  0  0  0  0  0  0  0  0  0  0
    8.1420   -1.7270   22.4070 C   0  0  0  0  0  0  0  0  0  0  0  0
   13.4230   -1.5990   20.9840 Cl  0  0  0  0  0  0  0  0  0  0  0  0
   13.0160   -2.7490   22.2150 C   0  0  0  0  0  0  0  0  0  0  0  0
  2  4  1  0
  1  7  1  0
  3  7  2  0
  4  7  1  0
  1  8  1  0
  5  9  1  0
  6  9  2  0
  8  9  1  6
  5 10  1  0
 11 12  1  0
 11 13  1  0
 11 14  1  0
 16 17  2  0
 17 18  1  0
 15 19  1  0
 18 19  2  0
  8 20  1  0
 19 20  1  0
 16 21  1  0
 20 21  2  0
 22 23  2  0
 11 24  1  0
 23 24  1  0
 24 25  2  0
 25 26  1  0
  1 27  1  0
 22 27  1  0
 26 27  2  0
 13 29  1  0
 28 29  1  0
M  END
