x3124-x1380-x3113
     RDKit          3D

 43 47  0  0  0  0  0  0  0  0999 V2000
    7.0420   -1.9850   22.1640 C   0  0  2  0  0  0  0  0  0  0  0  0
    8.1160   -4.7800   21.0800 C   0  0  0  0  0  0  0  0  0  0  0  0
    5.0770   -3.2810   20.9510 O   0  0  0  0  0  0  0  0  0  0  0  0
    7.9390    1.2200   23.3640 N   0  0  0  0  0  0  0  0  0  0  0  0
    8.9230    0.5250   21.2500 O   0  0  0  0  0  0  0  0  0  0  0  0
    6.2850   -3.2020   21.5020 C   0  0  0  0  0  0  0  0  0  0  0  0
   11.6200    4.0480   22.7030 O   0  0  0  0  0  0  0  0  0  0  0  0
    6.7300   -0.4180   21.8830 C   0  0  1  0  0  0  0  0  0  0  0  0
    7.9190    0.4720   22.1950 C   0  0  0  0  0  0  0  0  0  0  0  0
    8.8850    2.2440   23.5990 C   0  0  0  0  0  0  0  0  0  0  0  0
   10.1710    2.1300   22.7870 C   0  0  0  0  0  0  0  0  0  0  0  0
   11.3330    2.8550   23.4420 C   0  0  0  0  0  0  0  0  0  0  0  0
   12.9910    4.4390   22.7680 C   0  0  0  0  0  0  0  0  0  0  0  0
   12.5460   -1.7720   24.2970 C   0  0  0  0  0  0  0  0  0  0  0  0
   13.4580   -2.1330   23.1980 C   0  0  0  0  0  0  0  0  0  0  0  0
   12.8390   -2.9950   25.0790 C   0  0  0  0  0  0  0  0  0  0  0  0
   12.5620   -0.4690   24.9370 C   0  0  0  0  0  0  0  0  0  0  0  0
    4.4480   -2.6460   25.5270 O   0  0  0  0  0  0  0  0  0  0  0  0
    5.5120   -3.3040   25.2960 C   0  0  0  0  0  0  0  0  0  0  0  0
    6.4370    0.1410   18.0270 N   0  0  0  0  0  0  0  0  0  0  0  0
    5.3300    0.9030   18.0230 C   0  0  0  0  0  0  0  0  0  0  0  0
    4.6430    1.2560   19.1490 C   0  0  0  0  0  0  0  0  0  0  0  0
    5.0850    0.8260   20.3980 C   0  0  0  0  0  0  0  0  0  0  0  0
    6.2370    0.0280   20.4960 C   0  0  0  0  0  0  0  0  0  0  0  0
    6.8960   -0.2980   19.2280 C   0  0  0  0  0  0  0  0  0  0  0  0
    9.6790   -2.2230   21.8050 C   0  0  0  0  0  0  0  0  0  0  0  0
   10.9620   -2.1730   22.3120 C   0  0  0  0  0  0  0  0  0  0  0  0
   11.1620   -1.8620   23.6540 C   0  0  0  0  0  0  0  0  0  0  0  0
   10.0860   -1.6150   24.4280 C   0  0  0  0  0  0  0  0  0  0  0  0
    8.7960   -1.6580   23.9230 C   0  0  0  0  0  0  0  0  0  0  0  0
    8.5690   -1.9640   22.6000 C   0  0  0  0  0  0  0  0  0  0  0  0
    7.1820   -4.4080   21.7920 C   0  0  1  0  0  0  0  0  0  0  0  0
    6.2520   -5.4380   22.4030 C   0  0  0  0  0  0  0  0  0  0  0  0
    5.7930   -4.9900   23.6500 C   0  0  0  0  0  0  0  0  0  0  0  0
    5.7770   -3.6000   23.8530 C   0  0  2  0  0  0  0  0  0  0  0  0
    6.9270   -2.9240   23.4920 C   0  0  1  0  0  0  0  0  0  0  0  0
    7.8830   -3.7730   23.0090 C   0  0  0  0  0  0  0  0  0  0  0  0
    7.7090   -4.1520   26.4070 C   0  0  0  0  0  0  0  0  0  0  0  0
    8.0230   -4.8580   27.5730 C   0  0  0  0  0  0  0  0  0  0  0  0
    6.9730   -5.1130   28.4450 C   0  0  0  0  0  0  0  0  0  0  0  0
    6.0580   -4.0890   28.7110 C   0  0  0  0  0  0  0  0  0  0  0  0
    5.8070   -3.2140   27.7020 C   0  0  0  0  0  0  0  0  0  0  0  0
    6.3100   -3.6810   26.3990 N   0  0  0  0  0  0  0  0  0  0  0  0
  1  6  1  0
  3  6  2  0
  1  8  1  0
  4  9  1  0
  5  9  2  0
  8  9  1  6
  4 10  1  0
 10 11  1  0
  7 12  1  0
 11 12  1  0
  7 13  1  0
 14 15  1  0
 14 16  1  0
 14 17  1  0
 18 19  2  0
 20 21  2  0
 21 22  1  0
 22 23  2  0
  8 24  1  0
 23 24  1  0
 20 25  1  0
 24 25  2  0
 26 27  2  0
 14 28  1  0
 27 28  1  0
 28 29  2  0
 29 30  1  0
  1 31  1  6
 26 31  1  0
 30 31  2  0
 32  2  1  6
  6 32  1  0
 32 33  1  0
 33 34  1  0
 35 19  1  1
 34 35  1  0
  1 36  1  0
 35 36  1  0
 32 37  1  0
 36 37  1  6
 38 39  1  0
 39 40  1  0
 40 41  1  0
 41 42  1  0
 19 43  1  0
 38 43  1  0
 42 43  1  0
M  END
