x3124-x3117-x2694-x0771
     RDKit          3D

 53 58  0  0  0  0  0  0  0  0999 V2000
    6.8760   -1.3810   21.9770 C   0  0  1  0  0  0  0  0  0  0  0  0
    7.3930   -3.5190   20.1930 C   0  0  0  0  0  0  0  0  0  0  0  0
    4.8400   -2.9960   21.1830 O   0  0  0  0  0  0  0  0  0  0  0  0
    6.6530   -2.5980   19.7440 C   0  0  0  0  0  0  0  0  0  0  0  0
    7.6790    2.1900   22.8820 N   0  0  0  0  0  0  0  0  0  0  0  0
    8.8110    1.2610   21.1390 O   0  0  0  0  0  0  0  0  0  0  0  0
    6.0170   -2.3530   20.9720 C   0  0  0  0  0  0  0  0  0  0  0  0
   10.9620    6.6690   23.8550 O   0  0  0  0  0  0  0  0  0  0  0  0
    6.6280    0.2090   21.6980 C   0  0  1  0  0  0  0  0  0  0  0  0
    7.8250    1.2450   21.8780 C   0  0  0  0  0  0  0  0  0  0  0  0
   10.3060    1.8530   24.0390 C   0  0  0  0  0  0  0  0  0  0  0  0
   11.8490    6.5310   24.9730 C   0  0  0  0  0  0  0  0  0  0  0  0
   12.2500   -1.4150   22.8810 C   0  0  0  0  0  0  0  0  0  0  0  0
   12.6830    0.0160   23.2770 C   0  0  0  0  0  0  0  0  0  0  0  0
   12.8580   -1.7990   21.5140 C   0  0  0  0  0  0  0  0  0  0  0  0
   12.9910   -2.3700   23.8290 C   0  0  0  0  0  0  0  0  0  0  0  0
   12.2950   -2.7710   25.0280 C   0  0  0  0  0  0  0  0  0  0  0  0
    0.7600   -1.4790   26.1650 C   0  0  0  0  0  0  0  0  0  0  0  0
    4.3480   -6.9840   25.6830 O   0  0  0  0  0  0  0  0  0  0  0  0
    6.0110   -5.3510   26.4320 O   0  0  0  0  0  0  0  0  0  0  0  0
    1.9130   -6.1130   24.8570 C   0  0  0  0  0  0  0  0  0  0  0  0
    5.0340   -5.7320   25.4420 S   0  0  0  0  0  0  0  0  0  0  0  0
    6.0950   -2.0550   23.0450 C   0  0  0  0  0  0  0  0  0  0  0  0
    5.6510   -3.2940   22.4860 C   0  0  0  0  0  0  0  0  0  0  0  0
    6.3340    0.5510   17.7430 N   0  0  0  0  0  0  0  0  0  0  0  0
    5.2300    1.2920   17.7890 C   0  0  0  0  0  0  0  0  0  0  0  0
    4.5220    1.7060   18.8910 C   0  0  0  0  0  0  0  0  0  0  0  0
    4.9720    1.3440   20.1590 C   0  0  0  0  0  0  0  0  0  0  0  0
    6.1240    0.5730   20.3180 C   0  0  0  0  0  0  0  0  0  0  0  0
    6.8210    0.1590   19.0560 C   0  0  0  0  0  0  0  0  0  0  0  0
    8.6460   -1.8480   23.7610 N   0  0  0  0  0  0  0  0  0  0  0  0
   10.0320   -1.8530   23.9970 O   0  0  0  0  0  0  0  0  0  0  0  0
   10.7080   -1.4980   22.8590 C   0  0  0  0  0  0  0  0  0  0  0  0
    9.6680   -1.2840   21.9200 C   0  0  0  0  0  0  0  0  0  0  0  0
    8.3870   -1.4930   22.4690 C   0  0  0  0  0  0  0  0  0  0  0  0
    9.7590    3.2330   23.6630 C   0  0  0  0  0  0  0  0  0  0  0  0
   10.5640    4.3560   23.8940 C   0  0  0  0  0  0  0  0  0  0  0  0
   10.1110    5.6180   23.5810 C   0  0  0  0  0  0  0  0  0  0  0  0
    8.8600    5.7440   23.0270 C   0  0  0  0  0  0  0  0  0  0  0  0
    8.0560    4.6450   22.7880 C   0  0  0  0  0  0  0  0  0  0  0  0
    8.4760    3.3650   23.1010 C   0  0  0  0  0  0  0  0  0  0  0  0
    1.8420   -2.5120   25.9850 C   0  0  0  0  0  0  0  0  0  0  0  0
    1.4950   -3.8060   25.5250 C   0  0  0  0  0  0  0  0  0  0  0  0
    2.4480   -4.7930   25.3500 C   0  0  0  0  0  0  0  0  0  0  0  0
    3.7570   -4.4880   25.6370 C   0  0  0  0  0  0  0  0  0  0  0  0
    4.0650   -3.2250   26.0770 C   0  0  0  0  0  0  0  0  0  0  0  0
    3.1310   -2.2070   26.2630 C   0  0  0  0  0  0  0  0  0  0  0  0
    6.6020   -4.2050   21.5260 C   0  0  0  0  0  0  0  0  0  0  0  0
    6.2490   -5.5800   21.6820 C   0  0  0  0  0  0  0  0  0  0  0  0
    5.4420   -6.1560   22.7380 C   0  0  0  0  0  0  0  0  0  0  0  0
    5.7440   -5.3590   23.9240 N   0  0  0  0  0  0  0  0  0  0  0  0
    7.0660   -4.8770   23.8020 C   0  0  0  0  0  0  0  0  0  0  0  0
    7.5130   -4.8800   22.5250 C   0  0  0  0  0  0  0  0  0  0  0  0
  2  4  1  0
  1  7  1  0
  3  7  2  0
  4  7  1  0
  1  9  1  0
  5 10  1  0
  6 10  2  0
  9 10  1  6
  8 12  1  0
 13 14  1  0
 13 15  1  0
 13 16  1  0
 16 17  1  0
 19 22  2  0
 20 22  2  0
  1 23  1  0
 23 24  1  0
 25 26  2  0
 26 27  1  0
 27 28  2  0
  9 29  1  0
 28 29  1  0
 25 30  1  0
 29 30  2  0
 31 32  1  0
 13 33  1  0
 32 33  1  0
 33 34  2  0
  1 35  1  1
 31 35  2  0
 34 35  1  0
 11 36  1  0
 36 37  2  0
  8 38  1  0
 37 38  1  0
 38 39  2  0
 39 40  1  0
  5 41  1  0
 36 41  1  0
 40 41  2  0
 18 42  1  0
 42 43  2  0
 21 44  1  0
 43 44  1  0
 22 45  1  0
 44 45  2  0
 45 46  1  0
 42 47  1  0
 46 47  2  0
  2 48  1  0
 48 24  1  0
 48 49  1  0
 49 50  1  0
 22 51  1  0
 50 51  1  0
 51 52  1  0
 48 53  1  0
 52 53  1  0
M  END
