x3124-x2608-x3110-x0734
     RDKit          3D

 48 51  0  0  0  0  0  0  0  0999 V2000
    8.0270    1.0040   23.2680 N   0  0  0  0  0  0  0  0  0  0  0  0
   13.3830    5.4460   22.5230 C   0  0  0  0  0  0  0  0  0  0  0  0
   11.7280    3.6480   22.5530 N   0  0  0  0  0  0  0  0  0  0  0  0
   12.0370    4.9600   21.9670 C   0  0  0  0  0  0  0  0  0  0  0  0
    7.0120   -1.6180   21.7340 N   0  0  0  0  0  0  0  0  0  0  0  0
   10.4430    4.5090   24.1700 O   0  0  0  0  0  0  0  0  0  0  0  0
   10.7240    3.4750   23.4760 C   0  0  0  0  0  0  0  0  0  0  0  0
    8.5360    1.3230   21.1200 O   0  0  0  0  0  0  0  0  0  0  0  0
   10.1420    2.2080   23.5210 C   0  0  0  0  0  0  0  0  0  0  0  0
    4.9480   -3.0980   21.0340 O   0  0  0  0  0  0  0  0  0  0  0  0
    8.6410    2.2040   23.6650 C   0  0  0  0  0  0  0  0  0  0  0  0
    7.7870    0.7280   21.9320 C   0  0  0  0  0  0  0  0  0  0  0  0
    6.7070   -0.1500   21.5420 C   0  0  1  0  0  0  0  0  0  0  0  0
    6.2480   -2.8570   21.2670 C   0  0  0  0  0  0  0  0  0  0  0  0
    8.3770   -3.6180   20.4770 C   0  0  0  0  0  0  0  0  0  0  0  0
   12.2280   -2.0040   24.3320 C   0  0  0  0  0  0  0  0  0  0  0  0
   12.5900   -0.6650   24.9340 C   0  0  0  0  0  0  0  0  0  0  0  0
   13.2780   -1.9700   23.2820 C   0  0  0  0  0  0  0  0  0  0  0  0
   11.9850   -3.2050   25.1450 C   0  0  0  0  0  0  0  0  0  0  0  0
    5.0820   -4.9980   26.3940 N   0  0  0  0  0  0  0  0  0  0  0  0
    4.4290   -5.7570   25.6600 O   0  0  0  0  0  0  0  0  0  0  0  0
    4.6760   -3.9010   26.8110 O   0  0  0  0  0  0  0  0  0  0  0  0
    6.3730    0.4580   17.7400 N   0  0  0  0  0  0  0  0  0  0  0  0
    5.1780    1.3190   17.7210 C   0  0  0  0  0  0  0  0  0  0  0  0
    4.3900    1.7270   18.9450 C   0  0  0  0  0  0  0  0  0  0  0  0
    4.9200    1.1980   20.2530 C   0  0  0  0  0  0  0  0  0  0  0  0
    6.1690    0.3220   20.2350 C   0  0  0  0  0  0  0  0  0  0  0  0
    6.8210    0.0010   18.9050 C   0  0  0  0  0  0  0  0  0  0  0  0
    9.4800   -1.4200   21.6830 C   0  0  0  0  0  0  0  0  0  0  0  0
   10.7490   -1.5120   22.2870 C   0  0  0  0  0  0  0  0  0  0  0  0
   10.8800   -1.8740   23.6240 C   0  0  0  0  0  0  0  0  0  0  0  0
    9.7220   -2.1320   24.3500 C   0  0  0  0  0  0  0  0  0  0  0  0
    8.4720   -2.0410   23.7380 C   0  0  0  0  0  0  0  0  0  0  0  0
    8.3190   -1.6960   22.3910 C   0  0  0  0  0  0  0  0  0  0  0  0
    6.5460   -5.2160   26.4230 C   0  0  0  0  0  0  0  0  0  0  0  0
    7.2350   -5.0230   25.0600 C   0  0  0  0  0  0  0  0  0  0  0  0
    8.7590   -5.2380   25.0760 C   0  0  0  0  0  0  0  0  0  0  0  0
    9.4020   -5.5820   26.2540 C   0  0  0  0  0  0  0  0  0  0  0  0
    8.5960   -5.7520   27.5570 C   0  0  0  0  0  0  0  0  0  0  0  0
    7.1960   -5.5650   27.6130 C   0  0  0  0  0  0  0  0  0  0  0  0
    7.2560   -4.0600   21.1290 C   0  0  0  0  0  0  0  0  0  0  0  0
    6.6390   -5.5140   21.5450 C   0  0  0  0  0  0  0  0  0  0  0  0
    6.4560   -5.8130   22.9480 C   0  0  0  0  0  0  0  0  0  0  0  0
    6.6350   -4.6860   23.9080 N   0  0  0  0  0  0  0  0  0  0  0  0
    7.1030   -3.5810   23.4090 C   0  0  0  0  0  0  0  0  0  0  0  0
    8.0160   -3.8430   22.4370 C   0  0  0  0  0  0  0  0  0  0  0  0
   12.8000    1.5740   22.9420 C   0  0  0  0  0  0  0  0  0  0  0  0
   12.9480    2.9590   22.7030 C   0  0  0  0  0  0  0  0  0  0  0  0
  2  4  1  0
  3  4  1  0
  3  7  1  0
  6  7  2  0
  7  9  1  0
  1 11  1  0
  9 11  1  0
  1 12  1  0
  8 12  2  0
  5 13  1  0
 13 12  1  6
  5 14  1  0
 10 14  2  0
 16 17  1  0
 16 18  1  0
 16 19  1  0
 20 21  2  0
 20 22  1  0
 23 24  2  0
 24 25  1  0
 25 26  2  0
 13 27  1  0
 26 27  1  0
 23 28  1  0
 27 28  2  0
 29 30  2  0
 16 31  1  0
 30 31  1  0
 31 32  2  0
 32 33  1  0
  5 34  1  0
 29 34  1  0
 33 34  2  0
 20 35  1  0
 35 36  2  0
 36 37  1  0
 37 38  2  0
 38 39  1  0
 35 40  1  0
 39 40  2  0
 41 14  1  0
 15 41  1  0
 41 42  1  0
 42 43  1  0
 36 44  1  0
 43 44  1  0
 44 45  1  0
 41 46  1  0
 45 46  1  0
  3 48  1  0
 47 48  1  0
M  CHG  2  20   1  22  -1
M  END
