x3124-x2569
     RDKit          3D

 29 30  0  0  0  0  0  0  0  0999 V2000
    6.8240   -1.6930   21.8730 N   0  0  0  0  0  0  0  0  0  0  0  0
    6.7500   -4.9220   20.4400 C   0  0  0  0  0  0  0  0  0  0  0  0
    4.8060   -3.0350   21.2920 O   0  0  0  0  0  0  0  0  0  0  0  0
    6.7910   -4.1870   21.7790 C   0  0  0  0  0  0  0  0  0  0  0  0
    7.3740    1.3820   23.1440 N   0  0  0  0  0  0  0  0  0  0  0  0
    8.5100    0.7640   21.2990 O   0  0  0  0  0  0  0  0  0  0  0  0
    6.0430   -2.9010   21.6280 C   0  0  0  0  0  0  0  0  0  0  0  0
    6.4950   -0.2650   21.6380 C   0  0  1  0  0  0  0  0  0  0  0  0
    7.5050    0.6190   22.0050 C   0  0  0  0  0  0  0  0  0  0  0  0
    8.1360    2.6350   22.9300 C   0  0  0  0  0  0  0  0  0  0  0  0
   12.4560   -1.7680   24.3060 C   0  0  0  0  0  0  0  0  0  0  0  0
   12.5170   -0.5490   25.1780 C   0  0  0  0  0  0  0  0  0  0  0  0
   13.3710   -1.8800   23.2900 C   0  0  0  0  0  0  0  0  0  0  0  0
   12.7990   -2.8900   25.2430 C   0  0  0  0  0  0  0  0  0  0  0  0
    6.2940    0.4490   17.7980 N   0  0  0  0  0  0  0  0  0  0  0  0
    5.2000    1.2530   17.7600 C   0  0  0  0  0  0  0  0  0  0  0  0
    4.5100    1.5520   18.9350 C   0  0  0  0  0  0  0  0  0  0  0  0
    4.9600    1.0320   20.1400 C   0  0  0  0  0  0  0  0  0  0  0  0
    6.0620    0.2200   20.2800 C   0  0  0  0  0  0  0  0  0  0  0  0
    6.6930   -0.0530   19.1090 C   0  0  0  0  0  0  0  0  0  0  0  0
    9.2890   -1.4480   21.7450 C   0  0  0  0  0  0  0  0  0  0  0  0
   10.7030   -1.4560   22.3170 C   0  0  0  0  0  0  0  0  0  0  0  0
   11.0300   -1.8140   23.7690 C   0  0  0  0  0  0  0  0  0  0  0  0
    9.7360   -2.1730   24.5290 C   0  0  0  0  0  0  0  0  0  0  0  0
    8.3460   -2.1340   23.8550 C   0  0  0  0  0  0  0  0  0  0  0  0
    8.1470   -1.7700   22.4980 C   0  0  0  0  0  0  0  0  0  0  0  0
   13.8740   -1.2940   20.5130 N   0  0  0  0  0  0  0  0  0  0  0  0
   12.8500   -1.9250   21.0480 C   0  0  0  0  0  0  0  0  0  0  0  0
   12.9010   -2.7210   22.1540 C   0  0  0  0  0  0  0  0  0  0  0  0
  2  4  1  0
  1  7  1  0
  3  7  2  0
  4  7  1  0
  1  8  1  0
  5  9  1  0
  6  9  2  0
  8  9  1  6
  5 10  1  0
 11 12  1  0
 11 13  1  0
 11 14  1  0
 15 16  2  0
 16 17  1  0
 17 18  2  0
  8 19  1  0
 18 19  1  0
 15 20  1  0
 19 20  2  0
 21 22  2  0
 11 23  1  0
 22 23  1  0
 23 24  2  0
 24 25  1  0
  1 26  1  0
 21 26  1  0
 25 26  2  0
 27 28  3  0
 13 29  1  0
 28 29  1  0
M  END
