x3124-x0755-x3117-x0771
     RDKit          3D

 55 62  0  0  0  0  0  0  0  0999 V2000
    2.2660   -5.4150   25.1640 N   0  0  0  0  0  0  0  0  0  0  0  0
    5.5060   -1.6680   25.7930 F   0  0  0  0  0  0  0  0  0  0  0  0
    0.3800   -0.8960   26.2410 C   0  0  0  0  0  0  0  0  0  0  0  0
    2.2490   -4.0720   25.4420 C   0  0  0  0  0  0  0  0  0  0  0  0
    3.4980   -3.3120   25.5360 C   0  0  0  0  0  0  0  0  0  0  0  0
    4.2570   -2.0930   25.7630 C   0  0  0  0  0  0  0  0  0  0  0  0
    2.9320   -1.5540   25.9520 C   0  0  0  0  0  0  0  0  0  0  0  0
    1.4670   -1.8620   25.9650 C   0  0  0  0  0  0  0  0  0  0  0  0
    1.1570   -3.3150   25.6620 C   0  0  0  0  0  0  0  0  0  0  0  0
    1.4170   -6.0410   24.1720 C   0  0  0  0  0  0  0  0  0  0  0  0
    6.8570   -1.5910   22.0200 C   0  0  1  0  0  0  0  0  0  0  0  0
    8.1500   -3.4260   20.5970 C   0  0  0  0  0  0  0  0  0  0  0  0
    5.1820   -3.5300   20.7640 O   0  0  0  0  0  0  0  0  0  0  0  0
    6.8280   -3.7980   21.2470 C   0  0  2  0  0  0  0  0  0  0  0  0
    7.8120    1.8770   22.9600 N   0  0  0  0  0  0  0  0  0  0  0  0
    8.8290    1.1570   21.0370 O   0  0  0  0  0  0  0  0  0  0  0  0
    5.8340   -2.6190   21.3040 C   0  0  0  0  0  0  0  0  0  0  0  0
    6.7220   -0.0390   21.5860 C   0  0  1  0  0  0  0  0  0  0  0  0
    7.8930    0.9970   21.8010 C   0  0  0  0  0  0  0  0  0  0  0  0
   12.4160   -1.9420   24.1800 C   0  0  0  0  0  0  0  0  0  0  0  0
   12.6840   -0.6300   24.8840 C   0  0  0  0  0  0  0  0  0  0  0  0
   13.3980   -2.1180   22.9980 C   0  0  0  0  0  0  0  0  0  0  0  0
   12.7740   -3.0590   25.1830 C   0  0  0  0  0  0  0  0  0  0  0  0
    3.7400   -5.5490   26.8500 N   0  0  0  0  0  0  0  0  0  0  0  0
    5.3410   -3.4330   26.8880 O   0  0  0  0  0  0  0  0  0  0  0  0
    4.9860   -4.7530   26.4500 S   0  0  2  0  0  0  0  0  0  0  0  0
    6.0640   -1.6050   23.3390 C   0  0  0  0  0  0  0  0  0  0  0  0
    5.9280   -6.8390   26.6720 O   0  0  0  0  0  0  0  0  0  0  0  0
    8.0420   -5.9330   25.5640 O   0  0  0  0  0  0  0  0  0  0  0  0
    6.7050   -5.7880   26.0250 S   0  0  0  0  0  0  0  0  0  0  0  0
    6.2750    0.3700   17.8740 N   0  0  0  0  0  0  0  0  0  0  0  0
    5.1750    1.1470   17.8150 C   0  0  0  0  0  0  0  0  0  0  0  0
    4.5490    1.5300   18.9580 C   0  0  0  0  0  0  0  0  0  0  0  0
    5.0470    1.1340   20.1660 C   0  0  0  0  0  0  0  0  0  0  0  0
    6.1950    0.3360   20.2210 C   0  0  0  0  0  0  0  0  0  0  0  0
    6.8360   -0.0750   19.0410 C   0  0  0  0  0  0  0  0  0  0  0  0
    9.4370   -1.5060   21.7760 C   0  0  0  0  0  0  0  0  0  0  0  0
   10.7270   -1.5930   22.3020 C   0  0  0  0  0  0  0  0  0  0  0  0
   11.0050   -1.9070   23.6160 C   0  0  0  0  0  0  0  0  0  0  0  0
    9.8540   -2.1640   24.3940 C   0  0  0  0  0  0  0  0  0  0  0  0
    8.5320   -2.0940   23.9070 C   0  0  0  0  0  0  0  0  0  0  0  0
    8.3170   -1.7450   22.5650 C   0  0  0  0  0  0  0  0  0  0  0  0
    9.7550    5.2690   24.1140 O   0  0  0  0  0  0  0  0  0  0  0  0
   10.5690    4.1610   23.7620 C   0  0  0  0  0  0  0  0  0  0  0  0
    9.8400    2.9820   23.8300 C   0  0  0  0  0  0  0  0  0  0  0  0
    8.7080    2.9870   22.9960 C   0  0  0  0  0  0  0  0  0  0  0  0
    7.9550    4.1990   23.0350 C   0  0  0  0  0  0  0  0  0  0  0  0
    8.6560    5.3870   23.2910 C   0  0  0  0  0  0  0  0  0  0  0  0
    5.5540   -5.1280   22.7030 C   0  0  1  0  0  0  0  0  0  0  0  0
    6.8350   -4.5630   22.5710 C   0  0  2  0  0  0  0  0  0  0  0  0
    6.2530   -4.1280   23.8620 C   0  0  2  0  0  0  0  0  0  0  0  0
    5.6030   -5.1190   24.8380 C   0  0  2  0  0  0  0  0  0  0  0  0
    4.9270   -6.0870   23.8920 C   0  0  2  0  0  0  0  0  0  0  0  0
    5.3880   -6.4000   22.7120 C   0  0  0  0  0  0  0  0  0  0  0  0
    3.1070   -6.3380   25.8860 C   0  0  0  0  0  0  0  0  0  0  0  0
  1  4  1  0
  4  5  1  0
  2  6  1  0
  5  6  2  0
  5  7  1  0
  6  7  1  0
  3  8  1  0
  7  8  2  0
  4  9  2  0
  8  9  1  0
  1 10  1  0
 14 12  1  1
 11 17  1  0
 13 17  2  0
 14 17  1  0
 11 18  1  0
 15 19  1  0
 16 19  2  0
 18 19  1  6
 20 21  1  0
 20 22  1  0
 20 23  1  0
 24 26  2  0
 25 26  2  0
 11 27  1  1
 28 30  2  0
 29 30  2  0
 31 32  2  0
 32 33  1  0
 33 34  2  0
 18 35  1  0
 34 35  1  0
 31 36  1  0
 35 36  2  0
 37 38  2  0
 20 39  1  0
 38 39  1  0
 39 40  2  0
 40 41  1  0
 11 42  1  0
 37 42  1  0
 41 42  2  0
 43 44  1  0
 44 45  1  0
 15 46  1  0
 45 46  1  0
 46 47  1  0
 43 48  1  0
 47 48  1  0
 50 14  1  6
 49 50  1  0
 49 51  1  0
 51 50  1  6
 26 52  1  6
 52 30  1  1
 51 52  1  0
 49 53  1  0
 52 53  1  0
 49 54  1  6
 53 54  1  6
  1 55  1  0
 24 55  1  0
M  END
