x3124-x0769
     RDKit          3D

 43 46  0  0  0  0  0  0  0  0999 V2000
    6.5380   -1.3470   22.2940 C   0  0  1  0  0  0  0  0  0  0  0  0
    7.4850   -4.6720   21.0740 C   0  0  0  0  0  0  0  0  0  0  0  0
    4.8810   -3.0470   21.0950 O   0  0  0  0  0  0  0  0  0  0  0  0
    7.2110   -3.4870   21.9040 C   0  0  0  0  0  0  0  0  0  0  0  0
    7.7330    1.6620   23.3150 N   0  0  0  0  0  0  0  0  0  0  0  0
    8.4780    1.2930   21.0330 O   0  0  0  0  0  0  0  0  0  0  0  0
    6.0030   -2.6590   21.6440 C   0  0  0  0  0  0  0  0  0  0  0  0
    6.3750    0.0770   21.7890 C   0  0  1  0  0  0  0  0  0  0  0  0
    7.5830    1.0330   22.0580 C   0  0  0  0  0  0  0  0  0  0  0  0
    8.1250    3.0620   23.1960 C   0  0  0  0  0  0  0  0  0  0  0  0
   12.2700   -2.0080   24.3380 C   0  0  0  0  0  0  0  0  0  0  0  0
   12.8520   -0.6640   24.7010 C   0  0  0  0  0  0  0  0  0  0  0  0
   13.2610   -1.6140   23.4770 C   0  0  0  0  0  0  0  0  0  0  0  0
   12.6340   -3.0580   25.1290 C   0  0  0  0  0  0  0  0  0  0  0  0
    5.9610   -5.2110   26.6800 O   0  0  0  0  0  0  0  0  0  0  0  0
    3.8510   -6.4630   25.6820 O   0  0  0  0  0  0  0  0  0  0  0  0
    5.6040   -2.3790   26.2240 F   0  0  0  0  0  0  0  0  0  0  0  0
    4.7410   -5.3240   25.6610 S   0  0  0  0  0  0  0  0  0  0  0  0
    5.4720   -1.7790   23.2760 C   0  0  0  0  0  0  0  0  0  0  0  0
    6.2840    0.2880   17.8010 N   0  0  0  0  0  0  0  0  0  0  0  0
    5.1780    1.1710   17.7860 C   0  0  0  0  0  0  0  0  0  0  0  0
    4.4950    1.6450   18.8970 C   0  0  0  0  0  0  0  0  0  0  0  0
    4.8840    1.2720   20.1540 C   0  0  0  0  0  0  0  0  0  0  0  0
    6.0720    0.3310   20.3260 C   0  0  0  0  0  0  0  0  0  0  0  0
    6.7660   -0.1650   19.0890 C   0  0  0  0  0  0  0  0  0  0  0  0
    9.2100   -1.4500   21.7240 C   0  0  0  0  0  0  0  0  0  0  0  0
   10.6410   -1.6300   22.2690 C   0  0  0  0  0  0  0  0  0  0  0  0
   10.8820   -1.8690   23.7610 C   0  0  0  0  0  0  0  0  0  0  0  0
    9.7570   -1.9300   24.5900 C   0  0  0  0  0  0  0  0  0  0  0  0
    8.3200   -1.7600   24.0920 C   0  0  0  0  0  0  0  0  0  0  0  0
    8.0170   -1.5240   22.7400 C   0  0  0  0  0  0  0  0  0  0  0  0
    4.2830   -2.5480   26.0750 C   0  0  0  0  0  0  0  0  0  0  0  0
    3.7190   -3.8940   25.8020 C   0  0  0  0  0  0  0  0  0  0  0  0
    2.1980   -4.0410   25.6420 C   0  0  0  0  0  0  0  0  0  0  0  0
    1.3800   -2.9050   25.7570 C   0  0  0  0  0  0  0  0  0  0  0  0
    1.9760   -1.5280   26.0380 C   0  0  0  0  0  0  0  0  0  0  0  0
    3.4880   -1.4010   26.1920 C   0  0  0  0  0  0  0  0  0  0  0  0
    6.7760   -5.8440   21.5350 N   0  0  0  0  0  0  0  0  0  0  0  0
    5.4050   -5.7490   21.5450 C   0  0  0  0  0  0  0  0  0  0  0  0
    4.7700   -5.9800   22.9650 C   0  0  0  0  0  0  0  0  0  0  0  0
    5.4230   -5.2180   24.0730 N   0  0  0  0  0  0  0  0  0  0  0  0
    6.8820   -5.1890   23.9650 C   0  0  0  0  0  0  0  0  0  0  0  0
    7.2040   -6.2240   22.8750 C   0  0  0  0  0  0  0  0  0  0  0  0
  2  4  1  0
  1  7  1  0
  3  7  2  0
  4  7  1  0
  1  8  1  0
  5  9  1  0
  6  9  2  0
  8  9  1  6
  5 10  1  0
 11 12  1  0
 11 13  1  0
 11 14  1  0
 15 18  2  0
 16 18  2  0
  1 19  1  1
 20 21  2  0
 21 22  1  0
 22 23  2  0
  8 24  1  0
 23 24  1  0
 20 25  1  0
 24 25  2  0
 26 27  2  0
 11 28  1  0
 27 28  1  0
 28 29  2  0
 29 30  1  0
  1 31  1  0
 26 31  1  0
 30 31  2  0
 17 32  1  0
 18 33  1  0
 32 33  2  0
 33 34  1  0
 34 35  2  0
 35 36  1  0
 32 37  1  0
 36 37  2  0
  2 38  1  0
 38 39  1  0
 39 40  1  0
 18 41  1  0
 40 41  1  0
 41 42  1  0
 38 43  1  0
 42 43  1  0
M  END
