x3124-x3117-x2754-x3113
     RDKit          3D

 50 56  0  0  0  0  0  0  0  0999 V2000
    6.9350   -1.7790   22.2090 C   0  0  2  0  0  0  0  0  0  0  0  0
    8.1480   -4.7470   21.1080 C   0  0  0  0  0  0  0  0  0  0  0  0
    5.0220   -3.1940   20.9380 O   0  0  0  0  0  0  0  0  0  0  0  0
    8.2370    1.4670   23.3510 N   0  0  0  0  0  0  0  0  0  0  0  0
    8.8170    0.7450   21.2870 O   0  0  0  0  0  0  0  0  0  0  0  0
    6.1610   -3.0330   21.5710 C   0  0  0  0  0  0  0  0  0  0  0  0
   11.2090    3.7870   23.2330 N   0  0  0  0  0  0  0  0  0  0  0  0
    6.6750   -0.2120   21.9410 C   0  0  1  0  0  0  0  0  0  0  0  0
    7.9810    0.6860   22.1820 C   0  0  0  0  0  0  0  0  0  0  0  0
   10.6180    1.5430   22.9940 C   0  0  0  0  0  0  0  0  0  0  0  0
   11.8090    2.4960   22.9820 C   0  0  0  0  0  0  0  0  0  0  0  0
   12.1640    4.8450   23.5550 C   0  0  0  0  0  0  0  0  0  0  0  0
   12.5090   -1.9500   24.2370 C   0  0  0  0  0  0  0  0  0  0  0  0
   13.4860   -2.0580   23.0850 C   0  0  0  0  0  0  0  0  0  0  0  0
   12.8280   -3.0520   25.2640 C   0  0  0  0  0  0  0  0  0  0  0  0
   12.7210   -0.6210   24.9410 C   0  0  0  0  0  0  0  0  0  0  0  0
    4.6800   -3.1370   25.3580 C   0  0  0  0  0  0  0  0  0  0  0  0
    3.4710   -2.9690   25.2230 O   0  0  0  0  0  0  0  0  0  0  0  0
    5.3830   -2.9830   26.5860 N   0  0  0  0  0  0  0  0  0  0  0  0
    4.9380   -2.0980   27.6660 C   0  0  0  0  0  0  0  0  0  0  0  0
    6.4800    0.2270   18.0920 N   0  0  0  0  0  0  0  0  0  0  0  0
    5.3870    1.0030   18.0050 C   0  0  0  0  0  0  0  0  0  0  0  0
    4.6570    1.4200   19.0930 C   0  0  0  0  0  0  0  0  0  0  0  0
    5.0750    1.0200   20.3610 C   0  0  0  0  0  0  0  0  0  0  0  0
    6.2090    0.2140   20.5200 C   0  0  0  0  0  0  0  0  0  0  0  0
    6.8710   -0.1540   19.3380 C   0  0  0  0  0  0  0  0  0  0  0  0
    9.5450   -2.2060   21.7930 C   0  0  0  0  0  0  0  0  0  0  0  0
   10.8520   -2.2440   22.2950 C   0  0  0  0  0  0  0  0  0  0  0  0
   11.1240   -1.9520   23.6320 C   0  0  0  0  0  0  0  0  0  0  0  0
   10.0510   -1.6230   24.4320 C   0  0  0  0  0  0  0  0  0  0  0  0
    8.7670   -1.5850   23.9290 C   0  0  0  0  0  0  0  0  0  0  0  0
    8.4620   -1.8770   22.5860 C   0  0  0  0  0  0  0  0  0  0  0  0
    9.3200    4.6660   24.4300 O   0  0  0  0  0  0  0  0  0  0  0  0
   10.0640    3.4750   24.1370 C   0  0  1  0  0  0  0  0  0  0  0  0
    9.3690    2.4480   23.1650 C   0  0  2  0  0  0  0  0  0  0  0  0
    9.0080    3.2110   21.9220 C   0  0  0  0  0  0  0  0  0  0  0  0
    8.1510    4.4260   22.2940 C   0  0  0  0  0  0  0  0  0  0  0  0
    8.8850    5.3450   23.2580 C   0  0  0  0  0  0  0  0  0  0  0  0
    6.9770   -4.2390   21.9730 C   0  0  2  0  0  0  0  0  0  0  0  0
    7.5620   -3.6520   23.2840 C   0  0  0  0  0  0  0  0  0  0  0  0
    6.5700   -2.4930   23.6120 C   0  0  2  0  0  0  0  0  0  0  0  0
    5.5000   -3.5450   24.1360 C   0  0  2  0  0  0  0  0  0  0  0  0
    4.8030   -4.4580   23.1040 C   0  0  0  0  0  0  0  0  0  0  0  0
    5.8700   -5.2360   22.3070 C   0  0  0  0  0  0  0  0  0  0  0  0
    6.9280   -4.7340   27.5070 C   0  0  0  0  0  0  0  0  0  0  0  0
    8.2120   -5.2670   27.6860 C   0  0  0  0  0  0  0  0  0  0  0  0
    9.3170   -4.6370   27.1440 C   0  0  0  0  0  0  0  0  0  0  0  0
    9.1390   -3.4720   26.4220 C   0  0  0  0  0  0  0  0  0  0  0  0
    7.8570   -2.9350   26.2450 C   0  0  0  0  0  0  0  0  0  0  0  0
    6.7140   -3.5500   26.7800 C   0  0  0  0  0  0  0  0  0  0  0  0
  1  6  1  0
  3  6  2  0
  1  8  1  0
  4  9  1  0
  5  9  2  0
  8  9  1  6
  7 11  1  0
 10 11  1  0
  7 12  1  0
 13 14  1  0
 13 15  1  0
 13 16  1  0
 17 18  2  0
 17 19  1  0
 19 20  1  0
 21 22  2  0
 22 23  1  0
 23 24  2  0
  8 25  1  0
 24 25  1  0
 21 26  1  0
 25 26  2  0
 27 28  2  0
 13 29  1  0
 28 29  1  0
 29 30  2  0
 30 31  1  0
  1 32  1  6
 27 32  1  0
 31 32  2  0
  7 34  1  0
 34 33  1  6
 35  4  1  1
 10 35  1  0
 34 35  1  0
 35 36  1  0
 36 37  1  0
 33 38  1  0
 37 38  1  0
 39  2  1  6
  6 39  1  0
 39 40  1  0
  1 41  1  0
 41 40  1  6
 42 17  1  6
 41 42  1  0
 42 43  1  0
 39 44  1  0
 43 44  1  0
 45 46  2  0
 46 47  1  0
 47 48  2  0
 48 49  1  0
 19 50  1  0
 45 50  1  0
 49 50  2  0
M  END
