x3124-x1425
     RDKit          3D

 39 43  0  0  0  0  0  0  0  0999 V2000
    6.8720   -1.8830   22.0590 C   0  0  2  0  0  0  0  0  0  0  0  0
    7.0480   -5.1620   20.4930 C   0  0  0  0  0  0  0  0  0  0  0  0
    4.9020   -3.0460   20.7180 O   0  0  0  0  0  0  0  0  0  0  0  0
    7.5050    1.4080   23.3070 N   0  0  0  0  0  0  0  0  0  0  0  0
    8.6550    0.7570   21.3540 O   0  0  0  0  0  0  0  0  0  0  0  0
    5.9570   -3.0410   21.3650 C   0  0  0  0  0  0  0  0  0  0  0  0
    6.5100   -0.3380   21.8190 C   0  0  1  0  0  0  0  0  0  0  0  0
    7.6810    0.6300   22.0990 C   0  0  0  0  0  0  0  0  0  0  0  0
    8.4470    2.3400   23.7330 C   0  0  0  0  0  0  0  0  0  0  0  0
   12.4540   -1.8080   24.0460 C   0  0  0  0  0  0  0  0  0  0  0  0
   12.6860   -0.4570   24.7050 C   0  0  0  0  0  0  0  0  0  0  0  0
   13.4040   -1.9980   22.8730 C   0  0  0  0  0  0  0  0  0  0  0  0
   12.8240   -2.9200   25.0240 C   0  0  0  0  0  0  0  0  0  0  0  0
    1.4980   -2.3010   28.5860 C   0  0  0  0  0  0  0  0  0  0  0  0
    2.9170   -2.2730   28.4820 O   0  0  0  0  0  0  0  0  0  0  0  0
    6.4290    0.2530   18.0350 N   0  0  0  0  0  0  0  0  0  0  0  0
    5.2450    1.0760   17.8810 C   0  0  0  0  0  0  0  0  0  0  0  0
    4.4470    1.4130   19.1320 C   0  0  0  0  0  0  0  0  0  0  0  0
    4.8770    0.9350   20.3570 C   0  0  0  0  0  0  0  0  0  0  0  0
    6.0230    0.1580   20.4500 C   0  0  0  0  0  0  0  0  0  0  0  0
    6.7380   -0.1490   19.2910 C   0  0  0  0  0  0  0  0  0  0  0  0
    9.5720   -2.3250   21.6730 C   0  0  0  0  0  0  0  0  0  0  0  0
   10.8510   -2.2740   22.2260 C   0  0  0  0  0  0  0  0  0  0  0  0
   11.0530   -1.8520   23.5250 C   0  0  0  0  0  0  0  0  0  0  0  0
    9.9850   -1.4720   24.3010 C   0  0  0  0  0  0  0  0  0  0  0  0
    8.7000   -1.5010   23.8020 C   0  0  0  0  0  0  0  0  0  0  0  0
    8.3830   -1.9090   22.4980 C   0  0  0  0  0  0  0  0  0  0  0  0
    3.4340   -2.5680   27.1970 C   0  0  0  0  0  0  0  0  0  0  0  0
    4.6890   -2.0100   26.9410 C   0  0  0  0  0  0  0  0  0  0  0  0
    5.2900   -2.2310   25.7030 C   0  0  0  0  0  0  0  0  0  0  0  0
    4.6140   -3.0070   24.7510 C   0  0  0  0  0  0  0  0  0  0  0  0
    3.3640   -3.5420   25.0580 C   0  0  0  0  0  0  0  0  0  0  0  0
    2.7360   -3.3500   26.2670 C   0  0  0  0  0  0  0  0  0  0  0  0
    6.6340   -4.3600   21.7130 C   0  0  2  0  0  0  0  0  0  0  0  0
    7.4900   -3.8520   22.8580 C   0  0  0  0  0  0  0  0  0  0  0  0
    6.5590   -2.8400   23.3180 C   0  0  2  0  0  0  0  0  0  0  0  0
    5.1920   -3.2470   23.4930 N   0  0  0  0  0  0  0  0  0  0  0  0
    4.7870   -4.6450   23.2770 C   0  0  0  0  0  0  0  0  0  0  0  0
    5.6730   -5.3440   22.3380 C   0  0  0  0  0  0  0  0  0  0  0  0
  1  6  1  0
  3  6  2  0
  1  7  1  0
  4  8  1  0
  5  8  2  0
  7  8  1  6
  4  9  1  0
 10 11  1  0
 10 12  1  0
 10 13  1  0
 14 15  1  0
 16 17  2  0
 17 18  1  0
 18 19  2  0
  7 20  1  0
 19 20  1  0
 16 21  1  0
 20 21  2  0
 22 23  2  0
 10 24  1  0
 23 24  1  0
 24 25  2  0
 25 26  1  0
  1 27  1  6
 22 27  1  0
 26 27  2  0
 15 28  1  0
 28 29  2  0
 29 30  1  0
 30 31  2  0
 31 32  1  0
 28 33  1  0
 32 33  2  0
 34  2  1  6
  6 34  1  0
 34 35  1  0
  1 36  1  0
 35 36  1  0
 31 37  1  0
 36 37  1  6
 37 38  1  0
 34 39  1  0
 38 39  1  0
M  END
