x3124-x1402
     RDKit          3D

 43 47  0  0  0  0  0  0  0  0999 V2000
    6.8840   -1.3660   21.9560 C   0  0  1  0  0  0  0  0  0  0  0  0
    6.7130   -3.8630   20.2500 C   0  0  0  0  0  0  0  0  0  0  0  0
    4.9210   -3.1140   20.9710 O   0  0  0  0  0  0  0  0  0  0  0  0
    6.5950   -2.3920   20.4580 C   0  0  0  0  0  0  0  0  0  0  0  0
    7.8800    1.6100   23.2700 N   0  0  0  0  0  0  0  0  0  0  0  0
    8.6010    1.5630   21.0810 O   0  0  0  0  0  0  0  0  0  0  0  0
    5.6670   -2.3260   21.5740 C   0  0  0  0  0  0  0  0  0  0  0  0
    6.6970    0.1550   21.6800 C   0  0  1  0  0  0  0  0  0  0  0  0
    7.8230    1.1630   21.9640 C   0  0  0  0  0  0  0  0  0  0  0  0
    8.8090    2.5670   23.6520 C   0  0  0  0  0  0  0  0  0  0  0  0
   12.3810   -1.8170   24.1380 C   0  0  0  0  0  0  0  0  0  0  0  0
   12.5910   -0.6610   24.8530 C   0  0  0  0  0  0  0  0  0  0  0  0
   13.3930   -1.8790   23.0020 C   0  0  0  0  0  0  0  0  0  0  0  0
   12.7450   -3.0060   25.0150 C   0  0  0  0  0  0  0  0  0  0  0  0
    0.7590   -1.4900   26.2610 Cl  0  0  0  0  0  0  0  0  0  0  0  0
    4.0070   -6.4480   25.5100 O   0  0  0  0  0  0  0  0  0  0  0  0
    6.0160   -5.4560   26.6200 O   0  0  0  0  0  0  0  0  0  0  0  0
    5.0480   -5.4490   25.5540 S   0  0  0  0  0  0  0  0  0  0  0  0
    6.1420   -2.1550   23.1320 C   0  0  0  0  0  0  0  0  0  0  0  0
    5.6240   -3.5560   22.6720 C   0  0  0  0  0  0  0  0  0  0  0  0
    6.4030    0.3880   17.9150 N   0  0  0  0  0  0  0  0  0  0  0  0
    5.2160    1.2130   17.8540 C   0  0  0  0  0  0  0  0  0  0  0  0
    4.5440    1.6550   18.9610 C   0  0  0  0  0  0  0  0  0  0  0  0
    5.0120    1.3110   20.2100 C   0  0  0  0  0  0  0  0  0  0  0  0
    6.1570    0.5250   20.3140 C   0  0  0  0  0  0  0  0  0  0  0  0
    6.8100    0.0870   19.1520 C   0  0  0  0  0  0  0  0  0  0  0  0
    9.4120   -1.9890   21.7430 C   0  0  0  0  0  0  0  0  0  0  0  0
   10.7040   -2.0970   22.2410 C   0  0  0  0  0  0  0  0  0  0  0  0
   10.9680   -1.7540   23.5630 C   0  0  0  0  0  0  0  0  0  0  0  0
    9.9250   -1.3220   24.3840 C   0  0  0  0  0  0  0  0  0  0  0  0
    8.6320   -1.2260   23.8410 C   0  0  0  0  0  0  0  0  0  0  0  0
    8.3610   -1.5500   22.5060 C   0  0  0  0  0  0  0  0  0  0  0  0
    6.5180   -4.5070   21.7440 C   0  0  0  0  0  0  0  0  0  0  0  0
    7.6310   -4.7500   22.5310 C   0  0  0  0  0  0  0  0  0  0  0  0
    7.2710   -5.0110   23.8750 C   0  0  0  0  0  0  0  0  0  0  0  0
    5.8380   -5.4520   24.0090 N   0  0  0  0  0  0  0  0  0  0  0  0
    5.1880   -6.1520   22.9270 C   0  0  0  0  0  0  0  0  0  0  0  0
    5.8550   -5.9150   21.7250 C   0  0  0  0  0  0  0  0  0  0  0  0
    2.4810   -3.8990   25.8650 S   0  0  0  0  0  0  0  0  0  0  0  0
    4.2290   -3.8740   25.7730 C   0  0  0  0  0  0  0  0  0  0  0  0
    4.7620   -2.5580   25.8930 C   0  0  0  0  0  0  0  0  0  0  0  0
    3.6380   -1.5900   26.0690 C   0  0  0  0  0  0  0  0  0  0  0  0
    2.2950   -2.2220   26.0750 C   0  0  0  0  0  0  0  0  0  0  0  0
  2  4  1  0
  1  7  1  0
  3  7  2  0
  4  7  1  0
  1  8  1  0
  5  9  1  0
  6  9  2  0
  8  9  1  6
  5 10  1  0
 11 12  1  0
 11 13  1  0
 11 14  1  0
 16 18  2  0
 17 18  2  0
  1 19  1  0
 19 20  1  0
 21 22  2  0
 22 23  1  0
 23 24  2  0
  8 25  1  0
 24 25  1  0
 21 26  1  0
 25 26  2  0
 27 28  2  0
 11 29  1  0
 28 29  1  0
 29 30  2  0
 30 31  1  0
  1 32  1  6
 27 32  1  0
 31 32  2  0
  2 33  1  0
 33 20  1  0
 33 34  1  0
 34 35  1  0
 18 36  1  0
 35 36  1  0
 36 37  1  0
 33 38  1  0
 37 38  1  0
 18 40  1  0
 39 40  1  0
 40 41  2  0
 41 42  1  0
 15 43  1  0
 39 43  1  0
 42 43  2  0
M  END
