x3124-x0786
     RDKit          3D

 40 43  0  0  0  0  0  0  0  0999 V2000
    6.8550   -1.7860   21.7370 N   0  0  0  0  0  0  0  0  0  0  0  0
    7.6580   -4.6750   21.0690 C   0  0  0  0  0  0  0  0  0  0  0  0
    4.7690   -2.8760   20.9210 O   0  0  0  0  0  0  0  0  0  0  0  0
    6.3010   -4.3020   21.6020 C   0  0  2  0  0  0  0  0  0  0  0  0
    7.9720    1.2240   23.0910 N   0  0  0  0  0  0  0  0  0  0  0  0
    8.1890    0.9100   21.2860 O   0  0  0  0  0  0  0  0  0  0  0  0
    5.9380   -2.8990   21.3840 C   0  0  0  0  0  0  0  0  0  0  0  0
    6.4430   -0.3840   21.6410 C   0  0  1  0  0  0  0  0  0  0  0  0
    7.4700    0.5890   22.2450 C   0  0  0  0  0  0  0  0  0  0  0  0
    8.4440    2.5780   22.6930 C   0  0  0  0  0  0  0  0  0  0  0  0
   12.2770   -1.8260   24.1870 C   0  0  0  0  0  0  0  0  0  0  0  0
   12.5060   -0.5850   25.0430 C   0  0  0  0  0  0  0  0  0  0  0  0
   13.2880   -1.8270   23.0280 C   0  0  0  0  0  0  0  0  0  0  0  0
   12.6710   -3.0340   25.0340 C   0  0  0  0  0  0  0  0  0  0  0  0
    3.7220   -8.1040   24.9100 O   0  0  0  0  0  0  0  0  0  0  0  0
    3.3260   -7.0600   24.3990 C   0  0  0  0  0  0  0  0  0  0  0  0
    6.4320    0.4160   17.9050 N   0  0  0  0  0  0  0  0  0  0  0  0
    5.2620    1.3200   17.7520 C   0  0  0  0  0  0  0  0  0  0  0  0
    4.4980    1.5850   19.0430 C   0  0  0  0  0  0  0  0  0  0  0  0
    4.9330    1.0040   20.2090 C   0  0  0  0  0  0  0  0  0  0  0  0
    6.0320    0.1830   20.2930 C   0  0  0  0  0  0  0  0  0  0  0  0
    6.7280   -0.0760   19.1310 C   0  0  0  0  0  0  0  0  0  0  0  0
    9.4290   -2.2240   21.6640 C   0  0  0  0  0  0  0  0  0  0  0  0
   10.6980   -2.2120   22.2910 C   0  0  0  0  0  0  0  0  0  0  0  0
   10.8630   -1.8410   23.6150 C   0  0  0  0  0  0  0  0  0  0  0  0
    9.7050   -1.4930   24.2990 C   0  0  0  0  0  0  0  0  0  0  0  0
    8.4310   -1.4840   23.7270 C   0  0  0  0  0  0  0  0  0  0  0  0
    8.1550   -1.8220   22.3930 C   0  0  0  0  0  0  0  0  0  0  0  0
    5.7750   -4.5870   22.9900 C   0  0  0  0  0  0  0  0  0  0  0  0
    4.8840   -5.6170   23.1000 C   0  0  0  0  0  0  0  0  0  0  0  0
    4.3330   -5.8970   24.3300 C   0  0  0  0  0  0  0  0  0  0  0  0
    4.7240   -5.1000   25.4260 C   0  0  0  0  0  0  0  0  0  0  0  0
    5.6510   -4.0480   25.2850 C   0  0  0  0  0  0  0  0  0  0  0  0
    6.2020   -3.7690   24.0410 C   0  0  0  0  0  0  0  0  0  0  0  0
    1.6170   -5.5960   23.5620 C   0  0  0  0  0  0  0  0  0  0  0  0
    0.7820   -5.0130   24.5400 C   0  0  0  0  0  0  0  0  0  0  0  0
   -0.7460   -5.8730   24.2480 S   0  0  0  0  0  0  0  0  0  0  0  0
   -0.1880   -7.5180   24.5850 C   0  0  0  0  0  0  0  0  0  0  0  0
    1.0650   -7.9750   23.8340 C   0  0  0  0  0  0  0  0  0  0  0  0
    2.0780   -6.8940   23.9040 N   0  0  0  0  0  0  0  0  0  0  0  0
  4  2  1  1
  1  7  1  0
  3  7  2  0
  4  7  1  0
  1  8  1  0
  5  9  1  0
  6  9  2  0
  8  9  1  6
  5 10  1  0
 11 12  1  0
 11 13  1  0
 11 14  1  0
 15 16  2  0
 17 18  2  0
 18 19  1  0
 19 20  2  0
  8 21  1  0
 20 21  1  0
 17 22  1  0
 21 22  2  0
 23 24  2  0
 11 25  1  0
 24 25  1  0
 25 26  2  0
 26 27  1  0
  1 28  1  0
 23 28  1  0
 27 28  2  0
  4 29  1  0
 29 30  2  0
 16 31  1  0
 30 31  1  0
 31 32  2  0
 32 33  1  0
 29 34  1  0
 33 34  2  0
 35 36  1  0
 36 37  1  0
 37 38  1  0
 38 39  1  0
 16 40  1  0
 35 40  1  0
 39 40  1  0
M  END
