x3124-x3110-x0771-x1077
     RDKit          3D

 56 61  0  0  0  0  0  0  0  0999 V2000
    8.0320    1.2510   23.2900 N   0  0  0  0  0  0  0  0  0  0  0  0
   13.3820    5.1720   22.9270 C   0  0  0  0  0  0  0  0  0  0  0  0
   12.0230    3.3040   22.4210 O   0  0  0  0  0  0  0  0  0  0  0  0
   12.4420    4.5600   21.9090 C   0  0  0  0  0  0  0  0  0  0  0  0
    6.8300   -1.4740   21.9250 N   0  0  0  0  0  0  0  0  0  0  0  0
   10.9980    4.3600   24.1650 O   0  0  0  0  0  0  0  0  0  0  0  0
   11.1430    3.3870   23.4440 C   0  0  0  0  0  0  0  0  0  0  0  0
    8.5540    1.4220   21.1030 O   0  0  0  0  0  0  0  0  0  0  0  0
   10.3220    2.0830   23.5870 C   0  0  0  0  0  0  0  0  0  0  0  0
    4.8450   -3.0160   21.2080 O   0  0  0  0  0  0  0  0  0  0  0  0
    8.8510    2.4070   23.6750 C   0  0  0  0  0  0  0  0  0  0  0  0
    7.8050    0.9300   21.9780 C   0  0  0  0  0  0  0  0  0  0  0  0
    6.5780   -0.0120   21.6370 C   0  0  1  0  0  0  0  0  0  0  0  0
    6.1330   -2.6740   21.4610 C   0  0  0  0  0  0  0  0  0  0  0  0
    7.1510   -3.7360   21.2550 C   0  0  2  0  0  0  0  0  0  0  0  0
    6.9660   -4.0230   19.8240 C   0  0  0  0  0  0  0  0  0  0  0  0
   12.2670   -1.7940   24.1320 C   0  0  0  0  0  0  0  0  0  0  0  0
   12.5170   -0.5530   25.0060 C   0  0  0  0  0  0  0  0  0  0  0  0
   13.2750   -1.8120   22.9710 C   0  0  0  0  0  0  0  0  0  0  0  0
   12.6220   -3.0130   24.9970 C   0  0  0  0  0  0  0  0  0  0  0  0
    0.6360   -1.3050   26.3560 C   0  0  0  0  0  0  0  0  0  0  0  0
    3.9070   -7.3570   25.3810 O   0  0  0  0  0  0  0  0  0  0  0  0
    5.7540   -5.9490   26.5980 N   0  0  0  0  0  0  0  0  0  0  0  0
    1.3960   -6.0700   24.9110 C   0  0  0  0  0  0  0  0  0  0  0  0
    4.4030   -6.0490   25.7140 S   0  0  2  0  0  0  0  0  0  0  0  0
    6.3840    0.4000   17.8620 N   0  0  0  0  0  0  0  0  0  0  0  0
    5.2500    1.2880   17.7310 C   0  0  0  0  0  0  0  0  0  0  0  0
    4.4770    1.7700   18.9340 C   0  0  0  0  0  0  0  0  0  0  0  0
    5.0300    1.2370   20.2360 C   0  0  0  0  0  0  0  0  0  0  0  0
    6.1250    0.4020   20.2690 C   0  0  0  0  0  0  0  0  0  0  0  0
    6.7540    0.0120   19.0980 C   0  0  0  0  0  0  0  0  0  0  0  0
    9.2740   -1.5700   21.7380 C   0  0  0  0  0  0  0  0  0  0  0  0
   10.6170   -1.6490   22.1800 C   0  0  0  0  0  0  0  0  0  0  0  0
   10.8290   -1.7410   23.5650 C   0  0  0  0  0  0  0  0  0  0  0  0
    9.7120   -1.7600   24.4040 C   0  0  0  0  0  0  0  0  0  0  0  0
    8.3920   -1.6790   23.8850 C   0  0  0  0  0  0  0  0  0  0  0  0
    8.1800   -1.5780   22.5170 C   0  0  0  0  0  0  0  0  0  0  0  0
    7.3300   -5.2500   25.8020 N   0  0  0  0  0  0  0  0  0  0  0  0
    7.6900   -4.8250   24.5200 C   0  0  1  0  0  0  0  0  0  0  0  0
    8.7220   -5.5570   24.0340 C   0  0  0  0  0  0  0  0  0  0  0  0
    9.7210   -5.6270   24.9990 C   0  0  0  0  0  0  0  0  0  0  0  0
    9.8920   -4.4420   25.8230 N   0  0  0  0  0  0  0  0  0  0  0  0
    9.1800   -4.6020   27.0740 C   0  0  0  0  0  0  0  0  0  0  0  0
    7.8480   -4.3680   26.8340 C   0  0  0  0  0  0  0  0  0  0  0  0
    1.5700   -2.4820   26.1920 C   0  0  0  0  0  0  0  0  0  0  0  0
    1.1000   -3.6930   25.6520 C   0  0  0  0  0  0  0  0  0  0  0  0
    1.9530   -4.8020   25.4990 C   0  0  0  0  0  0  0  0  0  0  0  0
    3.2770   -4.7000   25.8900 C   0  0  0  0  0  0  0  0  0  0  0  0
    3.7390   -3.5010   26.4180 C   0  0  0  0  0  0  0  0  0  0  0  0
    2.9070   -2.4040   26.5700 C   0  0  0  0  0  0  0  0  0  0  0  0
    7.0890   -4.7460   22.2690 N   0  0  0  0  0  0  0  0  0  0  0  0
    6.0930   -5.8960   22.2550 C   0  0  0  0  0  0  0  0  0  0  0  0
    4.7700   -5.9460   23.1420 C   0  0  0  0  0  0  0  0  0  0  0  0
    5.4260   -5.4980   24.2260 N   0  0  0  0  0  0  0  0  0  0  0  0
    5.3740   -4.3010   23.5220 C   0  0  0  0  0  0  0  0  0  0  0  0
    6.8040   -4.0880   23.5580 C   0  0  1  0  0  0  0  0  0  0  0  0
  2  4  1  0
  3  4  1  0
  3  7  1  0
  6  7  2  0
  7  9  1  0
  1 11  1  0
  9 11  1  0
  1 12  1  0
  8 12  2  0
  5 13  1  0
 13 12  1  6
  5 14  1  0
 10 14  2  0
 14 15  1  0
 15 16  1  6
 17 18  1  0
 17 19  1  0
 17 20  1  0
 22 25  2  0
 23 25  2  0
 26 27  2  0
 27 28  1  0
 28 29  2  0
 13 30  1  0
 29 30  1  0
 26 31  1  0
 30 31  2  0
 32 33  2  0
 17 34  1  0
 33 34  1  0
 34 35  2  0
 35 36  1  0
  5 37  1  0
 32 37  1  0
 36 37  2  0
 23 38  1  0
 38 39  1  0
 39 40  1  6
 40 41  1  0
 41 42  1  0
 42 43  1  0
 38 44  1  0
 43 44  1  0
 21 45  1  0
 45 46  2  0
 24 47  1  0
 46 47  1  0
 25 48  1  1
 47 48  2  0
 48 49  1  0
 45 50  1  0
 49 50  2  0
 15 51  1  0
 51 52  1  0
 52 53  1  0
 25 54  1  0
 53 54  1  0
 54 55  1  0
 39 56  1  0
 56 51  1  6
 55 56  1  0
M  END
