x3124-x0734
     RDKit          3D

 39 43  0  0  0  0  0  0  0  0999 V2000
    6.9730   -1.9480   21.7230 C   0  0  2  0  0  0  0  0  0  0  0  0
    5.6760   -3.0770   19.4670 O   0  0  0  0  0  0  0  0  0  0  0  0
    7.1970    1.4020   23.2850 N   0  0  0  0  0  0  0  0  0  0  0  0
    8.4300    0.7160   21.2200 O   0  0  0  0  0  0  0  0  0  0  0  0
    6.4930   -2.9550   20.5020 C   0  0  0  0  0  0  0  0  0  0  0  0
    6.2260   -0.5940   21.6800 C   0  0  1  0  0  0  0  0  0  0  0  0
    7.3200    0.5430   22.1120 C   0  0  0  0  0  0  0  0  0  0  0  0
    7.9440    2.5550   23.1980 C   0  0  0  0  0  0  0  0  0  0  0  0
   12.5310   -1.8120   24.2570 C   0  0  0  0  0  0  0  0  0  0  0  0
   12.6080   -0.5440   25.0370 C   0  0  0  0  0  0  0  0  0  0  0  0
   13.3990   -1.9590   23.1630 C   0  0  0  0  0  0  0  0  0  0  0  0
   12.8690   -2.9750   25.2030 C   0  0  0  0  0  0  0  0  0  0  0  0
    5.0810   -4.7490   26.1520 N   0  0  0  0  0  0  0  0  0  0  0  0
    4.4000   -5.6350   25.6200 O   0  0  0  0  0  0  0  0  0  0  0  0
    4.6290   -3.7570   26.7380 O   0  0  0  0  0  0  0  0  0  0  0  0
    6.3630    0.2990   17.9500 N   0  0  0  0  0  0  0  0  0  0  0  0
    5.2820    1.0900   17.8840 C   0  0  0  0  0  0  0  0  0  0  0  0
    4.4770    1.3620   18.9470 C   0  0  0  0  0  0  0  0  0  0  0  0
    4.7550    0.8170   20.2000 C   0  0  0  0  0  0  0  0  0  0  0  0
    5.8720   -0.0070   20.3230 C   0  0  0  0  0  0  0  0  0  0  0  0
    6.6110   -0.2130   19.1630 C   0  0  0  0  0  0  0  0  0  0  0  0
    9.4690   -1.4750   21.6610 C   0  0  0  0  0  0  0  0  0  0  0  0
   10.8680   -1.4540   22.2810 C   0  0  0  0  0  0  0  0  0  0  0  0
   11.1490   -1.8550   23.7190 C   0  0  0  0  0  0  0  0  0  0  0  0
    9.9440   -2.2810   24.5560 C   0  0  0  0  0  0  0  0  0  0  0  0
    8.5900   -2.2710   23.8220 C   0  0  0  0  0  0  0  0  0  0  0  0
    8.3620   -1.8740   22.3560 C   0  0  0  0  0  0  0  0  0  0  0  0
    6.4820   -4.8140   25.9680 C   0  0  0  0  0  0  0  0  0  0  0  0
    7.1430   -4.5250   24.6000 C   0  0  0  0  0  0  0  0  0  0  0  0
    8.5700   -4.6380   24.5630 C   0  0  0  0  0  0  0  0  0  0  0  0
    9.3350   -4.9890   25.7000 C   0  0  0  0  0  0  0  0  0  0  0  0
    8.7490   -5.2720   27.0230 C   0  0  0  0  0  0  0  0  0  0  0  0
    7.2340   -5.1670   27.1220 C   0  0  0  0  0  0  0  0  0  0  0  0
    7.3070   -4.1800   20.5490 C   0  0  2  0  0  0  0  0  0  0  0  0
    6.3890   -5.3770   21.0850 C   0  0  0  0  0  0  0  0  0  0  0  0
    5.9090   -5.3610   22.6340 C   0  0  0  0  0  0  0  0  0  0  0  0
    6.3690   -4.1780   23.4150 N   0  0  0  0  0  0  0  0  0  0  0  0
    6.7460   -3.3960   22.2550 C   0  0  2  0  0  0  0  0  0  0  0  0
    8.0950   -3.8570   21.7480 C   0  0  0  0  0  0  0  0  0  0  0  0
  1  5  1  0
  2  5  2  0
  1  6  1  0
  3  7  1  0
  4  7  2  0
  6  7  1  6
  3  8  1  0
  9 10  1  0
  9 11  1  0
  9 12  1  0
 13 14  2  0
 13 15  1  0
 16 17  2  0
 17 18  1  0
 18 19  2  0
  6 20  1  0
 19 20  1  0
 16 21  1  0
 20 21  2  0
 22 23  2  0
  9 24  1  0
 23 24  1  0
 24 25  2  0
 25 26  1  0
  1 27  1  6
 22 27  1  0
 26 27  2  0
 13 28  1  0
 28 29  2  0
 29 30  1  0
 30 31  2  0
 31 32  1  0
 28 33  1  0
 32 33  2  0
 34  5  1  0
 34 35  1  1
 35 36  1  0
 29 37  1  0
 36 37  1  0
  1 38  1  0
 38 37  1  1
 34 39  1  0
 38 39  1  0
M  CHG  2  13   1  15  -1
M  END
