x3124-x1077
     RDKit          3D

 34 36  0  0  0  0  0  0  0  0999 V2000
    6.8910   -1.6890   21.8390 N   0  0  0  0  0  0  0  0  0  0  0  0
    6.8430   -4.6830   20.1950 C   0  0  0  0  0  0  0  0  0  0  0  0
    4.8300   -3.0610   21.3070 O   0  0  0  0  0  0  0  0  0  0  0  0
    6.9200   -4.1320   21.5980 C   0  0  0  0  0  0  0  0  0  0  0  0
    7.4060    1.4030   23.1210 N   0  0  0  0  0  0  0  0  0  0  0  0
    8.5820    0.7540   21.3120 O   0  0  0  0  0  0  0  0  0  0  0  0
    6.1030   -2.8900   21.5730 C   0  0  0  0  0  0  0  0  0  0  0  0
    6.5560   -0.2590   21.6220 C   0  0  1  0  0  0  0  0  0  0  0  0
    7.5610    0.6250   21.9960 C   0  0  0  0  0  0  0  0  0  0  0  0
    8.1420    2.6710   22.8910 C   0  0  0  0  0  0  0  0  0  0  0  0
   12.4350   -1.8340   24.0780 C   0  0  0  0  0  0  0  0  0  0  0  0
   12.5750   -0.6240   24.9810 C   0  0  0  0  0  0  0  0  0  0  0  0
   13.2990   -2.0110   23.0030 C   0  0  0  0  0  0  0  0  0  0  0  0
   12.7350   -2.9330   25.0620 C   0  0  0  0  0  0  0  0  0  0  0  0
    6.3100    0.4450   17.8160 N   0  0  0  0  0  0  0  0  0  0  0  0
    5.2120    1.2320   17.7860 C   0  0  0  0  0  0  0  0  0  0  0  0
    4.5280    1.5270   18.9580 C   0  0  0  0  0  0  0  0  0  0  0  0
    4.9730    1.0260   20.1800 C   0  0  0  0  0  0  0  0  0  0  0  0
    6.0990    0.2250   20.2660 C   0  0  0  0  0  0  0  0  0  0  0  0
    6.7590   -0.0710   19.1070 C   0  0  0  0  0  0  0  0  0  0  0  0
    9.3160   -1.4890   21.6780 C   0  0  0  0  0  0  0  0  0  0  0  0
   10.7390   -1.4950   22.1190 C   0  0  0  0  0  0  0  0  0  0  0  0
   11.0080   -1.8540   23.5330 C   0  0  0  0  0  0  0  0  0  0  0  0
    9.7200   -2.2010   24.3070 C   0  0  0  0  0  0  0  0  0  0  0  0
    8.1880   -2.2280   23.8740 C   0  0  0  0  0  0  0  0  0  0  0  0
    8.2170   -1.8120   22.4900 C   0  0  0  0  0  0  0  0  0  0  0  0
    6.8210   -5.6550   25.5250 O   0  0  0  0  0  0  0  0  0  0  0  0
    7.4510   -5.3970   24.3410 C   0  0  0  0  0  0  0  0  0  0  0  0
    8.8010   -5.7450   24.4190 C   0  0  0  0  0  0  0  0  0  0  0  0
    9.5930   -4.6180   24.3850 C   0  0  0  0  0  0  0  0  0  0  0  0
    9.3150   -3.7760   25.5650 N   0  0  0  0  0  0  0  0  0  0  0  0
    8.8030   -4.6070   26.6800 C   0  0  0  0  0  0  0  0  0  0  0  0
    7.2920   -4.8620   26.6230 C   0  0  0  0  0  0  0  0  0  0  0  0
    8.4010   -2.6380   25.2980 C   0  0  0  0  0  0  0  0  0  0  0  0
  2  4  1  0
  1  7  1  0
  3  7  2  0
  4  7  1  0
  1  8  1  0
  5  9  1  0
  6  9  2  0
  8  9  1  6
  5 10  1  0
 11 12  1  0
 11 13  1  0
 11 14  1  0
 15 16  2  0
 16 17  1  0
 17 18  2  0
  8 19  1  0
 18 19  1  0
 15 20  1  0
 19 20  2  0
 21 22  2  0
 11 23  1  0
 22 23  1  0
 23 24  2  0
 24 25  1  0
  1 26  1  0
 21 26  1  0
 25 26  2  0
 27 28  1  0
 28 29  1  0
 29 30  1  0
 30 31  1  0
 31 32  1  0
 27 33  1  0
 32 33  1  0
 25 34  1  0
 31 34  1  0
M  END
