x3124-x2776-x0689
     RDKit          3D

 50 55  0  0  0  0  0  0  0  0999 V2000
    6.7490   -1.4640   21.9350 C   0  0  1  0  0  0  0  0  0  0  0  0
    7.2830   -3.6240   20.2300 C   0  0  0  0  0  0  0  0  0  0  0  0
    4.7590   -2.9550   21.2310 O   0  0  0  0  0  0  0  0  0  0  0  0
    6.4920   -2.7340   19.7770 C   0  0  0  0  0  0  0  0  0  0  0  0
    7.6510    1.9520   23.0240 N   0  0  0  0  0  0  0  0  0  0  0  0
    8.6740    1.2510   20.9610 O   0  0  0  0  0  0  0  0  0  0  0  0
    5.8950   -2.4010   21.0000 C   0  0  0  0  0  0  0  0  0  0  0  0
   10.8030    6.6610   23.8130 O   0  0  0  0  0  0  0  0  0  0  0  0
    6.4680    0.0860   21.6320 C   0  0  1  0  0  0  0  0  0  0  0  0
   12.7430   -2.9590   24.4000 O   0  0  0  0  0  0  0  0  0  0  0  0
    7.6380    1.1310   21.9250 C   0  0  0  0  0  0  0  0  0  0  0  0
   10.5490    1.6790   23.9080 C   0  0  0  0  0  0  0  0  0  0  0  0
   11.8300    6.6170   24.8030 C   0  0  0  0  0  0  0  0  0  0  0  0
   12.1980   -1.6370   24.3690 C   0  0  1  0  0  0  0  0  0  0  0  0
   13.0380   -0.8400   23.6010 C   0  0  0  0  0  0  0  0  0  0  0  0
   13.1830   -3.3370   25.6670 C   0  0  0  0  0  0  0  0  0  0  0  0
    3.9880   -6.3260   25.8280 O   0  0  0  0  0  0  0  0  0  0  0  0
    5.7950   -4.9030   26.4430 O   0  0  0  0  0  0  0  0  0  0  0  0
    4.7750   -5.1840   25.4290 S   0  0  0  0  0  0  0  0  0  0  0  0
    5.8950   -2.2190   22.9240 C   0  0  0  0  0  0  0  0  0  0  0  0
    5.5870   -3.4830   22.3710 C   0  0  0  0  0  0  0  0  0  0  0  0
    6.3730    0.5940   17.7570 N   0  0  0  0  0  0  0  0  0  0  0  0
    5.1720    1.3880   17.7470 C   0  0  0  0  0  0  0  0  0  0  0  0
    4.3870    1.7590   18.8330 C   0  0  0  0  0  0  0  0  0  0  0  0
    4.7590    1.3500   20.1110 C   0  0  0  0  0  0  0  0  0  0  0  0
    6.0460    0.5000   20.2390 C   0  0  0  0  0  0  0  0  0  0  0  0
    6.7560    0.1780   19.0640 C   0  0  0  0  0  0  0  0  0  0  0  0
    9.8630    2.9980   23.6450 C   0  0  0  0  0  0  0  0  0  0  0  0
   10.5680    4.1920   23.8160 C   0  0  0  0  0  0  0  0  0  0  0  0
   10.0930    5.5080   23.6240 C   0  0  0  0  0  0  0  0  0  0  0  0
    8.7480    5.6480   23.1950 C   0  0  0  0  0  0  0  0  0  0  0  0
    7.9750    4.4960   23.0010 C   0  0  0  0  0  0  0  0  0  0  0  0
    8.5240    3.1100   23.2330 C   0  0  0  0  0  0  0  0  0  0  0  0
    9.2750   -1.9920   21.6530 C   0  0  0  0  0  0  0  0  0  0  0  0
   10.6890   -2.0570   22.2010 C   0  0  0  0  0  0  0  0  0  0  0  0
   10.8800   -1.6750   23.6230 C   0  0  0  0  0  0  0  0  0  0  0  0
    9.7500   -1.2980   24.3600 C   0  0  0  0  0  0  0  0  0  0  0  0
    8.4680   -1.2560   23.7990 C   0  0  0  0  0  0  0  0  0  0  0  0
    8.2190   -1.5900   22.4560 C   0  0  0  0  0  0  0  0  0  0  0  0
    6.6070   -4.3600   21.5960 C   0  0  0  0  0  0  0  0  0  0  0  0
    5.8650   -5.6820   21.4920 C   0  0  0  0  0  0  0  0  0  0  0  0
    5.1010   -6.0070   22.8080 C   0  0  0  0  0  0  0  0  0  0  0  0
    5.6080   -5.1340   23.9180 N   0  0  0  0  0  0  0  0  0  0  0  0
    7.0750   -4.8380   23.9640 C   0  0  0  0  0  0  0  0  0  0  0  0
    7.6510   -4.7860   22.6650 C   0  0  0  0  0  0  0  0  0  0  0  0
    4.0780   -2.2490   25.9450 S   0  0  0  0  0  0  0  0  0  0  0  0
    3.6040   -3.8700   25.5190 C   0  0  0  0  0  0  0  0  0  0  0  0
    2.2050   -3.9980   25.2690 C   0  0  0  0  0  0  0  0  0  0  0  0
    1.5040   -2.8240   25.4170 C   0  0  0  0  0  0  0  0  0  0  0  0
    2.3290   -1.7880   25.7730 C   0  0  0  0  0  0  0  0  0  0  0  0
  2  4  1  0
  1  7  1  0
  3  7  2  0
  4  7  1  0
  1  9  1  0
  5 11  1  0
  6 11  2  0
  9 11  1  6
  8 13  1  0
 10 14  1  0
 14 15  1  6
 10 16  1  0
 17 19  2  0
 18 19  2  0
  1 20  1  0
 20 21  1  0
 22 23  2  0
 23 24  1  0
 24 25  2  0
  9 26  1  0
 25 26  1  0
 22 27  1  0
 26 27  2  0
 12 28  1  0
 28 29  2  0
  8 30  1  0
 29 30  1  0
 30 31  2  0
 31 32  1  0
  5 33  1  0
 28 33  1  0
 32 33  2  0
 34 35  2  0
 14 36  1  0
 35 36  1  0
 36 37  2  0
 37 38  1  0
  1 39  1  1
 34 39  1  0
 38 39  2  0
  2 40  1  0
 40 21  1  0
 40 41  1  0
 41 42  1  0
 19 43  1  0
 42 43  1  0
 43 44  1  0
 40 45  1  0
 44 45  1  0
 19 47  1  0
 46 47  1  0
 47 48  2  0
 48 49  1  0
 46 50  1  0
 49 50  2  0
M  END
