x3124-x2649
     RDKit          3D

 29 30  0  0  0  0  0  0  0  0999 V2000
    6.9000   -1.8350   22.1670 N   0  0  0  0  0  0  0  0  0  0  0  0
    6.6760   -4.8950   20.3950 C   0  0  0  0  0  0  0  0  0  0  0  0
    4.8160   -3.0620   21.3530 O   0  0  0  0  0  0  0  0  0  0  0  0
    6.8140   -4.2670   21.7730 C   0  0  0  0  0  0  0  0  0  0  0  0
    7.9500    1.3500   23.1770 N   0  0  0  0  0  0  0  0  0  0  0  0
    8.2360    0.8950   21.4120 O   0  0  0  0  0  0  0  0  0  0  0  0
    6.0600   -2.9790   21.7390 C   0  0  0  0  0  0  0  0  0  0  0  0
    6.5230   -0.4270   21.8250 C   0  0  1  0  0  0  0  0  0  0  0  0
    7.4990    0.6260   22.3770 C   0  0  0  0  0  0  0  0  0  0  0  0
    8.4930    2.6310   22.6520 C   0  0  0  0  0  0  0  0  0  0  0  0
   11.8530   -1.9770   24.4830 C   0  0  0  0  0  0  0  0  0  0  0  0
   12.0790   -0.6650   25.2360 C   0  0  0  0  0  0  0  0  0  0  0  0
   13.1720   -2.1690   23.7170 C   0  0  0  0  0  0  0  0  0  0  0  0
   11.6830   -3.2090   25.3910 C   0  0  0  0  0  0  0  0  0  0  0  0
    4.4780    1.6060   21.6000 C   0  0  0  0  0  0  0  0  0  0  0  0
    6.3850    0.0490   17.9980 N   0  0  0  0  0  0  0  0  0  0  0  0
    5.3510    1.0940   17.8500 C   0  0  0  0  0  0  0  0  0  0  0  0
    4.7360    1.5720   19.1490 C   0  0  0  0  0  0  0  0  0  0  0  0
    5.1590    1.0370   20.3450 C   0  0  0  0  0  0  0  0  0  0  0  0
    6.1390    0.0570   20.4140 C   0  0  0  0  0  0  0  0  0  0  0  0
    6.7190   -0.4050   19.2380 C   0  0  0  0  0  0  0  0  0  0  0  0
    9.9080   -1.0780   21.5950 C   0  0  0  0  0  0  0  0  0  0  0  0
   10.9260   -1.2640   22.4260 C   0  0  0  0  0  0  0  0  0  0  0  0
   10.6320   -1.8190   23.5870 C   0  0  0  0  0  0  0  0  0  0  0  0
    9.2760   -2.1870   23.8940 C   0  0  0  0  0  0  0  0  0  0  0  0
    7.9980   -2.0720   23.1340 C   0  0  0  0  0  0  0  0  0  0  0  0
    8.5280   -1.4850   21.9840 C   0  0  0  0  0  0  0  0  0  0  0  0
   13.4040   -1.5840   21.1030 Cl  0  0  0  0  0  0  0  0  0  0  0  0
   13.0190   -2.6820   22.3100 C   0  0  0  0  0  0  0  0  0  0  0  0
  2  4  1  0
  1  7  1  0
  3  7  2  0
  4  7  1  0
  1  8  1  0
  5  9  1  0
  6  9  2  0
  8  9  1  6
  5 10  1  0
 11 12  1  0
 11 13  1  0
 11 14  1  0
 16 17  2  0
 17 18  1  0
 15 19  1  0
 18 19  2  0
  8 20  1  0
 19 20  1  0
 16 21  1  0
 20 21  2  0
 22 23  2  0
 11 24  1  0
 23 24  1  0
 24 25  2  0
  1 26  1  0
 25 26  1  0
 22 27  1  0
 26 27  2  0
 13 29  1  0
 28 29  1  0
M  END
