x3298-x1375
     RDKit          3D

 48 52  0  0  0  0  0  0  0  0999 V2000
    7.6480    1.9730   21.5590 N   0  0  0  0  0  0  0  0  0  0  0  0
    7.4210   -0.3130   21.2820 C   0  0  2  0  0  0  0  0  0  0  0  0
    6.4230   -0.6780   22.2680 O   0  0  0  0  0  0  0  0  0  0  0  0
    8.2790    0.7740   21.5070 C   0  0  0  0  0  0  0  0  0  0  0  0
    8.4790    1.1300   23.9480 N   0  0  0  0  0  0  0  0  0  0  0  0
    9.4670    0.5940   21.6240 O   0  0  0  0  0  0  0  0  0  0  0  0
   10.5970    1.9980   24.7710 O   0  0  0  0  0  0  0  0  0  0  0  0
    9.6820   -0.2130   25.6380 O   0  0  0  0  0  0  0  0  0  0  0  0
   13.6430   -1.8240   20.9500 F   0  0  0  0  0  0  0  0  0  0  0  0
    9.9380    0.7490   24.6290 S   0  0  0  0  0  0  0  0  0  0  0  0
    5.5880   -4.5150   19.9290 O   0  0  0  0  0  0  0  0  0  0  0  0
    6.3720   -4.1340   20.8040 C   0  0  0  0  0  0  0  0  0  0  0  0
    7.9190   -4.1800   20.7510 C   0  0  0  0  0  0  0  0  0  0  0  0
    5.9010   -3.6130   22.0040 N   0  0  0  0  0  0  0  0  0  0  0  0
    2.4990   -6.3520   23.6130 O   0  0  0  0  0  0  0  0  0  0  0  0
    4.5360   -7.8270   24.3340 O   0  0  0  0  0  0  0  0  0  0  0  0
   10.5760   -4.0640   25.8290 F   0  0  0  0  0  0  0  0  0  0  0  0
    6.6550   -1.5470   23.1410 C   0  0  0  0  0  0  0  0  0  0  0  0
    6.9730   -2.7850   22.5720 C   0  0  1  0  0  0  0  0  0  0  0  0
    6.2460    0.2590   17.7370 N   0  0  0  0  0  0  0  0  0  0  0  0
    7.1230   -0.3010   18.7950 C   0  0  0  0  0  0  0  0  0  0  0  0
    6.6680    0.1040   20.0680 C   0  0  0  0  0  0  0  0  0  0  0  0
    5.4260    0.9830   20.3300 C   0  0  0  0  0  0  0  0  0  0  0  0
    4.6920    1.4340   19.2860 C   0  0  0  0  0  0  0  0  0  0  0  0
    5.1660    1.0320   17.9220 C   0  0  0  0  0  0  0  0  0  0  0  0
    7.9190    4.3830   22.2050 C   0  0  0  0  0  0  0  0  0  0  0  0
    8.2900    5.2430   23.2260 C   0  0  0  0  0  0  0  0  0  0  0  0
    8.6980    4.8000   24.4710 C   0  0  0  0  0  0  0  0  0  0  0  0
    8.7300    3.4230   24.6730 C   0  0  0  0  0  0  0  0  0  0  0  0
    8.3890    2.5390   23.6840 C   0  0  0  0  0  0  0  0  0  0  0  0
    7.9740    2.9960   22.4500 C   0  0  0  0  0  0  0  0  0  0  0  0
   12.2850    0.4740   23.3630 C   0  0  0  0  0  0  0  0  0  0  0  0
   13.1810   -0.1190   22.5020 C   0  0  0  0  0  0  0  0  0  0  0  0
   12.8040   -1.2580   21.7960 C   0  0  0  0  0  0  0  0  0  0  0  0
   11.5360   -1.8030   21.9600 C   0  0  0  0  0  0  0  0  0  0  0  0
   10.6320   -1.2060   22.8290 C   0  0  0  0  0  0  0  0  0  0  0  0
   11.0060   -0.0660   23.5260 C   0  0  0  0  0  0  0  0  0  0  0  0
    7.8760   -3.7190   23.3560 C   0  0  0  0  0  0  0  0  0  0  0  0
    8.8530   -3.3230   24.3010 C   0  0  0  0  0  0  0  0  0  0  0  0
    9.6240   -4.3430   24.9340 C   0  0  0  0  0  0  0  0  0  0  0  0
    9.3950   -5.6850   24.6140 C   0  0  0  0  0  0  0  0  0  0  0  0
    8.4330   -6.0240   23.6810 C   0  0  0  0  0  0  0  0  0  0  0  0
    7.6870   -5.0600   23.0660 C   0  0  0  0  0  0  0  0  0  0  0  0
    5.0270   -4.1640   24.2450 C   0  0  0  0  0  0  0  0  0  0  0  0
    5.0220   -4.3950   22.8640 C   0  0  2  0  0  0  0  0  0  0  0  0
    4.9950   -5.7840   22.5600 C   0  0  0  0  0  0  0  0  0  0  0  0
    4.0570   -6.3700   23.9500 S   0  0  0  0  0  0  0  0  0  0  0  0
    4.5230   -5.1600   25.0110 C   0  0  0  0  0  0  0  0  0  0  0  0
  2  3  1  1
  1  4  1  0
  2  4  1  0
  4  6  2  0
 10  5  1  0
  7 10  2  0
  8 10  2  0
 11 12  2  0
 12 13  1  0
 12 14  1  0
  3 18  1  0
 14 19  1  0
 19 18  1  1
 20 21  2  0
  2 22  1  0
 21 22  1  0
 22 23  2  0
 23 24  1  0
 20 25  1  0
 24 25  2  0
 26 27  2  0
 27 28  1  0
 28 29  2  0
  5 30  1  0
 29 30  1  0
  1 31  1  0
 26 31  1  0
 30 31  2  0
 32 33  2  0
  9 34  1  0
 33 34  1  0
 34 35  2  0
 35 36  1  0
 10 37  1  0
 32 37  1  0
 36 37  2  0
 19 38  1  0
 38 39  2  0
 17 40  1  0
 39 40  1  0
 40 41  2  0
 41 42  1  0
 38 43  1  0
 42 43  2  0
 45 14  1  6
 44 45  1  0
 45 46  1  0
 47 15  1  0
 16 47  1  0
 46 47  1  0
 44 48  2  0
 47 48  1  0
M  END
