x3298-x1458
     RDKit          3D

 45 48  0  0  0  0  0  0  0  0999 V2000
    7.1820    1.9940   21.8780 N   0  0  0  0  0  0  0  0  0  0  0  0
    7.4540   -0.1610   21.1560 C   0  0  2  0  0  0  0  0  0  0  0  0
    6.6370   -0.7690   22.1550 O   0  0  0  0  0  0  0  0  0  0  0  0
    8.0190    1.0820   21.3780 C   0  0  0  0  0  0  0  0  0  0  0  0
    8.4570    1.2070   24.1300 N   0  0  0  0  0  0  0  0  0  0  0  0
    9.1580    1.3090   21.0920 O   0  0  0  0  0  0  0  0  0  0  0  0
   10.5590    1.8940   24.8410 O   0  0  0  0  0  0  0  0  0  0  0  0
    9.4280   -0.3970   25.9860 N   0  0  0  0  0  0  0  0  0  0  0  0
   13.6180   -1.7800   20.9740 F   0  0  0  0  0  0  0  0  0  0  0  0
    9.8770    0.6490   24.7560 S   0  0  1  0  0  0  0  0  0  0  0  0
    7.4170   -3.4060   26.4340 N   0  0  0  0  0  0  0  0  0  0  0  0
    8.8010   -5.1880   26.5930 C   0  0  0  0  0  0  0  0  0  0  0  0
    5.1170   -3.4930   25.9320 O   0  0  0  0  0  0  0  0  0  0  0  0
    7.7690   -4.4750   27.2200 C   0  0  0  0  0  0  0  0  0  0  0  0
    5.3030   -4.6650   19.9320 O   0  0  0  0  0  0  0  0  0  0  0  0
    6.7410   -5.3050   27.7100 C   0  0  0  0  0  0  0  0  0  0  0  0
    7.8870   -2.1530   26.7510 C   0  0  0  0  0  0  0  0  0  0  0  0
    6.2730   -3.5970   25.5230 C   0  0  0  0  0  0  0  0  0  0  0  0
    6.3380   -4.1400   20.3320 C   0  0  0  0  0  0  0  0  0  0  0  0
    7.1880   -3.3150   19.3690 C   0  0  0  0  0  0  0  0  0  0  0  0
    8.6920   -1.4960   25.6360 C   0  0  0  0  0  0  0  0  0  0  0  0
    6.2330    0.2290   17.6620 N   0  0  0  0  0  0  0  0  0  0  0  0
    6.9540   -0.1120   18.7280 C   0  0  0  0  0  0  0  0  0  0  0  0
    6.5770    0.2090   19.9990 C   0  0  0  0  0  0  0  0  0  0  0  0
    5.4040    0.8950   20.2170 C   0  0  0  0  0  0  0  0  0  0  0  0
    4.6010    1.2790   19.1580 C   0  0  0  0  0  0  0  0  0  0  0  0
    5.1030    0.9070   17.9160 C   0  0  0  0  0  0  0  0  0  0  0  0
    7.7040    4.3870   22.3240 C   0  0  0  0  0  0  0  0  0  0  0  0
    8.3120    5.3480   23.1420 C   0  0  0  0  0  0  0  0  0  0  0  0
    8.9610    4.9300   24.3010 C   0  0  0  0  0  0  0  0  0  0  0  0
    8.9510    3.5470   24.5550 C   0  0  0  0  0  0  0  0  0  0  0  0
    8.3710    2.6190   23.7610 C   0  0  0  0  0  0  0  0  0  0  0  0
    7.7390    3.0240   22.6400 C   0  0  0  0  0  0  0  0  0  0  0  0
   12.2570    0.4420   23.4700 C   0  0  0  0  0  0  0  0  0  0  0  0
   13.1240   -0.1440   22.5780 C   0  0  0  0  0  0  0  0  0  0  0  0
   12.7660   -1.2500   21.8360 C   0  0  0  0  0  0  0  0  0  0  0  0
   11.4950   -1.8160   21.9700 C   0  0  0  0  0  0  0  0  0  0  0  0
   10.5670   -1.2510   22.8710 C   0  0  0  0  0  0  0  0  0  0  0  0
   10.9590   -0.1200   23.6170 C   0  0  0  0  0  0  0  0  0  0  0  0
    6.7800   -4.3240   21.6430 N   0  0  0  0  0  0  0  0  0  0  0  0
    7.8010   -3.4170   22.1650 C   0  0  0  0  0  0  0  0  0  0  0  0
    7.5700   -3.1900   23.5250 C   0  0  0  0  0  0  0  0  0  0  0  0
    6.4880   -3.9130   24.0300 C   0  0  0  0  0  0  0  0  0  0  0  0
    6.4260   -5.2810   23.7550 C   0  0  0  0  0  0  0  0  0  0  0  0
    6.6100   -5.5710   22.3920 C   0  0  0  0  0  0  0  0  0  0  0  0
  2  3  1  1
  1  4  1  0
  2  4  1  0
  4  6  2  0
 10  5  1  6
  7 10  2  0
  8 10  2  0
 11 14  1  0
 12 14  1  0
 14 16  1  0
 11 17  1  0
 11 18  1  0
 13 18  2  0
 15 19  2  0
 19 20  1  0
  8 21  1  0
 17 21  1  0
 22 23  2  0
  2 24  1  0
 23 24  1  0
 24 25  2  0
 25 26  1  0
 22 27  1  0
 26 27  2  0
 28 29  2  0
 29 30  1  0
 30 31  2  0
  5 32  1  0
 31 32  1  0
  1 33  1  0
 28 33  1  0
 32 33  2  0
 34 35  2  0
  9 36  1  0
 35 36  1  0
 36 37  2  0
 37 38  1  0
 10 39  1  0
 34 39  1  0
 38 39  2  0
 19 40  1  0
 40 41  1  0
 41 42  1  0
 18 43  1  0
 42 43  1  0
 43 44  1  0
 40 45  1  0
 44 45  1  0
M  END
