x3298-x1385
     RDKit          3D

 44 48  0  0  0  0  0  0  0  0999 V2000
    7.1220    1.8370   22.3890 N   0  0  0  0  0  0  0  0  0  0  0  0
    6.7470   -0.2400   21.4830 C   0  0  2  0  0  0  0  0  0  0  0  0
    5.7520   -0.2730   22.4900 O   0  0  0  0  0  0  0  0  0  0  0  0
    7.6790    0.7720   21.7190 C   0  0  0  0  0  0  0  0  0  0  0  0
    8.9870    1.2570   23.6580 N   0  0  0  0  0  0  0  0  0  0  0  0
    8.8250    0.6750   21.3200 O   0  0  0  0  0  0  0  0  0  0  0  0
   10.9670    1.9170   24.7220 O   0  0  0  0  0  0  0  0  0  0  0  0
    9.7610   -0.1670   25.6380 O   0  0  0  0  0  0  0  0  0  0  0  0
   13.7070   -1.8140   20.8480 F   0  0  0  0  0  0  0  0  0  0  0  0
   10.2130    0.7370   24.5920 S   0  0  0  0  0  0  0  0  0  0  0  0
    7.4170   -2.9310   18.8140 C   0  0  0  0  0  0  0  0  0  0  0  0
    5.4030   -3.9270   19.6150 O   0  0  0  0  0  0  0  0  0  0  0  0
    6.3800   -3.2170   19.8940 C   0  0  0  0  0  0  0  0  0  0  0  0
    9.5410   -3.2320   23.9430 C   0  0  0  0  0  0  0  0  0  0  0  0
    7.1920   -5.8210   28.4900 Br  0  0  0  0  0  0  0  0  0  0  0  0
    6.4000    0.4790   17.7230 N   0  0  0  0  0  0  0  0  0  0  0  0
    6.9550   -0.0570   18.9650 C   0  0  0  0  0  0  0  0  0  0  0  0
    6.2600    0.2140   20.1330 C   0  0  0  0  0  0  0  0  0  0  0  0
    5.0910    0.9310   20.1810 C   0  0  0  0  0  0  0  0  0  0  0  0
    4.5210    1.4770   18.8950 C   0  0  0  0  0  0  0  0  0  0  0  0
    5.2460    1.2010   17.7620 C   0  0  0  0  0  0  0  0  0  0  0  0
    7.6990    4.3760   22.3980 C   0  0  0  0  0  0  0  0  0  0  0  0
    8.6670    5.2730   22.8450 C   0  0  0  0  0  0  0  0  0  0  0  0
    9.7670    4.8430   23.5500 C   0  0  0  0  0  0  0  0  0  0  0  0
    9.9550    3.4960   23.8540 C   0  0  0  0  0  0  0  0  0  0  0  0
    8.9840    2.5890   23.4320 C   0  0  0  0  0  0  0  0  0  0  0  0
    7.9040    3.0310   22.7140 C   0  0  0  0  0  0  0  0  0  0  0  0
   12.4610    0.4720   23.3030 C   0  0  0  0  0  0  0  0  0  0  0  0
   13.3210   -0.1050   22.4180 C   0  0  0  0  0  0  0  0  0  0  0  0
   12.9030   -1.2520   21.7260 C   0  0  0  0  0  0  0  0  0  0  0  0
   11.6520   -1.8170   21.9180 C   0  0  0  0  0  0  0  0  0  0  0  0
   10.8000   -1.2190   22.8120 C   0  0  0  0  0  0  0  0  0  0  0  0
   11.2220   -0.0880   23.4790 C   0  0  0  0  0  0  0  0  0  0  0  0
    6.4800   -2.7790   21.2220 N   0  0  0  0  0  0  0  0  0  0  0  0
    6.3170   -3.5830   22.2950 C   0  0  0  0  0  0  0  0  0  0  0  0
    7.5080   -4.0940   22.8030 C   0  0  0  0  0  0  0  0  0  0  0  0
    8.3710   -2.9560   23.1260 N   0  0  0  0  0  0  0  0  0  0  0  0
    8.5390   -2.0720   21.9650 C   0  0  0  0  0  0  0  0  0  0  0  0
    7.2010   -1.7510   21.6830 C   0  0  1  0  0  0  0  0  0  0  0  0
    9.7540   -5.4110   25.2660 C   0  0  0  0  0  0  0  0  0  0  0  0
    9.1700   -4.1760   25.0550 C   0  0  0  0  0  0  0  0  0  0  0  0
    7.9580   -3.8170   26.2070 S   0  0  0  0  0  0  0  0  0  0  0  0
    8.2070   -5.2970   26.9730 C   0  0  0  0  0  0  0  0  0  0  0  0
    9.2000   -6.0710   26.3880 C   0  0  0  0  0  0  0  0  0  0  0  0
  2  3  1  1
  1  4  1  0
  2  4  1  0
  4  6  2  0
 10  5  1  0
  7 10  2  0
  8 10  2  0
 11 13  1  0
 12 13  2  0
 16 17  2  0
  2 18  1  0
 17 18  1  0
 18 19  2  0
 19 20  1  0
 16 21  1  0
 20 21  2  0
 22 23  2  0
 23 24  1  0
 24 25  2  0
  5 26  1  0
 25 26  1  0
  1 27  1  0
 22 27  1  0
 26 27  2  0
 28 29  2  0
  9 30  1  0
 29 30  1  0
 30 31  2  0
 31 32  1  0
 10 33  1  0
 28 33  1  0
 32 33  2  0
 13 34  1  0
 34 35  1  0
 35 36  1  0
 14 37  1  0
 36 37  1  0
 37 38  1  0
  2 39  1  0
 34 39  1  0
 39 38  1  6
 14 41  1  0
 40 41  2  0
 41 42  1  0
 15 43  1  0
 42 43  1  0
 40 44  1  0
 43 44  2  0
M  END
