x3298-x1358
     RDKit          3D

 48 52  0  0  0  0  0  0  0  0999 V2000
    7.2500    2.1500   22.0100 N   0  0  0  0  0  0  0  0  0  0  0  0
    7.5630    0.0260   21.1740 C   0  0  2  0  0  0  0  0  0  0  0  0
    6.7330   -0.5950   22.1290 O   0  0  0  0  0  0  0  0  0  0  0  0
    8.0790    1.2760   21.4230 C   0  0  0  0  0  0  0  0  0  0  0  0
    8.5870    1.2420   24.0320 N   0  0  0  0  0  0  0  0  0  0  0  0
    9.1890    1.5260   21.0790 O   0  0  0  0  0  0  0  0  0  0  0  0
   10.7610    2.0260   24.6050 O   0  0  0  0  0  0  0  0  0  0  0  0
    9.8280   -0.0570   25.8160 O   0  0  0  0  0  0  0  0  0  0  0  0
   13.5920   -1.9410   20.9060 F   0  0  0  0  0  0  0  0  0  0  0  0
   10.0380    0.7870   24.6520 S   0  0  0  0  0  0  0  0  0  0  0  0
    6.9100   -2.6610   25.9780 N   0  0  0  0  0  0  0  0  0  0  0  0
    5.3010   -0.3300   25.4590 O   0  0  0  0  0  0  0  0  0  0  0  0
    4.9010   -3.7920   25.9520 O   0  0  0  0  0  0  0  0  0  0  0  0
    5.1900   -4.4270   19.8200 O   0  0  0  0  0  0  0  0  0  0  0  0
    5.8910   -3.3390   25.3970 C   0  0  0  0  0  0  0  0  0  0  0  0
    6.2900   -3.9950   20.1360 C   0  0  0  0  0  0  0  0  0  0  0  0
    7.1610   -3.2200   19.1710 C   0  0  0  0  0  0  0  0  0  0  0  0
    6.2840   -1.8040   21.7350 C   0  0  0  0  0  0  0  0  0  0  0  0
    6.1810    0.1670   17.7100 N   0  0  0  0  0  0  0  0  0  0  0  0
    7.1250   -0.2520   18.7530 C   0  0  0  0  0  0  0  0  0  0  0  0
    6.7390    0.2780   19.9870 C   0  0  0  0  0  0  0  0  0  0  0  0
    5.4990    1.1490   20.2350 C   0  0  0  0  0  0  0  0  0  0  0  0
    4.6700    1.4850   19.2210 C   0  0  0  0  0  0  0  0  0  0  0  0
    5.1000    0.9320   17.8960 C   0  0  0  0  0  0  0  0  0  0  0  0
    7.7770    4.5420   22.4810 C   0  0  0  0  0  0  0  0  0  0  0  0
    8.4670    5.3800   23.3450 C   0  0  0  0  0  0  0  0  0  0  0  0
    9.1930    4.9150   24.4340 C   0  0  0  0  0  0  0  0  0  0  0  0
    9.2160    3.5380   24.6480 C   0  0  0  0  0  0  0  0  0  0  0  0
    8.5470    2.6740   23.8080 C   0  0  0  0  0  0  0  0  0  0  0  0
    7.8340    3.1620   22.7380 C   0  0  0  0  0  0  0  0  0  0  0  0
   12.3060    0.3840   23.3420 C   0  0  0  0  0  0  0  0  0  0  0  0
   13.1840   -0.2260   22.4720 C   0  0  0  0  0  0  0  0  0  0  0  0
   12.7810   -1.3470   21.7570 C   0  0  0  0  0  0  0  0  0  0  0  0
   11.4960   -1.8180   21.9460 C   0  0  0  0  0  0  0  0  0  0  0  0
   10.5750   -1.2340   22.8130 C   0  0  0  0  0  0  0  0  0  0  0  0
   11.0060   -0.1090   23.5160 C   0  0  0  0  0  0  0  0  0  0  0  0
    5.9960   -0.4180   26.6240 C   0  0  0  0  0  0  0  0  0  0  0  0
    6.7800   -1.5630   26.8630 C   0  0  0  0  0  0  0  0  0  0  0  0
    7.4980   -1.6300   28.0860 C   0  0  0  0  0  0  0  0  0  0  0  0
    7.4060   -0.5630   29.0130 C   0  0  0  0  0  0  0  0  0  0  0  0
    6.6140    0.5580   28.7340 C   0  0  0  0  0  0  0  0  0  0  0  0
    5.8970    0.6440   27.5300 C   0  0  0  0  0  0  0  0  0  0  0  0
    6.8560   -4.2120   21.3880 N   0  0  0  0  0  0  0  0  0  0  0  0
    7.2690   -2.9650   22.0680 C   0  0  2  0  0  0  0  0  0  0  0  0
    7.2340   -3.0650   23.4280 C   0  0  0  0  0  0  0  0  0  0  0  0
    6.0110   -3.5190   23.8890 C   0  0  1  0  0  0  0  0  0  0  0  0
    5.6040   -4.9340   23.4900 C   0  0  0  0  0  0  0  0  0  0  0  0
    6.3270   -5.3410   22.1740 C   0  0  0  0  0  0  0  0  0  0  0  0
  2  3  1  1
  1  4  1  0
  2  4  1  0
  4  6  2  0
 10  5  1  0
  7 10  2  0
  8 10  2  0
 11 15  1  0
 13 15  2  0
 14 16  2  0
 16 17  1  0
  3 18  1  0
 19 20  2  0
  2 21  1  0
 20 21  1  0
 21 22  2  0
 22 23  1  0
 19 24  1  0
 23 24  2  0
 25 26  2  0
 26 27  1  0
 27 28  2  0
  5 29  1  0
 28 29  1  0
  1 30  1  0
 25 30  1  0
 29 30  2  0
 31 32  2  0
  9 33  1  0
 32 33  1  0
 33 34  2  0
 34 35  1  0
 10 36  1  0
 31 36  1  0
 35 36  2  0
 12 37  1  0
 11 38  1  0
 37 38  2  0
 38 39  1  0
 39 40  2  0
 40 41  1  0
 37 42  1  0
 41 42  2  0
 16 43  1  0
 44 18  1  6
 43 44  1  0
 44 45  1  0
 46 15  1  1
 45 46  1  0
 46 47  1  0
 43 48  1  0
 47 48  1  0
M  END
