x3298-x0426
     RDKit          3D

 40 43  0  0  0  0  0  0  0  0999 V2000
    7.1270    1.8820   22.4360 N   0  0  0  0  0  0  0  0  0  0  0  0
    7.1570   -0.2000   21.3160 C   0  0  2  0  0  0  0  0  0  0  0  0
    6.5270   -0.9080   22.3790 O   0  0  0  0  0  0  0  0  0  0  0  0
    7.7780    1.0260   21.5950 C   0  0  0  0  0  0  0  0  0  0  0  0
    9.0130    1.3240   23.6170 N   0  0  0  0  0  0  0  0  0  0  0  0
    8.8370    1.2810   21.0430 O   0  0  0  0  0  0  0  0  0  0  0  0
   10.9790    1.9420   24.7080 O   0  0  0  0  0  0  0  0  0  0  0  0
    9.6890   -0.0890   25.6340 O   0  0  0  0  0  0  0  0  0  0  0  0
   13.6480   -1.9100   20.8700 F   0  0  0  0  0  0  0  0  0  0  0  0
   10.1970    0.7790   24.5870 S   0  0  0  0  0  0  0  0  0  0  0  0
    2.3250    1.8670   23.7130 C   0  0  0  0  0  0  0  0  0  0  0  0
    2.2450    0.4400   23.6640 O   0  0  0  0  0  0  0  0  0  0  0  0
    3.3240    2.5400   23.1100 N   0  0  0  0  0  0  0  0  0  0  0  0
    3.6730    2.1510   21.8570 C   0  0  0  0  0  0  0  0  0  0  0  0
    4.4320    0.9760   21.7020 C   0  0  0  0  0  0  0  0  0  0  0  0
    2.7900    4.3070   25.1680 F   0  0  0  0  0  0  0  0  0  0  0  0
    6.3430    0.5400   17.7380 N   0  0  0  0  0  0  0  0  0  0  0  0
    6.8960    0.1370   18.8890 C   0  0  0  0  0  0  0  0  0  0  0  0
    6.3380    0.2720   20.1420 C   0  0  0  0  0  0  0  0  0  0  0  0
    5.0870    0.8360   20.3180 C   0  0  0  0  0  0  0  0  0  0  0  0
    4.4420    1.3010   19.0170 C   0  0  0  0  0  0  0  0  0  0  0  0
    5.1240    1.1250   17.8230 C   0  0  0  0  0  0  0  0  0  0  0  0
    7.6280    4.4410   22.5030 C   0  0  0  0  0  0  0  0  0  0  0  0
    8.5640    5.4000   22.9180 C   0  0  0  0  0  0  0  0  0  0  0  0
    9.6980    4.9520   23.5650 C   0  0  0  0  0  0  0  0  0  0  0  0
    9.9300    3.6060   23.8260 C   0  0  0  0  0  0  0  0  0  0  0  0
    8.9810    2.6600   23.4310 C   0  0  0  0  0  0  0  0  0  0  0  0
    7.8720    3.0980   22.7690 C   0  0  0  0  0  0  0  0  0  0  0  0
   12.4350    0.4720   23.2670 C   0  0  0  0  0  0  0  0  0  0  0  0
   13.2800   -0.1430   22.3830 C   0  0  0  0  0  0  0  0  0  0  0  0
   12.8550   -1.3240   21.7400 C   0  0  0  0  0  0  0  0  0  0  0  0
   11.6100   -1.8910   21.9790 C   0  0  0  0  0  0  0  0  0  0  0  0
   10.8020   -1.2420   22.8680 C   0  0  0  0  0  0  0  0  0  0  0  0
   11.1980   -0.0830   23.4960 C   0  0  0  0  0  0  0  0  0  0  0  0
    1.5480    3.8030   25.1550 C   0  0  0  0  0  0  0  0  0  0  0  0
    1.2650    2.6270   24.4670 C   0  0  0  0  0  0  0  0  0  0  0  0
   -0.0490    2.1250   24.4750 C   0  0  0  0  0  0  0  0  0  0  0  0
   -1.0690    2.8150   25.1780 C   0  0  0  0  0  0  0  0  0  0  0  0
   -0.7530    4.0060   25.8670 C   0  0  0  0  0  0  0  0  0  0  0  0
    0.5540    4.4990   25.8550 C   0  0  0  0  0  0  0  0  0  0  0  0
  2  3  1  1
  1  4  1  0
  2  4  1  0
  4  6  2  0
 10  5  1  0
  7 10  2  0
  8 10  2  0
 11 12  2  0
 11 13  1  0
 13 14  1  0
 14 15  1  0
 17 18  2  0
  2 19  1  0
 18 19  1  0
 15 20  1  0
 19 20  2  0
 20 21  1  0
 17 22  1  0
 21 22  2  0
 23 24  2  0
 24 25  1  0
 25 26  2  0
  5 27  1  0
 26 27  1  0
  1 28  1  0
 23 28  1  0
 27 28  2  0
 29 30  2  0
  9 31  1  0
 30 31  1  0
 31 32  2  0
 32 33  1  0
 10 34  1  0
 29 34  1  0
 33 34  2  0
 16 35  1  0
 11 36  1  0
 35 36  2  0
 36 37  1  0
 37 38  2  0
 38 39  1  0
 35 40  1  0
 39 40  2  0
M  END
