x3298-x0755
     RDKit          3D

 51 55  0  0  0  0  0  0  0  0999 V2000
    7.3260    1.9720   22.4050 N   0  0  0  0  0  0  0  0  0  0  0  0
    7.2710   -0.0860   21.3170 C   0  0  2  0  0  0  0  0  0  0  0  0
    6.2860   -0.5890   22.2130 O   0  0  0  0  0  0  0  0  0  0  0  0
    7.9410    1.1020   21.5830 C   0  0  0  0  0  0  0  0  0  0  0  0
    9.0950    1.0710   23.6620 N   0  0  0  0  0  0  0  0  0  0  0  0
    8.9990    1.3190   21.0380 O   0  0  0  0  0  0  0  0  0  0  0  0
   10.6290   -0.8780   25.0020 O   0  0  0  0  0  0  0  0  0  0  0  0
    8.9810   -1.3980   23.4190 O   0  0  0  0  0  0  0  0  0  0  0  0
   14.1580   -1.5380   20.4530 F   0  0  0  0  0  0  0  0  0  0  0  0
    9.9510   -0.4530   23.8270 S   0  0  0  0  0  0  0  0  0  0  0  0
    4.3490   -6.5310   26.2910 O   0  0  0  0  0  0  0  0  0  0  0  0
    6.2060   -4.7580   26.9740 O   0  0  0  0  0  0  0  0  0  0  0  0
    5.2960   -4.8150   19.9710 O   0  0  0  0  0  0  0  0  0  0  0  0
    6.3420   -4.5360   20.5360 C   0  0  0  0  0  0  0  0  0  0  0  0
    7.2470   -3.4820   19.8970 C   0  0  0  0  0  0  0  0  0  0  0  0
    2.0490   -5.4530   25.5270 F   0  0  0  0  0  0  0  0  0  0  0  0
    5.5400   -2.2430   26.2860 O   0  0  0  0  0  0  0  0  0  0  0  0
    5.0540   -5.1460   25.9470 S   0  0  0  0  0  0  0  0  0  0  0  0
    6.6770   -1.1650   23.2240 C   0  0  0  0  0  0  0  0  0  0  0  0
    5.6520   -1.3000   24.1680 C   0  0  0  0  0  0  0  0  0  0  0  0
    6.1210   -1.2230   25.4810 C   0  0  0  0  0  0  0  0  0  0  0  0
    6.2940    0.3310   17.6840 N   0  0  0  0  0  0  0  0  0  0  0  0
    7.0270   -0.1220   18.7460 C   0  0  0  0  0  0  0  0  0  0  0  0
    6.5310    0.3100   20.1190 C   0  0  0  0  0  0  0  0  0  0  0  0
    5.4060    1.0860   20.2450 C   0  0  0  0  0  0  0  0  0  0  0  0
    4.6450    1.5410   19.0230 C   0  0  0  0  0  0  0  0  0  0  0  0
    5.1450    1.1380   17.8060 C   0  0  0  0  0  0  0  0  0  0  0  0
    7.8780    4.3840   22.6210 C   0  0  0  0  0  0  0  0  0  0  0  0
    8.7470    5.3510   23.1180 C   0  0  0  0  0  0  0  0  0  0  0  0
    9.8590    4.9480   23.8570 C   0  0  0  0  0  0  0  0  0  0  0  0
   10.0990    3.5850   24.1010 C   0  0  0  0  0  0  0  0  0  0  0  0
    9.1830    2.6030   23.5840 C   0  0  0  0  0  0  0  0  0  0  0  0
    8.0950    3.0200   22.8530 C   0  0  0  0  0  0  0  0  0  0  0  0
   12.3780    0.1210   23.0300 C   0  0  0  0  0  0  0  0  0  0  0  0
   13.4060   -0.1610   22.2150 C   0  0  0  0  0  0  0  0  0  0  0  0
   13.2620   -1.2260   21.3130 C   0  0  0  0  0  0  0  0  0  0  0  0
   12.1440   -1.9950   21.2400 C   0  0  0  0  0  0  0  0  0  0  0  0
   11.1450   -1.7020   22.0540 C   0  0  0  0  0  0  0  0  0  0  0  0
   11.2740   -0.6740   22.9020 C   0  0  0  0  0  0  0  0  0  0  0  0
    2.4750   -4.1910   25.7010 C   0  0  0  0  0  0  0  0  0  0  0  0
    3.8440   -3.8670   25.9060 C   0  0  0  0  0  0  0  0  0  0  0  0
    4.2190   -2.5120   26.0850 C   0  0  0  0  0  0  0  0  0  0  0  0
    3.2550   -1.5030   26.0600 C   0  0  0  0  0  0  0  0  0  0  0  0
    1.9150   -1.8460   25.8590 C   0  0  0  0  0  0  0  0  0  0  0  0
    1.5290   -3.1670   25.6800 C   0  0  0  0  0  0  0  0  0  0  0  0
    6.6650   -5.2090   21.7180 N   0  0  0  0  0  0  0  0  0  0  0  0
    7.4800   -4.6910   22.8300 C   0  0  0  0  0  0  0  0  0  0  0  0
    6.6670   -4.1870   23.8640 C   0  0  0  0  0  0  0  0  0  0  0  0
    5.7520   -5.2640   24.3780 N   0  0  0  0  0  0  0  0  0  0  0  0
    4.8880   -5.8400   23.2820 C   0  0  0  0  0  0  0  0  0  0  0  0
    5.7720   -6.2940   22.1060 C   0  0  0  0  0  0  0  0  0  0  0  0
  2  3  1  1
  1  4  1  0
  2  4  1  0
  4  6  2  0
 10  5  1  0
  7 10  2  0
  8 10  2  0
 13 14  2  0
 14 15  1  0
 11 18  2  0
 12 18  2  0
  3 19  1  0
 19 20  1  0
 17 21  1  0
 20 21  1  0
 22 23  2  0
  2 24  1  0
 23 24  1  0
 24 25  2  0
 25 26  1  0
 22 27  1  0
 26 27  2  0
 28 29  2  0
 29 30  1  0
 30 31  2  0
  5 32  1  0
 31 32  1  0
  1 33  1  0
 28 33  1  0
 32 33  2  0
 34 35  2  0
  9 36  1  0
 35 36  1  0
 36 37  2  0
 37 38  1  0
 10 39  1  0
 34 39  1  0
 38 39  2  0
 16 40  1  0
 18 41  1  0
 40 41  2  0
 17 42  1  0
 41 42  1  0
 42 43  2  0
 43 44  1  0
 40 45  1  0
 44 45  2  0
 14 46  1  0
 46 47  1  0
 47 48  1  0
 18 49  1  0
 48 49  1  0
 49 50  1  0
 46 51  1  0
 50 51  1  0
M  END
