x3298-x1402
     RDKit          3D

 48 52  0  0  0  0  0  0  0  0999 V2000
    7.1600    1.9230   22.0960 N   0  0  0  0  0  0  0  0  0  0  0  0
    7.4130   -0.2240   21.2170 C   0  0  2  0  0  0  0  0  0  0  0  0
    6.5660   -0.9200   22.1540 O   0  0  0  0  0  0  0  0  0  0  0  0
    7.9670    1.0290   21.4860 C   0  0  0  0  0  0  0  0  0  0  0  0
    8.6160    1.1630   24.0210 N   0  0  0  0  0  0  0  0  0  0  0  0
    9.0920    1.2810   21.1220 O   0  0  0  0  0  0  0  0  0  0  0  0
   10.7160    1.9960   24.6870 O   0  0  0  0  0  0  0  0  0  0  0  0
    9.7720   -0.1100   25.8530 O   0  0  0  0  0  0  0  0  0  0  0  0
   13.6190   -1.8940   20.9170 F   0  0  0  0  0  0  0  0  0  0  0  0
   10.0350    0.7370   24.7070 S   0  0  0  0  0  0  0  0  0  0  0  0
    7.2590   -3.4580   19.9000 C   0  0  0  0  0  0  0  0  0  0  0  0
    5.2710   -4.7190   19.9530 O   0  0  0  0  0  0  0  0  0  0  0  0
    0.6720   -1.3950   26.1600 Cl  0  0  0  0  0  0  0  0  0  0  0  0
    6.3520   -4.5400   20.4930 C   0  0  0  0  0  0  0  0  0  0  0  0
    4.0200   -6.3590   25.8290 O   0  0  0  0  0  0  0  0  0  0  0  0
    6.1760   -5.1850   26.8380 O   0  0  0  0  0  0  0  0  0  0  0  0
    5.0710   -5.1680   25.6960 S   0  0  0  0  0  0  0  0  0  0  0  0
    7.0530   -1.9000   22.7560 C   0  0  0  0  0  0  0  0  0  0  0  0
    6.1160   -2.9370   23.0150 C   0  0  0  0  0  0  0  0  0  0  0  0
    6.2580    0.3020   17.6900 N   0  0  0  0  0  0  0  0  0  0  0  0
    6.9590   -0.0750   18.7640 C   0  0  0  0  0  0  0  0  0  0  0  0
    6.5910    0.1630   20.0650 C   0  0  0  0  0  0  0  0  0  0  0  0
    5.2720    0.8970   20.3140 C   0  0  0  0  0  0  0  0  0  0  0  0
    4.5220    1.2960   19.2390 C   0  0  0  0  0  0  0  0  0  0  0  0
    5.1090    0.9540   17.8720 C   0  0  0  0  0  0  0  0  0  0  0  0
    7.6860    4.3650   22.3790 C   0  0  0  0  0  0  0  0  0  0  0  0
    8.4310    5.2520   23.1400 C   0  0  0  0  0  0  0  0  0  0  0  0
    9.2490    4.8520   24.1920 C   0  0  0  0  0  0  0  0  0  0  0  0
    9.2990    3.4880   24.4710 C   0  0  0  0  0  0  0  0  0  0  0  0
    8.5700    2.5790   23.7390 C   0  0  0  0  0  0  0  0  0  0  0  0
    7.7750    2.9980   22.7030 C   0  0  0  0  0  0  0  0  0  0  0  0
   12.3060    0.4160   23.3560 C   0  0  0  0  0  0  0  0  0  0  0  0
   13.1890   -0.1720   22.4690 C   0  0  0  0  0  0  0  0  0  0  0  0
   12.8080   -1.3210   21.7880 C   0  0  0  0  0  0  0  0  0  0  0  0
   11.5530   -1.8480   22.0270 C   0  0  0  0  0  0  0  0  0  0  0  0
   10.6350   -1.2900   22.9120 C   0  0  0  0  0  0  0  0  0  0  0  0
   11.0330   -0.1330   23.5770 C   0  0  0  0  0  0  0  0  0  0  0  0
    6.6880   -5.3450   21.5920 N   0  0  0  0  0  0  0  0  0  0  0  0
    7.5520   -4.7960   22.6630 C   0  0  0  0  0  0  0  0  0  0  0  0
    6.7760   -4.1890   23.6710 C   0  0  2  0  0  0  0  0  0  0  0  0
    5.7570   -5.2210   24.1190 N   0  0  0  0  0  0  0  0  0  0  0  0
    4.9450   -5.9130   23.0630 C   0  0  0  0  0  0  0  0  0  0  0  0
    5.8010   -6.3990   22.0620 C   0  0  0  0  0  0  0  0  0  0  0  0
    2.4310   -3.7940   25.8460 S   0  0  0  0  0  0  0  0  0  0  0  0
    4.1480   -3.6780   25.8790 C   0  0  0  0  0  0  0  0  0  0  0  0
    4.5190   -2.3480   26.0500 C   0  0  0  0  0  0  0  0  0  0  0  0
    3.4650   -1.4780   26.1530 C   0  0  0  0  0  0  0  0  0  0  0  0
    2.2290   -2.1020   26.0660 C   0  0  0  0  0  0  0  0  0  0  0  0
  2  3  1  1
  1  4  1  0
  2  4  1  0
  4  6  2  0
 10  5  1  0
  7 10  2  0
  8 10  2  0
 11 14  1  0
 12 14  2  0
 15 17  2  0
 16 17  2  0
  3 18  1  0
 18 19  1  0
 20 21  2  0
  2 22  1  0
 21 22  1  0
 22 23  2  0
 23 24  1  0
 20 25  1  0
 24 25  2  0
 26 27  2  0
 27 28  1  0
 28 29  2  0
  5 30  1  0
 29 30  1  0
  1 31  1  0
 26 31  1  0
 30 31  2  0
 32 33  2  0
  9 34  1  0
 33 34  1  0
 34 35  2  0
 35 36  1  0
 10 37  1  0
 32 37  1  0
 36 37  2  0
 14 38  1  0
 38 39  1  0
 40 19  1  6
 39 40  1  0
 17 41  1  0
 40 41  1  0
 41 42  1  0
 38 43  1  0
 42 43  1  0
 17 45  1  0
 44 45  1  0
 45 46  2  0
 46 47  1  0
 13 48  1  0
 44 48  1  0
 47 48  2  0
M  END
