x3298-x2754
     RDKit          3D

 48 52  0  0  0  0  0  0  0  0999 V2000
    7.2320    2.1840   21.8980 N   0  0  0  0  0  0  0  0  0  0  0  0
    7.4650   -0.0260   21.2630 C   0  0  2  0  0  0  0  0  0  0  0  0
    6.6540   -0.6080   22.2720 O   0  0  0  0  0  0  0  0  0  0  0  0
    8.0480    1.2190   21.4390 C   0  0  0  0  0  0  0  0  0  0  0  0
    8.5460    1.4160   23.9070 N   0  0  0  0  0  0  0  0  0  0  0  0
    9.1940    1.3910   21.1370 O   0  0  0  0  0  0  0  0  0  0  0  0
   10.6250    2.0780   24.7280 O   0  0  0  0  0  0  0  0  0  0  0  0
    9.4360    0.0160   25.6730 O   0  0  0  0  0  0  0  0  0  0  0  0
   13.5750   -1.8950   21.0240 F   0  0  0  0  0  0  0  0  0  0  0  0
    9.9040    0.8560   24.6040 S   0  0  0  0  0  0  0  0  0  0  0  0
    4.9000   -3.4270   25.1730 C   0  0  0  0  0  0  0  0  0  0  0  0
    3.6530   -2.9670   24.6360 O   0  0  0  0  0  0  0  0  0  0  0  0
    5.2110   -3.3130   26.4560 N   0  0  0  0  0  0  0  0  0  0  0  0
    5.1790   -4.5480   19.8610 O   0  0  0  0  0  0  0  0  0  0  0  0
    6.1910   -3.9960   20.2590 C   0  0  0  0  0  0  0  0  0  0  0  0
    7.0580   -3.1860   19.3050 C   0  0  0  0  0  0  0  0  0  0  0  0
    4.5550   -2.2520   27.2120 C   0  0  0  0  0  0  0  0  0  0  0  0
    6.0780   -1.7710   21.8460 C   0  0  0  0  0  0  0  0  0  0  0  0
    6.2650    0.2650   17.6800 N   0  0  0  0  0  0  0  0  0  0  0  0
    6.9990   -0.0570   18.7440 C   0  0  0  0  0  0  0  0  0  0  0  0
    6.5860    0.3150   20.1490 C   0  0  0  0  0  0  0  0  0  0  0  0
    5.3990    0.9880   20.3340 C   0  0  0  0  0  0  0  0  0  0  0  0
    4.6190    1.3130   19.0710 C   0  0  0  0  0  0  0  0  0  0  0  0
    5.1130    0.9340   17.8360 C   0  0  0  0  0  0  0  0  0  0  0  0
    7.7240    4.6120   22.3250 C   0  0  0  0  0  0  0  0  0  0  0  0
    8.3830    5.5360   23.1600 C   0  0  0  0  0  0  0  0  0  0  0  0
    9.1020    5.0650   24.2710 C   0  0  0  0  0  0  0  0  0  0  0  0
    9.1380    3.6890   24.5070 C   0  0  0  0  0  0  0  0  0  0  0  0
    8.4820    2.8430   23.6570 C   0  0  0  0  0  0  0  0  0  0  0  0
    7.7800    3.2390   22.5830 C   0  0  0  0  0  0  0  0  0  0  0  0
   12.2410    0.4660   23.3960 C   0  0  0  0  0  0  0  0  0  0  0  0
   13.1370   -0.1640   22.5540 C   0  0  0  0  0  0  0  0  0  0  0  0
   12.7310   -1.2910   21.8490 C   0  0  0  0  0  0  0  0  0  0  0  0
   11.4400   -1.8010   21.9780 C   0  0  0  0  0  0  0  0  0  0  0  0
   10.5450   -1.1550   22.8300 C   0  0  0  0  0  0  0  0  0  0  0  0
   10.9530   -0.0320   23.5240 C   0  0  0  0  0  0  0  0  0  0  0  0
    6.5770   -4.1490   21.5910 N   0  0  0  0  0  0  0  0  0  0  0  0
    6.9080   -2.9260   22.3490 C   0  0  2  0  0  0  0  0  0  0  0  0
    6.7980   -3.0780   23.7640 C   0  0  0  0  0  0  0  0  0  0  0  0
    5.9560   -4.1060   24.2750 C   0  0  2  0  0  0  0  0  0  0  0  0
    5.2530   -4.8410   23.3360 C   0  0  0  0  0  0  0  0  0  0  0  0
    6.0840   -5.2930   22.3230 C   0  0  0  0  0  0  0  0  0  0  0  0
    6.9420   -5.0440   27.0560 C   0  0  0  0  0  0  0  0  0  0  0  0
    8.2150   -5.3840   27.4990 C   0  0  0  0  0  0  0  0  0  0  0  0
    9.1310   -4.3950   27.8300 C   0  0  0  0  0  0  0  0  0  0  0  0
    8.7900   -2.9080   27.7240 C   0  0  0  0  0  0  0  0  0  0  0  0
    7.4120   -2.5340   27.2380 C   0  0  0  0  0  0  0  0  0  0  0  0
    6.5380   -3.7030   26.9250 C   0  0  0  0  0  0  0  0  0  0  0  0
  2  3  1  1
  1  4  1  0
  2  4  1  0
  4  6  2  0
 10  5  1  0
  7 10  2  0
  8 10  2  0
 11 12  2  0
 11 13  1  0
 14 15  2  0
 15 16  1  0
 13 17  1  0
  3 18  1  0
 19 20  2  0
  2 21  1  0
 20 21  1  0
 21 22  2  0
 22 23  1  0
 19 24  1  0
 23 24  2  0
 25 26  2  0
 26 27  1  0
 27 28  2  0
  5 29  1  0
 28 29  1  0
  1 30  1  0
 25 30  1  0
 29 30  2  0
 31 32  2  0
  9 33  1  0
 32 33  1  0
 33 34  2  0
 34 35  1  0
 10 36  1  0
 31 36  1  0
 35 36  2  0
 15 37  1  0
 38 18  1  6
 37 38  1  0
 38 39  1  0
 40 11  1  1
 39 40  1  0
 40 41  1  0
 37 42  1  0
 41 42  1  0
 43 44  2  0
 44 45  1  0
 45 46  2  0
 46 47  1  0
 13 48  1  0
 43 48  1  0
 47 48  2  0
M  END
