x3298-x0305
     RDKit          3D

 30 32  0  0  0  0  0  0  0  0999 V2000
    7.2250    2.0710   22.1010 N   0  0  0  0  0  0  0  0  0  0  0  0
    7.4030   -0.0330   21.1620 C   0  0  2  0  0  0  0  0  0  0  0  0
    6.4770   -0.6500   22.0580 O   0  0  0  0  0  0  0  0  0  0  0  0
    8.0020    1.1770   21.4630 C   0  0  0  0  0  0  0  0  0  0  0  0
    8.2850    1.1640   24.2150 N   0  0  0  0  0  0  0  0  0  0  0  0
    9.1300    1.3920   21.1020 O   0  0  0  0  0  0  0  0  0  0  0  0
    9.4890    1.6680   26.0050 O   0  0  0  0  0  0  0  0  0  0  0  0
    8.6320   -0.8320   25.9520 N   0  0  0  0  0  0  0  0  0  0  0  0
   13.4160   -1.2690   21.2810 C   0  0  0  0  0  0  0  0  0  0  0  0
    9.3120    0.4960   25.2830 S   0  0  1  0  0  0  0  0  0  0  0  0
    8.3780   -0.7300   27.2770 C   0  0  0  0  0  0  0  0  0  0  0  0
   14.1630   -1.4060   20.2290 N   0  0  0  0  0  0  0  0  0  0  0  0
    6.2500    0.1430   17.6870 N   0  0  0  0  0  0  0  0  0  0  0  0
    6.9530   -0.1210   18.8020 C   0  0  0  0  0  0  0  0  0  0  0  0
    6.5990    0.2450   20.0990 C   0  0  0  0  0  0  0  0  0  0  0  0
    5.4090    0.9380   20.3200 C   0  0  0  0  0  0  0  0  0  0  0  0
    4.6240    1.2490   19.2440 C   0  0  0  0  0  0  0  0  0  0  0  0
    5.1150    0.8140   17.8800 C   0  0  0  0  0  0  0  0  0  0  0  0
    8.0220    4.4070   22.3970 C   0  0  0  0  0  0  0  0  0  0  0  0
    8.8590    5.3400   23.2980 C   0  0  0  0  0  0  0  0  0  0  0  0
    9.4520    4.8060   24.4380 C   0  0  0  0  0  0  0  0  0  0  0  0
    9.2430    3.4510   24.6990 C   0  0  0  0  0  0  0  0  0  0  0  0
    8.4850    2.5960   23.8980 C   0  0  0  0  0  0  0  0  0  0  0  0
    7.8930    3.0660   22.7650 C   0  0  0  0  0  0  0  0  0  0  0  0
   11.7680    0.7300   23.9570 C   0  0  0  0  0  0  0  0  0  0  0  0
   12.6950    0.3100   23.0490 C   0  0  0  0  0  0  0  0  0  0  0  0
   12.4400   -0.8140   22.3170 C   0  0  0  0  0  0  0  0  0  0  0  0
   11.2840   -1.5480   22.4660 C   0  0  0  0  0  0  0  0  0  0  0  0
   10.3450   -1.1300   23.3880 C   0  0  0  0  0  0  0  0  0  0  0  0
   10.5780    0.0280   24.1500 C   0  0  0  0  0  0  0  0  0  0  0  0
  2  3  1  1
  1  4  1  0
  2  4  1  0
  4  6  2  0
 10  5  1  6
  7 10  2  0
  8 10  2  0
  8 11  1  0
  9 12  3  0
 13 14  2  0
  2 15  1  0
 14 15  1  0
 15 16  2  0
 16 17  1  0
 13 18  1  0
 17 18  2  0
 19 20  2  0
 20 21  1  0
 21 22  2  0
  5 23  1  0
 22 23  1  0
  1 24  1  0
 19 24  1  0
 23 24  2  0
 25 26  2  0
  9 27  1  0
 26 27  1  0
 27 28  2  0
 28 29  1  0
 10 30  1  0
 25 30  1  0
 29 30  2  0
M  END
