x3298-x1386
     RDKit          3D

 38 42  0  0  0  0  0  0  0  0999 V2000
    7.1420    2.0650   22.3580 N   0  0  0  0  0  0  0  0  0  0  0  0
    7.1680    0.0720   21.1520 C   0  0  2  0  0  0  0  0  0  0  0  0
    6.6670   -0.5240   22.1330 O   0  0  0  0  0  0  0  0  0  0  0  0
    7.8790    1.1090   21.5580 C   0  0  0  0  0  0  0  0  0  0  0  0
    9.0130    1.2690   23.6830 N   0  0  0  0  0  0  0  0  0  0  0  0
    9.0340    1.3050   21.2040 O   0  0  0  0  0  0  0  0  0  0  0  0
   11.0100    1.9110   24.7080 O   0  0  0  0  0  0  0  0  0  0  0  0
    9.8040   -0.1300   25.6860 O   0  0  0  0  0  0  0  0  0  0  0  0
   13.7210   -1.8080   20.8450 F   0  0  0  0  0  0  0  0  0  0  0  0
   10.2650    0.7180   24.5990 S   0  0  0  0  0  0  0  0  0  0  0  0
    7.3830   -2.9650   18.7610 C   0  0  0  0  0  0  0  0  0  0  0  0
    5.4210   -3.9430   19.6620 O   0  0  0  0  0  0  0  0  0  0  0  0
    6.3810   -3.1760   19.8650 C   0  0  0  0  0  0  0  0  0  0  0  0
    9.6240   -2.9580   23.8450 C   0  0  0  0  0  0  0  0  0  0  0  0
    6.3020    0.6130   17.5720 N   0  0  0  0  0  0  0  0  0  0  0  0
    6.8660    0.2770   18.6500 C   0  0  0  0  0  0  0  0  0  0  0  0
    6.3720    0.4490   20.0310 C   0  0  0  0  0  0  0  0  0  0  0  0
    5.0110    1.0790   20.1400 C   0  0  0  0  0  0  0  0  0  0  0  0
    4.4100    1.4450   18.8340 C   0  0  0  0  0  0  0  0  0  0  0  0
    5.1100    1.1900   17.6800 C   0  0  0  0  0  0  0  0  0  0  0  0
    7.7370    4.5010   22.4990 C   0  0  0  0  0  0  0  0  0  0  0  0
    8.6920    5.4110   22.9780 C   0  0  0  0  0  0  0  0  0  0  0  0
    9.7970    4.9300   23.6860 C   0  0  0  0  0  0  0  0  0  0  0  0
    9.9120    3.5560   23.9090 C   0  0  0  0  0  0  0  0  0  0  0  0
    8.9500    2.6750   23.4510 C   0  0  0  0  0  0  0  0  0  0  0  0
    7.9040    3.1360   22.7510 C   0  0  0  0  0  0  0  0  0  0  0  0
   12.4860    0.4900   23.2960 C   0  0  0  0  0  0  0  0  0  0  0  0
   13.3500   -0.0720   22.4040 C   0  0  0  0  0  0  0  0  0  0  0  0
   12.9410   -1.2350   21.7330 C   0  0  0  0  0  0  0  0  0  0  0  0
   11.7180   -1.7890   21.9740 C   0  0  0  0  0  0  0  0  0  0  0  0
   10.8820   -1.1890   22.8780 C   0  0  0  0  0  0  0  0  0  0  0  0
   11.2750   -0.0960   23.4910 C   0  0  0  0  0  0  0  0  0  0  0  0
    6.5880   -2.5560   21.0920 N   0  0  0  0  0  0  0  0  0  0  0  0
    7.4820   -1.4130   21.3600 C   0  0  1  0  0  0  0  0  0  0  0  0
    8.5800   -1.8430   22.0740 C   0  0  0  0  0  0  0  0  0  0  0  0
    8.3660   -2.5440   23.1950 N   0  0  0  0  0  0  0  0  0  0  0  0
    7.5100   -3.5710   23.0540 C   0  0  0  0  0  0  0  0  0  0  0  0
    6.3360   -3.3220   22.3150 C   0  0  0  0  0  0  0  0  0  0  0  0
  2  3  1  0
  1  4  1  0
  2  4  1  1
  4  6  2  0
 10  5  1  0
  7 10  2  0
  8 10  2  0
 11 13  1  0
 12 13  2  0
 15 16  2  0
  2 17  1  0
 16 17  1  0
 17 18  2  0
 18 19  1  0
 15 20  1  0
 19 20  2  0
 21 22  2  0
 22 23  1  0
 23 24  2  0
  5 25  1  0
 24 25  1  0
  1 26  1  0
 21 26  1  0
 25 26  2  0
 27 28  2  0
  9 29  1  0
 28 29  1  0
 29 30  2  0
 30 31  1  0
 10 32  1  0
 27 32  1  0
 31 32  2  0
 13 33  1  0
  2 34  1  0
 34  3  1  0
 33 34  1  0
 34 35  1  1
 14 36  1  0
 35 36  1  0
 36 37  1  0
 33 38  1  0
 37 38  1  0
M  END
