x3298-x1308
     RDKit          3D

 49 53  0  0  0  0  0  0  0  0999 V2000
    7.2210    2.0420   22.1030 N   0  0  0  0  0  0  0  0  0  0  0  0
    7.5330   -0.0810   21.2050 C   0  0  2  0  0  0  0  0  0  0  0  0
    6.7690   -0.8220   22.1550 O   0  0  0  0  0  0  0  0  0  0  0  0
    8.0420    1.1780   21.4780 C   0  0  0  0  0  0  0  0  0  0  0  0
    8.6050    1.2240   24.0660 N   0  0  0  0  0  0  0  0  0  0  0  0
    9.1510    1.4490   21.1050 O   0  0  0  0  0  0  0  0  0  0  0  0
   10.7800    1.9810   24.5870 O   0  0  0  0  0  0  0  0  0  0  0  0
    9.8330   -0.0920   25.8300 O   0  0  0  0  0  0  0  0  0  0  0  0
   13.5860   -1.9610   20.8920 F   0  0  0  0  0  0  0  0  0  0  0  0
   10.0500    0.7480   24.6610 S   0  0  0  0  0  0  0  0  0  0  0  0
    7.6450   -3.5010   20.1750 C   0  0  0  0  0  0  0  0  0  0  0  0
    5.5020   -4.6230   19.9450 O   0  0  0  0  0  0  0  0  0  0  0  0
    0.6840   -1.1710   26.3800 Cl  0  0  0  0  0  0  0  0  0  0  0  0
    6.5150   -4.4270   20.6320 C   0  0  0  0  0  0  0  0  0  0  0  0
    6.4750   -5.0940   26.9040 O   0  0  0  0  0  0  0  0  0  0  0  0
    4.6770   -6.9320   26.1970 O   0  0  0  0  0  0  0  0  0  0  0  0
    5.2150   -5.4490   25.9960 S   0  0  0  0  0  0  0  0  0  0  0  0
    6.7760   -2.0320   21.9230 C   0  0  0  0  0  0  0  0  0  0  0  0
    6.3410   -2.8260   22.9910 C   0  0  0  0  0  0  0  0  0  0  0  0
    6.2250    0.2140   17.7010 N   0  0  0  0  0  0  0  0  0  0  0  0
    6.9760   -0.0940   18.7640 C   0  0  0  0  0  0  0  0  0  0  0  0
    6.6660    0.2330   20.0630 C   0  0  0  0  0  0  0  0  0  0  0  0
    5.3580    0.9860   20.3230 C   0  0  0  0  0  0  0  0  0  0  0  0
    4.5610    1.3140   19.2590 C   0  0  0  0  0  0  0  0  0  0  0  0
    5.0860    0.8790   17.8920 C   0  0  0  0  0  0  0  0  0  0  0  0
    7.7510    4.4650   22.4620 C   0  0  0  0  0  0  0  0  0  0  0  0
    8.4710    5.3350   23.2690 C   0  0  0  0  0  0  0  0  0  0  0  0
    9.2450    4.9160   24.3410 C   0  0  0  0  0  0  0  0  0  0  0  0
    9.2870    3.5460   24.6090 C   0  0  0  0  0  0  0  0  0  0  0  0
    8.5770    2.6500   23.8210 C   0  0  0  0  0  0  0  0  0  0  0  0
    7.8230    3.0940   22.7650 C   0  0  0  0  0  0  0  0  0  0  0  0
   12.3010    0.3520   23.3370 C   0  0  0  0  0  0  0  0  0  0  0  0
   13.1780   -0.2490   22.4630 C   0  0  0  0  0  0  0  0  0  0  0  0
   12.7750   -1.3720   21.7480 C   0  0  0  0  0  0  0  0  0  0  0  0
   11.4930   -1.8510   21.9460 C   0  0  0  0  0  0  0  0  0  0  0  0
   10.5760   -1.2750   22.8170 C   0  0  0  0  0  0  0  0  0  0  0  0
   11.0040   -0.1480   23.5200 C   0  0  0  0  0  0  0  0  0  0  0  0
    6.6240   -5.0290   21.8740 N   0  0  0  0  0  0  0  0  0  0  0  0
    7.1110   -4.1550   22.9700 C   0  0  2  0  0  0  0  0  0  0  0  0
    7.1150   -4.8560   24.1710 C   0  0  0  0  0  0  0  0  0  0  0  0
    5.6910   -5.2220   24.3720 N   0  0  0  0  0  0  0  0  0  0  0  0
    5.1120   -6.1540   23.3450 C   0  0  0  0  0  0  0  0  0  0  0  0
    5.9990   -6.2990   22.2550 C   0  0  0  0  0  0  0  0  0  0  0  0
    4.2720   -2.9920   26.4680 C   0  0  0  0  0  0  0  0  0  0  0  0
    3.2270   -2.0610   26.5420 C   0  0  0  0  0  0  0  0  0  0  0  0
    1.8990   -2.3760   26.2530 C   0  0  0  0  0  0  0  0  0  0  0  0
    1.5560   -3.6720   25.8620 C   0  0  0  0  0  0  0  0  0  0  0  0
    2.5550   -4.6500   25.7700 C   0  0  0  0  0  0  0  0  0  0  0  0
    4.0030   -4.3110   26.0890 C   0  0  0  0  0  0  0  0  0  0  0  0
  2  3  1  1
  1  4  1  0
  2  4  1  0
  4  6  2  0
 10  5  1  0
  7 10  2  0
  8 10  2  0
 11 14  1  0
 12 14  2  0
 15 17  2  0
 16 17  2  0
  3 18  1  0
 18 19  1  0
 20 21  2  0
  2 22  1  0
 21 22  1  0
 22 23  2  0
 23 24  1  0
 20 25  1  0
 24 25  2  0
 26 27  2  0
 27 28  1  0
 28 29  2  0
  5 30  1  0
 29 30  1  0
  1 31  1  0
 26 31  1  0
 30 31  2  0
 32 33  2  0
  9 34  1  0
 33 34  1  0
 34 35  2  0
 35 36  1  0
 10 37  1  0
 32 37  1  0
 36 37  2  0
 14 38  1  0
 39 19  1  1
 38 39  1  0
 39 40  1  0
 17 41  1  0
 40 41  1  0
 41 42  1  0
 38 43  1  0
 42 43  1  0
 44 45  2  0
 13 46  1  0
 45 46  1  0
 46 47  2  0
 47 48  1  0
 17 49  1  0
 44 49  1  0
 48 49  2  0
M  END
