x3298-x0770
     RDKit          3D

 38 42  0  0  0  0  0  0  0  0999 V2000
    7.1400    1.9710   22.3420 N   0  0  0  0  0  0  0  0  0  0  0  0
    7.0760   -0.0850   21.2490 C   0  0  2  0  0  0  0  0  0  0  0  0
    6.4950   -0.6390   22.2140 O   0  0  0  0  0  0  0  0  0  0  0  0
    7.8610    0.8760   21.7000 C   0  0  0  0  0  0  0  0  0  0  0  0
    9.0150    1.2650   23.7070 N   0  0  0  0  0  0  0  0  0  0  0  0
    9.0730    0.8560   21.5250 O   0  0  0  0  0  0  0  0  0  0  0  0
   11.0360    1.9240   24.6830 O   0  0  0  0  0  0  0  0  0  0  0  0
    9.8260   -0.0820   25.7300 O   0  0  0  0  0  0  0  0  0  0  0  0
   13.7000   -1.8320   20.8540 F   0  0  0  0  0  0  0  0  0  0  0  0
   10.2760    0.7330   24.6150 S   0  0  0  0  0  0  0  0  0  0  0  0
    7.2650   -2.9900   18.8490 C   0  0  0  0  0  0  0  0  0  0  0  0
    5.3930   -4.1560   19.7590 O   0  0  0  0  0  0  0  0  0  0  0  0
    6.2900   -3.3240   19.9670 C   0  0  0  0  0  0  0  0  0  0  0  0
    9.6460   -3.3270   23.6440 C   0  0  0  0  0  0  0  0  0  0  0  0
    6.3280    0.6040   17.6340 N   0  0  0  0  0  0  0  0  0  0  0  0
    6.8570    0.2210   18.7230 C   0  0  0  0  0  0  0  0  0  0  0  0
    6.3250    0.3470   20.0990 C   0  0  0  0  0  0  0  0  0  0  0  0
    4.9690    0.9960   20.1780 C   0  0  0  0  0  0  0  0  0  0  0  0
    4.4100    1.4200   18.8640 C   0  0  0  0  0  0  0  0  0  0  0  0
    5.1350    1.1970   17.7180 C   0  0  0  0  0  0  0  0  0  0  0  0
    7.7140    4.4270   22.3870 C   0  0  0  0  0  0  0  0  0  0  0  0
    8.6580    5.3690   22.8350 C   0  0  0  0  0  0  0  0  0  0  0  0
    9.7640    4.9330   23.5690 C   0  0  0  0  0  0  0  0  0  0  0  0
    9.8970    3.5720   23.8470 C   0  0  0  0  0  0  0  0  0  0  0  0
    8.9450    2.6590   23.4190 C   0  0  0  0  0  0  0  0  0  0  0  0
    7.8950    3.0720   22.6940 C   0  0  0  0  0  0  0  0  0  0  0  0
   12.4720    0.4890   23.2840 C   0  0  0  0  0  0  0  0  0  0  0  0
   13.3300   -0.0820   22.3910 C   0  0  0  0  0  0  0  0  0  0  0  0
   12.9210   -1.2560   21.7400 C   0  0  0  0  0  0  0  0  0  0  0  0
   11.6990   -1.8150   22.0030 C   0  0  0  0  0  0  0  0  0  0  0  0
   10.8650   -1.2090   22.9100 C   0  0  0  0  0  0  0  0  0  0  0  0
   11.2670   -0.1040   23.5000 C   0  0  0  0  0  0  0  0  0  0  0  0
    6.4390   -2.7270   21.2110 N   0  0  0  0  0  0  0  0  0  0  0  0
    7.3160   -1.5730   21.5140 C   0  0  1  0  0  0  0  0  0  0  0  0
    8.4220   -1.9730   22.2440 C   0  0  0  0  0  0  0  0  0  0  0  0
    8.3100   -2.8530   23.2500 N   0  0  0  0  0  0  0  0  0  0  0  0
    7.4880   -3.8860   22.9990 C   0  0  0  0  0  0  0  0  0  0  0  0
    6.2590   -3.5710   22.3940 C   0  0  0  0  0  0  0  0  0  0  0  0
  2  3  1  0
  1  4  1  0
  2  4  1  1
  4  6  2  0
 10  5  1  0
  7 10  2  0
  8 10  2  0
 11 13  1  0
 12 13  2  0
 15 16  2  0
  2 17  1  0
 16 17  1  0
 17 18  2  0
 18 19  1  0
 15 20  1  0
 19 20  2  0
 21 22  2  0
 22 23  1  0
 23 24  2  0
  5 25  1  0
 24 25  1  0
  1 26  1  0
 21 26  1  0
 25 26  2  0
 27 28  2  0
  9 29  1  0
 28 29  1  0
 29 30  2  0
 30 31  1  0
 10 32  1  0
 27 32  1  0
 31 32  2  0
 13 33  1  0
  2 34  1  0
 34  3  1  0
 33 34  1  0
 34 35  1  1
 14 36  1  0
 35 36  1  0
 36 37  1  0
 33 38  1  0
 37 38  1  0
M  END
