x3298-x0978
     RDKit          3D

 45 47  0  0  0  0  0  0  0  0999 V2000
    1.9950   -5.6310   23.0690 N   0  0  0  0  0  0  0  0  0  0  0  0
    2.3340   -8.0340   24.6650 C   0  0  0  0  0  0  0  0  0  0  0  0
    4.4870   -7.6810   24.5880 O   0  0  0  0  0  0  0  0  0  0  0  0
    3.3070   -7.0650   24.3890 C   0  0  1  0  0  0  0  0  0  0  0  0
    5.2540   -5.7110   21.7610 N   0  0  0  0  0  0  0  0  0  0  0  0
    0.7220   -7.3290   21.9380 O   0  0  0  0  0  0  0  0  0  0  0  0
    3.2550   -6.3790   23.1730 C   0  0  2  0  0  0  0  0  0  0  0  0
    4.6730   -4.4220   23.5880 O   0  0  0  0  0  0  0  0  0  0  0  0
    0.7470   -6.2420   22.5040 C   0  0  0  0  0  0  0  0  0  0  0  0
   -0.3940   -5.4350   22.6860 C   0  0  0  0  0  0  0  0  0  0  0  0
    4.4540   -5.4040   22.8910 C   0  0  0  0  0  0  0  0  0  0  0  0
    6.5470   -5.0480   21.4330 C   0  0  1  0  0  0  0  0  0  0  0  0
    6.5530   -4.3930   20.0210 C   0  0  0  0  0  0  0  0  0  0  0  0
    5.3890   -3.5970   19.5350 C   0  0  0  0  0  0  0  0  0  0  0  0
    7.8450    2.0460   21.4120 N   0  0  0  0  0  0  0  0  0  0  0  0
    7.5420   -0.3680   21.0330 C   0  0  2  0  0  0  0  0  0  0  0  0
    6.6740   -0.7030   22.1220 O   0  0  0  0  0  0  0  0  0  0  0  0
    8.3950    0.8410   21.4080 C   0  0  0  0  0  0  0  0  0  0  0  0
    8.5330    1.0670   24.1060 N   0  0  0  0  0  0  0  0  0  0  0  0
    9.5660    0.6800   21.6810 O   0  0  0  0  0  0  0  0  0  0  0  0
   10.7920    1.9430   24.6750 O   0  0  0  0  0  0  0  0  0  0  0  0
    9.8680   -0.2190   25.9440 O   0  0  0  0  0  0  0  0  0  0  0  0
   13.5910   -1.8210   20.9640 F   0  0  0  0  0  0  0  0  0  0  0  0
   10.0000    0.5890   24.7480 S   0  0  0  0  0  0  0  0  0  0  0  0
    6.9650   -4.1970   22.4790 C   0  0  0  0  0  0  0  0  0  0  0  0
    7.3000   -2.8630   22.2560 C   0  0  0  0  0  0  0  0  0  0  0  0
    6.2050   -2.0330   22.0030 C   0  0  0  0  0  0  0  0  0  0  0  0
    6.2430    0.4000   17.6300 N   0  0  0  0  0  0  0  0  0  0  0  0
    6.9830   -0.0550   18.6370 C   0  0  0  0  0  0  0  0  0  0  0  0
    6.6600    0.1260   19.9480 C   0  0  0  0  0  0  0  0  0  0  0  0
    5.4800    0.8100   20.2650 C   0  0  0  0  0  0  0  0  0  0  0  0
    4.6760    1.2980   19.2360 C   0  0  0  0  0  0  0  0  0  0  0  0
    5.1280    1.0580   17.9430 C   0  0  0  0  0  0  0  0  0  0  0  0
    8.0140    4.3560   22.2660 C   0  0  0  0  0  0  0  0  0  0  0  0
    8.2780    5.1630   23.3840 C   0  0  0  0  0  0  0  0  0  0  0  0
    8.5790    4.5980   24.6360 C   0  0  0  0  0  0  0  0  0  0  0  0
    8.6180    3.1970   24.7600 C   0  0  0  0  0  0  0  0  0  0  0  0
    8.3790    2.4870   23.6640 C   0  0  0  0  0  0  0  0  0  0  0  0
    8.0720    2.9480   22.4190 C   0  0  0  0  0  0  0  0  0  0  0  0
   12.2290    0.4060   23.4600 C   0  0  0  0  0  0  0  0  0  0  0  0
   13.1300   -0.1490   22.5520 C   0  0  0  0  0  0  0  0  0  0  0  0
   12.7590   -1.2900   21.8460 C   0  0  0  0  0  0  0  0  0  0  0  0
   11.5040   -1.8760   22.0460 C   0  0  0  0  0  0  0  0  0  0  0  0
   10.6170   -1.3200   22.9500 C   0  0  0  0  0  0  0  0  0  0  0  0
   10.9700   -0.1800   23.6550 C   0  0  0  0  0  0  0  0  0  0  0  0
  4  2  1  6
  3  4  1  0
  7  1  1  1
  4  7  1  0
  1  9  1  0
  6  9  2  0
  9 10  1  0
  5 11  1  0
  7 11  1  0
  8 11  2  0
  5 12  1  0
 12 13  1  6
 13 14  2  3
 16 17  1  1
 15 18  1  0
 16 18  1  0
 18 20  2  0
 24 19  1  0
 21 24  2  0
 22 24  2  0
 12 25  1  0
 25 26  1  0
 17 27  1  0
 26 27  1  0
 28 29  2  0
 16 30  1  0
 29 30  1  0
 30 31  2  0
 31 32  1  0
 28 33  1  0
 32 33  2  0
 34 35  2  0
 35 36  1  0
 36 37  2  0
 19 38  1  0
 37 38  1  0
 15 39  1  0
 34 39  1  0
 38 39  2  0
 40 41  2  0
 23 42  1  0
 41 42  1  0
 42 43  2  0
 43 44  1  0
 24 45  1  0
 40 45  1  0
 44 45  2  0
M  END
