x3298-x0820
     RDKit          3D

 43 47  0  0  0  0  0  0  0  0999 V2000
    7.2570    1.4320   22.0460 N   0  0  0  0  0  0  0  0  0  0  0  0
    7.4080   -0.8530   21.3470 C   0  0  2  0  0  0  0  0  0  0  0  0
    6.9980   -1.7300   22.4930 O   0  0  0  0  0  0  0  0  0  0  0  0
    8.0590    0.3760   21.6570 C   0  0  0  0  0  0  0  0  0  0  0  0
    8.6760    1.0810   23.9710 N   0  0  0  0  0  0  0  0  0  0  0  0
    9.2670    0.4380   21.5390 O   0  0  0  0  0  0  0  0  0  0  0  0
   10.7440    1.9540   24.6980 O   0  0  0  0  0  0  0  0  0  0  0  0
    9.8310   -0.1930   25.8160 O   0  0  0  0  0  0  0  0  0  0  0  0
   13.6350   -1.8500   20.9010 F   0  0  0  0  0  0  0  0  0  0  0  0
   10.0860    0.6840   24.6850 S   0  0  0  0  0  0  0  0  0  0  0  0
    6.9020   -3.7720   21.6760 N   0  0  0  0  0  0  0  0  0  0  0  0
    5.5560   -4.8630   20.0450 O   0  0  0  0  0  0  0  0  0  0  0  0
    6.2860   -2.8090   22.4040 C   0  0  1  0  0  0  0  0  0  0  0  0
    6.4380   -4.0510   20.3890 C   0  0  0  0  0  0  0  0  0  0  0  0
    7.1650   -3.2860   19.3130 C   0  0  0  0  0  0  0  0  0  0  0  0
    6.3600    0.2560   17.8670 N   0  0  0  0  0  0  0  0  0  0  0  0
    7.0090   -0.2770   18.9360 C   0  0  0  0  0  0  0  0  0  0  0  0
    6.5140   -0.2440   20.2410 C   0  0  0  0  0  0  0  0  0  0  0  0
    5.2900    0.3400   20.4990 C   0  0  0  0  0  0  0  0  0  0  0  0
    4.5330    0.9460   19.3010 C   0  0  0  0  0  0  0  0  0  0  0  0
    5.1540    0.8520   18.0560 C   0  0  0  0  0  0  0  0  0  0  0  0
    7.6270    4.0300   22.1640 C   0  0  0  0  0  0  0  0  0  0  0  0
    8.3010    5.0270   22.8770 C   0  0  0  0  0  0  0  0  0  0  0  0
    9.1020    4.7140   23.9480 C   0  0  0  0  0  0  0  0  0  0  0  0
    9.2590    3.3940   24.3550 C   0  0  0  0  0  0  0  0  0  0  0  0
    8.5960    2.3890   23.6610 C   0  0  0  0  0  0  0  0  0  0  0  0
    7.8030    2.7050   22.5850 C   0  0  0  0  0  0  0  0  0  0  0  0
   12.3530    0.4130   23.3650 C   0  0  0  0  0  0  0  0  0  0  0  0
   13.2270   -0.1580   22.4780 C   0  0  0  0  0  0  0  0  0  0  0  0
   12.8140   -1.2960   21.7710 C   0  0  0  0  0  0  0  0  0  0  0  0
   11.5520   -1.8580   21.9420 C   0  0  0  0  0  0  0  0  0  0  0  0
   10.6760   -1.2740   22.8390 C   0  0  0  0  0  0  0  0  0  0  0  0
   11.0930   -0.1430   23.5370 C   0  0  0  0  0  0  0  0  0  0  0  0
    5.8250   -3.4380   23.7620 C   0  0  0  0  0  0  0  0  0  0  0  0
    6.5570   -3.9550   24.8780 C   0  0  0  0  0  0  0  0  0  0  0  0
    5.8490   -4.4550   26.0120 C   0  0  0  0  0  0  0  0  0  0  0  0
    4.4380   -4.4520   26.0200 C   0  0  0  0  0  0  0  0  0  0  0  0
    3.7430   -3.9540   24.9070 C   0  0  0  0  0  0  0  0  0  0  0  0
    4.4320   -3.4570   23.8060 C   0  0  0  0  0  0  0  0  0  0  0  0
    6.4880   -4.9700   27.1600 C   0  0  0  0  0  0  0  0  0  0  0  0
    7.8670   -5.0270   27.2240 C   0  0  0  0  0  0  0  0  0  0  0  0
    8.6000   -4.5670   26.1340 C   0  0  0  0  0  0  0  0  0  0  0  0
    7.9700   -4.0350   24.9910 C   0  0  0  0  0  0  0  0  0  0  0  0
  2  3  1  1
  1  4  1  0
  2  4  1  0
  4  6  2  0
 10  5  1  0
  7 10  2  0
  8 10  2  0
  3 13  1  0
 13 11  1  1
 11 14  1  0
 12 14  2  0
 14 15  1  0
 16 17  2  0
  2 18  1  0
 17 18  1  0
 18 19  2  0
 19 20  1  0
 16 21  1  0
 20 21  2  0
 22 23  2  0
 23 24  1  0
 24 25  2  0
  5 26  1  0
 25 26  1  0
  1 27  1  0
 22 27  1  0
 26 27  2  0
 28 29  2  0
  9 30  1  0
 29 30  1  0
 30 31  2  0
 31 32  1  0
 10 33  1  0
 28 33  1  0
 32 33  2  0
 13 34  1  0
 34 35  2  0
 35 36  1  0
 36 37  2  0
 37 38  1  0
 34 39  1  0
 38 39  2  0
 36 40  1  0
 40 41  2  0
 41 42  1  0
 35 43  1  0
 42 43  2  0
M  END
