x3298-x0387
     RDKit          3D

 36 39  0  0  0  0  0  0  0  0999 V2000
    7.0900    2.0260   22.2890 N   0  0  0  0  0  0  0  0  0  0  0  0
    7.2350   -0.0980   21.2900 C   0  0  2  0  0  0  0  0  0  0  0  0
    6.3500   -0.7050   22.2300 O   0  0  0  0  0  0  0  0  0  0  0  0
    7.8190    1.1330   21.5570 C   0  0  0  0  0  0  0  0  0  0  0  0
    9.0320    1.2020   23.5900 N   0  0  0  0  0  0  0  0  0  0  0  0
    8.9160    1.3670   21.0830 O   0  0  0  0  0  0  0  0  0  0  0  0
   11.0360    1.9440   24.6800 O   0  0  0  0  0  0  0  0  0  0  0  0
    9.7390   -0.3800   25.5690 N   0  0  0  0  0  0  0  0  0  0  0  0
   13.7310   -1.8480   20.8160 F   0  0  0  0  0  0  0  0  0  0  0  0
   10.2920    0.7620   24.5170 S   0  0  1  0  0  0  0  0  0  0  0  0
    6.3270    0.2670   17.7090 N   0  0  0  0  0  0  0  0  0  0  0  0
    6.9250   -0.0520   18.8510 C   0  0  0  0  0  0  0  0  0  0  0  0
    6.4530    0.2720   20.1050 C   0  0  0  0  0  0  0  0  0  0  0  0
    5.2500    0.9730   20.2700 C   0  0  0  0  0  0  0  0  0  0  0  0
    4.5910    1.3270   19.0970 C   0  0  0  0  0  0  0  0  0  0  0  0
    5.0940    1.0040   17.8570 C   0  0  0  0  0  0  0  0  0  0  0  0
    7.6620    4.4790   22.4890 C   0  0  0  0  0  0  0  0  0  0  0  0
    8.6880    5.5060   23.0200 C   0  0  0  0  0  0  0  0  0  0  0  0
    9.7980    5.0130   23.6990 C   0  0  0  0  0  0  0  0  0  0  0  0
    9.9110    3.4810   23.8770 C   0  0  0  0  0  0  0  0  0  0  0  0
    8.9180    2.6490   23.3770 C   0  0  0  0  0  0  0  0  0  0  0  0
    7.8460    3.1120   22.6990 C   0  0  0  0  0  0  0  0  0  0  0  0
   12.5010    0.4710   23.2300 C   0  0  0  0  0  0  0  0  0  0  0  0
   13.3300   -0.1250   22.3610 C   0  0  0  0  0  0  0  0  0  0  0  0
   12.9350   -1.2720   21.6850 C   0  0  0  0  0  0  0  0  0  0  0  0
   11.6810   -1.8280   21.8940 C   0  0  0  0  0  0  0  0  0  0  0  0
   10.8170   -1.2340   22.7760 C   0  0  0  0  0  0  0  0  0  0  0  0
   11.2680   -0.0880   23.4150 C   0  0  0  0  0  0  0  0  0  0  0  0
    9.0100   -4.5110   27.6890 O   0  0  0  0  0  0  0  0  0  0  0  0
    9.1910   -5.1200   26.4770 C   0  0  0  0  0  0  0  0  0  0  0  0
    8.2060   -4.7860   25.5510 C   0  0  0  0  0  0  0  0  0  0  0  0
    7.9580   -3.4190   25.4110 C   0  0  0  0  0  0  0  0  0  0  0  0
    9.2380   -2.7220   25.5750 N   0  0  0  0  0  0  0  0  0  0  0  0
   10.3810   -3.5250   25.1180 C   0  0  0  0  0  0  0  0  0  0  0  0
   10.5260   -4.6820   25.8890 C   0  0  0  0  0  0  0  0  0  0  0  0
    9.1430   -1.4490   24.8620 C   0  0  0  0  0  0  0  0  0  0  0  0
  2  3  1  1
  1  4  1  0
  2  4  1  0
  4  6  2  0
 10  5  1  6
  7 10  2  0
  8 10  2  0
 11 12  2  0
  2 13  1  0
 12 13  1  0
 13 14  2  0
 14 15  1  0
 11 16  1  0
 15 16  2  0
 17 18  2  0
 18 19  1  0
 19 20  2  0
  5 21  1  0
 20 21  1  0
  1 22  1  0
 17 22  1  0
 21 22  2  0
 23 24  2  0
  9 25  1  0
 24 25  1  0
 25 26  2  0
 26 27  1  0
 10 28  1  0
 23 28  1  0
 27 28  2  0
 29 30  1  0
 30 31  1  0
 31 32  1  0
 32 33  1  0
 33 34  1  0
 30 35  1  0
 34 35  1  0
  8 36  1  0
 33 36  1  0
M  END
