x3298-x0692
     RDKit          3D

 38 42  0  0  0  0  0  0  0  0999 V2000
    7.1240    2.0130   22.3900 N   0  0  0  0  0  0  0  0  0  0  0  0
    7.1080    0.0240   21.1650 C   0  0  2  0  0  0  0  0  0  0  0  0
    6.5540   -0.5260   22.1490 O   0  0  0  0  0  0  0  0  0  0  0  0
    7.8410    1.0500   21.5750 C   0  0  0  0  0  0  0  0  0  0  0  0
    9.0000    1.2370   23.7100 N   0  0  0  0  0  0  0  0  0  0  0  0
    8.9990    1.2340   21.2090 O   0  0  0  0  0  0  0  0  0  0  0  0
   11.0100    1.8860   24.7070 O   0  0  0  0  0  0  0  0  0  0  0  0
    9.8120   -0.1530   25.7080 O   0  0  0  0  0  0  0  0  0  0  0  0
   13.7060   -1.8370   20.8450 F   0  0  0  0  0  0  0  0  0  0  0  0
   10.2640    0.6910   24.6140 S   0  0  0  0  0  0  0  0  0  0  0  0
    5.3960   -4.0800   19.7220 O   0  0  0  0  0  0  0  0  0  0  0  0
    9.4290   -3.2000   23.7050 C   0  0  0  0  0  0  0  0  0  0  0  0
    6.2950   -3.2440   19.9040 C   0  0  0  0  0  0  0  0  0  0  0  0
    7.2820   -2.9690   18.7850 C   0  0  0  0  0  0  0  0  0  0  0  0
    6.3160    0.6410   17.5740 N   0  0  0  0  0  0  0  0  0  0  0  0
    6.8590    0.2790   18.6570 C   0  0  0  0  0  0  0  0  0  0  0  0
    6.3390    0.4240   20.0330 C   0  0  0  0  0  0  0  0  0  0  0  0
    4.9800    1.0560   20.1270 C   0  0  0  0  0  0  0  0  0  0  0  0
    4.4040    1.4540   18.8180 C   0  0  0  0  0  0  0  0  0  0  0  0
    5.1220    1.2210   17.6720 C   0  0  0  0  0  0  0  0  0  0  0  0
    7.7200    4.4540   22.5050 C   0  0  0  0  0  0  0  0  0  0  0  0
    8.6750    5.3730   22.9710 C   0  0  0  0  0  0  0  0  0  0  0  0
    9.7830    4.8980   23.6810 C   0  0  0  0  0  0  0  0  0  0  0  0
    9.9000    3.5290   23.9150 C   0  0  0  0  0  0  0  0  0  0  0  0
    8.9380    2.6400   23.4690 C   0  0  0  0  0  0  0  0  0  0  0  0
    7.8880    3.0940   22.7670 C   0  0  0  0  0  0  0  0  0  0  0  0
   12.4680    0.4620   23.2910 C   0  0  0  0  0  0  0  0  0  0  0  0
   13.3290   -0.1000   22.3940 C   0  0  0  0  0  0  0  0  0  0  0  0
   12.9220   -1.2680   21.7350 C   0  0  0  0  0  0  0  0  0  0  0  0
   11.7030   -1.8330   21.9900 C   0  0  0  0  0  0  0  0  0  0  0  0
   10.8660   -1.2340   22.9000 C   0  0  0  0  0  0  0  0  0  0  0  0
   11.2630   -0.1320   23.5010 C   0  0  0  0  0  0  0  0  0  0  0  0
    6.4350   -2.5980   21.1270 N   0  0  0  0  0  0  0  0  0  0  0  0
    7.3500   -1.4710   21.4270 C   0  0  1  0  0  0  0  0  0  0  0  0
    8.4270   -1.9130   22.1710 C   0  0  0  0  0  0  0  0  0  0  0  0
    8.2270   -2.7330   23.2170 N   0  0  0  0  0  0  0  0  0  0  0  0
    7.3620   -3.7350   22.9850 C   0  0  0  0  0  0  0  0  0  0  0  0
    6.1690   -3.3820   22.3320 C   0  0  0  0  0  0  0  0  0  0  0  0
  2  3  1  0
  1  4  1  0
  2  4  1  1
  4  6  2  0
 10  5  1  0
  7 10  2  0
  8 10  2  0
 11 13  2  0
 13 14  1  0
 15 16  2  0
  2 17  1  0
 16 17  1  0
 17 18  2  0
 18 19  1  0
 15 20  1  0
 19 20  2  0
 21 22  2  0
 22 23  1  0
 23 24  2  0
  5 25  1  0
 24 25  1  0
  1 26  1  0
 21 26  1  0
 25 26  2  0
 27 28  2  0
  9 29  1  0
 28 29  1  0
 29 30  2  0
 30 31  1  0
 10 32  1  0
 27 32  1  0
 31 32  2  0
 13 33  1  0
  2 34  1  0
 34  3  1  0
 33 34  1  0
 34 35  1  1
 12 36  1  0
 35 36  1  0
 36 37  1  0
 33 38  1  0
 37 38  1  0
M  END
