x3298-x1384
     RDKit          3D

 44 49  0  0  0  0  0  0  0  0999 V2000
    7.1760    1.8330   22.1530 N   0  0  0  0  0  0  0  0  0  0  0  0
    7.4610   -0.2420   21.0960 C   0  0  2  0  0  0  0  0  0  0  0  0
    6.9140   -1.1380   22.0620 O   0  0  0  0  0  0  0  0  0  0  0  0
    7.9820    1.0060   21.4600 C   0  0  0  0  0  0  0  0  0  0  0  0
    8.6240    1.2220   23.9740 N   0  0  0  0  0  0  0  0  0  0  0  0
    9.0930    1.3090   21.0920 O   0  0  0  0  0  0  0  0  0  0  0  0
   10.7440    1.9970   24.6210 O   0  0  0  0  0  0  0  0  0  0  0  0
    9.7590   -0.0710   25.8260 O   0  0  0  0  0  0  0  0  0  0  0  0
   13.5800   -1.9310   20.9540 F   0  0  0  0  0  0  0  0  0  0  0  0
   10.0360    0.7520   24.6620 S   0  0  0  0  0  0  0  0  0  0  0  0
    6.3500   -3.1620   21.6250 N   0  0  0  0  0  0  0  0  0  0  0  0
    7.2190   -3.0470   19.2460 C   0  0  0  0  0  0  0  0  0  0  0  0
    5.4860   -4.5130   19.9320 O   0  0  0  0  0  0  0  0  0  0  0  0
    6.2820   -3.6440   20.3060 C   0  0  0  0  0  0  0  0  0  0  0  0
    7.3440   -2.3040   21.9980 C   0  0  0  0  0  0  0  0  0  0  0  0
    6.2710    0.4590   17.6500 N   0  0  0  0  0  0  0  0  0  0  0  0
    6.9730    0.0230   18.7080 C   0  0  0  0  0  0  0  0  0  0  0  0
    6.5740    0.2510   19.9970 C   0  0  0  0  0  0  0  0  0  0  0  0
    5.4170    0.9220   20.2970 C   0  0  0  0  0  0  0  0  0  0  0  0
    4.5990    1.4250   19.1190 C   0  0  0  0  0  0  0  0  0  0  0  0
    5.1220    1.1430   17.8660 C   0  0  0  0  0  0  0  0  0  0  0  0
    7.6400    4.3660   22.4540 C   0  0  0  0  0  0  0  0  0  0  0  0
    8.3710    5.2660   23.2250 C   0  0  0  0  0  0  0  0  0  0  0  0
    9.1860    4.8290   24.2470 C   0  0  0  0  0  0  0  0  0  0  0  0
    9.3050    3.4720   24.5460 C   0  0  0  0  0  0  0  0  0  0  0  0
    8.5860    2.5600   23.7880 C   0  0  0  0  0  0  0  0  0  0  0  0
    7.7790    3.0130   22.7710 C   0  0  0  0  0  0  0  0  0  0  0  0
   12.3020    0.4140   23.3480 C   0  0  0  0  0  0  0  0  0  0  0  0
   13.1800   -0.1870   22.4790 C   0  0  0  0  0  0  0  0  0  0  0  0
   12.7620   -1.3470   21.8110 C   0  0  0  0  0  0  0  0  0  0  0  0
   11.5000   -1.9050   22.0070 C   0  0  0  0  0  0  0  0  0  0  0  0
   10.6220   -1.2930   22.8880 C   0  0  0  0  0  0  0  0  0  0  0  0
   11.0370   -0.1340   23.5430 C   0  0  0  0  0  0  0  0  0  0  0  0
    5.3860   -2.1970   26.2130 O   0  0  0  0  0  0  0  0  0  0  0  0
    3.8460   -3.7410   23.8730 C   0  0  2  0  0  0  0  0  0  0  0  0
    5.1210   -3.4060   23.6840 C   0  0  1  0  0  0  0  0  0  0  0  0
    5.2860   -4.0120   24.8670 C   0  0  2  0  0  0  0  0  0  0  0  0
    5.3770   -5.4500   24.8540 C   0  0  0  0  0  0  0  0  0  0  0  0
    4.4330   -5.9880   23.9520 C   0  0  0  0  0  0  0  0  0  0  0  0
    3.5820   -5.0470   23.4140 C   0  0  0  0  0  0  0  0  0  0  0  0
    4.7220   -3.3600   25.9540 C   0  0  2  0  0  0  0  0  0  0  0  0
    4.1050   -3.4870   24.8460 C   0  0  0  0  0  0  0  0  0  0  0  0
    2.9280   -3.1680   25.0540 C   0  0  0  0  0  0  0  0  0  0  0  0
    5.8940   -4.0530   22.6720 C   0  0  0  0  0  0  0  0  0  0  0  0
  2  3  1  1
  1  4  1  0
  2  4  1  0
  4  6  2  0
 10  5  1  0
  7 10  2  0
  8 10  2  0
 11 14  1  0
 12 14  1  0
 13 14  2  0
  3 15  1  0
 11 15  1  0
 16 17  2  0
  2 18  1  0
 17 18  1  0
 18 19  2  0
 19 20  1  0
 16 21  1  0
 20 21  2  0
 22 23  2  0
 23 24  1  0
 24 25  2  0
  5 26  1  0
 25 26  1  0
  1 27  1  0
 22 27  1  0
 26 27  2  0
 28 29  2  0
  9 30  1  0
 29 30  1  0
 30 31  2  0
 31 32  1  0
 10 33  1  0
 28 33  1  0
 32 33  2  0
 35 36  1  0
 35 37  1  0
 36 37  1  0
 37 38  1  1
 38 39  1  0
 35 40  1  6
 39 40  2  0
 41 34  1  6
 37 41  1  0
 41 42  1  0
 35 43  1  0
 42 43  2  0
 11 44  1  0
 36 44  1  6
M  END
