x3298-x2119
     RDKit          3D

 35 38  0  0  0  0  0  0  0  0999 V2000
    7.0800    2.1750   22.5780 N   0  0  0  0  0  0  0  0  0  0  0  0
    6.9910    0.0770   21.5870 C   0  0  2  0  0  0  0  0  0  0  0  0
    6.1440   -0.4340   22.6680 O   0  0  0  0  0  0  0  0  0  0  0  0
    7.6490    1.2840   21.7290 C   0  0  0  0  0  0  0  0  0  0  0  0
    8.9840    1.3100   23.6280 N   0  0  0  0  0  0  0  0  0  0  0  0
    8.6750    1.4720   21.0710 O   0  0  0  0  0  0  0  0  0  0  0  0
   10.9320    1.9640   24.7210 O   0  0  0  0  0  0  0  0  0  0  0  0
    9.6930   -0.0860   25.6360 O   0  0  0  0  0  0  0  0  0  0  0  0
   13.6640   -1.8730   20.8930 F   0  0  0  0  0  0  0  0  0  0  0  0
   10.1980    0.7760   24.5810 S   0  0  0  0  0  0  0  0  0  0  0  0
    5.8170   -5.3960   20.0510 N   0  0  0  0  0  0  0  0  0  0  0  0
    6.7830   -4.6110   20.3660 C   0  0  0  0  0  0  0  0  0  0  0  0
    6.3430    0.3020   17.8530 N   0  0  0  0  0  0  0  0  0  0  0  0
    6.9010   -0.0000   19.0420 C   0  0  0  0  0  0  0  0  0  0  0  0
    6.3540    0.3800   20.2760 C   0  0  0  0  0  0  0  0  0  0  0  0
    5.1590    1.0940   20.2400 C   0  0  0  0  0  0  0  0  0  0  0  0
    4.5640    1.4120   19.0300 C   0  0  0  0  0  0  0  0  0  0  0  0
    5.1920    1.0020   17.8710 C   0  0  0  0  0  0  0  0  0  0  0  0
    7.6660    4.6490   22.6380 C   0  0  0  0  0  0  0  0  0  0  0  0
    8.6430    5.5560   22.9960 C   0  0  0  0  0  0  0  0  0  0  0  0
    9.9280    5.0470   23.6250 C   0  0  0  0  0  0  0  0  0  0  0  0
   10.1130    3.6830   23.8460 C   0  0  0  0  0  0  0  0  0  0  0  0
    9.0730    2.8180   23.4810 C   0  0  0  0  0  0  0  0  0  0  0  0
    7.9160    3.2920   22.8910 C   0  0  0  0  0  0  0  0  0  0  0  0
   12.4050    0.4690   23.2760 C   0  0  0  0  0  0  0  0  0  0  0  0
   13.2520   -0.1310   22.4050 C   0  0  0  0  0  0  0  0  0  0  0  0
   12.8530   -1.3050   21.7590 C   0  0  0  0  0  0  0  0  0  0  0  0
   11.6170   -1.9000   21.9810 C   0  0  0  0  0  0  0  0  0  0  0  0
   10.7610   -1.2750   22.8780 C   0  0  0  0  0  0  0  0  0  0  0  0
   11.1760   -0.1070   23.4910 C   0  0  0  0  0  0  0  0  0  0  0  0
    6.5690   -3.4090   21.1000 C   0  0  0  0  0  0  0  0  0  0  0  0
    5.4500   -2.9040   21.5390 N   0  0  0  0  0  0  0  0  0  0  0  0
    5.6250   -1.5590   22.1900 C   0  0  0  0  0  0  0  0  0  0  0  0
    7.0380   -1.5550   22.0340 C   0  0  0  0  0  0  0  0  0  0  0  0
    7.5500   -2.6010   21.4230 N   0  0  0  0  0  0  0  0  0  0  0  0
  2  3  1  1
  1  4  1  0
  2  4  1  0
  4  6  2  0
 10  5  1  0
  7 10  2  0
  8 10  2  0
 11 12  2  3
 13 14  2  0
  2 15  1  0
 14 15  1  0
 15 16  2  0
 16 17  1  0
 13 18  1  0
 17 18  2  0
 19 20  2  0
 20 21  1  0
 21 22  2  0
  5 23  1  0
 22 23  1  0
  1 24  1  0
 19 24  1  0
 23 24  2  0
 25 26  2  0
  9 27  1  0
 26 27  1  0
 27 28  2  0
 28 29  1  0
 10 30  1  0
 25 30  1  0
 29 30  2  0
 12 31  1  0
 31 32  2  0
  3 33  1  0
 32 33  1  0
 33 34  2  0
 31 35  1  0
 34 35  1  0
M  END
