x3298-x1334
     RDKit          3D

 44 48  0  0  0  0  0  0  0  0999 V2000
    7.1090    1.8850   22.4410 N   0  0  0  0  0  0  0  0  0  0  0  0
    6.8760   -0.1940   21.4350 C   0  0  2  0  0  0  0  0  0  0  0  0
    6.0010   -0.4980   22.5120 O   0  0  0  0  0  0  0  0  0  0  0  0
    7.6770    0.9480   21.6200 C   0  0  0  0  0  0  0  0  0  0  0  0
    8.9770    1.2820   23.6730 N   0  0  0  0  0  0  0  0  0  0  0  0
    8.7430    1.0890   21.0390 O   0  0  0  0  0  0  0  0  0  0  0  0
   10.9400    1.9690   24.7170 O   0  0  0  0  0  0  0  0  0  0  0  0
    9.7590   -0.1300   25.6470 O   0  0  0  0  0  0  0  0  0  0  0  0
   13.7070   -1.8090   20.8650 F   0  0  0  0  0  0  0  0  0  0  0  0
   10.2100    0.7660   24.5940 S   0  0  0  0  0  0  0  0  0  0  0  0
    7.3930   -3.0300   18.7140 C   0  0  0  0  0  0  0  0  0  0  0  0
    5.4680   -4.0660   19.7020 O   0  0  0  0  0  0  0  0  0  0  0  0
    7.3850   -5.8420   28.4250 Cl  0  0  0  0  0  0  0  0  0  0  0  0
    6.4110   -3.2680   19.8340 C   0  0  0  0  0  0  0  0  0  0  0  0
    9.3590   -3.1330   24.0160 C   0  0  0  0  0  0  0  0  0  0  0  0
    6.3460    0.5410   17.7210 N   0  0  0  0  0  0  0  0  0  0  0  0
    6.9290    0.0270   18.9500 C   0  0  0  0  0  0  0  0  0  0  0  0
    6.2680    0.2890   20.1460 C   0  0  0  0  0  0  0  0  0  0  0  0
    5.0890    0.9830   20.2310 C   0  0  0  0  0  0  0  0  0  0  0  0
    4.4810    1.5110   18.9480 C   0  0  0  0  0  0  0  0  0  0  0  0
    5.1810    1.2420   17.7890 C   0  0  0  0  0  0  0  0  0  0  0  0
    7.6620    4.4230   22.5060 C   0  0  0  0  0  0  0  0  0  0  0  0
    8.6280    5.3150   22.9680 C   0  0  0  0  0  0  0  0  0  0  0  0
    9.7360    4.8740   23.6580 C   0  0  0  0  0  0  0  0  0  0  0  0
    9.9350    3.5200   23.9290 C   0  0  0  0  0  0  0  0  0  0  0  0
    8.9650    2.6190   23.4860 C   0  0  0  0  0  0  0  0  0  0  0  0
    7.8800    3.0750   22.7890 C   0  0  0  0  0  0  0  0  0  0  0  0
   12.4640    0.4950   23.3040 C   0  0  0  0  0  0  0  0  0  0  0  0
   13.3230   -0.0880   22.4240 C   0  0  0  0  0  0  0  0  0  0  0  0
   12.9060   -1.2400   21.7400 C   0  0  0  0  0  0  0  0  0  0  0  0
   11.6580   -1.8030   21.9360 C   0  0  0  0  0  0  0  0  0  0  0  0
   10.8090   -1.1970   22.8260 C   0  0  0  0  0  0  0  0  0  0  0  0
   11.2280   -0.0630   23.4850 C   0  0  0  0  0  0  0  0  0  0  0  0
    6.6570   -2.5900   21.0060 N   0  0  0  0  0  0  0  0  0  0  0  0
    7.5960   -1.5910   21.1890 C   0  0  2  0  0  0  0  0  0  0  0  0
    8.5870   -1.7920   22.1440 C   0  0  0  0  0  0  0  0  0  0  0  0
    8.1980   -2.7020   23.2420 N   0  0  0  0  0  0  0  0  0  0  0  0
    7.4550   -3.8090   22.6900 C   0  0  0  0  0  0  0  0  0  0  0  0
    6.3210   -3.2110   22.1140 C   0  0  0  0  0  0  0  0  0  0  0  0
    9.7220   -5.3330   25.2620 C   0  0  0  0  0  0  0  0  0  0  0  0
    9.0630   -4.1230   25.1130 C   0  0  0  0  0  0  0  0  0  0  0  0
    7.8810   -3.8680   26.3230 S   0  0  0  0  0  0  0  0  0  0  0  0
    8.2480   -5.3560   27.0340 C   0  0  0  0  0  0  0  0  0  0  0  0
    9.2550   -6.0570   26.3820 C   0  0  0  0  0  0  0  0  0  0  0  0
  2  3  1  1
  1  4  1  0
  2  4  1  0
  4  6  2  0
 10  5  1  0
  7 10  2  0
  8 10  2  0
 11 14  1  0
 12 14  2  0
 16 17  2  0
  2 18  1  0
 17 18  1  0
 18 19  2  0
 19 20  1  0
 16 21  1  0
 20 21  2  0
 22 23  2  0
 23 24  1  0
 24 25  2  0
  5 26  1  0
 25 26  1  0
  1 27  1  0
 22 27  1  0
 26 27  2  0
 28 29  2  0
  9 30  1  0
 29 30  1  0
 30 31  2  0
 31 32  1  0
 10 33  1  0
 28 33  1  0
 32 33  2  0
 14 34  1  0
  2 35  1  0
 34 35  1  0
 35 36  1  1
 15 37  1  0
 36 37  1  0
 37 38  1  0
 34 39  1  0
 38 39  1  0
 15 41  1  0
 40 41  2  0
 41 42  1  0
 13 43  1  0
 42 43  1  0
 40 44  1  0
 43 44  2  0
M  END
