x3298-x1348
     RDKit          3D

 45 49  0  0  0  0  0  0  0  0999 V2000
    7.6170    1.7680   22.7400 N   0  0  0  0  0  0  0  0  0  0  0  0
    7.4640   -0.0150   21.2850 C   0  0  2  0  0  0  0  0  0  0  0  0
    6.6170   -0.6420   22.2260 O   0  0  0  0  0  0  0  0  0  0  0  0
    8.1030    1.1470   21.6560 C   0  0  0  0  0  0  0  0  0  0  0  0
    9.0590    1.5710   25.1270 N   0  0  0  0  0  0  0  0  0  0  0  0
    9.0200    1.5530   20.9830 O   0  0  0  0  0  0  0  0  0  0  0  0
   10.6120   -0.0730   26.2990 O   0  0  0  0  0  0  0  0  0  0  0  0
    8.8190   -0.8640   24.9120 O   0  0  0  0  0  0  0  0  0  0  0  0
   13.7060   -1.4090   20.9230 F   0  0  0  0  0  0  0  0  0  0  0  0
    9.8700    0.0860   25.0920 S   0  0  0  0  0  0  0  0  0  0  0  0
    6.9370   -3.7900   21.4050 N   0  0  0  0  0  0  0  0  0  0  0  0
    7.9570   -5.3590   27.5950 C   0  0  0  0  0  0  0  0  0  0  0  0
    7.4090   -4.6660   26.4520 O   0  0  0  0  0  0  0  0  0  0  0  0
    5.3140   -4.2750   19.8060 O   0  0  0  0  0  0  0  0  0  0  0  0
    6.4010   -3.8000   20.1380 C   0  0  0  0  0  0  0  0  0  0  0  0
    7.3280   -3.1900   19.1060 C   0  0  0  0  0  0  0  0  0  0  0  0
    7.0720   -1.8360   22.6590 C   0  0  0  0  0  0  0  0  0  0  0  0
    7.6430   -2.7200   21.7570 C   0  0  0  0  0  0  0  0  0  0  0  0
    6.2610    0.4210   17.6570 N   0  0  0  0  0  0  0  0  0  0  0  0
    6.9610    0.0560   18.7320 C   0  0  0  0  0  0  0  0  0  0  0  0
    6.6100    0.4020   20.1650 C   0  0  0  0  0  0  0  0  0  0  0  0
    5.4660    1.1340   20.3470 C   0  0  0  0  0  0  0  0  0  0  0  0
    4.6990    1.5230   19.0890 C   0  0  0  0  0  0  0  0  0  0  0  0
    5.1380    1.1540   17.8200 C   0  0  0  0  0  0  0  0  0  0  0  0
    8.2850    4.1080   22.4600 C   0  0  0  0  0  0  0  0  0  0  0  0
    9.0120    5.2000   22.9280 C   0  0  0  0  0  0  0  0  0  0  0  0
    9.7620    5.1080   24.0870 C   0  0  0  0  0  0  0  0  0  0  0  0
    9.7730    3.9110   24.7840 C   0  0  0  0  0  0  0  0  0  0  0  0
    9.0440    2.8140   24.3290 C   0  0  0  0  0  0  0  0  0  0  0  0
    8.2930    2.8840   23.1590 C   0  0  0  0  0  0  0  0  0  0  0  0
   12.2390    0.4240   23.6990 C   0  0  0  0  0  0  0  0  0  0  0  0
   13.1570    0.0510   22.7110 C   0  0  0  0  0  0  0  0  0  0  0  0
   12.8560   -1.0230   21.8750 C   0  0  0  0  0  0  0  0  0  0  0  0
   11.6610   -1.7110   21.9950 C   0  0  0  0  0  0  0  0  0  0  0  0
   10.7520   -1.3390   22.9690 C   0  0  0  0  0  0  0  0  0  0  0  0
   11.0460   -0.2820   23.8240 C   0  0  0  0  0  0  0  0  0  0  0  0
    6.3680   -5.3720   25.8680 C   0  0  0  0  0  0  0  0  0  0  0  0
    6.1140   -5.2610   24.4820 C   0  0  0  0  0  0  0  0  0  0  0  0
    5.0640   -5.9730   23.8730 C   0  0  0  0  0  0  0  0  0  0  0  0
    4.2480   -6.8040   24.6370 C   0  0  0  0  0  0  0  0  0  0  0  0
    4.4880   -6.9150   26.0190 C   0  0  0  0  0  0  0  0  0  0  0  0
    5.5370   -6.2080   26.6250 C   0  0  0  0  0  0  0  0  0  0  0  0
    6.8450   -4.4740   23.6650 N   0  0  0  0  0  0  0  0  0  0  0  0
    6.3830   -4.5480   22.4450 C   0  0  0  0  0  0  0  0  0  0  0  0
    5.0570   -5.5970   22.1960 S   0  0  0  0  0  0  0  0  0  0  0  0
  2  3  1  1
  1  4  1  0
  2  4  1  0
  4  6  2  0
 10  5  1  0
  7 10  2  0
  8 10  2  0
 12 13  1  0
 11 15  1  0
 14 15  2  0
 15 16  1  0
  3 17  1  0
 11 18  1  0
 17 18  1  0
 19 20  2  0
  2 21  1  0
 20 21  1  0
 21 22  2  0
 22 23  1  0
 19 24  1  0
 23 24  2  0
 25 26  2  0
 26 27  1  0
 27 28  2  0
  5 29  1  0
 28 29  1  0
  1 30  1  0
 25 30  1  0
 29 30  2  0
 31 32  2  0
  9 33  1  0
 32 33  1  0
 33 34  2  0
 34 35  1  0
 10 36  1  0
 31 36  1  0
 35 36  2  0
 13 37  1  0
 37 38  2  0
 38 39  1  0
 39 40  2  0
 40 41  1  0
 37 42  1  0
 41 42  2  0
 38 43  1  0
 11 44  1  0
 43 44  2  0
 39 45  1  0
 44 45  1  0
M  END
