x3298-x0691
     RDKit          3D

 49 53  0  0  0  0  0  0  0  0999 V2000
    7.1620    1.9320   22.1080 N   0  0  0  0  0  0  0  0  0  0  0  0
    7.3990   -0.2280   21.2500 C   0  0  2  0  0  0  0  0  0  0  0  0
    6.5420   -0.8860   22.2100 O   0  0  0  0  0  0  0  0  0  0  0  0
    7.9600    1.0290   21.4980 C   0  0  0  0  0  0  0  0  0  0  0  0
    8.6230    1.1700   24.0170 N   0  0  0  0  0  0  0  0  0  0  0  0
    9.0820    1.2730   21.1160 O   0  0  0  0  0  0  0  0  0  0  0  0
   10.7200    2.0010   24.6750 O   0  0  0  0  0  0  0  0  0  0  0  0
    9.7740   -0.0990   25.8560 O   0  0  0  0  0  0  0  0  0  0  0  0
   13.6030   -1.9260   20.9240 F   0  0  0  0  0  0  0  0  0  0  0  0
   10.0400    0.7430   24.7030 S   0  0  0  0  0  0  0  0  0  0  0  0
    4.1240   -6.8280   25.8080 O   0  0  0  0  0  0  0  0  0  0  0  0
    5.8720   -5.0240   26.7210 O   0  0  0  0  0  0  0  0  0  0  0  0
    5.2470   -4.8170   19.9590 O   0  0  0  0  0  0  0  0  0  0  0  0
    6.2800   -4.5830   20.5640 C   0  0  0  0  0  0  0  0  0  0  0  0
    7.1950   -3.4980   20.0190 C   0  0  0  0  0  0  0  0  0  0  0  0
    3.1380   -0.5220   26.0570 F   0  0  0  0  0  0  0  0  0  0  0  0
    4.7150   -5.3520   25.6790 S   0  0  0  0  0  0  0  0  0  0  0  0
    6.9380   -1.9630   22.7040 C   0  0  0  0  0  0  0  0  0  0  0  0
    5.8810   -2.7650   23.2220 C   0  0  0  0  0  0  0  0  0  0  0  0
    6.2570    0.2590   17.7020 N   0  0  0  0  0  0  0  0  0  0  0  0
    6.9600   -0.1120   18.7810 C   0  0  0  0  0  0  0  0  0  0  0  0
    6.5890    0.1430   20.0820 C   0  0  0  0  0  0  0  0  0  0  0  0
    5.2700    0.8820   20.3200 C   0  0  0  0  0  0  0  0  0  0  0  0
    4.5210    1.2710   19.2410 C   0  0  0  0  0  0  0  0  0  0  0  0
    5.1070    0.9150   17.8760 C   0  0  0  0  0  0  0  0  0  0  0  0
    7.7040    4.3750   22.3870 C   0  0  0  0  0  0  0  0  0  0  0  0
    8.4620    5.2600   23.1420 C   0  0  0  0  0  0  0  0  0  0  0  0
    9.2850    4.8550   24.1850 C   0  0  0  0  0  0  0  0  0  0  0  0
    9.3290    3.4920   24.4670 C   0  0  0  0  0  0  0  0  0  0  0  0
    8.5860    2.5850   23.7380 C   0  0  0  0  0  0  0  0  0  0  0  0
    7.7870    3.0100   22.7100 C   0  0  0  0  0  0  0  0  0  0  0  0
   12.3080    0.4120   23.3450 C   0  0  0  0  0  0  0  0  0  0  0  0
   13.1810   -0.1850   22.4620 C   0  0  0  0  0  0  0  0  0  0  0  0
   12.7980   -1.3420   21.7900 C   0  0  0  0  0  0  0  0  0  0  0  0
   11.5440   -1.8610   22.0430 C   0  0  0  0  0  0  0  0  0  0  0  0
   10.6350   -1.2950   22.9250 C   0  0  0  0  0  0  0  0  0  0  0  0
   11.0340   -0.1310   23.5780 C   0  0  0  0  0  0  0  0  0  0  0  0
    2.7690   -1.8060   25.9420 C   0  0  0  0  0  0  0  0  0  0  0  0
    3.7250   -2.8130   25.8760 C   0  0  0  0  0  0  0  0  0  0  0  0
    3.4180   -4.1760   25.7550 C   0  0  0  0  0  0  0  0  0  0  0  0
    2.0520   -4.5290   25.6960 C   0  0  0  0  0  0  0  0  0  0  0  0
    1.0700   -3.5300   25.7610 C   0  0  0  0  0  0  0  0  0  0  0  0
    1.4140   -2.1670   25.8850 C   0  0  0  0  0  0  0  0  0  0  0  0
    6.5810   -5.3100   21.7170 N   0  0  0  0  0  0  0  0  0  0  0  0
    5.7370   -6.3150   22.0310 C   0  0  0  0  0  0  0  0  0  0  0  0
    4.7650   -5.9090   22.9600 C   0  0  0  0  0  0  0  0  0  0  0  0
    5.2880   -5.0920   24.0830 N   0  0  0  0  0  0  0  0  0  0  0  0
    6.3610   -4.1280   23.8010 C   0  0  1  0  0  0  0  0  0  0  0  0
    7.3190   -4.7780   22.8580 C   0  0  0  0  0  0  0  0  0  0  0  0
  2  3  1  1
  1  4  1  0
  2  4  1  0
  4  6  2  0
 10  5  1  0
  7 10  2  0
  8 10  2  0
 13 14  2  0
 14 15  1  0
 11 17  2  0
 12 17  2  0
  3 18  1  0
 18 19  1  0
 20 21  2  0
  2 22  1  0
 21 22  1  0
 22 23  2  0
 23 24  1  0
 20 25  1  0
 24 25  2  0
 26 27  2  0
 27 28  1  0
 28 29  2  0
  5 30  1  0
 29 30  1  0
  1 31  1  0
 26 31  1  0
 30 31  2  0
 32 33  2  0
  9 34  1  0
 33 34  1  0
 34 35  2  0
 35 36  1  0
 10 37  1  0
 32 37  1  0
 36 37  2  0
 16 38  1  0
 38 39  2  0
 17 40  1  0
 39 40  1  0
 40 41  2  0
 41 42  1  0
 38 43  1  0
 42 43  2  0
 14 44  1  0
 44 45  1  0
 45 46  1  0
 17 47  1  0
 46 47  1  0
 48 19  1  6
 47 48  1  0
 44 49  1  0
 48 49  1  0
M  END
