x3298-x1418
     RDKit          3D

 38 42  0  0  0  0  0  0  0  0999 V2000
    7.2220    1.9950   22.0540 N   0  0  0  0  0  0  0  0  0  0  0  0
    7.1470   -0.1160   21.1310 C   0  0  2  0  0  0  0  0  0  0  0  0
    6.5860   -0.6660   22.1030 O   0  0  0  0  0  0  0  0  0  0  0  0
    7.9520    0.8250   21.5860 C   0  0  0  0  0  0  0  0  0  0  0  0
    8.9000    1.2040   23.7440 N   0  0  0  0  0  0  0  0  0  0  0  0
    9.1690    0.7240   21.5580 O   0  0  0  0  0  0  0  0  0  0  0  0
   10.9040    1.9440   24.7250 O   0  0  0  0  0  0  0  0  0  0  0  0
    9.7990   -0.1440   25.7260 O   0  0  0  0  0  0  0  0  0  0  0  0
   13.7310   -1.7530   20.8640 F   0  0  0  0  0  0  0  0  0  0  0  0
   10.2080    0.7140   24.6270 S   0  0  0  0  0  0  0  0  0  0  0  0
    7.2550   -2.9570   18.7620 C   0  0  0  0  0  0  0  0  0  0  0  0
    5.3730   -4.0660   19.7000 O   0  0  0  0  0  0  0  0  0  0  0  0
    6.3060   -3.2770   19.8980 C   0  0  0  0  0  0  0  0  0  0  0  0
    9.7120   -3.0380   23.7530 C   0  0  0  0  0  0  0  0  0  0  0  0
    6.3270    0.6830   17.5660 N   0  0  0  0  0  0  0  0  0  0  0  0
    6.8720    0.2670   18.6340 C   0  0  0  0  0  0  0  0  0  0  0  0
    6.3690    0.3550   20.0210 C   0  0  0  0  0  0  0  0  0  0  0  0
    5.0150    1.0040   20.1470 C   0  0  0  0  0  0  0  0  0  0  0  0
    4.4330    1.4670   18.8550 C   0  0  0  0  0  0  0  0  0  0  0  0
    5.1380    1.2760   17.6880 C   0  0  0  0  0  0  0  0  0  0  0  0
    7.8560    4.4170   22.2560 C   0  0  0  0  0  0  0  0  0  0  0  0
    8.7360    5.3220   22.8750 C   0  0  0  0  0  0  0  0  0  0  0  0
    9.6900    4.8340   23.7710 C   0  0  0  0  0  0  0  0  0  0  0  0
    9.7250    3.4650   24.0270 C   0  0  0  0  0  0  0  0  0  0  0  0
    8.8530    2.5940   23.4370 C   0  0  0  0  0  0  0  0  0  0  0  0
    7.9440    3.0500   22.5550 C   0  0  0  0  0  0  0  0  0  0  0  0
   12.4620    0.5170   23.3340 C   0  0  0  0  0  0  0  0  0  0  0  0
   13.3380   -0.0370   22.4410 C   0  0  0  0  0  0  0  0  0  0  0  0
   12.9410   -1.1930   21.7530 C   0  0  0  0  0  0  0  0  0  0  0  0
   11.7170   -1.7510   21.9780 C   0  0  0  0  0  0  0  0  0  0  0  0
   10.8640   -1.1630   22.8840 C   0  0  0  0  0  0  0  0  0  0  0  0
   11.2460   -0.0760   23.5140 C   0  0  0  0  0  0  0  0  0  0  0  0
    6.5200   -2.7380   21.1570 N   0  0  0  0  0  0  0  0  0  0  0  0
    6.3350   -3.5180   22.3950 C   0  0  0  0  0  0  0  0  0  0  0  0
    7.5710   -3.7300   23.0310 C   0  0  0  0  0  0  0  0  0  0  0  0
    8.4100   -2.6830   23.1610 N   0  0  0  0  0  0  0  0  0  0  0  0
    8.5460   -1.9430   22.0610 C   0  0  0  0  0  0  0  0  0  0  0  0
    7.4030   -1.5880   21.3780 C   0  0  1  0  0  0  0  0  0  0  0  0
  2  3  1  0
  1  4  1  0
  2  4  1  1
  4  6  2  0
 10  5  1  0
  7 10  2  0
  8 10  2  0
 11 13  1  0
 12 13  2  0
 15 16  2  0
  2 17  1  0
 16 17  1  0
 17 18  2  0
 18 19  1  0
 15 20  1  0
 19 20  2  0
 21 22  2  0
 22 23  1  0
 23 24  2  0
  5 25  1  0
 24 25  1  0
  1 26  1  0
 21 26  1  0
 25 26  2  0
 27 28  2  0
  9 29  1  0
 28 29  1  0
 29 30  2  0
 30 31  1  0
 10 32  1  0
 27 32  1  0
 31 32  2  0
 13 33  1  0
 33 34  1  0
 34 35  1  0
 14 36  1  0
 35 36  1  0
 36 37  1  0
  2 38  1  0
 38  3  1  0
 33 38  1  0
 38 37  1  1
M  END
