x3298-x1425
     RDKit          3D

 46 50  0  0  0  0  0  0  0  0999 V2000
    7.2380    2.0540   22.0000 N   0  0  0  0  0  0  0  0  0  0  0  0
    7.5410   -0.0910   21.2090 C   0  0  2  0  0  0  0  0  0  0  0  0
    6.7530   -0.7200   22.2090 O   0  0  0  0  0  0  0  0  0  0  0  0
    8.0720    1.1650   21.4390 C   0  0  0  0  0  0  0  0  0  0  0  0
    8.5510    1.2000   24.0430 N   0  0  0  0  0  0  0  0  0  0  0  0
    9.1910    1.4120   21.1020 O   0  0  0  0  0  0  0  0  0  0  0  0
   10.6770    2.0150   24.6790 O   0  0  0  0  0  0  0  0  0  0  0  0
    9.7420   -0.0790   25.8650 O   0  0  0  0  0  0  0  0  0  0  0  0
   13.6030   -1.8900   20.9600 F   0  0  0  0  0  0  0  0  0  0  0  0
    9.9890    0.7590   24.7060 S   0  0  0  0  0  0  0  0  0  0  0  0
    1.3520   -2.3550   28.2580 C   0  0  0  0  0  0  0  0  0  0  0  0
    2.7720   -2.1440   28.2840 O   0  0  0  0  0  0  0  0  0  0  0  0
    5.1780   -4.5610   19.8580 O   0  0  0  0  0  0  0  0  0  0  0  0
    6.2270   -4.0520   20.2130 C   0  0  0  0  0  0  0  0  0  0  0  0
    7.0660   -3.2410   19.2430 C   0  0  0  0  0  0  0  0  0  0  0  0
    6.1690   -1.8970   21.8530 C   0  0  0  0  0  0  0  0  0  0  0  0
    6.2350    0.2240   17.7020 N   0  0  0  0  0  0  0  0  0  0  0  0
    6.9930   -0.0920   18.7640 C   0  0  0  0  0  0  0  0  0  0  0  0
    6.6710    0.2260   20.0690 C   0  0  0  0  0  0  0  0  0  0  0  0
    5.3600    0.9680   20.3420 C   0  0  0  0  0  0  0  0  0  0  0  0
    4.5850    1.2870   19.2650 C   0  0  0  0  0  0  0  0  0  0  0  0
    5.0930    0.8800   17.8920 C   0  0  0  0  0  0  0  0  0  0  0  0
    7.7470    4.4660   22.4220 C   0  0  0  0  0  0  0  0  0  0  0  0
    8.4220    5.3240   23.2750 C   0  0  0  0  0  0  0  0  0  0  0  0
    9.1380    4.8800   24.3830 C   0  0  0  0  0  0  0  0  0  0  0  0
    9.1580    3.5040   24.6160 C   0  0  0  0  0  0  0  0  0  0  0  0
    8.5060    2.6250   23.7920 C   0  0  0  0  0  0  0  0  0  0  0  0
    7.8050    3.0890   22.7050 C   0  0  0  0  0  0  0  0  0  0  0  0
   12.2730    0.4230   23.3750 C   0  0  0  0  0  0  0  0  0  0  0  0
   13.1550   -0.1730   22.5010 C   0  0  0  0  0  0  0  0  0  0  0  0
   12.7730   -1.3220   21.8170 C   0  0  0  0  0  0  0  0  0  0  0  0
   11.5140   -1.8770   22.0160 C   0  0  0  0  0  0  0  0  0  0  0  0
   10.6150   -1.2750   22.9060 C   0  0  0  0  0  0  0  0  0  0  0  0
   11.0000   -0.1170   23.5820 C   0  0  0  0  0  0  0  0  0  0  0  0
    3.4730   -2.5750   27.2010 C   0  0  0  0  0  0  0  0  0  0  0  0
    4.7920   -2.1360   27.0300 C   0  0  0  0  0  0  0  0  0  0  0  0
    5.4750   -2.6110   25.8940 C   0  0  0  0  0  0  0  0  0  0  0  0
    4.8810   -3.4880   24.9610 C   0  0  0  0  0  0  0  0  0  0  0  0
    3.5610   -3.8980   25.1730 C   0  0  0  0  0  0  0  0  0  0  0  0
    2.8430   -3.4460   26.2960 C   0  0  0  0  0  0  0  0  0  0  0  0
    6.6930   -4.2450   21.4980 N   0  0  0  0  0  0  0  0  0  0  0  0
    7.0740   -3.1320   22.1770 C   0  0  2  0  0  0  0  0  0  0  0  0
    6.8910   -3.2800   23.5450 C   0  0  0  0  0  0  0  0  0  0  0  0
    5.6010   -3.9290   23.8590 N   0  0  0  0  0  0  0  0  0  0  0  0
    5.4530   -5.2710   23.3250 C   0  0  0  0  0  0  0  0  0  0  0  0
    6.4770   -5.4980   22.2340 C   0  0  0  0  0  0  0  0  0  0  0  0
  2  3  1  1
  1  4  1  0
  2  4  1  0
  4  6  2  0
 10  5  1  0
  7 10  2  0
  8 10  2  0
 11 12  1  0
 13 14  2  0
 14 15  1  0
  3 16  1  0
 17 18  2  0
  2 19  1  0
 18 19  1  0
 19 20  2  0
 20 21  1  0
 17 22  1  0
 21 22  2  0
 23 24  2  0
 24 25  1  0
 25 26  2  0
  5 27  1  0
 26 27  1  0
  1 28  1  0
 23 28  1  0
 27 28  2  0
 29 30  2  0
  9 31  1  0
 30 31  1  0
 31 32  2  0
 32 33  1  0
 10 34  1  0
 29 34  1  0
 33 34  2  0
 12 35  1  0
 35 36  2  0
 36 37  1  0
 37 38  2  0
 38 39  1  0
 35 40  1  0
 39 40  2  0
 14 41  1  0
 42 16  1  6
 41 42  1  0
 42 43  1  0
 38 44  1  0
 43 44  1  0
 44 45  1  0
 41 46  1  0
 45 46  1  0
M  END
