x3305-x2563
     RDKit          3D

 30 34  0  0  0  0  0  0  0  0999 V2000
    3.4050   -7.0600   23.7670 C   0  0  0  0  0  0  0  0  0  0  0  0
    5.6060   -2.9880   21.1560 O   0  0  0  0  0  0  0  0  0  0  0  0
    6.7270   -2.3400   23.0570 N   0  0  0  0  0  0  0  0  0  0  0  0
    7.4860   -1.7010   20.8400 N   0  0  0  0  0  0  0  0  0  0  0  0
    7.1260   -3.4840   23.8540 C   0  0  0  0  0  0  0  0  0  0  0  0
    6.5630   -2.3720   21.6220 C   0  0  0  0  0  0  0  0  0  0  0  0
    8.4130   -1.1150   21.2700 C   0  0  0  0  0  0  0  0  0  0  0  0
    9.3690   -1.9520   21.8670 C   0  0  0  0  0  0  0  0  0  0  0  0
    7.0540   -1.4710   19.4510 C   0  0  0  0  0  0  0  0  0  0  0  0
    8.5440    0.3100   21.2000 O   0  0  0  0  0  0  0  0  0  0  0  0
    4.6180   -6.2940   23.5100 N   0  0  0  0  0  0  0  0  0  0  0  0
    5.0720   -5.1630   23.9960 C   0  0  0  0  0  0  0  0  0  0  0  0
    6.2720   -4.7040   23.5450 C   0  0  0  0  0  0  0  0  0  0  0  0
    6.6080   -5.6960   22.6450 N   0  0  0  0  0  0  0  0  0  0  0  0
    5.5810   -6.6740   22.6300 N   0  0  0  0  0  0  0  0  0  0  0  0
    5.5400    1.9450   18.9980 C   0  0  2  0  0  0  0  0  0  0  0  0
    6.6810    1.0120   18.8470 C   0  0  0  0  0  0  0  0  0  0  0  0
    6.3120   -0.2110   19.3600 C   0  0  0  0  0  0  0  0  0  0  0  0
    5.1780    0.2850   19.7330 C   0  0  0  0  0  0  0  0  0  0  0  0
    4.4750    0.8640   18.6520 C   0  0  0  0  0  0  0  0  0  0  0  0
    4.6930    1.9880   17.9910 C   0  0  0  0  0  0  0  0  0  0  0  0
   10.5450    0.1400   23.0900 C   0  0  0  0  0  0  0  0  0  0  0  0
   11.7240    0.8220   23.4250 C   0  0  0  0  0  0  0  0  0  0  0  0
   13.0660    0.2600   22.9840 C   0  0  0  0  0  0  0  0  0  0  0  0
   13.1160   -0.9110   22.2720 C   0  0  0  0  0  0  0  0  0  0  0  0
   11.8650   -1.6560   21.9030 C   0  0  0  0  0  0  0  0  0  0  0  0
   10.6050   -1.1840   22.2700 C   0  0  0  0  0  0  0  0  0  0  0  0
    4.5430    2.2680   20.2360 C   0  0  0  0  0  0  0  0  0  0  0  0
    4.1900    1.2490   21.3860 C   0  0  0  0  0  0  0  0  0  0  0  0
    5.0580    0.3500   21.0500 C   0  0  0  0  0  0  0  0  0  0  0  0
  3  5  1  0
  2  6  2  0
  3  6  1  0
  4  6  1  0
  4  7  1  0
  7  8  1  0
  4  9  1  0
  7 10  2  0
  1 11  1  0
 11 12  1  0
  5 13  1  0
 12 13  2  0
 13 14  1  0
 11 15  1  0
 14 15  2  0
 16 17  1  6
  9 18  1  0
 17 18  2  0
 18 19  1  0
 16 20  1  0
 19 20  1  0
 16 21  1  0
 20 21  2  0
 22 23  2  0
 23 24  1  0
 24 25  2  0
 25 26  1  0
  8 27  1  0
 22 27  1  0
 26 27  2  0
 16 28  1  0
 28 29  2  0
 19 30  2  0
 29 30  1  0
M  END
