x3303-x3108
     RDKit          3D

 35 41  0  0  0  0  0  0  0  0999 V2000
    6.3380    1.6640   21.9580 C   0  0  0  0  0  0  0  0  0  0  0  0
    9.1800    0.9630   22.2700 O   0  0  0  0  0  0  0  0  0  0  0  0
    8.4720    0.2000   24.6310 O   0  0  0  0  0  0  0  0  0  0  0  0
    8.5080   -0.9630   24.2490 C   0  0  0  0  0  0  0  0  0  0  0  0
    7.6200   -2.0070   24.9800 C   0  0  0  0  0  0  0  0  0  0  0  0
    6.1520   -1.3000   21.3350 C   0  0  0  0  0  0  0  0  0  0  0  0
    5.0460   -1.7350   21.6330 O   0  0  0  0  0  0  0  0  0  0  0  0
    6.8910    1.2070   17.5720 O   0  0  0  0  0  0  0  0  0  0  0  0
    5.3120    0.3610   18.9970 C   0  0  1  0  0  0  0  0  0  0  0  0
    6.3650   -0.5090   19.1910 C   0  0  0  0  0  0  0  0  0  0  0  0
    6.8870   -0.1980   20.4280 C   0  0  1  0  0  0  0  0  0  0  0  0
    6.6960    1.2150   20.6020 C   0  0  1  0  0  0  0  0  0  0  0  0
    5.8700    1.8140   19.5980 C   0  0  1  0  0  0  0  0  0  0  0  0
    5.7180    1.3890   18.3840 C   0  0  1  0  0  0  0  0  0  0  0  0
    9.8850   -5.1530   25.2200 N   0  0  0  0  0  0  0  0  0  0  0  0
    9.3060   -3.8840   24.6860 C   0  0  0  0  0  0  0  0  0  0  0  0
    8.2730   -3.2990   25.4330 C   0  0  0  0  0  0  0  0  0  0  0  0
    7.8250   -3.9010   26.6110 C   0  0  0  0  0  0  0  0  0  0  0  0
    8.3890   -5.0830   27.0710 C   0  0  0  0  0  0  0  0  0  0  0  0
    9.4060   -5.6650   26.3450 C   0  0  0  0  0  0  0  0  0  0  0  0
    8.2500   -0.8830   20.9710 C   0  0  1  0  0  0  0  0  0  0  0  0
    9.3030   -0.4520   21.9990 C   0  0  2  0  0  0  0  0  0  0  0  0
    9.3680   -1.3980   23.0630 C   0  0  2  0  0  0  0  0  0  0  0  0
    9.0170   -2.6650   22.6370 C   0  0  0  0  0  0  0  0  0  0  0  0
    7.6500   -2.7750   22.4420 C   0  0  0  0  0  0  0  0  0  0  0  0
    7.2950   -1.6430   21.6620 N   0  0  0  0  0  0  0  0  0  0  0  0
   11.8510   -1.4860   22.6150 C   0  0  0  0  0  0  0  0  0  0  0  0
   13.1600   -1.8020   22.9600 C   0  0  0  0  0  0  0  0  0  0  0  0
   13.4790   -2.3840   24.1720 C   0  0  0  0  0  0  0  0  0  0  0  0
   12.4750   -2.6410   25.0410 C   0  0  0  0  0  0  0  0  0  0  0  0
   11.1570   -2.3310   24.7340 C   0  0  0  0  0  0  0  0  0  0  0  0
   10.8140   -1.7480   23.5050 C   0  0  0  0  0  0  0  0  0  0  0  0
    4.1810    0.3070   20.0880 C   0  0  0  0  0  0  0  0  0  0  0  0
    3.6850    1.6000   20.2610 C   0  0  0  0  0  0  0  0  0  0  0  0
    4.6430    2.5360   20.0030 C   0  0  0  0  0  0  0  0  0  0  0  0
  3  4  2  0
  4  5  1  0
  6  7  2  0
  9 10  1  1
 11  6  1  0
 11 10  1  6
 12  1  1  1
 11 12  1  0
  9 13  1  0
 12 13  1  0
 14  8  1  1
  9 14  1  0
 13 14  1  0
 15 16  2  0
  5 17  1  0
 16 17  1  0
 17 18  2  0
 18 19  1  0
 15 20  1  0
 19 20  2  0
 11 21  1  0
 22  2  1  1
 21 22  1  0
 23  4  1  1
 22 23  1  0
 23 24  1  0
 24 25  1  0
  6 26  1  0
 21 26  1  1
 25 26  1  0
 27 28  2  0
 28 29  1  0
 29 30  2  0
 30 31  1  0
 23 32  1  0
 27 32  1  0
 31 32  2  0
  9 33  1  0
 33 34  1  0
 13 35  1  6
 34 35  2  0
M  END
