x3305-x0981
     RDKit          3D

 36 38  0  0  0  0  0  0  0  0999 V2000
    1.1590   -8.7150   21.3710 C   0  0  0  0  0  0  0  0  0  0  0  0
    2.6870   -7.2970   22.7490 N   0  0  0  0  0  0  0  0  0  0  0  0
    0.4190   -6.4830   22.2410 O   0  0  0  0  0  0  0  0  0  0  0  0
    1.3750   -7.4390   22.1430 C   0  0  0  0  0  0  0  0  0  0  0  0
    2.4880   -8.1920   26.4050 N   0  0  0  0  0  0  0  0  0  0  0  0
    3.9270   -8.2330   24.6380 O   0  0  0  0  0  0  0  0  0  0  0  0
    3.0680   -6.1310   23.5210 C   0  0  1  0  0  0  0  0  0  0  0  0
    2.7350   -6.3810   24.8610 C   0  0  0  0  0  0  0  0  0  0  0  0
    3.0900   -7.6540   25.2870 C   0  0  0  0  0  0  0  0  0  0  0  0
    6.3260   -5.3180   20.4600 C   0  0  0  0  0  0  0  0  0  0  0  0
    5.5610   -6.4020   19.7870 C   0  0  0  0  0  0  0  0  0  0  0  0
    5.2460   -2.7100   21.2010 O   0  0  0  0  0  0  0  0  0  0  0  0
    6.7610   -2.3500   23.1470 N   0  0  0  0  0  0  0  0  0  0  0  0
    7.3380   -1.3660   20.9340 N   0  0  0  0  0  0  0  0  0  0  0  0
    7.3660   -3.5730   23.4160 C   0  0  0  0  0  0  0  0  0  0  0  0
    6.4270   -2.1440   21.7490 C   0  0  0  0  0  0  0  0  0  0  0  0
    8.5220   -0.8260   21.6060 C   0  0  0  0  0  0  0  0  0  0  0  0
    9.4700   -1.8050   21.9410 C   0  0  0  0  0  0  0  0  0  0  0  0
    7.1730   -1.1450   19.6210 C   0  0  0  0  0  0  0  0  0  0  0  0
    4.5210   -5.8970   23.3340 N   0  0  0  0  0  0  0  0  0  0  0  0
    5.2870   -4.9280   23.8800 C   0  0  0  0  0  0  0  0  0  0  0  0
    6.3460   -4.5900   23.0490 C   0  0  0  0  0  0  0  0  0  0  0  0
    6.1990   -5.4150   21.8950 N   0  0  0  0  0  0  0  0  0  0  0  0
    5.2610   -6.3440   22.2880 N   0  0  0  0  0  0  0  0  0  0  0  0
    5.7080    1.5830   17.6590 N   0  0  0  0  0  0  0  0  0  0  0  0
    6.4820    0.6070   18.1860 C   0  0  0  0  0  0  0  0  0  0  0  0
    6.2570   -0.1760   19.2830 C   0  0  0  0  0  0  0  0  0  0  0  0
    4.9740    0.1070   20.0300 C   0  0  0  0  0  0  0  0  0  0  0  0
    4.1520    1.0980   19.5660 C   0  0  0  0  0  0  0  0  0  0  0  0
    4.5740    1.8420   18.3230 C   0  0  0  0  0  0  0  0  0  0  0  0
   10.6290    0.3240   22.8560 C   0  0  0  0  0  0  0  0  0  0  0  0
   11.8460    0.9310   23.1210 C   0  0  0  0  0  0  0  0  0  0  0  0
   13.1650    0.2270   22.8550 C   0  0  0  0  0  0  0  0  0  0  0  0
   13.1140   -1.0400   22.3420 C   0  0  0  0  0  0  0  0  0  0  0  0
   11.9520   -1.7110   22.0460 C   0  0  0  0  0  0  0  0  0  0  0  0
   10.7480   -1.0890   22.2750 C   0  0  0  0  0  0  0  0  0  0  0  0
  1  4  1  0
  2  4  1  0
  3  4  2  0
  2  7  1  0
  7  8  1  1
  5  9  1  0
  6  9  2  0
  8  9  1  0
 10 11  2  3
 13 15  1  0
 12 16  2  0
 13 16  1  0
 14 16  1  0
 14 17  1  0
 17 18  1  0
 14 19  1  0
  7 20  1  0
 20 21  1  0
 15 22  1  0
 21 22  2  0
 10 23  1  0
 22 23  1  0
 20 24  1  0
 23 24  1  0
 25 26  2  0
 19 27  1  0
 26 27  1  0
 27 28  2  0
 28 29  1  0
 25 30  1  0
 29 30  2  0
 31 32  2  0
 32 33  1  0
 33 34  2  0
 34 35  1  0
 18 36  1  0
 31 36  1  0
 35 36  2  0
M  END
