x3303-x0678
     RDKit          3D

 26 29  0  0  0  0  0  0  0  0999 V2000
    6.9440   -0.6550   21.6420 C   0  0  0  0  0  0  0  0  0  0  0  0
    6.2460   -1.4770   22.2420 O   0  0  0  0  0  0  0  0  0  0  0  0
    6.5030    1.1280   17.0860 O   0  0  0  0  0  0  0  0  0  0  0  0
    9.0410    0.6410   21.2980 O   0  0  0  0  0  0  0  0  0  0  0  0
    8.7040   -1.7150   21.1370 C   0  0  0  0  0  0  0  0  0  0  0  0
    8.4570   -0.5090   21.9290 C   0  0  2  0  0  0  0  0  0  0  0  0
    9.1450   -0.8720   23.2160 N   0  0  0  0  0  0  0  0  0  0  0  0
    8.3000   -1.8300   23.9510 C   0  0  0  0  0  0  0  0  0  0  0  0
    7.9670   -3.0590   23.0930 C   0  0  0  0  0  0  0  0  0  0  0  0
    7.7910   -2.7310   21.6840 N   0  0  0  0  0  0  0  0  0  0  0  0
    4.9280    1.5420   18.5690 N   0  0  0  0  0  0  0  0  0  0  0  0
    4.3800    1.4560   19.7710 C   0  0  0  0  0  0  0  0  0  0  0  0
    4.9740    0.7460   20.8360 C   0  0  0  0  0  0  0  0  0  0  0  0
    6.2150    0.1140   20.5700 C   0  0  0  0  0  0  0  0  0  0  0  0
    6.7820    0.2000   19.2880 C   0  0  0  0  0  0  0  0  0  0  0  0
    6.0830    0.9340   18.3490 C   0  0  0  0  0  0  0  0  0  0  0  0
   11.4110   -1.4970   22.1990 C   0  0  0  0  0  0  0  0  0  0  0  0
   12.7410   -1.9400   22.3580 C   0  0  0  0  0  0  0  0  0  0  0  0
   13.2440   -2.2210   23.6170 C   0  0  0  0  0  0  0  0  0  0  0  0
   12.4270   -2.0530   24.7060 C   0  0  0  0  0  0  0  0  0  0  0  0
   11.1060   -1.6050   24.5290 C   0  0  0  0  0  0  0  0  0  0  0  0
   10.5280   -1.3110   23.2820 C   0  0  0  0  0  0  0  0  0  0  0  0
    4.3020    0.7150   22.0790 C   0  0  0  0  0  0  0  0  0  0  0  0
    3.0870    1.3710   22.2510 C   0  0  0  0  0  0  0  0  0  0  0  0
    2.5200    2.0680   21.1930 C   0  0  0  0  0  0  0  0  0  0  0  0
    3.1750    2.1000   19.9660 C   0  0  0  0  0  0  0  0  0  0  0  0
  1  2  2  0
  1  6  1  0
  6  4  1  6
  5  6  1  0
  6  7  1  0
  7  8  1  0
  8  9  1  0
  5 10  1  0
  9 10  1  0
 11 12  2  0
 12 13  1  0
  1 14  1  0
 13 14  2  0
 14 15  1  0
  3 16  1  0
 11 16  1  0
 15 16  2  0
 17 18  2  0
 18 19  1  0
 19 20  2  0
 20 21  1  0
  7 22  1  0
 17 22  1  0
 21 22  2  0
 13 23  1  0
 23 24  2  0
 24 25  1  0
 12 26  1  0
 25 26  2  0
M  END
