x3303-x1351
     RDKit          3D

 42 48  0  0  0  0  0  0  0  0999 V2000
    7.1390   -3.3230   19.2750 C   0  0  0  0  0  0  0  0  0  0  0  0
    5.8910   -5.0280   19.9990 O   0  0  0  0  0  0  0  0  0  0  0  0
    6.4880   -3.9740   20.2500 C   0  0  0  0  0  0  0  0  0  0  0  0
    5.6760   -2.7080   25.3290 N   0  0  0  0  0  0  0  0  0  0  0  0
    6.6990   -3.3410   27.3410 O   0  0  0  0  0  0  0  0  0  0  0  0
    6.2400   -2.4560   26.6400 C   0  0  0  0  0  0  0  0  0  0  0  0
    6.0930   -1.4880   20.8160 C   0  0  0  0  0  0  0  0  0  0  0  0
    5.3090   -2.4610   21.1830 N   0  0  0  0  0  0  0  0  0  0  0  0
    6.3480    1.2780   16.9540 O   0  0  0  0  0  0  0  0  0  0  0  0
    6.3270   -3.4460   21.6700 C   0  0  2  0  0  0  0  0  0  0  0  0
    7.2570   -2.5970   22.2650 C   0  0  1  0  0  0  0  0  0  0  0  0
    6.7730   -2.1250   23.4670 C   0  0  0  0  0  0  0  0  0  0  0  0
    6.4930   -3.2580   24.2710 C   0  0  2  0  0  0  0  0  0  0  0  0
    5.7200   -4.3250   23.7670 C   0  0  0  0  0  0  0  0  0  0  0  0
    5.8290   -4.5010   22.4180 C   0  0  0  0  0  0  0  0  0  0  0  0
    7.0300   -0.5870   28.1640 C   0  0  0  0  0  0  0  0  0  0  0  0
    6.9680    0.7470   28.5980 C   0  0  0  0  0  0  0  0  0  0  0  0
    6.0960    1.6590   28.0130 C   0  0  0  0  0  0  0  0  0  0  0  0
    5.2980    1.1890   26.9830 C   0  0  0  0  0  0  0  0  0  0  0  0
    5.3480   -0.1300   26.5410 C   0  0  0  0  0  0  0  0  0  0  0  0
    6.2180   -1.0650   27.1220 C   0  0  0  0  0  0  0  0  0  0  0  0
    8.4000   -0.6190   21.2600 C   0  0  0  0  0  0  0  0  0  0  0  0
    8.9620   -0.5140   22.5170 C   0  0  0  0  0  0  0  0  0  0  0  0
    9.5000   -1.8160   22.9560 N   0  0  0  0  0  0  0  0  0  0  0  0
    8.7570   -3.0210   22.5380 C   0  0  0  0  0  0  0  0  0  0  0  0
    7.3900   -1.6760   21.1390 N   0  0  0  0  0  0  0  0  0  0  0  0
    4.8740    1.8390   18.5360 N   0  0  0  0  0  0  0  0  0  0  0  0
    4.2840    1.6310   19.7150 C   0  0  0  0  0  0  0  0  0  0  0  0
    4.6090    0.5560   20.5630 C   0  0  0  0  0  0  0  0  0  0  0  0
    5.6120   -0.3110   20.0940 C   0  0  0  0  0  0  0  0  0  0  0  0
    6.2320   -0.1000   18.8630 C   0  0  0  0  0  0  0  0  0  0  0  0
    5.8120    0.9830   18.1520 C   0  0  0  0  0  0  0  0  0  0  0  0
   11.8350   -1.0090   22.8610 C   0  0  0  0  0  0  0  0  0  0  0  0
   13.1450   -1.1240   23.3060 C   0  0  0  0  0  0  0  0  0  0  0  0
   13.4700   -2.1020   24.2400 C   0  0  0  0  0  0  0  0  0  0  0  0
   12.5220   -2.9450   24.7100 C   0  0  0  0  0  0  0  0  0  0  0  0
   11.2270   -2.8250   24.2580 C   0  0  0  0  0  0  0  0  0  0  0  0
   10.8410   -1.8650   23.3380 C   0  0  0  0  0  0  0  0  0  0  0  0
    3.9260    0.4230   21.7900 C   0  0  0  0  0  0  0  0  0  0  0  0
    2.9460    1.3350   22.1620 C   0  0  0  0  0  0  0  0  0  0  0  0
    2.6350    2.3900   21.3170 C   0  0  0  0  0  0  0  0  0  0  0  0
    3.3080    2.5270   20.1030 C   0  0  0  0  0  0  0  0  0  0  0  0
  1  3  1  0
  2  3  2  0
  4  6  1  0
  5  6  2  0
  7  8  2  0
 10  3  1  6
  8 10  1  0
 10 11  1  0
 11 12  1  1
 13  4  1  1
 12 13  1  0
 13 14  1  0
 10 15  1  0
 14 15  1  0
 16 17  2  0
 17 18  1  0
 18 19  2  0
 19 20  1  0
  6 21  1  0
 16 21  1  0
 20 21  2  0
 22 23  1  0
 23 24  1  0
 11 25  1  0
 24 25  1  0
  7 26  1  0
 11 26  1  0
 22 26  1  0
 27 28  2  0
 28 29  1  0
  7 30  1  0
 29 30  2  0
 30 31  1  0
  9 32  1  0
 27 32  1  0
 31 32  2  0
 33 34  2  0
 34 35  1  0
 35 36  2  0
 36 37  1  0
 24 38  1  0
 33 38  1  0
 37 38  2  0
 29 39  1  0
 39 40  2  0
 40 41  1  0
 28 42  1  0
 41 42  2  0
M  END
