x3303-x0769
     RDKit          3D

 45 51  0  0  0  0  0  0  0  0999 V2000
    5.7240   -5.2050   27.0110 O   0  0  0  0  0  0  0  0  0  0  0  0
    3.8060   -6.4860   26.0350 O   0  0  0  0  0  0  0  0  0  0  0  0
    5.5510   -5.0990   19.9620 O   0  0  0  0  0  0  0  0  0  0  0  0
    6.2560   -4.4790   20.7250 C   0  0  0  0  0  0  0  0  0  0  0  0
    7.3590   -3.5040   20.3690 C   0  0  0  0  0  0  0  0  0  0  0  0
    5.5030   -2.4590   26.4430 F   0  0  0  0  0  0  0  0  0  0  0  0
    4.6880   -5.3390   26.0220 S   0  0  0  0  0  0  0  0  0  0  0  0
    6.0410   -1.3200   21.1730 C   0  0  0  0  0  0  0  0  0  0  0  0
    4.9940   -2.2910   21.5450 N   0  0  0  0  0  0  0  0  0  0  0  0
    6.3320    1.0650   16.8830 O   0  0  0  0  0  0  0  0  0  0  0  0
    5.2650   -3.3260   22.6200 C   0  0  0  0  0  0  0  0  0  0  0  0
    4.1910   -2.6470   26.2490 C   0  0  0  0  0  0  0  0  0  0  0  0
    3.6540   -3.9060   26.0370 C   0  0  0  0  0  0  0  0  0  0  0  0
    2.2730   -4.0690   25.8360 C   0  0  0  0  0  0  0  0  0  0  0  0
    1.4680   -2.9100   25.8610 C   0  0  0  0  0  0  0  0  0  0  0  0
    2.0070   -1.6450   26.0770 C   0  0  0  0  0  0  0  0  0  0  0  0
    3.3630   -1.5220   26.2670 C   0  0  0  0  0  0  0  0  0  0  0  0
    5.9330   -4.6440   22.1600 C   0  0  0  0  0  0  0  0  0  0  0  0
    5.0470   -5.7090   22.2520 C   0  0  0  0  0  0  0  0  0  0  0  0
    4.8910   -6.2700   23.4820 C   0  0  0  0  0  0  0  0  0  0  0  0
    5.3860   -5.2760   24.4690 N   0  0  0  0  0  0  0  0  0  0  0  0
    6.8440   -5.0390   24.3700 C   0  0  0  0  0  0  0  0  0  0  0  0
    7.1610   -5.0180   23.0130 C   0  0  0  0  0  0  0  0  0  0  0  0
    8.2480   -0.3630   21.2180 C   0  0  0  0  0  0  0  0  0  0  0  0
    9.3280   -0.1770   22.2850 C   0  0  0  0  0  0  0  0  0  0  0  0
    9.5770   -1.4880   22.9280 N   0  0  0  0  0  0  0  0  0  0  0  0
    9.1730   -2.6510   22.0980 C   0  0  0  0  0  0  0  0  0  0  0  0
    7.8990   -2.6400   21.5980 C   0  0  1  0  0  0  0  0  0  0  0  0
    7.2770   -1.3360   21.6790 N   0  0  0  0  0  0  0  0  0  0  0  0
    4.9940    1.7860   18.4280 N   0  0  0  0  0  0  0  0  0  0  0  0
    4.4490    1.7390   19.6260 C   0  0  0  0  0  0  0  0  0  0  0  0
    4.7720    0.7460   20.5560 C   0  0  0  0  0  0  0  0  0  0  0  0
    5.6980   -0.2410   20.1770 C   0  0  0  0  0  0  0  0  0  0  0  0
    6.2830   -0.2030   18.9070 C   0  0  0  0  0  0  0  0  0  0  0  0
    5.8730    0.8480   18.1130 C   0  0  0  0  0  0  0  0  0  0  0  0
   11.9050   -1.6200   22.3380 C   0  0  0  0  0  0  0  0  0  0  0  0
   13.2020   -1.8900   22.6730 C   0  0  0  0  0  0  0  0  0  0  0  0
   13.5060   -2.2910   23.9650 C   0  0  0  0  0  0  0  0  0  0  0  0
   12.5350   -2.4000   24.8960 C   0  0  0  0  0  0  0  0  0  0  0  0
   11.2340   -2.1180   24.5470 C   0  0  0  0  0  0  0  0  0  0  0  0
   10.8880   -1.7290   23.2640 C   0  0  0  0  0  0  0  0  0  0  0  0
    4.1610    0.7900   21.8080 C   0  0  0  0  0  0  0  0  0  0  0  0
    3.2440    1.7810   22.1360 C   0  0  0  0  0  0  0  0  0  0  0  0
    2.9230    2.7490   21.2080 C   0  0  0  0  0  0  0  0  0  0  0  0
    3.5330    2.7200   19.9570 C   0  0  0  0  0  0  0  0  0  0  0  0
  3  4  2  0
  4  5  1  0
  1  7  2  0
  2  7  2  0
  8  9  2  0
  9 11  1  0
  6 12  1  0
  7 13  1  0
 12 13  2  0
 13 14  1  0
 14 15  2  0
 15 16  1  0
 12 17  1  0
 16 17  2  0
 18  4  1  0
 11 18  1  0
 18 19  1  0
 19 20  1  0
  7 21  1  0
 20 21  1  0
 21 22  1  0
 18 23  1  0
 22 23  1  0
 24 25  1  0
 25 26  1  0
 26 27  1  0
 28  5  1  6
 27 28  1  0
  8 29  1  0
 24 29  1  0
 28 29  1  0
 30 31  2  0
 31 32  1  0
  8 33  1  0
 32 33  2  0
 33 34  1  0
 10 35  1  0
 30 35  1  0
 34 35  2  0
 36 37  2  0
 37 38  1  0
 38 39  2  0
 39 40  1  0
 26 41  1  0
 36 41  1  0
 40 41  2  0
 32 42  1  0
 42 43  2  0
 43 44  1  0
 31 45  1  0
 44 45  2  0
M  END
