x3305-x1402
     RDKit          3D

 36 39  0  0  0  0  0  0  0  0999 V2000
    3.6180   -7.4730   24.2510 C   0  0  0  0  0  0  0  0  0  0  0  0
    5.8210   -3.6340   20.4760 C   0  0  0  0  0  0  0  0  0  0  0  0
    7.8330   -3.8170   21.9030 N   0  0  0  0  0  0  0  0  0  0  0  0
    7.3690   -1.8600   20.6190 N   0  0  0  0  0  0  0  0  0  0  0  0
    7.0110   -3.6820   23.1100 C   0  0  0  0  0  0  0  0  0  0  0  0
    7.3360   -3.3800   20.5720 C   0  0  2  0  0  0  0  0  0  0  0  0
    8.3150   -1.1730   21.4210 C   0  0  0  0  0  0  0  0  0  0  0  0
    9.3280   -1.9770   21.9940 C   0  0  0  0  0  0  0  0  0  0  0  0
    7.0960   -1.1470   19.3220 C   0  0  0  0  0  0  0  0  0  0  0  0
    5.2500   -4.5500   19.8960 O   0  0  0  0  0  0  0  0  0  0  0  0
    0.6350   -1.3050   26.1170 Cl  0  0  0  0  0  0  0  0  0  0  0  0
    4.0210   -6.2250   26.2720 O   0  0  0  0  0  0  0  0  0  0  0  0
    6.1800   -4.9390   26.5420 O   0  0  0  0  0  0  0  0  0  0  0  0
    4.9200   -5.1610   25.8820 S   0  0  0  0  0  0  0  0  0  0  0  0
    4.5780   -6.5650   23.6400 N   0  0  0  0  0  0  0  0  0  0  0  0
    5.2320   -5.4980   24.2000 C   0  0  0  0  0  0  0  0  0  0  0  0
    6.0870   -4.8860   23.1170 C   0  0  0  0  0  0  0  0  0  0  0  0
    5.8760   -5.6690   22.0190 N   0  0  0  0  0  0  0  0  0  0  0  0
    4.9650   -6.6760   22.3470 N   0  0  0  0  0  0  0  0  0  0  0  0
    5.4080    1.7270   17.8540 N   0  0  0  0  0  0  0  0  0  0  0  0
    6.3300    0.6710   18.1810 C   0  0  0  0  0  0  0  0  0  0  0  0
    6.1280   -0.1800   19.2310 C   0  0  0  0  0  0  0  0  0  0  0  0
    5.0200   -0.0050   20.0380 C   0  0  0  0  0  0  0  0  0  0  0  0
    4.1080    1.0240   19.7810 C   0  0  0  0  0  0  0  0  0  0  0  0
    4.2500    1.9160   18.7010 C   0  0  0  0  0  0  0  0  0  0  0  0
   10.5900    0.2720   22.8500 C   0  0  0  0  0  0  0  0  0  0  0  0
   11.7770    0.9800   23.0970 C   0  0  0  0  0  0  0  0  0  0  0  0
   13.1150    0.3300   22.8190 C   0  0  0  0  0  0  0  0  0  0  0  0
   13.1540   -0.9510   22.3250 C   0  0  0  0  0  0  0  0  0  0  0  0
   11.8550   -1.6810   22.0670 C   0  0  0  0  0  0  0  0  0  0  0  0
   10.5780   -1.1720   22.2880 C   0  0  0  0  0  0  0  0  0  0  0  0
    2.3540   -3.7140   25.9520 S   0  0  0  0  0  0  0  0  0  0  0  0
    4.0660   -3.6370   25.9730 C   0  0  0  0  0  0  0  0  0  0  0  0
    4.5030   -2.1860   26.0690 C   0  0  0  0  0  0  0  0  0  0  0  0
    3.4280   -1.3410   26.1180 C   0  0  0  0  0  0  0  0  0  0  0  0
    2.1960   -2.0070   26.0670 C   0  0  0  0  0  0  0  0  0  0  0  0
  3  5  1  0
  6  2  1  1
  3  6  1  0
  4  6  1  0
  4  7  1  0
  7  8  1  0
  4  9  1  0
  2 10  2  0
 12 14  2  0
 13 14  2  0
  1 15  1  0
 14 16  1  0
 15 16  1  0
  5 17  1  0
 16 17  2  0
 17 18  1  0
 15 19  1  0
 18 19  2  0
 20 21  2  0
  9 22  1  0
 21 22  1  0
 22 23  2  0
 23 24  1  0
 20 25  1  0
 24 25  2  0
 26 27  2  0
 27 28  1  0
 28 29  2  0
 29 30  1  0
  8 31  1  0
 26 31  1  0
 30 31  2  0
 14 33  1  0
 32 33  1  0
 33 34  2  0
 34 35  1  0
 11 36  1  0
 32 36  1  0
 35 36  2  0
M  END
