x3303-x2193
     RDKit          3D

 36 40  0  0  0  0  0  0  0  0999 V2000
    6.2910   -1.5750   20.9790 C   0  0  0  0  0  0  0  0  0  0  0  0
    5.4700   -2.4460   21.2890 O   0  0  0  0  0  0  0  0  0  0  0  0
    6.4950    1.2610   16.9380 O   0  0  0  0  0  0  0  0  0  0  0  0
   11.3160    1.7070   23.4650 C   0  0  0  0  0  0  0  0  0  0  0  0
    9.3940    2.2130   21.3460 O   0  0  0  0  0  0  0  0  0  0  0  0
    8.6310    2.3120   23.8090 O   0  0  0  0  0  0  0  0  0  0  0  0
    9.4380    1.6210   22.8290 S   0  0  0  0  0  0  0  0  0  0  0  0
    8.5960   -0.5440   21.3770 C   0  0  0  0  0  0  0  0  0  0  0  0
    8.8690   -0.1490   22.8140 C   0  0  1  0  0  0  0  0  0  0  0  0
    9.3220   -1.1440   23.5610 N   0  0  0  0  0  0  0  0  0  0  0  0
    8.2030   -2.1440   23.4310 C   0  0  1  0  0  0  0  0  0  0  0  0
    8.0860   -2.6550   22.1520 C   0  0  0  0  0  0  0  0  0  0  0  0
    7.6370   -1.6150   21.3750 N   0  0  0  0  0  0  0  0  0  0  0  0
    4.9970    1.7300   18.5080 N   0  0  0  0  0  0  0  0  0  0  0  0
    4.3290    1.5210   19.7660 C   0  0  0  0  0  0  0  0  0  0  0  0
    4.7770    0.4270   20.5570 C   0  0  0  0  0  0  0  0  0  0  0  0
    5.8120   -0.3870   20.1050 C   0  0  0  0  0  0  0  0  0  0  0  0
    6.4160   -0.1440   18.8860 C   0  0  0  0  0  0  0  0  0  0  0  0
    5.9750    0.9270   18.1270 C   0  0  0  0  0  0  0  0  0  0  0  0
   11.6380   -1.2030   22.5710 C   0  0  0  0  0  0  0  0  0  0  0  0
   12.9630   -1.6340   22.6280 C   0  0  0  0  0  0  0  0  0  0  0  0
   13.4220   -2.4210   23.6500 C   0  0  0  0  0  0  0  0  0  0  0  0
   12.6640   -2.8610   24.7040 C   0  0  0  0  0  0  0  0  0  0  0  0
   11.3300   -2.4640   24.6940 C   0  0  0  0  0  0  0  0  0  0  0  0
   10.7280   -1.5670   23.5660 C   0  0  0  0  0  0  0  0  0  0  0  0
    4.1440    0.1960   21.8050 C   0  0  0  0  0  0  0  0  0  0  0  0
    3.0050    1.1210   22.2640 C   0  0  0  0  0  0  0  0  0  0  0  0
    2.5620    2.2550   21.4060 C   0  0  0  0  0  0  0  0  0  0  0  0
    3.3050    2.3970   20.1180 C   0  0  0  0  0  0  0  0  0  0  0  0
    8.1620   -6.0620   25.9340 N   0  0  0  0  0  0  0  0  0  0  0  0
    8.3950   -5.2490   27.0550 C   0  0  0  0  0  0  0  0  0  0  0  0
    8.7230   -3.8630   26.6190 C   0  0  0  0  0  0  0  0  0  0  0  0
    9.2510   -3.6890   25.2840 N   0  0  0  0  0  0  0  0  0  0  0  0
    9.9840   -4.7360   24.9690 C   0  0  0  0  0  0  0  0  0  0  0  0
    9.1550   -5.8610   24.8610 C   0  0  0  0  0  0  0  0  0  0  0  0
    8.1820   -3.4260   24.3190 C   0  0  0  0  0  0  0  0  0  0  0  0
  1  2  2  0
  7  4  1  0
  5  7  2  0
  6  7  2  0
  9  7  1  6
  8  9  1  0
  9 10  1  0
 10 11  1  0
 11 12  1  0
  1 13  1  0
  8 13  1  0
 12 13  1  0
 14 15  2  0
 15 16  1  0
  1 17  1  0
 16 17  2  0
 17 18  1  0
  3 19  1  0
 14 19  1  0
 18 19  2  0
 20 21  2  0
 21 22  1  0
 22 23  2  0
 23 24  1  0
 10 25  1  0
 20 25  1  0
 24 25  2  0
 16 26  1  0
 26 27  2  0
 27 28  1  0
 15 29  1  0
 28 29  2  0
 30 31  1  0
 31 32  1  0
 32 33  1  0
 33 34  1  0
 30 35  1  0
 34 35  1  0
 11 36  1  1
 33 36  1  0
M  END
