x3305-x2764
     RDKit          3D

 31 33  0  0  0  0  0  0  0  0999 V2000
    3.3930   -7.0760   23.7420 C   0  0  0  0  0  0  0  0  0  0  0  0
    5.6530   -3.0070   21.2320 O   0  0  0  0  0  0  0  0  0  0  0  0
    6.6700   -2.4010   23.2100 N   0  0  0  0  0  0  0  0  0  0  0  0
    7.3510   -1.4570   21.0930 N   0  0  0  0  0  0  0  0  0  0  0  0
    7.1410   -3.5780   23.8990 C   0  0  0  0  0  0  0  0  0  0  0  0
    6.5160   -2.3190   21.7770 C   0  0  0  0  0  0  0  0  0  0  0  0
    8.3310   -0.9890   21.5390 C   0  0  0  0  0  0  0  0  0  0  0  0
    9.3300   -1.8960   21.9310 C   0  0  0  0  0  0  0  0  0  0  0  0
    7.0440   -1.3230   19.6610 C   0  0  0  0  0  0  0  0  0  0  0  0
    4.6100   -6.3070   23.5210 N   0  0  0  0  0  0  0  0  0  0  0  0
    5.0310   -5.1730   24.0670 C   0  0  0  0  0  0  0  0  0  0  0  0
    6.2560   -4.7730   23.5870 C   0  0  0  0  0  0  0  0  0  0  0  0
    6.5930   -5.7450   22.6760 N   0  0  0  0  0  0  0  0  0  0  0  0
    5.5650   -6.6940   22.6420 N   0  0  0  0  0  0  0  0  0  0  0  0
    5.3190    0.9130   17.5400 N   0  0  0  0  0  0  0  0  0  0  0  0
    5.9810   -0.0960   18.0110 C   0  0  0  0  0  0  0  0  0  0  0  0
    6.3270   -0.2140   19.2720 C   0  0  0  0  0  0  0  0  0  0  0  0
    5.8960    0.8340   20.0480 C   0  0  0  0  0  0  0  0  0  0  0  0
    5.1570    2.0500   19.8340 C   0  0  0  0  0  0  0  0  0  0  0  0
    4.9600    1.8710   18.4140 C   0  0  0  0  0  0  0  0  0  0  0  0
   10.5500    0.0400   23.0730 C   0  0  0  0  0  0  0  0  0  0  0  0
   11.7310    0.7190   23.4150 C   0  0  0  0  0  0  0  0  0  0  0  0
   12.9780    0.2510   23.0340 C   0  0  0  0  0  0  0  0  0  0  0  0
   13.0810   -1.0360   22.2350 C   0  0  0  0  0  0  0  0  0  0  0  0
   11.9410   -1.7120   21.8930 C   0  0  0  0  0  0  0  0  0  0  0  0
   10.5940   -1.1590   22.3200 C   0  0  0  0  0  0  0  0  0  0  0  0
    6.7600    1.3130   21.5100 O   0  0  0  0  0  0  0  0  0  0  0  0
    7.7970    4.6670   22.5930 N   0  0  0  0  0  0  0  0  0  0  0  0
    7.6420    1.9720   22.3300 C   0  0  0  0  0  0  0  0  0  0  0  0
    7.7110    3.3490   22.4350 C   0  0  0  0  0  0  0  0  0  0  0  0
    5.5070    1.9720   21.2900 C   0  0  0  0  0  0  0  0  0  0  0  0
  3  5  1  0
  2  6  2  0
  3  6  1  0
  4  6  1  0
  4  7  1  0
  7  8  1  0
  4  9  1  0
  1 10  1  0
 10 11  1  0
  5 12  1  0
 11 12  2  0
 12 13  1  0
 10 14  1  0
 13 14  2  0
 15 16  2  0
  9 17  1  0
 16 17  1  0
 17 18  2  0
 18 19  1  0
 15 20  1  0
 19 20  2  0
 21 22  2  0
 22 23  1  0
 23 24  2  0
 24 25  1  0
  8 26  1  0
 21 26  1  0
 25 26  2  0
 27 29  1  0
 28 30  3  0
 29 30  1  0
 19 31  1  0
 27 31  1  0
M  END
