x3305-x0107
     RDKit          3D

 30 33  0  0  0  0  0  0  0  0999 V2000
    3.3730   -7.0810   23.6960 C   0  0  0  0  0  0  0  0  0  0  0  0
    5.7370   -3.1310   21.4550 O   0  0  0  0  0  0  0  0  0  0  0  0
    6.8430   -2.3930   23.3360 N   0  0  0  0  0  0  0  0  0  0  0  0
    7.2580   -1.4600   21.1550 N   0  0  0  0  0  0  0  0  0  0  0  0
    7.2460   -3.5890   24.0280 C   0  0  0  0  0  0  0  0  0  0  0  0
    6.5760   -2.3640   21.9320 C   0  0  0  0  0  0  0  0  0  0  0  0
    8.3800   -1.1790   21.2250 C   0  0  2  0  0  0  0  0  0  0  0  0
    9.0410   -1.0930   22.4490 C   0  0  2  0  0  0  0  0  0  0  0  0
    6.8020   -1.5220   19.8010 C   0  0  0  0  0  0  0  0  0  0  0  0
    8.7090    0.0690   21.4860 C   0  0  0  0  0  0  0  0  0  0  0  0
    8.7490    1.4560   21.1400 O   0  0  0  0  0  0  0  0  0  0  0  0
    4.5930   -6.2940   23.5560 N   0  0  0  0  0  0  0  0  0  0  0  0
    4.9920   -5.1370   24.1870 C   0  0  0  0  0  0  0  0  0  0  0  0
    6.3460   -4.7210   23.6970 C   0  0  0  0  0  0  0  0  0  0  0  0
    6.6510   -5.7060   22.7710 N   0  0  0  0  0  0  0  0  0  0  0  0
    5.5950   -6.6400   22.6970 N   0  0  0  0  0  0  0  0  0  0  0  0
    6.1650    1.1610   17.5400 N   0  0  0  0  0  0  0  0  0  0  0  0
    6.6840    0.0490   18.1870 C   0  0  0  0  0  0  0  0  0  0  0  0
    6.1510   -0.3080   19.2930 C   0  0  0  0  0  0  0  0  0  0  0  0
    5.1130    0.3820   19.8720 C   0  0  0  0  0  0  0  0  0  0  0  0
    4.4120    1.5560   19.4370 C   0  0  0  0  0  0  0  0  0  0  0  0
    5.0560    1.8640   18.1770 C   0  0  0  0  0  0  0  0  0  0  0  0
   10.8250    0.5100   23.2730 C   0  0  0  0  0  0  0  0  0  0  0  0
   12.1300    0.9280   23.4190 C   0  0  0  0  0  0  0  0  0  0  0  0
   13.2540    0.0720   22.8770 C   0  0  0  0  0  0  0  0  0  0  0  0
   13.0020   -1.1280   22.2530 C   0  0  0  0  0  0  0  0  0  0  0  0
   11.5710   -1.5620   22.1060 C   0  0  0  0  0  0  0  0  0  0  0  0
   10.4960   -0.8130   22.5690 C   0  0  0  0  0  0  0  0  0  0  0  0
    5.0520    1.0070   21.7980 C   0  0  0  0  0  0  0  0  0  0  0  0
    3.9120    1.0500   20.7430 C   0  0  0  0  0  0  0  0  0  0  0  0
  3  5  1  0
  2  6  2  0
  3  6  1  0
  4  6  1  0
  7  4  1  1
  7  8  1  0
  4  9  1  0
  7 10  1  0
  8 10  1  0
 10 11  2  0
  1 12  1  0
 12 13  1  0
  5 14  1  0
 13 14  2  0
 14 15  1  0
 12 16  1  0
 15 16  2  0
 17 18  2  0
  9 19  1  0
 18 19  1  0
 19 20  2  0
 20 21  1  0
 17 22  1  0
 21 22  2  0
 23 24  2  0
 24 25  1  0
 25 26  2  0
 26 27  1  0
  8 28  1  6
 23 28  1  0
 27 28  2  0
 21 30  1  0
 29 30  1  0
M  END
