x3303-x0786
     RDKit          3D

 44 50  0  0  0  0  0  0  0  0999 V2000
    6.2400   -3.5430   22.2030 C   0  0  1  0  0  0  0  0  0  0  0  0
    7.5930   -4.7380   20.6000 C   0  0  0  0  0  0  0  0  0  0  0  0
    5.5050   -4.5310   20.0150 O   0  0  0  0  0  0  0  0  0  0  0  0
    6.4210   -4.3190   20.8630 C   0  0  0  0  0  0  0  0  0  0  0  0
    3.8060   -8.1110   24.7510 O   0  0  0  0  0  0  0  0  0  0  0  0
    3.3930   -7.0500   24.3180 C   0  0  0  0  0  0  0  0  0  0  0  0
    6.1630   -1.1600   20.8660 C   0  0  0  0  0  0  0  0  0  0  0  0
    5.0910   -1.7020   21.1830 N   0  0  0  0  0  0  0  0  0  0  0  0
    6.4150    1.3050   16.7370 O   0  0  0  0  0  0  0  0  0  0  0  0
    5.0240   -2.7000   22.1040 C   0  0  0  0  0  0  0  0  0  0  0  0
    5.6910   -4.2640   23.3580 C   0  0  0  0  0  0  0  0  0  0  0  0
    4.8170   -5.3630   23.2470 C   0  0  0  0  0  0  0  0  0  0  0  0
    4.2790   -5.9640   24.3880 C   0  0  0  0  0  0  0  0  0  0  0  0
    4.6070   -5.4910   25.6410 C   0  0  0  0  0  0  0  0  0  0  0  0
    5.5610   -4.3060   25.7680 C   0  0  0  0  0  0  0  0  0  0  0  0
    6.0420   -3.7700   24.5920 C   0  0  0  0  0  0  0  0  0  0  0  0
    1.6950   -5.5230   23.5100 C   0  0  0  0  0  0  0  0  0  0  0  0
    0.7630   -5.0770   24.4390 C   0  0  0  0  0  0  0  0  0  0  0  0
   -0.7600   -6.0690   24.3370 S   0  0  0  0  0  0  0  0  0  0  0  0
    0.0600   -7.6580   24.7260 C   0  0  0  0  0  0  0  0  0  0  0  0
    1.1310   -7.9240   23.8360 C   0  0  0  0  0  0  0  0  0  0  0  0
    2.1810   -6.8930   23.8360 N   0  0  0  0  0  0  0  0  0  0  0  0
    8.5120   -0.5240   21.3260 C   0  0  0  0  0  0  0  0  0  0  0  0
    8.9990   -0.2490   22.5920 C   0  0  0  0  0  0  0  0  0  0  0  0
    9.4490   -1.4980   23.2370 N   0  0  0  0  0  0  0  0  0  0  0  0
    8.6800   -2.7190   22.8730 C   0  0  0  0  0  0  0  0  0  0  0  0
    7.3660   -2.4200   22.4860 C   0  0  1  0  0  0  0  0  0  0  0  0
    7.4040   -1.4780   21.3500 N   0  0  0  0  0  0  0  0  0  0  0  0
    5.0080    1.9690   18.2810 N   0  0  0  0  0  0  0  0  0  0  0  0
    4.4690    1.8410   19.4740 C   0  0  0  0  0  0  0  0  0  0  0  0
    4.8570    0.8130   20.3400 C   0  0  0  0  0  0  0  0  0  0  0  0
    5.8200   -0.0990   19.9400 C   0  0  0  0  0  0  0  0  0  0  0  0
    6.3820    0.0240   18.7190 C   0  0  0  0  0  0  0  0  0  0  0  0
    5.9330    1.0760   17.9460 C   0  0  0  0  0  0  0  0  0  0  0  0
   11.6770   -1.7830   22.2590 C   0  0  0  0  0  0  0  0  0  0  0  0
   13.0100   -2.1010   22.4190 C   0  0  0  0  0  0  0  0  0  0  0  0
   13.4820   -2.4320   23.6740 C   0  0  0  0  0  0  0  0  0  0  0  0
   12.6410   -2.4270   24.7560 C   0  0  0  0  0  0  0  0  0  0  0  0
   11.3010   -2.1000   24.5930 C   0  0  0  0  0  0  0  0  0  0  0  0
   10.8010   -1.7860   23.3470 C   0  0  0  0  0  0  0  0  0  0  0  0
    4.2430    0.7410   21.6090 C   0  0  0  0  0  0  0  0  0  0  0  0
    3.2810    1.6610   21.9850 C   0  0  0  0  0  0  0  0  0  0  0  0
    2.9040    2.6720   21.1080 C   0  0  0  0  0  0  0  0  0  0  0  0
    3.5030    2.7470   19.8690 C   0  0  0  0  0  0  0  0  0  0  0  0
  1  4  1  6
  2  4  1  0
  3  4  2  0
  5  6  2  0
  7  8  2  0
  1 10  1  0
  8 10  1  0
  1 11  1  0
 11 12  2  0
  6 13  1  0
 12 13  1  0
 13 14  2  0
 14 15  1  0
 11 16  1  0
 15 16  2  0
 17 18  1  0
 18 19  1  0
 19 20  1  0
 20 21  1  0
  6 22  1  0
 17 22  1  0
 21 22  1  0
 23 24  1  0
 24 25  1  0
 25 26  1  0
  1 27  1  0
 27 26  1  6
  7 28  1  0
 23 28  1  0
 27 28  1  0
 29 30  2  0
 30 31  1  0
  7 32  1  0
 31 32  2  0
 32 33  1  0
  9 34  1  0
 29 34  1  0
 33 34  2  0
 35 36  2  0
 36 37  1  0
 37 38  2  0
 38 39  1  0
 25 40  1  0
 35 40  1  0
 39 40  2  0
 31 41  1  0
 41 42  2  0
 42 43  1  0
 30 44  1  0
 43 44  2  0
M  END
