x3305-x0689
     RDKit          3D

 35 38  0  0  0  0  0  0  0  0999 V2000
    3.5900   -7.4240   24.2570 C   0  0  0  0  0  0  0  0  0  0  0  0
    5.8270   -3.6800   20.6180 C   0  0  0  0  0  0  0  0  0  0  0  0
    7.8520   -3.7590   21.9810 N   0  0  0  0  0  0  0  0  0  0  0  0
    7.3550   -1.8590   20.6890 N   0  0  0  0  0  0  0  0  0  0  0  0
    6.9980   -3.6350   23.1620 C   0  0  0  0  0  0  0  0  0  0  0  0
    7.3350   -3.3780   20.6460 C   0  0  2  0  0  0  0  0  0  0  0  0
    8.3260   -1.1620   21.4460 C   0  0  0  0  0  0  0  0  0  0  0  0
    9.3360   -1.9650   22.0280 C   0  0  0  0  0  0  0  0  0  0  0  0
    7.1450   -1.2000   19.3680 C   0  0  0  0  0  0  0  0  0  0  0  0
    5.2110   -4.4060   19.8440 O   0  0  0  0  0  0  0  0  0  0  0  0
    4.1170   -6.1400   26.3480 O   0  0  0  0  0  0  0  0  0  0  0  0
    5.8240   -4.2620   26.4160 O   0  0  0  0  0  0  0  0  0  0  0  0
    4.6940   -4.9260   25.8110 S   0  0  0  0  0  0  0  0  0  0  0  0
    4.5850   -6.5330   23.6700 N   0  0  0  0  0  0  0  0  0  0  0  0
    5.1600   -5.4040   24.2030 C   0  0  0  0  0  0  0  0  0  0  0  0
    6.1040   -4.8590   23.1600 C   0  0  0  0  0  0  0  0  0  0  0  0
    6.0140   -5.7320   22.1120 N   0  0  0  0  0  0  0  0  0  0  0  0
    5.0950   -6.7330   22.4320 N   0  0  0  0  0  0  0  0  0  0  0  0
    5.5280    1.6700   17.8110 N   0  0  0  0  0  0  0  0  0  0  0  0
    6.4340    0.6150   18.1770 C   0  0  0  0  0  0  0  0  0  0  0  0
    6.1880   -0.2270   19.2210 C   0  0  0  0  0  0  0  0  0  0  0  0
    5.0450   -0.0390   19.9790 C   0  0  0  0  0  0  0  0  0  0  0  0
    4.1470    0.9880   19.6830 C   0  0  0  0  0  0  0  0  0  0  0  0
    4.3360    1.8740   18.6070 C   0  0  0  0  0  0  0  0  0  0  0  0
   10.6030    0.2770   22.8800 C   0  0  0  0  0  0  0  0  0  0  0  0
   11.7930    0.9850   23.1160 C   0  0  0  0  0  0  0  0  0  0  0  0
   13.1260    0.3360   22.8160 C   0  0  0  0  0  0  0  0  0  0  0  0
   13.1580   -0.9390   22.3140 C   0  0  0  0  0  0  0  0  0  0  0  0
   11.8570   -1.6680   22.0690 C   0  0  0  0  0  0  0  0  0  0  0  0
   10.5840   -1.1600   22.3100 C   0  0  0  0  0  0  0  0  0  0  0  0
    3.8430   -2.0900   26.0320 S   0  0  0  0  0  0  0  0  0  0  0  0
    3.4120   -3.7260   25.7260 C   0  0  0  0  0  0  0  0  0  0  0  0
    1.9130   -3.8160   25.4270 C   0  0  0  0  0  0  0  0  0  0  0  0
    1.3100   -2.5910   25.4860 C   0  0  0  0  0  0  0  0  0  0  0  0
    2.2230   -1.5840   25.7990 C   0  0  0  0  0  0  0  0  0  0  0  0
  3  5  1  0
  6  2  1  1
  3  6  1  0
  4  6  1  0
  4  7  1  0
  7  8  1  0
  4  9  1  0
  2 10  2  0
 11 13  2  0
 12 13  2  0
  1 14  1  0
 13 15  1  0
 14 15  1  0
  5 16  1  0
 15 16  2  0
 16 17  1  0
 14 18  1  0
 17 18  2  0
 19 20  2  0
  9 21  1  0
 20 21  1  0
 21 22  2  0
 22 23  1  0
 19 24  1  0
 23 24  2  0
 25 26  2  0
 26 27  1  0
 27 28  2  0
 28 29  1  0
  8 30  1  0
 25 30  1  0
 29 30  2  0
 13 32  1  0
 31 32  1  0
 32 33  2  0
 33 34  1  0
 31 35  1  0
 34 35  2  0
M  END
