x3303-x0434
     RDKit          3D

 26 29  0  0  0  0  0  0  0  0999 V2000
    6.6070   -1.1520   20.8820 C   0  0  0  0  0  0  0  0  0  0  0  0
    6.1860   -2.3060   20.8910 O   0  0  0  0  0  0  0  0  0  0  0  0
    6.3100    1.2640   16.8190 O   0  0  0  0  0  0  0  0  0  0  0  0
    8.0470    0.7680   21.4400 O   0  0  0  0  0  0  0  0  0  0  0  0
    7.7580   -0.5990   21.7300 C   0  0  2  0  0  0  0  0  0  0  0  0
    9.1200   -1.2790   21.6570 C   0  0  0  0  0  0  0  0  0  0  0  0
    9.5630   -1.6000   23.0180 N   0  0  0  0  0  0  0  0  0  0  0  0
    8.6790   -2.5920   23.6540 C   0  0  0  0  0  0  0  0  0  0  0  0
    7.2610   -2.0680   23.5630 C   0  0  0  0  0  0  0  0  0  0  0  0
    7.3190   -0.6780   23.1060 N   0  0  0  0  0  0  0  0  0  0  0  0
    4.7980    1.6860   18.3950 N   0  0  0  0  0  0  0  0  0  0  0  0
    4.2730    1.4860   19.5940 C   0  0  0  0  0  0  0  0  0  0  0  0
    4.7960    0.5520   20.5010 C   0  0  0  0  0  0  0  0  0  0  0  0
    5.9330   -0.1630   20.0500 C   0  0  0  0  0  0  0  0  0  0  0  0
    6.4790    0.0420   18.8080 C   0  0  0  0  0  0  0  0  0  0  0  0
    5.8610    0.9780   18.0420 C   0  0  0  0  0  0  0  0  0  0  0  0
   11.8490   -1.7210   22.2850 C   0  0  0  0  0  0  0  0  0  0  0  0
   13.1610   -1.9990   22.5630 C   0  0  0  0  0  0  0  0  0  0  0  0
   13.5170   -2.4230   23.8350 C   0  0  0  0  0  0  0  0  0  0  0  0
   12.5880   -2.5500   24.8160 C   0  0  0  0  0  0  0  0  0  0  0  0
   11.2770   -2.2610   24.5210 C   0  0  0  0  0  0  0  0  0  0  0  0
   10.8800   -1.8500   23.2560 C   0  0  0  0  0  0  0  0  0  0  0  0
    4.1740    0.3980   21.7630 C   0  0  0  0  0  0  0  0  0  0  0  0
    3.0580    1.1630   22.1030 C   0  0  0  0  0  0  0  0  0  0  0  0
    2.5530    2.0850   21.1930 C   0  0  0  0  0  0  0  0  0  0  0  0
    3.1650    2.2340   19.9520 C   0  0  0  0  0  0  0  0  0  0  0  0
  1  2  2  0
  1  5  1  0
  5  4  1  6
  5  6  1  0
  6  7  1  0
  7  8  1  0
  8  9  1  0
  5 10  1  0
  9 10  1  0
 11 12  2  0
 12 13  1  0
  1 14  1  0
 13 14  2  0
 14 15  1  0
  3 16  1  0
 11 16  1  0
 15 16  2  0
 17 18  2  0
 18 19  1  0
 19 20  2  0
 20 21  1  0
  7 22  1  0
 17 22  1  0
 21 22  2  0
 13 23  1  0
 23 24  2  0
 24 25  1  0
 12 26  1  0
 25 26  2  0
M  END
