x3303-x0107
     RDKit          3D

 27 30  0  0  0  0  0  0  0  0999 V2000
    6.6920   -1.1000   20.9470 C   0  0  0  0  0  0  0  0  0  0  0  0
    6.2600   -2.2570   21.0220 O   0  0  0  0  0  0  0  0  0  0  0  0
    6.4050    1.3050   16.7640 O   0  0  0  0  0  0  0  0  0  0  0  0
    8.2650    0.7140   21.3600 O   0  0  0  0  0  0  0  0  0  0  0  0
    5.3570   -0.4300   21.7140 C   0  0  0  0  0  0  0  0  0  0  0  0
    7.9410   -0.6540   21.6740 C   0  0  2  0  0  0  0  0  0  0  0  0
    9.1550   -1.3380   21.6550 C   0  0  0  0  0  0  0  0  0  0  0  0
    9.5040   -1.8450   23.0050 N   0  0  0  0  0  0  0  0  0  0  0  0
    8.6100   -2.5570   23.7800 C   0  0  0  0  0  0  0  0  0  0  0  0
    7.3740   -2.0930   23.4220 C   0  0  0  0  0  0  0  0  0  0  0  0
    7.5010   -0.6860   23.0380 N   0  0  0  0  0  0  0  0  0  0  0  0
    4.7610    1.8080   18.3120 N   0  0  0  0  0  0  0  0  0  0  0  0
    4.1630    1.5960   19.6550 C   0  0  0  0  0  0  0  0  0  0  0  0
    4.7400    0.6540   20.5750 C   0  0  0  0  0  0  0  0  0  0  0  0
    5.9270   -0.0900   20.1580 C   0  0  0  0  0  0  0  0  0  0  0  0
    6.4910    0.0870   18.9320 C   0  0  0  0  0  0  0  0  0  0  0  0
    5.9100    1.0590   17.9730 C   0  0  0  0  0  0  0  0  0  0  0  0
   11.8930   -1.6220   22.5620 C   0  0  0  0  0  0  0  0  0  0  0  0
   13.2180   -1.7960   22.9470 C   0  0  0  0  0  0  0  0  0  0  0  0
   13.4780   -2.3810   24.1800 C   0  0  0  0  0  0  0  0  0  0  0  0
   12.5050   -2.7910   25.0380 C   0  0  0  0  0  0  0  0  0  0  0  0
   11.1780   -2.6440   24.7250 C   0  0  0  0  0  0  0  0  0  0  0  0
   10.8120   -2.0120   23.3820 C   0  0  0  0  0  0  0  0  0  0  0  0
    4.1710    0.4050   21.9570 C   0  0  0  0  0  0  0  0  0  0  0  0
    3.0490    1.2940   21.9940 C   0  0  0  0  0  0  0  0  0  0  0  0
    2.5000    2.2040   21.0940 C   0  0  0  0  0  0  0  0  0  0  0  0
    3.0950    2.3410   19.8940 C   0  0  0  0  0  0  0  0  0  0  0  0
  1  2  2  0
  1  6  1  0
  6  4  1  6
  6  7  1  0
  7  8  1  0
  8  9  1  0
  9 10  1  0
  6 11  1  0
 10 11  1  0
 12 13  2  0
 13 14  1  0
  1 15  1  0
 14 15  2  0
 15 16  1  0
  3 17  1  0
 12 17  1  0
 16 17  2  0
 18 19  2  0
 19 20  1  0
 20 21  2  0
 21 22  1  0
  8 23  1  0
 18 23  1  0
 22 23  2  0
  5 24  1  0
 14 24  1  0
 24 25  2  0
 25 26  1  0
 13 27  1  0
 26 27  2  0
M  END
