x3303-x2608
     RDKit          3D

 29 32  0  0  0  0  0  0  0  0999 V2000
    6.6840   -1.1690   20.8640 C   0  0  0  0  0  0  0  0  0  0  0  0
    6.2580   -2.3200   20.8730 O   0  0  0  0  0  0  0  0  0  0  0  0
    6.2980    1.3090   16.8020 O   0  0  0  0  0  0  0  0  0  0  0  0
    8.1360    0.7380   21.4290 O   0  0  0  0  0  0  0  0  0  0  0  0
    7.8480   -0.6330   21.7220 C   0  0  2  0  0  0  0  0  0  0  0  0
    9.2100   -1.3510   21.6950 C   0  0  0  0  0  0  0  0  0  0  0  0
    9.5740   -1.7910   23.0610 N   0  0  0  0  0  0  0  0  0  0  0  0
    8.5900   -2.7170   23.6420 C   0  0  0  0  0  0  0  0  0  0  0  0
    7.2180   -2.0800   23.5260 C   0  0  0  0  0  0  0  0  0  0  0  0
    7.3790   -0.6900   23.0870 N   0  0  0  0  0  0  0  0  0  0  0  0
    4.8160    1.6760   18.4010 N   0  0  0  0  0  0  0  0  0  0  0  0
    4.3050    1.4600   19.6010 C   0  0  0  0  0  0  0  0  0  0  0  0
    4.8490    0.5270   20.4960 C   0  0  0  0  0  0  0  0  0  0  0  0
    5.9950   -0.1770   20.0350 C   0  0  0  0  0  0  0  0  0  0  0  0
    6.5260    0.0470   18.7820 C   0  0  0  0  0  0  0  0  0  0  0  0
    5.8840    0.9860   18.0280 C   0  0  0  0  0  0  0  0  0  0  0  0
   11.9750   -1.2760   23.0280 C   0  0  0  0  0  0  0  0  0  0  0  0
   13.3800   -1.3170   23.3300 C   0  0  0  0  0  0  0  0  0  0  0  0
   13.3970   -2.3360   24.2890 C   0  0  0  0  0  0  0  0  0  0  0  0
   12.4200   -3.0830   24.8160 C   0  0  0  0  0  0  0  0  0  0  0  0
   11.1620   -2.9240   24.4270 C   0  0  0  0  0  0  0  0  0  0  0  0
   10.8750   -1.9920   23.4950 C   0  0  0  0  0  0  0  0  0  0  0  0
    4.2310    0.3650   21.7620 C   0  0  0  0  0  0  0  0  0  0  0  0
    3.1090    1.1160   22.1120 C   0  0  0  0  0  0  0  0  0  0  0  0
    2.5870    2.0370   21.2130 C   0  0  0  0  0  0  0  0  0  0  0  0
    3.1920    2.1950   19.9680 C   0  0  0  0  0  0  0  0  0  0  0  0
   12.1230    1.8860   22.7760 C   0  0  0  0  0  0  0  0  0  0  0  0
   13.0250   -0.3130   22.3270 C   0  0  0  0  0  0  0  0  0  0  0  0
   13.2240    0.8730   22.9810 C   0  0  0  0  0  0  0  0  0  0  0  0
  1  2  2  0
  1  5  1  0
  5  4  1  6
  5  6  1  0
  6  7  1  0
  7  8  1  0
  8  9  1  0
  5 10  1  0
  9 10  1  0
 11 12  2  0
 12 13  1  0
  1 14  1  0
 13 14  2  0
 14 15  1  0
  3 16  1  0
 11 16  1  0
 15 16  2  0
 17 18  2  0
 18 19  1  0
 19 20  2  0
 20 21  1  0
  7 22  1  0
 17 22  1  0
 21 22  2  0
 13 23  1  0
 23 24  2  0
 24 25  1  0
 12 26  1  0
 25 26  2  0
 18 28  1  0
 27 29  1  0
 28 29  1  0
M  END
