x3305-x0195
     RDKit          3D

 35 39  0  0  0  0  0  0  0  0999 V2000
    3.4770   -7.0240   23.7300 C   0  0  0  0  0  0  0  0  0  0  0  0
    5.8780   -2.7630   21.3740 O   0  0  0  0  0  0  0  0  0  0  0  0
    6.7090   -2.3360   23.4720 N   0  0  0  0  0  0  0  0  0  0  0  0
    7.3850   -1.0300   21.5490 N   0  0  0  0  0  0  0  0  0  0  0  0
    7.2240   -3.5710   24.0070 C   0  0  0  0  0  0  0  0  0  0  0  0
    6.6240   -2.0670   22.0670 C   0  0  0  0  0  0  0  0  0  0  0  0
    8.3240   -0.5080   22.1000 C   0  0  0  0  0  0  0  0  0  0  0  0
    9.5540   -0.9640   21.6420 C   0  0  0  0  0  0  0  0  0  0  0  0
    7.2610   -1.0440   20.0870 C   0  0  0  0  0  0  0  0  0  0  0  0
   10.0290    4.2990   23.6330 S   0  0  0  0  0  0  0  0  0  0  0  0
    9.5640    4.5460   24.9630 O   0  0  0  0  0  0  0  0  0  0  0  0
    9.1570    4.5630   22.5270 O   0  0  0  0  0  0  0  0  0  0  0  0
   11.3350    5.3460   23.4280 N   0  0  0  0  0  0  0  0  0  0  0  0
    4.6780   -6.2500   23.5580 N   0  0  0  0  0  0  0  0  0  0  0  0
    5.0740   -5.1350   24.1570 C   0  0  0  0  0  0  0  0  0  0  0  0
    6.3090   -4.7450   23.6740 C   0  0  0  0  0  0  0  0  0  0  0  0
    6.6330   -5.7000   22.7340 N   0  0  0  0  0  0  0  0  0  0  0  0
    5.6350   -6.6050   22.6730 N   0  0  0  0  0  0  0  0  0  0  0  0
    5.9590    1.4080   17.6710 N   0  0  0  0  0  0  0  0  0  0  0  0
    6.7190    0.5030   18.3400 C   0  0  0  0  0  0  0  0  0  0  0  0
    6.3850   -0.1270   19.5300 C   0  0  0  0  0  0  0  0  0  0  0  0
    5.1510    0.2240   20.0770 C   0  0  0  0  0  0  0  0  0  0  0  0
    4.3530    1.1540   19.4210 C   0  0  0  0  0  0  0  0  0  0  0  0
    4.7930    1.7130   18.2370 C   0  0  0  0  0  0  0  0  0  0  0  0
   11.5600    0.6980   22.7750 C   0  0  1  0  0  0  0  0  0  0  0  0
   11.7880    0.6090   24.0680 C   0  0  0  0  0  0  0  0  0  0  0  0
   12.8970    0.1590   23.3600 C   0  0  1  0  0  0  0  0  0  0  0  0
   13.1020   -1.2410   22.7670 C   0  0  0  0  0  0  0  0  0  0  0  0
   11.9330   -1.6200   22.2530 C   0  0  0  0  0  0  0  0  0  0  0  0
   10.9170   -0.5290   22.2220 C   0  0  0  0  0  0  0  0  0  0  0  0
   11.4900    2.1390   22.5470 C   0  0  0  0  0  0  0  0  0  0  0  0
   10.5770    2.6020   23.3970 C   0  0  0  0  0  0  0  0  0  0  0  0
   10.3170    1.1710   23.9010 C   0  0  2  0  0  0  0  0  0  0  0  0
    9.7280   -0.3290   25.6520 C   0  0  0  0  0  0  0  0  0  0  0  0
    9.4050    0.8700   25.0490 C   0  0  0  0  0  0  0  0  0  0  0  0
  3  5  1  0
  2  6  2  0
  3  6  1  0
  4  6  1  0
  4  7  1  0
  7  8  1  0
  4  9  1  0
 10 11  2  0
 10 12  2  0
 10 13  1  0
  1 14  1  0
 14 15  1  0
  5 16  1  0
 15 16  2  0
 16 17  1  0
 14 18  1  0
 17 18  2  0
 19 20  2  0
  9 21  1  0
 20 21  1  0
 21 22  2  0
 22 23  1  0
 19 24  1  0
 23 24  2  0
 25 26  1  0
 25 27  1  0
 26 27  1  0
 27 28  1  1
 28 29  1  0
  8 30  1  0
 25 30  1  0
 29 30  2  0
 25 31  1  6
 10 32  1  0
 31 32  2  0
 26 33  1  0
 32 33  1  0
 33 35  1  1
 34 35  1  0
M  END
