x3303-x1077
     RDKit          3D

 34 38  0  0  0  0  0  0  0  0999 V2000
    6.1200   -1.6680   20.9640 C   0  0  0  0  0  0  0  0  0  0  0  0
    5.3740   -2.6480   20.9130 O   0  0  0  0  0  0  0  0  0  0  0  0
    6.5390    1.1960   17.0360 O   0  0  0  0  0  0  0  0  0  0  0  0
   10.0090    0.8590   22.0480 N   0  0  0  0  0  0  0  0  0  0  0  0
    8.3700   -0.7930   21.3550 C   0  0  0  0  0  0  0  0  0  0  0  0
    9.0290   -0.0830   22.5330 C   0  0  1  0  0  0  0  0  0  0  0  0
    9.4480   -1.0730   23.5200 N   0  0  0  0  0  0  0  0  0  0  0  0
    8.5070   -2.2260   23.7280 C   0  0  1  0  0  0  0  0  0  0  0  0
    7.5400   -2.4260   22.5840 C   0  0  0  0  0  0  0  0  0  0  0  0
    7.2730   -1.6500   21.7470 N   0  0  0  0  0  0  0  0  0  0  0  0
    5.0030    1.7470   18.5400 N   0  0  0  0  0  0  0  0  0  0  0  0
    4.3760    1.5460   19.6820 C   0  0  0  0  0  0  0  0  0  0  0  0
    4.7040    0.3690   20.6100 C   0  0  0  0  0  0  0  0  0  0  0  0
    5.7230   -0.4840   20.1500 C   0  0  0  0  0  0  0  0  0  0  0  0
    6.3800   -0.2580   18.9410 C   0  0  0  0  0  0  0  0  0  0  0  0
    5.9750    0.8640   18.2020 C   0  0  0  0  0  0  0  0  0  0  0  0
   11.7760   -1.2720   22.5420 C   0  0  0  0  0  0  0  0  0  0  0  0
   13.0730   -1.7240   22.7200 C   0  0  0  0  0  0  0  0  0  0  0  0
   13.4130   -2.3710   23.9040 C   0  0  0  0  0  0  0  0  0  0  0  0
   12.5080   -2.5660   24.8940 C   0  0  0  0  0  0  0  0  0  0  0  0
   11.1900   -2.1510   24.8200 C   0  0  0  0  0  0  0  0  0  0  0  0
   10.7950   -1.4960   23.6340 C   0  0  0  0  0  0  0  0  0  0  0  0
    3.9530    0.1960   21.9010 C   0  0  0  0  0  0  0  0  0  0  0  0
    2.9550    1.1040   22.2610 C   0  0  0  0  0  0  0  0  0  0  0  0
    2.6400    2.2770   21.3160 C   0  0  0  0  0  0  0  0  0  0  0  0
    3.3880    2.4430   20.0380 C   0  0  0  0  0  0  0  0  0  0  0  0
    6.9500   -5.5100   25.3550 O   0  0  0  0  0  0  0  0  0  0  0  0
    7.0570   -5.5570   23.9330 C   0  0  0  0  0  0  0  0  0  0  0  0
    8.3720   -5.8780   23.6990 C   0  0  0  0  0  0  0  0  0  0  0  0
    9.2980   -5.6350   24.8890 C   0  0  0  0  0  0  0  0  0  0  0  0
    9.3630   -4.2240   25.2000 N   0  0  0  0  0  0  0  0  0  0  0  0
    8.4760   -3.8260   26.1380 C   0  0  0  0  0  0  0  0  0  0  0  0
    7.1620   -4.2750   25.8700 C   0  0  0  0  0  0  0  0  0  0  0  0
    9.3690   -3.5090   23.8930 C   0  0  0  0  0  0  0  0  0  0  0  0
  1  2  2  0
  6  4  1  6
  5  6  1  0
  6  7  1  0
  7  8  1  0
  8  9  1  0
  1 10  1  0
  5 10  1  0
  9 10  1  0
 11 12  2  0
 12 13  1  0
  1 14  1  0
 13 14  2  0
 14 15  1  0
  3 16  1  0
 11 16  1  0
 15 16  2  0
 17 18  2  0
 18 19  1  0
 19 20  2  0
 20 21  1  0
  7 22  1  0
 17 22  1  0
 21 22  2  0
 13 23  1  0
 23 24  2  0
 24 25  1  0
 12 26  1  0
 25 26  2  0
 27 28  1  0
 28 29  1  0
 29 30  1  0
 30 31  1  0
 31 32  1  0
 27 33  1  0
 32 33  1  0
  8 34  1  6
 31 34  1  0
M  END
