x3303-x1493
     RDKit          3D

 38 42  0  0  0  0  0  0  0  0999 V2000
    4.7760   -6.3200   26.2560 C   0  0  0  0  0  0  0  0  0  0  0  0
    7.0320   -5.4050   26.6850 O   0  0  0  0  0  0  0  0  0  0  0  0
    6.0320   -5.6500   25.6960 C   0  0  0  0  0  0  0  0  0  0  0  0
    5.6760   -4.1290   19.6640 O   0  0  0  0  0  0  0  0  0  0  0  0
    6.6430   -4.0760   20.4090 C   0  0  0  0  0  0  0  0  0  0  0  0
    7.9560   -3.3960   19.9860 C   0  0  0  0  0  0  0  0  0  0  0  0
    6.2450   -1.5030   21.2940 C   0  0  0  0  0  0  0  0  0  0  0  0
    5.3730   -2.4290   21.5370 N   0  0  0  0  0  0  0  0  0  0  0  0
    6.6020    1.1700   17.0640 O   0  0  0  0  0  0  0  0  0  0  0  0
    5.5880   -3.4940   22.4580 C   0  0  0  0  0  0  0  0  0  0  0  0
    6.1540   -5.3380   24.2700 N   0  0  0  0  0  0  0  0  0  0  0  0
    7.5200   -4.9410   23.8810 C   0  0  0  0  0  0  0  0  0  0  0  0
    7.6190   -4.8330   22.4860 C   0  0  0  0  0  0  0  0  0  0  0  0
    6.4350   -4.6060   21.8190 C   0  0  0  0  0  0  0  0  0  0  0  0
    5.6810   -5.7240   21.8080 C   0  0  0  0  0  0  0  0  0  0  0  0
    5.2940   -6.0650   23.2390 C   0  0  0  0  0  0  0  0  0  0  0  0
    8.6130   -0.5930   21.3530 C   0  0  0  0  0  0  0  0  0  0  0  0
    9.3100   -0.0430   22.4270 C   0  0  0  0  0  0  0  0  0  0  0  0
    9.5960   -0.9930   23.5420 N   0  0  0  0  0  0  0  0  0  0  0  0
    8.5000   -1.8590   23.9480 C   0  0  0  0  0  0  0  0  0  0  0  0
    7.9110   -2.4200   22.8290 C   0  0  0  0  0  0  0  0  0  0  0  0
    7.5070   -1.4070   21.8690 N   0  0  0  0  0  0  0  0  0  0  0  0
    5.0150    1.7320   18.4870 N   0  0  0  0  0  0  0  0  0  0  0  0
    4.3720    1.5580   19.6340 C   0  0  0  0  0  0  0  0  0  0  0  0
    4.7430    0.4670   20.6360 C   0  0  0  0  0  0  0  0  0  0  0  0
    5.8070   -0.3650   20.2940 C   0  0  0  0  0  0  0  0  0  0  0  0
    6.4500   -0.1440   19.0750 C   0  0  0  0  0  0  0  0  0  0  0  0
    6.0220    0.8950   18.2360 C   0  0  0  0  0  0  0  0  0  0  0  0
   11.8600   -1.2370   22.6730 C   0  0  0  0  0  0  0  0  0  0  0  0
   13.1540   -1.7420   22.8140 C   0  0  0  0  0  0  0  0  0  0  0  0
   13.4800   -2.4880   23.9380 C   0  0  0  0  0  0  0  0  0  0  0  0
   12.5470   -2.7220   24.8960 C   0  0  0  0  0  0  0  0  0  0  0  0
   11.2610   -2.2240   24.7610 C   0  0  0  0  0  0  0  0  0  0  0  0
   10.8980   -1.4700   23.6380 C   0  0  0  0  0  0  0  0  0  0  0  0
    3.9990    0.3720   21.8300 C   0  0  0  0  0  0  0  0  0  0  0  0
    2.9510    1.2520   22.0840 C   0  0  0  0  0  0  0  0  0  0  0  0
    2.6210    2.2480   21.1520 C   0  0  0  0  0  0  0  0  0  0  0  0
    3.3220    2.3990   19.9430 C   0  0  0  0  0  0  0  0  0  0  0  0
  1  3  1  0
  2  3  2  0
  4  5  2  0
  5  6  1  0
  7  8  2  3
  8 10  1  0
  3 11  1  0
 11 12  1  0
 12 13  1  0
 14  5  1  0
 10 14  1  0
 13 14  1  0
 14 15  1  0
 11 16  1  0
 15 16  1  0
 17 18  1  0
 18 19  1  0
 19 20  1  0
 20 21  1  0
  7 22  1  0
 17 22  1  0
 21 22  1  0
 23 24  2  0
 24 25  1  0
  7 26  1  0
 25 26  2  0
 26 27  1  0
  9 28  1  0
 23 28  1  0
 27 28  2  0
 29 30  2  0
 30 31  1  0
 31 32  2  0
 32 33  1  0
 19 34  1  0
 29 34  1  0
 33 34  2  0
 25 35  1  0
 35 36  2  0
 36 37  1  0
 24 38  1  0
 37 38  2  0
M  END
