x3303-x0689
     RDKit          3D

 43 48  0  0  0  0  0  0  0  0999 V2000
    7.1260   -3.5120   19.8250 C   0  0  0  0  0  0  0  0  0  0  0  0
    5.4460   -5.2660   19.9510 O   0  0  0  0  0  0  0  0  0  0  0  0
    6.2130   -4.5460   20.5340 C   0  0  0  0  0  0  0  0  0  0  0  0
    3.9770   -6.4480   26.0210 O   0  0  0  0  0  0  0  0  0  0  0  0
    5.7480   -4.4320   26.8160 O   0  0  0  0  0  0  0  0  0  0  0  0
    4.6960   -5.0410   25.7850 S   0  0  0  0  0  0  0  0  0  0  0  0
    6.2930   -1.3680   21.1340 C   0  0  0  0  0  0  0  0  0  0  0  0
    5.2360   -2.3490   21.4910 N   0  0  0  0  0  0  0  0  0  0  0  0
    6.3940    1.1750   16.8080 O   0  0  0  0  0  0  0  0  0  0  0  0
    5.5350   -3.3950   22.4780 C   0  0  0  0  0  0  0  0  0  0  0  0
    6.1120   -4.6990   22.0300 C   0  0  0  0  0  0  0  0  0  0  0  0
    5.4690   -5.8950   22.1660 C   0  0  0  0  0  0  0  0  0  0  0  0
    4.8790   -6.1440   23.5120 C   0  0  0  0  0  0  0  0  0  0  0  0
    5.3840   -5.1240   24.2650 N   0  0  0  0  0  0  0  0  0  0  0  0
    6.7820   -4.9710   24.1870 C   0  0  0  0  0  0  0  0  0  0  0  0
    7.3240   -5.0830   22.8870 C   0  0  0  0  0  0  0  0  0  0  0  0
    3.7340   -2.2630   26.3030 S   0  0  0  0  0  0  0  0  0  0  0  0
    3.3690   -3.8590   25.7650 C   0  0  0  0  0  0  0  0  0  0  0  0
    2.0270   -3.9430   25.3950 C   0  0  0  0  0  0  0  0  0  0  0  0
    1.3330   -2.7640   25.5490 C   0  0  0  0  0  0  0  0  0  0  0  0
    2.1230   -1.7150   26.0470 C   0  0  0  0  0  0  0  0  0  0  0  0
    8.7500   -0.4440   21.4540 C   0  0  0  0  0  0  0  0  0  0  0  0
    9.3270    0.0110   22.6470 C   0  0  0  0  0  0  0  0  0  0  0  0
    9.5840   -0.9570   23.5250 N   0  0  0  0  0  0  0  0  0  0  0  0
    8.5170   -1.9190   23.8030 C   0  0  0  0  0  0  0  0  0  0  0  0
    8.0650   -2.5150   22.4820 C   0  0  0  0  0  0  0  0  0  0  0  0
    7.6510   -1.3870   21.6770 N   0  0  0  0  0  0  0  0  0  0  0  0
    5.0540    1.8360   18.3600 N   0  0  0  0  0  0  0  0  0  0  0  0
    4.4320    1.8160   19.6540 C   0  0  0  0  0  0  0  0  0  0  0  0
    4.8760    0.7170   20.6000 C   0  0  0  0  0  0  0  0  0  0  0  0
    5.8940   -0.2940   20.1870 C   0  0  0  0  0  0  0  0  0  0  0  0
    6.4530   -0.1430   18.8070 C   0  0  0  0  0  0  0  0  0  0  0  0
    5.9660    0.9260   18.0370 C   0  0  0  0  0  0  0  0  0  0  0  0
   11.6400   -1.5020   22.3670 C   0  0  0  0  0  0  0  0  0  0  0  0
   13.0560   -2.0640   22.3680 C   0  0  0  0  0  0  0  0  0  0  0  0
   13.5990   -2.5460   23.5560 C   0  0  0  0  0  0  0  0  0  0  0  0
   12.8600   -2.4950   24.7110 C   0  0  0  0  0  0  0  0  0  0  0  0
   11.4580   -1.9290   24.6860 C   0  0  0  0  0  0  0  0  0  0  0  0
   10.8780   -1.4540   23.5350 C   0  0  0  0  0  0  0  0  0  0  0  0
    4.2790    0.7220   21.8580 C   0  0  0  0  0  0  0  0  0  0  0  0
    3.3220    1.6930   22.1890 C   0  0  0  0  0  0  0  0  0  0  0  0
    2.9230    2.6890   21.2860 C   0  0  0  0  0  0  0  0  0  0  0  0
    3.4850    2.7410   20.0260 C   0  0  0  0  0  0  0  0  0  0  0  0
  1  3  1  0
  2  3  2  0
  4  6  2  0
  5  6  2  0
  7  8  2  3
  8 10  1  0
 11  3  1  0
 10 11  1  0
 11 12  1  0
 12 13  1  0
  6 14  1  0
 13 14  1  0
 14 15  1  0
 11 16  1  0
 15 16  1  0
  6 18  1  0
 17 18  1  0
 18 19  2  0
 19 20  1  0
 17 21  1  0
 20 21  2  0
 22 23  1  0
 23 24  1  0
 24 25  1  0
 25 26  1  0
  7 27  1  0
 22 27  1  0
 26 27  1  0
 28 29  2  0
 29 30  1  0
  7 31  1  0
 30 31  2  0
 31 32  1  0
  9 33  1  0
 28 33  1  0
 32 33  2  0
 34 35  2  0
 35 36  1  0
 36 37  2  0
 37 38  1  0
 24 39  1  0
 34 39  1  0
 38 39  2  0
 30 40  1  0
 40 41  2  0
 41 42  1  0
 29 43  1  0
 42 43  2  0
M  END
