x3305-x1308
     RDKit          3D

 37 40  0  0  0  0  0  0  0  0999 V2000
    3.6740   -7.4790   24.3050 C   0  0  0  0  0  0  0  0  0  0  0  0
    5.8610   -3.6440   20.4790 C   0  0  0  0  0  0  0  0  0  0  0  0
    7.8800   -3.8540   21.9090 N   0  0  0  0  0  0  0  0  0  0  0  0
    7.3880   -1.8640   20.6800 N   0  0  0  0  0  0  0  0  0  0  0  0
    7.0790   -3.7260   23.1190 C   0  0  0  0  0  0  0  0  0  0  0  0
    7.3710   -3.3820   20.5990 C   0  0  2  0  0  0  0  0  0  0  0  0
    8.3470   -1.1900   21.4580 C   0  0  0  0  0  0  0  0  0  0  0  0
    9.3880   -2.0060   21.9370 C   0  0  0  0  0  0  0  0  0  0  0  0
    7.1660   -1.1800   19.3710 C   0  0  0  0  0  0  0  0  0  0  0  0
    5.3010   -4.5660   19.9050 O   0  0  0  0  0  0  0  0  0  0  0  0
    0.5010   -1.1260   26.4440 Cl  0  0  0  0  0  0  0  0  0  0  0  0
    6.5420   -4.7070   26.3450 O   0  0  0  0  0  0  0  0  0  0  0  0
    4.7860   -6.5400   26.4770 O   0  0  0  0  0  0  0  0  0  0  0  0
    5.2780   -5.2840   25.9460 S   0  0  0  0  0  0  0  0  0  0  0  0
    4.6080   -6.5570   23.6720 N   0  0  0  0  0  0  0  0  0  0  0  0
    5.3630   -5.5520   24.2300 C   0  0  0  0  0  0  0  0  0  0  0  0
    6.1200   -4.8960   23.1100 C   0  0  0  0  0  0  0  0  0  0  0  0
    5.7660   -5.5900   21.9900 N   0  0  0  0  0  0  0  0  0  0  0  0
    4.8540   -6.5880   22.3430 N   0  0  0  0  0  0  0  0  0  0  0  0
    5.5070    1.6780   17.8260 N   0  0  0  0  0  0  0  0  0  0  0  0
    6.4300    0.6320   18.1860 C   0  0  0  0  0  0  0  0  0  0  0  0
    6.1990   -0.2160   19.2310 C   0  0  0  0  0  0  0  0  0  0  0  0
    5.0580   -0.0440   19.9960 C   0  0  0  0  0  0  0  0  0  0  0  0
    4.1460    0.9720   19.7060 C   0  0  0  0  0  0  0  0  0  0  0  0
    4.3170    1.8620   18.6290 C   0  0  0  0  0  0  0  0  0  0  0  0
   10.5990    0.2490   22.8330 C   0  0  0  0  0  0  0  0  0  0  0  0
   11.7690    0.9660   23.1080 C   0  0  0  0  0  0  0  0  0  0  0  0
   13.1170    0.3260   22.8580 C   0  0  0  0  0  0  0  0  0  0  0  0
   13.1730   -0.9510   22.3630 C   0  0  0  0  0  0  0  0  0  0  0  0
   11.8960   -1.6880   22.0720 C   0  0  0  0  0  0  0  0  0  0  0  0
   10.6120   -1.1920   22.2650 C   0  0  0  0  0  0  0  0  0  0  0  0
    4.2520   -2.8250   26.4480 C   0  0  0  0  0  0  0  0  0  0  0  0
    3.1050   -1.8210   26.5640 C   0  0  0  0  0  0  0  0  0  0  0  0
    1.7980   -2.2400   26.3070 C   0  0  0  0  0  0  0  0  0  0  0  0
    1.5420   -3.5780   25.9400 C   0  0  0  0  0  0  0  0  0  0  0  0
    2.5840   -4.4760   25.8380 C   0  0  0  0  0  0  0  0  0  0  0  0
    4.0440   -4.1440   26.0940 C   0  0  0  0  0  0  0  0  0  0  0  0
  3  5  1  0
  6  2  1  1
  3  6  1  0
  4  6  1  0
  4  7  1  0
  7  8  1  0
  4  9  1  0
  2 10  2  0
 12 14  2  0
 13 14  2  0
  1 15  1  0
 14 16  1  0
 15 16  1  0
  5 17  1  0
 16 17  2  0
 17 18  1  0
 15 19  1  0
 18 19  2  0
 20 21  2  0
  9 22  1  0
 21 22  1  0
 22 23  2  0
 23 24  1  0
 20 25  1  0
 24 25  2  0
 26 27  2  0
 27 28  1  0
 28 29  2  0
 29 30  1  0
  8 31  1  0
 26 31  1  0
 30 31  2  0
 32 33  2  0
 11 34  1  0
 33 34  1  0
 34 35  2  0
 35 36  1  0
 14 37  1  0
 32 37  1  0
 36 37  2  0
M  END
