x3305-x0387
     RDKit          3D

 34 37  0  0  0  0  0  0  0  0999 V2000
    3.2870   -7.2240   23.7100 C   0  0  0  0  0  0  0  0  0  0  0  0
    5.7070   -3.1570   20.8910 O   0  0  0  0  0  0  0  0  0  0  0  0
    6.2720   -2.3160   22.9480 N   0  0  0  0  0  0  0  0  0  0  0  0
    7.4180   -1.6290   20.9560 N   0  0  0  0  0  0  0  0  0  0  0  0
    6.7450   -3.3640   23.8060 C   0  0  0  0  0  0  0  0  0  0  0  0
    6.4400   -2.4050   21.5320 C   0  0  0  0  0  0  0  0  0  0  0  0
    8.4280   -1.3110   21.4600 C   0  0  0  0  0  0  0  0  0  0  0  0
    9.3330   -2.3350   21.8120 C   0  0  0  0  0  0  0  0  0  0  0  0
    7.1890   -1.3320   19.5530 C   0  0  0  0  0  0  0  0  0  0  0  0
    9.0690   -4.3950   27.6860 O   0  0  0  0  0  0  0  0  0  0  0  0
    9.1850   -0.9940   24.5430 C   0  0  0  0  0  0  0  0  0  0  0  0
    4.4290   -6.3380   23.5240 N   0  0  0  0  0  0  0  0  0  0  0  0
    4.6680   -5.0940   24.0640 C   0  0  0  0  0  0  0  0  0  0  0  0
    5.9890   -4.6090   23.5560 C   0  0  0  0  0  0  0  0  0  0  0  0
    6.4340   -5.6290   22.7350 N   0  0  0  0  0  0  0  0  0  0  0  0
    5.4840   -6.6640   22.7250 N   0  0  0  0  0  0  0  0  0  0  0  0
    5.6960    1.5770   17.6820 N   0  0  0  0  0  0  0  0  0  0  0  0
    6.5340    0.5070   18.1730 C   0  0  0  0  0  0  0  0  0  0  0  0
    6.2140   -0.2560   19.2570 C   0  0  0  0  0  0  0  0  0  0  0  0
    5.0400    0.0270   19.9480 C   0  0  0  0  0  0  0  0  0  0  0  0
    4.2140    1.0620   19.5310 C   0  0  0  0  0  0  0  0  0  0  0  0
    4.4820    1.8610   18.4180 C   0  0  0  0  0  0  0  0  0  0  0  0
   10.4310   -0.9630   23.7580 C   0  0  0  0  0  0  0  0  0  0  0  0
   11.5780   -0.3080   24.2260 C   0  0  0  0  0  0  0  0  0  0  0  0
   12.8730   -0.2790   23.4440 C   0  0  0  0  0  0  0  0  0  0  0  0
   12.9790   -0.9030   22.2510 C   0  0  0  0  0  0  0  0  0  0  0  0
   11.7660   -1.6140   21.7080 C   0  0  0  0  0  0  0  0  0  0  0  0
   10.5400   -1.6530   22.3830 C   0  0  0  0  0  0  0  0  0  0  0  0
    9.1350   -4.5970   26.2730 C   0  0  1  0  0  0  0  0  0  0  0  0
    8.3420   -3.5050   25.5090 C   0  0  0  0  0  0  0  0  0  0  0  0
    8.9930   -2.2600   25.4590 C   0  0  1  0  0  0  0  0  0  0  0  0
    9.7940   -2.9140   24.4550 N   0  0  0  0  0  0  0  0  0  0  0  0
   10.9280   -3.5740   25.0560 C   0  0  0  0  0  0  0  0  0  0  0  0
   10.5900   -4.6510   25.8540 C   0  0  0  0  0  0  0  0  0  0  0  0
  3  5  1  0
  2  6  2  0
  3  6  1  0
  4  6  1  0
  4  7  1  0
  7  8  1  0
  4  9  1  0
  1 12  1  0
 12 13  1  0
  5 14  1  0
 13 14  2  0
 14 15  1  0
 12 16  1  0
 15 16  2  0
 17 18  2  0
  9 19  1  0
 18 19  1  0
 19 20  2  0
 20 21  1  0
 17 22  1  0
 21 22  2  0
 11 23  1  0
 23 24  2  0
 24 25  1  0
 25 26  2  0
 26 27  1  0
  8 28  1  0
 23 28  1  0
 27 28  2  0
 29 10  1  1
 29 30  1  0
 31 11  1  6
 30 31  1  0
 31 32  1  0
 32 33  1  0
 29 34  1  0
 33 34  1  0
M  END
