x3305-x2572
     RDKit          3D

 30 32  0  0  0  0  0  0  0  0999 V2000
    3.3260   -7.2410   23.7570 C   0  0  0  0  0  0  0  0  0  0  0  0
    5.7500   -2.9090   21.3100 O   0  0  0  0  0  0  0  0  0  0  0  0
    7.3110   -2.8270   23.0060 N   0  0  0  0  0  0  0  0  0  0  0  0
    7.3100   -1.2300   21.1960 N   0  0  0  0  0  0  0  0  0  0  0  0
    6.5200   -3.2860   24.1130 C   0  0  0  0  0  0  0  0  0  0  0  0
    6.7310   -2.3350   21.7890 C   0  0  0  0  0  0  0  0  0  0  0  0
    8.2420   -0.6510   21.6140 C   0  0  0  0  0  0  0  0  0  0  0  0
    8.9990   -1.3710   22.5360 C   0  0  0  0  0  0  0  0  0  0  0  0
    6.9980   -1.1260   19.7880 C   0  0  0  0  0  0  0  0  0  0  0  0
    5.1430    0.4470   21.7050 C   0  0  0  0  0  0  0  0  0  0  0  0
    8.5740    0.6850   21.2310 O   0  0  0  0  0  0  0  0  0  0  0  0
   13.8280   -3.4470   20.5070 N   0  0  0  0  0  0  0  0  0  0  0  0
   13.3490   -2.3590   21.2330 C   0  0  0  0  0  0  0  0  0  0  0  0
    4.4570   -6.3670   23.6040 N   0  0  0  0  0  0  0  0  0  0  0  0
    4.7030   -5.0820   24.1460 C   0  0  0  0  0  0  0  0  0  0  0  0
    5.9120   -4.6130   23.7400 C   0  0  0  0  0  0  0  0  0  0  0  0
    6.4390   -5.6100   22.9300 N   0  0  0  0  0  0  0  0  0  0  0  0
    5.5580   -6.6550   22.8560 N   0  0  0  0  0  0  0  0  0  0  0  0
    5.5370    1.3940   17.5050 N   0  0  0  0  0  0  0  0  0  0  0  0
    6.1900    0.4100   18.1290 C   0  0  0  0  0  0  0  0  0  0  0  0
    6.1410    0.0270   19.4240 C   0  0  0  0  0  0  0  0  0  0  0  0
    5.2960    0.7490   20.2550 C   0  0  0  0  0  0  0  0  0  0  0  0
    4.5730    1.7980   19.6730 C   0  0  0  0  0  0  0  0  0  0  0  0
    4.7180    2.0820   18.3190 C   0  0  0  0  0  0  0  0  0  0  0  0
   10.7450    0.3120   23.1320 C   0  0  0  0  0  0  0  0  0  0  0  0
   12.2230    0.7650   23.1230 C   0  0  0  0  0  0  0  0  0  0  0  0
   13.1440   -0.0600   22.5290 C   0  0  0  0  0  0  0  0  0  0  0  0
   12.6590   -1.3640   21.9100 C   0  0  0  0  0  0  0  0  0  0  0  0
   11.3550   -1.6590   21.9780 C   0  0  0  0  0  0  0  0  0  0  0  0
   10.4090   -0.9080   22.5420 C   0  0  0  0  0  0  0  0  0  0  0  0
  3  5  1  0
  2  6  2  0
  3  6  1  0
  4  6  1  0
  4  7  1  0
  7  8  1  0
  4  9  1  0
  7 11  2  0
 12 13  3  0
  1 14  1  0
 14 15  1  0
  5 16  1  0
 15 16  2  0
 16 17  1  0
 14 18  1  0
 17 18  2  0
 19 20  2  0
  9 21  1  0
 20 21  1  0
 10 22  1  0
 21 22  2  0
 22 23  1  0
 19 24  1  0
 23 24  2  0
 25 26  2  0
 26 27  1  0
 13 28  1  0
 27 28  2  0
 28 29  1  0
  8 30  1  0
 25 30  1  0
 29 30  2  0
M  END
