x3305-x0072
     RDKit          3D

 31 34  0  0  0  0  0  0  0  0999 V2000
    3.7540   -6.8870   23.5810 C   0  0  0  0  0  0  0  0  0  0  0  0
    5.4440   -2.7480   21.5120 O   0  0  0  0  0  0  0  0  0  0  0  0
    6.6140   -2.3140   23.4840 N   0  0  0  0  0  0  0  0  0  0  0  0
    7.2360   -1.3280   21.4450 N   0  0  0  0  0  0  0  0  0  0  0  0
    7.5240   -3.3710   23.7710 C   0  0  2  0  0  0  0  0  0  0  0  0
    6.3630   -2.1530   22.0740 C   0  0  0  0  0  0  0  0  0  0  0  0
    8.2380   -1.0240   21.9460 C   0  0  0  0  0  0  0  0  0  0  0  0
    9.1180   -2.0990   22.2130 C   0  0  2  0  0  0  0  0  0  0  0  0
    7.1060   -1.2950   19.9920 C   0  0  0  0  0  0  0  0  0  0  0  0
    6.3150   -4.6360   26.2850 C   0  0  0  0  0  0  0  0  0  0  0  0
    7.8180   -3.9050   25.6720 S   0  0  0  0  0  0  0  0  0  0  0  0
    8.7730   -4.9970   25.7090 O   0  0  0  0  0  0  0  0  0  0  0  0
    8.0380   -2.7530   26.5080 O   0  0  0  0  0  0  0  0  0  0  0  0
    9.0050   -2.8770   23.5790 C   0  0  0  0  0  0  0  0  0  0  0  0
    5.0130   -6.1800   23.3460 N   0  0  0  0  0  0  0  0  0  0  0  0
    5.5350   -4.9520   23.8260 C   0  0  0  0  0  0  0  0  0  0  0  0
    6.7770   -4.6590   23.3550 C   0  0  0  0  0  0  0  0  0  0  0  0
    7.1260   -5.6770   22.5360 N   0  0  0  0  0  0  0  0  0  0  0  0
    6.0320   -6.6240   22.5300 N   0  0  0  0  0  0  0  0  0  0  0  0
    5.9090    1.4170   17.6490 N   0  0  0  0  0  0  0  0  0  0  0  0
    6.5900    0.4410   18.2920 C   0  0  0  0  0  0  0  0  0  0  0  0
    6.2370   -0.2240   19.4560 C   0  0  0  0  0  0  0  0  0  0  0  0
    5.0440    0.1940   20.0230 C   0  0  0  0  0  0  0  0  0  0  0  0
    4.3130    1.1980   19.4170 C   0  0  0  0  0  0  0  0  0  0  0  0
    4.7650    1.7780   18.2480 C   0  0  0  0  0  0  0  0  0  0  0  0
   10.4820   -0.0600   22.8990 C   0  0  0  0  0  0  0  0  0  0  0  0
   11.7810    0.7640   23.0900 C   0  0  0  0  0  0  0  0  0  0  0  0
   12.9900    0.2240   22.7370 C   0  0  0  0  0  0  0  0  0  0  0  0
   12.9460   -1.1720   22.1630 C   0  0  0  0  0  0  0  0  0  0  0  0
   11.7470   -1.8740   22.0020 C   0  0  0  0  0  0  0  0  0  0  0  0
   10.4940   -1.3750   22.3550 C   0  0  0  0  0  0  0  0  0  0  0  0
  3  5  1  0
  2  6  2  0
  3  6  1  0
  4  6  1  0
  4  7  1  0
  7  8  1  0
  4  9  1  0
  5 11  1  1
 11 10  1  0
 11 12  2  0
 11 13  2  0
  5 14  1  0
  8 14  1  0
  1 15  1  0
 15 16  1  0
  5 17  1  0
 16 17  2  0
 17 18  1  0
 15 19  1  0
 18 19  2  0
 20 21  2  0
  9 22  1  0
 21 22  1  0
 22 23  2  0
 23 24  1  0
 20 25  1  0
 24 25  2  0
 26 27  2  0
 27 28  1  0
 28 29  2  0
 29 30  1  0
  8 31  1  1
 26 31  1  0
 30 31  2  0
M  END
