x3303-x0691
     RDKit          3D

 45 51  0  0  0  0  0  0  0  0999 V2000
    3.9420   -6.8630   26.0400 O   0  0  0  0  0  0  0  0  0  0  0  0
    5.6430   -5.2680   26.9780 O   0  0  0  0  0  0  0  0  0  0  0  0
    5.4710   -4.9380   19.9430 O   0  0  0  0  0  0  0  0  0  0  0  0
    6.2330   -4.4570   20.7530 C   0  0  0  0  0  0  0  0  0  0  0  0
    7.4050   -3.5430   20.4650 C   0  0  0  0  0  0  0  0  0  0  0  0
    3.1910   -0.6780   26.2550 F   0  0  0  0  0  0  0  0  0  0  0  0
    4.6520   -5.6070   25.9870 S   0  0  0  0  0  0  0  0  0  0  0  0
    6.0610   -1.3480   21.2050 C   0  0  0  0  0  0  0  0  0  0  0  0
    5.0170   -2.3280   21.5850 N   0  0  0  0  0  0  0  0  0  0  0  0
    6.3420    1.0450   16.9020 O   0  0  0  0  0  0  0  0  0  0  0  0
    5.3060   -3.3580   22.6640 C   0  0  0  0  0  0  0  0  0  0  0  0
    2.8670   -1.9650   26.0710 C   0  0  0  0  0  0  0  0  0  0  0  0
    3.8210   -2.9680   26.1190 C   0  0  0  0  0  0  0  0  0  0  0  0
    3.4470   -4.3070   25.9240 C   0  0  0  0  0  0  0  0  0  0  0  0
    2.0850   -4.5840   25.6770 C   0  0  0  0  0  0  0  0  0  0  0  0
    1.1270   -3.5720   25.6280 C   0  0  0  0  0  0  0  0  0  0  0  0
    1.5250   -2.2730   25.8260 C   0  0  0  0  0  0  0  0  0  0  0  0
    5.9050   -4.6960   22.1720 C   0  0  0  0  0  0  0  0  0  0  0  0
    4.9750   -5.7290   22.2320 C   0  0  0  0  0  0  0  0  0  0  0  0
    4.9210   -6.4160   23.4050 C   0  0  0  0  0  0  0  0  0  0  0  0
    5.3790   -5.4750   24.4550 N   0  0  0  0  0  0  0  0  0  0  0  0
    6.8190   -5.1480   24.3640 C   0  0  0  0  0  0  0  0  0  0  0  0
    7.1230   -5.1580   23.0010 C   0  0  0  0  0  0  0  0  0  0  0  0
    8.2640   -0.3870   21.2350 C   0  0  0  0  0  0  0  0  0  0  0  0
    9.3550   -0.1830   22.2920 C   0  0  0  0  0  0  0  0  0  0  0  0
    9.6040   -1.4780   22.9650 N   0  0  0  0  0  0  0  0  0  0  0  0
    9.2150   -2.6520   22.1530 C   0  0  0  0  0  0  0  0  0  0  0  0
    7.9360   -2.6680   21.6800 C   0  0  1  0  0  0  0  0  0  0  0  0
    7.3020   -1.3610   21.7190 N   0  0  0  0  0  0  0  0  0  0  0  0
    5.0100    1.7670   18.4460 N   0  0  0  0  0  0  0  0  0  0  0  0
    4.4680    1.7200   19.6460 C   0  0  0  0  0  0  0  0  0  0  0  0
    4.7940    0.7250   20.5760 C   0  0  0  0  0  0  0  0  0  0  0  0
    5.7160   -0.2650   20.2020 C   0  0  0  0  0  0  0  0  0  0  0  0
    6.2980   -0.2260   18.9280 C   0  0  0  0  0  0  0  0  0  0  0  0
    5.8860    0.8280   18.1340 C   0  0  0  0  0  0  0  0  0  0  0  0
   11.9270   -1.6010   22.3760 C   0  0  0  0  0  0  0  0  0  0  0  0
   13.2220   -1.8780   22.7080 C   0  0  0  0  0  0  0  0  0  0  0  0
   13.5230   -2.2980   23.9940 C   0  0  0  0  0  0  0  0  0  0  0  0
   12.5540   -2.4200   24.9230 C   0  0  0  0  0  0  0  0  0  0  0  0
   11.2550   -2.1310   24.5770 C   0  0  0  0  0  0  0  0  0  0  0  0
   10.9120   -1.7240   23.3000 C   0  0  0  0  0  0  0  0  0  0  0  0
    4.1850    0.7750   21.8270 C   0  0  0  0  0  0  0  0  0  0  0  0
    3.2710    1.7660   22.1550 C   0  0  0  0  0  0  0  0  0  0  0  0
    2.9460    2.7350   21.2250 C   0  0  0  0  0  0  0  0  0  0  0  0
    3.5550    2.7020   19.9730 C   0  0  0  0  0  0  0  0  0  0  0  0
  3  4  2  0
  4  5  1  0
  1  7  2  0
  2  7  2  0
  8  9  2  0
  9 11  1  0
  6 12  1  0
 12 13  2  0
  7 14  1  0
 13 14  1  0
 14 15  2  0
 15 16  1  0
 12 17  1  0
 16 17  2  0
 18  4  1  0
 11 18  1  0
 18 19  1  0
 19 20  1  0
  7 21  1  0
 20 21  1  0
 21 22  1  0
 18 23  1  0
 22 23  1  0
 24 25  1  0
 25 26  1  0
 26 27  1  0
 28  5  1  6
 27 28  1  0
  8 29  1  0
 24 29  1  0
 28 29  1  0
 30 31  2  0
 31 32  1  0
  8 33  1  0
 32 33  2  0
 33 34  1  0
 10 35  1  0
 30 35  1  0
 34 35  2  0
 36 37  2  0
 37 38  1  0
 38 39  2  0
 39 40  1  0
 26 41  1  0
 36 41  1  0
 40 41  2  0
 32 42  1  0
 42 43  2  0
 43 44  1  0
 31 45  1  0
 44 45  2  0
M  END
