x3305-x0991
     RDKit          3D

 32 34  0  0  0  0  0  0  0  0999 V2000
    3.2060   -7.2290   23.5710 C   0  0  0  0  0  0  0  0  0  0  0  0
    5.7430   -3.0210   21.1440 O   0  0  0  0  0  0  0  0  0  0  0  0
    6.8960   -2.4570   23.0630 N   0  0  0  0  0  0  0  0  0  0  0  0
    7.4150   -1.4370   21.0110 N   0  0  0  0  0  0  0  0  0  0  0  0
    6.1450   -3.2430   24.0060 C   0  0  2  0  0  0  0  0  0  0  0  0
    6.6220   -2.3440   21.6700 C   0  0  0  0  0  0  0  0  0  0  0  0
    8.3530   -0.9220   21.4850 C   0  0  0  0  0  0  0  0  0  0  0  0
    9.3080   -1.8410   21.9390 C   0  0  0  0  0  0  0  0  0  0  0  0
    7.1210   -1.2640   19.5990 C   0  0  0  0  0  0  0  0  0  0  0  0
   10.1240   -5.8440   25.1850 N   0  0  0  0  0  0  0  0  0  0  0  0
    9.0220   -3.7300   23.6200 C   0  0  0  0  0  0  0  0  0  0  0  0
    8.1920   -4.5560   24.3620 C   0  0  1  0  0  0  0  0  0  0  0  0
    8.2840   -5.0910   26.8390 N   0  0  0  0  0  0  0  0  0  0  0  0
    8.9010   -5.1950   25.5200 C   0  0  0  0  0  0  0  0  0  0  0  0
    7.1660   -3.6410   25.0070 C   0  0  0  0  0  0  0  0  0  0  0  0
    4.2640   -6.2850   23.3540 N   0  0  0  0  0  0  0  0  0  0  0  0
    4.5020   -5.1500   23.9680 C   0  0  0  0  0  0  0  0  0  0  0  0
    5.6190   -4.5380   23.4750 C   0  0  0  0  0  0  0  0  0  0  0  0
    6.0910   -5.3680   22.4770 N   0  0  0  0  0  0  0  0  0  0  0  0
    5.2430   -6.4430   22.4200 N   0  0  0  0  0  0  0  0  0  0  0  0
    5.6930    1.6000   17.6710 N   0  0  0  0  0  0  0  0  0  0  0  0
    6.4340    0.6100   18.1730 C   0  0  0  0  0  0  0  0  0  0  0  0
    6.1770   -0.1920   19.2480 C   0  0  0  0  0  0  0  0  0  0  0  0
    5.0200    0.0240   19.9700 C   0  0  0  0  0  0  0  0  0  0  0  0
    4.1740    1.0430   19.5660 C   0  0  0  0  0  0  0  0  0  0  0  0
    4.5680    1.8570   18.3380 C   0  0  0  0  0  0  0  0  0  0  0  0
   10.5730    0.1370   23.1210 C   0  0  0  0  0  0  0  0  0  0  0  0
   11.8850    0.8020   23.4260 C   0  0  0  0  0  0  0  0  0  0  0  0
   13.0600    0.2820   22.9740 C   0  0  0  0  0  0  0  0  0  0  0  0
   13.1440   -0.8690   22.2290 C   0  0  0  0  0  0  0  0  0  0  0  0
   11.8550   -1.6270   21.8620 C   0  0  0  0  0  0  0  0  0  0  0  0
   10.6130   -1.1480   22.2820 C   0  0  0  0  0  0  0  0  0  0  0  0
  3  5  1  0
  2  6  2  0
  3  6  1  0
  4  6  1  0
  4  7  1  0
  7  8  1  0
  4  9  1  0
 12 11  1  1
 10 14  2  3
 12 14  1  0
 13 14  1  0
  5 15  1  1
 12 15  1  0
  1 16  1  0
 16 17  1  0
  5 18  1  0
 17 18  2  0
 18 19  1  0
 16 20  1  0
 19 20  2  0
 21 22  2  0
  9 23  1  0
 22 23  1  0
 23 24  2  0
 24 25  1  0
 21 26  1  0
 25 26  2  0
 27 28  2  0
 28 29  1  0
 29 30  2  0
 30 31  1  0
  8 32  1  0
 27 32  1  0
 31 32  2  0
M  END
