x3303-x0946
     RDKit          3D

 37 42  0  0  0  0  0  0  0  0999 V2000
    6.1570   -1.5240   21.1620 C   0  0  0  0  0  0  0  0  0  0  0  0
    5.4130   -2.4910   21.2900 O   0  0  0  0  0  0  0  0  0  0  0  0
    6.5560    1.1900   17.0190 O   0  0  0  0  0  0  0  0  0  0  0  0
   10.6080   -1.2830   22.4540 C   0  0  0  0  0  0  0  0  0  0  0  0
    8.4350   -0.6790   21.1210 C   0  0  0  0  0  0  0  0  0  0  0  0
    9.6910   -1.1600   21.4230 C   0  0  0  0  0  0  0  0  0  0  0  0
    9.7010   -0.8420   22.8570 N   0  0  0  0  0  0  0  0  0  0  0  0
    8.6160   -0.2940   23.5290 C   0  0  0  0  0  0  0  0  0  0  0  0
    7.5370   -1.1720   23.2290 C   0  0  0  0  0  0  0  0  0  0  0  0
    7.3980   -1.4060   21.7850 N   0  0  0  0  0  0  0  0  0  0  0  0
    4.9400    1.7910   18.5380 N   0  0  0  0  0  0  0  0  0  0  0  0
    4.2540    1.5640   19.8260 C   0  0  0  0  0  0  0  0  0  0  0  0
    4.6900    0.4790   20.6320 C   0  0  0  0  0  0  0  0  0  0  0  0
    5.7310   -0.3980   20.2780 C   0  0  0  0  0  0  0  0  0  0  0  0
    6.4240   -0.2590   19.0850 C   0  0  0  0  0  0  0  0  0  0  0  0
    5.9920    0.8970   18.1960 C   0  0  0  0  0  0  0  0  0  0  0  0
   11.7820   -1.8880   22.3080 C   0  0  0  0  0  0  0  0  0  0  0  0
   13.0140   -2.3820   22.7070 C   0  0  0  0  0  0  0  0  0  0  0  0
   13.5230   -2.3410   23.9850 C   0  0  0  0  0  0  0  0  0  0  0  0
   12.8550   -1.7810   25.0310 C   0  0  0  0  0  0  0  0  0  0  0  0
   11.6000   -1.2330   24.8290 C   0  0  0  0  0  0  0  0  0  0  0  0
   11.0390   -1.2940   23.4020 C   0  0  0  0  0  0  0  0  0  0  0  0
    3.9570    0.3560   21.8670 C   0  0  0  0  0  0  0  0  0  0  0  0
    2.9260    1.2260   22.2100 C   0  0  0  0  0  0  0  0  0  0  0  0
    2.5460    2.2740   21.3670 C   0  0  0  0  0  0  0  0  0  0  0  0
    3.2410    2.4190   20.1610 C   0  0  0  0  0  0  0  0  0  0  0  0
    9.0360    4.8640   22.5980 N   0  0  0  0  0  0  0  0  0  0  0  0
    9.6150    5.0730   24.9410 O   0  0  0  0  0  0  0  0  0  0  0  0
   11.2750    5.8170   23.2210 O   0  0  0  0  0  0  0  0  0  0  0  0
   10.3000    4.8510   23.6910 S   0  0  0  0  0  0  0  0  0  0  0  0
   12.2420    0.7570   23.1660 C   0  0  0  0  0  0  0  0  0  0  0  0
   12.8910    1.9430   22.9150 C   0  0  0  0  0  0  0  0  0  0  0  0
   12.2920    3.1440   23.0710 C   0  0  0  0  0  0  0  0  0  0  0  0
   10.9860    3.2010   23.5120 C   0  0  0  0  0  0  0  0  0  0  0  0
   10.2770    1.9720   23.7890 C   0  0  0  0  0  0  0  0  0  0  0  0
   10.9090    0.6900   23.6080 C   0  0  0  0  0  0  0  0  0  0  0  0
   10.3200   -0.6410   23.8130 C   0  0  0  0  0  0  0  0  0  0  0  0
  1  2  2  0
  4  6  2  0
  5  6  1  0
  6  7  1  0
  7  8  1  0
  8  9  1  0
  1 10  1  0
  5 10  1  0
  9 10  1  0
 11 12  2  0
 12 13  1  0
  1 14  1  0
 13 14  2  0
 14 15  1  0
  3 16  1  0
 11 16  1  0
 15 16  2  0
  4 17  1  0
 17 18  1  0
 18 19  2  0
 19 20  1  0
 20 21  2  0
  7 22  1  0
 17 22  2  0
 21 22  1  0
 13 23  1  0
 23 24  2  0
 24 25  1  0
 12 26  1  0
 25 26  2  0
 30 27  1  0
 28 30  2  0
 29 30  2  0
 31 32  2  0
 32 33  1  0
 30 34  1  0
 33 34  2  0
 34 35  1  0
 31 36  1  0
 35 36  2  0
  4 37  1  0
 36 37  1  0
M  END
