x0072_0-x0874_0
     RDKit          3D

 13 13  0  0  0  0  0  0  0  0999 V2000
    7.5470   -3.8150   24.7660 N   0  0  0  0  0  0  0  0  0  0  0  0
    8.1190   -4.5940   26.1680 S   0  0  0  0  0  0  0  0  0  0  0  0
    6.6680   -5.4420   26.6690 C   0  0  0  0  0  0  0  0  0  0  0  0
    8.6040   -3.3290   24.0100 C   0  0  0  0  0  0  0  0  0  0  0  0
    9.2070   -5.5490   26.1670 O   0  0  0  0  0  0  0  0  0  0  0  0
    8.3230   -3.5530   27.1540 O   0  0  0  0  0  0  0  0  0  0  0  0
    8.5340   -1.9620   23.3340 C   0  0  0  0  0  0  0  0  0  0  0  0
    9.7380   -1.6880   22.4450 C   0  0  0  0  0  0  0  0  0  0  0  0
   10.6430   -0.5260   22.8660 C   0  0  0  0  0  0  0  0  0  0  0  0
   11.9190    0.3300   23.0560 C   0  0  0  0  0  0  0  0  0  0  0  0
   11.5410   -1.5550   22.1550 C   0  0  0  0  0  0  0  0  0  0  0  0
   13.1790    0.0580   22.6690 C   0  0  0  0  0  0  0  0  0  0  0  0
   13.2360   -1.4040   21.9030 S   0  0  0  0  0  0  0  0  0  0  0  0
  2  1  1  0
  2  3  1  0
  1  4  1  0
  2  5  2  0
  2  6  2  0
  4  7  1  0
  7  8  1  0
  8  9  1  0
  9 10  1  0
  9 11  2  0
 10 12  2  0
 11 13  1  0
 12 13  1  0
M  END
