x0107_0-x0689_1
     RDKit          3D

 22 23  0  0  0  0  0  0  0  0999 V2000
   10.2110   -0.3700   22.4190 C   0  0  0  0  0  0  0  0  0  0  0  0
    9.0720    0.3380   21.6860 C   0  0  0  0  0  0  0  0  0  0  0  0
    9.1470    1.5190   21.3130 O   0  0  0  0  0  0  0  0  0  0  0  0
    7.9040   -0.4980   21.4720 N   0  0  0  0  0  0  0  0  0  0  0  0
    8.0200   -1.8600   21.9690 C   0  0  0  0  0  0  0  0  0  0  0  0
    6.9470   -0.0970   20.4230 C   0  0  0  0  0  0  0  0  0  0  0  0
    6.6960   -2.6080   22.3300 C   0  0  0  0  0  0  0  0  0  0  0  0
    5.7500    0.5990   20.6710 C   0  0  0  0  0  0  0  0  0  0  0  0
    7.1840   -0.3880   18.9450 C   0  0  0  0  0  0  0  0  0  0  0  0
    5.2560    1.0200   22.0720 C   0  0  0  0  0  0  0  0  0  0  0  0
    4.8520    1.0120   19.7210 C   0  0  0  0  0  0  0  0  0  0  0  0
    6.2890    0.0210   17.8950 N   0  0  0  0  0  0  0  0  0  0  0  0
    6.9370   -4.1070   22.6510 C   0  0  2  0  0  0  0  0  0  0  0  0
    5.1190    0.7340   18.3770 C   0  0  0  0  0  0  0  0  0  0  0  0
    6.4630   -4.9310   21.7030 N   0  0  0  0  0  0  0  0  0  0  0  0
    6.5200   -4.4990   24.0750 C   0  0  0  0  0  0  0  0  0  0  0  0
    6.1690   -4.4040   20.4500 C   0  0  0  0  0  0  0  0  0  0  0  0
    5.1340   -4.9770   24.1710 N   0  0  0  0  0  0  0  0  0  0  0  0
    5.7770   -6.1360   22.1630 C   0  0  0  0  0  0  0  0  0  0  0  0
    7.0610   -3.4100   19.7180 C   0  0  0  0  0  0  0  0  0  0  0  0
    5.1530   -4.7700   19.9150 O   0  0  0  0  0  0  0  0  0  0  0  0
    4.7690   -5.8930   23.0740 C   0  0  0  0  0  0  0  0  0  0  0  0
  1  2  1  0
  2  3  2  0
  2  4  1  0
  4  5  1  0
  4  6  1  0
  5  7  1  0
  6  8  2  0
  6  9  1  0
  8 10  1  0
  8 11  1  0
  9 12  2  0
 13  7  1  6
 11 14  2  0
 12 14  1  0
 13 15  1  0
 13 16  1  0
 15 17  1  0
 16 18  1  0
 15 19  1  0
 17 20  1  0
 17 21  2  0
 18 22  1  0
 19 22  1  0
M  END
