x0104_0-x1412_0
     RDKit          3D

 18 18  0  0  0  0  0  0  0  0999 V2000
   12.4050    3.5420   22.6380 C   0  0  0  0  0  0  0  0  0  0  0  0
   12.5060    5.0140   23.0280 C   0  0  0  0  0  0  0  0  0  0  0  0
   11.3180    5.7170   22.5690 N   0  0  0  0  0  0  0  0  0  0  0  0
   11.1060    2.8520   23.0830 C   0  0  0  0  0  0  0  0  0  0  0  0
   11.2230    1.4960   23.8200 C   0  0  0  0  0  0  0  0  0  0  0  0
   10.4000    6.0910   23.3890 C   0  0  0  0  0  0  0  0  0  0  0  0
   10.8390    0.2000   23.0960 C   0  0  0  0  0  0  0  0  0  0  0  0
    9.0910    6.4960   22.6900 C   0  0  0  0  0  0  0  0  0  0  0  0
   10.5300    6.1310   24.6090 O   0  0  0  0  0  0  0  0  0  0  0  0
    9.4000   -0.3390   23.1460 C   0  0  0  0  0  0  0  0  0  0  0  0
    8.5920   -0.0500   24.2440 C   0  0  0  0  0  0  0  0  0  0  0  0
    8.6700   -1.1570   25.1970 N   0  0  0  0  0  0  0  0  0  0  0  0
    8.4820   -2.5800   24.8150 C   0  0  0  0  0  0  0  0  0  0  0  0
    8.5800   -3.7470   25.6520 C   0  0  0  0  0  0  0  0  0  0  0  0
    9.3810   -4.8340   25.4300 C   0  0  0  0  0  0  0  0  0  0  0  0
    7.6490   -3.9670   27.1950 S   0  0  0  0  0  0  0  0  0  0  0  0
    9.2750   -5.8320   26.4450 C   0  0  0  0  0  0  0  0  0  0  0  0
    8.3850   -5.4950   27.4450 C   0  0  0  0  0  0  0  0  0  0  0  0
  1  2  1  0
  2  3  1  0
  1  4  1  0
  4  5  1  0
  3  6  1  0
  5  7  1  0
  6  8  1  0
  6  9  2  0
  7 10  1  0
 10 11  1  0
 11 12  1  0
 12 13  2  3
 13 14  1  0
 14 15  2  0
 14 16  1  0
 15 17  1  0
 16 18  1  0
 17 18  2  0
M  END
