x0107_0-x0734_1
     RDKit          3D

 21 22  0  0  0  0  0  0  0  0999 V2000
    9.8810   -1.3070   22.1950 C   0  0  0  0  0  0  0  0  0  0  0  0
    8.8940   -0.2760   21.6280 C   0  0  0  0  0  0  0  0  0  0  0  0
    9.1880    0.9160   21.6210 O   0  0  0  0  0  0  0  0  0  0  0  0
    7.7020   -0.8260   21.1570 N   0  0  0  0  0  0  0  0  0  0  0  0
    6.9860   -1.8240   21.9740 C   0  0  0  0  0  0  0  0  0  0  0  0
    6.8810   -0.1890   20.1940 C   0  0  0  0  0  0  0  0  0  0  0  0
    5.7650    0.5650   20.5950 C   0  0  0  0  0  0  0  0  0  0  0  0
    7.1210   -0.2670   18.8230 C   0  0  0  0  0  0  0  0  0  0  0  0
    7.5400   -3.1190   21.9900 C   0  0  2  0  0  0  0  0  0  0  0  0
    5.3950    0.7230   22.0390 C   0  0  0  0  0  0  0  0  0  0  0  0
    4.9700    1.1930   19.6320 C   0  0  0  0  0  0  0  0  0  0  0  0
    6.3990    0.3150   17.8330 N   0  0  0  0  0  0  0  0  0  0  0  0
    6.6560   -4.0130   21.4470 N   0  0  0  0  0  0  0  0  0  0  0  0
    7.7610   -3.4860   23.4730 C   0  0  0  0  0  0  0  0  0  0  0  0
    6.2350   -3.8460   20.1290 C   0  0  0  0  0  0  0  0  0  0  0  0
    5.2600    1.0860   18.2890 C   0  0  0  0  0  0  0  0  0  0  0  0
    6.5910   -4.0920   24.1240 N   0  0  0  0  0  0  0  0  0  0  0  0
    6.5700   -5.3400   22.0970 C   0  0  0  0  0  0  0  0  0  0  0  0
    5.1570   -4.2920   19.7580 O   0  0  0  0  0  0  0  0  0  0  0  0
    7.1510   -3.1630   19.1270 C   0  0  0  0  0  0  0  0  0  0  0  0
    6.0230   -5.2220   23.3710 C   0  0  0  0  0  0  0  0  0  0  0  0
  1  2  1  0
  2  3  2  0
  2  4  1  0
  4  5  1  0
  4  6  1  0
  6  7  2  0
  6  8  1  0
  9  5  1  1
  7 10  1  0
  7 11  1  0
  8 12  2  0
  9 13  1  0
  9 14  1  0
 13 15  1  0
 11 16  2  0
 12 16  1  0
 14 17  1  0
 13 18  1  0
 15 19  2  0
 15 20  1  0
 17 21  1  0
 18 21  1  0
M  END
