x0104_0-x1458_0
     RDKit          3D

 17 16  0  0  0  0  0  0  0  0999 V2000
   12.6770    3.6530   22.5030 C   0  0  0  0  0  0  0  0  0  0  0  0
   12.2890    4.9110   23.2740 C   0  0  0  0  0  0  0  0  0  0  0  0
   11.1800    5.6100   22.6350 N   0  0  0  0  0  0  0  0  0  0  0  0
   11.7180    2.4490   22.6850 C   0  0  0  0  0  0  0  0  0  0  0  0
   11.2550    1.7670   23.9370 C   0  0  0  0  0  0  0  0  0  0  0  0
   10.1650    6.1030   23.3860 C   0  0  0  0  0  0  0  0  0  0  0  0
   10.3140    0.7450   23.7300 C   0  0  0  0  0  0  0  0  0  0  0  0
    8.9640    6.5750   22.5710 C   0  0  0  0  0  0  0  0  0  0  0  0
   10.1910    6.1720   24.6150 O   0  0  0  0  0  0  0  0  0  0  0  0
    9.3560    0.5540   24.7280 C   0  0  0  0  0  0  0  0  0  0  0  0
    8.5240   -0.5810   24.7420 C   0  0  0  0  0  0  0  0  0  0  0  0
    7.8330   -0.9840   26.0360 C   0  0  0  0  0  0  0  0  0  0  0  0
    8.2080   -2.3330   26.6710 C   0  0  0  0  0  0  0  0  0  0  0  0
    7.2100   -3.2640   26.6750 N   0  0  0  0  0  0  0  0  0  0  0  0
    7.7000   -4.6610   26.8590 C   0  0  0  0  0  0  0  0  0  0  0  0
    9.0410   -4.7380   27.5840 C   0  0  0  0  0  0  0  0  0  0  0  0
    6.6850   -5.4880   27.6420 C   0  0  0  0  0  0  0  0  0  0  0  0
  1  2  1  0
  2  3  1  0
  1  4  1  0
  4  5  1  0
  3  6  1  0
  5  7  1  0
  6  8  1  0
  6  9  2  0
  7 10  1  0
 10 11  1  0
 11 12  1  0
 12 13  1  0
 13 14  1  0
 14 15  1  0
 15 16  1  0
 15 17  1  0
M  END
