x0107_0-x1418_1
     RDKit          3D

 20 22  0  0  0  0  0  0  0  0999 V2000
   10.0850   -0.7010   22.5440 C   0  0  0  0  0  0  0  0  0  0  0  0
    8.7490   -2.2870   22.9660 C   0  0  1  0  0  0  0  0  0  0  0  0
    8.9430   -1.6010   21.6850 C   0  0  2  0  0  0  0  0  0  0  0  0
    9.6370   -0.3890   22.0100 C   0  0  0  0  0  0  0  0  0  0  0  0
    9.1880   -0.0770   21.4760 C   0  0  0  0  0  0  0  0  0  0  0  0
    7.9640   -3.5080   22.7600 C   0  0  0  0  0  0  0  0  0  0  0  0
    9.5150    0.9360   20.9620 O   0  0  0  0  0  0  0  0  0  0  0  0
    6.6470   -3.2090   22.0840 C   0  0  0  0  0  0  0  0  0  0  0  0
    7.6260   -1.3000   21.0140 C   0  0  1  0  0  0  0  0  0  0  0  0
    7.0860   -0.1310   20.0810 C   0  0  0  0  0  0  0  0  0  0  0  0
    6.9090   -2.5550   20.8100 N   0  0  0  0  0  0  0  0  0  0  0  0
    6.5850   -3.1130   19.6270 C   0  0  0  0  0  0  0  0  0  0  0  0
    5.8930    0.5030   20.4190 C   0  0  0  0  0  0  0  0  0  0  0  0
    7.4580   -0.1950   18.7440 C   0  0  0  0  0  0  0  0  0  0  0  0
    5.4530    0.6060   21.8770 C   0  0  0  0  0  0  0  0  0  0  0  0
    7.1740   -2.5200   18.3610 C   0  0  0  0  0  0  0  0  0  0  0  0
    5.8870   -4.1230   19.5740 O   0  0  0  0  0  0  0  0  0  0  0  0
    5.1220    1.0500   19.3930 C   0  0  0  0  0  0  0  0  0  0  0  0
    6.7050    0.3260   17.7940 N   0  0  0  0  0  0  0  0  0  0  0  0
    5.5750    0.9300   18.0850 C   0  0  0  0  0  0  0  0  0  0  0  0
  2  1  1  6
  2  3  1  0
  1  4  2  0
  3  5  1  1
  4  5  1  0
  2  6  1  0
  5  7  2  0
  6  8  1  0
  3  9  1  0
  9 10  1  6
  8 11  1  0
  9 11  1  0
 11 12  1  0
 10 13  2  0
 10 14  1  0
 13 15  1  0
 12 16  1  0
 12 17  2  0
 13 18  1  0
 14 19  2  0
 18 20  2  0
 19 20  1  0
M  END
