x0107_0-x1458_1
     RDKit          3D

 23 24  0  0  0  0  0  0  0  0999 V2000
    6.1030   -3.2440   25.3340 C   0  0  0  0  0  0  0  0  0  0  0  0
    6.1930   -3.5570   23.8520 C   0  0  2  0  0  0  0  0  0  0  0  0
    6.1640   -4.9600   23.6850 C   0  0  0  0  0  0  0  0  0  0  0  0
    5.0640   -3.3170   25.9730 O   0  0  0  0  0  0  0  0  0  0  0  0
    7.3580   -2.8670   23.1370 C   0  0  2  0  0  0  0  0  0  0  0  0
    6.8640   -1.4930   22.5540 C   0  0  0  0  0  0  0  0  0  0  0  0
    7.9210   -3.6150   22.1280 C   0  0  0  0  0  0  0  0  0  0  0  0
    6.4460   -5.4070   22.4010 C   0  0  0  0  0  0  0  0  0  0  0  0
    7.6270   -0.8840   21.4160 N   0  0  0  0  0  0  0  0  0  0  0  0
    7.0940   -4.4770   21.5080 N   0  0  0  0  0  0  0  0  0  0  0  0
    6.4780   -4.2150   20.2900 C   0  0  0  0  0  0  0  0  0  0  0  0
    8.9590   -0.3260   21.6960 C   0  0  0  0  0  0  0  0  0  0  0  0
    6.8320   -0.2520   20.3960 C   0  0  0  0  0  0  0  0  0  0  0  0
    5.4040   -4.7290   19.9690 O   0  0  0  0  0  0  0  0  0  0  0  0
    7.2250   -3.3250   19.3150 C   0  0  0  0  0  0  0  0  0  0  0  0
   10.0590   -1.2520   22.2520 C   0  0  0  0  0  0  0  0  0  0  0  0
    9.2150    0.8690   21.5000 O   0  0  0  0  0  0  0  0  0  0  0  0
    5.6300    0.6210   20.7620 C   0  0  0  0  0  0  0  0  0  0  0  0
    7.1450   -0.4230   19.0320 C   0  0  0  0  0  0  0  0  0  0  0  0
    5.2490    0.8410   22.1950 C   0  0  0  0  0  0  0  0  0  0  0  0
    4.9140    1.2080   19.5300 C   0  0  0  0  0  0  0  0  0  0  0  0
    6.4910    0.1140   17.9730 N   0  0  0  0  0  0  0  0  0  0  0  0
    5.3350    0.9570   18.2530 C   0  0  0  0  0  0  0  0  0  0  0  0
  2  1  1  1
  2  3  1  0
  1  4  2  0
  2  5  1  0
  5  6  1  6
  5  7  1  0
  3  8  1  0
  6  9  1  0
  7 10  1  0
  8 10  1  0
 10 11  1  0
  9 12  1  0
  9 13  1  0
 11 14  2  0
 11 15  1  0
 12 16  1  0
 12 17  2  0
 13 18  2  0
 13 19  1  0
 18 20  1  0
 18 21  1  0
 19 22  2  0
 21 23  2  0
 22 23  1  0
M  END
