x0104_0-x0820_1
     RDKit          3D

 24 25  0  0  0  0  0  0  0  0999 V2000
   12.7340    3.7140   22.4010 C   0  0  0  0  0  0  0  0  0  0  0  0
   12.4730    5.0800   23.0350 C   0  0  0  0  0  0  0  0  0  0  0  0
   11.2890    5.7060   22.4670 N   0  0  0  0  0  0  0  0  0  0  0  0
   11.7570    2.7380   22.9280 C   0  0  0  0  0  0  0  0  0  0  0  0
   12.1130    1.2500   23.1210 C   0  0  0  0  0  0  0  0  0  0  0  0
   10.4130    6.3050   23.1990 C   0  0  0  0  0  0  0  0  0  0  0  0
   10.9930    0.1950   23.0000 C   0  0  0  0  0  0  0  0  0  0  0  0
    8.9770    6.2330   22.6580 C   0  0  0  0  0  0  0  0  0  0  0  0
   10.6710    6.9020   24.2340 O   0  0  0  0  0  0  0  0  0  0  0  0
   11.3680   -1.1170   22.7000 C   0  0  0  0  0  0  0  0  0  0  0  0
   10.0730   -1.7620   22.1500 C   0  0  0  0  0  0  0  0  0  0  0  0
    9.2470   -2.3880   23.0720 C   0  0  0  0  0  0  0  0  0  0  0  0
    7.8660   -2.6400   22.7350 C   0  0  0  0  0  0  0  0  0  0  0  0
    7.5220   -3.9870   22.9430 C   0  0  0  0  0  0  0  0  0  0  0  0
    6.5670   -4.1580   23.9590 C   0  0  0  0  0  0  0  0  0  0  0  0
    7.0070   -4.2780   25.2600 C   0  0  0  0  0  0  0  0  0  0  0  0
    5.0810   -4.2130   23.6240 C   0  0  0  0  0  0  0  0  0  0  0  0
    6.0140   -4.4500   26.2490 C   0  0  0  0  0  0  0  0  0  0  0  0
    4.1650   -4.3840   24.6410 C   0  0  0  0  0  0  0  0  0  0  0  0
    8.3490   -4.2410   25.6540 C   0  0  0  0  0  0  0  0  0  0  0  0
    4.6510   -4.5020   25.9510 C   0  0  0  0  0  0  0  0  0  0  0  0
    8.7280   -4.3860   27.1220 C   0  0  0  0  0  0  0  0  0  0  0  0
    6.3810   -4.5810   27.6110 C   0  0  0  0  0  0  0  0  0  0  0  0
    7.7100   -4.5520   28.0480 C   0  0  0  0  0  0  0  0  0  0  0  0
  1  2  1  0
  2  3  1  0
  1  4  1  0
  4  5  1  0
  3  6  1  0
  5  7  1  0
  6  8  1  0
  6  9  2  0
  7 10  1  0
 10 11  1  0
 11 12  1  0
 12 13  1  0
 13 14  1  0
 14 15  1  0
 15 16  2  0
 15 17  1  0
 16 18  1  0
 17 19  2  0
 16 20  1  0
 18 21  2  0
 19 21  1  0
 20 22  2  0
 18 23  1  0
 22 24  1  0
 23 24  2  0
M  END
