x0104_0-x0107_0
     RDKit          3D

 20 20  0  0  0  0  0  0  0  0999 V2000
   12.7630    3.9320   22.3080 C   0  0  0  0  0  0  0  0  0  0  0  0
   12.4690    5.2030   23.0930 C   0  0  0  0  0  0  0  0  0  0  0  0
   11.2440    5.8150   22.5970 N   0  0  0  0  0  0  0  0  0  0  0  0
   11.9630    2.7050   22.7580 C   0  0  0  0  0  0  0  0  0  0  0  0
   10.6270    2.7990   22.6070 C   0  0  0  0  0  0  0  0  0  0  0  0
   10.2230    6.1680   23.4100 C   0  0  0  0  0  0  0  0  0  0  0  0
    9.8540    1.6120   22.9080 C   0  0  0  0  0  0  0  0  0  0  0  0
    8.9710    6.5610   22.6120 C   0  0  0  0  0  0  0  0  0  0  0  0
   10.2740    6.1830   24.6410 O   0  0  0  0  0  0  0  0  0  0  0  0
    9.0550    1.1800   21.9080 N   0  0  0  0  0  0  0  0  0  0  0  0
    8.9450   -0.2240   21.7480 C   0  0  0  0  0  0  0  0  0  0  0  0
    9.7510   -0.9270   22.6610 C   0  0  0  0  0  0  0  0  0  0  0  0
    8.1480   -0.7900   20.8100 N   0  0  0  0  0  0  0  0  0  0  0  0
    7.1240   -0.1750   20.0930 C   0  0  0  0  0  0  0  0  0  0  0  0
    6.0800    0.4870   20.7100 C   0  0  0  0  0  0  0  0  0  0  0  0
    7.1590   -0.2310   18.7150 C   0  0  0  0  0  0  0  0  0  0  0  0
    5.9500    0.5920   22.0990 C   0  0  0  0  0  0  0  0  0  0  0  0
    5.0590    1.1090   19.7450 C   0  0  0  0  0  0  0  0  0  0  0  0
    6.2030    0.3560   17.7730 N   0  0  0  0  0  0  0  0  0  0  0  0
    5.1910    1.0030   18.3670 C   0  0  0  0  0  0  0  0  0  0  0  0
  1  2  1  0
  2  3  1  0
  1  4  1  0
  4  5  1  0
  3  6  1  0
  5  7  1  0
  6  8  1  0
  6  9  2  0
  7 10  1  0
 10 11  2  3
 11 12  1  0
 11 13  1  0
 13 14  1  0
 14 15  2  0
 14 16  1  0
 15 17  1  0
 15 18  1  0
 16 19  2  0
 18 20  2  0
 19 20  1  0
M  END
