x0107_0-x0734_0
     RDKit          3D

 24 25  0  0  0  0  0  0  0  0999 V2000
   10.0630   -0.6680   22.4900 C   0  0  0  0  0  0  0  0  0  0  0  0
    8.9740    0.0500   21.6310 C   0  0  0  0  0  0  0  0  0  0  0  0
    9.2080    1.4240   21.3070 O   0  0  0  0  0  0  0  0  0  0  0  0
    7.8580   -0.8480   21.3160 N   0  0  0  0  0  0  0  0  0  0  0  0
    6.9690   -0.2470   20.3080 C   0  0  0  0  0  0  0  0  0  0  0  0
    5.8520    0.4760   20.7510 C   0  0  0  0  0  0  0  0  0  0  0  0
    7.1550   -0.3410   18.7900 C   0  0  0  0  0  0  0  0  0  0  0  0
    5.5290    0.6550   22.2420 C   0  0  0  0  0  0  0  0  0  0  0  0
    4.9660    1.0830   19.8530 C   0  0  0  0  0  0  0  0  0  0  0  0
    6.2670    0.2740   17.7950 N   0  0  0  0  0  0  0  0  0  0  0  0
    5.7790   -0.4880   23.2440 C   0  0  0  0  0  0  0  0  0  0  0  0
    5.1500    1.0020   18.3550 C   0  0  0  0  0  0  0  0  0  0  0  0
    5.3610   -1.8650   22.7850 C   0  0  0  0  0  0  0  0  0  0  0  0
    5.1290   -1.6440   24.2990 C   0  0  0  0  0  0  0  0  0  0  0  0
    4.3710   -2.9330   24.6910 C   0  0  0  0  0  0  0  0  0  0  0  0
    4.5710   -3.3260   25.9990 O   0  0  0  0  0  0  0  0  0  0  0  0
    5.0300   -4.6890   26.0730 N   0  0  0  0  0  0  0  0  0  0  0  0
    4.2260   -5.7320   25.6460 O   0  0  0  0  0  0  0  0  0  0  0  0
    6.4500   -4.9280   26.1400 C   0  0  0  0  0  0  0  0  0  0  0  0
    7.2360   -4.6260   25.0410 C   0  0  0  0  0  0  0  0  0  0  0  0
    7.0710   -5.5130   27.4180 C   0  0  0  0  0  0  0  0  0  0  0  0
    8.7390   -4.8690   25.0530 C   0  0  0  0  0  0  0  0  0  0  0  0
    8.5710   -5.7830   27.4940 C   0  0  0  0  0  0  0  0  0  0  0  0
    9.3890   -5.4440   26.2530 C   0  0  0  0  0  0  0  0  0  0  0  0
  1  2  1  0
  2  3  2  0
  2  4  1  0
  4  5  1  0
  5  6  2  0
  5  7  1  0
  6  8  1  0
  6  9  1  0
  7 10  2  0
  8 11  1  0
  9 12  2  0
 10 12  1  0
 11 13  1  0
 13 14  1  0
 14 15  1  0
 15 16  1  0
 16 17  1  0
 17 18  2  0
 17 19  1  0
 19 20  2  0
 19 21  1  0
 20 22  1  0
 21 23  2  0
 22 24  2  0
 23 24  1  0
M  CHG  1  17   1
M  END
