x0104_0-x0755_0
     RDKit          3D

 22 22  0  0  0  0  0  0  0  0999 V2000
   12.7030    3.5820   22.3970 C   0  0  0  0  0  0  0  0  0  0  0  0
   12.4830    4.7670   22.9960 C   0  0  0  0  0  0  0  0  0  0  0  0
   11.2940    5.5010   22.5140 N   0  0  0  0  0  0  0  0  0  0  0  0
   11.7750    2.4870   22.9060 C   0  0  0  0  0  0  0  0  0  0  0  0
   12.2270    1.1230   23.0140 C   0  0  0  0  0  0  0  0  0  0  0  0
   10.2870    6.0840   23.4000 C   0  0  0  0  0  0  0  0  0  0  0  0
   11.4040    0.0250   22.6140 C   0  0  0  0  0  0  0  0  0  0  0  0
    9.0460    6.5690   22.6460 C   0  0  0  0  0  0  0  0  0  0  0  0
   10.3830    6.1900   24.6270 O   0  0  0  0  0  0  0  0  0  0  0  0
   10.6650   -0.7810   23.5050 C   0  0  0  0  0  0  0  0  0  0  0  0
    9.9570   -1.9110   23.0050 C   0  0  0  0  0  0  0  0  0  0  0  0
    9.1220   -2.6500   23.8790 C   0  0  0  0  0  0  0  0  0  0  0  0
    7.7860   -3.0160   23.5570 C   0  0  0  0  0  0  0  0  0  0  0  0
    7.3720   -4.3550   23.7740 C   0  0  1  0  0  0  0  0  0  0  0  0
    6.0000   -4.5900   24.3100 N   0  0  0  0  0  0  0  0  0  0  0  0
    7.6400   -5.1280   22.6390 C   0  0  0  0  0  0  0  0  0  0  0  0
    6.6150   -5.3080   21.8460 N   0  0  0  0  0  0  0  0  0  0  0  0
    5.0110   -5.3520   23.5050 C   0  0  0  0  0  0  0  0  0  0  0  0
    6.5180   -4.5490   20.6660 C   0  0  0  0  0  0  0  0  0  0  0  0
    5.5360   -6.0610   22.4380 C   0  0  0  0  0  0  0  0  0  0  0  0
    5.5060   -4.6010   19.9500 O   0  0  0  0  0  0  0  0  0  0  0  0
    7.7080   -3.6550   20.2800 C   0  0  0  0  0  0  0  0  0  0  0  0
  1  2  1  0
  2  3  1  0
  1  4  1  0
  4  5  1  0
  3  6  1  0
  5  7  1  0
  6  8  1  0
  6  9  2  0
  7 10  1  0
 10 11  1  0
 11 12  1  0
 12 13  1  0
 14 13  1  6
 14 15  1  0
 14 16  1  0
 16 17  1  0
 15 18  1  0
 17 19  1  0
 17 20  1  0
 18 20  1  0
 19 21  2  0
 19 22  1  0
M  END
