x0104_0-x0749_1
     RDKit          3D

 21 21  0  0  0  0  0  0  0  0999 V2000
   12.5990    3.4710   22.4210 C   0  0  0  0  0  0  0  0  0  0  0  0
   12.1690    4.6020   23.2470 C   0  0  0  0  0  0  0  0  0  0  0  0
   11.2480    5.5110   22.5810 N   0  0  0  0  0  0  0  0  0  0  0  0
   12.0800    2.0930   22.8510 C   0  0  0  0  0  0  0  0  0  0  0  0
   10.5400    1.9920   22.7620 C   0  0  0  0  0  0  0  0  0  0  0  0
   10.2300    6.1260   23.3130 C   0  0  0  0  0  0  0  0  0  0  0  0
    9.7270    0.6700   22.6780 C   0  0  0  0  0  0  0  0  0  0  0  0
    9.0780    6.6040   22.6700 C   0  0  0  0  0  0  0  0  0  0  0  0
   10.3250    6.2550   24.5310 O   0  0  0  0  0  0  0  0  0  0  0  0
   10.4790   -0.6870   22.7150 C   0  0  0  0  0  0  0  0  0  0  0  0
   10.1210   -1.6990   23.6450 C   0  0  0  0  0  0  0  0  0  0  0  0
    8.6910   -2.3020   23.7180 C   0  0  0  0  0  0  0  0  0  0  0  0
    8.6040   -3.6280   23.2670 C   0  0  2  0  0  0  0  0  0  0  0  0
    8.1250   -3.6370   21.8410 C   0  0  0  0  0  0  0  0  0  0  0  0
    7.9830   -4.6310   24.0540 C   0  0  0  0  0  0  0  0  0  0  0  0
    6.9090   -4.0890   21.5140 N   0  0  0  0  0  0  0  0  0  0  0  0
    7.2910   -5.7150   23.4610 C   0  0  0  0  0  0  0  0  0  0  0  0
    6.4910   -3.9310   20.2010 C   0  0  0  0  0  0  0  0  0  0  0  0
    6.6040   -5.3580   22.1390 C   0  0  0  0  0  0  0  0  0  0  0  0
    7.4150   -3.2410   19.1830 C   0  0  0  0  0  0  0  0  0  0  0  0
    5.3950   -4.3670   19.8400 O   0  0  0  0  0  0  0  0  0  0  0  0
  1  2  1  0
  2  3  1  0
  1  4  1  0
  4  5  1  0
  3  6  1  0
  5  7  1  0
  6  8  1  0
  6  9  2  0
  7 10  1  0
 10 11  1  0
 11 12  1  0
 13 12  1  1
 13 14  1  0
 13 15  1  0
 14 16  1  0
 15 17  1  0
 16 18  1  0
 16 19  1  0
 17 19  1  0
 18 20  1  0
 18 21  2  0
M  END
