x0107_0-x0874_0
     RDKit          3D

 16 17  0  0  0  0  0  0  0  0999 V2000
    9.4920   -0.4440   22.9380 C   0  0  0  0  0  0  0  0  0  0  0  0
    8.7980    0.0820   21.7110 C   0  0  0  0  0  0  0  0  0  0  0  0
    9.1780    1.4080   21.2950 O   0  0  0  0  0  0  0  0  0  0  0  0
   10.9340   -0.5200   22.7300 C   0  0  0  0  0  0  0  0  0  0  0  0
    7.8520   -0.7420   21.1120 N   0  0  0  0  0  0  0  0  0  0  0  0
   11.8730    0.4630   23.0030 C   0  0  0  0  0  0  0  0  0  0  0  0
   11.4810   -1.8100   22.1460 C   0  0  0  0  0  0  0  0  0  0  0  0
    6.9650   -0.1630   20.1220 C   0  0  0  0  0  0  0  0  0  0  0  0
   13.1850    0.1940   22.7330 C   0  0  0  0  0  0  0  0  0  0  0  0
   13.2100   -1.5030   22.0530 S   0  0  0  0  0  0  0  0  0  0  0  0
    5.7660    0.6080   20.6280 C   0  0  0  0  0  0  0  0  0  0  0  0
    7.1010   -0.2330   18.7510 C   0  0  0  0  0  0  0  0  0  0  0  0
    5.4300    0.7930   22.1140 C   0  0  0  0  0  0  0  0  0  0  0  0
    4.8310    1.2460   19.5920 C   0  0  0  0  0  0  0  0  0  0  0  0
    6.2470    0.3520   17.7500 N   0  0  0  0  0  0  0  0  0  0  0  0
    5.0660    1.1280   18.2110 C   0  0  0  0  0  0  0  0  0  0  0  0
  1  2  1  0
  2  3  2  0
  1  4  1  0
  2  5  1  0
  4  6  1  0
  4  7  2  0
  5  8  1  0
  6  9  2  0
  7 10  1  0
  9 10  1  0
  8 11  2  0
  8 12  1  0
 11 13  1  0
 11 14  1  0
 12 15  2  0
 14 16  2  0
 15 16  1  0
M  END
