x0107_0-x0820_1
     RDKit          3D

 24 26  0  0  0  0  0  0  0  0999 V2000
    9.9900   -0.4430   22.5320 C   0  0  0  0  0  0  0  0  0  0  0  0
    8.9800    0.2870   21.6360 C   0  0  0  0  0  0  0  0  0  0  0  0
    9.1360    1.4670   21.3030 O   0  0  0  0  0  0  0  0  0  0  0  0
    7.8990   -0.5110   21.2640 N   0  0  0  0  0  0  0  0  0  0  0  0
    7.8770   -1.9090   21.3850 C   0  0  0  0  0  0  0  0  0  0  0  0
    6.9880   -0.0380   20.3910 C   0  0  0  0  0  0  0  0  0  0  0  0
    7.7630   -2.3710   22.8350 C   0  0  0  0  0  0  0  0  0  0  0  0
    5.7080    0.7370   20.7240 C   0  0  0  0  0  0  0  0  0  0  0  0
    7.1280   -0.2250   18.8940 C   0  0  0  0  0  0  0  0  0  0  0  0
    5.5240    0.9310   22.2350 C   0  0  0  0  0  0  0  0  0  0  0  0
    7.3320   -3.8730   22.9230 C   0  0  0  0  0  0  0  0  0  0  0  0
    4.7480    1.2410   19.6220 C   0  0  0  0  0  0  0  0  0  0  0  0
    6.3410    0.1870   17.8990 N   0  0  0  0  0  0  0  0  0  0  0  0
    5.1200    0.9390   18.1910 C   0  0  0  0  0  0  0  0  0  0  0  0
    6.4350   -4.1290   23.9660 C   0  0  0  0  0  0  0  0  0  0  0  0
    6.8960   -4.2730   25.2570 C   0  0  0  0  0  0  0  0  0  0  0  0
    5.0530   -4.2340   23.6970 C   0  0  0  0  0  0  0  0  0  0  0  0
    5.9110   -4.5390   26.3780 C   0  0  0  0  0  0  0  0  0  0  0  0
    4.0570   -4.5040   24.8280 C   0  0  0  0  0  0  0  0  0  0  0  0
    8.3580   -4.1950   25.7400 C   0  0  0  0  0  0  0  0  0  0  0  0
    4.5880   -4.6380   26.1170 C   0  0  0  0  0  0  0  0  0  0  0  0
    8.6910   -4.3610   27.0750 C   0  0  0  0  0  0  0  0  0  0  0  0
    6.3600   -4.6880   27.6990 C   0  0  0  0  0  0  0  0  0  0  0  0
    7.7090   -4.6000   28.0280 C   0  0  0  0  0  0  0  0  0  0  0  0
  1  2  1  0
  2  3  2  0
  2  4  1  0
  4  5  1  0
  4  6  1  0
  5  7  1  0
  6  8  2  0
  6  9  1  0
  8 10  1  0
  7 11  1  0
  8 12  1  0
  9 13  2  0
 12 14  2  0
 13 14  1  0
 11 15  1  0
 15 16  1  0
 15 17  2  0
 16 18  2  0
 17 19  1  0
 16 20  1  0
 18 21  1  0
 19 21  2  0
 20 22  2  0
 18 23  1  0
 22 24  1  0
 23 24  2  0
M  END
