x0104_0-x1425_1
     RDKit          3D

 21 21  0  0  0  0  0  0  0  0999 V2000
   12.4090    3.6150   22.4290 C   0  0  0  0  0  0  0  0  0  0  0  0
   12.4630    5.0600   22.9190 C   0  0  0  0  0  0  0  0  0  0  0  0
   11.2760    5.7880   22.5140 N   0  0  0  0  0  0  0  0  0  0  0  0
   11.5100    2.6720   23.2070 C   0  0  0  0  0  0  0  0  0  0  0  0
   10.4450    1.7740   22.5750 C   0  0  0  0  0  0  0  0  0  0  0  0
   10.2930    6.1290   23.3960 C   0  0  0  0  0  0  0  0  0  0  0  0
    9.4080    1.0070   23.4230 C   0  0  0  0  0  0  0  0  0  0  0  0
    9.0180    6.5480   22.6390 C   0  0  0  0  0  0  0  0  0  0  0  0
   10.3680    6.1220   24.6210 O   0  0  0  0  0  0  0  0  0  0  0  0
    8.4380    0.2460   22.7360 C   0  0  0  0  0  0  0  0  0  0  0  0
    7.2320   -0.3470   23.5510 C   0  0  0  0  0  0  0  0  0  0  0  0
    7.3790   -1.6940   23.9370 C   0  0  0  0  0  0  0  0  0  0  0  0
    6.6730   -2.6260   23.1610 C   0  0  2  0  0  0  0  0  0  0  0  0
    5.9780   -3.5730   24.0550 N   0  0  0  0  0  0  0  0  0  0  0  0
    7.4560   -3.2170   22.1860 C   0  0  0  0  0  0  0  0  0  0  0  0
    6.8740   -4.3760   21.5090 N   0  0  0  0  0  0  0  0  0  0  0  0
    5.4250   -4.7570   23.3480 C   0  0  0  0  0  0  0  0  0  0  0  0
    6.2980   -4.1840   20.2640 C   0  0  0  0  0  0  0  0  0  0  0  0
    6.2440   -5.3590   22.3870 C   0  0  0  0  0  0  0  0  0  0  0  0
    5.2720   -4.7650   19.9440 O   0  0  0  0  0  0  0  0  0  0  0  0
    7.0490   -3.2830   19.2950 C   0  0  0  0  0  0  0  0  0  0  0  0
  1  2  1  0
  2  3  1  0
  1  4  1  0
  4  5  1  0
  3  6  1  0
  5  7  1  0
  6  8  1  0
  6  9  2  0
  7 10  1  0
 10 11  1  0
 11 12  1  0
 13 12  1  1
 13 14  1  0
 13 15  1  0
 15 16  1  0
 14 17  1  0
 16 18  1  0
 16 19  1  0
 17 19  1  0
 18 20  2  0
 18 21  1  0
M  END
