x0104_0-x1336_1
     RDKit          3D

 22 22  0  0  0  0  0  0  0  0999 V2000
   12.7450    3.8170   22.4870 C   0  0  0  0  0  0  0  0  0  0  0  0
   12.6510    5.2560   22.9440 C   0  0  0  0  0  0  0  0  0  0  0  0
   11.3680    5.8140   22.5190 N   0  0  0  0  0  0  0  0  0  0  0  0
   11.5220    3.0270   22.9180 C   0  0  0  0  0  0  0  0  0  0  0  0
   11.7470    1.6810   23.2350 C   0  0  0  0  0  0  0  0  0  0  0  0
   10.3450    6.1550   23.3750 C   0  0  0  0  0  0  0  0  0  0  0  0
   10.6710    0.9810   23.8010 C   0  0  0  0  0  0  0  0  0  0  0  0
    9.0030    6.4950   22.7170 C   0  0  0  0  0  0  0  0  0  0  0  0
   10.4760    6.1950   24.6030 O   0  0  0  0  0  0  0  0  0  0  0  0
   10.8130   -0.3050   24.1920 C   0  0  0  0  0  0  0  0  0  0  0  0
    9.6170   -1.0340   24.1210 C   0  0  0  0  0  0  0  0  0  0  0  0
    8.7990   -1.0290   25.1560 N   0  0  0  0  0  0  0  0  0  0  0  0
    7.5190   -1.8870   25.1250 S   0  0  2  0  0  0  0  0  0  0  0  0
    6.0480   -1.3610   25.4710 O   0  0  0  0  0  0  0  0  0  0  0  0
    7.8040   -3.2500   26.1090 C   0  0  0  0  0  0  0  0  0  0  0  0
    6.7370   -3.6970   27.1260 C   0  0  0  0  0  0  0  0  0  0  0  0
    9.0900   -4.0860   26.0560 C   0  0  0  0  0  0  0  0  0  0  0  0
   10.1720   -3.7920   25.1700 C   0  0  0  0  0  0  0  0  0  0  0  0
    6.9670   -4.9220   28.0290 C   0  0  0  0  0  0  0  0  0  0  0  0
    9.2320   -5.2690   26.9750 C   0  0  0  0  0  0  0  0  0  0  0  0
    5.9320   -5.3640   29.0140 C   0  0  0  0  0  0  0  0  0  0  0  0
    8.2840   -5.6750   27.8840 C   0  0  0  0  0  0  0  0  0  0  0  0
  1  2  1  0
  2  3  1  0
  1  4  1  0
  4  5  1  0
  3  6  1  0
  5  7  1  0
  6  8  1  0
  6  9  2  0
  7 10  1  0
 10 11  1  0
 11 12  1  0
 12 13  2  0
 13 14  2  0
 13 15  1  1
 15 16  2  0
 15 17  1  0
 17 18  1  0
 16 19  1  0
 17 20  2  0
 19 21  1  0
 19 22  2  0
 20 22  1  0
M  END
