x0104_0-x1412_1
     RDKit          3D

 20 20  0  0  0  0  0  0  0  0999 V2000
   12.6130    3.5170   22.3820 C   0  0  0  0  0  0  0  0  0  0  0  0
   12.4690    4.9010   23.0300 C   0  0  0  0  0  0  0  0  0  0  0  0
   11.2700    5.5940   22.5560 N   0  0  0  0  0  0  0  0  0  0  0  0
   11.6730    2.4030   22.8640 C   0  0  0  0  0  0  0  0  0  0  0  0
   12.3660    1.1720   23.0490 C   0  0  0  0  0  0  0  0  0  0  0  0
   10.3050    6.0690   23.3860 C   0  0  0  0  0  0  0  0  0  0  0  0
   11.7210   -0.0410   23.0650 C   0  0  0  0  0  0  0  0  0  0  0  0
    9.0580    6.5370   22.6180 C   0  0  0  0  0  0  0  0  0  0  0  0
   10.3990    6.1270   24.6110 O   0  0  0  0  0  0  0  0  0  0  0  0
   10.2790   -0.2710   22.9740 C   0  0  0  0  0  0  0  0  0  0  0  0
    9.7590   -0.9530   21.8250 C   0  0  0  0  0  0  0  0  0  0  0  0
    8.8560   -1.9580   22.1770 C   0  0  1  0  0  0  0  0  0  0  0  0
    8.4800   -2.2790   23.4380 N   0  0  0  0  0  0  0  0  0  0  0  0
    7.5560   -1.7180   21.3680 C   0  0  0  0  0  0  0  0  0  0  0  0
    6.8200   -2.8540   21.1840 N   0  0  0  0  0  0  0  0  0  0  0  0
    7.8000   -3.5990   23.4350 C   0  0  0  0  0  0  0  0  0  0  0  0
    6.4370   -3.3640   19.9510 C   0  0  0  0  0  0  0  0  0  0  0  0
    6.7300   -3.7510   22.3350 C   0  0  0  0  0  0  0  0  0  0  0  0
    7.3410   -2.9890   18.8040 C   0  0  0  0  0  0  0  0  0  0  0  0
    5.4640   -4.1090   19.7580 O   0  0  0  0  0  0  0  0  0  0  0  0
  1  2  1  0
  2  3  1  0
  1  4  1  0
  4  5  1  0
  3  6  1  0
  5  7  1  0
  6  8  1  0
  6  9  2  0
  7 10  1  0
 10 11  1  0
 12 11  1  1
 12 13  1  0
 12 14  1  0
 14 15  1  0
 13 16  1  0
 15 17  1  0
 15 18  1  0
 16 18  1  0
 17 19  1  0
 17 20  2  0
M  END
