x0104_0-x1348_0
     RDKit          3D

 17 16  0  0  0  0  0  0  0  0999 V2000
   12.6380    3.6170   22.4580 C   0  0  0  0  0  0  0  0  0  0  0  0
   12.4750    4.8920   22.9780 C   0  0  0  0  0  0  0  0  0  0  0  0
   11.3630    5.5980   22.5140 N   0  0  0  0  0  0  0  0  0  0  0  0
   11.6000    2.5790   22.8510 C   0  0  0  0  0  0  0  0  0  0  0  0
   11.9740    1.0830   22.9950 C   0  0  0  0  0  0  0  0  0  0  0  0
   10.3420    6.0820   23.4160 C   0  0  0  0  0  0  0  0  0  0  0  0
   10.8600    0.2500   23.1840 C   0  0  0  0  0  0  0  0  0  0  0  0
    9.0870    6.5460   22.6740 C   0  0  0  0  0  0  0  0  0  0  0  0
   10.4460    6.1230   24.6420 O   0  0  0  0  0  0  0  0  0  0  0  0
   10.6670   -0.7750   22.2470 C   0  0  0  0  0  0  0  0  0  0  0  0
   10.0170   -2.1090   22.6700 C   0  0  0  0  0  0  0  0  0  0  0  0
    8.6150   -2.1670   22.7810 C   0  0  0  0  0  0  0  0  0  0  0  0
    7.8210   -2.0080   21.6320 C   0  0  0  0  0  0  0  0  0  0  0  0
    6.8540   -3.1090   21.3740 N   0  0  0  0  0  0  0  0  0  0  0  0
    6.4570   -3.5380   20.1070 C   0  0  0  0  0  0  0  0  0  0  0  0
    5.4690   -4.2450   19.8460 O   0  0  0  0  0  0  0  0  0  0  0  0
    7.3870   -3.0960   19.0010 C   0  0  0  0  0  0  0  0  0  0  0  0
  1  2  1  0
  2  3  1  0
  1  4  1  0
  4  5  1  0
  3  6  1  0
  5  7  1  0
  6  8  1  0
  6  9  2  0
  7 10  1  0
 10 11  1  0
 11 12  1  0
 12 13  1  0
 13 14  1  0
 14 15  1  0
 15 16  2  0
 15 17  1  0
M  END
