x0107_0-x1412_1-x1412_0-x0874_0
     RDKit          3D

 32 36  0  0  0  0  0  0  0  0999 V2000
    9.5190   -1.1350   21.9090 C   0  0  2  0  0  0  0  0  0  0  0  0
    8.6940    0.0420   21.6540 C   0  0  0  0  0  0  0  0  0  0  0  0
    9.0240    1.2320   21.6920 O   0  0  0  0  0  0  0  0  0  0  0  0
    8.6050   -2.2600   22.2210 C   0  0  1  0  0  0  0  0  0  0  0  0
   10.9280   -0.8530   22.3120 C   0  0  0  0  0  0  0  0  0  0  0  0
    7.3960   -0.5510   21.3180 N   0  0  0  0  0  0  0  0  0  0  0  0
    8.5200   -3.1490   23.3690 N   0  0  0  0  0  0  0  0  0  0  0  0
    7.3480   -1.8600   21.8670 C   0  0  1  0  0  0  0  0  0  0  0  0
   11.4580    0.1890   23.0230 C   0  0  0  0  0  0  0  0  0  0  0  0
   11.8680   -1.7430   21.8800 C   0  0  0  0  0  0  0  0  0  0  0  0
    8.4790   -2.6990   24.7500 C   0  0  0  0  0  0  0  0  0  0  0  0
    6.6800   -0.0180   20.1910 C   0  0  0  0  0  0  0  0  0  0  0  0
    6.4360   -2.9380   21.3850 N   0  0  0  0  0  0  0  0  0  0  0  0
    7.7400   -4.3590   23.0410 C   0  0  0  0  0  0  0  0  0  0  0  0
   12.8170    0.1270   23.1420 C   0  0  0  0  0  0  0  0  0  0  0  0
   13.4350   -1.3160   22.3190 S   0  0  0  0  0  0  0  0  0  0  0  0
    6.3190   -3.3780   20.0460 C   0  0  0  0  0  0  0  0  0  0  0  0
    8.3700   -1.5210   25.0650 O   0  0  0  0  0  0  0  0  0  0  0  0
    5.5300    0.7520   20.5320 C   0  0  0  0  0  0  0  0  0  0  0  0
    7.0470   -0.1910   18.7470 C   0  0  0  0  0  0  0  0  0  0  0  0
    6.3550   -4.0020   22.4140 C   0  0  0  0  0  0  0  0  0  0  0  0
    8.5760   -3.8060   25.6790 C   0  0  0  0  0  0  0  0  0  0  0  0
    5.1020    0.9610   22.0190 C   0  0  0  0  0  0  0  0  0  0  0  0
    7.3090   -2.9750   18.9410 C   0  0  0  0  0  0  0  0  0  0  0  0
    5.3920   -4.1600   19.7670 O   0  0  0  0  0  0  0  0  0  0  0  0
    4.8090    1.3130   19.4500 C   0  0  0  0  0  0  0  0  0  0  0  0
    6.2820    0.4010   17.7000 N   0  0  0  0  0  0  0  0  0  0  0  0
    9.3540   -4.9550   25.4580 C   0  0  0  0  0  0  0  0  0  0  0  0
    7.7670   -3.9410   27.2280 S   0  0  0  0  0  0  0  0  0  0  0  0
    5.1270    1.1790   18.0970 C   0  0  0  0  0  0  0  0  0  0  0  0
    9.2910   -5.8640   26.4800 C   0  0  0  0  0  0  0  0  0  0  0  0
    8.4750   -5.4670   27.5170 C   0  0  0  0  0  0  0  0  0  0  0  0
  1  2  1  0
  2  3  2  0
  1  4  1  0
  1  5  1  1
  2  6  1  0
  4  7  1  1
  4  8  1  0
  8  6  1  6
  5  9  1  0
  5 10  2  0
  7 11  1  0
  6 12  1  0
  8 13  1  0
  7 14  1  0
  9 15  2  0
 10 16  1  0
 15 16  1  0
 13 17  1  0
 11 18  2  0
 12 19  2  0
 12 20  1  0
 13 21  1  0
 14 21  1  0
 11 22  1  0
 19 23  1  0
 17 24  1  0
 17 25  2  0
 19 26  1  0
 20 27  2  0
 22 28  2  0
 22 29  1  0
 26 30  2  0
 27 30  1  0
 28 31  1  0
 29 32  1  0
 31 32  2  0
M  END
