x0107_0-x0991_0
     RDKit          3D

 18 18  0  0  0  0  0  0  0  0999 V2000
   10.0890   -1.2720   22.0890 C   0  0  0  0  0  0  0  0  0  0  0  0
    8.9910   -0.3220   21.6240 C   0  0  0  0  0  0  0  0  0  0  0  0
    9.3380    1.0670   21.7120 O   0  0  0  0  0  0  0  0  0  0  0  0
    9.9590   -1.6240   23.5770 C   0  0  0  0  0  0  0  0  0  0  0  0
    7.7700   -0.8690   21.1840 N   0  0  0  0  0  0  0  0  0  0  0  0
    9.7690   -3.1240   23.9690 C   0  0  0  0  0  0  0  0  0  0  0  0
    8.5460   -3.7900   23.3110 C   0  0  0  0  0  0  0  0  0  0  0  0
    6.9100   -0.1980   20.2440 C   0  0  0  0  0  0  0  0  0  0  0  0
    8.0430   -5.0390   24.0390 C   0  0  0  0  0  0  0  0  0  0  0  0
    5.8220    0.5830   20.6480 C   0  0  0  0  0  0  0  0  0  0  0  0
    7.1520   -0.3240   18.8680 C   0  0  0  0  0  0  0  0  0  0  0  0
    5.4790    0.7670   22.0950 C   0  0  0  0  0  0  0  0  0  0  0  0
    8.7460   -5.2000   25.3970 C   0  0  0  0  0  0  0  0  0  0  0  0
    5.0420    1.1970   19.6840 C   0  0  0  0  0  0  0  0  0  0  0  0
    6.3480    0.3160   17.8160 N   0  0  0  0  0  0  0  0  0  0  0  0
   10.1920   -5.2620   25.3970 N   0  0  0  0  0  0  0  0  0  0  0  0
    8.2020   -5.2900   26.6370 N   0  0  0  0  0  0  0  0  0  0  0  0
    5.2380    1.1120   18.3230 C   0  0  0  0  0  0  0  0  0  0  0  0
  1  2  1  0
  2  3  2  0
  1  4  1  0
  2  5  1  0
  4  6  1  0
  6  7  1  0
  5  8  1  0
  7  9  1  0
  8 10  2  0
  8 11  1  0
 10 12  1  0
  9 13  1  0
 10 14  1  0
 11 15  2  0
 13 16  2  3
 13 17  1  0
 14 18  2  0
 15 18  1  0
M  END
