x0195_0-x0691_0
     RDKit          3D

 27 29  0  0  0  0  0  0  0  0999 V2000
    9.3090   -0.5680   24.5670 C   0  0  0  0  0  0  0  0  0  0  0  0
    8.4820   -1.7790   24.2100 C   0  0  0  0  0  0  0  0  0  0  0  0
    7.7270   -1.8530   22.8720 C   0  0  0  0  0  0  0  0  0  0  0  0
   10.6470   -0.4500   24.0090 N   0  0  0  0  0  0  0  0  0  0  0  0
   11.1320    0.8980   23.6640 C   0  0  0  0  0  0  0  0  0  0  0  0
   11.4760   -1.6230   23.7010 C   0  0  0  0  0  0  0  0  0  0  0  0
    6.6280   -2.9310   22.7950 C   0  0  0  0  0  0  0  0  0  0  0  0
   12.4980    0.9650   23.1090 C   0  0  0  0  0  0  0  0  0  0  0  0
   12.4220   -1.5230   22.6840 C   0  0  0  0  0  0  0  0  0  0  0  0
   10.4630    2.1400   23.7930 C   0  0  0  0  0  0  0  0  0  0  0  0
   13.2730   -0.3240   22.9310 C   0  0  0  0  0  0  0  0  0  0  0  0
   13.0640    2.1750   22.7560 C   0  0  0  0  0  0  0  0  0  0  0  0
   11.0720    3.3670   23.4090 C   0  0  0  0  0  0  0  0  0  0  0  0
    7.0230   -4.2080   22.8650 C   0  0  2  0  0  0  0  0  0  0  0  0
   10.2300    4.9290   23.5550 S   0  0  0  0  0  0  0  0  0  0  0  0
   12.3660    3.3510   22.8980 C   0  0  0  0  0  0  0  0  0  0  0  0
    6.5660   -5.0400   21.7240 N   0  0  0  0  0  0  0  0  0  0  0  0
    6.7290   -4.7840   24.0760 C   0  0  0  0  0  0  0  0  0  0  0  0
   10.3300    5.4630   24.8920 O   0  0  0  0  0  0  0  0  0  0  0  0
    8.7830    4.7530   22.8930 O   0  0  0  0  0  0  0  0  0  0  0  0
   11.0300    5.9100   22.6660 N   0  0  0  0  0  0  0  0  0  0  0  0
    6.2570   -4.4310   20.5040 C   0  0  0  0  0  0  0  0  0  0  0  0
    5.3400   -5.2230   24.2920 N   0  0  0  0  0  0  0  0  0  0  0  0
    5.8570   -6.2600   22.1090 C   0  0  0  0  0  0  0  0  0  0  0  0
    5.2290   -4.7470   19.9380 O   0  0  0  0  0  0  0  0  0  0  0  0
    7.1760   -3.3820   19.8720 C   0  0  0  0  0  0  0  0  0  0  0  0
    4.7690   -5.9730   23.1750 C   0  0  0  0  0  0  0  0  0  0  0  0
  1  2  1  0
  2  3  1  0
  1  4  1  0
  4  5  1  0
  4  6  1  0
  3  7  1  0
  5  8  2  0
  6  9  1  0
  5 10  1  0
  8 11  1  0
  9 11  1  0
  8 12  1  0
 10 13  2  0
 14  7  1  1
 13 15  1  0
 12 16  2  0
 13 16  1  0
 14 17  1  0
 14 18  1  0
 15 19  2  0
 15 20  2  0
 15 21  1  0
 17 22  1  0
 18 23  1  0
 17 24  1  0
 22 25  2  0
 22 26  1  0
 23 27  1  0
 24 27  1  0
M  END
