x0195_0-x0734_0
     RDKit          3D

 28 30  0  0  0  0  0  0  0  0999 V2000
    9.1720   -0.5130   23.9610 C   0  0  0  0  0  0  0  0  0  0  0  0
    8.5990   -1.1230   25.2300 C   0  0  0  0  0  0  0  0  0  0  0  0
    7.1650   -1.6310   25.0220 C   0  0  0  0  0  0  0  0  0  0  0  0
   10.5570   -0.3560   23.9780 N   0  0  0  0  0  0  0  0  0  0  0  0
   11.0910    0.9670   23.6440 C   0  0  0  0  0  0  0  0  0  0  0  0
   11.4860   -1.5110   23.8650 C   0  0  0  0  0  0  0  0  0  0  0  0
    6.3910   -2.0310   26.2780 C   0  0  0  0  0  0  0  0  0  0  0  0
   12.4770    0.8980   23.0710 C   0  0  0  0  0  0  0  0  0  0  0  0
   12.3090   -1.4000   22.7710 C   0  0  0  0  0  0  0  0  0  0  0  0
   10.4390    2.2160   23.8040 C   0  0  0  0  0  0  0  0  0  0  0  0
    5.0200   -2.6250   25.7870 C   0  0  0  0  0  0  0  0  0  0  0  0
   13.2460   -0.4040   22.8480 C   0  0  0  0  0  0  0  0  0  0  0  0
   13.0680    2.2530   22.7180 C   0  0  0  0  0  0  0  0  0  0  0  0
   11.0830    3.4110   23.4260 C   0  0  0  0  0  0  0  0  0  0  0  0
   10.2980    5.0300   23.5850 S   0  0  0  0  0  0  0  0  0  0  0  0
    4.6420   -3.7010   26.6470 O   0  0  0  0  0  0  0  0  0  0  0  0
   12.3770    3.4300   22.8940 C   0  0  0  0  0  0  0  0  0  0  0  0
   10.0630    5.3880   24.9540 O   0  0  0  0  0  0  0  0  0  0  0  0
    9.1830    4.9860   22.6780 O   0  0  0  0  0  0  0  0  0  0  0  0
   11.2970    6.0900   23.0850 N   0  0  0  0  0  0  0  0  0  0  0  0
    5.2960   -4.9060   26.2210 N   0  0  0  0  0  0  0  0  0  0  0  0
    4.5850   -5.8790   25.4390 O   0  0  0  0  0  0  0  0  0  0  0  0
    6.7330   -4.9730   26.3030 C   0  0  0  0  0  0  0  0  0  0  0  0
    7.4740   -4.6080   25.1670 C   0  0  0  0  0  0  0  0  0  0  0  0
    7.3200   -5.3910   27.5010 C   0  0  0  0  0  0  0  0  0  0  0  0
    8.9760   -4.6430   25.1770 C   0  0  0  0  0  0  0  0  0  0  0  0
    8.7050   -5.4700   27.6350 C   0  0  0  0  0  0  0  0  0  0  0  0
    9.5920   -5.0920   26.4610 C   0  0  0  0  0  0  0  0  0  0  0  0
  1  2  1  0
  2  3  1  0
  1  4  1  0
  4  5  1  0
  4  6  1  0
  3  7  1  0
  5  8  2  0
  6  9  1  0
  5 10  1  0
  7 11  1  0
  8 12  1  0
  9 12  1  0
  8 13  1  0
 10 14  2  0
 14 15  1  0
 11 16  1  0
 13 17  2  0
 14 17  1  0
 15 18  2  0
 15 19  2  0
 15 20  1  0
 16 21  1  0
 21 22  2  0
 21 23  1  0
 23 24  2  0
 23 25  1  0
 24 26  1  0
 25 27  2  0
 26 28  2  0
 27 28  1  0
M  CHG  1  21   1
M  END
