x0195_0-x1402_1
     RDKit          3D

 27 29  0  0  0  0  0  0  0  0999 V2000
    9.6560   -0.6280   24.7060 C   0  0  0  0  0  0  0  0  0  0  0  0
    8.9380   -1.8140   24.0690 C   0  0  0  0  0  0  0  0  0  0  0  0
    7.4570   -2.0810   24.3590 C   0  0  0  0  0  0  0  0  0  0  0  0
   10.8130   -0.4690   24.1010 N   0  0  0  0  0  0  0  0  0  0  0  0
   11.2550    0.8100   23.7210 C   0  0  0  0  0  0  0  0  0  0  0  0
   11.3170   -1.6480   23.4960 C   0  0  0  0  0  0  0  0  0  0  0  0
    6.7590   -3.0130   23.5820 C   0  0  0  0  0  0  0  0  0  0  0  0
   12.6040    1.1530   23.1100 C   0  0  0  0  0  0  0  0  0  0  0  0
   12.2200   -1.3050   22.5460 C   0  0  0  0  0  0  0  0  0  0  0  0
   10.5010    2.0170   23.8580 C   0  0  0  0  0  0  0  0  0  0  0  0
   13.1610   -0.2750   23.0990 C   0  0  0  0  0  0  0  0  0  0  0  0
   13.0890    2.3100   22.7390 C   0  0  0  0  0  0  0  0  0  0  0  0
   11.0170    3.2950   23.4540 C   0  0  0  0  0  0  0  0  0  0  0  0
    7.0030   -4.5160   23.9300 C   0  0  1  0  0  0  0  0  0  0  0  0
   10.0710    4.8050   23.6290 S   0  0  0  0  0  0  0  0  0  0  0  0
   12.2940    3.4220   22.9010 C   0  0  0  0  0  0  0  0  0  0  0  0
    5.6990   -5.1510   24.2860 N   0  0  0  0  0  0  0  0  0  0  0  0
    7.6180   -5.1380   22.8390 C   0  0  0  0  0  0  0  0  0  0  0  0
    9.4380    4.8620   24.9260 O   0  0  0  0  0  0  0  0  0  0  0  0
    9.1470    4.8240   22.5270 O   0  0  0  0  0  0  0  0  0  0  0  0
   11.1540    5.8200   23.1890 N   0  0  0  0  0  0  0  0  0  0  0  0
    6.6550   -5.4300   21.7830 N   0  0  0  0  0  0  0  0  0  0  0  0
    4.8270   -5.5510   23.1720 C   0  0  0  0  0  0  0  0  0  0  0  0
    6.5840   -4.5730   20.6720 C   0  0  0  0  0  0  0  0  0  0  0  0
    5.5660   -6.2640   22.2360 C   0  0  0  0  0  0  0  0  0  0  0  0
    7.8330   -3.7210   20.3990 C   0  0  0  0  0  0  0  0  0  0  0  0
    5.5770   -4.5110   19.9430 O   0  0  0  0  0  0  0  0  0  0  0  0
  1  2  1  0
  2  3  1  0
  1  4  1  0
  4  5  1  0
  4  6  1  0
  3  7  1  0
  5  8  2  0
  6  9  1  0
  5 10  1  0
  8 11  1  0
  9 11  1  0
  8 12  1  0
 10 13  2  0
 14  7  1  6
 13 15  1  0
 12 16  2  0
 13 16  1  0
 14 17  1  0
 14 18  1  0
 15 19  2  0
 15 20  2  0
 15 21  1  0
 18 22  1  0
 17 23  1  0
 22 24  1  0
 22 25  1  0
 23 25  1  0
 24 26  1  0
 24 27  2  0
M  END
