x0195_0-x0689_1
     RDKit          3D

 27 29  0  0  0  0  0  0  0  0999 V2000
    9.6080   -0.4840   24.9830 C   0  0  0  0  0  0  0  0  0  0  0  0
    8.5270   -1.2960   24.4600 C   0  0  0  0  0  0  0  0  0  0  0  0
    8.5730   -2.8100   24.1980 C   0  0  0  0  0  0  0  0  0  0  0  0
   10.6530   -0.3830   23.9630 N   0  0  0  0  0  0  0  0  0  0  0  0
   11.2120    0.8840   23.6120 C   0  0  0  0  0  0  0  0  0  0  0  0
   11.3240   -1.6440   23.5750 C   0  0  0  0  0  0  0  0  0  0  0  0
    7.9840   -3.3400   22.8880 C   0  0  0  0  0  0  0  0  0  0  0  0
   12.4990    0.9870   23.1220 C   0  0  0  0  0  0  0  0  0  0  0  0
   12.2740   -1.4340   22.5960 C   0  0  0  0  0  0  0  0  0  0  0  0
   10.5200    2.1130   23.7340 C   0  0  0  0  0  0  0  0  0  0  0  0
   13.2450   -0.3650   23.0050 C   0  0  0  0  0  0  0  0  0  0  0  0
   13.0850    2.1910   22.7690 C   0  0  0  0  0  0  0  0  0  0  0  0
   11.0880    3.3400   23.3840 C   0  0  0  0  0  0  0  0  0  0  0  0
    7.1690   -4.6570   23.0970 C   0  0  2  0  0  0  0  0  0  0  0  0
   10.2480    4.9050   23.5270 S   0  0  0  0  0  0  0  0  0  0  0  0
   12.3830    3.3680   22.8940 C   0  0  0  0  0  0  0  0  0  0  0  0
    6.5990   -5.2980   21.8680 N   0  0  0  0  0  0  0  0  0  0  0  0
    6.1990   -4.3770   24.0550 C   0  0  0  0  0  0  0  0  0  0  0  0
   10.3950    5.4720   24.8420 O   0  0  0  0  0  0  0  0  0  0  0  0
    8.9440    4.7770   22.9220 O   0  0  0  0  0  0  0  0  0  0  0  0
   11.0890    5.8150   22.6220 N   0  0  0  0  0  0  0  0  0  0  0  0
    6.4930   -4.5340   20.6840 C   0  0  0  0  0  0  0  0  0  0  0  0
    5.2160   -5.4450   24.2910 N   0  0  0  0  0  0  0  0  0  0  0  0
    5.5440   -6.2640   22.1320 C   0  0  0  0  0  0  0  0  0  0  0  0
    7.7020   -3.6690   20.3970 C   0  0  0  0  0  0  0  0  0  0  0  0
    5.4910   -4.5860   19.9490 O   0  0  0  0  0  0  0  0  0  0  0  0
    4.5670   -5.8070   23.0150 C   0  0  0  0  0  0  0  0  0  0  0  0
  1  2  1  0
  2  3  1  0
  1  4  1  0
  4  5  1  0
  4  6  1  0
  3  7  1  0
  5  8  2  0
  6  9  1  0
  5 10  1  0
  8 11  1  0
  9 11  1  0
  8 12  1  0
 10 13  2  0
 14  7  1  6
 13 15  1  0
 12 16  2  0
 13 16  1  0
 14 17  1  0
 14 18  1  0
 15 19  2  0
 15 20  2  0
 15 21  1  0
 17 22  1  0
 18 23  1  0
 17 24  1  0
 22 25  1  0
 22 26  2  0
 23 27  1  0
 24 27  1  0
M  END
