x0194
     RDKit          3D

 17 18  0  0  0  0  0  0  0  0999 V2000
   24.8110  -14.7050   24.8260 C   0  0  0  0  0  0  0  0  0  0  0  0
   23.9370  -15.0390   26.0390 C   0  0  0  0  0  0  0  0  0  0  0  0
   23.7640  -14.2370   26.8940 O   0  0  0  0  0  0  0  0  0  0  0  0
   23.2720  -16.3180   26.1540 N   0  0  0  0  0  0  0  0  0  0  0  0
   23.4580  -17.3660   25.1740 C   0  0  0  0  0  0  0  0  0  0  0  0
   24.7110  -17.9510   25.1610 C   0  0  0  0  0  0  0  0  0  0  0  0
   24.9860  -18.9850   24.2940 C   0  0  0  0  0  0  0  0  0  0  0  0
   24.0170  -19.4310   23.4120 C   0  0  0  0  0  0  0  0  0  0  0  0
   24.4010  -20.5120   22.6160 O   0  0  0  0  0  0  0  0  0  0  0  0
   24.2140  -20.6400   21.2330 C   0  0  0  0  0  0  0  0  0  0  0  0
   24.8600  -19.8680   20.3720 N   0  0  0  0  0  0  0  0  0  0  0  0
   24.7040  -20.0680   19.0750 C   0  0  0  0  0  0  0  0  0  0  0  0
   23.8700  -21.0880   18.6120 C   0  0  0  0  0  0  0  0  0  0  0  0
   23.2290  -21.8900   19.5550 C   0  0  0  0  0  0  0  0  0  0  0  0
   23.4420  -21.6410   20.8300 N   0  0  0  0  0  0  0  0  0  0  0  0
   22.7450  -18.8730   23.4420 C   0  0  0  0  0  0  0  0  0  0  0  0
   22.4600  -17.8290   24.3210 C   0  0  0  0  0  0  0  0  0  0  0  0
  1  2  1  0
  2  3  2  0
  2  4  1  0
  4  5  1  0
  5  6  2  0
  6  7  1  0
  7  8  2  0
  8  9  1  0
  9 10  1  0
 10 11  2  0
 11 12  1  0
 12 13  2  0
 13 14  1  0
 10 15  1  0
 14 15  2  0
  8 16  1  0
  5 17  1  0
 16 17  2  0
M  END
