x0305_0-x0434_2
     RDKit          3D

 21 22  0  0  0  0  0  0  0  0999 V2000
    8.0140   -0.0310   27.2240 C   0  0  0  0  0  0  0  0  0  0  0  0
    8.4250   -0.3010   25.7680 C   0  0  2  0  0  0  0  0  0  0  0  0
    9.7870    0.1690   25.6320 N   0  0  0  0  0  0  0  0  0  0  0  0
    7.5990    0.3760   24.8570 C   0  0  0  0  0  0  0  0  0  0  0  0
    7.9950    0.3060   23.3770 C   0  0  0  0  0  0  0  0  0  0  0  0
   10.6450   -0.3130   24.5920 C   0  0  0  0  0  0  0  0  0  0  0  0
    6.8540   -0.4240   22.6670 C   0  0  0  0  0  0  0  0  0  0  0  0
   11.6560    0.5240   24.2630 N   0  0  0  0  0  0  0  0  0  0  0  0
   10.4350   -1.5520   23.9690 C   0  0  0  0  0  0  0  0  0  0  0  0
    7.1260   -0.7320   21.2560 N   0  0  0  0  0  0  0  0  0  0  0  0
   12.5050    0.0490   23.2130 C   0  0  0  0  0  0  0  0  0  0  0  0
   11.2760   -1.9790   22.9520 C   0  0  0  0  0  0  0  0  0  0  0  0
   12.3090   -1.1440   22.5940 C   0  0  0  0  0  0  0  0  0  0  0  0
    6.4810   -0.0300   20.1330 C   0  0  0  0  0  0  0  0  0  0  0  0
   13.0630   -1.6740   21.5660 C   0  0  0  0  0  0  0  0  0  0  0  0
    6.9610   -0.0400   18.8350 C   0  0  0  0  0  0  0  0  0  0  0  0
    5.3040    0.7030   20.3660 C   0  0  0  0  0  0  0  0  0  0  0  0
   13.6310   -2.0870   20.7080 N   0  0  0  0  0  0  0  0  0  0  0  0
    6.4640    0.5610   17.7810 N   0  0  0  0  0  0  0  0  0  0  0  0
    4.6870    1.3790   19.3100 C   0  0  0  0  0  0  0  0  0  0  0  0
    5.2470    1.3190   18.0440 C   0  0  0  0  0  0  0  0  0  0  0  0
  2  1  1  1
  2  3  1  0
  2  4  1  0
  4  5  1  0
  3  6  1  0
  5  7  1  0
  6  8  2  0
  6  9  1  0
  7 10  1  0
  8 11  1  0
  9 12  2  0
 11 13  2  0
 12 13  1  0
 10 14  1  0
 13 15  1  0
 14 16  2  0
 14 17  1  0
 15 18  3  0
 16 19  1  0
 17 20  2  0
 19 21  2  0
 20 21  1  0
M  END
