x0305_0-x0749_1
     RDKit          3D

 23 24  0  0  0  0  0  0  0  0999 V2000
    8.4980   -0.5980   27.6710 C   0  0  0  0  0  0  0  0  0  0  0  0
    8.4460   -0.5410   26.1470 C   0  0  1  0  0  0  0  0  0  0  0  0
    9.6040    0.2100   25.6770 N   0  0  0  0  0  0  0  0  0  0  0  0
    8.4000   -1.9070   25.5430 C   0  0  0  0  0  0  0  0  0  0  0  0
    7.4040   -2.2260   24.3560 C   0  0  0  0  0  0  0  0  0  0  0  0
   10.4690   -0.2450   24.5970 C   0  0  0  0  0  0  0  0  0  0  0  0
    7.0900   -3.5890   24.2620 C   0  0  0  0  0  0  0  0  0  0  0  0
   11.5560    0.4580   24.3520 N   0  0  0  0  0  0  0  0  0  0  0  0
   10.1870   -1.3800   23.8350 C   0  0  0  0  0  0  0  0  0  0  0  0
   12.4840    0.0760   23.3040 C   0  0  0  0  0  0  0  0  0  0  0  0
   11.1030   -1.8220   22.7420 C   0  0  0  0  0  0  0  0  0  0  0  0
    8.1370   -4.3350   23.4490 C   0  0  2  0  0  0  0  0  0  0  0  0
   12.1820   -1.0670   22.5560 C   0  0  0  0  0  0  0  0  0  0  0  0
    8.0910   -4.1720   22.1250 C   0  0  0  0  0  0  0  0  0  0  0  0
    7.9960   -5.6430   23.7490 C   0  0  0  0  0  0  0  0  0  0  0  0
   13.0700   -1.4050   21.5660 C   0  0  0  0  0  0  0  0  0  0  0  0
    6.7240   -4.1920   21.6020 N   0  0  0  0  0  0  0  0  0  0  0  0
    6.8680   -6.2620   22.9040 C   0  0  0  0  0  0  0  0  0  0  0  0
   13.8630   -1.6170   20.5470 N   0  0  0  0  0  0  0  0  0  0  0  0
    6.4680   -3.8960   20.2560 C   0  0  0  0  0  0  0  0  0  0  0  0
    5.9720   -5.3360   22.0850 C   0  0  0  0  0  0  0  0  0  0  0  0
    7.4920   -3.1840   19.3440 C   0  0  0  0  0  0  0  0  0  0  0  0
    5.3840   -4.2440   19.7950 O   0  0  0  0  0  0  0  0  0  0  0  0
  2  1  1  1
  2  3  1  0
  2  4  1  0
  4  5  1  0
  3  6  1  0
  5  7  1  0
  6  8  2  0
  6  9  1  0
  8 10  1  0
  9 11  2  0
 12  7  1  1
 10 13  2  0
 11 13  1  0
 12 14  1  0
 12 15  1  0
 13 16  1  0
 14 17  1  0
 15 18  1  0
 16 19  3  0
 17 20  1  0
 17 21  1  0
 18 21  1  0
 20 22  1  0
 20 23  2  0
M  END
