x0305_0-x1392_0
     RDKit          3D

 24 26  0  0  0  0  0  0  0  0999 V2000
    5.6830   -4.1270   19.8140 O   0  0  0  0  0  0  0  0  0  0  0  0
    6.6460   -3.3420   19.9780 C   0  0  0  0  0  0  0  0  0  0  0  0
    7.5180   -3.0240   18.7870 C   0  0  0  0  0  0  0  0  0  0  0  0
    7.0060   -2.7520   21.1990 N   0  0  0  0  0  0  0  0  0  0  0  0
    8.2210   -1.9220   21.4020 C   0  0  0  0  0  0  0  0  0  0  0  0
    6.3570   -3.1950   22.4480 C   0  0  0  0  0  0  0  0  0  0  0  0
    9.4080   -2.6570   22.0640 C   0  0  2  0  0  0  0  0  0  0  0  0
    7.3610   -3.8220   23.4240 C   0  0  0  0  0  0  0  0  0  0  0  0
    8.8380   -3.5320   23.1840 C   0  0  0  0  0  0  0  0  0  0  0  0
    6.9510   -4.6310   24.5010 C   0  0  0  0  0  0  0  0  0  0  0  0
   10.3160   -1.6330   22.7290 C   0  0  0  0  0  0  0  0  0  0  0  0
    7.9260   -5.2700   25.4910 C   0  0  0  0  0  0  0  0  0  0  0  0
    9.7200   -4.1220   24.0860 C   0  0  0  0  0  0  0  0  0  0  0  0
   11.6450   -1.2420   22.4320 C   0  0  0  0  0  0  0  0  0  0  0  0
    9.7190   -1.0360   23.7900 C   0  0  0  0  0  0  0  0  0  0  0  0
   12.5250   -1.7010   21.4720 C   0  0  0  0  0  0  0  0  0  0  0  0
    9.2610   -5.0010   25.2490 C   0  0  0  0  0  0  0  0  0  0  0  0
   12.2630   -0.2740   23.1620 C   0  0  0  0  0  0  0  0  0  0  0  0
   10.3590   -0.1010   24.5320 C   0  0  0  0  0  0  0  0  0  0  0  0
    9.7080    0.4050   25.6110 N   0  0  0  0  0  0  0  0  0  0  0  0
   13.6260   -2.0150   20.6520 N   0  0  0  0  0  0  0  0  0  0  0  0
   11.6070    0.2940   24.2100 C   0  0  0  0  0  0  0  0  0  0  0  0
    8.6390   -0.3220   26.2810 C   0  0  0  0  0  0  0  0  0  0  0  0
    8.7100   -0.0450   27.7850 C   0  0  0  0  0  0  0  0  0  0  0  0
  1  2  2  0
  2  3  1  0
  2  4  1  0
  4  5  1  0
  4  6  1  0
  5  7  1  0
  6  8  1  0
  7  9  1  0
  8  9  2  0
  8 10  1  0
  7 11  1  1
 10 12  2  0
  9 13  1  0
 11 14  2  0
 11 15  1  0
 14 16  1  0
 12 17  1  0
 13 17  2  0
 14 18  1  0
 15 19  2  0
 19 20  1  0
 16 21  3  0
 18 22  2  0
 19 22  1  0
 20 23  1  0
 23 24  1  0
M  END
