x0350_0-x0350_2
     RDKit          3D

  7  7  0  0  0  0  0  0  0  0999 V2000
    8.9570  -23.4910   -0.1160 N   0  0  0  0  0  0  0  0  0  0  0  0
    8.0370  -23.2540   -1.2240 C   0  0  0  0  0  0  0  0  0  0  0  0
    7.2460  -21.9290   -1.2470 C   0  0  0  0  0  0  0  0  0  0  0  0
    7.6250  -20.5870   -1.7860 C   0  0  0  0  0  0  0  0  0  0  0  0
    5.9050  -21.8090   -0.6920 O   0  0  0  0  0  0  0  0  0  0  0  0
    6.4770  -19.6980   -1.5250 C   0  0  0  0  0  0  0  0  0  0  0  0
    5.5200  -20.4700   -0.8900 C   0  0  0  0  0  0  0  0  0  0  0  0
  1  2  1  0
  2  3  1  0
  3  4  2  0
  3  5  1  0
  4  6  1  0
  5  7  1  0
  6  7  2  0
M  END
