x0354_0-x1334_1
     RDKit          3D

 17 18  0  0  0  0  0  0  0  0999 V2000
    6.3270   -3.3020   19.9180 C   0  0  0  0  0  0  0  0  0  0  0  0
    7.3340   -3.0100   18.8280 C   0  0  0  0  0  0  0  0  0  0  0  0
    5.3840   -4.0740   19.7120 O   0  0  0  0  0  0  0  0  0  0  0  0
    6.5260   -2.6900   21.1710 N   0  0  0  0  0  0  0  0  0  0  0  0
    7.4570   -1.5270   21.1990 C   0  0  0  0  0  0  0  0  0  0  0  0
    6.3220   -3.3140   22.4620 C   0  0  0  0  0  0  0  0  0  0  0  0
    8.6600   -1.7900   21.8540 C   0  0  0  0  0  0  0  0  0  0  0  0
    7.6090   -3.6590   22.9100 C   0  0  0  0  0  0  0  0  0  0  0  0
    8.6050   -2.5820   22.9720 N   0  0  0  0  0  0  0  0  0  0  0  0
    9.8950   -3.1900   23.1640 C   0  0  0  0  0  0  0  0  0  0  0  0
   10.7300   -2.6650   24.2340 C   0  0  2  0  0  0  0  0  0  0  0  0
   10.0190   -1.4990   24.8040 N   0  0  0  0  0  0  0  0  0  0  0  0
   12.0760   -2.4630   24.1810 C   0  0  0  0  0  0  0  0  0  0  0  0
   12.5660   -1.1990   23.5980 N   0  0  0  0  0  0  0  0  0  0  0  0
   10.8470   -0.3220   24.9640 C   0  0  0  0  0  0  0  0  0  0  0  0
   12.9240   -1.3450   22.2010 C   0  0  0  0  0  0  0  0  0  0  0  0
   11.6580   -0.0770   23.8380 C   0  0  0  0  0  0  0  0  0  0  0  0
  1  2  1  0
  1  3  2  0
  1  4  1  0
  4  5  1  0
  4  6  1  0
  5  7  1  0
  6  8  1  0
  7  9  1  0
  8  9  1  0
  9 10  1  0
 11 10  1  6
 11 12  1  0
 11 13  1  0
 13 14  1  0
 12 15  1  0
 14 16  1  0
 14 17  1  0
 15 17  1  0
M  END
