x0354_0-x0752_1
     RDKit          3D

 20 22  0  0  0  0  0  0  0  0999 V2000
    6.5390   -5.7560   22.3690 C   0  0  0  0  0  0  0  0  0  0  0  0
    7.9920   -5.6750   22.7670 C   0  0  0  0  0  0  0  0  0  0  0  0
    8.3840   -4.5860   23.8030 C   0  0  0  0  0  0  0  0  0  0  0  0
    5.7200   -4.8680   23.0410 C   0  0  0  0  0  0  0  0  0  0  0  0
    4.5390   -5.4440   23.4700 C   0  0  0  0  0  0  0  0  0  0  0  0
    6.0060   -3.5010   23.2960 C   0  0  0  0  0  0  0  0  0  0  0  0
    9.2000   -3.3600   23.3210 C   0  0  0  0  0  0  0  0  0  0  0  0
    3.6230   -4.6860   24.1580 C   0  0  0  0  0  0  0  0  0  0  0  0
    5.0320   -2.7520   24.0130 C   0  0  0  0  0  0  0  0  0  0  0  0
    3.8530   -3.3810   24.4280 C   0  0  0  0  0  0  0  0  0  0  0  0
    2.4010   -5.2190   24.6200 O   0  0  0  0  0  0  0  0  0  0  0  0
   10.2940   -2.7880   24.2730 C   0  0  2  0  0  0  0  0  0  0  0  0
    2.7350   -2.8770   25.1490 O   0  0  0  0  0  0  0  0  0  0  0  0
    1.9190   -4.0930   25.2790 C   0  0  0  0  0  0  0  0  0  0  0  0
    9.7280   -1.5550   24.8850 N   0  0  0  0  0  0  0  0  0  0  0  0
   11.5840   -2.6170   23.7480 C   0  0  0  0  0  0  0  0  0  0  0  0
   12.2820   -1.3430   23.7010 N   0  0  0  0  0  0  0  0  0  0  0  0
   10.6720   -0.4360   25.0640 C   0  0  0  0  0  0  0  0  0  0  0  0
   13.0360   -1.2200   22.5270 C   0  0  0  0  0  0  0  0  0  0  0  0
   11.4580   -0.1550   23.9500 C   0  0  0  0  0  0  0  0  0  0  0  0
  1  2  1  0
  2  3  1  0
  1  4  1  0
  4  5  2  0
  4  6  1  0
  3  7  1  0
  5  8  1  0
  6  9  2  0
  8 10  2  0
  9 10  1  0
  8 11  1  0
 12  7  1  6
 10 13  1  0
 11 14  1  0
 13 14  1  0
 12 15  1  0
 12 16  1  0
 16 17  1  0
 15 18  1  0
 17 19  1  0
 17 20  1  0
 18 20  1  0
M  END
