x0354_0-x1458_1
     RDKit          3D

 19 20  0  0  0  0  0  0  0  0999 V2000
    6.2300   -3.5900   25.4890 C   0  0  0  0  0  0  0  0  0  0  0  0
    7.0480   -4.3150   24.4150 C   0  0  1  0  0  0  0  0  0  0  0  0
    6.0960   -5.1050   23.4920 C   0  0  0  0  0  0  0  0  0  0  0  0
    5.0180   -3.3740   25.4540 O   0  0  0  0  0  0  0  0  0  0  0  0
    7.9840   -3.3190   23.6800 C   0  0  1  0  0  0  0  0  0  0  0  0
    9.4660   -3.6120   23.7320 C   0  0  0  0  0  0  0  0  0  0  0  0
    7.4620   -3.0830   22.2610 C   0  0  0  0  0  0  0  0  0  0  0  0
    6.7120   -5.4530   22.2980 C   0  0  0  0  0  0  0  0  0  0  0  0
    6.8720   -4.2200   21.5640 N   0  0  0  0  0  0  0  0  0  0  0  0
   10.3900   -2.7160   24.4150 C   0  0  2  0  0  0  0  0  0  0  0  0
    6.3590   -4.1170   20.2770 C   0  0  0  0  0  0  0  0  0  0  0  0
    9.7330   -1.4500   24.7990 N   0  0  0  0  0  0  0  0  0  0  0  0
   11.4580   -2.5400   23.5190 C   0  0  0  0  0  0  0  0  0  0  0  0
    5.3350   -4.6980   19.9500 O   0  0  0  0  0  0  0  0  0  0  0  0
    7.1920   -3.2900   19.3090 C   0  0  0  0  0  0  0  0  0  0  0  0
   12.2210   -1.4380   23.7070 N   0  0  0  0  0  0  0  0  0  0  0  0
   10.6330   -0.3430   25.1060 C   0  0  0  0  0  0  0  0  0  0  0  0
   13.0810   -1.2140   22.5400 C   0  0  0  0  0  0  0  0  0  0  0  0
   11.5740   -0.2640   24.0920 C   0  0  0  0  0  0  0  0  0  0  0  0
  2  1  1  1
  2  3  1  0
  1  4  2  0
  2  5  1  0
  5  6  1  6
  5  7  1  0
  3  8  1  0
  7  9  1  0
  8  9  1  0
 10  6  1  6
  9 11  1  0
 10 12  1  0
 10 13  1  0
 11 14  2  0
 11 15  1  0
 13 16  1  0
 12 17  1  0
 16 18  1  0
 16 19  1  0
 17 19  1  0
M  END
