x0354_0-x0434_1
     RDKit          3D

 19 20  0  0  0  0  0  0  0  0999 V2000
    8.3360    0.1720   21.5710 C   0  0  0  0  0  0  0  0  0  0  0  0
    7.2000   -0.4390   21.0750 N   0  0  0  0  0  0  0  0  0  0  0  0
    6.4840    0.1590   20.1030 C   0  0  0  0  0  0  0  0  0  0  0  0
    8.8070    1.2660   21.1980 O   0  0  0  0  0  0  0  0  0  0  0  0
    9.0250   -0.6500   22.6400 C   0  0  0  0  0  0  0  0  0  0  0  0
   10.3910   -1.0200   22.0700 C   0  0  0  0  0  0  0  0  0  0  0  0
    6.9990   -0.0250   18.7110 C   0  0  0  0  0  0  0  0  0  0  0  0
    5.2650    0.9650   20.4230 C   0  0  0  0  0  0  0  0  0  0  0  0
   10.8890   -2.4150   22.3990 C   0  0  0  0  0  0  0  0  0  0  0  0
    6.2880    0.6270   17.6330 N   0  0  0  0  0  0  0  0  0  0  0  0
    4.5760    1.6130   19.2550 C   0  0  0  0  0  0  0  0  0  0  0  0
   11.7190   -2.5110   23.6790 C   0  0  2  0  0  0  0  0  0  0  0  0
    5.1040    1.4450   17.8500 C   0  0  0  0  0  0  0  0  0  0  0  0
   10.8980   -2.8250   24.7440 C   0  0  0  0  0  0  0  0  0  0  0  0
   12.5200   -1.3060   23.8830 N   0  0  0  0  0  0  0  0  0  0  0  0
   13.2180   -0.9690   22.6510 C   0  0  0  0  0  0  0  0  0  0  0  0
    9.9560   -1.7350   25.0240 N   0  0  0  0  0  0  0  0  0  0  0  0
   11.6460   -0.1700   24.2570 C   0  0  0  0  0  0  0  0  0  0  0  0
   10.6530   -0.4540   25.1990 C   0  0  0  0  0  0  0  0  0  0  0  0
  1  2  1  0
  2  3  1  0
  1  4  2  0
  1  5  1  0
  5  6  1  0
  3  7  2  0
  3  8  1  0
  6  9  1  0
  7 10  1  0
  8 11  2  0
 12  9  1  6
 10 13  2  0
 11 13  1  0
 12 14  1  0
 12 15  1  0
 15 16  1  0
 14 17  1  0
 15 18  1  0
 17 19  1  0
 18 19  1  0
M  END
