x0350_2-x1002_0
     RDKit          3D

 17 18  0  0  0  0  0  0  0  0999 V2000
    7.9250  -23.4760   -1.1170 C   0  0  0  0  0  0  0  0  0  0  0  0
    9.0330  -23.4970   -0.3610 C   0  0  0  0  0  0  0  0  0  0  0  0
    9.6000  -24.8750   -0.1010 C   0  0  0  0  0  0  0  0  0  0  0  0
    7.2410  -22.1240   -1.1380 C   0  0  0  0  0  0  0  0  0  0  0  0
    7.7250  -20.8000   -1.6640 C   0  0  0  0  0  0  0  0  0  0  0  0
    5.9210  -21.8360   -0.6370 O   0  0  0  0  0  0  0  0  0  0  0  0
   10.3540  -25.1870    1.2100 C   0  0  0  0  0  0  0  0  0  0  0  0
    6.7510  -19.8580   -1.4600 C   0  0  0  0  0  0  0  0  0  0  0  0
    5.6300  -20.4280   -0.8430 C   0  0  0  0  0  0  0  0  0  0  0  0
   10.2640  -26.6770    1.6110 C   0  0  0  0  0  0  0  0  0  0  0  0
   10.6030  -27.0580    2.7450 O   0  0  0  0  0  0  0  0  0  0  0  0
   11.7820  -26.5480    3.2470 C   0  0  0  0  0  0  0  0  0  0  0  0
   12.8200  -27.3360    3.6300 N   0  0  0  0  0  0  0  0  0  0  0  0
   11.8780  -25.1550    3.3480 C   0  0  0  0  0  0  0  0  0  0  0  0
   13.9960  -26.7510    4.1280 C   0  0  0  0  0  0  0  0  0  0  0  0
   13.1210  -24.5370    3.8750 C   0  0  0  0  0  0  0  0  0  0  0  0
   14.1360  -25.3830    4.2460 C   0  0  0  0  0  0  0  0  0  0  0  0
  1  2  1  0
  2  3  1  0
  1  4  1  0
  4  5  2  0
  4  6  1  0
  3  7  1  0
  5  8  1  0
  6  9  1  0
  8  9  2  0
  7 10  1  0
 10 11  1  0
 11 12  1  0
 12 13  2  0
 12 14  1  0
 13 15  1  0
 14 16  2  0
 15 17  2  0
 16 17  1  0
M  END
