x0387_0-x0981_1-x1418_1-x1412_0
     RDKit          3D

 34 36  0  0  0  0  0  0  0  0999 V2000
    4.1160   -5.2160   23.1980 C   0  0  0  0  0  0  0  0  0  0  0  0
    2.8100   -5.9660   23.5470 C   0  0  1  0  0  0  0  0  0  0  0  0
    2.5800   -7.2170   22.7920 N   0  0  0  0  0  0  0  0  0  0  0  0
    4.2100   -3.9790   23.6090 N   0  0  0  0  0  0  0  0  0  0  0  0
    2.7400   -6.2310   25.0510 C   0  0  0  0  0  0  0  0  0  0  0  0
    5.3650   -3.1060   23.3660 C   0  0  0  0  0  0  0  0  0  0  0  0
    1.3710   -7.4260   22.1370 C   0  0  0  0  0  0  0  0  0  0  0  0
    3.1560   -7.6770   25.3010 C   0  0  0  0  0  0  0  0  0  0  0  0
    6.4460   -3.6660   22.4170 C   0  0  2  0  0  0  0  0  0  0  0  0
    1.2460   -8.7180   21.3690 C   0  0  0  0  0  0  0  0  0  0  0  0
    0.4610   -6.6010   22.1670 O   0  0  0  0  0  0  0  0  0  0  0  0
    2.5320   -8.3290   26.3220 N   0  0  0  0  0  0  0  0  0  0  0  0
    4.0040   -8.1960   24.6130 O   0  0  0  0  0  0  0  0  0  0  0  0
    7.7240   -3.8990   23.2140 C   0  0  0  0  0  0  0  0  0  0  0  0
    6.7120   -2.9030   21.2080 N   0  0  0  0  0  0  0  0  0  0  0  0
    6.3810   -3.3140   19.9070 C   0  0  0  0  0  0  0  0  0  0  0  0
    8.6260   -2.7250   23.2790 N   0  0  0  0  0  0  0  0  0  0  0  0
    7.5150   -1.6790   21.4440 C   0  0  0  0  0  0  0  0  0  0  0  0
    7.3280   -2.9610   18.7880 C   0  0  0  0  0  0  0  0  0  0  0  0
    5.3830   -4.0000   19.6610 O   0  0  0  0  0  0  0  0  0  0  0  0
    8.7570   -2.1560   24.5450 C   0  0  2  0  0  0  0  0  0  0  0  0
    8.7680   -1.9350   22.0190 C   0  0  0  0  0  0  0  0  0  0  0  0
    7.7500   -1.6050   25.0080 O   0  0  0  0  0  0  0  0  0  0  0  0
    9.9370   -1.3400   24.7630 C   0  0  0  0  0  0  0  0  0  0  0  0
    8.7390   -3.3580   25.5120 C   0  0  0  0  0  0  0  0  0  0  0  0
    9.7350   -4.4510   25.5190 C   0  0  0  0  0  0  0  0  0  0  0  0
    7.6220   -3.7660   26.7910 S   0  0  0  0  0  0  0  0  0  0  0  0
   11.1200   -1.2130   23.8130 C   0  0  0  0  0  0  0  0  0  0  0  0
    9.5310   -5.4580   26.4700 C   0  0  0  0  0  0  0  0  0  0  0  0
    8.4310   -5.2330   27.2440 C   0  0  0  0  0  0  0  0  0  0  0  0
   11.9940   -0.1260   23.8750 C   0  0  0  0  0  0  0  0  0  0  0  0
   11.5390   -2.0650   22.8020 C   0  0  0  0  0  0  0  0  0  0  0  0
   13.0340   -0.1240   22.9740 C   0  0  0  0  0  0  0  0  0  0  0  0
   12.9570   -1.5230   21.9920 S   0  0  0  0  0  0  0  0  0  0  0  0
  2  1  1  1
  2  3  1  0
  1  4  2  3
  2  5  1  0
  4  6  1  0
  3  7  1  0
  5  8  1  0
  9  6  1  1
  7 10  1  0
  7 11  2  0
  8 12  1  0
  8 13  2  0
  9 14  1  0
  9 15  1  0
 15 16  1  0
 14 17  1  0
 15 18  1  0
 16 19  1  0
 16 20  2  0
 17 21  1  0
 17 22  1  0
 18 22  1  0
 21 23  1  1
 21 24  1  0
 21 25  1  0
 25 26  2  0
 25 27  1  0
 24 28  1  0
 26 29  1  0
 27 30  1  0
 29 30  2  0
 28 31  1  0
 28 32  2  0
 31 33  2  0
 32 34  1  0
 33 34  1  0
M  END
