x0387_0-x0692_1
     RDKit          3D

 15 16  0  0  0  0  0  0  0  0999 V2000
    6.3730   -3.2190   19.8440 C   0  0  0  0  0  0  0  0  0  0  0  0
    7.3180   -2.9900   18.6960 C   0  0  0  0  0  0  0  0  0  0  0  0
    5.4710   -4.0680   19.7390 O   0  0  0  0  0  0  0  0  0  0  0  0
    6.6080   -2.4500   20.9840 N   0  0  0  0  0  0  0  0  0  0  0  0
    7.5040   -1.3340   20.9810 C   0  0  0  0  0  0  0  0  0  0  0  0
    6.3330   -3.0200   22.3030 C   0  0  0  0  0  0  0  0  0  0  0  0
    8.7210   -1.6090   21.6310 C   0  0  0  0  0  0  0  0  0  0  0  0
    7.6030   -3.1220   23.1670 C   0  0  0  0  0  0  0  0  0  0  0  0
    8.4570   -1.9320   23.0600 N   0  0  0  0  0  0  0  0  0  0  0  0
    9.6900   -2.0620   23.8430 C   0  0  0  0  0  0  0  0  0  0  0  0
   10.8980   -1.5810   23.2890 C   0  0  0  0  0  0  0  0  0  0  0  0
   11.3160   -0.2970   23.4660 C   0  0  0  0  0  0  0  0  0  0  0  0
   11.8470   -2.2340   22.5210 C   0  0  0  0  0  0  0  0  0  0  0  0
   12.5230    0.0660   22.9040 C   0  0  0  0  0  0  0  0  0  0  0  0
   13.2360   -1.2250   22.0720 S   0  0  0  0  0  0  0  0  0  0  0  0
  1  2  1  0
  1  3  2  0
  1  4  1  0
  4  5  1  0
  4  6  1  0
  5  7  1  0
  6  8  1  0
  7  9  1  0
  8  9  1  0
  9 10  1  0
 10 11  1  0
 11 12  1  0
 11 13  2  0
 12 14  2  0
 13 15  1  0
 14 15  1  0
M  END
