x0387_0-x0831_1
     RDKit          3D

 16 17  0  0  0  0  0  0  0  0999 V2000
    6.2330   -3.4100   20.0190 C   0  0  0  0  0  0  0  0  0  0  0  0
    7.1800   -3.0090   18.8820 C   0  0  0  0  0  0  0  0  0  0  0  0
    5.3860   -4.2870   19.8080 O   0  0  0  0  0  0  0  0  0  0  0  0
    6.3380   -2.8090   21.2840 N   0  0  0  0  0  0  0  0  0  0  0  0
    6.4150   -1.3430   21.3130 C   0  0  0  0  0  0  0  0  0  0  0  0
    7.2000   -3.4930   22.2580 C   0  0  0  0  0  0  0  0  0  0  0  0
    7.7080   -0.8430   21.0440 C   0  0  0  0  0  0  0  0  0  0  0  0
    7.5050   -2.6830   23.3650 C   0  0  0  0  0  0  0  0  0  0  0  0
    8.5530   -1.6820   23.0880 N   0  0  0  0  0  0  0  0  0  0  0  0
    8.8090   -1.4170   21.6950 C   0  0  0  0  0  0  0  0  0  0  0  0
    9.7880   -1.9300   23.8540 C   0  0  0  0  0  0  0  0  0  0  0  0
   11.0920   -1.6360   23.1240 C   0  0  0  0  0  0  0  0  0  0  0  0
   11.9670   -0.6560   23.5230 C   0  0  0  0  0  0  0  0  0  0  0  0
   11.6220   -2.2490   22.0050 C   0  0  0  0  0  0  0  0  0  0  0  0
   13.1220   -0.4490   22.8320 C   0  0  0  0  0  0  0  0  0  0  0  0
   13.1460   -1.6180   21.5270 S   0  0  0  0  0  0  0  0  0  0  0  0
  1  2  1  0
  1  3  2  0
  1  4  1  0
  4  5  1  0
  4  6  1  0
  5  7  1  0
  6  8  1  0
  8  9  1  0
  7 10  1  0
  9 10  1  0
  9 11  1  0
 11 12  1  0
 12 13  1  0
 12 14  2  0
 13 15  2  0
 14 16  1  0
 15 16  1  0
M  END
