x0387_0-x0830_0
     RDKit          3D

 15 16  0  0  0  0  0  0  0  0999 V2000
    6.4830   -2.8950   19.8480 C   0  0  0  0  0  0  0  0  0  0  0  0
    7.6980   -3.7010   19.6620 C   0  0  0  0  0  0  0  0  0  0  0  0
    5.5120   -3.1680   19.1120 O   0  0  0  0  0  0  0  0  0  0  0  0
    6.5830   -1.9770   20.8880 N   0  0  0  0  0  0  0  0  0  0  0  0
    6.4170   -2.5940   22.2220 C   0  0  0  0  0  0  0  0  0  0  0  0
    7.6410   -0.9040   20.8460 C   0  0  0  0  0  0  0  0  0  0  0  0
    7.7400   -2.9130   22.9310 C   0  0  0  0  0  0  0  0  0  0  0  0
    8.9410   -1.2770   21.6630 C   0  0  0  0  0  0  0  0  0  0  0  0
    8.6070   -1.7420   23.0010 N   0  0  0  0  0  0  0  0  0  0  0  0
    9.6910   -1.8670   23.8440 C   0  0  0  0  0  0  0  0  0  0  0  0
   10.9530   -1.4610   23.3740 C   0  0  0  0  0  0  0  0  0  0  0  0
   11.6990   -0.2450   23.9000 C   0  0  0  0  0  0  0  0  0  0  0  0
   11.7290   -2.0490   22.3830 C   0  0  0  0  0  0  0  0  0  0  0  0
   12.9120   -0.0490   23.2730 C   0  0  0  0  0  0  0  0  0  0  0  0
   13.2220   -1.2390   22.0920 S   0  0  0  0  0  0  0  0  0  0  0  0
  1  2  1  0
  1  3  2  0
  1  4  1  0
  4  5  1  0
  4  6  1  0
  5  7  1  0
  6  8  1  0
  7  9  1  0
  8  9  1  0
  9 10  1  0
 10 11  1  0
 11 12  1  0
 11 13  2  0
 12 14  2  0
 13 15  1  0
 14 15  1  0
M  END
