x0387_0-x1412_0-x1334_1-x0434_2
     RDKit          3D

 29 32  0  0  0  0  0  0  0  0999 V2000
    6.3900   -3.3370   19.9080 C   0  0  0  0  0  0  0  0  0  0  0  0
    7.2950   -3.0240   18.7380 C   0  0  0  0  0  0  0  0  0  0  0  0
    5.4360   -4.1160   19.7400 O   0  0  0  0  0  0  0  0  0  0  0  0
    6.7030   -2.7600   21.1330 N   0  0  0  0  0  0  0  0  0  0  0  0
    7.7510   -1.7150   21.1600 C   0  0  1  0  0  0  0  0  0  0  0  0
    6.3870   -3.3330   22.4390 C   0  0  0  0  0  0  0  0  0  0  0  0
    7.1030   -0.4350   21.3420 N   0  0  0  0  0  0  0  0  0  0  0  0
    8.8510   -1.9090   22.2070 C   0  0  0  0  0  0  0  0  0  0  0  0
    7.5830   -3.7670   23.0090 C   0  0  0  0  0  0  0  0  0  0  0  0
    8.4410   -2.6220   23.2940 N   0  0  0  0  0  0  0  0  0  0  0  0
    6.4370    0.2020   20.1860 C   0  0  0  0  0  0  0  0  0  0  0  0
    8.7790   -2.3490   24.6180 C   0  0  2  0  0  0  0  0  0  0  0  0
    6.9820    0.0120   18.9100 C   0  0  0  0  0  0  0  0  0  0  0  0
    5.2770    0.9940   20.2790 C   0  0  0  0  0  0  0  0  0  0  0  0
    7.8800   -1.5950   24.9880 O   0  0  0  0  0  0  0  0  0  0  0  0
   10.0320   -1.4930   24.8090 C   0  0  0  0  0  0  0  0  0  0  0  0
    8.7050   -3.5100   25.6520 C   0  0  0  0  0  0  0  0  0  0  0  0
    6.3790    0.6280   17.7220 N   0  0  0  0  0  0  0  0  0  0  0  0
    4.6580    1.5990   19.1820 C   0  0  0  0  0  0  0  0  0  0  0  0
    9.7400   -4.6120   25.6410 C   0  0  0  0  0  0  0  0  0  0  0  0
    7.5090   -3.7790   26.9340 S   0  0  0  0  0  0  0  0  0  0  0  0
   11.1930   -1.2580   23.8620 C   0  0  0  0  0  0  0  0  0  0  0  0
    5.1910    1.4320   17.9160 C   0  0  0  0  0  0  0  0  0  0  0  0
    9.5310   -5.5980   26.6120 C   0  0  0  0  0  0  0  0  0  0  0  0
    8.2910   -5.2600   27.4420 C   0  0  0  0  0  0  0  0  0  0  0  0
   11.9290   -0.1250   23.9880 C   0  0  0  0  0  0  0  0  0  0  0  0
   11.5800   -2.1330   22.8580 C   0  0  0  0  0  0  0  0  0  0  0  0
   12.9550   -0.1620   22.9980 C   0  0  0  0  0  0  0  0  0  0  0  0
   12.9460   -1.5360   22.0130 S   0  0  0  0  0  0  0  0  0  0  0  0
  1  2  1  0
  1  3  2  0
  1  4  1  0
  4  5  1  0
  4  6  1  0
  5  7  1  1
  5  8  1  0
  6  9  1  0
  8 10  1  0
  9 10  1  0
  7 11  1  0
 10 12  1  0
 11 13  2  0
 11 14  1  0
 12 15  1  1
 12 16  1  0
 12 17  1  0
 13 18  1  0
 14 19  2  0
 17 20  2  0
 17 21  1  0
 16 22  1  0
 18 23  2  0
 19 23  1  0
 20 24  1  0
 21 25  1  0
 24 25  2  0
 22 26  1  0
 22 27  2  0
 26 28  2  0
 27 29  1  0
 28 29  1  0
M  END
