x0387_0-x1418_1
     RDKit          3D

 15 16  0  0  0  0  0  0  0  0999 V2000
    6.4150   -3.1870   19.8400 C   0  0  0  0  0  0  0  0  0  0  0  0
    7.3700   -3.0030   18.6930 C   0  0  0  0  0  0  0  0  0  0  0  0
    5.4930   -4.0190   19.7170 O   0  0  0  0  0  0  0  0  0  0  0  0
    6.6540   -2.4330   20.9830 N   0  0  0  0  0  0  0  0  0  0  0  0
    6.4820   -3.0900   22.3080 C   0  0  0  0  0  0  0  0  0  0  0  0
    7.5720   -1.2740   21.0000 C   0  0  0  0  0  0  0  0  0  0  0  0
    7.8140   -3.2140   23.1090 C   0  0  0  0  0  0  0  0  0  0  0  0
    8.8960   -1.5820   21.7230 C   0  0  0  0  0  0  0  0  0  0  0  0
    8.6380   -1.9820   23.1080 N   0  0  0  0  0  0  0  0  0  0  0  0
    9.6130   -1.9320   23.9650 C   0  0  0  0  0  0  0  0  0  0  0  0
   10.9390   -1.4060   23.4430 C   0  0  0  0  0  0  0  0  0  0  0  0
   11.7150   -0.1430   23.8610 C   0  0  0  0  0  0  0  0  0  0  0  0
   11.5930   -2.1220   22.4490 C   0  0  0  0  0  0  0  0  0  0  0  0
   12.9070    0.0740   23.2000 C   0  0  0  0  0  0  0  0  0  0  0  0
   13.1330   -1.2450   22.0610 S   0  0  0  0  0  0  0  0  0  0  0  0
  1  2  1  0
  1  3  2  0
  1  4  1  0
  4  5  1  0
  4  6  1  0
  5  7  1  0
  6  8  1  0
  7  9  1  0
  8  9  1  0
  9 10  1  0
 10 11  1  0
 11 12  1  0
 11 13  2  0
 12 14  2  0
 13 15  1  0
 14 15  1  0
M  END
