x0387_0-x0874_0-x1412_0-x1334_1
     RDKit          3D

 22 24  0  0  0  0  0  0  0  0999 V2000
    6.3280   -3.3030   19.8930 C   0  0  0  0  0  0  0  0  0  0  0  0
    7.2900   -2.9690   18.7640 C   0  0  0  0  0  0  0  0  0  0  0  0
    5.3840   -4.0870   19.7240 O   0  0  0  0  0  0  0  0  0  0  0  0
    6.5640   -2.7200   21.1480 N   0  0  0  0  0  0  0  0  0  0  0  0
    7.5830   -1.6450   21.2390 C   0  0  0  0  0  0  0  0  0  0  0  0
    6.2150   -3.3660   22.4250 C   0  0  0  0  0  0  0  0  0  0  0  0
    8.7960   -1.9230   22.1620 C   0  0  0  0  0  0  0  0  0  0  0  0
    7.5290   -3.8630   23.0640 C   0  0  0  0  0  0  0  0  0  0  0  0
    8.5230   -2.8060   23.3090 N   0  0  0  0  0  0  0  0  0  0  0  0
    8.7240   -2.3430   24.6360 C   0  0  2  0  0  0  0  0  0  0  0  0
    7.8920   -1.4970   24.9820 O   0  0  0  0  0  0  0  0  0  0  0  0
    9.9120   -1.5650   24.8970 C   0  0  0  0  0  0  0  0  0  0  0  0
    8.8250   -3.4990   25.5460 C   0  0  0  0  0  0  0  0  0  0  0  0
    9.7870   -4.5140   25.6490 C   0  0  0  0  0  0  0  0  0  0  0  0
    7.5920   -3.7690   26.7490 S   0  0  0  0  0  0  0  0  0  0  0  0
   11.0870   -1.3310   23.8990 C   0  0  0  0  0  0  0  0  0  0  0  0
    9.4950   -5.4330   26.6410 C   0  0  0  0  0  0  0  0  0  0  0  0
    8.3550   -5.1840   27.3380 C   0  0  0  0  0  0  0  0  0  0  0  0
   11.9510   -0.0900   24.0140 C   0  0  0  0  0  0  0  0  0  0  0  0
   11.5370   -2.2360   22.7440 C   0  0  0  0  0  0  0  0  0  0  0  0
   13.0840   -0.0460   22.9430 C   0  0  0  0  0  0  0  0  0  0  0  0
   12.9470   -1.4320   22.0050 S   0  0  0  0  0  0  0  0  0  0  0  0
  1  2  1  0
  1  3  2  0
  1  4  1  0
  4  5  1  0
  4  6  1  0
  5  7  1  0
  6  8  1  0
  7  9  1  0
  8  9  1  0
  9 10  1  0
 10 11  1  1
 10 12  1  0
 10 13  1  0
 13 14  2  0
 13 15  1  0
 12 16  1  0
 14 17  1  0
 15 18  1  0
 17 18  2  0
 16 19  1  0
 16 20  2  0
 19 21  2  0
 20 22  1  0
 21 22  1  0
M  END
