x0387_0-x1334_1-x0691_1
     RDKit          3D

 28 30  0  0  0  0  0  0  0  0999 V2000
    6.3970   -3.2730   19.8800 C   0  0  0  0  0  0  0  0  0  0  0  0
    7.3500   -3.0190   18.7460 C   0  0  0  0  0  0  0  0  0  0  0  0
    5.4270   -4.0300   19.7010 O   0  0  0  0  0  0  0  0  0  0  0  0
    6.7060   -2.6680   21.0870 N   0  0  0  0  0  0  0  0  0  0  0  0
    7.4100   -1.5510   21.1110 C   0  0  0  0  0  0  0  0  0  0  0  0
    6.6030   -3.4060   22.3810 C   0  0  2  0  0  0  0  0  0  0  0  0
    5.1210   -3.3050   22.8170 C   0  0  0  0  0  0  0  0  0  0  0  0
    8.7630   -1.7380   21.8160 C   0  0  0  0  0  0  0  0  0  0  0  0
    7.8390   -3.2360   23.3360 C   0  0  0  0  0  0  0  0  0  0  0  0
    4.4590   -4.6610   23.1020 C   0  0  0  0  0  0  0  0  0  0  0  0
    8.5140   -2.0630   23.2100 N   0  0  0  0  0  0  0  0  0  0  0  0
    5.2200   -5.6100   24.0440 C   0  0  0  0  0  0  0  0  0  0  0  0
    9.6750   -1.9640   24.1140 C   0  0  0  0  0  0  0  0  0  0  0  0
    4.6430   -5.6110   25.7270 S   0  0  0  0  0  0  0  0  0  0  0  0
   10.9640   -1.4580   23.5110 C   0  0  0  0  0  0  0  0  0  0  0  0
    3.9380   -6.8570   25.9610 O   0  0  0  0  0  0  0  0  0  0  0  0
    5.7250   -5.2050   26.6000 O   0  0  0  0  0  0  0  0  0  0  0  0
    3.4680   -4.3640   25.7510 C   0  0  0  0  0  0  0  0  0  0  0  0
   11.6580   -0.3010   23.9060 C   0  0  0  0  0  0  0  0  0  0  0  0
   11.6470   -2.0790   22.4820 C   0  0  0  0  0  0  0  0  0  0  0  0
    3.8630   -3.0020   25.8490 C   0  0  0  0  0  0  0  0  0  0  0  0
    2.0900   -4.6770   25.6750 C   0  0  0  0  0  0  0  0  0  0  0  0
   12.8410   -0.0130   23.2250 C   0  0  0  0  0  0  0  0  0  0  0  0
   13.1480   -1.2010   22.0440 S   0  0  0  0  0  0  0  0  0  0  0  0
    2.9190   -1.9630   25.8760 C   0  0  0  0  0  0  0  0  0  0  0  0
    1.1990   -3.6040   25.7060 C   0  0  0  0  0  0  0  0  0  0  0  0
    3.3060   -0.6840   25.9690 F   0  0  0  0  0  0  0  0  0  0  0  0
    1.5730   -2.2810   25.8050 C   0  0  0  0  0  0  0  0  0  0  0  0
  1  2  1  0
  1  3  2  0
  1  4  1  0
  4  5  1  0
  4  6  1  0
  6  7  1  1
  5  8  1  0
  6  9  1  0
  7 10  1  0
  8 11  1  0
  9 11  1  0
 10 12  1  0
 11 13  1  0
 14 12  1  0
 13 15  1  0
 14 16  2  0
 14 17  2  0
 14 18  1  0
 15 19  1  0
 15 20  2  0
 18 21  2  0
 18 22  1  0
 19 23  2  0
 20 24  1  0
 23 24  1  0
 21 25  1  0
 22 26  2  0
 25 27  1  0
 25 28  2  0
 26 28  1  0
M  END
