x0387_0-x1334_1-x0397_0
     RDKit          3D

 18 20  0  0  0  0  0  0  0  0999 V2000
    6.3450   -3.3280   19.9020 C   0  0  0  0  0  0  0  0  0  0  0  0
    7.2830   -3.0100   18.7530 C   0  0  0  0  0  0  0  0  0  0  0  0
    5.4300   -4.1610   19.7860 O   0  0  0  0  0  0  0  0  0  0  0  0
    6.6220   -2.6220   21.0840 N   0  0  0  0  0  0  0  0  0  0  0  0
    7.5270   -1.4420   21.0720 C   0  0  0  0  0  0  0  0  0  0  0  0
    6.4540   -3.2760   22.4110 C   0  0  2  0  0  0  0  0  0  0  0  0
    8.8340   -1.7070   21.8060 C   0  0  0  0  0  0  0  0  0  0  0  0
    7.7780   -3.3270   23.2180 C   0  0  0  0  0  0  0  0  0  0  0  0
    5.6770   -4.5650   22.3610 C   0  0  0  0  0  0  0  0  0  0  0  0
    8.5900   -2.0870   23.1870 N   0  0  0  0  0  0  0  0  0  0  0  0
    6.0890   -5.6280   23.0240 C   0  0  0  0  0  0  0  0  0  0  0  0
    6.2180   -6.0250   21.7900 C   0  0  0  0  0  0  0  0  0  0  0  0
    9.7560   -2.1460   23.9830 C   0  0  0  0  0  0  0  0  0  0  0  0
   10.9900   -1.5170   23.3780 C   0  0  0  0  0  0  0  0  0  0  0  0
   11.3390   -0.1850   23.4180 C   0  0  0  0  0  0  0  0  0  0  0  0
   11.9690   -2.2130   22.6880 C   0  0  0  0  0  0  0  0  0  0  0  0
   12.5190    0.1090   22.8100 C   0  0  0  0  0  0  0  0  0  0  0  0
   13.2660   -1.2520   22.1260 S   0  0  0  0  0  0  0  0  0  0  0  0
  1  2  1  0
  1  3  2  0
  1  4  1  0
  4  5  1  0
  4  6  1  0
  5  7  1  0
  6  8  1  0
  6  9  1  6
  7 10  1  0
  8 10  1  0
  9 11  1  0
  9 12  1  0
 11 12  1  0
 10 13  1  0
 13 14  1  0
 14 15  1  0
 14 16  2  0
 15 17  2  0
 16 18  1  0
 17 18  1  0
M  END
