x0387_0-x0755_0
     RDKit          3D

 17 18  0  0  0  0  0  0  0  0999 V2000
    6.2980   -4.5630   20.5380 C   0  0  0  0  0  0  0  0  0  0  0  0
    7.2800   -3.4950   20.0200 C   0  0  0  0  0  0  0  0  0  0  0  0
    5.2490   -4.7190   19.9380 O   0  0  0  0  0  0  0  0  0  0  0  0
    6.5830   -5.3680   21.6520 N   0  0  0  0  0  0  0  0  0  0  0  0
    7.6180   -4.9570   22.5790 C   0  0  0  0  0  0  0  0  0  0  0  0
    5.6510   -6.3150   22.2310 C   0  0  0  0  0  0  0  0  0  0  0  0
    7.1200   -4.5690   23.8270 C   0  0  1  0  0  0  0  0  0  0  0  0
    4.9220   -5.7350   23.4430 C   0  0  0  0  0  0  0  0  0  0  0  0
    7.6340   -3.1390   24.0930 C   0  0  0  0  0  0  0  0  0  0  0  0
    5.6470   -4.6060   24.0570 N   0  0  0  0  0  0  0  0  0  0  0  0
    9.0900   -2.9800   23.6140 C   0  0  0  0  0  0  0  0  0  0  0  0
    9.6780   -1.6000   23.9030 C   0  0  0  0  0  0  0  0  0  0  0  0
   10.9960   -1.4080   23.2210 C   0  0  0  0  0  0  0  0  0  0  0  0
   11.7930   -0.1120   23.3730 C   0  0  0  0  0  0  0  0  0  0  0  0
   11.6740   -2.2550   22.4180 C   0  0  0  0  0  0  0  0  0  0  0  0
   13.0000   -0.0410   22.7200 C   0  0  0  0  0  0  0  0  0  0  0  0
   13.2770   -1.5420   21.8320 S   0  0  0  0  0  0  0  0  0  0  0  0
  1  2  1  0
  1  3  2  0
  1  4  1  0
  4  5  1  0
  4  6  1  0
  5  7  1  0
  6  8  1  0
  7  9  1  6
  7 10  1  0
  8 10  1  0
  9 11  1  0
 11 12  1  0
 12 13  1  0
 13 14  1  0
 13 15  2  0
 14 16  2  0
 15 17  1  0
 16 17  1  0
M  END
