x0387_0-x1418_1-x1384_2
     RDKit          3D

 21 23  0  0  0  0  0  0  0  0999 V2000
    6.3440   -3.2700   19.8550 C   0  0  0  0  0  0  0  0  0  0  0  0
    7.2770   -2.9530   18.6960 C   0  0  0  0  0  0  0  0  0  0  0  0
    5.4950   -4.1630   19.7760 O   0  0  0  0  0  0  0  0  0  0  0  0
    6.5610   -2.4490   20.9960 N   0  0  0  0  0  0  0  0  0  0  0  0
    6.5510   -2.9600   22.4160 C   0  0  2  0  0  0  0  0  0  0  0  0
    7.5340   -1.3330   20.8100 C   0  0  0  0  0  0  0  0  0  0  0  0
    7.9790   -3.2770   22.8910 C   0  0  0  0  0  0  0  0  0  0  0  0
    8.8970   -1.5550   21.5270 C   0  0  0  0  0  0  0  0  0  0  0  0
    5.5540   -4.0050   22.8620 C   0  0  0  0  0  0  0  0  0  0  0  0
    8.7220   -2.0300   22.8930 N   0  0  0  0  0  0  0  0  0  0  0  0
    5.4390   -5.3350   22.4750 C   0  0  0  0  0  0  0  0  0  0  0  0
    4.6240   -3.5610   23.8150 C   0  0  0  0  0  0  0  0  0  0  0  0
    9.6840   -1.8800   23.8880 C   0  0  0  0  0  0  0  0  0  0  0  0
    3.6400   -4.3710   24.3630 C   0  0  0  0  0  0  0  0  0  0  0  0
    4.3380   -6.2160   23.0990 C   0  0  0  0  0  0  0  0  0  0  0  0
   10.9820   -1.3530   23.3570 C   0  0  0  0  0  0  0  0  0  0  0  0
    3.4530   -5.6940   24.0470 C   0  0  0  0  0  0  0  0  0  0  0  0
   11.4690   -0.0670   23.3610 C   0  0  0  0  0  0  0  0  0  0  0  0
   11.9320   -2.1470   22.7450 C   0  0  0  0  0  0  0  0  0  0  0  0
   12.7270    0.1770   22.8120 C   0  0  0  0  0  0  0  0  0  0  0  0
   13.3370   -1.3000   22.2260 S   0  0  0  0  0  0  0  0  0  0  0  0
  1  2  1  0
  1  3  2  0
  1  4  1  0
  4  5  1  0
  4  6  1  0
  5  7  1  0
  6  8  1  0
  5  9  1  6
  7 10  1  0
  8 10  1  0
  9 11  2  0
  9 12  1  0
 10 13  1  0
 12 14  2  0
 11 15  1  0
 13 16  1  0
 14 17  1  0
 15 17  2  0
 16 18  1  0
 16 19  2  0
 18 20  2  0
 19 21  1  0
 20 21  1  0
M  END
