x0387_0-x1334_1
     RDKit          3D

 15 16  0  0  0  0  0  0  0  0999 V2000
    6.3700   -3.2880   19.8760 C   0  0  0  0  0  0  0  0  0  0  0  0
    7.3040   -3.0000   18.7230 C   0  0  0  0  0  0  0  0  0  0  0  0
    5.4560   -4.1110   19.7490 O   0  0  0  0  0  0  0  0  0  0  0  0
    6.6340   -2.5970   21.0590 N   0  0  0  0  0  0  0  0  0  0  0  0
    7.5650   -1.4510   21.0630 C   0  0  0  0  0  0  0  0  0  0  0  0
    6.4570   -3.3000   22.3450 C   0  0  0  0  0  0  0  0  0  0  0  0
    8.8780   -1.7580   21.8360 C   0  0  0  0  0  0  0  0  0  0  0  0
    7.7030   -3.3510   23.2660 C   0  0  0  0  0  0  0  0  0  0  0  0
    8.5560   -2.1280   23.2030 N   0  0  0  0  0  0  0  0  0  0  0  0
    9.6970   -2.1200   24.1010 C   0  0  0  0  0  0  0  0  0  0  0  0
   10.9700   -1.5370   23.5270 C   0  0  0  0  0  0  0  0  0  0  0  0
   11.6520   -0.2390   23.9910 C   0  0  0  0  0  0  0  0  0  0  0  0
   11.7060   -2.0980   22.5020 C   0  0  0  0  0  0  0  0  0  0  0  0
   12.8870    0.0000   23.1910 C   0  0  0  0  0  0  0  0  0  0  0  0
   13.1160   -1.2360   22.0570 S   0  0  0  0  0  0  0  0  0  0  0  0
  1  2  1  0
  1  3  2  0
  1  4  1  0
  4  5  1  0
  4  6  1  0
  5  7  1  0
  6  8  1  0
  7  9  1  0
  8  9  1  0
  9 10  1  0
 10 11  1  0
 11 12  1  0
 11 13  2  0
 12 14  2  0
 13 15  1  0
 14 15  1  0
M  END
