x0387_0-x1418_1-x1334_1-x0397_0
     RDKit          3D

 18 20  0  0  0  0  0  0  0  0999 V2000
    6.2480   -3.3210   19.9270 C   0  0  0  0  0  0  0  0  0  0  0  0
    7.1850   -3.0150   18.7720 C   0  0  0  0  0  0  0  0  0  0  0  0
    5.3730   -4.1760   19.7470 O   0  0  0  0  0  0  0  0  0  0  0  0
    6.4350   -2.6450   21.1250 N   0  0  0  0  0  0  0  0  0  0  0  0
    6.3850   -3.2790   22.4600 C   0  0  2  0  0  0  0  0  0  0  0  0
    7.1550   -1.3700   21.0500 C   0  0  0  0  0  0  0  0  0  0  0  0
    7.7780   -3.2870   23.1260 C   0  0  0  0  0  0  0  0  0  0  0  0
    8.5500   -1.4850   21.6520 C   0  0  0  0  0  0  0  0  0  0  0  0
    5.7730   -4.5350   22.4330 C   0  0  0  0  0  0  0  0  0  0  0  0
    8.5280   -2.0400   22.9980 N   0  0  0  0  0  0  0  0  0  0  0  0
    6.2190   -5.3260   23.2990 C   0  0  0  0  0  0  0  0  0  0  0  0
    6.3530   -5.7630   21.8700 C   0  0  0  0  0  0  0  0  0  0  0  0
    9.6880   -1.9160   23.7430 C   0  0  0  0  0  0  0  0  0  0  0  0
   11.0260   -1.4290   23.2680 C   0  0  0  0  0  0  0  0  0  0  0  0
   11.4990    0.0230   23.3520 C   0  0  0  0  0  0  0  0  0  0  0  0
   11.9980   -2.1830   22.6870 C   0  0  0  0  0  0  0  0  0  0  0  0
   12.7590    0.1930   22.8440 C   0  0  0  0  0  0  0  0  0  0  0  0
   13.3790   -1.2800   22.2620 S   0  0  0  0  0  0  0  0  0  0  0  0
  1  2  1  0
  1  3  2  0
  1  4  1  0
  4  5  1  0
  4  6  1  0
  5  7  1  0
  6  8  1  0
  5  9  1  6
  7 10  1  0
  8 10  1  0
  9 11  1  0
  9 12  1  0
 11 12  1  0
 10 13  1  0
 13 14  1  0
 14 15  1  0
 14 16  2  0
 15 17  2  0
 16 18  1  0
 17 18  1  0
M  END
