x0387_0-x1418_1-x0874_0-x0981_1
     RDKit          3D

 27 28  0  0  0  0  0  0  0  0999 V2000
    4.2320   -5.8220   22.9300 C   0  0  0  0  0  0  0  0  0  0  0  0
    2.8300   -6.1030   23.4490 C   0  0  1  0  0  0  0  0  0  0  0  0
    2.4470   -7.3590   22.8080 N   0  0  0  0  0  0  0  0  0  0  0  0
    4.7650   -4.6490   23.0040 N   0  0  0  0  0  0  0  0  0  0  0  0
    2.7800   -6.2340   24.9680 C   0  0  0  0  0  0  0  0  0  0  0  0
    6.1040   -4.6410   22.3950 C   0  0  0  0  0  0  0  0  0  0  0  0
    1.2750   -7.4650   22.1200 C   0  0  0  0  0  0  0  0  0  0  0  0
    3.1740   -7.6380   25.2930 C   0  0  0  0  0  0  0  0  0  0  0  0
    6.6180   -3.2110   22.4110 C   0  0  1  0  0  0  0  0  0  0  0  0
    1.1290   -8.7290   21.3170 C   0  0  0  0  0  0  0  0  0  0  0  0
    0.4090   -6.5910   22.1340 O   0  0  0  0  0  0  0  0  0  0  0  0
    2.5590   -8.2380   26.3600 N   0  0  0  0  0  0  0  0  0  0  0  0
    4.0070   -8.2000   24.6220 O   0  0  0  0  0  0  0  0  0  0  0  0
    8.0060   -3.2990   23.0430 C   0  0  0  0  0  0  0  0  0  0  0  0
    6.6900   -2.5170   21.0890 N   0  0  0  0  0  0  0  0  0  0  0  0
    6.4470   -3.2270   19.8940 C   0  0  0  0  0  0  0  0  0  0  0  0
    8.6740   -1.9960   22.9660 N   0  0  0  0  0  0  0  0  0  0  0  0
    7.6330   -1.3680   21.0350 C   0  0  0  0  0  0  0  0  0  0  0  0
    7.3900   -2.9820   18.7350 C   0  0  0  0  0  0  0  0  0  0  0  0
    5.5280   -4.0450   19.7350 O   0  0  0  0  0  0  0  0  0  0  0  0
    9.7290   -1.7190   23.9420 C   0  0  0  0  0  0  0  0  0  0  0  0
    8.8580   -1.6560   21.6680 C   0  0  0  0  0  0  0  0  0  0  0  0
   10.9630   -1.3530   23.4240 C   0  0  0  0  0  0  0  0  0  0  0  0
   11.6590   -0.2430   23.8010 C   0  0  0  0  0  0  0  0  0  0  0  0
   11.6640   -2.0290   22.4770 C   0  0  0  0  0  0  0  0  0  0  0  0
   12.9840   -0.0390   23.1020 C   0  0  0  0  0  0  0  0  0  0  0  0
   13.1860   -1.3310   22.0240 S   0  0  0  0  0  0  0  0  0  0  0  0
  2  1  1  1
  2  3  1  0
  1  4  2  3
  2  5  1  0
  4  6  1  0
  3  7  1  0
  5  8  1  0
  9  6  1  6
  7 10  1  0
  7 11  2  0
  8 12  1  0
  8 13  2  0
  9 14  1  0
  9 15  1  0
 15 16  1  0
 14 17  1  0
 15 18  1  0
 16 19  1  0
 16 20  2  0
 17 21  1  0
 17 22  1  0
 18 22  1  0
 21 23  1  0
 23 24  1  0
 23 25  2  0
 24 26  2  0
 25 27  1  0
 26 27  1  0
M  END
