x0387_0-x1458_1
     RDKit          3D

 18 19  0  0  0  0  0  0  0  0999 V2000
    6.2250   -3.4470   25.4090 C   0  0  0  0  0  0  0  0  0  0  0  0
    7.0670   -4.1720   24.3610 C   0  0  1  0  0  0  0  0  0  0  0  0
    6.1380   -5.0280   23.4820 C   0  0  0  0  0  0  0  0  0  0  0  0
    4.9970   -3.4190   25.4580 O   0  0  0  0  0  0  0  0  0  0  0  0
    7.8960   -3.1290   23.5750 C   0  0  1  0  0  0  0  0  0  0  0  0
    9.3850   -3.1390   23.7240 C   0  0  0  0  0  0  0  0  0  0  0  0
    7.4030   -2.9680   22.1420 C   0  0  0  0  0  0  0  0  0  0  0  0
    6.7090   -5.3600   22.2690 C   0  0  0  0  0  0  0  0  0  0  0  0
    9.9520   -1.8610   23.9070 C   0  0  0  0  0  0  0  0  0  0  0  0
    6.8210   -4.1400   21.5080 N   0  0  0  0  0  0  0  0  0  0  0  0
    6.3190   -4.0830   20.2210 C   0  0  0  0  0  0  0  0  0  0  0  0
   11.0950   -1.6070   23.2400 C   0  0  0  0  0  0  0  0  0  0  0  0
    5.2970   -4.6760   19.9240 O   0  0  0  0  0  0  0  0  0  0  0  0
    7.1650   -3.2740   19.2440 C   0  0  0  0  0  0  0  0  0  0  0  0
   12.0300   -0.6580   23.5560 C   0  0  0  0  0  0  0  0  0  0  0  0
   11.5630   -2.2430   22.1030 C   0  0  0  0  0  0  0  0  0  0  0  0
   13.1290   -0.5260   22.7910 C   0  0  0  0  0  0  0  0  0  0  0  0
   13.1460   -1.6310   21.5210 S   0  0  0  0  0  0  0  0  0  0  0  0
  2  1  1  1
  2  3  1  0
  1  4  2  0
  2  5  1  0
  5  6  1  6
  5  7  1  0
  3  8  1  0
  6  9  1  0
  7 10  1  0
  8 10  1  0
 10 11  1  0
  9 12  1  0
 11 13  2  0
 11 14  1  0
 12 15  1  0
 12 16  2  0
 15 17  2  0
 16 18  1  0
 17 18  1  0
M  END
