x0387_0-x0981_1-x1384_2-x0831_1
     RDKit          3D

 31 33  0  0  0  0  0  0  0  0999 V2000
    2.2970   -6.0930   23.9010 C   0  0  1  0  0  0  0  0  0  0  0  0
    2.2260   -7.1510   23.1320 N   0  0  0  0  0  0  0  0  0  0  0  0
    1.1930   -7.4590   22.1350 C   0  0  0  0  0  0  0  0  0  0  0  0
    2.4450   -6.5060   25.3260 C   0  0  0  0  0  0  0  0  0  0  0  0
    3.5560   -5.4060   23.5010 C   0  0  0  0  0  0  0  0  0  0  0  0
    3.0050   -7.8920   25.3760 C   0  0  0  0  0  0  0  0  0  0  0  0
    3.7780   -4.0960   23.8810 C   0  0  0  0  0  0  0  0  0  0  0  0
    4.4790   -6.0890   22.7410 C   0  0  0  0  0  0  0  0  0  0  0  0
    1.1760   -8.7230   21.3110 C   0  0  0  0  0  0  0  0  0  0  0  0
    0.2480   -6.7410   21.8410 O   0  0  0  0  0  0  0  0  0  0  0  0
    2.3640   -8.7370   26.3780 N   0  0  0  0  0  0  0  0  0  0  0  0
    3.9020   -8.2500   24.6420 O   0  0  0  0  0  0  0  0  0  0  0  0
    5.6280   -5.4760   22.3310 C   0  0  0  0  0  0  0  0  0  0  0  0
    4.9320   -3.4380   23.4840 C   0  0  0  0  0  0  0  0  0  0  0  0
    5.8520   -4.1450   22.6960 C   0  0  0  0  0  0  0  0  0  0  0  0
    7.0640   -3.3940   22.2510 C   0  0  1  0  0  0  0  0  0  0  0  0
    6.5830   -2.6440   21.0970 N   0  0  0  0  0  0  0  0  0  0  0  0
    7.6620   -2.5580   23.4130 C   0  0  0  0  0  0  0  0  0  0  0  0
    6.3600   -3.3060   19.8920 C   0  0  0  0  0  0  0  0  0  0  0  0
    8.8380   -2.0270   22.9830 N   0  0  0  0  0  0  0  0  0  0  0  0
    6.4420   -1.2040   21.3360 C   0  0  0  0  0  0  0  0  0  0  0  0
    5.4400   -4.1270   19.7510 O   0  0  0  0  0  0  0  0  0  0  0  0
    7.3330   -3.0020   18.7780 C   0  0  0  0  0  0  0  0  0  0  0  0
    9.5960   -1.5520   23.9050 C   0  0  0  0  0  0  0  0  0  0  0  0
    8.8170   -1.3130   21.6970 C   0  0  0  0  0  0  0  0  0  0  0  0
    7.6680   -0.5290   21.4040 C   0  0  0  0  0  0  0  0  0  0  0  0
   10.9580   -1.2800   23.3430 C   0  0  0  0  0  0  0  0  0  0  0  0
   11.6860   -0.1840   23.7590 C   0  0  0  0  0  0  0  0  0  0  0  0
   11.6880   -1.9830   22.3920 C   0  0  0  0  0  0  0  0  0  0  0  0
   12.9160   -0.0080   23.1860 C   0  0  0  0  0  0  0  0  0  0  0  0
   13.2200   -1.2650   22.0660 S   0  0  0  0  0  0  0  0  0  0  0  0
  1  2  1  0
  2  3  1  0
  1  4  1  1
  1  5  1  0
  4  6  1  0
  5  7  2  0
  5  8  1  0
  3  9  1  0
  3 10  2  0
  6 11  1  0
  6 12  2  0
  8 13  2  0
  7 14  1  0
 13 15  1  0
 14 15  2  0
 16 15  1  1
 16 17  1  0
 16 18  1  0
 17 19  1  0
 18 20  1  0
 17 21  1  0
 19 22  2  0
 19 23  1  0
 20 24  1  0
 20 25  1  0
 21 26  1  0
 25 26  1  0
 24 27  1  0
 27 28  1  0
 27 29  2  0
 28 30  2  0
 29 31  1  0
 30 31  1  0
M  END
