x0387_0-x1384_2-x0831_1-x1386_1
     RDKit          3D

 22 24  0  0  0  0  0  0  0  0999 V2000
    6.2230   -3.4430   19.9680 C   0  0  0  0  0  0  0  0  0  0  0  0
    7.2070   -3.0200   18.8790 C   0  0  0  0  0  0  0  0  0  0  0  0
    5.3100   -4.2360   19.7680 O   0  0  0  0  0  0  0  0  0  0  0  0
    6.4750   -2.8610   21.2280 N   0  0  0  0  0  0  0  0  0  0  0  0
    6.2970   -1.4020   21.2690 C   0  0  0  0  0  0  0  0  0  0  0  0
    6.9910   -3.5510   22.4130 C   0  0  1  0  0  0  0  0  0  0  0  0
    7.6630   -0.6660   21.0550 C   0  0  0  0  0  0  0  0  0  0  0  0
    7.5010   -2.6890   23.4080 C   0  0  0  0  0  0  0  0  0  0  0  0
    5.8210   -4.3390   22.9630 C   0  0  0  0  0  0  0  0  0  0  0  0
    8.6050   -1.7560   23.0890 N   0  0  0  0  0  0  0  0  0  0  0  0
    8.8550   -1.4430   21.6870 C   0  0  0  0  0  0  0  0  0  0  0  0
    5.7040   -5.7060   22.7840 C   0  0  0  0  0  0  0  0  0  0  0  0
    4.8750   -3.5890   23.6640 C   0  0  0  0  0  0  0  0  0  0  0  0
    9.6820   -1.8570   23.9820 C   0  0  0  0  0  0  0  0  0  0  0  0
    3.7520   -4.1950   24.2270 C   0  0  0  0  0  0  0  0  0  0  0  0
    4.6140   -6.3740   23.3200 C   0  0  0  0  0  0  0  0  0  0  0  0
   11.0060   -1.3910   23.4230 C   0  0  0  0  0  0  0  0  0  0  0  0
    3.5430   -5.5930   24.1030 C   0  0  0  0  0  0  0  0  0  0  0  0
   11.6650   -0.2210   23.8740 C   0  0  0  0  0  0  0  0  0  0  0  0
   11.7320   -2.0240   22.4240 C   0  0  0  0  0  0  0  0  0  0  0  0
   12.9630    0.0190   23.1510 C   0  0  0  0  0  0  0  0  0  0  0  0
   13.2040   -1.2360   22.0140 S   0  0  0  0  0  0  0  0  0  0  0  0
  1  2  1  0
  1  3  2  0
  1  4  1  0
  4  5  1  0
  4  6  1  0
  5  7  1  0
  6  8  1  0
  6  9  1  1
  8 10  1  0
  7 11  1  0
 10 11  1  0
  9 12  2  0
  9 13  1  0
 10 14  1  0
 13 15  2  0
 12 16  1  0
 14 17  1  0
 15 18  1  0
 16 18  2  0
 17 19  1  0
 17 20  2  0
 19 21  2  0
 20 22  1  0
 21 22  1  0
M  END
