x0387_0-x1412_0-x0770_1-x1334_1-x1412_1-x0736_1-x1385_1-x0434_2-x0397_0-x0874_0
     RDKit          3D

 32 36  0  0  0  0  0  0  0  0999 V2000
    6.4260   -3.3590   19.8300 C   0  0  0  0  0  0  0  0  0  0  0  0
    7.3640   -3.0490   18.6810 C   0  0  0  0  0  0  0  0  0  0  0  0
    5.4100   -4.0410   19.6660 O   0  0  0  0  0  0  0  0  0  0  0  0
    6.8210   -2.9020   21.0530 N   0  0  0  0  0  0  0  0  0  0  0  0
    7.8230   -1.7700   21.1090 C   0  0  2  0  0  0  0  0  0  0  0  0
    7.0990   -3.8720   21.9670 C   0  0  1  0  0  0  0  0  0  0  0  0
    8.8170   -1.9320   22.3090 C   0  0  0  0  0  0  0  0  0  0  0  0
    7.2200   -3.3620   23.3990 C   0  0  0  0  0  0  0  0  0  0  0  0
    6.3040   -5.1570   21.8670 C   0  0  0  0  0  0  0  0  0  0  0  0
    7.3140   -0.3390   20.9860 C   0  0  0  0  0  0  0  0  0  0  0  0
    8.1260   -2.2430   23.5420 N   0  0  0  0  0  0  0  0  0  0  0  0
    6.5300   -6.2460   22.8010 C   0  0  0  0  0  0  0  0  0  0  0  0
    5.0930   -5.4040   22.5840 C   0  0  0  0  0  0  0  0  0  0  0  0
    7.0920    0.0320   19.5260 C   0  0  0  0  0  0  0  0  0  0  0  0
    8.7090   -2.0930   24.7990 C   0  0  2  0  0  0  0  0  0  0  0  0
    6.0320    0.3800   20.4090 C   0  0  0  0  0  0  0  0  0  0  0  0
    6.5470    0.5380   18.2100 N   0  0  0  0  0  0  0  0  0  0  0  0
    7.8710   -1.3770   25.7050 O   0  0  0  0  0  0  0  0  0  0  0  0
    9.9960   -1.2360   24.8930 C   0  0  0  0  0  0  0  0  0  0  0  0
    8.8220   -3.4420   25.5720 C   0  0  0  0  0  0  0  0  0  0  0  0
    5.3980    1.1620   17.8930 C   0  0  0  0  0  0  0  0  0  0  0  0
    4.8170    1.0090   20.1780 C   0  0  0  0  0  0  0  0  0  0  0  0
    9.6860   -4.5470   25.3970 C   0  0  0  0  0  0  0  0  0  0  0  0
    7.8060   -3.8930   26.9350 S   0  0  0  0  0  0  0  0  0  0  0  0
   11.1500   -1.0940   23.9240 C   0  0  0  0  0  0  0  0  0  0  0  0
    4.3340    1.4930   18.8680 C   0  0  0  0  0  0  0  0  0  0  0  0
    9.5650   -5.6230   26.2400 C   0  0  0  0  0  0  0  0  0  0  0  0
    8.5610   -5.4220   27.1660 C   0  0  0  0  0  0  0  0  0  0  0  0
   12.0760    0.0110   23.8210 C   0  0  0  0  0  0  0  0  0  0  0  0
   11.5250   -2.0950   22.9180 C   0  0  0  0  0  0  0  0  0  0  0  0
   13.0770   -0.0750   22.8630 C   0  0  0  0  0  0  0  0  0  0  0  0
   12.9150   -1.6590   21.9600 S   0  0  0  0  0  0  0  0  0  0  0  0
  1  2  1  0
  1  3  2  0
  1  4  1  0
  4  5  1  0
  4  6  1  0
  5  7  1  0
  6  8  1  0
  6  9  1  1
  5 10  1  1
  7 11  1  0
  8 11  1  0
  9 12  1  0
  9 13  1  0
 12 13  1  0
 10 14  1  0
 11 15  1  0
 14 16  2  0
 14 17  1  0
 15 18  1  1
 15 19  1  0
 15 20  1  0
 17 21  2  0
 16 22  1  0
 20 23  2  0
 20 24  1  0
 19 25  1  0
 21 26  1  0
 22 26  2  0
 23 27  1  0
 24 28  1  0
 27 28  2  0
 25 29  1  0
 25 30  2  0
 29 31  2  0
 30 32  1  0
 31 32  1  0
M  END
