x0387_0-x0397_0
     RDKit          3D

 15 16  0  0  0  0  0  0  0  0999 V2000
    5.6300   -3.1300   20.5410 C   0  0  0  0  0  0  0  0  0  0  0  0
    6.0340   -3.3870   21.8370 N   0  0  0  0  0  0  0  0  0  0  0  0
    7.3600   -3.1850   22.1760 C   0  0  0  0  0  0  0  0  0  0  0  0
    5.3190   -4.0610   19.7870 O   0  0  0  0  0  0  0  0  0  0  0  0
    5.5300   -4.6000   22.4590 C   0  0  0  0  0  0  0  0  0  0  0  0
    7.7560   -2.9140   23.6300 C   0  0  0  0  0  0  0  0  0  0  0  0
    6.5980   -5.5200   23.1040 C   0  0  0  0  0  0  0  0  0  0  0  0
    5.9090   -6.0150   21.9770 C   0  0  0  0  0  0  0  0  0  0  0  0
    9.2650   -2.7320   23.7070 C   0  0  0  0  0  0  0  0  0  0  0  0
    9.7480   -1.3420   24.1270 C   0  0  0  0  0  0  0  0  0  0  0  0
   11.0670   -1.0300   23.5450 C   0  0  0  0  0  0  0  0  0  0  0  0
   11.8810    0.0420   23.7640 C   0  0  0  0  0  0  0  0  0  0  0  0
   11.6570   -1.8920   22.6190 C   0  0  0  0  0  0  0  0  0  0  0  0
   13.0610    0.0350   23.0420 C   0  0  0  0  0  0  0  0  0  0  0  0
   13.1780   -1.3860   22.0380 S   0  0  0  0  0  0  0  0  0  0  0  0
  1  2  1  0
  2  3  1  0
  1  4  2  0
  2  5  1  0
  3  6  1  0
  5  7  1  0
  5  8  1  0
  7  8  1  0
  6  9  1  0
  9 10  1  0
 10 11  1  0
 11 12  1  0
 11 13  2  0
 12 14  2  0
 13 15  1  0
 14 15  1  0
M  END
