x0387_0-x1384_2-x0831_1-x1418_0
     RDKit          3D

 26 30  0  0  0  0  0  0  0  0999 V2000
    6.4550   -3.3550   19.8220 C   0  0  0  0  0  0  0  0  0  0  0  0
    7.1470   -2.6790   18.6480 C   0  0  0  0  0  0  0  0  0  0  0  0
    5.8370   -4.3960   19.6120 O   0  0  0  0  0  0  0  0  0  0  0  0
    6.5860   -2.8550   21.0640 N   0  0  0  0  0  0  0  0  0  0  0  0
    6.3330   -1.4340   21.3300 C   0  0  0  0  0  0  0  0  0  0  0  0
    7.0660   -3.6990   22.1660 C   0  0  1  0  0  0  0  0  0  0  0  0
    7.6000   -0.6190   21.2900 C   0  0  0  0  0  0  0  0  0  0  0  0
    7.6320   -2.9530   23.3730 C   0  0  0  0  0  0  0  0  0  0  0  0
    5.7710   -4.3820   22.5890 C   0  0  0  0  0  0  0  0  0  0  0  0
    8.6600   -1.9270   23.1090 N   0  0  0  0  0  0  0  0  0  0  0  0
    8.7760   -1.4500   21.7230 C   0  0  0  0  0  0  0  0  0  0  0  0
    5.4250   -5.7170   22.3920 C   0  0  0  0  0  0  0  0  0  0  0  0
    5.1960   -3.6500   23.6170 C   0  0  0  0  0  0  0  0  0  0  0  0
    9.7170   -1.5590   24.2350 C   0  0  1  0  0  0  0  0  0  0  0  0
    4.2650   -4.2600   24.4490 C   0  0  0  0  0  0  0  0  0  0  0  0
    4.4940   -6.3040   23.2290 C   0  0  0  0  0  0  0  0  0  0  0  0
   10.0540   -2.6430   23.5460 C   0  0  0  0  0  0  0  0  0  0  0  0
   10.8900   -0.2770   24.7770 S   0  0  0  0  0  0  0  0  0  0  0  0
    3.9090   -5.5870   24.2590 C   0  0  0  0  0  0  0  0  0  0  0  0
   11.0930   -1.2030   23.6570 C   0  0  0  0  0  0  0  0  0  0  0  0
   11.7330   -1.8440   22.5480 C   0  0  1  0  0  0  0  0  0  0  0  0
   11.4450   -0.1860   24.4810 C   0  0  0  0  0  0  0  0  0  0  0  0
   12.0010   -0.0950   24.1850 C   0  0  0  0  0  0  0  0  0  0  0  0
   13.1760   -1.1740   22.2600 S   0  0  0  0  0  0  0  0  0  0  0  0
   11.5470   -0.6490   23.9210 C   0  0  0  0  0  0  0  0  0  0  0  0
   13.2120   -0.0450   23.4170 C   0  0  0  0  0  0  0  0  0  0  0  0
  1  2  1  0
  1  3  2  0
  1  4  1  0
  4  5  1  0
  4  6  1  0
  5  7  1  0
  6  8  1  0
  6  9  1  1
  8 10  1  0
  7 11  1  0
 10 11  1  0
  9 12  2  0
  9 13  1  0
 14 10  1  6
 13 15  2  0
 12 16  1  0
 14 17  1  0
 14 18  1  0
 15 19  1  0
 16 19  2  0
 18 20  1  0
 21 17  1  1
 20 21  1  0
 18 22  2  0
 22 23  1  0
 21 24  1  0
 20 25  1  0
 23 25  1  0
 23 26  1  0
 24 26  2  0
M  END
