x0387_0-x1384_2-x1386_1
     RDKit          3D

 22 24  0  0  0  0  0  0  0  0999 V2000
    6.4900   -3.0210   19.7410 C   0  0  0  0  0  0  0  0  0  0  0  0
    7.4600   -2.9290   18.5970 C   0  0  0  0  0  0  0  0  0  0  0  0
    5.5830   -3.8860   19.6790 O   0  0  0  0  0  0  0  0  0  0  0  0
    6.7130   -2.0930   20.8000 N   0  0  0  0  0  0  0  0  0  0  0  0
    7.8630   -1.1960   20.6930 C   0  0  0  0  0  0  0  0  0  0  0  0
    6.3560   -2.3010   22.2080 C   0  0  2  0  0  0  0  0  0  0  0  0
    9.0370   -1.6050   21.6140 C   0  0  0  0  0  0  0  0  0  0  0  0
    7.5330   -2.8910   23.0120 C   0  0  0  0  0  0  0  0  0  0  0  0
    4.9870   -2.9640   22.3460 C   0  0  0  0  0  0  0  0  0  0  0  0
    8.5930   -1.8630   22.9960 N   0  0  0  0  0  0  0  0  0  0  0  0
    4.6130   -3.6450   23.4880 C   0  0  0  0  0  0  0  0  0  0  0  0
    9.6740   -1.9420   23.9870 C   0  0  0  0  0  0  0  0  0  0  0  0
    4.2760   -4.5260   24.5670 C   0  0  0  0  0  0  0  0  0  0  0  0
    5.0870   -4.5450   22.4470 C   0  0  0  0  0  0  0  0  0  0  0  0
   10.9870   -1.4030   23.4910 C   0  0  0  0  0  0  0  0  0  0  0  0
    4.3350   -6.0540   24.7170 C   0  0  0  0  0  0  0  0  0  0  0  0
    5.1750   -5.9490   22.5080 C   0  0  0  0  0  0  0  0  0  0  0  0
   11.6620   -0.2720   23.8860 C   0  0  0  0  0  0  0  0  0  0  0  0
   11.7320   -2.0290   22.4880 C   0  0  0  0  0  0  0  0  0  0  0  0
    4.7790   -6.7610   23.6920 C   0  0  0  0  0  0  0  0  0  0  0  0
   12.9660    0.0130   23.1810 C   0  0  0  0  0  0  0  0  0  0  0  0
   13.2040   -1.2530   22.0550 S   0  0  0  0  0  0  0  0  0  0  0  0
  1  2  1  0
  1  3  2  0
  1  4  1  0
  4  5  1  0
  4  6  1  0
  5  7  1  0
  6  8  1  0
  6  9  1  6
  7 10  1  0
  8 10  1  0
  9 11  1  0
 10 12  1  0
 11 13  2  0
 11 14  1  0
 12 15  1  0
 13 16  1  0
 14 17  2  0
 15 18  1  0
 15 19  2  0
 16 20  2  0
 17 20  1  0
 18 21  2  0
 19 22  1  0
 21 22  1  0
M  END
