x0387_0-x1412_0-x0691_0
     RDKit          3D

 23 25  0  0  0  0  0  0  0  0999 V2000
    6.5990   -4.3110   20.7140 C   0  0  0  0  0  0  0  0  0  0  0  0
    7.9770   -3.6800   20.4330 C   0  0  0  0  0  0  0  0  0  0  0  0
    5.6700   -4.3280   19.8800 O   0  0  0  0  0  0  0  0  0  0  0  0
    6.3970   -4.8740   21.9730 N   0  0  0  0  0  0  0  0  0  0  0  0
    5.7300   -6.1680   21.9970 C   0  0  0  0  0  0  0  0  0  0  0  0
    7.1230   -4.5510   23.2300 C   0  0  1  0  0  0  0  0  0  0  0  0
    7.5150   -3.0590   23.4130 C   0  0  0  0  0  0  0  0  0  0  0  0
    4.7070   -6.2710   23.1300 C   0  0  0  0  0  0  0  0  0  0  0  0
    6.3680   -5.0360   24.4650 C   0  0  0  0  0  0  0  0  0  0  0  0
    8.7240   -2.6890   24.3120 C   0  0  2  0  0  0  0  0  0  0  0  0
    4.9460   -5.3610   24.2630 N   0  0  0  0  0  0  0  0  0  0  0  0
    8.5530   -1.4020   24.9120 O   0  0  0  0  0  0  0  0  0  0  0  0
   10.0040   -2.7720   23.5240 C   0  0  0  0  0  0  0  0  0  0  0  0
    8.6860   -3.7230   25.4700 C   0  0  0  0  0  0  0  0  0  0  0  0
    9.5800   -4.9410   25.4020 C   0  0  0  0  0  0  0  0  0  0  0  0
    7.7700   -3.8070   26.9470 S   0  0  0  0  0  0  0  0  0  0  0  0
   11.0900   -1.7280   23.4000 C   0  0  0  0  0  0  0  0  0  0  0  0
    9.4130   -5.7300   26.4930 C   0  0  0  0  0  0  0  0  0  0  0  0
    8.5000   -5.2830   27.4130 C   0  0  0  0  0  0  0  0  0  0  0  0
   11.3140   -0.6220   24.1780 C   0  0  0  0  0  0  0  0  0  0  0  0
   12.0480   -1.8040   22.4000 C   0  0  0  0  0  0  0  0  0  0  0  0
   12.4050    0.1410   23.8030 C   0  0  0  0  0  0  0  0  0  0  0  0
   13.1850   -0.5360   22.4490 S   0  0  0  0  0  0  0  0  0  0  0  0
  1  2  1  0
  1  3  2  0
  1  4  1  0
  4  5  1  0
  4  6  1  0
  6  7  1  1
  5  8  1  0
  6  9  1  0
  7 10  1  0
  8 11  1  0
  9 11  1  0
 10 12  1  1
 10 13  1  0
 10 14  1  0
 14 15  2  0
 14 16  1  0
 13 17  1  0
 15 18  1  0
 16 19  1  0
 18 19  2  0
 17 20  1  0
 17 21  2  0
 20 22  2  0
 21 23  1  0
 22 23  1  0
M  END
