x0387_0-x0734_1
     RDKit          3D

 16 17  0  0  0  0  0  0  0  0999 V2000
    6.1620   -3.8180   20.0610 C   0  0  0  0  0  0  0  0  0  0  0  0
    7.1430   -3.1420   19.1190 C   0  0  0  0  0  0  0  0  0  0  0  0
    5.0810   -4.2450   19.7060 O   0  0  0  0  0  0  0  0  0  0  0  0
    6.5730   -4.0110   21.3640 N   0  0  0  0  0  0  0  0  0  0  0  0
    6.4370   -5.3080   22.0150 C   0  0  0  0  0  0  0  0  0  0  0  0
    7.5460   -3.0870   21.9500 C   0  0  0  0  0  0  0  0  0  0  0  0
    6.2310   -5.1240   23.3710 C   0  0  0  0  0  0  0  0  0  0  0  0
    7.6070   -3.2050   23.3430 C   0  0  2  0  0  0  0  0  0  0  0  0
    9.1370   -2.9200   23.6080 C   0  0  0  0  0  0  0  0  0  0  0  0
    7.2780   -4.3210   24.0430 N   0  0  0  0  0  0  0  0  0  0  0  0
    9.5330   -1.4830   24.0080 C   0  0  0  0  0  0  0  0  0  0  0  0
   10.8710   -1.1910   23.4730 C   0  0  0  0  0  0  0  0  0  0  0  0
   11.7540   -0.0110   23.8670 C   0  0  0  0  0  0  0  0  0  0  0  0
   11.6290   -1.9600   22.4580 C   0  0  0  0  0  0  0  0  0  0  0  0
   12.9310   -0.0470   23.1650 C   0  0  0  0  0  0  0  0  0  0  0  0
   13.1920   -1.3530   22.0300 S   0  0  0  0  0  0  0  0  0  0  0  0
  1  2  1  0
  1  3  2  0
  1  4  1  0
  4  5  1  0
  4  6  1  0
  5  7  1  0
  6  8  1  0
  8  9  1  6
  7 10  1  0
  8 10  1  0
  9 11  1  0
 11 12  1  0
 12 13  1  0
 12 14  2  0
 13 15  2  0
 14 16  1  0
 15 16  1  0
M  END
