x0387_0-x1418_1-x0769_1-x0770_1
     RDKit          3D

 27 29  0  0  0  0  0  0  0  0999 V2000
    6.4570   -3.2800   19.8080 C   0  0  0  0  0  0  0  0  0  0  0  0
    7.3900   -3.0000   18.6570 C   0  0  0  0  0  0  0  0  0  0  0  0
    5.4630   -4.0090   19.6920 O   0  0  0  0  0  0  0  0  0  0  0  0
    6.8390   -2.7120   21.0200 N   0  0  0  0  0  0  0  0  0  0  0  0
    7.0950   -3.5850   22.1920 C   0  0  0  0  0  0  0  0  0  0  0  0
    7.6840   -1.4730   21.0570 C   0  0  0  0  0  0  0  0  0  0  0  0
    7.5970   -2.8130   23.4290 C   0  0  2  0  0  0  0  0  0  0  0  0
    8.9060   -1.6850   21.7280 C   0  0  0  0  0  0  0  0  0  0  0  0
    6.3570   -2.1760   24.0980 C   0  0  0  0  0  0  0  0  0  0  0  0
    8.6640   -1.8190   23.1630 N   0  0  0  0  0  0  0  0  0  0  0  0
    6.4610   -1.7430   25.4480 C   0  0  0  0  0  0  0  0  0  0  0  0
    9.7470   -1.8990   24.0220 C   0  0  0  0  0  0  0  0  0  0  0  0
    5.6750   -2.5510   26.3380 O   0  0  0  0  0  0  0  0  0  0  0  0
   11.0320   -1.3860   23.4700 C   0  0  0  0  0  0  0  0  0  0  0  0
    4.3210   -2.6220   26.1420 C   0  0  0  0  0  0  0  0  0  0  0  0
   11.6560   -0.2370   23.9140 C   0  0  0  0  0  0  0  0  0  0  0  0
   11.6920   -2.0470   22.4680 C   0  0  0  0  0  0  0  0  0  0  0  0
    3.7870   -3.8710   25.8890 C   0  0  0  0  0  0  0  0  0  0  0  0
    3.4410   -1.5410   26.1780 C   0  0  0  0  0  0  0  0  0  0  0  0
   12.8680   -0.0200   23.1940 C   0  0  0  0  0  0  0  0  0  0  0  0
   13.1380   -1.2540   22.0410 S   0  0  0  0  0  0  0  0  0  0  0  0
    4.8020   -5.2550   25.8290 S   0  0  0  0  0  0  0  0  0  0  0  0
    2.4220   -3.9670   25.6910 C   0  0  0  0  0  0  0  0  0  0  0  0
    2.0450   -1.5980   25.9830 C   0  0  0  0  0  0  0  0  0  0  0  0
    5.8130   -5.0980   26.8640 O   0  0  0  0  0  0  0  0  0  0  0  0
    3.9500   -6.4250   25.8160 O   0  0  0  0  0  0  0  0  0  0  0  0
    1.5390   -2.9070   25.7250 C   0  0  0  0  0  0  0  0  0  0  0  0
  1  2  1  0
  1  3  2  0
  1  4  1  0
  4  5  1  0
  4  6  1  0
  5  7  1  0
  6  8  1  0
  7  9  1  6
  7 10  1  0
  8 10  1  0
  9 11  1  0
 10 12  1  0
 11 13  1  0
 12 14  1  0
 13 15  1  0
 14 16  1  0
 14 17  2  0
 15 18  2  0
 15 19  1  0
 16 20  2  0
 17 21  1  0
 20 21  1  0
 18 22  1  0
 18 23  1  0
 19 24  2  0
 22 25  2  0
 22 26  2  0
 23 27  2  0
 24 27  1  0
M  END
