x0387_0-x0434_1-x0734_1
     RDKit          3D

 27 29  0  0  0  0  0  0  0  0999 V2000
    6.1240   -3.8650   20.1000 C   0  0  0  0  0  0  0  0  0  0  0  0
    7.0530   -3.1330   19.1310 C   0  0  0  0  0  0  0  0  0  0  0  0
    5.0570   -4.3130   19.7390 O   0  0  0  0  0  0  0  0  0  0  0  0
    6.5350   -4.0890   21.3970 N   0  0  0  0  0  0  0  0  0  0  0  0
    6.4590   -5.4820   21.8780 C   0  0  0  0  0  0  0  0  0  0  0  0
    7.3020   -3.0910   22.1740 C   0  0  1  0  0  0  0  0  0  0  0  0
    6.6770   -1.6540   22.0510 C   0  0  0  0  0  0  0  0  0  0  0  0
    6.2350   -5.4830   23.4080 C   0  0  0  0  0  0  0  0  0  0  0  0
    7.5650   -3.4540   23.4800 C   0  0  0  0  0  0  0  0  0  0  0  0
    7.2530   -0.7790   20.9990 N   0  0  0  0  0  0  0  0  0  0  0  0
    6.4720   -4.2060   24.0740 N   0  0  0  0  0  0  0  0  0  0  0  0
    8.4100    0.0520   21.3660 C   0  0  0  0  0  0  0  0  0  0  0  0
    6.4160    0.0020   20.1040 C   0  0  0  0  0  0  0  0  0  0  0  0
    8.5580    1.2470   21.0440 O   0  0  0  0  0  0  0  0  0  0  0  0
    9.3810   -0.7310   22.1460 C   0  0  0  0  0  0  0  0  0  0  0  0
    6.9210    0.0610   18.6690 C   0  0  0  0  0  0  0  0  0  0  0  0
    5.1480    0.7560   20.4110 C   0  0  0  0  0  0  0  0  0  0  0  0
    8.9350   -0.7960   23.6200 C   0  0  0  0  0  0  0  0  0  0  0  0
    6.3290    0.7790   17.5410 N   0  0  0  0  0  0  0  0  0  0  0  0
    4.5520    1.4540   19.3540 C   0  0  0  0  0  0  0  0  0  0  0  0
   10.0650   -1.3980   24.4590 C   0  0  0  0  0  0  0  0  0  0  0  0
    5.1090    1.4980   17.9080 C   0  0  0  0  0  0  0  0  0  0  0  0
   11.3010   -1.1420   23.6900 C   0  0  0  0  0  0  0  0  0  0  0  0
   12.0880   -0.0060   23.8240 C   0  0  0  0  0  0  0  0  0  0  0  0
   11.8180   -1.9920   22.7270 C   0  0  0  0  0  0  0  0  0  0  0  0
   13.1910    0.0610   23.0000 C   0  0  0  0  0  0  0  0  0  0  0  0
   13.2430   -1.3940   22.0030 S   0  0  0  0  0  0  0  0  0  0  0  0
  1  2  1  0
  1  3  2  0
  1  4  1  0
  4  5  1  0
  4  6  1  0
  6  7  1  1
  5  8  1  0
  6  9  1  0
  7 10  1  0
  8 11  1  0
  9 11  1  0
 10 12  1  0
 10 13  1  0
 12 14  2  0
 12 15  1  0
 13 16  2  0
 13 17  1  0
 15 18  1  0
 16 19  1  0
 17 20  2  0
 18 21  1  0
 19 22  2  0
 20 22  1  0
 21 23  1  0
 23 24  1  0
 23 25  2  0
 24 26  2  0
 25 27  1  0
 26 27  1  0
M  END
