x0387_0-x0831_1-x0769_1
     RDKit          3D

 28 30  0  0  0  0  0  0  0  0999 V2000
    6.1830   -3.4330   20.0180 C   0  0  0  0  0  0  0  0  0  0  0  0
    7.1470   -3.0390   18.8960 C   0  0  0  0  0  0  0  0  0  0  0  0
    5.3520   -4.3180   19.8060 O   0  0  0  0  0  0  0  0  0  0  0  0
    6.3040   -2.7810   21.2500 N   0  0  0  0  0  0  0  0  0  0  0  0
    6.2980   -1.3130   21.3320 C   0  0  0  0  0  0  0  0  0  0  0  0
    7.1240   -3.4660   22.2810 C   0  0  0  0  0  0  0  0  0  0  0  0
    7.6870   -0.6730   21.1100 C   0  0  0  0  0  0  0  0  0  0  0  0
    7.4280   -2.5950   23.4680 C   0  0  2  0  0  0  0  0  0  0  0  0
    6.2860   -1.8870   24.1550 C   0  0  0  0  0  0  0  0  0  0  0  0
    8.5190   -1.6370   23.2030 N   0  0  0  0  0  0  0  0  0  0  0  0
    8.8380   -1.4630   21.7790 C   0  0  0  0  0  0  0  0  0  0  0  0
    6.4420   -1.6190   25.6460 C   0  0  0  0  0  0  0  0  0  0  0  0
    9.6160   -1.8060   24.0210 C   0  0  0  0  0  0  0  0  0  0  0  0
    5.7000   -2.5660   26.4220 O   0  0  0  0  0  0  0  0  0  0  0  0
   10.9550   -1.3440   23.4680 C   0  0  0  0  0  0  0  0  0  0  0  0
    4.3500   -2.6030   26.2090 C   0  0  0  0  0  0  0  0  0  0  0  0
   11.7970   -0.1180   23.7980 C   0  0  0  0  0  0  0  0  0  0  0  0
   11.6770   -2.0290   22.4970 C   0  0  0  0  0  0  0  0  0  0  0  0
    3.7820   -3.8580   25.9070 C   0  0  0  0  0  0  0  0  0  0  0  0
    3.4960   -1.4900   26.2730 C   0  0  0  0  0  0  0  0  0  0  0  0
   12.9820    0.0270   23.1160 C   0  0  0  0  0  0  0  0  0  0  0  0
   13.1590   -1.2960   22.0520 S   0  0  0  0  0  0  0  0  0  0  0  0
    4.8280   -5.2260   25.8290 S   0  0  0  0  0  0  0  0  0  0  0  0
    2.3590   -4.0240   25.6650 C   0  0  0  0  0  0  0  0  0  0  0  0
    1.9960   -1.7010   26.0150 C   0  0  0  0  0  0  0  0  0  0  0  0
    5.7880   -5.0710   26.8990 O   0  0  0  0  0  0  0  0  0  0  0  0
    3.8510   -6.5500   25.8070 O   0  0  0  0  0  0  0  0  0  0  0  0
    1.4910   -2.9600   25.7210 C   0  0  0  0  0  0  0  0  0  0  0  0
  1  2  1  0
  1  3  2  0
  1  4  1  0
  4  5  1  0
  4  6  1  0
  5  7  1  0
  6  8  1  0
  8  9  1  6
  8 10  1  0
  7 11  1  0
 10 11  1  0
  9 12  1  0
 10 13  1  0
 12 14  1  0
 13 15  1  0
 14 16  1  0
 15 17  1  0
 15 18  2  0
 16 19  2  0
 16 20  1  0
 17 21  2  0
 18 22  1  0
 21 22  1  0
 19 23  1  0
 19 24  1  0
 20 25  2  0
 23 26  2  0
 23 27  2  0
 24 28  2  0
 25 28  1  0
M  END
