x0387_0-x0759_1
     RDKit          3D

 15 16  0  0  0  0  0  0  0  0999 V2000
    6.3430   -3.4740   20.0560 C   0  0  0  0  0  0  0  0  0  0  0  0
    7.2580   -3.0290   18.9280 C   0  0  0  0  0  0  0  0  0  0  0  0
    5.3880   -4.2140   19.7930 O   0  0  0  0  0  0  0  0  0  0  0  0
    6.6220   -3.0850   21.3690 N   0  0  0  0  0  0  0  0  0  0  0  0
    7.5290   -1.9890   21.7840 C   0  0  0  0  0  0  0  0  0  0  0  0
    6.2090   -4.0000   22.4310 C   0  0  0  0  0  0  0  0  0  0  0  0
    8.7770   -2.5110   22.5240 C   0  0  1  0  0  0  0  0  0  0  0  0
    7.1910   -3.9910   23.6040 C   0  0  0  0  0  0  0  0  0  0  0  0
    9.3740   -1.4390   23.4920 C   0  0  0  0  0  0  0  0  0  0  0  0
    8.5390   -3.7580   23.2110 O   0  0  0  0  0  0  0  0  0  0  0  0
   10.8270   -1.2030   23.1040 C   0  0  0  0  0  0  0  0  0  0  0  0
   11.4320   -0.0300   23.2980 C   0  0  0  0  0  0  0  0  0  0  0  0
   11.7460   -2.0670   22.5150 C   0  0  0  0  0  0  0  0  0  0  0  0
   12.8420    0.0790   22.8850 C   0  0  0  0  0  0  0  0  0  0  0  0
   13.3040   -1.4130   22.2310 S   0  0  0  0  0  0  0  0  0  0  0  0
  1  2  1  0
  1  3  2  0
  1  4  1  0
  4  5  1  0
  4  6  1  0
  5  7  1  0
  6  8  1  0
  7  9  1  1
  7 10  1  0
  8 10  1  0
  9 11  1  0
 11 12  1  0
 11 13  2  0
 12 14  2  0
 13 15  1  0
 14 15  1  0
M  END
