x0387_0-x1412_1
     RDKit          3D

 16 17  0  0  0  0  0  0  0  0999 V2000
    6.4770   -3.3080   19.9140 C   0  0  0  0  0  0  0  0  0  0  0  0
    7.3750   -3.0000   18.7430 C   0  0  0  0  0  0  0  0  0  0  0  0
    5.5130   -4.0790   19.7520 O   0  0  0  0  0  0  0  0  0  0  0  0
    6.8000   -2.7200   21.1530 N   0  0  0  0  0  0  0  0  0  0  0  0
    7.6290   -1.5540   21.1170 C   0  0  0  0  0  0  0  0  0  0  0  0
    6.7990   -3.5750   22.3520 C   0  0  0  0  0  0  0  0  0  0  0  0
    8.8330   -1.7730   21.8060 C   0  0  0  0  0  0  0  0  0  0  0  0
    7.9430   -3.5360   23.1730 C   0  0  0  0  0  0  0  0  0  0  0  0
    8.5940   -2.2030   23.1890 N   0  0  0  0  0  0  0  0  0  0  0  0
    9.7250   -2.1770   23.9820 C   0  0  1  0  0  0  0  0  0  0  0  0
   10.2380   -3.5970   24.0790 C   0  0  0  0  0  0  0  0  0  0  0  0
   10.9340   -1.3760   23.5520 C   0  0  0  0  0  0  0  0  0  0  0  0
   11.5390   -0.1250   23.8980 C   0  0  0  0  0  0  0  0  0  0  0  0
   11.6940   -2.0120   22.5760 C   0  0  0  0  0  0  0  0  0  0  0  0
   12.7130    0.1330   23.1900 C   0  0  0  0  0  0  0  0  0  0  0  0
   13.0990   -1.1260   22.1070 S   0  0  0  0  0  0  0  0  0  0  0  0
  1  2  1  0
  1  3  2  0
  1  4  1  0
  4  5  1  0
  4  6  1  0
  5  7  1  0
  6  8  1  0
  7  9  1  0
  8  9  1  0
  9 10  1  0
 10 11  1  6
 10 12  1  0
 12 13  1  0
 12 14  2  0
 13 15  2  0
 14 16  1  0
 15 16  1  0
M  END
