x0387_0-x1384_2-x0831_1-x1418_1
     RDKit          3D

 22 24  0  0  0  0  0  0  0  0999 V2000
    6.2600   -3.3590   19.9620 C   0  0  0  0  0  0  0  0  0  0  0  0
    7.2580   -3.0320   18.8740 C   0  0  0  0  0  0  0  0  0  0  0  0
    5.3310   -4.1370   19.7240 O   0  0  0  0  0  0  0  0  0  0  0  0
    6.4490   -2.7960   21.2140 N   0  0  0  0  0  0  0  0  0  0  0  0
    6.3630   -1.3610   21.4440 C   0  0  0  0  0  0  0  0  0  0  0  0
    6.9030   -3.6160   22.3610 C   0  0  1  0  0  0  0  0  0  0  0  0
    7.6540   -0.6020   21.0770 C   0  0  0  0  0  0  0  0  0  0  0  0
    7.6630   -2.8120   23.4700 C   0  0  0  0  0  0  0  0  0  0  0  0
    5.7320   -4.3810   22.9190 C   0  0  0  0  0  0  0  0  0  0  0  0
    8.5940   -1.7320   23.1050 N   0  0  0  0  0  0  0  0  0  0  0  0
    8.7840   -1.5180   21.6670 C   0  0  0  0  0  0  0  0  0  0  0  0
    5.4620   -5.8630   22.6680 C   0  0  0  0  0  0  0  0  0  0  0  0
    4.8440   -3.6540   23.7300 C   0  0  0  0  0  0  0  0  0  0  0  0
    9.6950   -1.6750   24.0750 C   0  0  0  0  0  0  0  0  0  0  0  0
    3.7430   -4.2790   24.2950 C   0  0  0  0  0  0  0  0  0  0  0  0
    4.3090   -6.3700   23.3040 C   0  0  0  0  0  0  0  0  0  0  0  0
   10.9660   -1.2420   23.5280 C   0  0  0  0  0  0  0  0  0  0  0  0
    3.4710   -5.6060   24.0950 C   0  0  0  0  0  0  0  0  0  0  0  0
   11.8140   -0.0060   23.8510 C   0  0  0  0  0  0  0  0  0  0  0  0
   11.7220   -2.0300   22.4380 C   0  0  0  0  0  0  0  0  0  0  0  0
   13.0830    0.0500   23.0250 C   0  0  0  0  0  0  0  0  0  0  0  0
   13.2380   -1.2830   21.9550 S   0  0  0  0  0  0  0  0  0  0  0  0
  1  2  1  0
  1  3  2  0
  1  4  1  0
  4  5  1  0
  4  6  1  0
  5  7  1  0
  6  8  1  0
  6  9  1  1
  8 10  1  0
  7 11  1  0
 10 11  1  0
  9 12  2  0
  9 13  1  0
 10 14  1  0
 13 15  2  0
 12 16  1  0
 14 17  1  0
 15 18  1  0
 16 18  2  0
 17 19  1  0
 17 20  2  0
 19 21  2  0
 20 22  1  0
 21 22  1  0
M  END
