x0387_0-x1412_0-x1386_1
     RDKit          3D

 22 24  0  0  0  0  0  0  0  0999 V2000
    6.4150   -3.1260   19.8040 C   0  0  0  0  0  0  0  0  0  0  0  0
    7.3470   -2.9360   18.6440 C   0  0  0  0  0  0  0  0  0  0  0  0
    5.4720   -3.9350   19.6680 O   0  0  0  0  0  0  0  0  0  0  0  0
    6.6740   -2.4210   20.9810 N   0  0  0  0  0  0  0  0  0  0  0  0
    7.7030   -1.3620   21.0900 C   0  0  0  0  0  0  0  0  0  0  0  0
    6.3180   -2.9580   22.2820 C   0  0  0  0  0  0  0  0  0  0  0  0
    8.8920   -1.7090   22.0300 C   0  0  0  0  0  0  0  0  0  0  0  0
    7.5390   -3.6170   22.9240 C   0  0  0  0  0  0  0  0  0  0  0  0
    8.6800   -2.7030   23.1320 N   0  0  0  0  0  0  0  0  0  0  0  0
    8.8680   -2.2820   24.5470 C   0  0  2  0  0  0  0  0  0  0  0  0
    7.7340   -1.4880   24.9340 O   0  0  0  0  0  0  0  0  0  0  0  0
   10.1150   -1.3650   24.8440 C   0  0  0  0  0  0  0  0  0  0  0  0
    8.8630   -3.4890   25.5350 C   0  0  0  0  0  0  0  0  0  0  0  0
    9.8750   -4.6220   25.6780 C   0  0  0  0  0  0  0  0  0  0  0  0
    7.6120   -3.7490   26.7080 S   0  0  0  0  0  0  0  0  0  0  0  0
   11.2590   -1.1850   23.8700 C   0  0  0  0  0  0  0  0  0  0  0  0
    9.4970   -5.5470   26.7000 C   0  0  0  0  0  0  0  0  0  0  0  0
    8.2970   -5.1860   27.3370 C   0  0  0  0  0  0  0  0  0  0  0  0
   12.0760   -0.0640   23.8920 C   0  0  0  0  0  0  0  0  0  0  0  0
   11.6810   -2.0330   22.8590 C   0  0  0  0  0  0  0  0  0  0  0  0
   13.0790   -0.0240   22.9690 C   0  0  0  0  0  0  0  0  0  0  0  0
   13.0410   -1.4280   22.0060 S   0  0  0  0  0  0  0  0  0  0  0  0
  1  2  1  0
  1  3  2  0
  1  4  1  0
  4  5  1  0
  4  6  1  0
  5  7  1  0
  6  8  1  0
  7  9  1  0
  8  9  1  0
  9 10  1  0
 10 11  1  1
 10 12  1  0
 10 13  1  0
 13 14  2  0
 13 15  1  0
 12 16  1  0
 14 17  1  0
 15 18  1  0
 17 18  2  0
 16 19  1  0
 16 20  2  0
 19 21  2  0
 20 22  1  0
 21 22  1  0
M  END
