x0387_0-x0540_3
     RDKit          3D

 15 15  0  0  0  0  0  0  0  0999 V2000
    4.7990    0.1820   21.5120 C   0  0  0  0  0  0  0  0  0  0  0  0
    5.3510    1.1780   22.5320 C   0  0  2  0  0  0  0  0  0  0  0  0
    4.4170    2.2800   22.7070 N   0  0  0  0  0  0  0  0  0  0  0  0
    6.7520    1.6630   22.0940 C   0  0  0  0  0  0  0  0  0  0  0  0
    3.1960    2.0680   23.3180 C   0  0  0  0  0  0  0  0  0  0  0  0
    7.6790    0.5780   21.5080 C   0  0  0  0  0  0  0  0  0  0  0  0
    3.0400    1.4360   24.3680 O   0  0  0  0  0  0  0  0  0  0  0  0
    8.9520    0.3090   22.3340 C   0  0  0  0  0  0  0  0  0  0  0  0
    8.6690   -0.1050   23.6780 C   0  0  0  0  0  0  0  0  0  0  0  0
    9.7490   -1.0540   24.2230 C   0  0  0  0  0  0  0  0  0  0  0  0
   11.0930   -1.1380   23.3950 C   0  0  0  0  0  0  0  0  0  0  0  0
   11.7800   -0.0100   23.8490 C   0  0  0  0  0  0  0  0  0  0  0  0
   11.6670   -1.9440   22.4630 C   0  0  0  0  0  0  0  0  0  0  0  0
   12.9650   -0.0020   23.1720 C   0  0  0  0  0  0  0  0  0  0  0  0
   13.1810   -1.3100   22.0740 S   0  0  0  0  0  0  0  0  0  0  0  0
  2  1  1  6
  2  3  1  0
  2  4  1  0
  3  5  1  0
  4  6  1  0
  5  7  2  0
  6  8  1  0
  8  9  1  0
  9 10  1  0
 10 11  1  0
 11 12  1  0
 11 13  2  0
 12 14  2  0
 13 15  1  0
 14 15  1  0
M  END
