x0387_0-x0752_0
     RDKit          3D

 13 13  0  0  0  0  0  0  0  0999 V2000
    6.7580   -3.8390   21.7070 N   0  0  0  0  0  0  0  0  0  0  0  0
    6.4210   -4.0500   20.3810 C   0  0  0  0  0  0  0  0  0  0  0  0
    7.2520   -3.2680   19.3570 C   0  0  0  0  0  0  0  0  0  0  0  0
    7.4160   -4.8790   22.4990 C   0  0  0  0  0  0  0  0  0  0  0  0
    5.5310   -4.8180   20.0130 O   0  0  0  0  0  0  0  0  0  0  0  0
    8.4050   -4.2180   23.5390 C   0  0  0  0  0  0  0  0  0  0  0  0
    9.0140   -3.0000   22.8810 C   0  0  0  0  0  0  0  0  0  0  0  0
    9.5180   -1.8030   23.7450 C   0  0  0  0  0  0  0  0  0  0  0  0
   10.8850   -1.3310   23.3570 C   0  0  0  0  0  0  0  0  0  0  0  0
   11.7130   -0.1720   23.9300 C   0  0  0  0  0  0  0  0  0  0  0  0
   11.6170   -2.0520   22.2330 C   0  0  0  0  0  0  0  0  0  0  0  0
   13.0130   -0.0840   23.2050 C   0  0  0  0  0  0  0  0  0  0  0  0
   13.1490   -1.3240   21.9810 S   0  0  0  0  0  0  0  0  0  0  0  0
  1  2  1  0
  2  3  1  0
  1  4  1  0
  2  5  2  0
  4  6  1  0
  6  7  1  0
  7  8  1  0
  8  9  1  0
  9 10  1  0
  9 11  2  0
 10 12  2  0
 11 13  1  0
 12 13  1  0
M  END
