x0387_0-x0736_1
     RDKit          3D

 15 16  0  0  0  0  0  0  0  0999 V2000
    6.5510   -3.4250   20.0080 C   0  0  0  0  0  0  0  0  0  0  0  0
    7.4720   -3.0180   18.8760 C   0  0  0  0  0  0  0  0  0  0  0  0
    5.5190   -4.0670   19.7390 O   0  0  0  0  0  0  0  0  0  0  0  0
    6.9310   -3.1350   21.3330 N   0  0  0  0  0  0  0  0  0  0  0  0
    8.1760   -2.3230   21.5990 C   0  0  0  0  0  0  0  0  0  0  0  0
    6.5330   -4.0960   22.4040 C   0  0  0  0  0  0  0  0  0  0  0  0
    8.3370   -1.7790   23.0390 C   0  0  2  0  0  0  0  0  0  0  0  0
    7.1960   -3.7570   23.7680 C   0  0  0  0  0  0  0  0  0  0  0  0
    9.6520   -1.9690   23.8520 C   0  0  0  0  0  0  0  0  0  0  0  0
    7.3050   -2.3190   23.9050 N   0  0  0  0  0  0  0  0  0  0  0  0
   10.8870   -1.5260   23.3320 C   0  0  0  0  0  0  0  0  0  0  0  0
   11.6110   -0.2950   23.8640 C   0  0  0  0  0  0  0  0  0  0  0  0
   11.6620   -2.0740   22.3130 C   0  0  0  0  0  0  0  0  0  0  0  0
   12.8090   -0.0490   23.2220 C   0  0  0  0  0  0  0  0  0  0  0  0
   13.1330   -1.2130   22.0150 S   0  0  0  0  0  0  0  0  0  0  0  0
  1  2  1  0
  1  3  2  0
  1  4  1  0
  4  5  1  0
  4  6  1  0
  5  7  1  0
  6  8  1  0
  7  9  1  1
  7 10  1  0
  8 10  1  0
  9 11  1  0
 11 12  1  0
 11 13  2  0
 12 14  2  0
 13 15  1  0
 14 15  1  0
M  END
