x0387_0-x0691_0
     RDKit          3D

 17 18  0  0  0  0  0  0  0  0999 V2000
    6.3520   -4.4280   20.5190 C   0  0  0  0  0  0  0  0  0  0  0  0
    7.2840   -3.4020   19.8780 C   0  0  0  0  0  0  0  0  0  0  0  0
    5.2950   -4.6780   19.9460 O   0  0  0  0  0  0  0  0  0  0  0  0
    6.6440   -5.1450   21.6890 N   0  0  0  0  0  0  0  0  0  0  0  0
    5.8610   -6.2930   22.0180 C   0  0  0  0  0  0  0  0  0  0  0  0
    7.3630   -4.5730   22.8370 C   0  0  1  0  0  0  0  0  0  0  0  0
    8.2670   -3.3530   22.5110 C   0  0  0  0  0  0  0  0  0  0  0  0
    4.8400   -5.9990   23.1210 C   0  0  0  0  0  0  0  0  0  0  0  0
    6.3010   -4.2720   23.9290 C   0  0  0  0  0  0  0  0  0  0  0  0
    9.0480   -2.9410   23.7610 C   0  0  0  0  0  0  0  0  0  0  0  0
    5.4980   -5.4450   24.3150 N   0  0  0  0  0  0  0  0  0  0  0  0
    9.5180   -1.4730   23.9310 C   0  0  0  0  0  0  0  0  0  0  0  0
   10.8950   -1.2080   23.3970 C   0  0  0  0  0  0  0  0  0  0  0  0
   11.7280   -0.1610   23.7340 C   0  0  0  0  0  0  0  0  0  0  0  0
   11.5770   -1.9800   22.4530 C   0  0  0  0  0  0  0  0  0  0  0  0
   12.9510   -0.0780   23.1350 C   0  0  0  0  0  0  0  0  0  0  0  0
   13.1520   -1.3780   22.0600 S   0  0  0  0  0  0  0  0  0  0  0  0
  1  2  1  0
  1  3  2  0
  1  4  1  0
  4  5  1  0
  4  6  1  0
  6  7  1  6
  5  8  1  0
  6  9  1  0
  7 10  1  0
  8 11  1  0
  9 11  1  0
 10 12  1  0
 12 13  1  0
 13 14  1  0
 13 15  2  0
 14 16  2  0
 15 17  1  0
 16 17  1  0
M  END
