x0387_0-x0981_1
     RDKit          3D

 21 21  0  0  0  0  0  0  0  0999 V2000
    4.4770   -5.9200   23.1120 C   0  0  0  0  0  0  0  0  0  0  0  0
    2.9730   -6.1340   23.3500 C   0  0  1  0  0  0  0  0  0  0  0  0
    2.6740   -7.1620   22.8550 N   0  0  0  0  0  0  0  0  0  0  0  0
    5.1390   -4.7820   23.5670 N   0  0  0  0  0  0  0  0  0  0  0  0
    2.6570   -6.2540   24.8460 C   0  0  0  0  0  0  0  0  0  0  0  0
    6.5840   -4.7470   23.2630 C   0  0  0  0  0  0  0  0  0  0  0  0
    1.3830   -7.3640   22.1750 C   0  0  0  0  0  0  0  0  0  0  0  0
    3.0600   -7.6290   25.2390 C   0  0  0  0  0  0  0  0  0  0  0  0
    7.0990   -3.3190   22.9990 C   0  0  0  0  0  0  0  0  0  0  0  0
    1.2120   -8.6810   21.4510 C   0  0  0  0  0  0  0  0  0  0  0  0
    0.3630   -6.3710   22.1710 O   0  0  0  0  0  0  0  0  0  0  0  0
    2.3290   -8.2440   26.3410 N   0  0  0  0  0  0  0  0  0  0  0  0
    3.9610   -8.1790   24.6420 O   0  0  0  0  0  0  0  0  0  0  0  0
    7.8070   -2.6670   24.0020 C   0  0  0  0  0  0  0  0  0  0  0  0
    9.2850   -2.8260   23.6040 C   0  0  0  0  0  0  0  0  0  0  0  0
    9.9660   -1.5050   23.9560 C   0  0  0  0  0  0  0  0  0  0  0  0
   11.1660   -1.3560   23.2450 C   0  0  0  0  0  0  0  0  0  0  0  0
   12.1580   -0.3290   23.3930 C   0  0  0  0  0  0  0  0  0  0  0  0
   11.5940   -2.1590   22.2900 C   0  0  0  0  0  0  0  0  0  0  0  0
   13.2290   -0.4260   22.5680 C   0  0  0  0  0  0  0  0  0  0  0  0
   13.1300   -1.7790   21.5390 S   0  0  0  0  0  0  0  0  0  0  0  0
  2  1  1  1
  2  3  1  0
  1  4  2  3
  2  5  1  0
  4  6  1  0
  3  7  1  0
  5  8  1  0
  6  9  1  0
  7 10  1  0
  7 11  2  0
  8 12  1  0
  8 13  2  0
  9 14  1  0
 14 15  1  0
 15 16  1  0
 16 17  1  0
 17 18  1  0
 17 19  2  0
 18 20  2  0
 19 21  1  0
 20 21  1  0
M  END
