x0387_0-x0978_1-x1386_1-x1418_0
     RDKit          3D

 30 33  0  0  0  0  0  0  0  0999 V2000
    4.4660   -5.5100   22.8720 C   0  0  0  0  0  0  0  0  0  0  0  0
    3.2380   -6.4040   23.1020 C   0  0  2  0  0  0  0  0  0  0  0  0
    2.0390   -5.5760   23.0250 N   0  0  0  0  0  0  0  0  0  0  0  0
    4.5380   -4.4190   23.4330 N   0  0  0  0  0  0  0  0  0  0  0  0
    3.2790   -7.0560   24.4970 C   0  0  1  0  0  0  0  0  0  0  0  0
    5.3760   -3.8720   23.0530 C   0  0  0  0  0  0  0  0  0  0  0  0
    0.9100   -5.9650   22.4050 C   0  0  0  0  0  0  0  0  0  0  0  0
    2.0920   -7.9580   24.7670 C   0  0  0  0  0  0  0  0  0  0  0  0
    4.4720   -7.8230   24.6270 O   0  0  0  0  0  0  0  0  0  0  0  0
    6.6200   -2.8500   22.0890 C   0  0  2  0  0  0  0  0  0  0  0  0
    0.8400   -7.0180   21.7710 O   0  0  0  0  0  0  0  0  0  0  0  0
   -0.2590   -5.0310   22.5260 C   0  0  0  0  0  0  0  0  0  0  0  0
    7.0360   -2.3510   20.7820 N   0  0  0  0  0  0  0  0  0  0  0  0
    7.8330   -3.2390   22.9030 C   0  0  0  0  0  0  0  0  0  0  0  0
    6.6530   -2.9160   19.6180 C   0  0  0  0  0  0  0  0  0  0  0  0
    8.7610   -2.1150   23.0580 N   0  0  0  0  0  0  0  0  0  0  0  0
    7.9340   -1.2110   20.9260 C   0  0  0  0  0  0  0  0  0  0  0  0
    7.3050   -2.4620   18.3250 C   0  0  0  0  0  0  0  0  0  0  0  0
    5.8050   -3.8010   19.5950 O   0  0  0  0  0  0  0  0  0  0  0  0
    9.7170   -1.5590   24.2350 C   0  0  1  0  0  0  0  0  0  0  0  0
    9.1450   -1.6210   21.7300 C   0  0  0  0  0  0  0  0  0  0  0  0
   10.0540   -2.6430   23.5460 C   0  0  0  0  0  0  0  0  0  0  0  0
   10.8900   -0.2770   24.7770 S   0  0  0  0  0  0  0  0  0  0  0  0
   11.0930   -1.2030   23.6570 C   0  0  0  0  0  0  0  0  0  0  0  0
   11.7330   -1.8440   22.5480 C   0  0  1  0  0  0  0  0  0  0  0  0
   11.4450   -0.1860   24.4810 C   0  0  0  0  0  0  0  0  0  0  0  0
   12.0010   -0.0950   24.1850 C   0  0  0  0  0  0  0  0  0  0  0  0
   13.1760   -1.1740   22.2600 S   0  0  0  0  0  0  0  0  0  0  0  0
   11.5470   -0.6490   23.9210 C   0  0  0  0  0  0  0  0  0  0  0  0
   13.2120   -0.0450   23.4170 C   0  0  0  0  0  0  0  0  0  0  0  0
  2  1  1  1
  2  3  1  0
  1  4  2  3
  2  5  1  0
  4  6  1  0
  3  7  1  0
  5  8  1  6
  5  9  1  0
 10  6  1  6
  7 11  2  0
  7 12  1  0
 10 13  1  0
 10 14  1  0
 13 15  1  0
 14 16  1  0
 13 17  1  0
 15 18  1  0
 15 19  2  0
 20 16  1  6
 16 21  1  0
 17 21  1  0
 20 22  1  0
 20 23  1  0
 23 24  1  0
 25 22  1  1
 24 25  1  0
 23 26  2  0
 26 27  1  0
 25 28  1  0
 24 29  1  0
 27 29  1  0
 27 30  1  0
 28 30  2  0
M  END
