x0387_0-x0820_1-x1334_1
     RDKit          3D

 27 31  0  0  0  0  0  0  0  0999 V2000
    6.5330   -3.1970   19.6980 C   0  0  0  0  0  0  0  0  0  0  0  0
    7.1360   -2.5360   18.4720 C   0  0  0  0  0  0  0  0  0  0  0  0
    5.7910   -4.1670   19.5620 O   0  0  0  0  0  0  0  0  0  0  0  0
    6.8670   -2.7290   20.9200 N   0  0  0  0  0  0  0  0  0  0  0  0
    7.5420   -2.5260   22.4730 C   0  0  0  0  0  0  0  0  0  0  0  0
    7.7100   -1.5650   21.2060 C   0  0  0  0  0  0  0  0  0  0  0  0
    8.4690   -2.6360   23.2960 C   0  0  1  0  0  0  0  0  0  0  0  0
    8.8930   -1.9680   22.0610 C   0  0  0  0  0  0  0  0  0  0  0  0
    6.4300   -3.3760   22.1540 C   0  0  0  0  0  0  0  0  0  0  0  0
    9.7170   -1.5590   24.2350 C   0  0  0  0  0  0  0  0  0  0  0  0
    7.6400   -3.7960   22.9530 C   0  0  0  0  0  0  0  0  0  0  0  0
    7.0350   -3.5860   22.5530 C   0  0  0  0  0  0  0  0  0  0  0  0
    6.4390   -4.2050   23.9830 C   0  0  0  0  0  0  0  0  0  0  0  0
   11.0930   -1.2030   23.6570 C   0  0  0  0  0  0  0  0  0  0  0  0
    6.8860   -4.2170   25.3580 C   0  0  0  0  0  0  0  0  0  0  0  0
    5.0990   -4.3650   23.7200 C   0  0  0  0  0  0  0  0  0  0  0  0
   12.0010   -0.0950   24.1850 C   0  0  0  0  0  0  0  0  0  0  0  0
   11.7330   -1.8440   22.5480 C   0  0  0  0  0  0  0  0  0  0  0  0
    5.9160   -4.3990   26.3890 C   0  0  0  0  0  0  0  0  0  0  0  0
    4.1540   -4.5400   24.7490 C   0  0  0  0  0  0  0  0  0  0  0  0
    8.2410   -4.0590   25.7640 C   0  0  0  0  0  0  0  0  0  0  0  0
   13.2120   -0.0450   23.4170 C   0  0  0  0  0  0  0  0  0  0  0  0
   13.1760   -1.1740   22.2600 S   0  0  0  0  0  0  0  0  0  0  0  0
    4.5530   -4.5590   26.0430 C   0  0  0  0  0  0  0  0  0  0  0  0
    8.6000   -4.0860   27.0800 C   0  0  0  0  0  0  0  0  0  0  0  0
    6.3270   -4.4200   27.7430 C   0  0  0  0  0  0  0  0  0  0  0  0
    7.6330   -4.2720   28.0760 C   0  0  0  0  0  0  0  0  0  0  0  0
  1  2  1  0
  1  3  2  0
  1  4  1  0
  4  5  1  0
  4  6  1  0
  5  7  1  0
  6  8  1  0
  7  8  1  0
  5  9  2  0
  7 10  1  1
  7 11  1  0
  9 12  1  0
 11 12  2  0
 11 13  1  0
 10 14  1  0
 13 15  1  0
 13 16  2  0
 14 17  1  0
 14 18  2  0
 15 19  2  0
 16 20  1  0
 15 21  1  0
 17 22  2  0
 18 23  1  0
 22 23  1  0
 19 24  1  0
 20 24  2  0
 21 25  2  0
 19 26  1  0
 25 27  1  0
 26 27  2  0
M  END
