x0387_0-x1425_1
     RDKit          3D

 17 18  0  0  0  0  0  0  0  0999 V2000
    6.1400   -4.0490   20.1700 C   0  0  0  0  0  0  0  0  0  0  0  0
    7.0010   -3.2430   19.2110 C   0  0  0  0  0  0  0  0  0  0  0  0
    5.0960   -4.5340   19.8240 O   0  0  0  0  0  0  0  0  0  0  0  0
    6.6170   -4.2710   21.4430 N   0  0  0  0  0  0  0  0  0  0  0  0
    7.3750   -3.3400   22.2530 C   0  0  0  0  0  0  0  0  0  0  0  0
    6.2890   -5.5000   22.1720 C   0  0  0  0  0  0  0  0  0  0  0  0
    6.5430   -2.8360   23.4400 C   0  0  2  0  0  0  0  0  0  0  0  0
    5.2220   -4.9360   23.1340 C   0  0  0  0  0  0  0  0  0  0  0  0
    7.5050   -2.2200   24.4650 C   0  0  0  0  0  0  0  0  0  0  0  0
    5.6970   -3.8840   24.0480 N   0  0  0  0  0  0  0  0  0  0  0  0
    9.0100   -2.2730   24.0100 C   0  0  0  0  0  0  0  0  0  0  0  0
    9.8300   -1.0490   24.4080 C   0  0  0  0  0  0  0  0  0  0  0  0
   11.1220   -0.9540   23.6320 C   0  0  0  0  0  0  0  0  0  0  0  0
   11.9940    0.1030   23.7580 C   0  0  0  0  0  0  0  0  0  0  0  0
   11.5660   -1.9190   22.7080 C   0  0  0  0  0  0  0  0  0  0  0  0
   13.1320    0.0680   22.9880 C   0  0  0  0  0  0  0  0  0  0  0  0
   13.1470   -1.4680   21.9770 S   0  0  0  0  0  0  0  0  0  0  0  0
  1  2  1  0
  1  3  2  0
  1  4  1  0
  4  5  1  0
  4  6  1  0
  5  7  1  0
  6  8  1  0
  7  9  1  1
  7 10  1  0
  8 10  1  0
  9 11  1  0
 11 12  1  0
 12 13  1  0
 13 14  1  0
 13 15  2  0
 14 16  2  0
 15 17  1  0
 16 17  1  0
M  END
