x0387_0-x0820_1
     RDKit          3D

 19 21  0  0  0  0  0  0  0  0999 V2000
    7.2880   -3.7990   22.8120 C   0  0  0  0  0  0  0  0  0  0  0  0
    7.9470   -2.4440   23.0720 C   0  0  0  0  0  0  0  0  0  0  0  0
    8.8440   -1.9920   21.9670 C   0  0  0  0  0  0  0  0  0  0  0  0
    6.3830   -4.1150   23.9650 C   0  0  0  0  0  0  0  0  0  0  0  0
    6.9370   -4.2710   25.3760 C   0  0  0  0  0  0  0  0  0  0  0  0
    5.0130   -4.2520   23.7010 C   0  0  0  0  0  0  0  0  0  0  0  0
    9.4390   -1.6690   23.3670 C   0  0  0  0  0  0  0  0  0  0  0  0
    5.9270   -4.5790   26.5120 C   0  0  0  0  0  0  0  0  0  0  0  0
    4.0320   -4.5540   24.8030 C   0  0  0  0  0  0  0  0  0  0  0  0
    8.2890   -4.1600   25.7380 C   0  0  0  0  0  0  0  0  0  0  0  0
    4.4680   -4.7060   26.1350 C   0  0  0  0  0  0  0  0  0  0  0  0
    8.6980   -4.3190   27.0650 C   0  0  0  0  0  0  0  0  0  0  0  0
    6.4080   -4.7210   27.8190 C   0  0  0  0  0  0  0  0  0  0  0  0
   10.8440   -1.2720   23.1260 C   0  0  0  0  0  0  0  0  0  0  0  0
    7.7750   -4.5910   28.0810 C   0  0  0  0  0  0  0  0  0  0  0  0
   11.4980   -0.2160   23.7360 C   0  0  0  0  0  0  0  0  0  0  0  0
   11.7450   -1.9080   22.2150 C   0  0  0  0  0  0  0  0  0  0  0  0
   12.8070   -0.0210   23.3420 C   0  0  0  0  0  0  0  0  0  0  0  0
   13.2810   -1.1750   22.1830 S   0  0  0  0  0  0  0  0  0  0  0  0
  1  2  1  0
  2  3  1  0
  1  4  1  0
  4  5  1  0
  4  6  2  0
  3  7  1  0
  5  8  2  0
  6  9  1  0
  5 10  1  0
  8 11  1  0
  9 11  2  0
 10 12  2  0
  8 13  1  0
  7 14  1  0
 12 15  1  0
 13 15  2  0
 14 16  1  0
 14 17  2  0
 16 18  2  0
 17 19  1  0
 18 19  1  0
M  END
