x0387_0-x0771_1
     RDKit          3D

 21 22  0  0  0  0  0  0  0  0999 V2000
    4.9850   -5.8680   26.1760 S   0  0  2  0  0  0  0  0  0  0  0  0
    6.3740   -4.8440   26.2140 N   0  0  0  0  0  0  0  0  0  0  0  0
    7.5020   -5.2960   27.0560 C   0  0  0  0  0  0  0  0  0  0  0  0
    4.8680   -6.6910   24.9990 O   0  0  0  0  0  0  0  0  0  0  0  0
    3.7430   -4.5820   26.1380 C   0  0  0  0  0  0  0  0  0  0  0  0
    2.3290   -4.8310   25.5870 C   0  0  0  0  0  0  0  0  0  0  0  0
    4.1040   -3.3000   26.6470 C   0  0  0  0  0  0  0  0  0  0  0  0
    1.8300   -6.1290   25.0160 C   0  0  0  0  0  0  0  0  0  0  0  0
    8.7240   -4.7730   26.6040 C   0  0  0  0  0  0  0  0  0  0  0  0
    1.3920   -3.6250   25.6580 C   0  0  0  0  0  0  0  0  0  0  0  0
    3.1990   -2.2410   26.6780 C   0  0  0  0  0  0  0  0  0  0  0  0
    8.7190   -3.8160   25.5840 C   0  0  0  0  0  0  0  0  0  0  0  0
    1.7570   -2.3890   26.1690 C   0  0  0  0  0  0  0  0  0  0  0  0
    0.7910   -1.2530   26.2300 C   0  0  0  0  0  0  0  0  0  0  0  0
   10.0270   -3.1170   25.1860 C   0  0  0  0  0  0  0  0  0  0  0  0
    9.8970   -1.7640   24.5040 C   0  0  0  0  0  0  0  0  0  0  0  0
   11.1560   -1.3520   23.7070 C   0  0  0  0  0  0  0  0  0  0  0  0
   11.8740   -0.1840   23.9300 C   0  0  0  0  0  0  0  0  0  0  0  0
   11.7640   -2.0550   22.6690 C   0  0  0  0  0  0  0  0  0  0  0  0
   12.9590    0.0030   23.1260 C   0  0  0  0  0  0  0  0  0  0  0  0
   13.1610   -1.2780   22.0320 S   0  0  0  0  0  0  0  0  0  0  0  0
  1  2  2  0
  2  3  1  0
  1  4  2  0
  1  5  1  6
  5  6  2  0
  5  7  1  0
  6  8  1  0
  3  9  1  0
  6 10  1  0
  7 11  2  0
  9 12  1  0
 10 13  2  0
 11 13  1  0
 13 14  1  0
 12 15  1  0
 15 16  1  0
 16 17  1  0
 17 18  1  0
 17 19  2  0
 18 20  2  0
 19 21  1  0
 20 21  1  0
M  END
