x0387_0-x1418_0-x0770_1-x1334_1
     RDKit          3D

 19 22  0  0  0  0  0  0  0  0999 V2000
    6.4300   -3.2430   19.8170 C   0  0  0  0  0  0  0  0  0  0  0  0
    7.0300   -2.6360   18.5740 C   0  0  0  0  0  0  0  0  0  0  0  0
    5.7210   -4.2380   19.7150 O   0  0  0  0  0  0  0  0  0  0  0  0
    6.7110   -2.6630   21.0100 N   0  0  0  0  0  0  0  0  0  0  0  0
    7.4090   -1.4000   21.2190 C   0  0  0  0  0  0  0  0  0  0  0  0
    6.3720   -3.2720   22.2970 C   0  0  0  0  0  0  0  0  0  0  0  0
    8.6940   -1.6630   21.9690 C   0  0  0  0  0  0  0  0  0  0  0  0
    7.6310   -3.5140   23.0980 C   0  0  0  0  0  0  0  0  0  0  0  0
    8.4180   -2.2890   23.2660 C   0  0  0  0  0  0  0  0  0  0  0  0
    9.7170   -1.5590   24.2350 C   0  0  0  0  0  0  0  0  0  0  0  0
   10.0540   -2.6430   23.5460 C   0  0  0  0  0  0  0  0  0  0  0  0
   11.7330   -1.8440   22.5480 C   0  0  1  0  0  0  0  0  0  0  0  0
   10.8900   -0.2770   24.7770 S   0  0  0  0  0  0  0  0  0  0  0  0
   11.0930   -1.2030   23.6570 C   0  0  0  0  0  0  0  0  0  0  0  0
   13.1760   -1.1740   22.2600 S   0  0  0  0  0  0  0  0  0  0  0  0
   11.4450   -0.1860   24.4810 C   0  0  0  0  0  0  0  0  0  0  0  0
   12.0010   -0.0950   24.1850 C   0  0  0  0  0  0  0  0  0  0  0  0
   13.2120   -0.0450   23.4170 C   0  0  0  0  0  0  0  0  0  0  0  0
   11.5470   -0.6490   23.9210 C   0  0  0  0  0  0  0  0  0  0  0  0
  1  2  1  0
  1  3  2  0
  1  4  1  0
  4  5  1  0
  4  6  1  0
  5  7  1  0
  6  8  1  0
  7  9  1  0
  8  9  1  0
  9 10  1  0
  9 11  1  0
 12 11  1  1
 10 13  2  0
 12 14  1  0
 13 14  1  0
 12 15  1  0
 13 16  2  0
 16 17  1  0
 15 18  2  0
 17 18  1  0
 14 19  1  0
 17 19  1  0
M  END
