x0387_0-x0689_0-x0734_1
     RDKit          3D

 25 27  0  0  0  0  0  0  0  0999 V2000
    6.2180   -3.8300   20.0220 C   0  0  0  0  0  0  0  0  0  0  0  0
    7.2050   -3.1450   19.0630 C   0  0  0  0  0  0  0  0  0  0  0  0
    5.1200   -4.2390   19.6980 O   0  0  0  0  0  0  0  0  0  0  0  0
    6.6460   -4.0300   21.3180 N   0  0  0  0  0  0  0  0  0  0  0  0
    6.6100   -5.3780   21.9160 C   0  0  0  0  0  0  0  0  0  0  0  0
    7.5750   -3.0170   21.8670 C   0  0  0  0  0  0  0  0  0  0  0  0
    7.2780   -5.4420   23.2710 C   0  0  0  0  0  0  0  0  0  0  0  0
    7.6620   -3.0040   23.3830 C   0  0  2  0  0  0  0  0  0  0  0  0
    9.1620   -2.9640   23.7590 C   0  0  0  0  0  0  0  0  0  0  0  0
    7.0280   -4.1930   24.0180 N   0  0  0  0  0  0  0  0  0  0  0  0
    5.5920   -4.0360   24.1880 C   0  0  0  0  0  0  0  0  0  0  0  0
    9.7000   -1.5580   24.1010 C   0  0  0  0  0  0  0  0  0  0  0  0
    4.7390   -4.7340   25.6300 S   0  0  0  0  0  0  0  0  0  0  0  0
   11.0310   -1.2430   23.4890 C   0  0  0  0  0  0  0  0  0  0  0  0
    4.1660   -6.2040   25.4050 O   0  0  0  0  0  0  0  0  0  0  0  0
    5.5710   -4.5200   26.9730 O   0  0  0  0  0  0  0  0  0  0  0  0
    3.3310   -3.6690   25.6810 C   0  0  0  0  0  0  0  0  0  0  0  0
   11.8460   -0.1040   23.8170 C   0  0  0  0  0  0  0  0  0  0  0  0
   11.6450   -2.0130   22.5210 C   0  0  0  0  0  0  0  0  0  0  0  0
    3.6590   -2.0330   26.1090 S   0  0  0  0  0  0  0  0  0  0  0  0
    1.9860   -3.8940   25.4320 C   0  0  0  0  0  0  0  0  0  0  0  0
   13.0100   -0.0660   23.0990 C   0  0  0  0  0  0  0  0  0  0  0  0
   13.1470   -1.3870   22.0300 S   0  0  0  0  0  0  0  0  0  0  0  0
    2.0060   -1.6510   25.9590 C   0  0  0  0  0  0  0  0  0  0  0  0
    1.2260   -2.7140   25.5970 C   0  0  0  0  0  0  0  0  0  0  0  0
  1  2  1  0
  1  3  2  0
  1  4  1  0
  4  5  1  0
  4  6  1  0
  5  7  1  0
  6  8  1  0
  8  9  1  6
  7 10  1  0
  8 10  1  0
 10 11  1  0
  9 12  1  0
 13 11  1  0
 12 14  1  0
 13 15  2  0
 13 16  2  0
 13 17  1  0
 14 18  1  0
 14 19  2  0
 17 20  1  0
 17 21  2  0
 18 22  2  0
 19 23  1  0
 22 23  1  0
 20 24  1  0
 21 25  1  0
 24 25  2  0
M  END
