x0387_0-x1412_0-x0770_1-x1334_1
     RDKit          3D

 22 24  0  0  0  0  0  0  0  0999 V2000
    6.2740   -3.2980   19.9580 C   0  0  0  0  0  0  0  0  0  0  0  0
    7.2080   -2.9820   18.8030 C   0  0  0  0  0  0  0  0  0  0  0  0
    5.4220   -4.1870   19.7920 O   0  0  0  0  0  0  0  0  0  0  0  0
    6.4360   -2.5830   21.1560 N   0  0  0  0  0  0  0  0  0  0  0  0
    7.3870   -1.4700   21.2100 C   0  0  0  0  0  0  0  0  0  0  0  0
    6.2820   -3.2670   22.4360 C   0  0  0  0  0  0  0  0  0  0  0  0
    8.6570   -1.7730   22.0540 C   0  0  0  0  0  0  0  0  0  0  0  0
    7.5050   -3.7780   22.9560 C   0  0  0  0  0  0  0  0  0  0  0  0
    8.5410   -2.7320   23.1650 N   0  0  0  0  0  0  0  0  0  0  0  0
    8.7580   -2.2610   24.5600 C   0  0  2  0  0  0  0  0  0  0  0  0
    7.6750   -1.4350   24.9610 O   0  0  0  0  0  0  0  0  0  0  0  0
   10.0810   -1.5000   24.8810 C   0  0  0  0  0  0  0  0  0  0  0  0
    8.7730   -3.4820   25.5420 C   0  0  0  0  0  0  0  0  0  0  0  0
    9.8090   -4.6100   25.6530 C   0  0  0  0  0  0  0  0  0  0  0  0
    7.5500   -3.7690   26.7300 S   0  0  0  0  0  0  0  0  0  0  0  0
   11.2160   -1.2510   23.9060 C   0  0  0  0  0  0  0  0  0  0  0  0
    9.4900   -5.5230   26.6310 C   0  0  0  0  0  0  0  0  0  0  0  0
    8.2860   -5.2020   27.3150 C   0  0  0  0  0  0  0  0  0  0  0  0
   12.0240   -0.1220   23.9300 C   0  0  0  0  0  0  0  0  0  0  0  0
   11.6340   -2.0800   22.8730 C   0  0  0  0  0  0  0  0  0  0  0  0
   13.0120   -0.0630   22.9900 C   0  0  0  0  0  0  0  0  0  0  0  0
   12.9740   -1.4560   22.0090 S   0  0  0  0  0  0  0  0  0  0  0  0
  1  2  1  0
  1  3  2  0
  1  4  1  0
  4  5  1  0
  4  6  1  0
  5  7  1  0
  6  8  1  0
  7  9  1  0
  8  9  1  0
  9 10  1  0
 10 11  1  1
 10 12  1  0
 10 13  1  0
 13 14  2  0
 13 15  1  0
 12 16  1  0
 14 17  1  0
 15 18  1  0
 17 18  2  0
 16 19  1  0
 16 20  2  0
 19 21  2  0
 20 22  1  0
 21 22  1  0
M  END
