x0387_0-x1418_0-x1334_1-x0691_1
     RDKit          3D

 32 36  0  0  0  0  0  0  0  0999 V2000
    6.5330   -3.1970   19.6980 C   0  0  0  0  0  0  0  0  0  0  0  0
    7.1360   -2.5360   18.4720 C   0  0  0  0  0  0  0  0  0  0  0  0
    5.7910   -4.1670   19.5620 O   0  0  0  0  0  0  0  0  0  0  0  0
    6.8670   -2.7290   20.9200 N   0  0  0  0  0  0  0  0  0  0  0  0
    7.7100   -1.5650   21.2060 C   0  0  0  0  0  0  0  0  0  0  0  0
    6.4300   -3.3760   22.1540 C   0  0  2  0  0  0  0  0  0  0  0  0
    6.4720   -3.8190   23.5730 C   0  0  0  0  0  0  0  0  0  0  0  0
    8.8930   -1.9680   22.0610 C   0  0  0  0  0  0  0  0  0  0  0  0
    7.6400   -3.7960   22.9530 C   0  0  0  0  0  0  0  0  0  0  0  0
    5.8730   -4.3890   24.3100 C   0  0  0  0  0  0  0  0  0  0  0  0
    8.4690   -2.6360   23.2960 C   0  0  2  0  0  0  0  0  0  0  0  0
    5.2750   -4.9600   25.0470 C   0  0  0  0  0  0  0  0  0  0  0  0
    9.7170   -1.5590   24.2350 C   0  0  0  0  0  0  0  0  0  0  0  0
   10.0540   -2.6430   23.5460 C   0  0  0  0  0  0  0  0  0  0  0  0
    4.6770   -5.5300   25.7840 S   0  0  0  0  0  0  0  0  0  0  0  0
   11.7330   -1.8440   22.5480 C   0  0  1  0  0  0  0  0  0  0  0  0
   10.8900   -0.2770   24.7770 S   0  0  0  0  0  0  0  0  0  0  0  0
    3.9940   -6.7810   25.8990 O   0  0  0  0  0  0  0  0  0  0  0  0
    5.6710   -5.1710   26.7450 O   0  0  0  0  0  0  0  0  0  0  0  0
    3.4570   -4.2520   25.7540 C   0  0  0  0  0  0  0  0  0  0  0  0
   11.0930   -1.2030   23.6570 C   0  0  0  0  0  0  0  0  0  0  0  0
   13.1760   -1.1740   22.2600 S   0  0  0  0  0  0  0  0  0  0  0  0
   11.4450   -0.1860   24.4810 C   0  0  0  0  0  0  0  0  0  0  0  0
    3.8510   -2.9270   25.8180 C   0  0  0  0  0  0  0  0  0  0  0  0
    2.1140   -4.5840   25.6700 C   0  0  0  0  0  0  0  0  0  0  0  0
   12.0010   -0.0950   24.1850 C   0  0  0  0  0  0  0  0  0  0  0  0
   13.2120   -0.0450   23.4170 C   0  0  0  0  0  0  0  0  0  0  0  0
   11.5470   -0.6490   23.9210 C   0  0  0  0  0  0  0  0  0  0  0  0
    2.8660   -1.9660   25.7940 C   0  0  0  0  0  0  0  0  0  0  0  0
    1.1540   -3.5820   25.6480 C   0  0  0  0  0  0  0  0  0  0  0  0
    3.2440   -0.6710   25.8530 F   0  0  0  0  0  0  0  0  0  0  0  0
    1.5250   -2.2540   25.7070 C   0  0  0  0  0  0  0  0  0  0  0  0
  1  2  1  0
  1  3  2  0
  1  4  1  0
  4  5  1  0
  4  6  1  0
  6  7  1  1
  5  8  1  0
  6  9  1  0
  7 10  1  0
 11  8  1  1
  9 11  1  0
 10 12  1  0
 11 13  1  0
 11 14  1  0
 15 12  1  0
 16 14  1  1
 13 17  2  0
 15 18  2  0
 15 19  2  0
 15 20  1  0
 16 21  1  0
 17 21  1  0
 16 22  1  0
 17 23  2  0
 20 24  2  0
 20 25  1  0
 23 26  1  0
 22 27  2  0
 26 27  1  0
 21 28  1  0
 26 28  1  0
 24 29  1  0
 25 30  2  0
 29 31  1  0
 29 32  2  0
 30 32  1  0
M  END
