x0387_0-x1386_1-x0981_1
     RDKit          3D

 27 28  0  0  0  0  0  0  0  0999 V2000
    3.8070   -4.8720   23.5510 C   0  0  0  0  0  0  0  0  0  0  0  0
    2.6450   -5.8720   23.6720 C   0  0  1  0  0  0  0  0  0  0  0  0
    2.6220   -6.9920   22.7130 N   0  0  0  0  0  0  0  0  0  0  0  0
    4.3990   -4.3040   22.5470 N   0  0  0  0  0  0  0  0  0  0  0  0
    2.6150   -6.3530   25.1120 C   0  0  0  0  0  0  0  0  0  0  0  0
    5.4330   -3.3050   22.9290 C   0  0  0  0  0  0  0  0  0  0  0  0
    1.3970   -7.3330   22.1580 C   0  0  0  0  0  0  0  0  0  0  0  0
    3.0440   -7.7690   25.3080 C   0  0  0  0  0  0  0  0  0  0  0  0
    6.7800   -3.4390   22.1630 C   0  0  1  0  0  0  0  0  0  0  0  0
    1.2820   -8.6540   21.4360 C   0  0  0  0  0  0  0  0  0  0  0  0
    0.4370   -6.5690   22.2320 O   0  0  0  0  0  0  0  0  0  0  0  0
    2.4220   -8.5310   26.2450 N   0  0  0  0  0  0  0  0  0  0  0  0
    3.9480   -8.2070   24.6240 O   0  0  0  0  0  0  0  0  0  0  0  0
    6.7460   -2.5530   20.9750 N   0  0  0  0  0  0  0  0  0  0  0  0
    7.7770   -3.1840   23.1380 C   0  0  0  0  0  0  0  0  0  0  0  0
    6.4140   -3.1930   19.7810 C   0  0  0  0  0  0  0  0  0  0  0  0
    8.5760   -1.9380   23.0780 N   0  0  0  0  0  0  0  0  0  0  0  0
    7.6290   -1.3790   20.8910 C   0  0  0  0  0  0  0  0  0  0  0  0
    7.3910   -2.9630   18.6580 C   0  0  0  0  0  0  0  0  0  0  0  0
    5.4320   -3.9360   19.6500 O   0  0  0  0  0  0  0  0  0  0  0  0
    9.7560   -2.0450   23.9390 C   0  0  0  0  0  0  0  0  0  0  0  0
    8.9090   -1.6490   21.6840 C   0  0  0  0  0  0  0  0  0  0  0  0
   11.0170   -1.4630   23.3490 C   0  0  0  0  0  0  0  0  0  0  0  0
   11.4160   -0.0960   23.4050 C   0  0  0  0  0  0  0  0  0  0  0  0
   11.9580   -2.1940   22.6720 C   0  0  0  0  0  0  0  0  0  0  0  0
   12.6440    0.1510   22.7910 C   0  0  0  0  0  0  0  0  0  0  0  0
   13.2800   -1.2780   22.1330 S   0  0  0  0  0  0  0  0  0  0  0  0
  2  1  1  1
  2  3  1  0
  1  4  2  3
  2  5  1  0
  4  6  1  0
  3  7  1  0
  5  8  1  0
  9  6  1  1
  7 10  1  0
  7 11  2  0
  8 12  1  0
  8 13  2  0
  9 14  1  0
  9 15  1  0
 14 16  1  0
 15 17  1  0
 14 18  1  0
 16 19  1  0
 16 20  2  0
 17 21  1  0
 17 22  1  0
 18 22  1  0
 21 23  1  0
 23 24  1  0
 23 25  2  0
 24 26  2  0
 25 27  1  0
 26 27  1  0
M  END
