x0387_0-x1418_1-x0397_0
     RDKit          3D

 18 20  0  0  0  0  0  0  0  0999 V2000
    6.3770   -3.2290   19.8360 C   0  0  0  0  0  0  0  0  0  0  0  0
    7.3290   -2.9770   18.6840 C   0  0  0  0  0  0  0  0  0  0  0  0
    5.4140   -3.9920   19.6610 O   0  0  0  0  0  0  0  0  0  0  0  0
    6.6810   -2.6110   21.0510 N   0  0  0  0  0  0  0  0  0  0  0  0
    7.0650   -3.5410   22.1300 C   0  0  1  0  0  0  0  0  0  0  0  0
    7.5760   -1.4340   20.9630 C   0  0  0  0  0  0  0  0  0  0  0  0
    7.6240   -2.8710   23.4180 C   0  0  0  0  0  0  0  0  0  0  0  0
    8.8850   -1.6690   21.7540 C   0  0  0  0  0  0  0  0  0  0  0  0
    6.0150   -4.5800   22.4240 C   0  0  0  0  0  0  0  0  0  0  0  0
    8.6230   -1.7910   23.1960 N   0  0  0  0  0  0  0  0  0  0  0  0
    6.3230   -5.7160   23.3690 C   0  0  0  0  0  0  0  0  0  0  0  0
    6.1660   -5.9890   21.9020 C   0  0  0  0  0  0  0  0  0  0  0  0
    9.7940   -1.9220   24.0860 C   0  0  0  0  0  0  0  0  0  0  0  0
   11.0740   -1.4130   23.4880 C   0  0  0  0  0  0  0  0  0  0  0  0
   11.7670   -0.2100   23.8850 C   0  0  0  0  0  0  0  0  0  0  0  0
   11.7600   -2.0470   22.4740 C   0  0  0  0  0  0  0  0  0  0  0  0
   12.9170    0.0000   23.1640 C   0  0  0  0  0  0  0  0  0  0  0  0
   13.1810   -1.2350   22.0210 S   0  0  0  0  0  0  0  0  0  0  0  0
  1  2  1  0
  1  3  2  0
  1  4  1  0
  4  5  1  0
  4  6  1  0
  5  7  1  0
  6  8  1  0
  5  9  1  1
  7 10  1  0
  8 10  1  0
  9 11  1  0
  9 12  1  0
 11 12  1  0
 10 13  1  0
 13 14  1  0
 14 15  1  0
 14 16  2  0
 15 17  2  0
 16 18  1  0
 17 18  1  0
M  END
