x0387_0-x0874_0-x0831_1-x0769_1
     RDKit          3D

 28 30  0  0  0  0  0  0  0  0999 V2000
    6.2250   -3.4450   20.0250 C   0  0  0  0  0  0  0  0  0  0  0  0
    7.2020   -3.0680   18.9180 C   0  0  0  0  0  0  0  0  0  0  0  0
    5.3990   -4.3390   19.8270 O   0  0  0  0  0  0  0  0  0  0  0  0
    6.2930   -2.7810   21.2400 N   0  0  0  0  0  0  0  0  0  0  0  0
    6.1700   -1.3280   21.3650 C   0  0  0  0  0  0  0  0  0  0  0  0
    6.8310   -3.5330   22.3920 C   0  0  0  0  0  0  0  0  0  0  0  0
    7.5370   -0.5940   21.3470 C   0  0  0  0  0  0  0  0  0  0  0  0
    7.4900   -2.6850   23.5010 C   0  0  2  0  0  0  0  0  0  0  0  0
    6.4330   -1.7120   24.1040 C   0  0  0  0  0  0  0  0  0  0  0  0
    8.7730   -2.0550   23.0310 N   0  0  0  0  0  0  0  0  0  0  0  0
    8.7660   -1.4470   21.7050 C   0  0  0  0  0  0  0  0  0  0  0  0
    6.4400   -1.6320   25.6790 C   0  0  0  0  0  0  0  0  0  0  0  0
    9.5220   -1.2720   23.9380 C   0  0  0  0  0  0  0  0  0  0  0  0
    5.6710   -2.7220   26.2170 O   0  0  0  0  0  0  0  0  0  0  0  0
   10.9160   -1.0750   23.4080 C   0  0  0  0  0  0  0  0  0  0  0  0
    4.3060   -2.6800   26.0910 C   0  0  0  0  0  0  0  0  0  0  0  0
   11.7850   -0.0280   23.7390 C   0  0  0  0  0  0  0  0  0  0  0  0
   11.5580   -1.9080   22.4960 C   0  0  0  0  0  0  0  0  0  0  0  0
    3.6350   -3.9110   26.1110 C   0  0  0  0  0  0  0  0  0  0  0  0
    3.5490   -1.5120   25.9480 C   0  0  0  0  0  0  0  0  0  0  0  0
   13.0140   -0.0450   23.1220 C   0  0  0  0  0  0  0  0  0  0  0  0
   13.1440   -1.3940   22.0930 S   0  0  0  0  0  0  0  0  0  0  0  0
    4.5390   -5.3610   26.3030 S   0  0  0  0  0  0  0  0  0  0  0  0
    2.2490   -3.9990   25.9850 C   0  0  0  0  0  0  0  0  0  0  0  0
    2.1640   -1.5840   25.8280 C   0  0  0  0  0  0  0  0  0  0  0  0
    5.9290   -5.0100   26.4060 O   0  0  0  0  0  0  0  0  0  0  0  0
    4.0480   -6.3300   25.3520 O   0  0  0  0  0  0  0  0  0  0  0  0
    1.5170   -2.8290   25.8450 C   0  0  0  0  0  0  0  0  0  0  0  0
  1  2  1  0
  1  3  2  0
  1  4  1  0
  4  5  1  0
  4  6  1  0
  5  7  1  0
  6  8  1  0
  8  9  1  6
  8 10  1  0
  7 11  1  0
 10 11  1  0
  9 12  1  0
 10 13  1  0
 12 14  1  0
 13 15  1  0
 14 16  1  0
 15 17  1  0
 15 18  2  0
 16 19  2  0
 16 20  1  0
 17 21  2  0
 18 22  1  0
 21 22  1  0
 19 23  1  0
 19 24  1  0
 20 25  2  0
 23 26  2  0
 23 27  2  0
 24 28  2  0
 25 28  1  0
M  END
