x0397_0-x1374_1-x1412_1-x0692_1-x0770_1-x1334_1-x0831_0-x1334_0-x1385_1-x0434_2
     RDKit          3D

 39 43  0  0  0  0  0  0  0  0999 V2000
    2.2410   -7.6860   23.2290 O   0  0  0  0  0  0  0  0  0  0  0  0
    2.4570   -8.0360   24.5800 C   0  0  0  0  0  0  0  0  0  0  0  0
    3.8440   -7.9980   24.8210 O   0  0  0  0  0  0  0  0  0  0  0  0
    4.4960   -7.2000   23.8460 C   0  0  0  0  0  0  0  0  0  0  0  0
    4.8780   -6.0640   24.3820 C   0  0  0  0  0  0  0  0  0  0  0  0
    6.0410   -5.6410   23.5360 C   0  0  2  0  0  0  0  0  0  0  0  0
    5.8850   -4.6300   22.5430 C   0  0  2  0  0  0  0  0  0  0  0  0
    6.3620   -6.2100   22.2340 C   0  0  0  0  0  0  0  0  0  0  0  0
    7.1200   -3.7520   22.2560 C   0  0  1  0  0  0  0  0  0  0  0  0
    6.8130   -2.8160   21.1680 N   0  0  0  0  0  0  0  0  0  0  0  0
    7.3430   -3.1370   23.4860 C   0  0  0  0  0  0  0  0  0  0  0  0
    6.4730   -3.3170   19.9140 C   0  0  0  0  0  0  0  0  0  0  0  0
    8.3620   -2.0810   23.4740 N   0  0  0  0  0  0  0  0  0  0  0  0
    7.4690   -1.4910   21.2270 C   0  0  1  0  0  0  0  0  0  0  0  0
    7.4340   -3.0440   18.7950 C   0  0  0  0  0  0  0  0  0  0  0  0
    5.4650   -4.0210   19.7040 O   0  0  0  0  0  0  0  0  0  0  0  0
    9.6330   -2.3840   23.1880 C   0  0  2  0  0  0  0  0  0  0  0  0
    6.3550   -0.5830   21.1290 N   0  0  0  0  0  0  0  0  0  0  0  0
    8.0720   -1.0260   22.5580 C   0  0  0  0  0  0  0  0  0  0  0  0
   10.0830   -3.6120   23.8410 C   0  0  0  0  0  0  0  0  0  0  0  0
   10.5390   -1.1310   23.3320 C   0  0  0  0  0  0  0  0  0  0  0  0
    6.0050    0.1060   19.9990 C   0  0  0  0  0  0  0  0  0  0  0  0
   10.1300   -0.0030   24.0380 C   0  0  0  0  0  0  0  0  0  0  0  0
   11.9760   -0.9610   22.7030 C   0  0  0  0  0  0  0  0  0  0  0  0
    9.3880   -4.1980   25.0440 C   0  0  0  0  0  0  0  0  0  0  0  0
    6.7730    0.0070   18.8910 C   0  0  0  0  0  0  0  0  0  0  0  0
    4.8570    0.8900   20.0370 C   0  0  0  0  0  0  0  0  0  0  0  0
   12.6250   -2.0360   21.9000 C   0  0  0  0  0  0  0  0  0  0  0  0
   10.8660    1.1750   24.1860 C   0  0  0  0  0  0  0  0  0  0  0  0
   12.7200    0.1890   22.8440 C   0  0  0  0  0  0  0  0  0  0  0  0
    9.8040   -5.4810   25.3670 C   0  0  0  0  0  0  0  0  0  0  0  0
    8.1460   -3.6690   26.1740 S   0  0  0  0  0  0  0  0  0  0  0  0
    6.4250    0.7330   17.6690 N   0  0  0  0  0  0  0  0  0  0  0  0
    4.4060    1.6290   18.9690 C   0  0  0  0  0  0  0  0  0  0  0  0
   12.1170    1.3410   23.6350 C   0  0  0  0  0  0  0  0  0  0  0  0
    9.1660   -5.9550   26.4410 C   0  0  0  0  0  0  0  0  0  0  0  0
    8.2470   -5.1530   27.0190 C   0  0  0  0  0  0  0  0  0  0  0  0
    5.2140    1.5760   17.6880 C   0  0  0  0  0  0  0  0  0  0  0  0
    7.2880   -5.5000   28.3900 Cl  0  0  0  0  0  0  0  0  0  0  0  0
  1  2  1  0
  2  3  1  0
  3  4  1  0
  4  5  1  0
  6  5  1  6
  6  7  1  0
  6  8  1  0
  7  8  1  6
  7  9  1  0
  9 10  1  0
  9 11  1  1
 10 12  1  0
 11 13  1  0
 10 14  1  0
 12 15  1  0
 12 16  2  0
 13 17  1  0
 14 18  1  1
 13 19  1  0
 14 19  1  0
 17 20  1  1
 17 21  1  0
 18 22  1  0
 21 23  2  0
 21 24  1  0
 20 25  1  0
 22 26  2  0
 22 27  1  0
 24 28  1  0
 23 29  1  0
 24 30  2  0
 25 31  2  0
 25 32  1  0
 26 33  1  0
 27 34  2  0
 29 35  2  0
 30 35  1  0
 31 36  1  0
 32 37  1  0
 36 37  2  0
 33 38  2  0
 34 38  1  0
 37 39  1  0
M  END
