x0397_0-x1385_1-x0736_1-x1412_1-x1336_0-x0770_1-x1412_0-x0434_2-x0874_0-x0387_0-x1334_1
     RDKit          3D

 33 37  0  0  0  0  0  0  0  0999 V2000
    6.4020   -3.2720   19.9050 C   0  0  0  0  0  0  0  0  0  0  0  0
    7.3820   -2.9800   18.7780 C   0  0  0  0  0  0  0  0  0  0  0  0
    5.3960   -3.9610   19.6650 O   0  0  0  0  0  0  0  0  0  0  0  0
    6.6780   -2.8400   21.2130 N   0  0  0  0  0  0  0  0  0  0  0  0
    6.9340   -3.9560   22.0870 C   0  0  1  0  0  0  0  0  0  0  0  0
    7.3690   -1.6170   21.7090 C   0  0  1  0  0  0  0  0  0  0  0  0
    7.3930   -3.5640   23.4610 C   0  0  0  0  0  0  0  0  0  0  0  0
    8.7440   -1.9280   22.3230 C   0  0  0  0  0  0  0  0  0  0  0  0
    5.7420   -4.8290   22.2100 C   0  0  0  0  0  0  0  0  0  0  0  0
    7.5950   -0.4850   20.6640 C   0  0  0  0  0  0  0  0  0  0  0  0
    8.6750   -2.8830   23.4410 N   0  0  0  0  0  0  0  0  0  0  0  0
    5.6330   -5.8080   23.0880 C   0  0  0  0  0  0  0  0  0  0  0  0
    5.9020   -6.4010   21.9130 C   0  0  0  0  0  0  0  0  0  0  0  0
    7.2870   -0.9950   19.2610 C   0  0  0  0  0  0  0  0  0  0  0  0
    8.9450   -2.4170   24.7830 C   0  0  2  0  0  0  0  0  0  0  0  0
    6.7630    0.0600   18.4020 C   0  0  0  0  0  0  0  0  0  0  0  0
    7.8570   -1.5730   25.1750 O   0  0  0  0  0  0  0  0  0  0  0  0
   10.2010   -1.4980   24.9500 C   0  0  0  0  0  0  0  0  0  0  0  0
    8.9040   -3.6300   25.7140 C   0  0  0  0  0  0  0  0  0  0  0  0
    5.8860   -0.1220   19.6190 C   0  0  0  0  0  0  0  0  0  0  0  0
    6.1090    1.0600   17.7540 N   0  0  0  0  0  0  0  0  0  0  0  0
    9.7500   -4.7810   25.5280 C   0  0  0  0  0  0  0  0  0  0  0  0
    7.8980   -3.8860   27.0820 S   0  0  0  0  0  0  0  0  0  0  0  0
   11.2960   -1.3070   23.9060 C   0  0  0  0  0  0  0  0  0  0  0  0
    4.9870    1.7670   18.0160 C   0  0  0  0  0  0  0  0  0  0  0  0
    4.7420    0.5810   19.9230 C   0  0  0  0  0  0  0  0  0  0  0  0
    9.5170   -5.7360   26.4790 C   0  0  0  0  0  0  0  0  0  0  0  0
    8.5610   -5.4170   27.3890 C   0  0  0  0  0  0  0  0  0  0  0  0
   12.2010   -0.0700   23.8750 C   0  0  0  0  0  0  0  0  0  0  0  0
   11.6930   -2.1220   22.8600 C   0  0  0  0  0  0  0  0  0  0  0  0
    4.2310    1.6170   19.0600 C   0  0  0  0  0  0  0  0  0  0  0  0
   13.1150   -0.0280   22.9350 C   0  0  0  0  0  0  0  0  0  0  0  0
   13.0340   -1.4380   21.9630 S   0  0  0  0  0  0  0  0  0  0  0  0
  1  2  1  0
  1  3  2  0
  1  4  1  0
  4  5  1  0
  4  6  1  0
  5  7  1  0
  6  8  1  0
  5  9  1  1
  6 10  1  6
  7 11  1  0
  8 11  1  0
  9 12  1  0
  9 13  1  0
 12 13  1  0
 10 14  1  0
 11 15  1  0
 14 16  1  0
 15 17  1  1
 15 18  1  0
 15 19  1  0
 16 20  2  0
 16 21  1  0
 19 22  2  0
 19 23  1  0
 18 24  1  0
 21 25  2  0
 20 26  1  0
 22 27  1  0
 23 28  1  0
 27 28  2  0
 24 29  1  0
 24 30  2  0
 25 31  1  0
 26 31  2  0
 29 32  2  0
 30 33  1  0
 32 33  1  0
M  END
