x0397_0-x0770_1-x0831_1-x0831_0-x1418_1-x1334_0-x0434_2-x1412_1
     RDKit          3D

 34 38  0  0  0  0  0  0  0  0999 V2000
    6.3520   -3.3350   19.9060 C   0  0  0  0  0  0  0  0  0  0  0  0
    7.3050   -3.0620   18.7450 C   0  0  0  0  0  0  0  0  0  0  0  0
    5.4530   -4.1880   19.7900 O   0  0  0  0  0  0  0  0  0  0  0  0
    6.6330   -2.5600   21.0430 N   0  0  0  0  0  0  0  0  0  0  0  0
    7.7600   -1.6150   20.9020 C   0  0  2  0  0  0  0  0  0  0  0  0
    6.3990   -3.1580   22.2820 C   0  0  2  0  0  0  0  0  0  0  0  0
    9.0010   -1.7660   21.8120 C   0  0  0  0  0  0  0  0  0  0  0  0
    7.7330   -3.2700   23.0200 C   0  0  0  0  0  0  0  0  0  0  0  0
    5.6180   -4.4710   22.2400 C   0  0  0  0  0  0  0  0  0  0  0  0
    7.4690   -0.1160   20.7530 C   0  0  0  0  0  0  0  0  0  0  0  0
    8.4240   -1.9890   23.1270 N   0  0  0  0  0  0  0  0  0  0  0  0
    6.1830   -5.5000   23.1010 C   0  0  0  0  0  0  0  0  0  0  0  0
    6.1010   -5.9660   21.6900 C   0  0  0  0  0  0  0  0  0  0  0  0
    7.0870    0.2880   19.3480 C   0  0  0  0  0  0  0  0  0  0  0  0
    9.4630   -1.8980   24.1460 C   0  0  1  0  0  0  0  0  0  0  0  0
    6.0720    0.4560   20.3260 C   0  0  0  0  0  0  0  0  0  0  0  0
    6.4540    0.7400   18.1830 N   0  0  0  0  0  0  0  0  0  0  0  0
   10.0500   -3.2420   24.3850 C   0  0  0  0  0  0  0  0  0  0  0  0
   10.4630   -0.7630   23.8430 C   0  0  0  0  0  0  0  0  0  0  0  0
    5.2390    1.2450   17.8850 C   0  0  0  0  0  0  0  0  0  0  0  0
    4.7100    0.9910   20.0830 C   0  0  0  0  0  0  0  0  0  0  0  0
   10.1260    0.4710   24.2400 C   0  0  0  0  0  0  0  0  0  0  0  0
   11.8480   -0.9340   23.1020 C   0  0  0  0  0  0  0  0  0  0  0  0
    9.4330   -4.1700   25.3730 C   0  0  0  0  0  0  0  0  0  0  0  0
    4.3420    1.3710   18.8680 C   0  0  0  0  0  0  0  0  0  0  0  0
   12.3630   -2.2420   22.5890 C   0  0  0  0  0  0  0  0  0  0  0  0
   10.9190    1.7710   24.0640 C   0  0  0  0  0  0  0  0  0  0  0  0
   12.7890    0.2650   22.8430 C   0  0  0  0  0  0  0  0  0  0  0  0
    9.9880   -5.5960   25.4630 C   0  0  0  0  0  0  0  0  0  0  0  0
    8.1450   -3.6960   26.3980 S   0  0  0  0  0  0  0  0  0  0  0  0
   12.3370    1.6260   23.3160 C   0  0  0  0  0  0  0  0  0  0  0  0
    9.0840   -6.0210   26.5490 C   0  0  0  0  0  0  0  0  0  0  0  0
    8.1150   -5.1850   27.1210 C   0  0  0  0  0  0  0  0  0  0  0  0
    7.0210   -5.5620   28.3810 Cl  0  0  0  0  0  0  0  0  0  0  0  0
  1  2  1  0
  1  3  2  0
  1  4  1  0
  4  5  1  0
  4  6  1  0
  5  7  1  0
  6  8  1  0
  6  9  1  6
  5 10  1  1
  7 11  1  0
  8 11  1  0
  9 12  1  0
  9 13  1  0
 12 13  1  0
 10 14  1  0
 11 15  1  0
 14 16  2  0
 14 17  1  0
 15 18  1  6
 15 19  1  0
 17 20  2  0
 16 21  1  0
 19 22  2  0
 19 23  1  0
 18 24  1  0
 20 25  1  0
 21 25  2  0
 23 26  1  0
 22 27  1  0
 23 28  2  0
 24 29  2  0
 24 30  1  0
 27 31  2  0
 28 31  1  0
 29 32  1  0
 30 33  1  0
 32 33  2  0
 33 34  1  0
M  END
