x0395_1-x0749_1-x0691_1
     RDKit          3D

 30 32  0  0  0  0  0  0  0  0999 V2000
    6.3340   -3.8840   20.1700 C   0  0  0  0  0  0  0  0  0  0  0  0
    7.3740   -3.1890   19.2590 C   0  0  0  0  0  0  0  0  0  0  0  0
    5.2310   -4.1990   19.7370 O   0  0  0  0  0  0  0  0  0  0  0  0
    6.6550   -4.1980   21.4740 N   0  0  0  0  0  0  0  0  0  0  0  0
    7.5600   -3.3610   22.2310 C   0  0  0  0  0  0  0  0  0  0  0  0
    6.1740   -5.4340   22.0860 C   0  0  2  0  0  0  0  0  0  0  0  0
    5.0250   -5.0790   23.0460 C   0  0  0  0  0  0  0  0  0  0  0  0
    8.6240   -4.2290   22.8530 C   0  0  1  0  0  0  0  0  0  0  0  0
    7.2090   -6.1340   22.6980 C   0  0  0  0  0  0  0  0  0  0  0  0
    4.5990   -6.2390   23.9310 C   0  0  0  0  0  0  0  0  0  0  0  0
    9.6880   -3.3730   23.5680 C   0  0  0  0  0  0  0  0  0  0  0  0
    7.9760   -5.3980   23.6140 C   0  0  0  0  0  0  0  0  0  0  0  0
    4.4970   -5.8330   25.6650 S   0  0  0  0  0  0  0  0  0  0  0  0
    9.2750   -1.8760   23.8070 C   0  0  0  0  0  0  0  0  0  0  0  0
    3.8370   -6.9440   26.3070 O   0  0  0  0  0  0  0  0  0  0  0  0
    5.7720   -5.3540   26.1570 O   0  0  0  0  0  0  0  0  0  0  0  0
    3.3370   -4.3900   25.7180 C   0  0  0  0  0  0  0  0  0  0  0  0
   10.2190   -0.9210   23.1580 N   0  0  0  0  0  0  0  0  0  0  0  0
    3.8250   -3.0920   25.8190 C   0  0  0  0  0  0  0  0  0  0  0  0
    1.9440   -4.6240   25.6540 C   0  0  0  0  0  0  0  0  0  0  0  0
   11.2920   -1.6240   22.4090 C   0  0  0  0  0  0  0  0  0  0  0  0
   10.7940    0.0140   24.1250 C   0  0  0  0  0  0  0  0  0  0  0  0
    2.9640   -1.9840   25.8650 C   0  0  0  0  0  0  0  0  0  0  0  0
    0.9230   -3.4750   25.6970 C   0  0  0  0  0  0  0  0  0  0  0  0
   12.5150   -0.9690   22.2830 C   0  0  0  0  0  0  0  0  0  0  0  0
   11.7340    0.9970   23.4250 C   0  0  0  0  0  0  0  0  0  0  0  0
    3.4580   -0.7430   25.9650 F   0  0  0  0  0  0  0  0  0  0  0  0
   13.5000   -1.6170   21.6450 F   0  0  0  0  0  0  0  0  0  0  0  0
    1.4210   -2.1940   25.8010 C   0  0  0  0  0  0  0  0  0  0  0  0
   12.7910    0.3460   22.7800 C   0  0  0  0  0  0  0  0  0  0  0  0
  1  2  1  0
  1  3  2  0
  1  4  1  0
  4  5  1  0
  4  6  1  0
  6  7  1  1
  5  8  1  0
  6  9  1  0
  7 10  1  0
  8 11  1  1
  8 12  1  0
  9 12  1  0
 13 10  1  0
 11 14  1  0
 13 15  2  0
 13 16  2  0
 13 17  1  0
 14 18  1  0
 17 19  2  0
 17 20  1  0
 18 21  1  0
 18 22  1  0
 19 23  1  0
 20 24  2  0
 21 25  1  0
 22 26  1  0
 23 27  1  0
 25 28  1  0
 23 29  2  0
 24 29  1  0
 25 30  2  0
 26 30  1  0
M  END
