x0397_0-x0692_1-x1385_1-x1374_1-x1334_0-x1386_1-x0770_1-x1334_1-x0831_0-x0434_2
     RDKit          3D

 39 43  0  0  0  0  0  0  0  0999 V2000
    6.2720   -3.2530   19.8780 C   0  0  0  0  0  0  0  0  0  0  0  0
    7.2330   -2.9780   18.7420 C   0  0  0  0  0  0  0  0  0  0  0  0
    5.3160   -4.0130   19.6730 O   0  0  0  0  0  0  0  0  0  0  0  0
    6.5320   -2.7060   21.1340 N   0  0  0  0  0  0  0  0  0  0  0  0
    7.1420   -1.3880   21.3320 C   0  0  1  0  0  0  0  0  0  0  0  0
    6.6710   -3.6450   22.2740 C   0  0  1  0  0  0  0  0  0  0  0  0
    8.4460   -1.6820   22.1430 C   0  0  0  0  0  0  0  0  0  0  0  0
    6.9540   -2.8500   23.5240 C   0  0  0  0  0  0  0  0  0  0  0  0
    5.5730   -4.7020   22.5070 C   0  0  2  0  0  0  0  0  0  0  0  0
    7.6820   -0.4890   20.2280 C   0  0  0  0  0  0  0  0  0  0  0  0
    8.2960   -2.2850   23.5050 N   0  0  0  0  0  0  0  0  0  0  0  0
    6.2850   -5.9190   22.8280 C   0  0  2  0  0  0  0  0  0  0  0  0
    5.5730   -6.1770   21.7270 C   0  0  0  0  0  0  0  0  0  0  0  0
    6.9740   -0.0790   18.9660 C   0  0  0  0  0  0  0  0  0  0  0  0
    9.2650   -3.2320   23.7070 C   0  0  1  0  0  0  0  0  0  0  0  0
    6.3170    0.3980   20.0700 C   0  0  0  0  0  0  0  0  0  0  0  0
    6.1600    0.4190   17.9850 N   0  0  0  0  0  0  0  0  0  0  0  0
    6.0010   -6.7710   24.0340 C   0  0  0  0  0  0  0  0  0  0  0  0
   10.7020   -2.7880   23.6190 C   0  0  0  0  0  0  0  0  0  0  0  0
    9.0760   -4.0740   24.9510 C   0  0  0  0  0  0  0  0  0  0  0  0
    5.0500    1.1630   18.0150 C   0  0  0  0  0  0  0  0  0  0  0  0
    5.1620    1.1640   20.2070 C   0  0  0  0  0  0  0  0  0  0  0  0
    4.6600   -6.6420   24.3200 C   0  0  0  0  0  0  0  0  0  0  0  0
    9.8070   -5.1910   25.3300 C   0  0  0  0  0  0  0  0  0  0  0  0
    7.8270   -3.7120   26.1330 S   0  0  0  0  0  0  0  0  0  0  0  0
   11.0120   -1.3150   23.6330 C   0  0  0  0  0  0  0  0  0  0  0  0
    4.4720    1.5830   19.0840 C   0  0  0  0  0  0  0  0  0  0  0  0
    4.2010   -7.8700   24.8930 O   0  0  0  0  0  0  0  0  0  0  0  0
    9.3620   -5.8130   26.6290 C   0  0  0  0  0  0  0  0  0  0  0  0
    8.1790   -5.0950   27.2810 C   0  0  0  0  0  0  0  0  0  0  0  0
   10.2150   -0.2200   24.2990 C   0  0  0  0  0  0  0  0  0  0  0  0
   12.2730   -0.7850   22.9120 C   0  0  0  0  0  0  0  0  0  0  0  0
    2.8080   -8.0300   24.7060 C   0  0  0  0  0  0  0  0  0  0  0  0
    7.2930   -5.3830   28.7060 Cl  0  0  0  0  0  0  0  0  0  0  0  0
   13.1480   -1.7520   22.1920 C   0  0  0  0  0  0  0  0  0  0  0  0
   10.5430    1.2970   24.3130 C   0  0  0  0  0  0  0  0  0  0  0  0
   12.6290    0.5520   22.8980 C   0  0  0  0  0  0  0  0  0  0  0  0
    2.5150   -7.6490   23.3760 O   0  0  0  0  0  0  0  0  0  0  0  0
   11.8060    1.6900   23.5830 C   0  0  0  0  0  0  0  0  0  0  0  0
  1  2  1  0
  1  3  2  0
  1  4  1  0
  4  5  1  0
  4  6  1  0
  5  7  1  0
  6  8  1  1
  6  9  1  0
  5 10  1  6
  7 11  1  0
  8 11  1  0
  9 12  1  0
  9 13  1  6
 12 13  1  0
 10 14  1  0
 11 15  1  0
 14 16  2  0
 14 17  1  0
 12 18  1  1
 15 19  1  1
 15 20  1  0
 17 21  2  0
 16 22  1  0
 18 23  1  0
 20 24  2  0
 20 25  1  0
 19 26  1  0
 21 27  1  0
 22 27  2  0
 23 28  1  0
 24 29  1  0
 25 30  1  0
 29 30  2  0
 26 31  2  0
 26 32  1  0
 28 33  1  0
 30 34  1  0
 32 35  1  0
 31 36  1  0
 32 37  2  0
 33 38  1  0
 36 39  2  0
 37 39  1  0
M  END
