x0397_0-x0770_1-x1374_1-x0540_3-x1386_1-x0831_1-x0831_0-x1418_1-x1334_0-x0692_1-x0434_2-x1412_1
     RDKit          3D

 44 48  0  0  0  0  0  0  0  0999 V2000
    2.0310   -6.6110   24.0530 O   0  0  0  0  0  0  0  0  0  0  0  0
    2.9350   -7.5520   23.5250 C   0  0  0  0  0  0  0  0  0  0  0  0
    3.8850   -7.9640   24.5030 O   0  0  0  0  0  0  0  0  0  0  0  0
    5.1830   -7.4190   24.2880 C   0  0  0  0  0  0  0  0  0  0  0  0
    5.1770   -6.0610   24.4890 C   0  0  0  0  0  0  0  0  0  0  0  0
    6.0040   -5.4740   23.4070 C   0  0  2  0  0  0  0  0  0  0  0  0
    5.6250   -4.4760   22.5640 C   0  0  2  0  0  0  0  0  0  0  0  0
    6.0390   -5.9600   22.0450 C   0  0  0  0  0  0  0  0  0  0  0  0
    6.4340   -3.2600   22.3540 C   0  0  2  0  0  0  0  0  0  0  0  0
    6.2740   -2.5430   21.1020 N   0  0  0  0  0  0  0  0  0  0  0  0
    7.8440   -3.3810   22.5920 C   0  0  0  0  0  0  0  0  0  0  0  0
    6.2060   -3.2990   19.9210 C   0  0  0  0  0  0  0  0  0  0  0  0
    8.3860   -2.0560   22.9440 N   0  0  0  0  0  0  0  0  0  0  0  0
    6.8800   -1.2010   21.2940 C   0  0  1  0  0  0  0  0  0  0  0  0
    7.2220   -2.9940   18.8270 C   0  0  0  0  0  0  0  0  0  0  0  0
    5.3760   -4.2020   19.7720 O   0  0  0  0  0  0  0  0  0  0  0  0
    6.1120   -0.3550   22.3880 C   0  0  0  0  0  0  0  0  0  0  0  0
    9.4750   -1.9940   23.7630 C   0  0  1  0  0  0  0  0  0  0  0  0
    8.3350   -1.1960   21.7950 C   0  0  0  0  0  0  0  0  0  0  0  0
    5.1160    0.6250   21.7870 C   0  0  1  0  0  0  0  0  0  0  0  0
   10.0590   -3.3370   23.8780 C   0  0  0  0  0  0  0  0  0  0  0  0
   10.4580   -0.8030   23.5910 C   0  0  0  0  0  0  0  0  0  0  0  0
    5.2600    1.9720   22.4850 C   0  0  0  0  0  0  0  0  0  0  0  0
   10.0900    0.4910   24.0280 C   0  0  0  0  0  0  0  0  0  0  0  0
   11.8980   -0.9220   22.9550 C   0  0  0  0  0  0  0  0  0  0  0  0
    9.5520   -4.0780   25.0730 C   0  0  0  0  0  0  0  0  0  0  0  0
    5.4370    0.7340   20.3180 C   0  0  0  0  0  0  0  0  0  0  0  0
    3.9810    2.6740   22.5730 N   0  0  0  0  0  0  0  0  0  0  0  0
   12.5550   -2.1450   22.3970 C   0  0  0  0  0  0  0  0  0  0  0  0
   10.8810    1.6210   23.9440 C   0  0  0  0  0  0  0  0  0  0  0  0
   12.8090    0.3180   22.8490 C   0  0  0  0  0  0  0  0  0  0  0  0
   10.0960   -5.2440   25.7780 C   0  0  0  0  0  0  0  0  0  0  0  0
    8.1020   -3.6990   25.9700 S   0  0  0  0  0  0  0  0  0  0  0  0
    6.6750    0.0420   19.8170 C   0  0  0  0  0  0  0  0  0  0  0  0
    4.6540    1.4720   19.2480 C   0  0  0  0  0  0  0  0  0  0  0  0
    2.8850    2.1990   23.4330 C   0  0  0  0  0  0  0  0  0  0  0  0
   12.2730    1.6320   23.3640 C   0  0  0  0  0  0  0  0  0  0  0  0
    9.4550   -5.7160   26.8460 C   0  0  0  0  0  0  0  0  0  0  0  0
    8.3050   -4.9800   27.1200 C   0  0  0  0  0  0  0  0  0  0  0  0
    6.9700    0.1200   18.5470 C   0  0  0  0  0  0  0  0  0  0  0  0
    5.1660    1.4100   18.0100 C   0  0  0  0  0  0  0  0  0  0  0  0
    3.0020    1.4750   24.4150 O   0  0  0  0  0  0  0  0  0  0  0  0
    7.1940   -5.2400   28.3960 Cl  0  0  0  0  0  0  0  0  0  0  0  0
    6.2750    0.7670   17.6290 N   0  0  0  0  0  0  0  0  0  0  0  0
  1  2  1  0
  2  3  1  0
  3  4  1  0
  4  5  1  0
  6  5  1  1
  6  7  1  0
  6  8  1  0
  7  8  1  6
  7  9  1  0
  9 10  1  0
  9 11  1  6
 10 12  1  0
 11 13  1  0
 10 14  1  0
 12 15  1  0
 12 16  2  0
 14 17  1  1
 13 18  1  0
 13 19  1  0
 14 19  1  0
 20 17  1  1
 18 21  1  6
 18 22  1  0
 20 23  1  0
 22 24  2  0
 22 25  1  0
 21 26  1  0
 20 27  1  0
 23 28  1  0
 25 29  1  0
 24 30  1  0
 25 31  2  0
 26 32  2  0
 26 33  1  0
 27 34  2  0
 27 35  1  0
 28 36  1  0
 30 37  2  0
 31 37  1  0
 32 38  1  0
 33 39  1  0
 38 39  2  0
 34 40  1  0
 35 41  2  0
 36 42  2  0
 39 43  1  0
 40 44  2  0
 41 44  1  0
M  END
