x0395_1-x0759_1-x0736_1
     RDKit          3D

 17 18  0  0  0  0  0  0  0  0999 V2000
    6.4430   -3.4570   20.0250 C   0  0  0  0  0  0  0  0  0  0  0  0
    7.3980   -3.0240   18.9240 C   0  0  0  0  0  0  0  0  0  0  0  0
    5.4530   -4.1630   19.7830 O   0  0  0  0  0  0  0  0  0  0  0  0
    6.7530   -3.0800   21.3330 N   0  0  0  0  0  0  0  0  0  0  0  0
    7.7960   -2.2290   21.7100 C   0  0  0  0  0  0  0  0  0  0  0  0
    6.1860   -3.7430   22.4010 C   0  0  0  0  0  0  0  0  0  0  0  0
    8.1650   -2.4660   23.1850 C   0  0  2  0  0  0  0  0  0  0  0  0
    7.2020   -4.4370   23.3310 C   0  0  0  0  0  0  0  0  0  0  0  0
    9.3140   -1.6670   23.8310 C   0  0  0  0  0  0  0  0  0  0  0  0
    8.3820   -3.6460   23.4210 O   0  0  0  0  0  0  0  0  0  0  0  0
   10.1620   -0.7610   23.0210 N   0  0  0  0  0  0  0  0  0  0  0  0
   11.1780   -1.5760   22.2920 C   0  0  0  0  0  0  0  0  0  0  0  0
   10.8410    0.1620   23.9470 C   0  0  0  0  0  0  0  0  0  0  0  0
   12.4700   -1.0110   22.2740 C   0  0  0  0  0  0  0  0  0  0  0  0
   11.6290    1.1130   23.3030 C   0  0  0  0  0  0  0  0  0  0  0  0
   13.4630   -1.7530   21.7660 F   0  0  0  0  0  0  0  0  0  0  0  0
   12.7830    0.2720   22.7430 C   0  0  0  0  0  0  0  0  0  0  0  0
  1  2  1  0
  1  3  2  0
  1  4  1  0
  4  5  1  0
  4  6  1  0
  5  7  1  0
  6  8  1  0
  7  9  1  6
  7 10  1  0
  8 10  1  0
  9 11  1  0
 11 12  1  0
 11 13  1  0
 12 14  1  0
 13 15  1  0
 14 16  1  0
 14 17  2  0
 15 17  1  0
M  END
