x0397_0-x0770_1-x1385_1-x0540_3-x1374_1-x0831_0-x1418_1-x1334_0-x0692_1-x1334_1-x1412_1
     RDKit          3D

 38 41  0  0  0  0  0  0  0  0999 V2000
    2.0890   -7.1010   23.6810 O   0  0  0  0  0  0  0  0  0  0  0  0
    2.5940   -7.3820   24.9750 C   0  0  0  0  0  0  0  0  0  0  0  0
    3.9570   -7.7600   24.9330 O   0  0  0  0  0  0  0  0  0  0  0  0
    4.5770   -7.1180   23.8250 C   0  0  0  0  0  0  0  0  0  0  0  0
    5.1180   -5.9280   24.2410 C   0  0  0  0  0  0  0  0  0  0  0  0
    6.1450   -5.5900   23.2000 C   0  0  2  0  0  0  0  0  0  0  0  0
    5.9460   -4.5620   22.4380 C   0  0  2  0  0  0  0  0  0  0  0  0
    6.0430   -6.1500   22.0250 C   0  0  0  0  0  0  0  0  0  0  0  0
    7.0680   -3.5880   22.1660 C   0  0  1  0  0  0  0  0  0  0  0  0
    6.6100   -2.6810   21.1040 N   0  0  0  0  0  0  0  0  0  0  0  0
    7.3480   -2.9210   23.3440 C   0  0  0  0  0  0  0  0  0  0  0  0
    6.3110   -3.2840   19.8650 C   0  0  0  0  0  0  0  0  0  0  0  0
    8.3380   -1.8100   23.1970 N   0  0  0  0  0  0  0  0  0  0  0  0
    7.2600   -1.3430   21.2180 C   0  0  1  0  0  0  0  0  0  0  0  0
    7.2940   -2.9810   18.7490 C   0  0  0  0  0  0  0  0  0  0  0  0
    5.3560   -4.0560   19.7070 O   0  0  0  0  0  0  0  0  0  0  0  0
    6.4860   -0.3880   22.2100 C   0  0  0  0  0  0  0  0  0  0  0  0
    9.5260   -1.9170   24.1020 C   0  0  1  0  0  0  0  0  0  0  0  0
    8.5090   -1.4140   21.8030 C   0  0  0  0  0  0  0  0  0  0  0  0
    5.2910    0.4060   21.6840 C   0  0  0  0  0  0  0  0  0  0  0  0
   10.1490   -3.2740   24.0550 C   0  0  0  0  0  0  0  0  0  0  0  0
   10.5480   -0.8050   23.8020 C   0  0  0  0  0  0  0  0  0  0  0  0
    5.2310    1.8310   22.2810 C   0  0  0  0  0  0  0  0  0  0  0  0
   10.2190    0.4500   24.2760 C   0  0  0  0  0  0  0  0  0  0  0  0
   11.7810   -0.9120   23.0990 C   0  0  0  0  0  0  0  0  0  0  0  0
    9.5850   -4.1890   25.1120 C   0  0  0  0  0  0  0  0  0  0  0  0
    3.8720    2.4150   22.2760 N   0  0  0  0  0  0  0  0  0  0  0  0
   12.3980   -2.1970   22.4490 C   0  0  0  0  0  0  0  0  0  0  0  0
   11.0510    1.5510   24.0700 C   0  0  0  0  0  0  0  0  0  0  0  0
   12.6310    0.1740   22.8900 C   0  0  0  0  0  0  0  0  0  0  0  0
    9.9400   -5.4690   25.3560 C   0  0  0  0  0  0  0  0  0  0  0  0
    8.3400   -3.7300   26.2330 S   0  0  0  0  0  0  0  0  0  0  0  0
    2.9090    2.2050   23.4070 C   0  0  0  0  0  0  0  0  0  0  0  0
   12.2560    1.4230   23.3820 C   0  0  0  0  0  0  0  0  0  0  0  0
    9.1920   -6.1010   26.4990 C   0  0  0  0  0  0  0  0  0  0  0  0
    8.3030   -5.2300   27.0400 C   0  0  0  0  0  0  0  0  0  0  0  0
    2.9680    1.2740   24.1990 O   0  0  0  0  0  0  0  0  0  0  0  0
    7.2440   -5.5180   28.3550 Cl  0  0  0  0  0  0  0  0  0  0  0  0
  1  2  1  0
  2  3  1  0
  3  4  1  0
  4  5  1  0
  6  5  1  1
  6  7  1  0
  6  8  1  0
  7  8  1  6
  7  9  1  0
  9 10  1  0
  9 11  1  1
 10 12  1  0
 11 13  1  0
 10 14  1  0
 12 15  1  0
 12 16  2  0
 14 17  1  1
 13 18  1  0
 13 19  1  0
 14 19  1  0
 17 20  1  0
 18 21  1  6
 18 22  1  0
 20 23  1  0
 22 24  2  0
 22 25  1  0
 21 26  1  0
 23 27  1  0
 25 28  1  0
 24 29  1  0
 25 30  2  0
 26 31  2  0
 26 32  1  0
 27 33  1  0
 29 34  2  0
 30 34  1  0
 31 35  1  0
 32 36  1  0
 35 36  2  0
 33 37  2  0
 36 38  1  0
M  END
