x0395_1-x0755_1
     RDKit          3D

 22 23  0  0  0  0  0  0  0  0999 V2000
    5.0500   -5.0770   26.0490 S   0  0  0  0  0  0  0  0  0  0  0  0
    3.7850   -3.8470   25.9670 C   0  0  0  0  0  0  0  0  0  0  0  0
    2.4360   -4.1880   25.8250 C   0  0  0  0  0  0  0  0  0  0  0  0
    4.4670   -6.3750   25.8240 O   0  0  0  0  0  0  0  0  0  0  0  0
    6.0830   -4.7980   27.0090 O   0  0  0  0  0  0  0  0  0  0  0  0
    4.2250   -2.3970   26.0630 C   0  0  0  0  0  0  0  0  0  0  0  0
    2.0850   -5.4790   25.7400 F   0  0  0  0  0  0  0  0  0  0  0  0
    5.4140   -2.1350   26.1860 O   0  0  0  0  0  0  0  0  0  0  0  0
    3.0930   -1.3910   25.9970 C   0  0  0  0  0  0  0  0  0  0  0  0
    1.3320   -3.1410   25.7630 C   0  0  0  0  0  0  0  0  0  0  0  0
    5.9670   -1.1490   25.3160 C   0  0  0  0  0  0  0  0  0  0  0  0
    1.7380   -1.6680   25.8620 C   0  0  0  0  0  0  0  0  0  0  0  0
    7.4630   -1.2430   25.2320 C   0  0  0  0  0  0  0  0  0  0  0  0
    8.0020   -0.5820   23.9620 C   0  0  0  0  0  0  0  0  0  0  0  0
    9.0960   -1.4630   23.3390 C   0  0  0  0  0  0  0  0  0  0  0  0
   10.3200   -0.7180   22.9530 N   0  0  0  0  0  0  0  0  0  0  0  0
   11.2620   -1.6390   22.3600 C   0  0  0  0  0  0  0  0  0  0  0  0
   10.8050    0.0310   24.0030 C   0  0  0  0  0  0  0  0  0  0  0  0
   12.5060   -1.0030   22.2770 C   0  0  0  0  0  0  0  0  0  0  0  0
   11.7000    0.9380   23.4430 C   0  0  0  0  0  0  0  0  0  0  0  0
   13.5070   -1.6390   21.6590 F   0  0  0  0  0  0  0  0  0  0  0  0
   12.7260    0.2600   22.8100 C   0  0  0  0  0  0  0  0  0  0  0  0
  1  2  1  0
  2  3  2  0
  1  4  2  0
  1  5  2  0
  2  6  1  0
  3  7  1  0
  6  8  1  0
  6  9  2  0
  3 10  1  0
  8 11  1  0
  9 12  1  0
 10 12  2  0
 11 13  1  0
 13 14  1  0
 14 15  1  0
 15 16  1  0
 16 17  1  0
 16 18  1  0
 17 19  1  0
 18 20  1  0
 19 21  1  0
 19 22  2  0
 20 22  1  0
M  END
