x0397_0-x0770_1-x1385_1-x1386_1-x0831_1-x0831_0-x1334_0-x0692_1-x0434_2-x0734_0-x1334_1
     RDKit          3D

 42 47  0  0  0  0  0  0  0  0999 V2000
    6.3660   -3.3040   19.7860 C   0  0  0  0  0  0  0  0  0  0  0  0
    7.3580   -3.0540   18.6640 C   0  0  0  0  0  0  0  0  0  0  0  0
    5.4070   -4.0820   19.7010 O   0  0  0  0  0  0  0  0  0  0  0  0
    6.7040   -2.5690   20.9380 N   0  0  0  0  0  0  0  0  0  0  0  0
    7.7670   -1.5500   20.7220 C   0  0  2  0  0  0  0  0  0  0  0  0
    6.9680   -3.4820   22.0580 C   0  0  1  0  0  0  0  0  0  0  0  0
    8.9390   -1.8300   21.6220 C   0  0  0  0  0  0  0  0  0  0  0  0
    7.4080   -2.8690   23.2170 C   0  0  0  0  0  0  0  0  0  0  0  0
    5.7040   -4.3710   22.3000 C   0  0  2  0  0  0  0  0  0  0  0  0
    7.3510   -0.0940   20.7070 C   0  0  0  0  0  0  0  0  0  0  0  0
    8.5290   -1.9540   22.9970 N   0  0  0  0  0  0  0  0  0  0  0  0
    5.6810   -5.1990   23.3080 C   0  0  2  0  0  0  0  0  0  0  0  0
    5.8150   -6.0260   22.1540 C   0  0  0  0  0  0  0  0  0  0  0  0
    7.0430    0.3040   19.2910 C   0  0  0  0  0  0  0  0  0  0  0  0
    4.4170   -5.1760   24.1420 C   0  0  0  0  0  0  0  0  0  0  0  0
    9.7290   -2.1500   23.7910 C   0  0  2  0  0  0  0  0  0  0  0  0
    5.9610    0.5140   20.1890 C   0  0  0  0  0  0  0  0  0  0  0  0
    6.4410    0.7620   18.1260 N   0  0  0  0  0  0  0  0  0  0  0  0
    4.7380   -5.6600   25.5070 N   0  0  0  0  0  0  0  0  0  0  0  0
    9.3780   -2.5120   25.1770 C   0  0  0  0  0  0  0  0  0  0  0  0
   10.6100   -0.9080   23.6610 C   0  0  0  0  0  0  0  0  0  0  0  0
    5.2140    1.2720   17.9090 C   0  0  0  0  0  0  0  0  0  0  0  0
    4.6920    1.0160   20.0270 C   0  0  0  0  0  0  0  0  0  0  0  0
    5.4450   -4.9320   26.2870 N   0  0  0  0  0  0  0  0  0  0  0  0
   10.1170    0.4130   24.2370 C   0  0  0  0  0  0  0  0  0  0  0  0
   12.0160   -0.9060   22.9440 C   0  0  0  0  0  0  0  0  0  0  0  0
    4.2360    1.4280   18.8910 C   0  0  0  0  0  0  0  0  0  0  0  0
    4.9420   -3.8510   26.7640 O   0  0  0  0  0  0  0  0  0  0  0  0
   12.6290   -2.1120   22.3220 C   0  0  0  0  0  0  0  0  0  0  0  0
    6.8800   -5.1980   26.3670 C   0  0  0  0  0  0  0  0  0  0  0  0
   10.8900    1.5700   24.1160 C   0  0  0  0  0  0  0  0  0  0  0  0
   12.7210    0.2720   22.8720 C   0  0  0  0  0  0  0  0  0  0  0  0
    7.5990   -4.9390   25.0640 C   0  0  0  0  0  0  0  0  0  0  0  0
    7.5170   -5.6880   27.5470 C   0  0  0  0  0  0  0  0  0  0  0  0
   12.2840    1.6510   23.4230 C   0  0  0  0  0  0  0  0  0  0  0  0
    6.5930   -6.2460   28.8640 Cl  0  0  0  0  0  0  0  0  0  0  0  0
    8.9260   -5.1690   24.8490 C   0  0  1  0  0  0  0  0  0  0  0  0
    8.9110   -5.7050   27.6350 C   0  0  0  0  0  0  0  0  0  0  0  0
    9.8180   -4.2630   24.0390 C   0  0  0  0  0  0  0  0  0  0  0  0
    9.6450   -5.0830   26.2780 S   0  0  0  0  0  0  0  0  0  0  0  0
   11.1120   -4.2590   26.0320 C   0  0  0  0  0  0  0  0  0  0  0  0
   11.0500   -3.7900   24.6250 C   0  0  0  0  0  0  0  0  0  0  0  0
  1  2  1  0
  1  3  2  0
  1  4  1  0
  4  5  1  0
  4  6  1  0
  5  7  1  0
  6  8  1  1
  6  9  1  0
  5 10  1  1
  7 11  1  0
  8 11  1  0
  9 12  1  0
  9 13  1  6
 12 13  1  0
 10 14  1  0
 12 15  1  6
 11 16  1  0
 14 17  2  0
 14 18  1  0
 15 19  1  0
 16 20  1  1
 16 21  1  0
 18 22  2  0
 17 23  1  0
 19 24  2  3
 21 25  2  0
 21 26  1  0
 22 27  1  0
 23 27  2  0
 24 28  1  0
 26 29  1  0
 24 30  1  0
 25 31  1  0
 26 32  2  0
 30 33  2  0
 30 34  1  0
 31 35  2  0
 32 35  1  0
 34 36  1  0
 37 33  1  1
 34 38  2  0
 37 39  1  0
 37 40  1  0
 38 40  1  0
 40 41  2  0
 39 42  2  0
 41 42  1  0
M  CHG  2  24   1  28  -1
M  END
