x0395_1-x0749_1-x0434_2
     RDKit          3D

 27 29  0  0  0  0  0  0  0  0999 V2000
    6.4410   -3.9850   20.0600 C   0  0  0  0  0  0  0  0  0  0  0  0
    7.4750   -3.2350   19.1830 C   0  0  0  0  0  0  0  0  0  0  0  0
    5.2760   -4.1580   19.7340 O   0  0  0  0  0  0  0  0  0  0  0  0
    6.8990   -4.5380   21.2590 N   0  0  0  0  0  0  0  0  0  0  0  0
    8.0650   -4.0400   21.9240 C   0  0  0  0  0  0  0  0  0  0  0  0
    6.1620   -5.4940   22.0490 C   0  0  0  0  0  0  0  0  0  0  0  0
    7.7380   -3.8780   23.4020 C   0  0  2  0  0  0  0  0  0  0  0  0
    7.0370   -6.1930   22.9330 C   0  0  0  0  0  0  0  0  0  0  0  0
    8.7670   -2.9070   24.0180 C   0  0  0  0  0  0  0  0  0  0  0  0
    7.6350   -5.3720   23.8990 C   0  0  0  0  0  0  0  0  0  0  0  0
    9.0850   -1.5990   23.2290 C   0  0  2  0  0  0  0  0  0  0  0  0
    8.8530   -1.7070   21.7240 C   0  0  0  0  0  0  0  0  0  0  0  0
   10.4830   -1.1860   23.3030 N   0  0  0  0  0  0  0  0  0  0  0  0
    7.3640   -1.6680   21.3240 C   0  0  0  0  0  0  0  0  0  0  0  0
   11.4360   -1.6760   22.4570 C   0  0  0  0  0  0  0  0  0  0  0  0
   10.8910    0.0080   24.0800 C   0  0  0  0  0  0  0  0  0  0  0  0
    6.8610   -0.2990   21.3090 N   0  0  0  0  0  0  0  0  0  0  0  0
   12.5700   -0.8560   22.3970 C   0  0  0  0  0  0  0  0  0  0  0  0
   11.7170    0.9400   23.3990 C   0  0  0  0  0  0  0  0  0  0  0  0
   13.5920   -1.4670   21.7880 F   0  0  0  0  0  0  0  0  0  0  0  0
   12.8400    0.3740   22.8030 C   0  0  0  0  0  0  0  0  0  0  0  0
    6.2860    0.2570   20.1870 C   0  0  0  0  0  0  0  0  0  0  0  0
    6.8480    0.1110   18.9230 C   0  0  0  0  0  0  0  0  0  0  0  0
    5.1200    1.0020   20.2200 C   0  0  0  0  0  0  0  0  0  0  0  0
    6.3890    0.6170   17.7660 N   0  0  0  0  0  0  0  0  0  0  0  0
    4.5960    1.5480   19.0540 C   0  0  0  0  0  0  0  0  0  0  0  0
    5.2610    1.3340   17.8660 C   0  0  0  0  0  0  0  0  0  0  0  0
  1  2  1  0
  1  3  2  0
  1  4  1  0
  4  5  1  0
  4  6  1  0
  5  7  1  0
  6  8  1  0
  7  9  1  1
  7 10  1  0
  8 10  1  0
 11  9  1  1
 11 12  1  0
 11 13  1  0
 12 14  1  0
 13 15  1  0
 13 16  1  0
 14 17  1  0
 15 18  1  0
 16 19  1  0
 18 20  1  0
 18 21  2  0
 19 21  1  0
 17 22  1  0
 22 23  2  0
 22 24  1  0
 23 25  1  0
 24 26  2  0
 25 27  2  0
 26 27  1  0
M  END
