x0397_0-x1386_1-x1374_1-x0831_1-x0770_1-x1334_1-x0831_0
     RDKit          3D

 26 28  0  0  0  0  0  0  0  0999 V2000
    2.7130   -7.4800   23.3660 O   0  0  0  0  0  0  0  0  0  0  0  0
    3.3790   -7.0720   24.5460 C   0  0  0  0  0  0  0  0  0  0  0  0
    4.5530   -7.8510   24.7050 O   0  0  0  0  0  0  0  0  0  0  0  0
    5.6150   -7.4050   23.8530 C   0  0  0  0  0  0  0  0  0  0  0  0
    6.1970   -6.3060   24.4150 C   0  0  0  0  0  0  0  0  0  0  0  0
    6.3540   -5.3110   23.2970 C   0  0  2  0  0  0  0  0  0  0  0  0
    5.3080   -4.9980   22.5240 C   0  0  2  0  0  0  0  0  0  0  0  0
    6.6420   -5.7480   21.9480 C   0  0  0  0  0  0  0  0  0  0  0  0
    5.1110   -3.4700   22.5040 C   0  0  0  0  0  0  0  0  0  0  0  0
    6.3690   -2.5910   22.3430 C   0  0  2  0  0  0  0  0  0  0  0  0
    6.6140   -2.2150   20.9360 N   0  0  0  0  0  0  0  0  0  0  0  0
    7.6980   -3.0760   22.9640 C   0  0  0  0  0  0  0  0  0  0  0  0
    6.4140   -3.0970   19.8300 C   0  0  0  0  0  0  0  0  0  0  0  0
    8.7040   -1.9620   22.8950 N   0  0  0  0  0  0  0  0  0  0  0  0
    7.7030   -1.2120   20.7800 C   0  0  0  0  0  0  0  0  0  0  0  0
    7.3620   -2.9460   18.6640 C   0  0  0  0  0  0  0  0  0  0  0  0
    5.5420   -3.9900   19.7290 O   0  0  0  0  0  0  0  0  0  0  0  0
    9.8710   -2.2080   23.5660 C   0  0  0  0  0  0  0  0  0  0  0  0
    8.9930   -1.6030   21.6010 C   0  0  0  0  0  0  0  0  0  0  0  0
   10.8050   -1.0200   23.4980 C   0  0  0  0  0  0  0  0  0  0  0  0
   10.2650    0.0900   24.1250 C   0  0  0  0  0  0  0  0  0  0  0  0
   12.0610   -0.9650   22.8870 C   0  0  0  0  0  0  0  0  0  0  0  0
   12.6750   -2.1440   22.1920 C   0  0  0  0  0  0  0  0  0  0  0  0
   10.9930    1.2610   24.1230 C   0  0  0  0  0  0  0  0  0  0  0  0
   12.7810    0.2310   22.9050 C   0  0  0  0  0  0  0  0  0  0  0  0
   12.2450    1.3570   23.5230 C   0  0  0  0  0  0  0  0  0  0  0  0
  1  2  1  0
  2  3  1  0
  3  4  1  0
  4  5  1  0
  6  5  1  1
  6  7  1  0
  6  8  1  0
  7  8  1  0
  7  9  1  6
 10  9  1  6
 10 11  1  0
 10 12  1  0
 11 13  1  0
 12 14  1  0
 11 15  1  0
 13 16  1  0
 13 17  2  0
 14 18  1  0
 14 19  1  0
 15 19  1  0
 18 20  1  0
 20 21  2  0
 20 22  1  0
 22 23  1  0
 21 24  1  0
 22 25  2  0
 24 26  2  0
 25 26  1  0
M  END
