x0397_1-x0771_1
     RDKit          3D

 25 26  0  0  0  0  0  0  0  0999 V2000
    5.0710   -5.6710   25.8190 S   0  0  0  0  0  0  0  0  0  0  0  0
    5.8730   -5.4640   24.2720 C   0  0  0  0  0  0  0  0  0  0  0  0
    5.7440   -4.1230   23.5770 C   0  0  0  0  0  0  0  0  0  0  0  0
    4.4460   -6.9750   25.7830 O   0  0  0  0  0  0  0  0  0  0  0  0
    6.0400   -5.3390   26.8360 O   0  0  0  0  0  0  0  0  0  0  0  0
    3.7940   -4.4510   25.8980 C   0  0  0  0  0  0  0  0  0  0  0  0
    2.4810   -4.7540   25.5120 C   0  0  0  0  0  0  0  0  0  0  0  0
    4.1000   -3.1640   26.3620 C   0  0  0  0  0  0  0  0  0  0  0  0
    2.0070   -6.0820   24.9880 C   0  0  0  0  0  0  0  0  0  0  0  0
    5.4340   -4.3210   22.1070 C   0  0  0  0  0  0  0  0  0  0  0  0
    1.5150   -3.8150   25.6010 C   0  0  0  0  0  0  0  0  0  0  0  0
    2.9980   -2.1230   26.4540 C   0  0  0  0  0  0  0  0  0  0  0  0
    5.5920   -3.1350   21.3890 C   0  0  0  0  0  0  0  0  0  0  0  0
    1.7540   -2.4610   26.0870 C   0  0  0  0  0  0  0  0  0  0  0  0
    0.6450   -1.4630   26.1850 C   0  0  0  0  0  0  0  0  0  0  0  0
    6.6360   -3.0440   20.4930 C   0  0  0  0  0  0  0  0  0  0  0  0
    7.0790   -1.8470   20.2630 N   0  0  0  0  0  0  0  0  0  0  0  0
    8.2020   -1.6210   20.9970 C   0  0  0  0  0  0  0  0  0  0  0  0
    7.0570   -1.5260   18.8400 C   0  0  0  0  0  0  0  0  0  0  0  0
    6.2180   -0.3140   18.6780 C   0  0  0  0  0  0  0  0  0  0  0  0
    5.0930    0.1880   19.5170 C   0  0  0  0  0  0  0  0  0  0  0  0
    6.3700    0.5710   17.6730 N   0  0  0  0  0  0  0  0  0  0  0  0
    4.6480    1.3420   18.9630 C   0  0  0  0  0  0  0  0  0  0  0  0
    5.4170    1.5720   17.8540 O   0  0  0  0  0  0  0  0  0  0  0  0
    3.6010    2.3190   19.2810 C   0  0  0  0  0  0  0  0  0  0  0  0
  1  2  1  0
  2  3  1  0
  1  4  2  0
  1  5  2  0
  1  6  1  0
  6  7  2  0
  6  8  1  0
  7  9  1  0
  3 10  1  0
  7 11  1  0
  8 12  2  0
 10 13  1  0
 11 14  2  0
 12 14  1  0
 14 15  1  0
 13 16  1  0
 16 17  1  0
 17 18  1  0
 17 19  1  0
 19 20  1  0
 20 21  1  0
 20 22  2  0
 21 23  2  0
 22 24  1  0
 23 24  1  0
 23 25  1  0
M  END
