x0397_0-x1374_1-x1386_1-x0831_0-x0770_1-x1418_1-x1334_1-x0692_1
     RDKit          3D

 26 28  0  0  0  0  0  0  0  0999 V2000
    2.1720   -7.5420   24.1690 O   0  0  0  0  0  0  0  0  0  0  0  0
    3.4090   -6.9670   23.8290 C   0  0  0  0  0  0  0  0  0  0  0  0
    4.4590   -7.6700   24.4850 O   0  0  0  0  0  0  0  0  0  0  0  0
    5.6930   -7.3790   23.8150 C   0  0  0  0  0  0  0  0  0  0  0  0
    6.2830   -6.3050   24.4090 C   0  0  0  0  0  0  0  0  0  0  0  0
    6.4120   -5.2850   23.3030 C   0  0  2  0  0  0  0  0  0  0  0  0
    5.3570   -4.9920   22.5310 C   0  0  2  0  0  0  0  0  0  0  0  0
    6.7060   -5.7020   21.9480 C   0  0  0  0  0  0  0  0  0  0  0  0
    5.1230   -3.4690   22.4840 C   0  0  0  0  0  0  0  0  0  0  0  0
    6.3690   -2.5710   22.3390 C   0  0  2  0  0  0  0  0  0  0  0  0
    6.6200   -2.1980   20.9320 N   0  0  0  0  0  0  0  0  0  0  0  0
    7.6950   -3.0530   22.9710 C   0  0  0  0  0  0  0  0  0  0  0  0
    6.4210   -3.0830   19.8270 C   0  0  0  0  0  0  0  0  0  0  0  0
    8.6990   -1.9390   22.8980 N   0  0  0  0  0  0  0  0  0  0  0  0
    7.7220   -1.2080   20.7720 C   0  0  0  0  0  0  0  0  0  0  0  0
    7.4030   -2.9640   18.6880 C   0  0  0  0  0  0  0  0  0  0  0  0
    5.5300   -3.9550   19.7120 O   0  0  0  0  0  0  0  0  0  0  0  0
    9.8450   -2.1650   23.6140 C   0  0  0  0  0  0  0  0  0  0  0  0
    9.0050   -1.6000   21.6040 C   0  0  0  0  0  0  0  0  0  0  0  0
   10.7980   -0.9920   23.5190 C   0  0  0  0  0  0  0  0  0  0  0  0
   10.2700    0.1310   24.1320 C   0  0  0  0  0  0  0  0  0  0  0  0
   12.0520   -0.9610   22.9010 C   0  0  0  0  0  0  0  0  0  0  0  0
   12.6550   -2.1560   22.2200 C   0  0  0  0  0  0  0  0  0  0  0  0
   11.0120    1.2930   24.1110 C   0  0  0  0  0  0  0  0  0  0  0  0
   12.7860    0.2290   22.9010 C   0  0  0  0  0  0  0  0  0  0  0  0
   12.2630    1.3680   23.5060 C   0  0  0  0  0  0  0  0  0  0  0  0
  1  2  1  0
  2  3  1  0
  3  4  1  0
  4  5  1  0
  6  5  1  1
  6  7  1  0
  6  8  1  0
  7  8  1  0
  7  9  1  6
 10  9  1  6
 10 11  1  0
 10 12  1  0
 11 13  1  0
 12 14  1  0
 11 15  1  0
 13 16  1  0
 13 17  2  0
 14 18  1  0
 14 19  1  0
 15 19  1  0
 18 20  1  0
 20 21  2  0
 20 22  1  0
 22 23  1  0
 21 24  1  0
 22 25  2  0
 24 26  2  0
 25 26  1  0
M  END
