x0397_0-x1386_1-x1334_0-x1385_1-x1374_1-x1334_1-x0831_0-x0434_2-x1412_1-x0770_1
     RDKit          3D

 40 44  0  0  0  0  0  0  0  0999 V2000
    6.4670   -3.1050   19.7060 C   0  0  0  0  0  0  0  0  0  0  0  0
    7.4530   -2.9530   18.5750 C   0  0  0  0  0  0  0  0  0  0  0  0
    5.4250   -3.7450   19.4940 O   0  0  0  0  0  0  0  0  0  0  0  0
    6.8050   -2.6120   20.9660 N   0  0  0  0  0  0  0  0  0  0  0  0
    7.9000   -1.5710   21.0020 C   0  0  2  0  0  0  0  0  0  0  0  0
    6.8810   -3.6060   22.0010 C   0  0  1  0  0  0  0  0  0  0  0  0
    8.8970   -1.5180   22.2270 C   0  0  0  0  0  0  0  0  0  0  0  0
    8.1580   -3.6050   22.7860 C   0  0  0  0  0  0  0  0  0  0  0  0
    5.6400   -3.6420   22.8870 C   0  0  0  0  0  0  0  0  0  0  0  0
    7.4150   -0.1500   20.7340 C   0  0  0  0  0  0  0  0  0  0  0  0
    8.4050   -2.3000   23.3620 N   0  0  0  0  0  0  0  0  0  0  0  0
    5.1350   -5.0560   22.7650 C   0  0  2  0  0  0  0  0  0  0  0  0
    7.0740    0.1880   19.3000 C   0  0  0  0  0  0  0  0  0  0  0  0
    9.3020   -2.4600   24.3580 C   0  0  2  0  0  0  0  0  0  0  0  0
    6.0240   -5.8630   23.1080 C   0  0  2  0  0  0  0  0  0  0  0  0
    5.7190   -5.9930   21.6860 C   0  0  0  0  0  0  0  0  0  0  0  0
    6.0760    0.4880   20.2760 C   0  0  0  0  0  0  0  0  0  0  0  0
    6.4570    0.6200   18.1120 N   0  0  0  0  0  0  0  0  0  0  0  0
   10.7140   -2.4600   23.7550 C   0  0  0  0  0  0  0  0  0  0  0  0
    9.1360   -3.6410   25.3080 C   0  0  0  0  0  0  0  0  0  0  0  0
    5.2560    1.1880   17.8990 C   0  0  0  0  0  0  0  0  0  0  0  0
    4.8220    1.0520   20.1610 C   0  0  0  0  0  0  0  0  0  0  0  0
    5.7690   -6.9640   24.0740 C   0  0  0  0  0  0  0  0  0  0  0  0
    9.8420   -4.8390   25.4390 C   0  0  0  0  0  0  0  0  0  0  0  0
    7.8830   -3.5780   26.4950 S   0  0  0  0  0  0  0  0  0  0  0  0
   11.2270   -1.0540   23.6410 C   0  0  0  0  0  0  0  0  0  0  0  0
    4.3380    1.4610   18.8270 C   0  0  0  0  0  0  0  0  0  0  0  0
    4.2500   -6.9740   24.2250 C   0  0  0  0  0  0  0  0  0  0  0  0
    9.3690   -5.6100   26.4820 C   0  0  0  0  0  0  0  0  0  0  0  0
    8.2990   -5.0600   27.1830 C   0  0  0  0  0  0  0  0  0  0  0  0
   10.4970   -0.0150   24.2430 C   0  0  0  0  0  0  0  0  0  0  0  0
   12.3780   -0.8070   22.9640 C   0  0  0  0  0  0  0  0  0  0  0  0
    3.8890   -8.1490   24.9190 O   0  0  0  0  0  0  0  0  0  0  0  0
    7.3960   -5.5900   28.5340 Cl  0  0  0  0  0  0  0  0  0  0  0  0
   13.1240   -1.9230   22.3160 C   0  0  0  0  0  0  0  0  0  0  0  0
   10.8720    1.2770   24.1910 C   0  0  0  0  0  0  0  0  0  0  0  0
   12.8770    0.4790   22.8550 C   0  0  0  0  0  0  0  0  0  0  0  0
    2.4820   -8.2470   24.9480 C   0  0  0  0  0  0  0  0  0  0  0  0
   12.1950    1.5460   23.4240 C   0  0  0  0  0  0  0  0  0  0  0  0
    1.9070   -7.3890   23.9810 O   0  0  0  0  0  0  0  0  0  0  0  0
  1  2  1  0
  1  3  2  0
  1  4  1  0
  4  5  1  0
  4  6  1  0
  5  7  1  0
  6  8  1  0
  6  9  1  1
  5 10  1  1
  7 11  1  0
  8 11  1  0
 12  9  1  6
 10 13  1  0
 11 14  1  0
 12 15  1  0
 12 16  1  0
 15 16  1  0
 13 17  2  0
 13 18  1  0
 14 19  1  6
 14 20  1  0
 18 21  2  0
 17 22  1  0
 15 23  1  1
 20 24  2  0
 20 25  1  0
 19 26  1  0
 21 27  1  0
 22 27  2  0
 23 28  1  0
 24 29  1  0
 25 30  1  0
 29 30  2  0
 26 31  2  0
 26 32  1  0
 28 33  1  0
 30 34  1  0
 32 35  1  0
 31 36  1  0
 32 37  2  0
 33 38  1  0
 36 39  2  0
 37 39  1  0
 38 40  1  0
M  END
