x0397_0-x1386_1-x1334_1-x0831_1-x0692_1-x0426_1-x1334_0-x1412_1-x0831_0-x1418_1-x0434_2-x0770_1-x1374_1-x1385_1
     RDKit          3D

 45 50  0  0  0  0  0  0  0  0999 V2000
    1.9470   -6.7810   24.3210 O   0  0  0  0  0  0  0  0  0  0  0  0
    2.8780   -7.5680   23.6170 C   0  0  0  0  0  0  0  0  0  0  0  0
    3.9100   -7.9270   24.5250 O   0  0  0  0  0  0  0  0  0  0  0  0
    4.7050   -6.7860   24.8250 C   0  0  0  0  0  0  0  0  0  0  0  0
    5.9170   -6.9210   24.1930 C   0  0  0  0  0  0  0  0  0  0  0  0
    6.1670   -5.7520   23.2910 C   0  0  2  0  0  0  0  0  0  0  0  0
    5.3110   -5.3960   22.3900 C   0  0  2  0  0  0  0  0  0  0  0  0
    6.6880   -6.0760   21.8980 C   0  0  0  0  0  0  0  0  0  0  0  0
    5.1220   -3.9140   22.5090 C   0  0  0  0  0  0  0  0  0  0  0  0
    6.4040   -3.0800   22.3630 C   0  0  2  0  0  0  0  0  0  0  0  0
    6.6040   -2.4080   21.0860 N   0  0  0  0  0  0  0  0  0  0  0  0
    7.6750   -3.8640   22.7160 C   0  0  0  0  0  0  0  0  0  0  0  0
    6.4320   -3.1720   19.9010 C   0  0  0  0  0  0  0  0  0  0  0  0
    8.7860   -2.9420   22.9220 N   0  0  0  0  0  0  0  0  0  0  0  0
    7.6470   -1.3600   21.2930 C   0  0  2  0  0  0  0  0  0  0  0  0
    7.3980   -2.9520   18.7490 C   0  0  0  0  0  0  0  0  0  0  0  0
    5.5420   -4.0370   19.7530 O   0  0  0  0  0  0  0  0  0  0  0  0
    9.2270   -2.6970   24.1790 C   0  0  2  0  0  0  0  0  0  0  0  0
    8.9500   -2.0020   21.8180 C   0  0  0  0  0  0  0  0  0  0  0  0
    7.3380   -0.2630   22.2030 C   0  0  0  0  0  0  0  0  0  0  0  0
   10.7100   -2.5670   24.1180 C   0  0  0  0  0  0  0  0  0  0  0  0
    9.0500   -3.7870   25.2050 C   0  0  0  0  0  0  0  0  0  0  0  0
    6.8020    1.0630   21.6780 C   0  0  2  0  0  0  0  0  0  0  0  0
    9.7640   -5.0010   25.3830 C   0  0  0  0  0  0  0  0  0  0  0  0
    7.8440   -3.6360   26.4230 S   0  0  0  0  0  0  0  0  0  0  0  0
   11.1670   -1.1780   23.8630 C   0  0  0  0  0  0  0  0  0  0  0  0
    5.9530    1.8790   22.4650 C   0  0  0  0  0  0  0  0  0  0  0  0
    6.1310    1.0050   20.3500 C   0  0  0  0  0  0  0  0  0  0  0  0
    9.3220   -5.7260   26.4890 C   0  0  0  0  0  0  0  0  0  0  0  0
    8.2690   -5.0970   27.1700 C   0  0  0  0  0  0  0  0  0  0  0  0
   10.3820    0.0270   24.4640 C   0  0  0  0  0  0  0  0  0  0  0  0
   12.3850   -0.7970   23.0310 C   0  0  0  0  0  0  0  0  0  0  0  0
    4.4440    1.6370   22.3410 C   0  0  1  0  0  0  0  0  0  0  0  0
    4.7940    1.5590   20.0740 C   0  0  0  0  0  0  0  0  0  0  0  0
    6.8530    0.3910   19.3390 C   0  0  0  0  0  0  0  0  0  0  0  0
    7.3970   -5.5540   28.5680 Cl  0  0  0  0  0  0  0  0  0  0  0  0
   13.2550   -1.7860   22.3450 C   0  0  0  0  0  0  0  0  0  0  0  0
   10.8510    1.4690   24.2070 C   0  0  0  0  0  0  0  0  0  0  0  0
   12.7650    0.6380   22.8610 C   0  0  0  0  0  0  0  0  0  0  0  0
    3.8870    2.0930   23.4940 N   0  0  0  0  0  0  0  0  0  0  0  0
    4.0200    2.2060   21.2020 C   0  0  0  0  0  0  0  0  0  0  0  0
    4.3140    1.4680   18.8130 C   0  0  0  0  0  0  0  0  0  0  0  0
    6.4060    0.2860   18.0870 N   0  0  0  0  0  0  0  0  0  0  0  0
   12.0870    1.6650   23.3800 C   0  0  0  0  0  0  0  0  0  0  0  0
    5.0840    0.8650   17.8700 C   0  0  0  0  0  0  0  0  0  0  0  0
  1  2  1  0
  2  3  1  0
  3  4  1  0
  4  5  1  0
  6  5  1  1
  6  7  1  0
  6  8  1  0
  7  8  1  0
  7  9  1  6
 10  9  1  6
 10 11  1  0
 10 12  1  0
 11 13  1  0
 12 14  1  0
 11 15  1  0
 13 16  1  0
 13 17  2  0
 14 18  1  0
 14 19  1  0
 15 19  1  0
 15 20  1  1
 18 21  1  6
 18 22  1  0
 23 20  1  1
 22 24  2  0
 22 25  1  0
 21 26  1  0
 23 27  1  0
 23 28  1  0
 24 29  1  0
 25 30  1  0
 29 30  2  0
 26 31  2  0
 26 32  1  0
 27 33  1  0
 28 34  2  0
 28 35  1  0
 30 36  1  0
 32 37  1  0
 31 38  1  0
 32 39  2  0
 33 40  1  1
 33 41  1  0
 34 41  1  0
 34 42  1  0
 35 43  2  0
 38 44  2  0
 39 44  1  0
 42 45  2  0
 43 45  1  0
M  END
