x0395_1-x0107_0
     RDKit          3D

 17 18  0  0  0  0  0  0  0  0999 V2000
    9.0630    0.0960   21.7290 C   0  0  0  0  0  0  0  0  0  0  0  0
    8.1850   -0.6050   21.3640 N   0  0  0  0  0  0  0  0  0  0  0  0
    7.2160   -0.1550   20.3630 C   0  0  0  0  0  0  0  0  0  0  0  0
    9.1720    1.2630   21.3110 O   0  0  0  0  0  0  0  0  0  0  0  0
    9.9930   -0.4690   22.6620 N   0  0  0  0  0  0  0  0  0  0  0  0
   10.8920   -1.5350   22.2260 C   0  0  0  0  0  0  0  0  0  0  0  0
   10.3680    0.2420   23.7510 C   0  0  0  0  0  0  0  0  0  0  0  0
    5.9500    0.6120   20.8020 C   0  0  0  0  0  0  0  0  0  0  0  0
    7.2330   -0.3110   18.8830 C   0  0  0  0  0  0  0  0  0  0  0  0
   12.3550   -1.0610   22.2810 C   0  0  0  0  0  0  0  0  0  0  0  0
   11.5570    1.0630   23.3060 C   0  0  0  0  0  0  0  0  0  0  0  0
    5.7330    0.8700   22.2940 C   0  0  0  0  0  0  0  0  0  0  0  0
   13.3680   -1.8200   21.8250 F   0  0  0  0  0  0  0  0  0  0  0  0
    4.9090    1.1180   19.7210 C   0  0  0  0  0  0  0  0  0  0  0  0
    6.2890    0.1490   17.8620 N   0  0  0  0  0  0  0  0  0  0  0  0
   12.5850    0.3090   22.8700 C   0  0  0  0  0  0  0  0  0  0  0  0
    5.1110    0.8760   18.2640 C   0  0  0  0  0  0  0  0  0  0  0  0
  1  2  1  0
  2  3  1  0
  1  4  2  0
  1  5  1  0
  5  6  1  0
  5  7  1  0
  3  8  2  0
  3  9  1  0
  6 10  1  0
  7 11  1  0
  8 12  1  0
 10 13  1  0
  8 14  1  0
  9 15  2  0
 10 16  2  0
 11 16  1  0
 14 17  2  0
 15 17  1  0
M  END
