x0395_1-x1412_0-x0770_1
     RDKit          3D

 24 26  0  0  0  0  0  0  0  0999 V2000
    6.2120   -3.3070   19.9400 C   0  0  0  0  0  0  0  0  0  0  0  0
    7.1750   -2.9760   18.8130 C   0  0  0  0  0  0  0  0  0  0  0  0
    5.3430   -4.1670   19.7450 O   0  0  0  0  0  0  0  0  0  0  0  0
    6.3430   -2.6630   21.1600 N   0  0  0  0  0  0  0  0  0  0  0  0
    7.3310   -1.5680   21.2800 C   0  0  0  0  0  0  0  0  0  0  0  0
    6.0290   -3.3140   22.4410 C   0  0  0  0  0  0  0  0  0  0  0  0
    8.4670   -1.9770   22.2100 C   0  0  0  0  0  0  0  0  0  0  0  0
    7.2220   -3.8010   22.9780 C   0  0  0  0  0  0  0  0  0  0  0  0
    8.0040   -2.6360   23.3200 N   0  0  0  0  0  0  0  0  0  0  0  0
    8.6070   -2.5950   24.5690 C   0  0  0  0  0  0  0  0  0  0  0  0
    9.2740   -1.6510   25.1000 N   0  0  0  0  0  0  0  0  0  0  0  0
    8.5970   -3.7170   25.6430 C   0  0  0  0  0  0  0  0  0  0  0  0
    9.5300   -0.3810   24.4540 C   0  0  0  0  0  0  0  0  0  0  0  0
    9.6310   -4.8220   25.5840 C   0  0  0  0  0  0  0  0  0  0  0  0
    7.4880   -3.9120   27.0160 S   0  0  0  0  0  0  0  0  0  0  0  0
    9.4680   -5.7530   26.6160 C   0  0  0  0  0  0  0  0  0  0  0  0
    8.2970   -5.3720   27.5160 C   0  0  0  0  0  0  0  0  0  0  0  0
   10.3420   -0.4160   23.2310 N   0  0  0  0  0  0  0  0  0  0  0  0
   11.3320   -1.3640   23.2340 C   0  0  0  0  0  0  0  0  0  0  0  0
   10.7760    0.8160   23.0880 C   0  0  0  0  0  0  0  0  0  0  0  0
   12.4760   -1.0680   22.5220 C   0  0  0  0  0  0  0  0  0  0  0  0
   11.9960    0.9220   23.6970 C   0  0  0  0  0  0  0  0  0  0  0  0
   13.1500   -1.8880   21.6900 F   0  0  0  0  0  0  0  0  0  0  0  0
   12.8760    0.2720   22.8360 C   0  0  0  0  0  0  0  0  0  0  0  0
  1  2  1  0
  1  3  2  0
  1  4  1  0
  4  5  1  0
  4  6  1  0
  5  7  1  0
  6  8  1  0
  7  9  1  0
  8  9  1  0
  9 10  1  0
 10 11  2  3
 10 12  1  0
 11 13  1  0
 12 14  2  0
 12 15  1  0
 14 16  1  0
 15 17  1  0
 16 17  2  0
 13 18  1  0
 18 19  1  0
 18 20  1  0
 19 21  1  0
 20 22  1  0
 21 23  1  0
 21 24  2  0
 22 24  1  0
M  END
