x0397_0-x0770_1-x1386_1-x1385_1-x0831_1-x1334_1-x1334_0-x0831_0-x0692_1-x0434_2-x1374_1
     RDKit          3D

 39 43  0  0  0  0  0  0  0  0999 V2000
    6.2510   -3.2580   19.9100 C   0  0  0  0  0  0  0  0  0  0  0  0
    7.2400   -2.9920   18.7980 C   0  0  0  0  0  0  0  0  0  0  0  0
    5.3160   -4.0410   19.6890 O   0  0  0  0  0  0  0  0  0  0  0  0
    6.4590   -2.6640   21.1520 N   0  0  0  0  0  0  0  0  0  0  0  0
    7.1470   -1.4750   21.3620 C   0  0  1  0  0  0  0  0  0  0  0  0
    6.7620   -3.6390   22.2150 C   0  0  1  0  0  0  0  0  0  0  0  0
    8.4130   -1.7540   22.2430 C   0  0  0  0  0  0  0  0  0  0  0  0
    6.9960   -3.0250   23.6140 C   0  0  0  0  0  0  0  0  0  0  0  0
    5.7800   -4.7730   22.3410 C   0  0  2  0  0  0  0  0  0  0  0  0
    7.6370   -0.6880   20.1290 C   0  0  0  0  0  0  0  0  0  0  0  0
    8.1210   -2.1270   23.6400 N   0  0  0  0  0  0  0  0  0  0  0  0
    6.1380   -5.8000   23.3060 C   0  0  2  0  0  0  0  0  0  0  0  0
    6.1290   -6.3430   22.0400 C   0  0  0  0  0  0  0  0  0  0  0  0
    6.9620   -0.1910   18.9920 C   0  0  0  0  0  0  0  0  0  0  0  0
    9.2210   -2.5650   24.4170 C   0  0  2  0  0  0  0  0  0  0  0  0
    6.2730    0.2710   20.3340 C   0  0  0  0  0  0  0  0  0  0  0  0
    6.1930    0.3730   17.9960 N   0  0  0  0  0  0  0  0  0  0  0  0
    5.0330   -5.9580   24.3020 C   0  0  0  0  0  0  0  0  0  0  0  0
   10.5250   -2.5860   23.6630 C   0  0  0  0  0  0  0  0  0  0  0  0
    9.0230   -3.7770   25.3400 C   0  0  0  0  0  0  0  0  0  0  0  0
    5.1330    1.1320   18.0110 C   0  0  0  0  0  0  0  0  0  0  0  0
    5.0380    1.1410   20.4410 C   0  0  0  0  0  0  0  0  0  0  0  0
    3.9860   -6.7750   23.9590 C   0  0  0  0  0  0  0  0  0  0  0  0
    9.7720   -4.9590   25.3570 C   0  0  0  0  0  0  0  0  0  0  0  0
    7.8190   -3.8130   26.5150 S   0  0  0  0  0  0  0  0  0  0  0  0
   11.1030   -1.1900   23.5800 C   0  0  0  0  0  0  0  0  0  0  0  0
    4.4690    1.5790   19.0800 C   0  0  0  0  0  0  0  0  0  0  0  0
    3.8720   -7.8750   24.8310 O   0  0  0  0  0  0  0  0  0  0  0  0
    9.3800   -5.8720   26.3060 C   0  0  0  0  0  0  0  0  0  0  0  0
    8.2260   -5.3570   27.1010 C   0  0  0  0  0  0  0  0  0  0  0  0
   10.5020   -0.1410   24.2080 C   0  0  0  0  0  0  0  0  0  0  0  0
   12.2450   -0.8890   22.8770 C   0  0  0  0  0  0  0  0  0  0  0  0
    2.5570   -8.3420   24.6850 C   0  0  0  0  0  0  0  0  0  0  0  0
    7.3450   -6.0390   28.3920 Cl  0  0  0  0  0  0  0  0  0  0  0  0
   12.9890   -1.9470   22.1330 C   0  0  0  0  0  0  0  0  0  0  0  0
   10.9870    1.1320   24.1520 C   0  0  0  0  0  0  0  0  0  0  0  0
   12.7100    0.4300   22.8540 C   0  0  0  0  0  0  0  0  0  0  0  0
    2.1460   -8.0540   23.3630 O   0  0  0  0  0  0  0  0  0  0  0  0
   12.2640    1.6580   23.4120 C   0  0  0  0  0  0  0  0  0  0  0  0
  1  2  1  0
  1  3  2  0
  1  4  1  0
  4  5  1  0
  4  6  1  0
  5  7  1  0
  6  8  1  1
  6  9  1  0
  5 10  1  6
  7 11  1  0
  8 11  1  0
  9 12  1  0
  9 13  1  6
 12 13  1  0
 10 14  1  0
 11 15  1  0
 14 16  2  0
 14 17  1  0
 12 18  1  1
 15 19  1  6
 15 20  1  0
 17 21  2  0
 16 22  1  0
 18 23  1  0
 20 24  2  0
 20 25  1  0
 19 26  1  0
 21 27  1  0
 22 27  2  0
 23 28  1  0
 24 29  1  0
 25 30  1  0
 29 30  2  0
 26 31  2  0
 26 32  1  0
 28 33  1  0
 30 34  1  0
 32 35  1  0
 31 36  1  0
 32 37  2  0
 33 38  1  0
 36 39  2  0
 37 39  1  0
M  END
