x0397_0-x0770_1-x1385_1-x1386_1-x0831_1-x0831_0-x1334_0-x0692_1-x0434_2-x1412_1
     RDKit          3D

 34 38  0  0  0  0  0  0  0  0999 V2000
    6.3410   -3.3130   19.8340 C   0  0  0  0  0  0  0  0  0  0  0  0
    7.2890   -3.0640   18.6740 C   0  0  0  0  0  0  0  0  0  0  0  0
    5.4560   -4.1820   19.7710 O   0  0  0  0  0  0  0  0  0  0  0  0
    6.5980   -2.4940   20.9070 N   0  0  0  0  0  0  0  0  0  0  0  0
    7.7140   -1.5210   20.7630 C   0  0  2  0  0  0  0  0  0  0  0  0
    6.3950   -3.0960   22.2590 C   0  0  2  0  0  0  0  0  0  0  0  0
    8.9170   -1.7060   21.6760 C   0  0  0  0  0  0  0  0  0  0  0  0
    7.7470   -3.2090   23.0070 C   0  0  0  0  0  0  0  0  0  0  0  0
    5.6960   -4.4540   22.2870 C   0  0  0  0  0  0  0  0  0  0  0  0
    7.2720   -0.0820   20.7360 C   0  0  0  0  0  0  0  0  0  0  0  0
    8.4710   -1.9380   23.0320 N   0  0  0  0  0  0  0  0  0  0  0  0
    6.0990   -5.5310   23.1660 C   0  0  0  0  0  0  0  0  0  0  0  0
    6.1940   -5.7470   21.6950 C   0  0  0  0  0  0  0  0  0  0  0  0
    7.0190    0.2950   19.3050 C   0  0  0  0  0  0  0  0  0  0  0  0
    9.5700   -1.9350   23.9640 C   0  0  1  0  0  0  0  0  0  0  0  0
    5.8710    0.5410   20.2810 C   0  0  0  0  0  0  0  0  0  0  0  0
    6.4580    0.7470   18.1190 N   0  0  0  0  0  0  0  0  0  0  0  0
   10.2060   -3.2670   24.0090 C   0  0  0  0  0  0  0  0  0  0  0  0
   10.6060   -0.8010   23.7000 C   0  0  0  0  0  0  0  0  0  0  0  0
    5.2600    1.2750   17.8650 C   0  0  0  0  0  0  0  0  0  0  0  0
    4.6080    1.0670   20.1070 C   0  0  0  0  0  0  0  0  0  0  0  0
   10.2190    0.4950   24.0960 C   0  0  0  0  0  0  0  0  0  0  0  0
   11.9070   -0.9200   23.1010 C   0  0  0  0  0  0  0  0  0  0  0  0
    9.5940   -4.1360   25.0650 C   0  0  0  0  0  0  0  0  0  0  0  0
    4.1920    1.4820   18.8910 C   0  0  0  0  0  0  0  0  0  0  0  0
   12.5180   -2.1890   22.5940 C   0  0  0  0  0  0  0  0  0  0  0  0
   10.9970    1.6280   23.9520 C   0  0  0  0  0  0  0  0  0  0  0  0
   12.6880    0.2450   22.9670 C   0  0  0  0  0  0  0  0  0  0  0  0
    9.9590   -5.5080   25.4110 C   0  0  0  0  0  0  0  0  0  0  0  0
    8.2810   -3.7350   26.1580 S   0  0  0  0  0  0  0  0  0  0  0  0
   12.2350    1.4780   23.3850 C   0  0  0  0  0  0  0  0  0  0  0  0
    9.2110   -6.1530   26.5090 C   0  0  0  0  0  0  0  0  0  0  0  0
    8.2000   -5.2310   27.0460 C   0  0  0  0  0  0  0  0  0  0  0  0
    7.0940   -5.5140   28.3230 Cl  0  0  0  0  0  0  0  0  0  0  0  0
  1  2  1  0
  1  3  2  0
  1  4  1  0
  4  5  1  0
  4  6  1  0
  5  7  1  0
  6  8  1  0
  6  9  1  6
  5 10  1  1
  7 11  1  0
  8 11  1  0
  9 12  1  0
  9 13  1  0
 12 13  1  0
 10 14  1  0
 11 15  1  0
 14 16  2  0
 14 17  1  0
 15 18  1  6
 15 19  1  0
 17 20  2  0
 16 21  1  0
 19 22  2  0
 19 23  1  0
 18 24  1  0
 20 25  1  0
 21 25  2  0
 23 26  1  0
 22 27  1  0
 23 28  2  0
 24 29  2  0
 24 30  1  0
 27 31  2  0
 28 31  1  0
 29 32  1  0
 30 33  1  0
 32 33  2  0
 33 34  1  0
M  END
