x0397_0-x0770_1-x1385_1-x0426_1-x1374_1-x0831_1-x0831_0-x1418_1-x1334_0-x0434_2-x1412_1-x1334_1
     RDKit          3D

 44 49  0  0  0  0  0  0  0  0999 V2000
    2.2420   -7.7450   23.2660 O   0  0  0  0  0  0  0  0  0  0  0  0
    2.3930   -8.0710   24.6400 C   0  0  0  0  0  0  0  0  0  0  0  0
    3.7710   -7.9850   24.9250 O   0  0  0  0  0  0  0  0  0  0  0  0
    4.4680   -7.2630   23.9240 C   0  0  0  0  0  0  0  0  0  0  0  0
    4.9130   -6.0460   24.3470 C   0  0  0  0  0  0  0  0  0  0  0  0
    6.0160   -5.6960   23.4050 C   0  0  2  0  0  0  0  0  0  0  0  0
    5.7770   -4.6900   22.4480 C   0  0  2  0  0  0  0  0  0  0  0  0
    6.0240   -6.3000   22.2010 C   0  0  0  0  0  0  0  0  0  0  0  0
    6.8090   -3.6900   22.1410 C   0  0  1  0  0  0  0  0  0  0  0  0
    6.2720   -2.6800   21.2430 N   0  0  0  0  0  0  0  0  0  0  0  0
    7.4460   -3.1250   23.2410 C   0  0  0  0  0  0  0  0  0  0  0  0
    6.1720   -3.1610   19.9120 C   0  0  0  0  0  0  0  0  0  0  0  0
    8.6120   -2.3380   22.8450 N   0  0  0  0  0  0  0  0  0  0  0  0
    6.7980   -1.3850   21.7190 C   0  0  2  0  0  0  0  0  0  0  0  0
    7.2740   -2.8750   18.8840 C   0  0  0  0  0  0  0  0  0  0  0  0
    5.2270   -3.8930   19.6000 O   0  0  0  0  0  0  0  0  0  0  0  0
    6.0980   -0.0310   21.5490 C   0  0  1  0  0  0  0  0  0  0  0  0
    9.5500   -2.0820   23.9140 C   0  0  1  0  0  0  0  0  0  0  0  0
    8.3130   -1.3590   21.7480 C   0  0  0  0  0  0  0  0  0  0  0  0
    4.8250    0.0670   22.4540 C   0  0  0  0  0  0  0  0  0  0  0  0
   10.0210   -3.4870   24.1110 C   0  0  0  0  0  0  0  0  0  0  0  0
    7.0910    1.0490   22.0790 C   0  0  0  0  0  0  0  0  0  0  0  0
    5.8560    0.4760   20.1530 C   0  0  0  0  0  0  0  0  0  0  0  0
   10.5200   -0.8850   23.7030 C   0  0  0  0  0  0  0  0  0  0  0  0
    4.2950    1.5160   22.3930 C   0  0  2  0  0  0  0  0  0  0  0  0
    4.6690    1.3880   19.9300 C   0  0  0  0  0  0  0  0  0  0  0  0
    6.6570    0.1740   19.0860 C   0  0  0  0  0  0  0  0  0  0  0  0
   10.1920    0.3630   24.2620 C   0  0  0  0  0  0  0  0  0  0  0  0
   11.8380   -0.9010   22.9420 C   0  0  0  0  0  0  0  0  0  0  0  0
    9.4760   -4.2350   25.0800 C   0  0  0  0  0  0  0  0  0  0  0  0
    3.3030    1.7710   23.4230 N   0  0  0  0  0  0  0  0  0  0  0  0
    3.7180    1.7780   21.0280 C   0  0  0  0  0  0  0  0  0  0  0  0
   12.3470   -2.1460   22.2760 C   0  0  0  0  0  0  0  0  0  0  0  0
    4.4840    1.9160   18.5040 C   0  0  0  0  0  0  0  0  0  0  0  0
    6.5240    0.6030   17.8430 N   0  0  0  0  0  0  0  0  0  0  0  0
   11.0760    1.4500   24.0730 C   0  0  0  0  0  0  0  0  0  0  0  0
   12.6650    0.1910   22.7990 C   0  0  0  0  0  0  0  0  0  0  0  0
    9.8750   -5.4990   25.3860 C   0  0  0  0  0  0  0  0  0  0  0  0
    8.1900   -3.7550   26.1230 S   0  0  0  0  0  0  0  0  0  0  0  0
    5.4920    1.4250   17.6250 C   0  0  0  0  0  0  0  0  0  0  0  0
   12.2740    1.3710   23.3690 C   0  0  0  0  0  0  0  0  0  0  0  0
    9.1770   -6.0840   26.4560 C   0  0  0  0  0  0  0  0  0  0  0  0
    8.2330   -5.2470   26.9590 C   0  0  0  0  0  0  0  0  0  0  0  0
    7.1740   -5.5730   28.2640 Cl  0  0  0  0  0  0  0  0  0  0  0  0
  1  2  1  0
  2  3  1  0
  3  4  1  0
  4  5  1  0
  6  5  1  1
  6  7  1  0
  6  8  1  0
  7  8  1  6
  7  9  1  0
  9 10  1  0
  9 11  1  1
 10 12  1  0
 11 13  1  0
 10 14  1  0
 12 15  1  0
 12 16  2  0
 14 17  1  0
 13 18  1  0
 13 19  1  0
 14 19  1  6
 17 20  1  0
 18 21  1  6
 17 22  1  1
 17 23  1  0
 18 24  1  0
 20 25  1  0
 23 26  2  0
 23 27  1  0
 24 28  2  0
 24 29  1  0
 21 30  1  0
 25 31  1  1
 25 32  1  0
 26 32  1  0
 29 33  1  0
 26 34  1  0
 27 35  2  0
 28 36  1  0
 29 37  2  0
 30 38  2  0
 30 39  1  0
 34 40  2  0
 35 40  1  0
 36 41  2  0
 37 41  1  0
 38 42  1  0
 39 43  1  0
 42 43  2  0
 43 44  1  0
M  END
