x0397_0-x0770_1-x0540_3-x0831_0-x1334_0-x0692_1-x0434_2-x1412_1
     RDKit          3D

 39 43  0  0  0  0  0  0  0  0999 V2000
    6.2600   -3.3540   19.9520 C   0  0  0  0  0  0  0  0  0  0  0  0
    7.2150   -3.0030   18.8370 C   0  0  0  0  0  0  0  0  0  0  0  0
    5.3420   -4.1560   19.7440 O   0  0  0  0  0  0  0  0  0  0  0  0
    6.4970   -2.7600   21.2100 N   0  0  0  0  0  0  0  0  0  0  0  0
    6.7980   -1.4530   21.3310 C   0  0  1  0  0  0  0  0  0  0  0  0
    6.9890   -3.5700   22.3450 C   0  0  1  0  0  0  0  0  0  0  0  0
    5.7210   -0.8240   22.2720 C   0  0  0  0  0  0  0  0  0  0  0  0
    8.1960   -1.3260   21.9590 C   0  0  0  0  0  0  0  0  0  0  0  0
    7.1800   -2.8560   23.4680 C   0  0  0  0  0  0  0  0  0  0  0  0
    5.9390   -4.6560   22.5510 C   0  0  0  0  0  0  0  0  0  0  0  0
    5.0220    0.4690   21.7940 C   0  0  1  0  0  0  0  0  0  0  0  0
    8.1790   -1.7880   23.3390 N   0  0  0  0  0  0  0  0  0  0  0  0
    6.2080   -5.9240   23.2430 C   0  0  0  0  0  0  0  0  0  0  0  0
    5.9990   -6.1230   21.7750 C   0  0  0  0  0  0  0  0  0  0  0  0
    5.2740    1.6750   22.7700 C   0  0  0  0  0  0  0  0  0  0  0  0
    9.4660   -2.0320   23.9470 C   0  0  1  0  0  0  0  0  0  0  0  0
    5.3380    0.6700   20.3410 C   0  0  0  0  0  0  0  0  0  0  0  0
    4.0470    2.5740   22.7580 N   0  0  0  0  0  0  0  0  0  0  0  0
    9.8570   -3.5190   23.9410 C   0  0  0  0  0  0  0  0  0  0  0  0
   10.5310   -0.9560   23.6100 C   0  0  0  0  0  0  0  0  0  0  0  0
    6.6200   -0.0070   19.9220 C   0  0  0  0  0  0  0  0  0  0  0  0
    4.4850    1.4640   19.3540 C   0  0  0  0  0  0  0  0  0  0  0  0
    2.9200    2.2060   23.4400 C   0  0  0  0  0  0  0  0  0  0  0  0
   10.2310    0.4070   24.2000 C   0  0  0  0  0  0  0  0  0  0  0  0
   11.6960   -1.0000   22.8850 C   0  0  0  0  0  0  0  0  0  0  0  0
    9.2770   -4.2320   25.1090 C   0  0  0  0  0  0  0  0  0  0  0  0
    7.0230    0.1210   18.4910 C   0  0  0  0  0  0  0  0  0  0  0  0
    5.1740    1.4210   17.9460 C   0  0  0  0  0  0  0  0  0  0  0  0
    2.9000    1.4970   24.4470 O   0  0  0  0  0  0  0  0  0  0  0  0
   12.2610   -2.1860   22.1820 C   0  0  0  0  0  0  0  0  0  0  0  0
   10.9750    1.5030   24.0700 C   0  0  0  0  0  0  0  0  0  0  0  0
   12.5620    0.2710   22.7450 C   0  0  0  0  0  0  0  0  0  0  0  0
    9.8280   -5.4980   25.3570 C   0  0  0  0  0  0  0  0  0  0  0  0
    8.0730   -3.8540   26.2440 S   0  0  0  0  0  0  0  0  0  0  0  0
    6.3280    0.7960   17.5910 N   0  0  0  0  0  0  0  0  0  0  0  0
   12.3240    1.7120   23.3160 C   0  0  0  0  0  0  0  0  0  0  0  0
    9.2530   -6.0620   26.4280 C   0  0  0  0  0  0  0  0  0  0  0  0
    8.3110   -5.3580   27.0260 C   0  0  0  0  0  0  0  0  0  0  0  0
    7.3830   -5.7840   28.4010 Cl  0  0  0  0  0  0  0  0  0  0  0  0
  1  2  1  0
  1  3  2  0
  1  4  1  0
  4  5  1  0
  4  6  1  0
  5  7  1  1
  5  8  1  0
  6  9  1  0
  6 10  1  1
 11  7  1  1
  8 12  1  0
  9 12  1  0
 10 13  1  0
 10 14  1  0
 13 14  1  0
 11 15  1  0
 12 16  1  0
 11 17  1  0
 15 18  1  0
 16 19  1  6
 16 20  1  0
 17 21  2  0
 17 22  1  0
 18 23  1  0
 20 24  2  0
 20 25  1  0
 19 26  1  0
 21 27  1  0
 22 28  2  0
 23 29  2  0
 25 30  1  0
 24 31  1  0
 25 32  2  0
 26 33  2  0
 26 34  1  0
 27 35  2  0
 28 35  1  0
 31 36  2  0
 32 36  1  0
 33 37  1  0
 34 38  1  0
 37 38  2  0
 38 39  1  0
M  END
