x0397_0-x0770_1-x1385_1-x0426_1-x1386_1-x0831_1-x0831_0-x0692_1-x1334_1
     RDKit          3D

 31 35  0  0  0  0  0  0  0  0999 V2000
    6.1890   -3.3740   19.9850 C   0  0  0  0  0  0  0  0  0  0  0  0
    7.1630   -2.9960   18.8580 C   0  0  0  0  0  0  0  0  0  0  0  0
    5.2800   -4.1790   19.7620 O   0  0  0  0  0  0  0  0  0  0  0  0
    6.3960   -2.8220   21.2640 N   0  0  0  0  0  0  0  0  0  0  0  0
    7.1080   -1.5210   21.1610 C   0  0  1  0  0  0  0  0  0  0  0  0
    6.8980   -3.6670   22.2220 C   0  0  1  0  0  0  0  0  0  0  0  0
    6.3220   -0.1950   21.4980 C   0  0  2  0  0  0  0  0  0  0  0  0
    8.5270   -1.5130   21.8180 C   0  0  0  0  0  0  0  0  0  0  0  0
    7.5000   -3.0010   23.4860 C   0  0  0  0  0  0  0  0  0  0  0  0
    5.8210   -4.6630   22.6140 C   0  0  0  0  0  0  0  0  0  0  0  0
    5.1520   -0.2570   22.2960 C   0  0  0  0  0  0  0  0  0  0  0  0
    8.5470   -1.9970   23.1750 N   0  0  0  0  0  0  0  0  0  0  0  0
    6.1330   -5.7660   23.2030 C   0  0  0  0  0  0  0  0  0  0  0  0
    5.8210   -6.2000   22.0200 C   0  0  0  0  0  0  0  0  0  0  0  0
    5.9280    0.4260   20.1920 C   0  0  0  0  0  0  0  0  0  0  0  0
    4.5010    1.1680   22.5180 C   0  0  2  0  0  0  0  0  0  0  0  0
    9.9080   -2.2990   23.6120 C   0  0  0  0  0  0  0  0  0  0  0  0
    4.7170    1.3080   20.0500 C   0  0  0  0  0  0  0  0  0  0  0  0
    6.7330    0.1600   19.0790 C   0  0  0  0  0  0  0  0  0  0  0  0
    3.5880    1.2480   23.5480 N   0  0  0  0  0  0  0  0  0  0  0  0
    3.8420    1.6030   21.2170 C   0  0  0  0  0  0  0  0  0  0  0  0
    4.4330    1.8460   18.8280 C   0  0  0  0  0  0  0  0  0  0  0  0
    6.4390    0.7250   17.7630 N   0  0  0  0  0  0  0  0  0  0  0  0
   10.7860   -1.0700   23.5460 C   0  0  0  0  0  0  0  0  0  0  0  0
    5.2690    1.6050   17.5910 C   0  0  0  0  0  0  0  0  0  0  0  0
   10.3220    0.0830   24.1380 C   0  0  0  0  0  0  0  0  0  0  0  0
   12.0660   -0.9730   22.9060 C   0  0  0  0  0  0  0  0  0  0  0  0
   12.7260   -2.1220   22.2030 C   0  0  0  0  0  0  0  0  0  0  0  0
   11.0330    1.2660   24.1150 C   0  0  0  0  0  0  0  0  0  0  0  0
   12.7860    0.2360   22.8940 C   0  0  0  0  0  0  0  0  0  0  0  0
   12.2580    1.3850   23.5070 C   0  0  0  0  0  0  0  0  0  0  0  0
  1  2  1  0
  1  3  2  0
  1  4  1  0
  4  5  1  0
  4  6  1  0
  5  7  1  0
  5  8  1  1
  6  9  1  0
  6 10  1  1
  7 11  1  1
  8 12  1  0
  9 12  1  0
 10 13  1  0
 10 14  1  0
 13 14  1  0
  7 15  1  0
 11 16  1  0
 12 17  1  0
 15 18  2  0
 15 19  1  0
 16 20  1  1
 16 21  1  0
 18 21  1  0
 18 22  1  0
 19 23  2  0
 17 24  1  0
 22 25  2  0
 23 25  1  0
 24 26  2  0
 24 27  1  0
 27 28  1  0
 26 29  1  0
 27 30  2  0
 29 31  2  0
 30 31  1  0
M  END
