x0397_0-x0770_1-x1385_1-x0426_1-x1374_1-x1386_0-x0831_0-x1418_1-x1334_0-x0692_1-x0434_2-x1334_1
     RDKit          3D

 45 50  0  0  0  0  0  0  0  0999 V2000
    2.2130   -7.7830   23.2630 O   0  0  0  0  0  0  0  0  0  0  0  0
    2.4020   -8.0720   24.6340 C   0  0  0  0  0  0  0  0  0  0  0  0
    3.7790   -7.9990   24.9320 O   0  0  0  0  0  0  0  0  0  0  0  0
    4.4220   -7.2440   23.9210 C   0  0  0  0  0  0  0  0  0  0  0  0
    4.9250   -5.9840   24.4950 C   0  0  0  0  0  0  0  0  0  0  0  0
    6.0130   -5.5100   23.5900 C   0  0  2  0  0  0  0  0  0  0  0  0
    5.8060   -4.6250   22.4440 C   0  0  2  0  0  0  0  0  0  0  0  0
    6.1160   -6.2270   22.3270 C   0  0  0  0  0  0  0  0  0  0  0  0
    6.8260   -3.7100   21.9290 C   0  0  1  0  0  0  0  0  0  0  0  0
    6.3470   -2.6830   21.2580 N   0  0  0  0  0  0  0  0  0  0  0  0
    7.8460   -3.2930   23.1060 C   0  0  0  0  0  0  0  0  0  0  0  0
    6.2430   -3.1800   19.9250 C   0  0  0  0  0  0  0  0  0  0  0  0
    8.9470   -2.4180   22.6720 N   0  0  0  0  0  0  0  0  0  0  0  0
    7.0130   -1.4140   21.7550 C   0  0  2  0  0  0  0  0  0  0  0  0
    7.2270   -2.8590   18.7850 C   0  0  0  0  0  0  0  0  0  0  0  0
    5.3390   -3.9950   19.6740 O   0  0  0  0  0  0  0  0  0  0  0  0
    6.4950    0.0690   21.7250 C   0  0  1  0  0  0  0  0  0  0  0  0
    9.6360   -1.9930   23.7950 C   0  0  2  0  0  0  0  0  0  0  0  0
    8.5790   -1.5460   21.7830 C   0  0  0  0  0  0  0  0  0  0  0  0
    5.4660    0.3750   22.8460 C   0  0  0  0  0  0  0  0  0  0  0  0
   10.3290   -3.0860   24.5430 C   0  0  0  0  0  0  0  0  0  0  0  0
    8.6880   -1.3430   24.7860 C   0  0  0  0  0  0  0  0  0  0  0  0
    7.6170    1.0730   22.0780 C   0  0  0  0  0  0  0  0  0  0  0  0
    6.0380    0.5170   20.3180 C   0  0  0  0  0  0  0  0  0  0  0  0
   10.6660   -0.8040   23.5430 C   0  0  0  0  0  0  0  0  0  0  0  0
    4.0940    1.0240   22.4670 C   0  0  1  0  0  0  0  0  0  0  0  0
    4.9670    1.4020   20.1350 C   0  0  0  0  0  0  0  0  0  0  0  0
    6.7030    0.0610   19.1950 C   0  0  0  0  0  0  0  0  0  0  0  0
   10.1960    0.3900   24.0500 C   0  0  0  0  0  0  0  0  0  0  0  0
   11.9410   -0.8950   22.8960 C   0  0  0  0  0  0  0  0  0  0  0  0
    9.6030   -4.0430   25.4520 C   0  0  0  0  0  0  0  0  0  0  0  0
    3.6230    1.6790   23.4700 N   0  0  0  0  0  0  0  0  0  0  0  0
    4.1960    1.9460   21.2770 C   0  0  0  0  0  0  0  0  0  0  0  0
   12.5940   -2.0930   22.2930 C   0  0  0  0  0  0  0  0  0  0  0  0
    4.6710    1.7600   18.7490 C   0  0  0  0  0  0  0  0  0  0  0  0
    6.4480    0.3740   17.9130 N   0  0  0  0  0  0  0  0  0  0  0  0
   10.9000    1.7070   24.0060 C   0  0  0  0  0  0  0  0  0  0  0  0
   12.8100    0.4020   22.7760 C   0  0  0  0  0  0  0  0  0  0  0  0
   10.0560   -5.4680   25.6950 C   0  0  0  0  0  0  0  0  0  0  0  0
    8.0790   -3.7200   26.4370 S   0  0  0  0  0  0  0  0  0  0  0  0
    5.4400    1.2250   17.6900 C   0  0  0  0  0  0  0  0  0  0  0  0
   12.2810    1.7180   23.3350 C   0  0  0  0  0  0  0  0  0  0  0  0
    9.2520   -6.1380   26.5730 C   0  0  0  0  0  0  0  0  0  0  0  0
    8.0900   -5.2800   27.0960 C   0  0  0  0  0  0  0  0  0  0  0  0
    6.8940   -5.7530   28.2220 Cl  0  0  0  0  0  0  0  0  0  0  0  0
  1  2  1  0
  2  3  1  0
  3  4  1  0
  4  5  1  0
  6  5  1  1
  6  7  1  0
  6  8  1  0
  7  8  1  6
  7  9  1  0
  9 10  1  0
  9 11  1  1
 10 12  1  0
 11 13  1  0
 10 14  1  0
 12 15  1  0
 12 16  2  0
 14 17  1  0
 13 18  1  0
 13 19  1  0
 14 19  1  6
 17 20  1  0
 18 21  1  0
 18 22  1  1
 17 23  1  1
 17 24  1  0
 18 25  1  0
 20 26  1  0
 24 27  2  0
 24 28  1  0
 25 29  2  0
 25 30  1  0
 21 31  1  0
 26 32  1  1
 26 33  1  0
 27 33  1  0
 30 34  1  0
 27 35  1  0
 28 36  2  0
 29 37  1  0
 30 38  2  0
 31 39  2  0
 31 40  1  0
 35 41  2  0
 36 41  1  0
 37 42  2  0
 38 42  1  0
 39 43  1  0
 40 44  1  0
 43 44  2  0
 44 45  1  0
M  END
