x0397_0-x1374_1-x0831_0-x1412_1-x1418_1-x1334_1-x0434_2-x1334_0-x0770_1-x1386_1-x0831_1-x0692_1-x1385_1
     RDKit          3D

 39 43  0  0  0  0  0  0  0  0999 V2000
    2.5630   -7.4580   23.3200 O   0  0  0  0  0  0  0  0  0  0  0  0
    2.8440   -7.6580   24.6920 C   0  0  0  0  0  0  0  0  0  0  0  0
    4.2200   -7.8960   24.9170 O   0  0  0  0  0  0  0  0  0  0  0  0
    5.0250   -7.3440   23.8780 C   0  0  0  0  0  0  0  0  0  0  0  0
    5.8250   -6.3520   24.3750 C   0  0  0  0  0  0  0  0  0  0  0  0
    6.4740   -5.7730   23.1550 C   0  0  2  0  0  0  0  0  0  0  0  0
    5.8760   -4.6590   22.4940 C   0  0  2  0  0  0  0  0  0  0  0  0
    6.2600   -6.1830   21.9440 C   0  0  0  0  0  0  0  0  0  0  0  0
    6.6850   -3.3730   22.5020 C   0  0  2  0  0  0  0  0  0  0  0  0
    6.5930   -2.6580   21.2230 N   0  0  0  0  0  0  0  0  0  0  0  0
    8.0170   -3.5300   22.9050 C   0  0  0  0  0  0  0  0  0  0  0  0
    6.4140   -3.3320   19.9900 C   0  0  0  0  0  0  0  0  0  0  0  0
    8.6670   -2.2670   23.3340 N   0  0  0  0  0  0  0  0  0  0  0  0
    7.5030   -1.4950   21.2000 C   0  0  1  0  0  0  0  0  0  0  0  0
    7.3470   -3.0160   18.8370 C   0  0  0  0  0  0  0  0  0  0  0  0
    5.5270   -4.1920   19.8050 O   0  0  0  0  0  0  0  0  0  0  0  0
   10.0140   -2.3860   23.3570 C   0  0  2  0  0  0  0  0  0  0  0  0
    6.5930   -0.3650   21.1780 N   0  0  0  0  0  0  0  0  0  0  0  0
    8.4150   -1.1930   22.3900 C   0  0  0  0  0  0  0  0  0  0  0  0
   10.6440   -3.2890   24.3570 C   0  0  0  0  0  0  0  0  0  0  0  0
   10.7220   -1.0390   23.4100 C   0  0  0  0  0  0  0  0  0  0  0  0
    6.1550    0.2220   20.0320 C   0  0  0  0  0  0  0  0  0  0  0  0
   10.1420    0.1880   23.9310 C   0  0  0  0  0  0  0  0  0  0  0  0
   12.0610   -0.8840   22.9290 C   0  0  0  0  0  0  0  0  0  0  0  0
    9.7570   -3.9410   25.3540 C   0  0  0  0  0  0  0  0  0  0  0  0
    6.8240    0.1180   18.8090 C   0  0  0  0  0  0  0  0  0  0  0  0
    4.9850    0.9590   20.1140 C   0  0  0  0  0  0  0  0  0  0  0  0
   12.7990   -2.0440   22.3420 C   0  0  0  0  0  0  0  0  0  0  0  0
   10.7690    1.4020   23.9900 C   0  0  0  0  0  0  0  0  0  0  0  0
   12.7830    0.3100   22.9490 C   0  0  0  0  0  0  0  0  0  0  0  0
   10.2320   -5.0430   25.9880 C   0  0  0  0  0  0  0  0  0  0  0  0
    8.1710   -3.5510   25.9200 S   0  0  0  0  0  0  0  0  0  0  0  0
    6.3960    0.7080   17.6770 N   0  0  0  0  0  0  0  0  0  0  0  0
    4.5480    1.5620   18.9470 C   0  0  0  0  0  0  0  0  0  0  0  0
   12.1750    1.4250   23.4570 C   0  0  0  0  0  0  0  0  0  0  0  0
    9.3710   -5.5720   26.9340 C   0  0  0  0  0  0  0  0  0  0  0  0
    8.1860   -4.8660   27.0400 C   0  0  0  0  0  0  0  0  0  0  0  0
    5.2660    1.4140   17.7890 C   0  0  0  0  0  0  0  0  0  0  0  0
    6.8970   -5.2050   28.1190 Cl  0  0  0  0  0  0  0  0  0  0  0  0
  1  2  1  0
  2  3  1  0
  3  4  1  0
  4  5  1  0
  6  5  1  1
  6  7  1  0
  6  8  1  0
  7  8  1  6
  7  9  1  0
  9 10  1  0
  9 11  1  6
 10 12  1  0
 11 13  1  0
 10 14  1  0
 12 15  1  0
 12 16  2  0
 13 17  1  0
 14 18  1  1
 13 19  1  0
 14 19  1  0
 17 20  1  1
 17 21  1  0
 18 22  1  0
 21 23  2  0
 21 24  1  0
 20 25  1  0
 22 26  2  0
 22 27  1  0
 24 28  1  0
 23 29  1  0
 24 30  2  0
 25 31  2  0
 25 32  1  0
 26 33  1  0
 27 34  2  0
 29 35  2  0
 30 35  1  0
 31 36  1  0
 32 37  1  0
 36 37  2  0
 33 38  2  0
 34 38  1  0
 37 39  1  0
M  END
