x0397_0-x0831_0-x1374_1-x0434_2-x1334_1-x1334_0-x0426_1-x1412_1-x0692_1-x1418_1
     RDKit          3D

 45 51  0  0  0  0  0  0  0  0999 V2000
    2.3410   -7.6730   23.2300 O   0  0  0  0  0  0  0  0  0  0  0  0
    2.6800   -7.7790   24.5950 C   0  0  0  0  0  0  0  0  0  0  0  0
    4.0850   -7.8430   24.6700 O   0  0  0  0  0  0  0  0  0  0  0  0
    4.6650   -7.0460   23.6370 C   0  0  0  0  0  0  0  0  0  0  0  0
    4.9910   -5.8610   24.1180 C   0  0  0  0  0  0  0  0  0  0  0  0
    6.0150   -5.2650   23.1930 C   0  0  2  0  0  0  0  0  0  0  0  0
    5.7240   -4.4270   22.3460 C   0  0  2  0  0  0  0  0  0  0  0  0
    6.2770   -5.8440   21.8930 C   0  0  0  0  0  0  0  0  0  0  0  0
    6.5060   -3.1090   22.3540 C   0  0  2  0  0  0  0  0  0  0  0  0
    6.7000   -2.5910   20.9720 N   0  0  0  0  0  0  0  0  0  0  0  0
    7.7470   -3.2600   22.9240 C   0  0  0  0  0  0  0  0  0  0  0  0
    6.3990   -3.3370   19.8550 C   0  0  0  0  0  0  0  0  0  0  0  0
    8.5760   -2.0350   22.9010 N   0  0  0  0  0  0  0  0  0  0  0  0
    7.8250   -1.7150   20.6310 C   0  0  1  0  0  0  0  0  0  0  0  0
    7.3300   -3.0960   18.6710 C   0  0  0  0  0  0  0  0  0  0  0  0
    5.4810   -4.1700   19.7460 O   0  0  0  0  0  0  0  0  0  0  0  0
    9.6250   -1.9920   23.8950 C   0  0  1  0  0  0  0  0  0  0  0  0
    7.4630   -0.3470   20.8700 N   0  0  0  0  0  0  0  0  0  0  0  0
    9.0530   -1.8880   21.5470 C   0  0  0  0  0  0  0  0  0  0  0  0
   10.1850   -3.3820   24.0280 C   0  0  0  0  0  0  0  0  0  0  0  0
    7.1270    0.2340   22.2280 C   0  0  0  0  0  0  0  0  0  0  0  0
    6.5760    0.2530   19.9300 C   0  0  0  0  0  0  0  0  0  0  0  0
   10.6040   -0.7990   23.6740 C   0  0  0  0  0  0  0  0  0  0  0  0
    5.6250    0.4050   22.1350 C   0  0  2  0  0  0  0  0  0  0  0  0
    6.6750    0.4260   18.4480 N   0  0  0  0  0  0  0  0  0  0  0  0
    5.4980    0.7100   20.6580 C   0  0  0  0  0  0  0  0  0  0  0  0
   10.1530    0.5500   24.0880 C   0  0  0  0  0  0  0  0  0  0  0  0
   11.8850   -0.9290   23.1060 C   0  0  0  0  0  0  0  0  0  0  0  0
    9.5710   -4.2100   25.1210 C   0  0  0  0  0  0  0  0  0  0  0  0
    4.9460    1.5190   22.8610 C   0  0  0  0  0  0  0  0  0  0  0  0
   12.4470   -2.2300   22.6380 C   0  0  0  0  0  0  0  0  0  0  0  0
    4.3330    1.4380   20.0510 C   0  0  0  0  0  0  0  0  0  0  0  0
    5.5970    1.0990   17.9420 C   0  0  0  0  0  0  0  0  0  0  0  0
   10.9190    1.6470   23.9480 C   0  0  0  0  0  0  0  0  0  0  0  0
   12.7070    0.1650   22.9440 C   0  0  0  0  0  0  0  0  0  0  0  0
    9.9470   -5.4660   25.4890 C   0  0  0  0  0  0  0  0  0  0  0  0
    8.2590   -3.6980   26.1120 S   0  0  0  0  0  0  0  0  0  0  0  0
    3.4830    1.7220   22.4440 C   0  0  2  0  0  0  0  0  0  0  0  0
    3.2180    1.8980   20.9340 C   0  0  0  0  0  0  0  0  0  0  0  0
    4.5320    1.5600   18.6830 C   0  0  0  0  0  0  0  0  0  0  0  0
   12.3160    1.5590   23.3440 C   0  0  0  0  0  0  0  0  0  0  0  0
    9.2580   -6.0320   26.5230 C   0  0  0  0  0  0  0  0  0  0  0  0
    8.2830   -5.2390   27.0300 C   0  0  0  0  0  0  0  0  0  0  0  0
    2.9590    2.8260   23.2220 N   0  0  0  0  0  0  0  0  0  0  0  0
    7.2080   -5.5680   28.3170 Cl  0  0  0  0  0  0  0  0  0  0  0  0
  1  2  1  0
  2  3  1  0
  3  4  1  0
  4  5  1  0
  6  5  1  6
  6  7  1  0
  6  8  1  0
  7  8  1  6
  7  9  1  0
  9 10  1  0
  9 11  1  6
 10 12  1  0
 11 13  1  0
 10 14  1  0
 12 15  1  0
 12 16  2  0
 13 17  1  0
 14 18  1  1
 13 19  1  0
 14 19  1  0
 17 20  1  6
 18 21  1  0
 18 22  1  0
 17 23  1  0
 24 21  1  1
 22 25  2  0
 22 26  1  0
 24 26  1  0
 23 27  2  0
 23 28  1  0
 20 29  1  0
 24 30  1  0
 28 31  1  0
 26 32  2  0
 25 33  1  0
 27 34  1  0
 28 35  2  0
 29 36  2  0
 29 37  1  0
 30 38  1  0
 32 39  1  0
 38 39  1  0
 32 40  1  0
 33 40  2  0
 34 41  2  0
 35 41  1  0
 36 42  1  0
 37 43  1  0
 42 43  2  0
 38 44  1  1
 43 45  1  0
M  END
