x0397_0-x1385_1-x0692_1-x1412_1-x0831_0-x0831_1-x1334_0
     RDKit          3D

 27 30  0  0  0  0  0  0  0  0999 V2000
    6.4180   -3.2770   19.8530 C   0  0  0  0  0  0  0  0  0  0  0  0
    7.3960   -2.9950   18.7310 C   0  0  0  0  0  0  0  0  0  0  0  0
    5.4210   -3.9870   19.6640 O   0  0  0  0  0  0  0  0  0  0  0  0
    6.7420   -2.7430   21.0780 N   0  0  0  0  0  0  0  0  0  0  0  0
    7.0760   -3.7120   22.1130 C   0  0  1  0  0  0  0  0  0  0  0  0
    7.4780   -1.4440   21.0810 C   0  0  0  0  0  0  0  0  0  0  0  0
    7.4120   -2.9240   23.4000 C   0  0  0  0  0  0  0  0  0  0  0  0
    8.7610   -1.5860   21.8650 C   0  0  0  0  0  0  0  0  0  0  0  0
    5.8130   -4.5690   22.3000 C   0  0  0  0  0  0  0  0  0  0  0  0
    8.4660   -1.8560   23.2710 N   0  0  0  0  0  0  0  0  0  0  0  0
    6.2910   -5.5540   23.2120 C   0  0  0  0  0  0  0  0  0  0  0  0
    5.8560   -6.2550   22.1790 C   0  0  0  0  0  0  0  0  0  0  0  0
    9.5400   -1.9450   24.0960 C   0  0  1  0  0  0  0  0  0  0  0  0
   10.1360   -3.3120   24.1440 C   0  0  0  0  0  0  0  0  0  0  0  0
   10.5210   -0.8090   23.8140 C   0  0  0  0  0  0  0  0  0  0  0  0
   10.2310    0.4870   24.2220 C   0  0  0  0  0  0  0  0  0  0  0  0
   11.7760   -0.9900   23.1160 C   0  0  0  0  0  0  0  0  0  0  0  0
    9.5230   -4.1760   25.1990 C   0  0  0  0  0  0  0  0  0  0  0  0
   12.2630   -2.3040   22.5910 C   0  0  0  0  0  0  0  0  0  0  0  0
   11.0860    1.7470   24.0110 C   0  0  0  0  0  0  0  0  0  0  0  0
   12.7870    0.2660   22.8320 C   0  0  0  0  0  0  0  0  0  0  0  0
    9.9390   -5.5750   25.3970 C   0  0  0  0  0  0  0  0  0  0  0  0
    8.2660   -3.7650   26.3590 S   0  0  0  0  0  0  0  0  0  0  0  0
   12.4430    1.6940   23.2850 C   0  0  0  0  0  0  0  0  0  0  0  0
    9.2250   -6.1800   26.4710 C   0  0  0  0  0  0  0  0  0  0  0  0
    8.2100   -5.2880   27.1530 C   0  0  0  0  0  0  0  0  0  0  0  0
    7.1680   -5.6400   28.4580 Cl  0  0  0  0  0  0  0  0  0  0  0  0
  1  2  1  0
  1  3  2  0
  1  4  1  0
  4  5  1  0
  4  6  1  0
  5  7  1  0
  6  8  1  0
  5  9  1  1
  7 10  1  0
  8 10  1  0
  9 11  1  0
  9 12  1  0
 11 12  1  0
 10 13  1  0
 13 14  1  6
 13 15  1  0
 15 16  2  0
 15 17  1  0
 14 18  1  0
 17 19  1  0
 16 20  1  0
 17 21  2  0
 18 22  2  0
 18 23  1  0
 20 24  2  0
 21 24  1  0
 22 25  1  0
 23 26  1  0
 25 26  2  0
 26 27  1  0
M  END
