x0397_0-x0770_1-x1375_1-x1385_1-x0434_2-x0426_1-x0831_0-x1418_1-x0692_1-x1334_1
     RDKit          3D

 36 40  0  0  0  0  0  0  0  0999 V2000
    2.5480   -7.2830   24.2740 O   0  0  0  0  0  0  0  0  0  0  0  0
    3.3080   -6.5540   25.2120 C   0  0  0  0  0  0  0  0  0  0  0  0
    4.6900   -6.6720   24.9310 O   0  0  0  0  0  0  0  0  0  0  0  0
    4.9470   -6.8610   23.5450 C   0  0  0  0  0  0  0  0  0  0  0  0
    5.8750   -5.8360   22.9930 C   0  0  2  0  0  0  0  0  0  0  0  0
    5.5460   -4.5530   22.4480 C   0  0  2  0  0  0  0  0  0  0  0  0
    6.1730   -5.8700   21.6770 C   0  0  0  0  0  0  0  0  0  0  0  0
    6.3010   -3.2530   22.5130 C   0  0  2  0  0  0  0  0  0  0  0  0
    6.3410   -2.5880   21.2040 N   0  0  0  0  0  0  0  0  0  0  0  0
    7.7350   -3.4070   23.1540 C   0  0  0  0  0  0  0  0  0  0  0  0
    6.2000   -3.3470   20.0210 C   0  0  0  0  0  0  0  0  0  0  0  0
    8.5540   -2.1750   23.2060 N   0  0  0  0  0  0  0  0  0  0  0  0
    7.2460   -1.3910   21.1480 C   0  0  1  0  0  0  0  0  0  0  0  0
    7.1380   -2.9880   18.8760 C   0  0  0  0  0  0  0  0  0  0  0  0
    5.3940   -4.2780   19.8370 O   0  0  0  0  0  0  0  0  0  0  0  0
    6.5630   -0.0250   21.3600 C   0  0  1  0  0  0  0  0  0  0  0  0
    9.9560   -2.4170   23.5710 C   0  0  0  0  0  0  0  0  0  0  0  0
    8.6120   -1.6050   21.8530 C   0  0  0  0  0  0  0  0  0  0  0  0
    5.4510   -0.0080   22.4120 C   0  0  0  0  0  0  0  0  0  0  0  0
    7.6730    0.9670   21.8540 C   0  0  0  0  0  0  0  0  0  0  0  0
    6.0230    0.5500   20.0820 C   0  0  0  0  0  0  0  0  0  0  0  0
   10.7550   -1.0930   23.5540 C   0  0  0  0  0  0  0  0  0  0  0  0
    4.7560    1.3910   22.5080 C   0  0  2  0  0  0  0  0  0  0  0  0
    4.8440    1.3180   20.0370 C   0  0  0  0  0  0  0  0  0  0  0  0
    6.6820    0.3350   18.9430 C   0  0  0  0  0  0  0  0  0  0  0  0
   10.1580   -0.0510   24.1750 C   0  0  0  0  0  0  0  0  0  0  0  0
   12.1430   -0.9960   22.8510 C   0  0  0  0  0  0  0  0  0  0  0  0
    3.8300    1.4640   23.6160 N   0  0  0  0  0  0  0  0  0  0  0  0
    3.9910    1.6400   21.2090 C   0  0  0  0  0  0  0  0  0  0  0  0
   12.8240   -2.1300   22.1490 C   0  0  0  0  0  0  0  0  0  0  0  0
    4.3490    1.8950   18.7380 C   0  0  0  0  0  0  0  0  0  0  0  0
    6.3970    0.7570   17.7060 N   0  0  0  0  0  0  0  0  0  0  0  0
   10.8120    1.2810   24.2110 C   0  0  0  0  0  0  0  0  0  0  0  0
   12.7510    0.2410   22.8940 C   0  0  0  0  0  0  0  0  0  0  0  0
    5.3000    1.4980   17.6210 C   0  0  0  0  0  0  0  0  0  0  0  0
   12.1470    1.4150   23.5460 C   0  0  0  0  0  0  0  0  0  0  0  0
  1  2  1  0
  2  3  1  0
  3  4  1  0
  5  4  1  6
  5  6  1  0
  5  7  1  0
  6  7  1  6
  6  8  1  0
  8  9  1  0
  8 10  1  6
  9 11  1  0
 10 12  1  0
  9 13  1  0
 11 14  1  0
 11 15  2  0
 13 16  1  0
 12 17  1  0
 12 18  1  0
 13 18  1  1
 16 19  1  0
 16 20  1  1
 16 21  1  0
 17 22  1  0
 19 23  1  0
 21 24  2  0
 21 25  1  0
 22 26  2  0
 22 27  1  0
 23 28  1  1
 23 29  1  0
 24 29  1  0
 27 30  1  0
 24 31  1  0
 25 32  2  0
 26 33  1  0
 27 34  2  0
 31 35  2  0
 32 35  1  0
 33 36  2  0
 34 36  1  0
M  END
