x0397_0-x0770_1-x1418_1-x0831_0-x1385_1-x1412_1-x0831_1-x0434_2
     RDKit          3D

 27 30  0  0  0  0  0  0  0  0999 V2000
    6.3150   -3.2050   19.9000 C   0  0  0  0  0  0  0  0  0  0  0  0
    7.2960   -2.9420   18.7730 C   0  0  0  0  0  0  0  0  0  0  0  0
    5.3200   -3.9040   19.6080 O   0  0  0  0  0  0  0  0  0  0  0  0
    6.6020   -2.7530   21.1900 N   0  0  0  0  0  0  0  0  0  0  0  0
    7.3890   -1.4940   21.4460 C   0  0  1  0  0  0  0  0  0  0  0  0
    6.9740   -3.6670   22.1780 C   0  0  1  0  0  0  0  0  0  0  0  0
    8.8110   -1.8550   21.8330 C   0  0  0  0  0  0  0  0  0  0  0  0
    7.6660   -3.1540   23.4740 C   0  0  0  0  0  0  0  0  0  0  0  0
    5.8580   -4.6710   22.5500 C   0  0  0  0  0  0  0  0  0  0  0  0
    7.4110   -0.1880   20.6450 C   0  0  0  0  0  0  0  0  0  0  0  0
    8.7470   -2.1740   23.2420 N   0  0  0  0  0  0  0  0  0  0  0  0
    6.1760   -5.8260   23.3230 C   0  0  0  0  0  0  0  0  0  0  0  0
    5.9580   -6.2620   21.9940 C   0  0  0  0  0  0  0  0  0  0  0  0
    7.0230   -0.0470   19.2010 C   0  0  0  0  0  0  0  0  0  0  0  0
   10.0070   -2.4890   23.6080 C   0  0  0  0  0  0  0  0  0  0  0  0
    6.0430    0.5870   20.2490 C   0  0  0  0  0  0  0  0  0  0  0  0
    6.3460    0.2940   18.0350 N   0  0  0  0  0  0  0  0  0  0  0  0
   10.7920   -1.2100   23.5480 C   0  0  0  0  0  0  0  0  0  0  0  0
    5.1970    0.9790   17.8910 C   0  0  0  0  0  0  0  0  0  0  0  0
    4.8580    1.2840   20.1720 C   0  0  0  0  0  0  0  0  0  0  0  0
   10.1640    0.0340   24.2080 C   0  0  0  0  0  0  0  0  0  0  0  0
   12.1850   -1.0180   22.8560 C   0  0  0  0  0  0  0  0  0  0  0  0
    4.4120    1.4970   18.9960 C   0  0  0  0  0  0  0  0  0  0  0  0
   12.9050   -2.1290   22.1650 C   0  0  0  0  0  0  0  0  0  0  0  0
   10.8930    1.3920   24.1620 C   0  0  0  0  0  0  0  0  0  0  0  0
   12.8500    0.4340   22.8810 C   0  0  0  0  0  0  0  0  0  0  0  0
   12.2750    1.5480   23.4650 C   0  0  0  0  0  0  0  0  0  0  0  0
  1  2  1  0
  1  3  2  0
  1  4  1  0
  4  5  1  0
  4  6  1  0
  5  7  1  0
  6  8  1  0
  6  9  1  1
  5 10  1  6
  7 11  1  0
  8 11  1  0
  9 12  1  0
  9 13  1  0
 12 13  1  0
 10 14  1  0
 11 15  1  0
 14 16  2  0
 14 17  1  0
 15 18  1  0
 17 19  2  0
 16 20  1  0
 18 21  2  0
 18 22  1  0
 19 23  1  0
 20 23  2  0
 22 24  1  0
 21 25  1  0
 22 26  2  0
 25 27  2  0
 26 27  1  0
M  END
