x0397_0-x1334_0-x1334_1-x0831_0-x0434_2-x0770_1
     RDKit          3D

 34 38  0  0  0  0  0  0  0  0999 V2000
    6.2220   -3.2490   19.8990 C   0  0  0  0  0  0  0  0  0  0  0  0
    7.2730   -2.9650   18.8290 C   0  0  0  0  0  0  0  0  0  0  0  0
    5.2380   -3.9260   19.5850 O   0  0  0  0  0  0  0  0  0  0  0  0
    6.3840   -2.8540   21.2410 N   0  0  0  0  0  0  0  0  0  0  0  0
    7.0360   -1.5820   21.5760 C   0  0  2  0  0  0  0  0  0  0  0  0
    6.7410   -3.8460   22.2360 C   0  0  1  0  0  0  0  0  0  0  0  0
    7.3690   -0.9520   20.3500 N   0  0  0  0  0  0  0  0  0  0  0  0
    8.3460   -1.8500   22.2910 C   0  0  0  0  0  0  0  0  0  0  0  0
    6.9980   -3.2340   23.6160 C   0  0  0  0  0  0  0  0  0  0  0  0
    5.6800   -4.9210   22.3170 C   0  0  0  0  0  0  0  0  0  0  0  0
    8.0340   -2.2140   23.5740 N   0  0  0  0  0  0  0  0  0  0  0  0
    5.9090   -6.2310   23.1270 C   0  0  0  0  0  0  0  0  0  0  0  0
    6.0250   -6.3860   21.9020 C   0  0  0  0  0  0  0  0  0  0  0  0
    6.5500   -0.1190   19.6420 C   0  0  0  0  0  0  0  0  0  0  0  0
    9.1970   -2.6040   24.3280 C   0  0  2  0  0  0  0  0  0  0  0  0
    6.9100    0.2490   18.4560 C   0  0  0  0  0  0  0  0  0  0  0  0
    5.3430    0.3370   20.1550 C   0  0  0  0  0  0  0  0  0  0  0  0
   10.4050   -2.6210   23.3650 C   0  0  0  0  0  0  0  0  0  0  0  0
    9.0230   -3.8170   25.2490 C   0  0  0  0  0  0  0  0  0  0  0  0
    6.2670    1.0390   17.6060 N   0  0  0  0  0  0  0  0  0  0  0  0
    4.5180    1.2680   19.2410 C   0  0  0  0  0  0  0  0  0  0  0  0
    9.7460   -5.1260   25.2680 C   0  0  0  0  0  0  0  0  0  0  0  0
    7.8470   -3.8060   26.5320 S   0  0  0  0  0  0  0  0  0  0  0  0
   11.0470   -1.2050   23.3540 C   0  0  0  0  0  0  0  0  0  0  0  0
    5.0850    1.5420   17.9990 C   0  0  0  0  0  0  0  0  0  0  0  0
    9.3520   -5.9750   26.2340 C   0  0  0  0  0  0  0  0  0  0  0  0
    8.2270   -5.3810   27.0980 C   0  0  0  0  0  0  0  0  0  0  0  0
   10.3980   -0.1720   24.0510 C   0  0  0  0  0  0  0  0  0  0  0  0
   12.2270   -0.8750   22.7270 C   0  0  0  0  0  0  0  0  0  0  0  0
    7.3750   -6.0220   28.4320 Cl  0  0  0  0  0  0  0  0  0  0  0  0
   13.0450   -1.8440   21.9350 C   0  0  0  0  0  0  0  0  0  0  0  0
   10.9010    1.1220   24.1200 C   0  0  0  0  0  0  0  0  0  0  0  0
   12.7680    0.4120   22.7840 C   0  0  0  0  0  0  0  0  0  0  0  0
   12.1010    1.4190   23.4810 C   0  0  0  0  0  0  0  0  0  0  0  0
  1  2  1  0
  1  3  2  0
  1  4  1  0
  4  5  1  0
  4  6  1  0
  5  7  1  6
  5  8  1  0
  6  9  1  0
  6 10  1  1
  8 11  1  0
  9 11  1  0
 10 12  1  0
 10 13  1  0
 12 13  1  0
  7 14  1  0
 11 15  1  0
 14 16  2  0
 14 17  1  0
 15 18  1  6
 15 19  1  0
 16 20  1  0
 17 21  2  0
 19 22  2  0
 19 23  1  0
 18 24  1  0
 20 25  2  0
 21 25  1  0
 22 26  1  0
 23 27  1  0
 26 27  2  0
 24 28  2  0
 24 29  1  0
 27 30  1  0
 29 31  1  0
 28 32  1  0
 29 33  2  0
 32 34  2  0
 33 34  1  0
M  END
