x0395_1-x0769_1
     RDKit          3D

 21 22  0  0  0  0  0  0  0  0999 V2000
    4.6420   -5.4330   26.2550 S   0  0  0  0  0  0  0  0  0  0  0  0
    3.7150   -3.9480   26.0950 C   0  0  0  0  0  0  0  0  0  0  0  0
    4.3810   -2.7000   26.0200 C   0  0  0  0  0  0  0  0  0  0  0  0
    6.0290   -5.0690   26.3580 O   0  0  0  0  0  0  0  0  0  0  0  0
    4.1300   -6.4000   25.3110 O   0  0  0  0  0  0  0  0  0  0  0  0
    2.2370   -4.0510   26.0520 C   0  0  0  0  0  0  0  0  0  0  0  0
    5.7550   -2.7550   26.0620 O   0  0  0  0  0  0  0  0  0  0  0  0
    1.3880   -2.8040   25.9330 C   0  0  0  0  0  0  0  0  0  0  0  0
    3.6230   -1.3440   25.9020 C   0  0  0  0  0  0  0  0  0  0  0  0
    6.4970   -1.9670   25.0890 C   0  0  0  0  0  0  0  0  0  0  0  0
    2.0790   -1.4510   25.8640 C   0  0  0  0  0  0  0  0  0  0  0  0
    7.0890   -2.8420   23.9740 C   0  0  0  0  0  0  0  0  0  0  0  0
    8.1340   -2.1070   23.1010 C   0  0  0  0  0  0  0  0  0  0  0  0
    9.4710   -1.9600   23.8430 C   0  0  0  0  0  0  0  0  0  0  0  0
   10.1960   -0.8830   23.1350 N   0  0  0  0  0  0  0  0  0  0  0  0
   11.1720   -1.4910   22.3140 C   0  0  0  0  0  0  0  0  0  0  0  0
   10.7410    0.0860   24.0920 C   0  0  0  0  0  0  0  0  0  0  0  0
   12.4790   -1.0210   22.2780 C   0  0  0  0  0  0  0  0  0  0  0  0
   11.6310    1.0760   23.3700 C   0  0  0  0  0  0  0  0  0  0  0  0
   13.4370   -1.7770   21.7460 F   0  0  0  0  0  0  0  0  0  0  0  0
   12.7900    0.2790   22.8020 C   0  0  0  0  0  0  0  0  0  0  0  0
  1  2  1  0
  2  3  2  0
  1  4  2  0
  1  5  2  0
  2  6  1  0
  3  7  1  0
  6  8  2  0
  3  9  1  0
  7 10  1  0
  8 11  1  0
  9 11  2  0
 10 12  1  0
 12 13  1  0
 13 14  1  0
 14 15  1  0
 15 16  1  0
 15 17  1  0
 16 18  1  0
 17 19  1  0
 18 20  1  0
 18 21  2  0
 19 21  1  0
M  END
