x0397_0-x0692_1-x0831_0-x1418_1-x0770_1-x1385_1-x0426_1-x1386_1-x1334_0-x0831_1-x0434_2-x1334_1-x1374_1
     RDKit          3D

 44 49  0  0  0  0  0  0  0  0999 V2000
    2.2240   -7.6960   23.2490 O   0  0  0  0  0  0  0  0  0  0  0  0
    2.4040   -8.0540   24.6010 C   0  0  0  0  0  0  0  0  0  0  0  0
    3.7790   -7.9780   24.9040 O   0  0  0  0  0  0  0  0  0  0  0  0
    4.4720   -7.2270   23.9160 C   0  0  0  0  0  0  0  0  0  0  0  0
    4.9120   -6.0070   24.3790 C   0  0  0  0  0  0  0  0  0  0  0  0
    6.0850   -5.7310   23.5070 C   0  0  2  0  0  0  0  0  0  0  0  0
    5.9870   -4.7120   22.5130 C   0  0  2  0  0  0  0  0  0  0  0  0
    6.1930   -6.3290   22.2170 C   0  0  0  0  0  0  0  0  0  0  0  0
    7.0600   -3.7630   22.1510 C   0  0  1  0  0  0  0  0  0  0  0  0
    6.6840   -2.8660   21.2710 N   0  0  0  0  0  0  0  0  0  0  0  0
    7.7240   -3.1590   23.4090 C   0  0  0  0  0  0  0  0  0  0  0  0
    6.3990   -3.2720   19.9460 C   0  0  0  0  0  0  0  0  0  0  0  0
    8.6540   -2.1660   23.1900 N   0  0  0  0  0  0  0  0  0  0  0  0
    7.4000   -1.6390   21.6280 C   0  0  2  0  0  0  0  0  0  0  0  0
    5.4030   -3.9700   19.6780 O   0  0  0  0  0  0  0  0  0  0  0  0
    7.3620   -2.9600   18.8160 C   0  0  0  0  0  0  0  0  0  0  0  0
    9.6720   -1.9880   24.0920 C   0  0  1  0  0  0  0  0  0  0  0  0
    7.0230   -0.3490   21.0200 C   0  0  0  0  0  0  0  0  0  0  0  0
    8.8470   -1.8860   21.8780 C   0  0  0  0  0  0  0  0  0  0  0  0
    5.5190   -0.1970   21.1440 C   0  0  1  0  0  0  0  0  0  0  0  0
   10.4020   -3.2390   24.4060 C   0  0  0  0  0  0  0  0  0  0  0  0
   10.6010   -0.8290   23.7920 C   0  0  0  0  0  0  0  0  0  0  0  0
    5.0510    0.5130   22.4220 C   0  0  0  0  0  0  0  0  0  0  0  0
    5.3610    0.5340   19.8590 C   0  0  0  0  0  0  0  0  0  0  0  0
   10.1610    0.5910   24.3080 C   0  0  0  0  0  0  0  0  0  0  0  0
   11.9390   -0.9530   23.0230 C   0  0  0  0  0  0  0  0  0  0  0  0
    9.7100   -4.1620   25.3520 C   0  0  0  0  0  0  0  0  0  0  0  0
    4.2700    1.8350   22.1770 C   0  0  2  0  0  0  0  0  0  0  0  0
   12.5370   -2.1920   22.4410 C   0  0  0  0  0  0  0  0  0  0  0  0
    4.4380    1.5300   19.6640 C   0  0  0  0  0  0  0  0  0  0  0  0
    6.2120    0.1390   18.9150 C   0  0  0  0  0  0  0  0  0  0  0  0
   10.9830    1.6550   24.0520 C   0  0  0  0  0  0  0  0  0  0  0  0
   12.6750    0.3810   22.8760 C   0  0  0  0  0  0  0  0  0  0  0  0
   10.0190   -5.4870   25.5850 C   0  0  0  0  0  0  0  0  0  0  0  0
    8.3710   -3.7030   26.3400 S   0  0  0  0  0  0  0  0  0  0  0  0
    3.3980    1.9980   23.1060 N   0  0  0  0  0  0  0  0  0  0  0  0
    3.5550    1.8230   20.8320 C   0  0  0  0  0  0  0  0  0  0  0  0
    4.2270    2.3600   18.3770 C   0  0  0  0  0  0  0  0  0  0  0  0
    6.1970    0.7430   17.6750 N   0  0  0  0  0  0  0  0  0  0  0  0
   12.3100    1.6590   23.3220 C   0  0  0  0  0  0  0  0  0  0  0  0
    9.1440   -6.1380   26.6230 C   0  0  0  0  0  0  0  0  0  0  0  0
    8.2330   -5.2310   27.0830 C   0  0  0  0  0  0  0  0  0  0  0  0
    7.0430   -5.5220   28.2790 Cl  0  0  0  0  0  0  0  0  0  0  0  0
    5.2960    1.7110   17.5270 C   0  0  0  0  0  0  0  0  0  0  0  0
  1  2  1  0
  2  3  1  0
  3  4  1  0
  4  5  1  0
  6  5  1  6
  6  7  1  0
  6  8  1  0
  7  8  1  6
  7  9  1  0
  9 10  1  0
  9 11  1  1
 10 12  1  0
 11 13  1  0
 10 14  1  0
 12 15  2  0
 12 16  1  0
 13 17  1  0
 14 18  1  6
 13 19  1  0
 14 19  1  0
 20 18  1  1
 17 21  1  6
 17 22  1  0
 20 23  1  0
 20 24  1  0
 22 25  2  0
 22 26  1  0
 21 27  1  0
 23 28  1  0
 26 29  1  0
 24 30  2  0
 24 31  1  0
 25 32  1  0
 26 33  2  0
 27 34  2  0
 27 35  1  0
 28 36  1  1
 28 37  1  0
 30 37  1  0
 30 38  1  0
 31 39  2  0
 32 40  2  0
 33 40  1  0
 34 41  1  0
 35 42  1  0
 41 42  2  0
 42 43  1  0
 38 44  2  0
 39 44  1  0
M  END
