x0397_0-x1412_1-x1374_1-x0770_1-x0692_1-x0831_1-x1386_1-x1418_1-x1334_0-x1385_1-x0831_0-x0434_2
     RDKit          3D

 39 43  0  0  0  0  0  0  0  0999 V2000
    2.4920   -7.5500   23.3540 O   0  0  0  0  0  0  0  0  0  0  0  0
    2.8480   -7.7240   24.7110 C   0  0  0  0  0  0  0  0  0  0  0  0
    4.2470   -7.8890   24.7640 O   0  0  0  0  0  0  0  0  0  0  0  0
    4.8940   -7.0830   23.7730 C   0  0  0  0  0  0  0  0  0  0  0  0
    5.5820   -6.0260   24.3700 C   0  0  0  0  0  0  0  0  0  0  0  0
    4.9890   -4.8740   23.7080 C   0  0  1  0  0  0  0  0  0  0  0  0
    5.4760   -4.1510   22.5470 C   0  0  2  0  0  0  0  0  0  0  0  0
    4.6100   -5.3820   22.2230 C   0  0  0  0  0  0  0  0  0  0  0  0
    6.8810   -4.0410   22.0480 C   0  0  1  0  0  0  0  0  0  0  0  0
    6.8680   -2.9300   21.1060 N   0  0  0  0  0  0  0  0  0  0  0  0
    7.7960   -4.0300   23.1060 C   0  0  0  0  0  0  0  0  0  0  0  0
    6.4710   -3.3470   19.8620 C   0  0  0  0  0  0  0  0  0  0  0  0
    8.3450   -2.7280   23.4330 N   0  0  0  0  0  0  0  0  0  0  0  0
    7.7910   -1.8660   21.1540 C   0  0  1  0  0  0  0  0  0  0  0  0
    7.4340   -3.0360   18.7440 C   0  0  0  0  0  0  0  0  0  0  0  0
    5.4310   -3.9920   19.6550 O   0  0  0  0  0  0  0  0  0  0  0  0
    9.2580   -2.7150   24.4560 C   0  0  2  0  0  0  0  0  0  0  0  0
    6.9400   -0.6910   21.2880 N   0  0  0  0  0  0  0  0  0  0  0  0
    8.8680   -2.0020   22.2530 C   0  0  0  0  0  0  0  0  0  0  0  0
   10.6640   -2.5860   23.9310 C   0  0  0  0  0  0  0  0  0  0  0  0
    9.0480   -3.8630   25.3930 C   0  0  0  0  0  0  0  0  0  0  0  0
    6.4210   -0.0460   20.1630 C   0  0  0  0  0  0  0  0  0  0  0  0
    9.7950   -5.0490   25.4010 C   0  0  0  0  0  0  0  0  0  0  0  0
    7.7990   -3.8350   26.6060 S   0  0  0  0  0  0  0  0  0  0  0  0
   11.1120   -1.1530   23.7870 C   0  0  0  0  0  0  0  0  0  0  0  0
    6.9470   -0.0530   18.8820 C   0  0  0  0  0  0  0  0  0  0  0  0
    5.1240    0.7840   20.2850 C   0  0  0  0  0  0  0  0  0  0  0  0
    9.3420   -6.0320   26.4740 C   0  0  0  0  0  0  0  0  0  0  0  0
    8.1790   -5.4610   27.2640 C   0  0  0  0  0  0  0  0  0  0  0  0
   10.4660    0.0170   24.2890 C   0  0  0  0  0  0  0  0  0  0  0  0
   12.3510   -0.9280   23.0470 C   0  0  0  0  0  0  0  0  0  0  0  0
    6.3910    0.6400   17.7210 N   0  0  0  0  0  0  0  0  0  0  0  0
    4.6270    1.4260   19.1370 C   0  0  0  0  0  0  0  0  0  0  0  0
    7.2670   -6.0860   28.5610 Cl  0  0  0  0  0  0  0  0  0  0  0  0
   13.0780   -2.0960   22.4770 C   0  0  0  0  0  0  0  0  0  0  0  0
   10.7820    1.3310   24.2130 C   0  0  0  0  0  0  0  0  0  0  0  0
   12.9010    0.5040   22.8580 C   0  0  0  0  0  0  0  0  0  0  0  0
    5.2660    1.3360   17.9190 C   0  0  0  0  0  0  0  0  0  0  0  0
   12.0640    1.6420   23.4680 C   0  0  0  0  0  0  0  0  0  0  0  0
  1  2  1  0
  2  3  1  0
  3  4  1  0
  4  5  1  0
  6  5  1  6
  6  7  1  0
  6  8  1  0
  7  8  1  6
  7  9  1  0
  9 10  1  0
  9 11  1  1
 10 12  1  0
 11 13  1  0
 10 14  1  0
 12 15  1  0
 12 16  2  0
 13 17  1  0
 14 18  1  1
 13 19  1  0
 14 19  1  0
 17 20  1  6
 17 21  1  0
 18 22  1  0
 21 23  2  0
 21 24  1  0
 20 25  1  0
 22 26  2  0
 22 27  1  0
 23 28  1  0
 24 29  1  0
 28 29  2  0
 25 30  2  0
 25 31  1  0
 26 32  1  0
 27 33  2  0
 29 34  1  0
 31 35  1  0
 30 36  1  0
 31 37  2  0
 32 38  2  0
 33 38  1  0
 36 39  2  0
 37 39  1  0
M  END
