x0397_0-x0770_1-x1385_1-x0540_3-x1386_1-x0831_1-x0831_0-x1418_1-x0692_1
     RDKit          3D

 26 28  0  0  0  0  0  0  0  0999 V2000
    6.1860   -3.3600   20.0810 C   0  0  0  0  0  0  0  0  0  0  0  0
    7.1930   -3.0020   18.9870 C   0  0  0  0  0  0  0  0  0  0  0  0
    5.3870   -4.2750   19.8300 O   0  0  0  0  0  0  0  0  0  0  0  0
    6.2080   -2.6480   21.3230 N   0  0  0  0  0  0  0  0  0  0  0  0
    6.8770   -1.3440   21.4490 C   0  0  2  0  0  0  0  0  0  0  0  0
    6.4040   -3.3670   22.6050 C   0  0  2  0  0  0  0  0  0  0  0  0
    6.4720   -0.1880   20.4910 C   0  0  0  0  0  0  0  0  0  0  0  0
    8.3720   -1.5150   21.8030 C   0  0  0  0  0  0  0  0  0  0  0  0
    7.8820   -3.6260   22.8570 C   0  0  0  0  0  0  0  0  0  0  0  0
    5.6640   -4.6990   22.5750 C   0  0  0  0  0  0  0  0  0  0  0  0
    5.1980    0.5920   20.8830 C   0  0  0  0  0  0  0  0  0  0  0  0
    8.5200   -2.2990   23.0540 N   0  0  0  0  0  0  0  0  0  0  0  0
    6.1800   -5.7840   23.1230 C   0  0  0  0  0  0  0  0  0  0  0  0
    6.2480   -6.0610   21.8520 C   0  0  0  0  0  0  0  0  0  0  0  0
    5.2510    1.3050   22.2900 C   0  0  0  0  0  0  0  0  0  0  0  0
    9.9570   -2.4600   23.3720 C   0  0  0  0  0  0  0  0  0  0  0  0
    4.2120    2.3370   22.4380 N   0  0  0  0  0  0  0  0  0  0  0  0
   10.7280   -1.1460   23.4350 C   0  0  0  0  0  0  0  0  0  0  0  0
    3.1310    2.1860   23.2690 C   0  0  0  0  0  0  0  0  0  0  0  0
   10.1530   -0.0550   24.0980 C   0  0  0  0  0  0  0  0  0  0  0  0
   12.0030   -0.9610   22.8470 C   0  0  0  0  0  0  0  0  0  0  0  0
    2.9790    1.3150   24.1140 O   0  0  0  0  0  0  0  0  0  0  0  0
   12.7130   -2.0500   22.1090 C   0  0  0  0  0  0  0  0  0  0  0  0
   10.8890    1.2640   24.1580 C   0  0  0  0  0  0  0  0  0  0  0  0
   12.6500    0.2620   22.9290 C   0  0  0  0  0  0  0  0  0  0  0  0
   12.0910    1.3570   23.5750 C   0  0  0  0  0  0  0  0  0  0  0  0
  1  2  1  0
  1  3  2  0
  1  4  1  0
  4  5  1  0
  4  6  1  0
  5  7  1  6
  5  8  1  0
  6  9  1  0
  6 10  1  6
  7 11  1  0
  8 12  1  0
  9 12  1  0
 10 13  1  0
 10 14  1  0
 13 14  1  0
 11 15  1  0
 12 16  1  0
 15 17  1  0
 16 18  1  0
 17 19  1  0
 18 20  2  0
 18 21  1  0
 19 22  2  0
 21 23  1  0
 20 24  1  0
 21 25  2  0
 24 26  2  0
 25 26  1  0
M  END
