x0397_0-x0770_1-x1385_1-x0434_2-x0426_1-x1386_1-x0831_0-x1418_1-x0692_1-x1334_1-x1412_1
     RDKit          3D

 32 36  0  0  0  0  0  0  0  0999 V2000
    6.2250   -3.3510   20.0210 C   0  0  0  0  0  0  0  0  0  0  0  0
    7.1560   -3.0030   18.8650 C   0  0  0  0  0  0  0  0  0  0  0  0
    5.3940   -4.2560   19.8230 O   0  0  0  0  0  0  0  0  0  0  0  0
    6.3630   -2.6520   21.2570 N   0  0  0  0  0  0  0  0  0  0  0  0
    7.1090   -1.5010   21.1700 C   0  0  1  0  0  0  0  0  0  0  0  0
    6.3180   -3.3070   22.5850 C   0  0  2  0  0  0  0  0  0  0  0  0
    6.3120   -0.1240   21.5400 C   0  0  1  0  0  0  0  0  0  0  0  0
    8.4850   -1.5970   21.8050 C   0  0  0  0  0  0  0  0  0  0  0  0
    7.7150   -3.3760   23.1610 C   0  0  0  0  0  0  0  0  0  0  0  0
    5.5470   -4.6940   22.6410 C   0  0  0  0  0  0  0  0  0  0  0  0
    5.0130   -0.3330   22.3340 C   0  0  0  0  0  0  0  0  0  0  0  0
    7.3490    0.8220   22.1080 C   0  0  0  0  0  0  0  0  0  0  0  0
    8.5350   -2.1400   23.1600 N   0  0  0  0  0  0  0  0  0  0  0  0
    6.0540   -5.7860   23.1780 C   0  0  0  0  0  0  0  0  0  0  0  0
    6.2020   -5.9350   21.7550 C   0  0  0  0  0  0  0  0  0  0  0  0
    5.8940    0.4660   20.1890 C   0  0  0  0  0  0  0  0  0  0  0  0
    3.9980    0.8700   22.4080 C   0  0  1  0  0  0  0  0  0  0  0  0
    9.8320   -2.3300   23.5760 C   0  0  0  0  0  0  0  0  0  0  0  0
    4.7420    1.2290   19.9910 C   0  0  0  0  0  0  0  0  0  0  0  0
    6.7000    0.2370   19.0960 C   0  0  0  0  0  0  0  0  0  0  0  0
    4.3500    1.8730   23.4300 N   0  0  0  0  0  0  0  0  0  0  0  0
    3.7580    1.5680   21.0240 C   0  0  0  0  0  0  0  0  0  0  0  0
    4.4810    1.7270   18.7130 C   0  0  0  0  0  0  0  0  0  0  0  0
    6.4420    0.7370   17.7690 N   0  0  0  0  0  0  0  0  0  0  0  0
   10.6960   -1.0760   23.5390 C   0  0  0  0  0  0  0  0  0  0  0  0
    5.3300    1.4750   17.6450 C   0  0  0  0  0  0  0  0  0  0  0  0
   10.1700    0.0330   24.1670 C   0  0  0  0  0  0  0  0  0  0  0  0
   12.0570   -1.0590   22.8360 C   0  0  0  0  0  0  0  0  0  0  0  0
   12.7170   -2.1970   22.1210 C   0  0  0  0  0  0  0  0  0  0  0  0
   10.7450    1.2200   24.2340 C   0  0  0  0  0  0  0  0  0  0  0  0
   12.7380    0.3340   22.9250 C   0  0  0  0  0  0  0  0  0  0  0  0
   12.0870    1.3790   23.5850 C   0  0  0  0  0  0  0  0  0  0  0  0
  1  2  1  0
  1  3  2  0
  1  4  1  0
  4  5  1  0
  4  6  1  0
  5  7  1  0
  5  8  1  1
  6  9  1  0
  6 10  1  6
  7 11  1  0
  7 12  1  1
  8 13  1  0
  9 13  1  0
 10 14  1  0
 10 15  1  0
 14 15  1  0
  7 16  1  0
 11 17  1  0
 13 18  1  0
 16 19  2  0
 16 20  1  0
 17 21  1  1
 17 22  1  0
 19 22  1  0
 19 23  1  0
 20 24  2  0
 18 25  1  0
 23 26  2  0
 24 26  1  0
 25 27  2  0
 25 28  1  0
 28 29  1  0
 27 30  1  0
 28 31  2  0
 30 32  2  0
 31 32  1  0
M  END
