x0397_0-x1418_1-x0831_1-x0831_0-x1375_1-x0692_1-x1334_1-x1412_1-x1385_1-x1334_0-x0770_1-x0434_2-x0426_1
     RDKit          3D

 42 47  0  0  0  0  0  0  0  0999 V2000
    3.1010   -8.1870   24.0640 O   0  0  0  0  0  0  0  0  0  0  0  0
    3.4880   -6.8840   24.4170 C   0  0  0  0  0  0  0  0  0  0  0  0
    4.8260   -6.8860   24.8760 O   0  0  0  0  0  0  0  0  0  0  0  0
    5.5690   -5.7440   24.4360 C   0  0  0  0  0  0  0  0  0  0  0  0
    5.2870   -5.5420   23.0000 C   0  0  1  0  0  0  0  0  0  0  0  0
    5.7990   -4.5480   22.1240 C   0  0  2  0  0  0  0  0  0  0  0  0
    5.9510   -6.1890   22.0210 C   0  0  0  0  0  0  0  0  0  0  0  0
    7.1160   -3.7110   22.0630 C   0  0  2  0  0  0  0  0  0  0  0  0
    7.5120   -3.0900   23.4240 C   0  0  0  0  0  0  0  0  0  0  0  0
    6.9360   -2.7380   21.0170 N   0  0  0  0  0  0  0  0  0  0  0  0
    6.5140   -3.2690   19.8240 C   0  0  0  0  0  0  0  0  0  0  0  0
    8.4310   -1.9330   23.4100 N   0  0  0  0  0  0  0  0  0  0  0  0
    7.1080   -1.2930   21.2520 C   0  0  1  0  0  0  0  0  0  0  0  0
    7.4520   -3.0190   18.6890 C   0  0  0  0  0  0  0  0  0  0  0  0
    5.4940   -3.9600   19.6630 O   0  0  0  0  0  0  0  0  0  0  0  0
    5.7550   -0.5500   21.3410 C   0  0  1  0  0  0  0  0  0  0  0  0
    9.8570   -2.2240   23.3440 C   0  0  2  0  0  0  0  0  0  0  0  0
    8.1270   -0.9250   22.3770 C   0  0  0  0  0  0  0  0  0  0  0  0
    5.5500    0.4740   22.4560 C   0  0  0  0  0  0  0  0  0  0  0  0
   10.4110   -3.2370   24.3160 C   0  0  0  0  0  0  0  0  0  0  0  0
    5.5750    0.2000   20.0570 C   0  0  0  0  0  0  0  0  0  0  0  0
   10.6970   -0.9140   23.3700 C   0  0  0  0  0  0  0  0  0  0  0  0
    4.1080    1.0820   22.4690 C   0  0  1  0  0  0  0  0  0  0  0  0
    4.5750    1.1670   19.9630 C   0  0  0  0  0  0  0  0  0  0  0  0
    6.3590   -0.0300   18.9830 C   0  0  0  0  0  0  0  0  0  0  0  0
   10.0880    0.1760   23.8940 C   0  0  0  0  0  0  0  0  0  0  0  0
   12.1510   -0.8880   22.8190 C   0  0  0  0  0  0  0  0  0  0  0  0
    9.6560   -4.1400   25.2560 C   0  0  0  0  0  0  0  0  0  0  0  0
    4.0230    2.2150   23.3730 N   0  0  0  0  0  0  0  0  0  0  0  0
    3.6340    1.5260   21.0670 C   0  0  0  0  0  0  0  0  0  0  0  0
   12.8460   -2.0600   22.2240 C   0  0  0  0  0  0  0  0  0  0  0  0
    4.3970    1.9280   18.6780 C   0  0  0  0  0  0  0  0  0  0  0  0
    6.3320    0.5570   17.7680 N   0  0  0  0  0  0  0  0  0  0  0  0
   10.7850    1.4870   23.9800 C   0  0  0  0  0  0  0  0  0  0  0  0
   12.8100    0.3240   22.8970 C   0  0  0  0  0  0  0  0  0  0  0  0
    9.9660   -5.4490   25.4830 C   0  0  0  0  0  0  0  0  0  0  0  0
    8.3240   -3.6850   26.2050 S   0  0  0  0  0  0  0  0  0  0  0  0
    5.3980    1.4900   17.6200 C   0  0  0  0  0  0  0  0  0  0  0  0
   12.1780    1.5260   23.4590 C   0  0  0  0  0  0  0  0  0  0  0  0
    9.1120   -6.1400   26.5020 C   0  0  0  0  0  0  0  0  0  0  0  0
    8.1720   -5.2710   26.9850 C   0  0  0  0  0  0  0  0  0  0  0  0
    6.9850   -5.5890   28.1730 Cl  0  0  0  0  0  0  0  0  0  0  0  0
  1  2  1  0
  2  3  1  0
  3  4  1  0
  5  4  1  1
  5  6  1  0
  5  7  1  0
  6  7  1  6
  6  8  1  0
  8  9  1  1
  8 10  1  0
 10 11  1  0
  9 12  1  0
 10 13  1  0
 11 14  1  0
 11 15  2  0
 13 16  1  0
 12 17  1  0
 12 18  1  0
 13 18  1  1
 16 19  1  1
 17 20  1  1
 16 21  1  0
 17 22  1  0
 19 23  1  0
 21 24  2  0
 21 25  1  0
 22 26  2  0
 22 27  1  0
 20 28  1  0
 23 29  1  1
 23 30  1  0
 24 30  1  0
 27 31  1  0
 24 32  1  0
 25 33  2  0
 26 34  1  0
 27 35  2  0
 28 36  2  0
 28 37  1  0
 32 38  2  0
 33 38  1  0
 34 39  2  0
 35 39  1  0
 36 40  1  0
 37 41  1  0
 40 41  2  0
 41 42  1  0
M  END
