x0395_1-x0770_1-x0981_1
     RDKit          3D

 29 30  0  0  0  0  0  0  0  0999 V2000
    4.0560   -5.8050   22.9130 C   0  0  0  0  0  0  0  0  0  0  0  0
    2.6670   -6.1600   23.3960 C   0  0  1  0  0  0  0  0  0  0  0  0
    2.3720   -7.4340   22.7480 N   0  0  0  0  0  0  0  0  0  0  0  0
    4.6800   -4.7020   23.0560 N   0  0  0  0  0  0  0  0  0  0  0  0
    2.6560   -6.2960   24.9040 C   0  0  0  0  0  0  0  0  0  0  0  0
    6.0080   -4.6320   22.4510 C   0  0  0  0  0  0  0  0  0  0  0  0
    1.2250   -7.5770   22.0220 C   0  0  0  0  0  0  0  0  0  0  0  0
    3.0530   -7.6700   25.3390 C   0  0  0  0  0  0  0  0  0  0  0  0
    6.4200   -3.1470   22.4520 C   0  0  2  0  0  0  0  0  0  0  0  0
    1.1640   -8.8150   21.1620 C   0  0  0  0  0  0  0  0  0  0  0  0
    0.3240   -6.7420   22.0530 O   0  0  0  0  0  0  0  0  0  0  0  0
    2.4350   -8.2640   26.3920 N   0  0  0  0  0  0  0  0  0  0  0  0
    3.9370   -8.2240   24.7130 O   0  0  0  0  0  0  0  0  0  0  0  0
    6.4600   -2.5780   21.0890 N   0  0  0  0  0  0  0  0  0  0  0  0
    7.6780   -3.1280   23.0420 C   0  0  0  0  0  0  0  0  0  0  0  0
    6.2700   -3.3380   19.9260 C   0  0  0  0  0  0  0  0  0  0  0  0
    8.1930   -1.7640   23.1630 N   0  0  0  0  0  0  0  0  0  0  0  0
    7.0890   -1.2600   20.9680 C   0  0  0  0  0  0  0  0  0  0  0  0
    7.2380   -3.0060   18.7990 C   0  0  0  0  0  0  0  0  0  0  0  0
    5.4070   -4.2160   19.7940 O   0  0  0  0  0  0  0  0  0  0  0  0
    9.4350   -1.6780   23.9170 C   0  0  0  0  0  0  0  0  0  0  0  0
    8.3880   -1.2640   21.7880 C   0  0  0  0  0  0  0  0  0  0  0  0
   10.3260   -0.7640   23.2170 N   0  0  0  0  0  0  0  0  0  0  0  0
   11.2770   -1.5190   22.3940 C   0  0  0  0  0  0  0  0  0  0  0  0
   11.0060    0.1250   24.1700 C   0  0  0  0  0  0  0  0  0  0  0  0
   12.5820   -0.9430   22.2760 C   0  0  0  0  0  0  0  0  0  0  0  0
   11.7450    1.0210   23.4210 C   0  0  0  0  0  0  0  0  0  0  0  0
   13.5580   -1.6230   21.6600 F   0  0  0  0  0  0  0  0  0  0  0  0
   12.8010    0.3460   22.8070 C   0  0  0  0  0  0  0  0  0  0  0  0
  2  1  1  6
  2  3  1  0
  1  4  2  3
  2  5  1  0
  4  6  1  0
  3  7  1  0
  5  8  1  0
  9  6  1  6
  7 10  1  0
  7 11  2  0
  8 12  1  0
  8 13  2  0
  9 14  1  0
  9 15  1  0
 14 16  1  0
 15 17  1  0
 14 18  1  0
 16 19  1  0
 16 20  2  0
 17 21  1  0
 17 22  1  0
 18 22  1  0
 21 23  1  0
 23 24  1  0
 23 25  1  0
 24 26  1  0
 25 27  1  0
 26 28  1  0
 26 29  2  0
 27 29  1  0
M  END
