x0397_0-x0770_1-x1418_1-x1386_1-x1385_1-x0692_1-x1412_1-x1334_1-x0426_1-x1334_0-x0831_1-x1374_1-x0434_2-x0831_0
     RDKit          3D

 44 49  0  0  0  0  0  0  0  0999 V2000
    2.2240   -7.7670   23.2560 O   0  0  0  0  0  0  0  0  0  0  0  0
    2.3990   -8.1130   24.6150 C   0  0  0  0  0  0  0  0  0  0  0  0
    3.7840   -8.0770   24.8700 O   0  0  0  0  0  0  0  0  0  0  0  0
    4.4420   -7.3000   23.8860 C   0  0  0  0  0  0  0  0  0  0  0  0
    4.7470   -6.0890   24.3840 C   0  0  0  0  0  0  0  0  0  0  0  0
    5.7290   -5.5060   23.4350 C   0  0  2  0  0  0  0  0  0  0  0  0
    5.3410   -4.5590   22.3940 C   0  0  2  0  0  0  0  0  0  0  0  0
    5.9690   -6.0660   22.1290 C   0  0  0  0  0  0  0  0  0  0  0  0
    6.1050   -3.2680   22.4070 C   0  0  2  0  0  0  0  0  0  0  0  0
    6.2470   -2.5630   21.1370 N   0  0  0  0  0  0  0  0  0  0  0  0
    7.5100   -3.5560   22.9600 C   0  0  0  0  0  0  0  0  0  0  0  0
    6.1940   -3.3000   19.9490 C   0  0  0  0  0  0  0  0  0  0  0  0
    8.1400   -2.3020   23.3430 N   0  0  0  0  0  0  0  0  0  0  0  0
    7.1480   -1.3750   21.2410 C   0  0  1  0  0  0  0  0  0  0  0  0
    7.1830   -2.9870   18.8360 C   0  0  0  0  0  0  0  0  0  0  0  0
    5.3830   -4.2180   19.7820 O   0  0  0  0  0  0  0  0  0  0  0  0
    6.3450   -0.0170   21.5560 C   0  0  1  0  0  0  0  0  0  0  0  0
    9.2930   -2.5980   24.1890 C   0  0  2  0  0  0  0  0  0  0  0  0
    8.3900   -1.6160   22.0910 C   0  0  0  0  0  0  0  0  0  0  0  0
    5.0560   -0.2710   22.3900 C   0  0  0  0  0  0  0  0  0  0  0  0
   10.5860   -2.5310   23.4300 C   0  0  0  0  0  0  0  0  0  0  0  0
    7.2520    1.0440   22.2050 C   0  0  0  0  0  0  0  0  0  0  0  0
    5.9080    0.5460   20.2070 C   0  0  0  0  0  0  0  0  0  0  0  0
    9.1030   -3.7500   25.1700 C   0  0  0  0  0  0  0  0  0  0  0  0
    4.0220    0.9130   22.4970 C   0  0  1  0  0  0  0  0  0  0  0  0
    4.7270    1.2950   20.0860 C   0  0  0  0  0  0  0  0  0  0  0  0
    6.6810    0.3330   19.0520 C   0  0  0  0  0  0  0  0  0  0  0  0
    9.8820   -4.9620   25.3120 C   0  0  0  0  0  0  0  0  0  0  0  0
    7.8000   -3.8060   26.4010 S   0  0  0  0  0  0  0  0  0  0  0  0
   11.0950   -1.1190   23.4420 C   0  0  0  0  0  0  0  0  0  0  0  0
    4.3800    1.9040   23.4920 N   0  0  0  0  0  0  0  0  0  0  0  0
    3.7620    1.6230   21.1690 C   0  0  0  0  0  0  0  0  0  0  0  0
    4.4190    1.8160   18.7300 C   0  0  0  0  0  0  0  0  0  0  0  0
    6.4990    0.7460   17.7800 N   0  0  0  0  0  0  0  0  0  0  0  0
    9.5060   -5.8080   26.2600 C   0  0  0  0  0  0  0  0  0  0  0  0
    8.3140   -5.3100   27.0120 C   0  0  0  0  0  0  0  0  0  0  0  0
   10.3750    0.0090   23.9560 C   0  0  0  0  0  0  0  0  0  0  0  0
   12.3520   -0.8500   22.9250 C   0  0  0  0  0  0  0  0  0  0  0  0
    7.4550   -6.0040   28.3150 Cl  0  0  0  0  0  0  0  0  0  0  0  0
   13.1630   -1.9550   22.3460 C   0  0  0  0  0  0  0  0  0  0  0  0
    5.2970    1.5480   17.6110 C   0  0  0  0  0  0  0  0  0  0  0  0
   10.8850    1.2800   23.9570 C   0  0  0  0  0  0  0  0  0  0  0  0
   12.8680    0.4400   22.9310 C   0  0  0  0  0  0  0  0  0  0  0  0
   12.1400    1.5000   23.4440 C   0  0  0  0  0  0  0  0  0  0  0  0
  1  2  1  0
  2  3  1  0
  3  4  1  0
  4  5  1  0
  6  5  1  6
  6  7  1  0
  6  8  1  0
  7  8  1  6
  7  9  1  0
  9 10  1  0
  9 11  1  6
 10 12  1  0
 11 13  1  0
 10 14  1  0
 12 15  1  0
 12 16  2  0
 14 17  1  0
 13 18  1  0
 13 19  1  0
 14 19  1  1
 17 20  1  0
 18 21  1  6
 17 22  1  1
 17 23  1  0
 18 24  1  0
 20 25  1  0
 23 26  2  0
 23 27  1  0
 24 28  2  0
 24 29  1  0
 21 30  1  0
 25 31  1  1
 25 32  1  0
 26 32  1  0
 26 33  1  0
 27 34  2  0
 28 35  1  0
 29 36  1  0
 35 36  2  0
 30 37  2  0
 30 38  1  0
 36 39  1  0
 38 40  1  0
 33 41  2  0
 34 41  1  0
 37 42  1  0
 38 43  2  0
 42 44  2  0
 43 44  1  0
M  END
