x0397_0-x1334_1-x1385_1-x1375_1-x0831_0-x0434_2-x0831_1-x1412_1-x0692_1-x1386_1-x1334_0-x0770_1-x1418_1
     RDKit          3D

 38 42  0  0  0  0  0  0  0  0999 V2000
    2.3670   -7.1340   24.3610 O   0  0  0  0  0  0  0  0  0  0  0  0
    3.3900   -7.1390   25.3350 C   0  0  0  0  0  0  0  0  0  0  0  0
    4.6540   -7.2950   24.7280 O   0  0  0  0  0  0  0  0  0  0  0  0
    5.2980   -6.0030   24.4950 C   0  0  0  0  0  0  0  0  0  0  0  0
    5.0950   -5.5970   23.0700 C   0  0  1  0  0  0  0  0  0  0  0  0
    5.7410   -4.7440   22.1290 C   0  0  2  0  0  0  0  0  0  0  0  0
    5.8720   -6.3080   21.8560 C   0  0  0  0  0  0  0  0  0  0  0  0
    6.9850   -3.8750   22.1710 C   0  0  1  0  0  0  0  0  0  0  0  0
    6.7770   -2.7870   21.2130 N   0  0  0  0  0  0  0  0  0  0  0  0
    7.5410   -3.3870   23.5410 C   0  0  0  0  0  0  0  0  0  0  0  0
    6.4610   -3.2240   19.9030 C   0  0  0  0  0  0  0  0  0  0  0  0
    8.4570   -2.1560   23.4660 N   0  0  0  0  0  0  0  0  0  0  0  0
    7.4520   -1.6260   21.5570 C   0  0  2  0  0  0  0  0  0  0  0  0
    7.3760   -2.9360   18.7370 C   0  0  0  0  0  0  0  0  0  0  0  0
    5.4590   -3.9370   19.6550 O   0  0  0  0  0  0  0  0  0  0  0  0
    9.5460   -2.0390   24.2820 C   0  0  1  0  0  0  0  0  0  0  0  0
    7.6990   -0.7710   20.4440 N   0  0  0  0  0  0  0  0  0  0  0  0
    8.7820   -1.9380   22.1810 C   0  0  0  0  0  0  0  0  0  0  0  0
   10.2960   -3.2760   24.3360 C   0  0  0  0  0  0  0  0  0  0  0  0
   10.5220   -0.8880   23.9090 C   0  0  0  0  0  0  0  0  0  0  0  0
    6.7310   -0.0410   19.8180 C   0  0  0  0  0  0  0  0  0  0  0  0
   10.0230    0.4830   24.4130 C   0  0  0  0  0  0  0  0  0  0  0  0
   11.7700   -0.9900   23.1850 C   0  0  0  0  0  0  0  0  0  0  0  0
    9.6500   -4.1870   25.3030 C   0  0  0  0  0  0  0  0  0  0  0  0
    6.9410    0.3330   18.3870 C   0  0  0  0  0  0  0  0  0  0  0  0
    5.4050    0.5160   20.2810 C   0  0  0  0  0  0  0  0  0  0  0  0
   12.3220   -2.2800   22.6530 C   0  0  0  0  0  0  0  0  0  0  0  0
   10.9570    1.6750   24.0760 C   0  0  0  0  0  0  0  0  0  0  0  0
   12.6550    0.2360   22.8920 C   0  0  0  0  0  0  0  0  0  0  0  0
    9.9440   -5.5880   25.5650 C   0  0  0  0  0  0  0  0  0  0  0  0
    8.2790   -3.7570   26.4390 S   0  0  0  0  0  0  0  0  0  0  0  0
    6.1910    1.0240   17.5540 N   0  0  0  0  0  0  0  0  0  0  0  0
    4.5780    1.3120   19.2810 C   0  0  0  0  0  0  0  0  0  0  0  0
   12.2670    1.4350   23.3040 C   0  0  0  0  0  0  0  0  0  0  0  0
    9.2090   -6.2240   26.5350 C   0  0  0  0  0  0  0  0  0  0  0  0
    8.2670   -5.3360   27.0990 C   0  0  0  0  0  0  0  0  0  0  0  0
    5.0380    1.4940   18.0360 C   0  0  0  0  0  0  0  0  0  0  0  0
    7.1550   -5.7100   28.3460 Cl  0  0  0  0  0  0  0  0  0  0  0  0
  1  2  1  0
  2  3  1  0
  3  4  1  0
  5  4  1  1
  5  6  1  0
  5  7  1  0
  6  7  1  6
  6  8  1  0
  8  9  1  0
  8 10  1  1
  9 11  1  0
 10 12  1  0
  9 13  1  0
 11 14  1  0
 11 15  2  0
 12 16  1  0
 13 17  1  6
 12 18  1  0
 13 18  1  0
 16 19  1  6
 16 20  1  0
 17 21  1  0
 20 22  2  0
 20 23  1  0
 19 24  1  0
 21 25  2  0
 21 26  1  0
 23 27  1  0
 22 28  1  0
 23 29  2  0
 24 30  2  0
 24 31  1  0
 25 32  1  0
 26 33  2  0
 28 34  2  0
 29 34  1  0
 30 35  1  0
 31 36  1  0
 35 36  2  0
 32 37  2  0
 33 37  1  0
 36 38  1  0
M  END
