x0397_0-x1334_1-x1334_0-x1386_1-x1412_1-x0692_1-x1374_1-x0770_1-x0831_0-x0831_1-x1375_1-x1418_1-x0434_2-x1385_1-x0426_1
     RDKit          3D

 45 51  0  0  0  0  0  0  0  0999 V2000
    1.9960   -7.1440   23.7290 O   0  0  0  0  0  0  0  0  0  0  0  0
    2.5470   -7.4130   25.0090 C   0  0  0  0  0  0  0  0  0  0  0  0
    3.9230   -7.7260   24.8770 O   0  0  0  0  0  0  0  0  0  0  0  0
    4.4730   -7.1160   23.7280 C   0  0  0  0  0  0  0  0  0  0  0  0
    4.9410   -5.8600   24.0440 C   0  0  0  0  0  0  0  0  0  0  0  0
    6.0060   -5.5470   23.0320 C   0  0  2  0  0  0  0  0  0  0  0  0
    5.8180   -4.5690   22.1780 C   0  0  2  0  0  0  0  0  0  0  0  0
    6.0050   -6.1620   21.8830 C   0  0  0  0  0  0  0  0  0  0  0  0
    6.9320   -3.6100   22.0050 C   0  0  1  0  0  0  0  0  0  0  0  0
    6.7160   -2.6500   20.9500 N   0  0  0  0  0  0  0  0  0  0  0  0
    7.1030   -3.1110   23.2510 C   0  0  0  0  0  0  0  0  0  0  0  0
    6.3860   -3.3180   19.7800 C   0  0  0  0  0  0  0  0  0  0  0  0
    8.3460   -2.3470   23.2760 N   0  0  0  0  0  0  0  0  0  0  0  0
    7.8590   -1.7540   20.8720 C   0  0  1  0  0  0  0  0  0  0  0  0
    7.3470   -3.0550   18.6290 C   0  0  0  0  0  0  0  0  0  0  0  0
    5.4280   -4.0910   19.6880 O   0  0  0  0  0  0  0  0  0  0  0  0
    9.3190   -2.6800   24.2690 C   0  0  2  0  0  0  0  0  0  0  0  0
    7.6280   -0.3350   20.8500 N   0  0  0  0  0  0  0  0  0  0  0  0
    8.9100   -2.0150   21.9460 C   0  0  0  0  0  0  0  0  0  0  0  0
   10.6990   -2.4880   23.7280 C   0  0  0  0  0  0  0  0  0  0  0  0
    7.2830    0.3630   22.1190 C   0  0  0  0  0  0  0  0  0  0  0  0
    6.7590    0.2150   19.8700 C   0  0  0  0  0  0  0  0  0  0  0  0
    9.1000   -3.8430   25.2190 C   0  0  0  0  0  0  0  0  0  0  0  0
    5.7610    0.5770   22.0670 C   0  0  2  0  0  0  0  0  0  0  0  0
    6.6060    0.4210   18.3850 N   0  0  0  0  0  0  0  0  0  0  0  0
    5.5800    0.7990   20.5970 C   0  0  0  0  0  0  0  0  0  0  0  0
    9.8490   -5.1360   25.3600 C   0  0  0  0  0  0  0  0  0  0  0  0
    7.8370   -3.8380   26.4030 S   0  0  0  0  0  0  0  0  0  0  0  0
   11.1850   -1.0450   23.5980 C   0  0  0  0  0  0  0  0  0  0  0  0
    5.0880    1.7030   22.8410 C   0  0  0  0  0  0  0  0  0  0  0  0
    4.4210    1.4900   20.0440 C   0  0  0  0  0  0  0  0  0  0  0  0
    5.5440    1.0650   17.9080 C   0  0  0  0  0  0  0  0  0  0  0  0
    9.3540   -5.9280   26.3610 C   0  0  0  0  0  0  0  0  0  0  0  0
    8.2550   -5.3720   27.0410 C   0  0  0  0  0  0  0  0  0  0  0  0
   10.4150    0.0000   24.0110 C   0  0  0  0  0  0  0  0  0  0  0  0
   12.3860   -0.8730   23.0660 C   0  0  0  0  0  0  0  0  0  0  0  0
    3.6130    1.7480   22.4600 C   0  0  2  0  0  0  0  0  0  0  0  0
    3.3380    2.0090   20.9590 C   0  0  0  0  0  0  0  0  0  0  0  0
    7.3480   -6.0030   28.3460 Cl  0  0  0  0  0  0  0  0  0  0  0  0
   13.1620   -2.0580   22.6120 C   0  0  0  0  0  0  0  0  0  0  0  0
    4.5070    1.5740   18.6860 C   0  0  0  0  0  0  0  0  0  0  0  0
   10.9090    1.3620   23.8990 C   0  0  0  0  0  0  0  0  0  0  0  0
   12.9490    0.3530   22.9120 C   0  0  0  0  0  0  0  0  0  0  0  0
    2.9550    2.7230   23.2900 N   0  0  0  0  0  0  0  0  0  0  0  0
   12.3010    1.6200   23.3040 C   0  0  0  0  0  0  0  0  0  0  0  0
  1  2  1  0
  2  3  1  0
  3  4  1  0
  4  5  1  0
  6  5  1  1
  6  7  1  0
  6  8  1  0
  7  8  1  6
  7  9  1  0
  9 10  1  0
  9 11  1  1
 10 12  1  0
 11 13  1  0
 10 14  1  0
 12 15  1  0
 12 16  2  0
 13 17  1  0
 14 18  1  1
 13 19  1  0
 14 19  1  0
 17 20  1  6
 18 21  1  0
 18 22  1  0
 17 23  1  0
 24 21  1  6
 22 25  2  0
 22 26  1  0
 24 26  1  0
 23 27  2  0
 23 28  1  0
 20 29  1  0
 24 30  1  0
 26 31  2  0
 25 32  1  0
 27 33  1  0
 28 34  1  0
 33 34  2  0
 29 35  2  0
 29 36  1  0
 30 37  1  0
 31 38  1  0
 37 38  1  0
 34 39  1  0
 36 40  1  0
 31 41  1  0
 32 41  2  0
 35 42  1  0
 36 43  2  0
 37 44  1  1
 42 45  2  0
 43 45  1  0
M  END
