x0397_0-x0770_1-x1385_1-x0540_3-x1374_1-x1386_1-x0831_1-x0831_0-x1334_0-x0692_1-x1412_1
     RDKit          3D

 38 41  0  0  0  0  0  0  0  0999 V2000
    2.0810   -7.1680   23.6050 O   0  0  0  0  0  0  0  0  0  0  0  0
    2.5050   -7.4730   24.9230 C   0  0  0  0  0  0  0  0  0  0  0  0
    3.8740   -7.8340   24.8770 O   0  0  0  0  0  0  0  0  0  0  0  0
    4.5100   -7.1680   23.7990 C   0  0  0  0  0  0  0  0  0  0  0  0
    4.8920   -5.9860   24.2330 C   0  0  0  0  0  0  0  0  0  0  0  0
    5.9140   -5.3770   23.3260 C   0  0  2  0  0  0  0  0  0  0  0  0
    5.5740   -4.3750   22.3520 C   0  0  2  0  0  0  0  0  0  0  0  0
    6.2240   -5.8260   21.8820 C   0  0  0  0  0  0  0  0  0  0  0  0
    6.3220   -3.0500   22.3170 C   0  0  2  0  0  0  0  0  0  0  0  0
    6.3830   -2.5080   21.0800 N   0  0  0  0  0  0  0  0  0  0  0  0
    7.6490   -3.2220   22.8570 C   0  0  0  0  0  0  0  0  0  0  0  0
    6.2510   -3.2950   19.9130 C   0  0  0  0  0  0  0  0  0  0  0  0
    8.4220   -1.9870   22.9250 N   0  0  0  0  0  0  0  0  0  0  0  0
    7.1660   -1.2430   21.0500 C   0  0  1  0  0  0  0  0  0  0  0  0
    7.2590   -3.0350   18.8260 C   0  0  0  0  0  0  0  0  0  0  0  0
    5.3940   -4.1760   19.7620 O   0  0  0  0  0  0  0  0  0  0  0  0
    6.6000   -0.1620   22.0000 C   0  0  0  0  0  0  0  0  0  0  0  0
    9.6090   -1.9710   23.7690 C   0  0  1  0  0  0  0  0  0  0  0  0
    8.5720   -1.4860   21.5830 C   0  0  0  0  0  0  0  0  0  0  0  0
    5.2150    0.4330   21.6990 C   0  0  0  0  0  0  0  0  0  0  0  0
   10.1970   -3.3260   23.8790 C   0  0  0  0  0  0  0  0  0  0  0  0
   10.6290   -0.8060   23.5750 C   0  0  0  0  0  0  0  0  0  0  0  0
    5.1100    1.8680   22.3840 C   0  0  0  0  0  0  0  0  0  0  0  0
   10.2190    0.4140   23.9180 C   0  0  0  0  0  0  0  0  0  0  0  0
   12.0340   -0.9650   23.0320 C   0  0  0  0  0  0  0  0  0  0  0  0
    9.6010   -4.1650   24.9980 C   0  0  0  0  0  0  0  0  0  0  0  0
    3.7720    2.4000   22.3160 N   0  0  0  0  0  0  0  0  0  0  0  0
   12.6540   -2.2420   22.5870 C   0  0  0  0  0  0  0  0  0  0  0  0
   10.8160    1.8290   23.9300 C   0  0  0  0  0  0  0  0  0  0  0  0
   12.7420    0.1250   22.9530 C   0  0  0  0  0  0  0  0  0  0  0  0
    9.9410   -5.4250   25.3820 C   0  0  0  0  0  0  0  0  0  0  0  0
    8.2680   -3.6930   26.1190 S   0  0  0  0  0  0  0  0  0  0  0  0
    2.8800    2.2440   23.3420 C   0  0  0  0  0  0  0  0  0  0  0  0
   12.1930    1.5060   23.3780 C   0  0  0  0  0  0  0  0  0  0  0  0
    9.3420   -6.0280   26.3860 C   0  0  0  0  0  0  0  0  0  0  0  0
    8.3190   -5.1590   26.9600 C   0  0  0  0  0  0  0  0  0  0  0  0
    2.9140    1.2280   24.3260 O   0  0  0  0  0  0  0  0  0  0  0  0
    7.2820   -5.4990   28.2790 Cl  0  0  0  0  0  0  0  0  0  0  0  0
  1  2  1  0
  2  3  1  0
  3  4  1  0
  4  5  1  0
  6  5  1  6
  6  7  1  0
  6  8  1  0
  7  8  1  6
  7  9  1  0
  9 10  1  0
  9 11  1  6
 10 12  1  0
 11 13  1  0
 10 14  1  0
 12 15  1  0
 12 16  2  0
 14 17  1  1
 13 18  1  0
 13 19  1  0
 14 19  1  0
 17 20  1  0
 18 21  1  6
 18 22  1  0
 20 23  1  0
 22 24  2  0
 22 25  1  0
 21 26  1  0
 23 27  1  0
 25 28  1  0
 24 29  1  0
 25 30  2  0
 26 31  2  0
 26 32  1  0
 27 33  1  0
 29 34  2  0
 30 34  1  0
 31 35  1  0
 32 36  1  0
 35 36  2  0
 33 37  2  0
 36 38  1  0
M  END
