x0397_0-x0692_1-x0434_2-x1334_0-x1334_1-x1412_1-x1418_1-x0831_0
     RDKit          3D

 34 38  0  0  0  0  0  0  0  0999 V2000
    6.3490   -3.2270   19.8190 C   0  0  0  0  0  0  0  0  0  0  0  0
    7.2800   -2.9950   18.6530 C   0  0  0  0  0  0  0  0  0  0  0  0
    5.4340   -4.0670   19.7030 O   0  0  0  0  0  0  0  0  0  0  0  0
    6.5990   -2.5090   20.9640 N   0  0  0  0  0  0  0  0  0  0  0  0
    7.7230   -1.5550   20.9630 C   0  0  2  0  0  0  0  0  0  0  0  0
    6.3550   -3.2280   22.2020 C   0  0  2  0  0  0  0  0  0  0  0  0
    8.8680   -1.7950   21.9940 C   0  0  0  0  0  0  0  0  0  0  0  0
    7.0010   -2.5230   23.4060 C   0  0  0  0  0  0  0  0  0  0  0  0
    6.7370   -4.6800   22.1050 C   0  0  0  0  0  0  0  0  0  0  0  0
    7.4130   -0.0770   20.8050 C   0  0  0  0  0  0  0  0  0  0  0  0
    8.4470   -2.2180   23.3490 N   0  0  0  0  0  0  0  0  0  0  0  0
    6.3140   -5.7220   23.1730 C   0  0  0  0  0  0  0  0  0  0  0  0
    5.6050   -5.8620   22.1170 C   0  0  0  0  0  0  0  0  0  0  0  0
    7.0770    0.2910   19.3720 C   0  0  0  0  0  0  0  0  0  0  0  0
    9.3130   -3.3090   23.7500 C   0  0  1  0  0  0  0  0  0  0  0  0
    6.0560    0.4940   20.3360 C   0  0  0  0  0  0  0  0  0  0  0  0
    6.4570    0.7280   18.1860 N   0  0  0  0  0  0  0  0  0  0  0  0
   10.7690   -2.8240   23.9740 C   0  0  0  0  0  0  0  0  0  0  0  0
    8.9550   -4.1440   24.9770 C   0  0  0  0  0  0  0  0  0  0  0  0
    5.2410    1.2460   17.8710 C   0  0  0  0  0  0  0  0  0  0  0  0
    4.7890    0.9850   20.2010 C   0  0  0  0  0  0  0  0  0  0  0  0
    9.7210   -5.3840   25.3770 C   0  0  0  0  0  0  0  0  0  0  0  0
    7.6820   -3.8830   26.1160 S   0  0  0  0  0  0  0  0  0  0  0  0
   11.0870   -1.3260   23.8380 C   0  0  0  0  0  0  0  0  0  0  0  0
    4.3530    1.3970   18.8560 C   0  0  0  0  0  0  0  0  0  0  0  0
    9.2180   -5.9380   26.4790 C   0  0  0  0  0  0  0  0  0  0  0  0
    8.1280   -5.3770   27.1120 C   0  0  0  0  0  0  0  0  0  0  0  0
   10.2140   -0.2830   24.4910 C   0  0  0  0  0  0  0  0  0  0  0  0
   12.2830   -0.8180   23.0580 C   0  0  0  0  0  0  0  0  0  0  0  0
    7.2750   -5.8510   28.5090 Cl  0  0  0  0  0  0  0  0  0  0  0  0
   13.1710   -1.7970   22.3690 C   0  0  0  0  0  0  0  0  0  0  0  0
   10.5900    1.1960   24.3280 C   0  0  0  0  0  0  0  0  0  0  0  0
   12.6490    0.6700   22.9230 C   0  0  0  0  0  0  0  0  0  0  0  0
   11.6840    1.6870   23.6330 C   0  0  0  0  0  0  0  0  0  0  0  0
  1  2  1  0
  1  3  2  0
  1  4  1  0
  4  5  1  0
  4  6  1  0
  5  7  1  0
  6  8  1  0
  6  9  1  6
  5 10  1  1
  7 11  1  0
  8 11  1  0
  9 12  1  0
  9 13  1  0
 12 13  1  0
 10 14  1  0
 11 15  1  0
 14 16  2  0
 14 17  1  0
 15 18  1  1
 15 19  1  0
 17 20  2  0
 16 21  1  0
 19 22  2  0
 19 23  1  0
 18 24  1  0
 20 25  1  0
 21 25  2  0
 22 26  1  0
 23 27  1  0
 26 27  2  0
 24 28  2  0
 24 29  1  0
 27 30  1  0
 29 31  1  0
 28 32  1  0
 29 33  2  0
 32 34  2  0
 33 34  1  0
M  END
