x0397_0-x0426_1-x1386_1-x0831_0-x1334_0-x0692_1-x0434_2-x1412_1-x1334_1
     RDKit          3D

 40 45  0  0  0  0  0  0  0  0999 V2000
    6.5100   -3.1720   19.7810 C   0  0  0  0  0  0  0  0  0  0  0  0
    7.4720   -2.9560   18.6450 C   0  0  0  0  0  0  0  0  0  0  0  0
    5.4940   -3.8690   19.6090 O   0  0  0  0  0  0  0  0  0  0  0  0
    6.8360   -2.6320   21.0110 N   0  0  0  0  0  0  0  0  0  0  0  0
    7.5060   -1.3650   21.1420 C   0  0  2  0  0  0  0  0  0  0  0  0
    6.8500   -3.5400   22.1680 C   0  0  1  0  0  0  0  0  0  0  0  0
    8.9070   -1.8080   21.5680 C   0  0  0  0  0  0  0  0  0  0  0  0
    7.9170   -3.3020   23.2240 C   0  0  0  0  0  0  0  0  0  0  0  0
    5.5050   -3.6340   22.8110 C   0  0  0  0  0  0  0  0  0  0  0  0
    6.8680   -0.4420   22.1990 C   0  0  0  0  0  0  0  0  0  0  0  0
    8.8810   -2.2300   22.9770 N   0  0  0  0  0  0  0  0  0  0  0  0
    4.9690   -5.0430   22.6500 C   0  0  0  0  0  0  0  0  0  0  0  0
    6.6580    1.0190   21.7720 C   0  0  2  0  0  0  0  0  0  0  0  0
   10.0760   -2.3890   23.5490 C   0  0  2  0  0  0  0  0  0  0  0  0
    5.8180   -6.0490   23.1580 C   0  0  0  0  0  0  0  0  0  0  0  0
    5.8170   -6.1940   21.7250 C   0  0  0  0  0  0  0  0  0  0  0  0
    5.7350    1.7480   22.7100 C   0  0  0  0  0  0  0  0  0  0  0  0
    6.0970    1.0130   20.3650 C   0  0  0  0  0  0  0  0  0  0  0  0
    9.8900   -2.7240   24.9900 C   0  0  0  0  0  0  0  0  0  0  0  0
   10.8420   -1.0470   23.4580 C   0  0  0  0  0  0  0  0  0  0  0  0
    4.2300    1.6170   22.4230 C   0  0  1  0  0  0  0  0  0  0  0  0
    4.8700    1.6030   20.0900 C   0  0  0  0  0  0  0  0  0  0  0  0
    6.7990    0.4240   19.3260 C   0  0  0  0  0  0  0  0  0  0  0  0
   10.2710    0.3110   23.9490 C   0  0  0  0  0  0  0  0  0  0  0  0
   12.1480   -0.9440   22.9200 C   0  0  0  0  0  0  0  0  0  0  0  0
    9.4420   -4.0010   25.6190 C   0  0  0  0  0  0  0  0  0  0  0  0
    3.5510    2.1240   23.4760 N   0  0  0  0  0  0  0  0  0  0  0  0
    4.0140    2.2580   21.1270 C   0  0  0  0  0  0  0  0  0  0  0  0
    4.4100    1.5870   18.7640 C   0  0  0  0  0  0  0  0  0  0  0  0
    6.3700    0.4030   18.0590 N   0  0  0  0  0  0  0  0  0  0  0  0
   12.8570   -2.1390   22.3810 C   0  0  0  0  0  0  0  0  0  0  0  0
   10.9410    1.5570   23.9000 C   0  0  0  0  0  0  0  0  0  0  0  0
   12.8330    0.2590   22.8590 C   0  0  0  0  0  0  0  0  0  0  0  0
   10.0150   -5.4100   25.5280 C   0  0  0  0  0  0  0  0  0  0  0  0
    8.1050   -3.8580   26.6390 S   0  0  0  0  0  0  0  0  0  0  0  0
    5.1920    0.9900   17.8310 C   0  0  0  0  0  0  0  0  0  0  0  0
   12.2410    1.6170   23.3660 C   0  0  0  0  0  0  0  0  0  0  0  0
    9.2060   -6.2260   26.4460 C   0  0  0  0  0  0  0  0  0  0  0  0
    8.0840   -5.4560   27.1470 C   0  0  0  0  0  0  0  0  0  0  0  0
    6.9300   -5.9950   28.2870 Cl  0  0  0  0  0  0  0  0  0  0  0  0
  1  2  1  0
  1  3  2  0
  1  4  1  0
  4  5  1  0
  4  6  1  0
  5  7  1  0
  6  8  1  0
  6  9  1  1
  5 10  1  1
  7 11  1  0
  8 11  1  0
  9 12  1  0
 13 10  1  1
 11 14  1  0
 12 15  1  0
 12 16  1  0
 15 16  1  0
 13 17  1  0
 13 18  1  0
 14 19  1  1
 14 20  1  0
 17 21  1  0
 18 22  2  0
 18 23  1  0
 20 24  2  0
 20 25  1  0
 19 26  1  0
 21 27  1  1
 21 28  1  0
 22 28  1  0
 22 29  1  0
 23 30  2  0
 25 31  1  0
 24 32  1  0
 25 33  2  0
 26 34  2  0
 26 35  1  0
 29 36  2  0
 30 36  1  0
 32 37  2  0
 33 37  1  0
 34 38  1  0
 35 39  1  0
 38 39  2  0
 39 40  1  0
M  END
