x0397_0-x0770_1-x1385_1-x0426_1-x1374_1-x1386_1-x0831_0-x1334_0-x0692_1-x1334_1-x1412_1
     RDKit          3D

 43 48  0  0  0  0  0  0  0  0999 V2000
    2.1910   -7.7370   23.2110 O   0  0  0  0  0  0  0  0  0  0  0  0
    2.3670   -8.1210   24.5590 C   0  0  0  0  0  0  0  0  0  0  0  0
    3.7450   -8.0830   24.8580 O   0  0  0  0  0  0  0  0  0  0  0  0
    4.4690   -7.2850   23.9370 C   0  0  0  0  0  0  0  0  0  0  0  0
    4.8610   -6.0890   24.4910 C   0  0  0  0  0  0  0  0  0  0  0  0
    5.9480   -5.5860   23.6140 C   0  0  2  0  0  0  0  0  0  0  0  0
    5.6960   -4.6390   22.6640 C   0  0  2  0  0  0  0  0  0  0  0  0
    6.1220   -6.1370   22.2730 C   0  0  0  0  0  0  0  0  0  0  0  0
    6.5170   -3.4430   22.4600 C   0  0  2  0  0  0  0  0  0  0  0  0
    6.2560   -2.6290   21.2790 N   0  0  0  0  0  0  0  0  0  0  0  0
    7.9460   -3.6640   22.5680 C   0  0  0  0  0  0  0  0  0  0  0  0
    6.2260   -3.3080   20.0180 C   0  0  0  0  0  0  0  0  0  0  0  0
    8.7110   -2.4120   22.7540 N   0  0  0  0  0  0  0  0  0  0  0  0
    6.8870   -1.3530   21.7100 C   0  0  2  0  0  0  0  0  0  0  0  0
    7.2250   -2.9580   18.9070 C   0  0  0  0  0  0  0  0  0  0  0  0
    5.4040   -4.2110   19.8060 O   0  0  0  0  0  0  0  0  0  0  0  0
    6.1800    0.0440   21.5670 C   0  0  2  0  0  0  0  0  0  0  0  0
    9.9770   -2.4500   23.2710 C   0  0  2  0  0  0  0  0  0  0  0  0
    8.4080   -1.4070   21.7540 C   0  0  0  0  0  0  0  0  0  0  0  0
    4.9040    0.1930   22.4420 C   0  0  0  0  0  0  0  0  0  0  0  0
    9.7720   -2.6720   24.7240 C   0  0  0  0  0  0  0  0  0  0  0  0
    5.9000    0.5340   20.1540 C   0  0  0  0  0  0  0  0  0  0  0  0
   10.7800   -1.1230   23.2720 C   0  0  0  0  0  0  0  0  0  0  0  0
    4.3570    1.6290   22.4180 C   0  0  2  0  0  0  0  0  0  0  0  0
    4.7500    1.4600   19.9610 C   0  0  0  0  0  0  0  0  0  0  0  0
    6.7180    0.1500   18.9350 C   0  0  0  0  0  0  0  0  0  0  0  0
    9.9870    0.0640   23.8910 C   0  0  0  0  0  0  0  0  0  0  0  0
   12.0930   -0.9530   22.7880 C   0  0  0  0  0  0  0  0  0  0  0  0
    9.4170   -3.9370   25.4420 C   0  0  0  0  0  0  0  0  0  0  0  0
    3.3060    1.8550   23.3820 N   0  0  0  0  0  0  0  0  0  0  0  0
    3.8330    1.9460   21.0310 C   0  0  0  0  0  0  0  0  0  0  0  0
   12.9140   -2.0220   22.1650 C   0  0  0  0  0  0  0  0  0  0  0  0
    4.5690    1.8760   18.6710 C   0  0  0  0  0  0  0  0  0  0  0  0
    6.4730    0.6020   17.6960 N   0  0  0  0  0  0  0  0  0  0  0  0
   10.7470    1.3900   23.9370 C   0  0  0  0  0  0  0  0  0  0  0  0
   12.7500    0.2710   22.8500 C   0  0  0  0  0  0  0  0  0  0  0  0
    9.9820   -5.2340   25.3930 C   0  0  0  0  0  0  0  0  0  0  0  0
    8.1380   -3.8180   26.5410 S   0  0  0  0  0  0  0  0  0  0  0  0
    5.3380    1.5080   17.6160 C   0  0  0  0  0  0  0  0  0  0  0  0
   12.0370    1.5150   23.4600 C   0  0  0  0  0  0  0  0  0  0  0  0
    9.3270   -6.1870   26.3680 C   0  0  0  0  0  0  0  0  0  0  0  0
    8.2430   -5.4240   27.0780 C   0  0  0  0  0  0  0  0  0  0  0  0
    7.1700   -5.9640   28.2990 Cl  0  0  0  0  0  0  0  0  0  0  0  0
  1  2  1  0
  2  3  1  0
  3  4  1  0
  4  5  1  0
  6  5  1  6
  6  7  1  0
  6  8  1  0
  7  8  1  6
  7  9  1  0
  9 10  1  0
  9 11  1  6
 10 12  1  0
 11 13  1  0
 10 14  1  0
 12 15  1  0
 12 16  2  0
 14 17  1  0
 13 18  1  0
 13 19  1  0
 14 19  1  6
 17 20  1  1
 18 21  1  1
 17 22  1  0
 18 23  1  0
 20 24  1  0
 22 25  2  0
 22 26  1  0
 23 27  2  0
 23 28  1  0
 21 29  1  0
 24 30  1  1
 24 31  1  0
 25 31  1  0
 28 32  1  0
 25 33  1  0
 26 34  2  0
 27 35  1  0
 28 36  2  0
 29 37  2  0
 29 38  1  0
 33 39  2  0
 34 39  1  0
 35 40  2  0
 36 40  1  0
 37 41  1  0
 38 42  1  0
 41 42  2  0
 42 43  1  0
M  END
