x0397_0-x0770_1-x0426_1-x0831_0-x1334_0-x0692_1-x1334_1
     RDKit          3D

 38 43  0  0  0  0  0  0  0  0999 V2000
    6.0690   -3.3140   20.1000 C   0  0  0  0  0  0  0  0  0  0  0  0
    7.3300   -3.4970   19.3760 C   0  0  0  0  0  0  0  0  0  0  0  0
    5.0820   -3.8550   19.5770 O   0  0  0  0  0  0  0  0  0  0  0  0
    6.1850   -2.6300   21.2970 N   0  0  0  0  0  0  0  0  0  0  0  0
    6.9210   -1.3720   21.2960 C   0  0  1  0  0  0  0  0  0  0  0  0
    6.1540   -3.3330   22.5820 C   0  0  2  0  0  0  0  0  0  0  0  0
    5.8540   -0.2450   21.4040 C   0  0  1  0  0  0  0  0  0  0  0  0
    8.1180   -1.3120   21.9540 C   0  0  0  0  0  0  0  0  0  0  0  0
    7.5630   -3.2830   23.1820 C   0  0  0  0  0  0  0  0  0  0  0  0
    5.4570   -4.7070   22.4760 C   0  0  0  0  0  0  0  0  0  0  0  0
    5.6710    0.7670   22.6330 C   0  0  0  0  0  0  0  0  0  0  0  0
    8.1110   -1.9070   23.3230 N   0  0  0  0  0  0  0  0  0  0  0  0
    5.7580   -5.6880   23.5500 C   0  0  0  0  0  0  0  0  0  0  0  0
    6.1750   -6.1560   22.2030 C   0  0  0  0  0  0  0  0  0  0  0  0
    5.6330    0.4180   20.1150 C   0  0  0  0  0  0  0  0  0  0  0  0
    4.2330    1.3490   22.6130 C   0  0  1  0  0  0  0  0  0  0  0  0
    9.3560   -1.9830   23.9100 C   0  0  1  0  0  0  0  0  0  0  0  0
    4.5740    1.3090   20.0380 C   0  0  0  0  0  0  0  0  0  0  0  0
    6.4530    0.1630   19.0150 C   0  0  0  0  0  0  0  0  0  0  0  0
    4.1890    2.6020   23.3610 N   0  0  0  0  0  0  0  0  0  0  0  0
    3.6540    1.6080   21.2010 C   0  0  0  0  0  0  0  0  0  0  0  0
    9.9240   -3.4160   23.8570 C   0  0  0  0  0  0  0  0  0  0  0  0
    4.3460    2.0180   18.6780 C   0  0  0  0  0  0  0  0  0  0  0  0
    6.3550    0.7100   17.7890 N   0  0  0  0  0  0  0  0  0  0  0  0
   10.3990   -0.8440   23.6710 C   0  0  0  0  0  0  0  0  0  0  0  0
    5.3580    1.6120   17.5820 C   0  0  0  0  0  0  0  0  0  0  0  0
   10.0670    0.3960   24.2950 C   0  0  0  0  0  0  0  0  0  0  0  0
   11.6360   -0.9410   22.9040 C   0  0  0  0  0  0  0  0  0  0  0  0
    9.4430   -4.3140   24.9800 C   0  0  0  0  0  0  0  0  0  0  0  0
   12.0720   -2.1890   22.2050 C   0  0  0  0  0  0  0  0  0  0  0  0
   10.9260    1.4250   24.1400 C   0  0  0  0  0  0  0  0  0  0  0  0
   12.4890    0.1030   22.7710 C   0  0  0  0  0  0  0  0  0  0  0  0
    9.8930   -5.5320   25.2310 C   0  0  0  0  0  0  0  0  0  0  0  0
    8.1940   -3.8330   26.1300 S   0  0  0  0  0  0  0  0  0  0  0  0
   12.2280    1.3230   23.3460 C   0  0  0  0  0  0  0  0  0  0  0  0
    9.2150   -6.0800   26.3980 C   0  0  0  0  0  0  0  0  0  0  0  0
    8.2680   -5.2850   26.9970 C   0  0  0  0  0  0  0  0  0  0  0  0
    7.2940   -5.6180   28.3670 Cl  0  0  0  0  0  0  0  0  0  0  0  0
  1  2  1  0
  1  3  2  0
  1  4  1  0
  4  5  1  0
  4  6  1  0
  5  7  1  0
  5  8  1  1
  6  9  1  0
  6 10  1  6
  7 11  1  1
  8 12  1  0
  9 12  1  0
 10 13  1  0
 10 14  1  0
 13 14  1  0
  7 15  1  0
 11 16  1  0
 12 17  1  0
 15 18  2  0
 15 19  1  0
 16 20  1  1
 16 21  1  0
 18 21  1  0
 17 22  1  6
 18 23  1  0
 19 24  2  0
 17 25  1  0
 23 26  2  0
 24 26  1  0
 25 27  2  0
 25 28  1  0
 22 29  1  0
 28 30  1  0
 27 31  1  0
 28 32  2  0
 29 33  2  0
 29 34  1  0
 31 35  2  0
 32 35  1  0
 33 36  1  0
 34 37  1  0
 36 37  2  0
 37 38  1  0
M  END
