x0395_1-x1334_0
     RDKit          3D

 15 16  0  0  0  0  0  0  0  0999 V2000
    9.4390   -3.0270   23.9290 C   0  0  0  0  0  0  0  0  0  0  0  0
   10.0930   -1.9620   24.3830 C   0  0  0  0  0  0  0  0  0  0  0  0
   10.3240   -0.9120   23.3710 N   0  0  0  0  0  0  0  0  0  0  0  0
    9.1730   -4.0140   25.0290 C   0  0  0  0  0  0  0  0  0  0  0  0
    9.8590   -5.3250   25.3130 C   0  0  0  0  0  0  0  0  0  0  0  0
    7.9310   -3.7660   26.2260 S   0  0  0  0  0  0  0  0  0  0  0  0
    9.3320   -6.0530   26.4820 C   0  0  0  0  0  0  0  0  0  0  0  0
    8.2110   -5.3130   27.1430 C   0  0  0  0  0  0  0  0  0  0  0  0
   11.1880   -1.4460   22.2830 C   0  0  0  0  0  0  0  0  0  0  0  0
   10.7350    0.2550   23.9330 C   0  0  0  0  0  0  0  0  0  0  0  0
    7.2800   -5.7410   28.5100 Cl  0  0  0  0  0  0  0  0  0  0  0  0
   12.4990   -0.9790   22.2780 C   0  0  0  0  0  0  0  0  0  0  0  0
   11.7650    0.9970   23.3310 C   0  0  0  0  0  0  0  0  0  0  0  0
   13.4660   -1.7320   21.7410 F   0  0  0  0  0  0  0  0  0  0  0  0
   12.7930    0.2600   22.8090 C   0  0  0  0  0  0  0  0  0  0  0  0
  1  2  1  0
  2  3  1  0
  1  4  1  0
  4  5  2  0
  4  6  1  0
  5  7  1  0
  6  8  1  0
  7  8  2  0
  3  9  1  0
  3 10  1  0
  8 11  1  0
  9 12  1  0
 10 13  1  0
 12 14  1  0
 12 15  2  0
 13 15  1  0
M  END
