x0397_0-x1375_1-x0434_2-x1334_1-x0770_1-x1385_1-x0692_1-x0831_0-x1418_1-x0426_1-x1334_0-x1412_1
     RDKit          3D

 44 50  0  0  0  0  0  0  0  0999 V2000
    1.7650   -6.9350   24.1030 O   0  0  0  0  0  0  0  0  0  0  0  0
    3.0650   -7.1500   23.6250 C   0  0  0  0  0  0  0  0  0  0  0  0
    3.8860   -6.0570   23.9500 O   0  0  0  0  0  0  0  0  0  0  0  0
    5.2300   -6.4300   23.9560 C   0  0  0  0  0  0  0  0  0  0  0  0
    6.0930   -5.6260   23.0400 C   0  0  2  0  0  0  0  0  0  0  0  0
    5.7450   -4.5150   22.3840 C   0  0  2  0  0  0  0  0  0  0  0  0
    6.2250   -5.9360   21.6650 C   0  0  0  0  0  0  0  0  0  0  0  0
    6.5660   -3.2310   22.3480 C   0  0  2  0  0  0  0  0  0  0  0  0
    6.7150   -2.6210   20.9950 N   0  0  0  0  0  0  0  0  0  0  0  0
    7.7940   -3.4320   22.9760 C   0  0  0  0  0  0  0  0  0  0  0  0
    6.4170   -3.3590   19.8350 C   0  0  0  0  0  0  0  0  0  0  0  0
    8.5080   -2.1780   22.9130 N   0  0  0  0  0  0  0  0  0  0  0  0
    7.8500   -1.6520   20.7520 C   0  0  1  0  0  0  0  0  0  0  0  0
    7.3540   -3.0640   18.6680 C   0  0  0  0  0  0  0  0  0  0  0  0
    5.4950   -4.1840   19.7600 O   0  0  0  0  0  0  0  0  0  0  0  0
    9.5340   -1.9880   23.9030 C   0  0  1  0  0  0  0  0  0  0  0  0
    7.4600   -0.2970   20.9880 N   0  0  0  0  0  0  0  0  0  0  0  0
    8.9370   -1.9790   21.5280 C   0  0  0  0  0  0  0  0  0  0  0  0
   10.2360   -3.2760   24.1400 C   0  0  0  0  0  0  0  0  0  0  0  0
    6.9160    0.1250   22.3020 C   0  0  0  0  0  0  0  0  0  0  0  0
    6.6040    0.2660   20.0090 C   0  0  0  0  0  0  0  0  0  0  0  0
   10.5560   -0.8280   23.6560 C   0  0  0  0  0  0  0  0  0  0  0  0
    5.6410    0.9520   22.0930 C   0  0  1  0  0  0  0  0  0  0  0  0
    6.6320    0.2360   18.6250 N   0  0  0  0  0  0  0  0  0  0  0  0
    5.5860    0.9510   20.5840 C   0  0  0  0  0  0  0  0  0  0  0  0
   10.0960    0.4080   24.0670 C   0  0  0  0  0  0  0  0  0  0  0  0
   11.8520   -0.9870   23.0690 C   0  0  0  0  0  0  0  0  0  0  0  0
    9.6180   -4.2080   25.1670 C   0  0  0  0  0  0  0  0  0  0  0  0
    4.2390    0.5210   22.5740 C   0  0  0  0  0  0  0  0  0  0  0  0
   12.4290   -2.2750   22.5860 C   0  0  0  0  0  0  0  0  0  0  0  0
    4.4900    1.6610   19.9620 C   0  0  0  0  0  0  0  0  0  0  0  0
    5.6200    0.9180   17.9820 C   0  0  0  0  0  0  0  0  0  0  0  0
   10.9470    1.6700   23.9270 C   0  0  0  0  0  0  0  0  0  0  0  0
   12.7320    0.2860   22.9220 C   0  0  0  0  0  0  0  0  0  0  0  0
    9.9590   -5.4880   25.4580 C   0  0  0  0  0  0  0  0  0  0  0  0
    8.2920   -3.7320   26.1930 S   0  0  0  0  0  0  0  0  0  0  0  0
    3.2400    1.6340   22.2210 C   0  0  2  0  0  0  0  0  0  0  0  0
    3.4700    2.3210   20.8360 C   0  0  0  0  0  0  0  0  0  0  0  0
    4.5720    1.6130   18.5870 C   0  0  0  0  0  0  0  0  0  0  0  0
   12.2040    1.5900   23.3780 C   0  0  0  0  0  0  0  0  0  0  0  0
    9.2140   -6.0410   26.4580 C   0  0  0  0  0  0  0  0  0  0  0  0
    8.2630   -5.2290   26.9820 C   0  0  0  0  0  0  0  0  0  0  0  0
    3.2880    2.5540   23.3790 N   0  0  0  0  0  0  0  0  0  0  0  0
    7.1640   -5.5790   28.2450 Cl  0  0  0  0  0  0  0  0  0  0  0  0
  1  2  1  0
  2  3  1  0
  3  4  1  0
  5  4  1  6
  5  6  1  0
  5  7  1  0
  6  7  1  6
  6  8  1  0
  8  9  1  0
  8 10  1  6
  9 11  1  0
 10 12  1  0
  9 13  1  0
 11 14  1  0
 11 15  2  0
 12 16  1  0
 13 17  1  1
 12 18  1  0
 13 18  1  0
 16 19  1  6
 17 20  1  0
 17 21  1  0
 16 22  1  0
 23 20  1  6
 21 24  2  0
 21 25  1  0
 23 25  1  0
 22 26  2  0
 22 27  1  0
 19 28  1  0
 23 29  1  0
 27 30  1  0
 25 31  2  0
 24 32  1  0
 26 33  1  0
 27 34  2  0
 28 35  2  0
 28 36  1  0
 29 37  1  0
 31 38  1  0
 37 38  1  0
 31 39  1  0
 32 39  2  0
 33 40  2  0
 34 40  1  0
 35 41  1  0
 36 42  1  0
 41 42  2  0
 37 43  1  1
 42 44  1  0
M  END
