x0395_1-x1358_1
     RDKit          3D

 20 21  0  0  0  0  0  0  0  0999 V2000
    6.2030   -3.1280   25.2130 C   0  0  0  0  0  0  0  0  0  0  0  0
    6.3070   -3.3960   23.7280 C   0  0  2  0  0  0  0  0  0  0  0  0
    6.1190   -4.8830   23.3850 C   0  0  0  0  0  0  0  0  0  0  0  0
    5.1760   -3.3080   25.8630 O   0  0  0  0  0  0  0  0  0  0  0  0
    7.5390   -2.7250   23.0980 C   0  0  1  0  0  0  0  0  0  0  0  0
    8.8720   -3.1000   23.7180 C   0  0  0  0  0  0  0  0  0  0  0  0
    7.6970   -2.9330   21.7550 C   0  0  0  0  0  0  0  0  0  0  0  0
    6.6430   -5.1990   21.9960 C   0  0  0  0  0  0  0  0  0  0  0  0
    9.7770   -1.9210   24.1180 C   0  0  0  0  0  0  0  0  0  0  0  0
    6.7190   -3.9200   21.2600 N   0  0  0  0  0  0  0  0  0  0  0  0
    6.2900   -3.7590   19.9840 C   0  0  0  0  0  0  0  0  0  0  0  0
   10.2400   -1.0120   23.2740 N   0  0  0  0  0  0  0  0  0  0  0  0
    5.1740   -4.1200   19.6430 O   0  0  0  0  0  0  0  0  0  0  0  0
    7.2990   -3.1410   19.0170 C   0  0  0  0  0  0  0  0  0  0  0  0
   11.2100   -1.6400   22.3320 C   0  0  0  0  0  0  0  0  0  0  0  0
   10.7850    0.1000   24.0920 C   0  0  0  0  0  0  0  0  0  0  0  0
   12.4710   -1.0190   22.2660 C   0  0  0  0  0  0  0  0  0  0  0  0
   11.6570    0.9100   23.3850 C   0  0  0  0  0  0  0  0  0  0  0  0
   13.4750   -1.6570   21.6760 F   0  0  0  0  0  0  0  0  0  0  0  0
   12.6960    0.2400   22.7860 C   0  0  0  0  0  0  0  0  0  0  0  0
  2  1  1  1
  2  3  1  0
  1  4  2  0
  2  5  1  0
  5  6  1  1
  5  7  1  0
  3  8  1  0
  6  9  1  0
  7 10  1  0
  8 10  1  0
 10 11  1  0
  9 12  1  0
 11 13  2  0
 11 14  1  0
 12 15  1  0
 12 16  1  0
 15 17  1  0
 16 18  1  0
 17 19  1  0
 17 20  2  0
 18 20  1  0
M  END
