x0397_0-x1374_1-x0434_2-x1418_1-x0770_1-x0692_1-x1334_0-x0831_0-x1385_1-x1386_1-x0831_1-x1334_1-x1412_1
     RDKit          3D

 39 43  0  0  0  0  0  0  0  0999 V2000
    6.2560   -3.2180   19.7490 C   0  0  0  0  0  0  0  0  0  0  0  0
    7.2930   -2.9380   18.6780 C   0  0  0  0  0  0  0  0  0  0  0  0
    5.2200   -3.8110   19.4590 O   0  0  0  0  0  0  0  0  0  0  0  0
    6.5160   -2.9090   21.0630 N   0  0  0  0  0  0  0  0  0  0  0  0
    6.8180   -3.9150   21.9520 C   0  0  1  0  0  0  0  0  0  0  0  0
    7.3000   -1.6690   21.3870 C   0  0  1  0  0  0  0  0  0  0  0  0
    7.4340   -3.4090   23.2110 C   0  0  0  0  0  0  0  0  0  0  0  0
    8.7390   -2.0120   21.9050 C   0  0  0  0  0  0  0  0  0  0  0  0
    5.5150   -4.6480   22.2520 C   0  0  2  0  0  0  0  0  0  0  0  0
    7.6600   -0.5810   20.3550 C   0  0  0  0  0  0  0  0  0  0  0  0
    8.7610   -3.1250   22.8240 N   0  0  0  0  0  0  0  0  0  0  0  0
    6.2350   -6.0200   22.6120 C   0  0  2  0  0  0  0  0  0  0  0  0
    5.3230   -6.1260   21.7830 C   0  0  0  0  0  0  0  0  0  0  0  0
    6.9930   -0.3340   19.1650 C   0  0  0  0  0  0  0  0  0  0  0  0
    9.6850   -3.0500   23.9100 C   0  0  1  0  0  0  0  0  0  0  0  0
    6.4490    0.3730   20.2200 C   0  0  0  0  0  0  0  0  0  0  0  0
    6.1560    0.0970   18.1240 N   0  0  0  0  0  0  0  0  0  0  0  0
    6.1010   -6.8170   23.8890 C   0  0  0  0  0  0  0  0  0  0  0  0
    9.6750   -1.5890   24.4160 C   0  0  0  0  0  0  0  0  0  0  0  0
    9.3000   -3.9680   25.0560 C   0  0  0  0  0  0  0  0  0  0  0  0
    5.1080    0.9410   18.0300 C   0  0  0  0  0  0  0  0  0  0  0  0
    5.3850    1.2590   20.2870 C   0  0  0  0  0  0  0  0  0  0  0  0
    4.8830   -6.6120   24.5450 C   0  0  0  0  0  0  0  0  0  0  0  0
    9.9100   -5.2820   25.3380 C   0  0  0  0  0  0  0  0  0  0  0  0
    8.0770   -3.6300   26.2470 S   0  0  0  0  0  0  0  0  0  0  0  0
   10.7340   -0.6130   23.8580 C   0  0  0  0  0  0  0  0  0  0  0  0
    4.6330    1.5760   19.0420 C   0  0  0  0  0  0  0  0  0  0  0  0
    4.2520   -7.8410   24.8800 O   0  0  0  0  0  0  0  0  0  0  0  0
    9.4580   -5.9280   26.4040 C   0  0  0  0  0  0  0  0  0  0  0  0
    8.3460   -5.0990   27.0960 C   0  0  0  0  0  0  0  0  0  0  0  0
   10.4770    0.6820   24.3060 C   0  0  0  0  0  0  0  0  0  0  0  0
   11.8650   -0.8170   23.0160 C   0  0  0  0  0  0  0  0  0  0  0  0
    2.8660   -7.8330   24.6020 C   0  0  0  0  0  0  0  0  0  0  0  0
    7.4230   -5.4340   28.4970 Cl  0  0  0  0  0  0  0  0  0  0  0  0
   12.3490   -2.0990   22.3880 C   0  0  0  0  0  0  0  0  0  0  0  0
   11.2850    1.7520   23.9630 C   0  0  0  0  0  0  0  0  0  0  0  0
   12.6730    0.2610   22.6950 C   0  0  0  0  0  0  0  0  0  0  0  0
    2.6340   -7.4940   23.2540 O   0  0  0  0  0  0  0  0  0  0  0  0
   12.3850    1.5250   23.1610 C   0  0  0  0  0  0  0  0  0  0  0  0
  1  2  1  0
  1  3  2  0
  1  4  1  0
  4  5  1  0
  4  6  1  0
  5  7  1  1
  6  8  1  0
  5  9  1  0
  6 10  1  6
  7 11  1  0
  8 11  1  0
  9 12  1  0
  9 13  1  6
 12 13  1  0
 10 14  1  0
 11 15  1  0
 14 16  2  0
 14 17  1  0
 12 18  1  1
 15 19  1  1
 15 20  1  0
 17 21  2  0
 16 22  1  0
 18 23  1  0
 20 24  2  0
 20 25  1  0
 19 26  1  0
 21 27  1  0
 22 27  2  0
 23 28  1  0
 24 29  1  0
 25 30  1  0
 29 30  2  0
 26 31  2  0
 26 32  1  0
 28 33  1  0
 30 34  1  0
 32 35  1  0
 31 36  1  0
 32 37  2  0
 33 38  1  0
 36 39  2  0
 37 39  1  0
M  END
