x0397_0-x1374_1-x0692_1-x1412_1-x1386_1-x0434_2-x0426_1-x1334_0-x0831_0-x1334_1
     RDKit          3D

 44 49  0  0  0  0  0  0  0  0999 V2000
    2.0240   -7.1890   23.6450 O   0  0  0  0  0  0  0  0  0  0  0  0
    2.4900   -7.5220   24.9430 C   0  0  0  0  0  0  0  0  0  0  0  0
    3.8660   -7.8520   24.8310 O   0  0  0  0  0  0  0  0  0  0  0  0
    4.4310   -7.1720   23.7240 C   0  0  0  0  0  0  0  0  0  0  0  0
    4.6910   -5.9080   24.1240 C   0  0  0  0  0  0  0  0  0  0  0  0
    5.7980   -5.3410   23.2950 C   0  0  2  0  0  0  0  0  0  0  0  0
    5.5220   -4.3600   22.4470 C   0  0  2  0  0  0  0  0  0  0  0  0
    6.0000   -5.8600   21.9570 C   0  0  0  0  0  0  0  0  0  0  0  0
    6.4540   -3.1930   22.3710 C   0  0  2  0  0  0  0  0  0  0  0  0
    6.5240   -2.5370   21.0730 N   0  0  0  0  0  0  0  0  0  0  0  0
    7.7490   -3.6090   22.6160 C   0  0  0  0  0  0  0  0  0  0  0  0
    6.3100   -3.3160   19.9100 C   0  0  0  0  0  0  0  0  0  0  0  0
    8.5900   -2.5880   23.1740 N   0  0  0  0  0  0  0  0  0  0  0  0
    7.7320   -1.6380   21.0230 C   0  0  1  0  0  0  0  0  0  0  0  0
    5.4480   -4.2000   19.7840 O   0  0  0  0  0  0  0  0  0  0  0  0
    7.2510   -3.0110   18.7530 C   0  0  0  0  0  0  0  0  0  0  0  0
    9.7320   -3.1030   23.9260 C   0  0  1  0  0  0  0  0  0  0  0  0
    7.4430   -0.3880   21.8930 C   0  0  0  0  0  0  0  0  0  0  0  0
    8.7410   -1.5140   22.1920 C   0  0  0  0  0  0  0  0  0  0  0  0
    5.9690    0.0250   21.8040 C   0  0  1  0  0  0  0  0  0  0  0  0
   10.3580   -2.0230   24.7770 C   0  0  0  0  0  0  0  0  0  0  0  0
    9.3660   -4.0720   24.9550 C   0  0  0  0  0  0  0  0  0  0  0  0
    5.5100    1.0990   22.7730 C   0  0  0  0  0  0  0  0  0  0  0  0
    5.7120    0.5120   20.3720 C   0  0  0  0  0  0  0  0  0  0  0  0
    9.8540   -5.3180   25.2430 C   0  0  0  0  0  0  0  0  0  0  0  0
    8.0930   -3.7540   26.1690 S   0  0  0  0  0  0  0  0  0  0  0  0
   11.0620   -0.8510   24.1650 C   0  0  0  0  0  0  0  0  0  0  0  0
    4.0270    1.4890   22.5770 C   0  0  1  0  0  0  0  0  0  0  0  0
    4.6080    1.3100   20.0590 C   0  0  0  0  0  0  0  0  0  0  0  0
    6.6760    0.1480   19.2060 C   0  0  0  0  0  0  0  0  0  0  0  0
    9.2990   -5.9710   26.3140 C   0  0  0  0  0  0  0  0  0  0  0  0
    8.3100   -5.2570   26.9500 C   0  0  0  0  0  0  0  0  0  0  0  0
   10.5360    0.3950   24.4650 C   0  0  0  0  0  0  0  0  0  0  0  0
   12.2080   -0.8940   23.3290 C   0  0  0  0  0  0  0  0  0  0  0  0
    3.6660    2.5960   23.4400 N   0  0  0  0  0  0  0  0  0  0  0  0
    3.6080    1.7120   21.1130 C   0  0  0  0  0  0  0  0  0  0  0  0
    7.3770   -5.7020   28.3120 Cl  0  0  0  0  0  0  0  0  0  0  0  0
   12.8900   -2.1650   22.8990 C   0  0  0  0  0  0  0  0  0  0  0  0
    4.5360    1.6790   18.7310 C   0  0  0  0  0  0  0  0  0  0  0  0
    6.5240    0.5480   17.9400 N   0  0  0  0  0  0  0  0  0  0  0  0
   11.1030    1.5550   23.9870 C   0  0  0  0  0  0  0  0  0  0  0  0
   12.7400    0.3050   22.8820 C   0  0  0  0  0  0  0  0  0  0  0  0
    5.4400    1.3100   17.7790 C   0  0  0  0  0  0  0  0  0  0  0  0
   12.1870    1.5530   23.2110 C   0  0  0  0  0  0  0  0  0  0  0  0
  1  2  1  0
  2  3  1  0
  3  4  1  0
  4  5  1  0
  6  5  1  6
  6  7  1  0
  6  8  1  0
  7  8  1  6
  7  9  1  0
  9 10  1  0
  9 11  1  6
 10 12  1  0
 11 13  1  0
 10 14  1  0
 12 15  2  0
 12 16  1  0
 13 17  1  0
 14 18  1  1
 13 19  1  0
 14 19  1  0
 20 18  1  6
 17 21  1  1
 17 22  1  0
 20 23  1  0
 20 24  1  0
 22 25  2  0
 22 26  1  0
 21 27  1  0
 23 28  1  0
 24 29  2  0
 24 30  1  0
 25 31  1  0
 26 32  1  0
 31 32  2  0
 27 33  2  0
 27 34  1  0
 28 35  1  1
 28 36  1  0
 29 36  1  0
 32 37  1  0
 34 38  1  0
 29 39  1  0
 30 40  2  0
 33 41  1  0
 34 42  2  0
 39 43  2  0
 40 43  1  0
 41 44  2  0
 42 44  1  0
M  END
