x0395_1-x0874_0-x0770_1-x0981_1
     RDKit          3D

 29 30  0  0  0  0  0  0  0  0999 V2000
    4.1210   -5.2630   23.2410 C   0  0  0  0  0  0  0  0  0  0  0  0
    2.7990   -5.9740   23.5550 C   0  0  1  0  0  0  0  0  0  0  0  0
    2.6450   -7.1920   22.7460 N   0  0  0  0  0  0  0  0  0  0  0  0
    4.2350   -4.0440   23.6910 N   0  0  0  0  0  0  0  0  0  0  0  0
    2.6390   -6.3160   25.0440 C   0  0  0  0  0  0  0  0  0  0  0  0
    5.4210   -3.1720   23.5040 C   0  0  0  0  0  0  0  0  0  0  0  0
    1.3260   -7.4870   22.0830 C   0  0  0  0  0  0  0  0  0  0  0  0
    3.0810   -7.7350   25.2900 C   0  0  0  0  0  0  0  0  0  0  0  0
    6.4080   -3.6010   22.4040 C   0  0  1  0  0  0  0  0  0  0  0  0
    1.2440   -8.7730   21.2970 C   0  0  0  0  0  0  0  0  0  0  0  0
    0.3760   -6.7110   22.1530 O   0  0  0  0  0  0  0  0  0  0  0  0
    2.4480   -8.4080   26.2920 N   0  0  0  0  0  0  0  0  0  0  0  0
    3.9620   -8.2070   24.6060 O   0  0  0  0  0  0  0  0  0  0  0  0
    6.2880   -2.7620   21.1690 N   0  0  0  0  0  0  0  0  0  0  0  0
    7.7530   -3.5650   22.9260 C   0  0  0  0  0  0  0  0  0  0  0  0
    6.1750   -3.4120   19.9480 C   0  0  0  0  0  0  0  0  0  0  0  0
    8.2300   -2.2000   23.1750 N   0  0  0  0  0  0  0  0  0  0  0  0
    6.8830   -1.4130   21.2500 C   0  0  0  0  0  0  0  0  0  0  0  0
    7.1890   -3.0230   18.8700 C   0  0  0  0  0  0  0  0  0  0  0  0
    5.3150   -4.2670   19.7760 O   0  0  0  0  0  0  0  0  0  0  0  0
    9.5160   -2.0390   23.8320 C   0  0  0  0  0  0  0  0  0  0  0  0
    8.2640   -1.4460   21.9240 C   0  0  0  0  0  0  0  0  0  0  0  0
   10.4770   -1.0980   23.2860 N   0  0  0  0  0  0  0  0  0  0  0  0
   10.7010    0.1390   23.8320 C   0  0  0  0  0  0  0  0  0  0  0  0
   11.3360   -1.6080   22.3380 C   0  0  0  0  0  0  0  0  0  0  0  0
   12.7950   -1.0580   22.6340 C   0  0  1  0  0  0  0  0  0  0  0  0
   11.8720    0.8540   23.6310 C   0  0  0  0  0  0  0  0  0  0  0  0
   13.4960   -1.3310   21.5320 F   0  0  0  0  0  0  0  0  0  0  0  0
   12.8870    0.3160   22.8400 C   0  0  0  0  0  0  0  0  0  0  0  0
  2  1  1  1
  2  3  1  0
  1  4  2  3
  2  5  1  0
  4  6  1  0
  3  7  1  0
  5  8  1  0
  9  6  1  1
  7 10  1  0
  7 11  2  0
  8 12  1  0
  8 13  2  0
  9 14  1  0
  9 15  1  0
 14 16  1  0
 15 17  1  0
 14 18  1  0
 16 19  1  0
 16 20  2  0
 17 21  1  0
 17 22  1  0
 18 22  1  0
 21 23  1  0
 23 24  1  0
 23 25  1  0
 25 26  1  0
 24 27  2  0
 26 28  1  6
 26 29  1  0
 27 29  1  0
M  END
