x0397_0-x1334_1-x0692_1-x0434_2-x1385_1-x0770_1-x0831_1-x0831_0-x1412_1-x1374_1-x1334_0-x1418_1
     RDKit          3D

 39 43  0  0  0  0  0  0  0  0999 V2000
    1.9970   -7.2070   23.5370 O   0  0  0  0  0  0  0  0  0  0  0  0
    2.3620   -7.6130   24.8460 C   0  0  0  0  0  0  0  0  0  0  0  0
    3.7440   -7.9270   24.8690 O   0  0  0  0  0  0  0  0  0  0  0  0
    4.4210   -7.2010   23.8670 C   0  0  0  0  0  0  0  0  0  0  0  0
    4.7920   -6.0400   24.3540 C   0  0  0  0  0  0  0  0  0  0  0  0
    5.9460   -5.6410   23.4930 C   0  0  2  0  0  0  0  0  0  0  0  0
    5.8230   -4.5570   22.5850 C   0  0  2  0  0  0  0  0  0  0  0  0
    6.1520   -6.1450   22.1450 C   0  0  0  0  0  0  0  0  0  0  0  0
    7.1060   -3.7880   22.2210 C   0  0  1  0  0  0  0  0  0  0  0  0
    6.7750   -2.7850   21.1920 N   0  0  0  0  0  0  0  0  0  0  0  0
    7.5830   -3.2960   23.4670 C   0  0  0  0  0  0  0  0  0  0  0  0
    6.4440   -3.2320   19.8910 C   0  0  0  0  0  0  0  0  0  0  0  0
    8.5180   -2.1410   23.4260 N   0  0  0  0  0  0  0  0  0  0  0  0
    7.4160   -1.4940   21.5060 C   0  0  2  0  0  0  0  0  0  0  0  0
    7.3580   -2.9470   18.7230 C   0  0  0  0  0  0  0  0  0  0  0  0
    5.4460   -3.9490   19.6700 O   0  0  0  0  0  0  0  0  0  0  0  0
    9.5960   -2.0290   24.2610 C   0  0  1  0  0  0  0  0  0  0  0  0
    7.6700   -0.7150   20.3450 N   0  0  0  0  0  0  0  0  0  0  0  0
    8.7940   -1.7230   22.0960 C   0  0  0  0  0  0  0  0  0  0  0  0
   10.2860   -3.3080   24.3770 C   0  0  0  0  0  0  0  0  0  0  0  0
   10.5740   -0.8870   23.8920 C   0  0  0  0  0  0  0  0  0  0  0  0
    6.7360    0.0420   19.6970 C   0  0  0  0  0  0  0  0  0  0  0  0
   10.2640    0.3980   24.2960 C   0  0  0  0  0  0  0  0  0  0  0  0
   11.9430   -0.9600   23.0910 C   0  0  0  0  0  0  0  0  0  0  0  0
    9.5780   -4.1630   25.3790 C   0  0  0  0  0  0  0  0  0  0  0  0
    7.0210    0.1920   18.4300 C   0  0  0  0  0  0  0  0  0  0  0  0
    5.5920    0.6170   20.2760 C   0  0  0  0  0  0  0  0  0  0  0  0
   12.4980   -2.2380   22.5390 C   0  0  0  0  0  0  0  0  0  0  0  0
   11.0200    1.5450   24.0590 C   0  0  0  0  0  0  0  0  0  0  0  0
   12.7110    0.1660   22.8520 C   0  0  0  0  0  0  0  0  0  0  0  0
    9.9990   -5.4590   25.5570 C   0  0  0  0  0  0  0  0  0  0  0  0
    8.2350   -3.8140   26.4380 S   0  0  0  0  0  0  0  0  0  0  0  0
    6.2020    0.9620   17.5200 N   0  0  0  0  0  0  0  0  0  0  0  0
    4.6970    1.3880   19.5450 C   0  0  0  0  0  0  0  0  0  0  0  0
   12.2120    1.5190   23.3730 C   0  0  0  0  0  0  0  0  0  0  0  0
    9.2760   -6.0800   26.4980 C   0  0  0  0  0  0  0  0  0  0  0  0
    8.2900   -5.3760   27.0940 C   0  0  0  0  0  0  0  0  0  0  0  0
    4.9960    1.5990   18.0680 C   0  0  0  0  0  0  0  0  0  0  0  0
    7.2090   -5.8700   28.3230 Cl  0  0  0  0  0  0  0  0  0  0  0  0
  1  2  1  0
  2  3  1  0
  3  4  1  0
  4  5  1  0
  6  5  1  6
  6  7  1  0
  6  8  1  0
  7  8  1  6
  7  9  1  0
  9 10  1  0
  9 11  1  1
 10 12  1  0
 11 13  1  0
 10 14  1  0
 12 15  1  0
 12 16  2  0
 13 17  1  0
 14 18  1  6
 13 19  1  0
 14 19  1  0
 17 20  1  6
 17 21  1  0
 18 22  1  0
 21 23  2  0
 21 24  1  0
 20 25  1  0
 22 26  2  0
 22 27  1  0
 24 28  1  0
 23 29  1  0
 24 30  2  0
 25 31  2  0
 25 32  1  0
 26 33  1  0
 27 34  2  0
 29 35  2  0
 30 35  1  0
 31 36  1  0
 32 37  1  0
 36 37  2  0
 33 38  2  0
 34 38  1  0
 37 39  1  0
M  END
