x0397_0-x0387_0-x0736_1-x0770_1-x0734_1-x1385_1-x1336_0-x1412_0-x0434_2-x1412_1-x1334_1
     RDKit          3D

 32 36  0  0  0  0  0  0  0  0999 V2000
    6.3540   -3.3670   20.0500 C   0  0  0  0  0  0  0  0  0  0  0  0
    7.3520   -3.0050   18.9380 C   0  0  0  0  0  0  0  0  0  0  0  0
    5.4330   -4.1530   19.7750 O   0  0  0  0  0  0  0  0  0  0  0  0
    6.4870   -2.8440   21.3620 N   0  0  0  0  0  0  0  0  0  0  0  0
    7.3350   -1.6880   21.6750 C   0  0  2  0  0  0  0  0  0  0  0  0
    6.2670   -3.5980   22.5810 C   0  0  2  0  0  0  0  0  0  0  0  0
    7.6170   -1.0100   20.4340 N   0  0  0  0  0  0  0  0  0  0  0  0
    8.6900   -2.1200   22.2650 C   0  0  0  0  0  0  0  0  0  0  0  0
    7.6270   -4.0500   23.1800 C   0  0  0  0  0  0  0  0  0  0  0  0
    5.4750   -4.8520   22.3430 C   0  0  0  0  0  0  0  0  0  0  0  0
    8.5930   -2.9520   23.3440 N   0  0  0  0  0  0  0  0  0  0  0  0
    5.9180   -6.1220   23.0180 C   0  0  0  0  0  0  0  0  0  0  0  0
    6.0160   -6.0490   21.6190 C   0  0  0  0  0  0  0  0  0  0  0  0
    6.6650   -0.2010   19.8170 C   0  0  0  0  0  0  0  0  0  0  0  0
    8.7830   -2.4380   24.6990 C   0  0  2  0  0  0  0  0  0  0  0  0
    6.9630    0.1570   18.5400 C   0  0  0  0  0  0  0  0  0  0  0  0
    5.4780    0.2410   20.4070 C   0  0  0  0  0  0  0  0  0  0  0  0
    7.8000   -1.7680   24.9980 O   0  0  0  0  0  0  0  0  0  0  0  0
   10.0040   -1.4910   25.0070 C   0  0  0  0  0  0  0  0  0  0  0  0
    8.7320   -3.6050   25.6880 C   0  0  0  0  0  0  0  0  0  0  0  0
    6.2540    0.9270   17.6890 N   0  0  0  0  0  0  0  0  0  0  0  0
    4.5970    1.1070   19.5570 C   0  0  0  0  0  0  0  0  0  0  0  0
    9.5760   -4.6890   25.4700 C   0  0  0  0  0  0  0  0  0  0  0  0
    7.8190   -3.9470   27.1140 S   0  0  0  0  0  0  0  0  0  0  0  0
   11.1500   -1.2210   24.0050 C   0  0  0  0  0  0  0  0  0  0  0  0
    5.0890    1.4210   18.1280 C   0  0  0  0  0  0  0  0  0  0  0  0
    9.5040   -5.7260   26.3780 C   0  0  0  0  0  0  0  0  0  0  0  0
    8.5790   -5.4690   27.3560 C   0  0  0  0  0  0  0  0  0  0  0  0
   12.0950   -0.0150   23.9000 C   0  0  0  0  0  0  0  0  0  0  0  0
   11.5610   -2.2040   22.8820 C   0  0  0  0  0  0  0  0  0  0  0  0
   13.1380   -0.0880   22.7900 C   0  0  0  0  0  0  0  0  0  0  0  0
   12.9370   -1.5770   21.9360 S   0  0  0  0  0  0  0  0  0  0  0  0
  1  2  1  0
  1  3  2  0
  1  4  1  0
  4  5  1  0
  4  6  1  0
  5  7  1  6
  5  8  1  0
  6  9  1  0
  6 10  1  6
  8 11  1  0
  9 11  1  0
 10 12  1  0
 10 13  1  0
 12 13  1  0
  7 14  1  0
 11 15  1  0
 14 16  2  0
 14 17  1  0
 15 18  1  1
 15 19  1  0
 15 20  1  0
 16 21  1  0
 17 22  2  0
 20 23  2  0
 20 24  1  0
 19 25  1  0
 21 26  2  0
 22 26  1  0
 23 27  1  0
 24 28  1  0
 27 28  2  0
 25 29  1  0
 25 30  2  0
 29 31  2  0
 30 32  1  0
 31 32  1  0
M  END
