x0397_0-x0770_1-x1375_1-x1385_1-x0434_2-x1386_1-x0831_1-x0831_0-x1334_0-x1334_1
     RDKit          3D

 38 42  0  0  0  0  0  0  0  0999 V2000
    2.3230   -7.1850   24.2300 O   0  0  0  0  0  0  0  0  0  0  0  0
    3.3770   -7.5150   25.1070 C   0  0  0  0  0  0  0  0  0  0  0  0
    4.5920   -7.2950   24.4200 O   0  0  0  0  0  0  0  0  0  0  0  0
    4.9370   -5.9160   24.4230 C   0  0  0  0  0  0  0  0  0  0  0  0
    6.0330   -5.6400   23.3560 C   0  0  2  0  0  0  0  0  0  0  0  0
    5.8550   -4.5980   22.4010 C   0  0  2  0  0  0  0  0  0  0  0  0
    5.9020   -6.1010   21.8700 C   0  0  0  0  0  0  0  0  0  0  0  0
    6.9870   -3.6330   22.1560 C   0  0  1  0  0  0  0  0  0  0  0  0
    6.6940   -2.6830   21.0770 N   0  0  0  0  0  0  0  0  0  0  0  0
    7.4150   -2.9040   23.4510 C   0  0  0  0  0  0  0  0  0  0  0  0
    6.3910   -3.3140   19.8760 C   0  0  0  0  0  0  0  0  0  0  0  0
    8.4400   -1.8670   23.2750 N   0  0  0  0  0  0  0  0  0  0  0  0
    7.7570   -1.6730   20.8910 C   0  0  2  0  0  0  0  0  0  0  0  0
    7.3260   -3.0400   18.7000 C   0  0  0  0  0  0  0  0  0  0  0  0
    5.4400   -4.1050   19.7230 O   0  0  0  0  0  0  0  0  0  0  0  0
    9.5670   -1.9290   24.1860 C   0  0  1  0  0  0  0  0  0  0  0  0
    8.9060   -1.7390   21.8840 C   0  0  0  0  0  0  0  0  0  0  0  0
    7.3020   -0.2250   20.7920 C   0  0  0  0  0  0  0  0  0  0  0  0
   10.1930   -3.2690   24.1670 C   0  0  0  0  0  0  0  0  0  0  0  0
   10.5870   -0.8180   23.8540 C   0  0  0  0  0  0  0  0  0  0  0  0
    7.0350    0.1750   19.3660 C   0  0  0  0  0  0  0  0  0  0  0  0
   10.2040    0.4220   24.2840 C   0  0  0  0  0  0  0  0  0  0  0  0
   11.9690   -0.9200   23.0950 C   0  0  0  0  0  0  0  0  0  0  0  0
    9.5990   -4.1820   25.2040 C   0  0  0  0  0  0  0  0  0  0  0  0
    5.9890    0.4370   20.2980 C   0  0  0  0  0  0  0  0  0  0  0  0
    6.4940    0.6490   18.1840 N   0  0  0  0  0  0  0  0  0  0  0  0
   12.4610   -2.2370   22.5820 C   0  0  0  0  0  0  0  0  0  0  0  0
   11.0450    1.6750   24.0540 C   0  0  0  0  0  0  0  0  0  0  0  0
   12.7510    0.1630   22.8760 C   0  0  0  0  0  0  0  0  0  0  0  0
    9.9400   -5.4580   25.4620 C   0  0  0  0  0  0  0  0  0  0  0  0
    8.3320   -3.7460   26.2920 S   0  0  0  0  0  0  0  0  0  0  0  0
    5.3260    1.2270   17.8990 C   0  0  0  0  0  0  0  0  0  0  0  0
    4.6530    1.0700   20.0530 C   0  0  0  0  0  0  0  0  0  0  0  0
   12.3560    1.5190   23.3270 C   0  0  0  0  0  0  0  0  0  0  0  0
    9.2920   -6.1140   26.4560 C   0  0  0  0  0  0  0  0  0  0  0  0
    8.3520   -5.2680   27.0220 C   0  0  0  0  0  0  0  0  0  0  0  0
    4.2320    1.5090   18.8470 C   0  0  0  0  0  0  0  0  0  0  0  0
    7.2850   -5.6280   28.3130 Cl  0  0  0  0  0  0  0  0  0  0  0  0
  1  2  1  0
  2  3  1  0
  3  4  1  0
  5  4  1  1
  5  6  1  0
  5  7  1  0
  6  7  1  6
  6  8  1  0
  8  9  1  0
  8 10  1  1
  9 11  1  0
 10 12  1  0
  9 13  1  0
 11 14  1  0
 11 15  2  0
 12 16  1  0
 12 17  1  0
 13 17  1  0
 13 18  1  1
 16 19  1  6
 16 20  1  0
 18 21  1  0
 20 22  2  0
 20 23  1  0
 19 24  1  0
 21 25  2  0
 21 26  1  0
 23 27  1  0
 22 28  1  0
 23 29  2  0
 24 30  2  0
 24 31  1  0
 26 32  2  0
 25 33  1  0
 28 34  2  0
 29 34  1  0
 30 35  1  0
 31 36  1  0
 35 36  2  0
 32 37  1  0
 33 37  2  0
 36 38  1  0
M  END
