x0397_0-x0692_1-x0434_2-x0770_1-x1334_1-x0831_0-x1334_0-x1418_1
     RDKit          3D

 34 38  0  0  0  0  0  0  0  0999 V2000
    6.3370   -3.2160   19.8790 C   0  0  0  0  0  0  0  0  0  0  0  0
    7.2830   -2.9650   18.7270 C   0  0  0  0  0  0  0  0  0  0  0  0
    5.4240   -4.0530   19.7160 O   0  0  0  0  0  0  0  0  0  0  0  0
    6.5400   -2.5310   21.0850 N   0  0  0  0  0  0  0  0  0  0  0  0
    7.6650   -1.5610   21.1640 C   0  0  2  0  0  0  0  0  0  0  0  0
    6.3820   -3.2170   22.3810 C   0  0  2  0  0  0  0  0  0  0  0  0
    7.9480   -1.2280   22.6110 C   0  0  0  0  0  0  0  0  0  0  0  0
    7.7200   -3.5440   23.0820 C   0  0  0  0  0  0  0  0  0  0  0  0
    5.5370   -4.4690   22.2850 C   0  0  0  0  0  0  0  0  0  0  0  0
    7.4850   -0.1590   20.5810 C   0  0  0  0  0  0  0  0  0  0  0  0
    8.4400   -2.3230   23.3900 N   0  0  0  0  0  0  0  0  0  0  0  0
    5.8780   -5.6650   23.0330 C   0  0  0  0  0  0  0  0  0  0  0  0
    6.0920   -5.8860   21.6190 C   0  0  0  0  0  0  0  0  0  0  0  0
    7.0830    0.0610   19.1650 C   0  0  0  0  0  0  0  0  0  0  0  0
    9.8970   -2.3390   23.4030 C   0  0  2  0  0  0  0  0  0  0  0  0
    6.0700    0.5620   20.2930 C   0  0  0  0  0  0  0  0  0  0  0  0
    6.2950    0.4950   17.9890 N   0  0  0  0  0  0  0  0  0  0  0  0
   10.5300   -3.2410   24.3930 C   0  0  0  0  0  0  0  0  0  0  0  0
   10.6250   -0.9830   23.4190 C   0  0  0  0  0  0  0  0  0  0  0  0
    5.1260    1.1190   17.8680 C   0  0  0  0  0  0  0  0  0  0  0  0
    4.7700    1.2420   20.1100 C   0  0  0  0  0  0  0  0  0  0  0  0
   10.0580    0.1510   23.9060 C   0  0  0  0  0  0  0  0  0  0  0  0
   12.0760   -0.9200   22.8510 C   0  0  0  0  0  0  0  0  0  0  0  0
    9.6790   -4.1060   25.3330 C   0  0  0  0  0  0  0  0  0  0  0  0
    4.3340    1.5070   18.8490 C   0  0  0  0  0  0  0  0  0  0  0  0
   12.8220   -2.0710   22.2700 C   0  0  0  0  0  0  0  0  0  0  0  0
   10.7210    1.5080   23.9560 C   0  0  0  0  0  0  0  0  0  0  0  0
   12.8340    0.4330   22.8650 C   0  0  0  0  0  0  0  0  0  0  0  0
   10.0280   -5.4740   25.6620 C   0  0  0  0  0  0  0  0  0  0  0  0
    8.2330   -3.7090   26.1850 S   0  0  0  0  0  0  0  0  0  0  0  0
   12.1380    1.6980   23.4320 C   0  0  0  0  0  0  0  0  0  0  0  0
    9.2010   -6.0880   26.5310 C   0  0  0  0  0  0  0  0  0  0  0  0
    8.1490   -5.2560   26.9410 C   0  0  0  0  0  0  0  0  0  0  0  0
    6.9090   -5.6560   28.0480 Cl  0  0  0  0  0  0  0  0  0  0  0  0
  1  2  1  0
  1  3  2  0
  1  4  1  0
  4  5  1  0
  4  6  1  0
  5  7  1  0
  6  8  1  0
  6  9  1  6
  5 10  1  6
  7 11  1  0
  8 11  1  0
  9 12  1  0
  9 13  1  0
 12 13  1  0
 10 14  1  0
 11 15  1  0
 14 16  2  0
 14 17  1  0
 15 18  1  1
 15 19  1  0
 17 20  2  0
 16 21  1  0
 19 22  2  0
 19 23  1  0
 18 24  1  0
 20 25  1  0
 21 25  2  0
 23 26  1  0
 22 27  1  0
 23 28  2  0
 24 29  2  0
 24 30  1  0
 27 31  2  0
 28 31  1  0
 29 32  1  0
 30 33  1  0
 32 33  2  0
 33 34  1  0
M  END
