x0397_0-x0770_1-x1385_1-x0434_2-x0540_3-x1374_1-x0831_1-x0831_0-x1418_1-x1334_0-x0692_1-x1334_1-x1412_1
     RDKit          3D

 44 48  0  0  0  0  0  0  0  0999 V2000
    2.2320   -7.7000   23.2230 O   0  0  0  0  0  0  0  0  0  0  0  0
    2.4400   -8.0770   24.5670 C   0  0  0  0  0  0  0  0  0  0  0  0
    3.8320   -8.0540   24.7880 O   0  0  0  0  0  0  0  0  0  0  0  0
    4.4880   -7.1960   23.8600 C   0  0  0  0  0  0  0  0  0  0  0  0
    5.0480   -5.9950   24.5010 C   0  0  0  0  0  0  0  0  0  0  0  0
    6.0500   -5.4900   23.5150 C   0  0  2  0  0  0  0  0  0  0  0  0
    5.6530   -4.5800   22.4800 C   0  0  2  0  0  0  0  0  0  0  0  0
    6.3360   -6.0480   22.1070 C   0  0  0  0  0  0  0  0  0  0  0  0
    6.3860   -3.2610   22.4200 C   0  0  2  0  0  0  0  0  0  0  0  0
    6.3300   -2.6690   21.2240 N   0  0  0  0  0  0  0  0  0  0  0  0
    7.7720   -3.3850   22.7990 C   0  0  0  0  0  0  0  0  0  0  0  0
    6.2030   -3.3620   19.9870 C   0  0  0  0  0  0  0  0  0  0  0  0
    8.3820   -2.0740   23.0290 N   0  0  0  0  0  0  0  0  0  0  0  0
    6.8390   -1.3020   21.3610 C   0  0  1  0  0  0  0  0  0  0  0  0
    7.1810   -3.0070   18.8890 C   0  0  0  0  0  0  0  0  0  0  0  0
    5.3540   -4.2410   19.7930 O   0  0  0  0  0  0  0  0  0  0  0  0
    5.9710   -0.4920   22.3720 C   0  0  0  0  0  0  0  0  0  0  0  0
    9.5830   -1.9790   23.8640 C   0  0  1  0  0  0  0  0  0  0  0  0
    8.3040   -1.2820   21.8210 C   0  0  0  0  0  0  0  0  0  0  0  0
    5.0520    0.5790   21.7720 C   0  0  1  0  0  0  0  0  0  0  0  0
   10.2210   -3.3090   23.9770 C   0  0  0  0  0  0  0  0  0  0  0  0
   10.5860   -0.8070   23.6420 C   0  0  0  0  0  0  0  0  0  0  0  0
    5.2200    1.9710   22.5190 C   0  0  0  0  0  0  0  0  0  0  0  0
   10.1600    0.4090   24.0220 C   0  0  0  0  0  0  0  0  0  0  0  0
   11.9790   -0.9730   23.0400 C   0  0  0  0  0  0  0  0  0  0  0  0
    9.6130   -4.1720   25.0610 C   0  0  0  0  0  0  0  0  0  0  0  0
    5.4620    0.6730   20.3210 C   0  0  0  0  0  0  0  0  0  0  0  0
    3.9700    2.6900   22.5880 N   0  0  0  0  0  0  0  0  0  0  0  0
   12.5890   -2.2440   22.5590 C   0  0  0  0  0  0  0  0  0  0  0  0
   10.8090    1.8100   23.9980 C   0  0  0  0  0  0  0  0  0  0  0  0
   12.6810    0.1120   22.9450 C   0  0  0  0  0  0  0  0  0  0  0  0
    9.9620   -5.4260   25.4490 C   0  0  0  0  0  0  0  0  0  0  0  0
    8.2360   -3.7260   26.1370 S   0  0  0  0  0  0  0  0  0  0  0  0
    6.6860   -0.0030   19.8030 C   0  0  0  0  0  0  0  0  0  0  0  0
    4.7050    1.4010   19.4170 C   0  0  0  0  0  0  0  0  0  0  0  0
    2.9200    2.2410   23.3470 C   0  0  0  0  0  0  0  0  0  0  0  0
   12.1520    1.4790   23.3970 C   0  0  0  0  0  0  0  0  0  0  0  0
    9.3350   -6.0340   26.4270 C   0  0  0  0  0  0  0  0  0  0  0  0
    8.2790   -5.1920   26.9750 C   0  0  0  0  0  0  0  0  0  0  0  0
    6.9580    0.1350   18.5210 C   0  0  0  0  0  0  0  0  0  0  0  0
    5.1620    1.4620   17.9780 C   0  0  0  0  0  0  0  0  0  0  0  0
    3.0010    1.4130   24.4960 O   0  0  0  0  0  0  0  0  0  0  0  0
    7.2040   -5.5460   28.2600 Cl  0  0  0  0  0  0  0  0  0  0  0  0
    6.2780    0.8230   17.5710 N   0  0  0  0  0  0  0  0  0  0  0  0
  1  2  1  0
  2  3  1  0
  3  4  1  0
  4  5  1  0
  6  5  1  6
  6  7  1  0
  6  8  1  0
  7  8  1  6
  7  9  1  0
  9 10  1  0
  9 11  1  6
 10 12  1  0
 11 13  1  0
 10 14  1  0
 12 15  1  0
 12 16  2  0
 14 17  1  1
 13 18  1  0
 13 19  1  0
 14 19  1  0
 20 17  1  1
 18 21  1  6
 18 22  1  0
 20 23  1  0
 22 24  2  0
 22 25  1  0
 21 26  1  0
 20 27  1  0
 23 28  1  0
 25 29  1  0
 24 30  1  0
 25 31  2  0
 26 32  2  0
 26 33  1  0
 27 34  2  0
 27 35  1  0
 28 36  1  0
 30 37  2  0
 31 37  1  0
 32 38  1  0
 33 39  1  0
 38 39  2  0
 34 40  1  0
 35 41  2  0
 36 42  2  0
 39 43  1  0
 40 44  2  0
 41 44  1  0
M  END
