x0397_0-x0692_1-x0434_2-x1334_1-x0831_0-x0831_1-x1386_1-x1375_1
     RDKit          3D

 31 34  0  0  0  0  0  0  0  0999 V2000
    6.2340   -3.2490   19.8750 C   0  0  0  0  0  0  0  0  0  0  0  0
    7.2590   -2.9850   18.7850 C   0  0  0  0  0  0  0  0  0  0  0  0
    5.2570   -3.9700   19.6330 O   0  0  0  0  0  0  0  0  0  0  0  0
    6.4700   -2.7370   21.1460 N   0  0  0  0  0  0  0  0  0  0  0  0
    7.1680   -1.4360   21.2650 C   0  0  1  0  0  0  0  0  0  0  0  0
    6.8380   -3.6790   22.2310 C   0  0  1  0  0  0  0  0  0  0  0  0
    8.5420   -1.6420   21.8840 C   0  0  0  0  0  0  0  0  0  0  0  0
    7.5080   -3.0630   23.4850 C   0  0  0  0  0  0  0  0  0  0  0  0
    5.7420   -4.7100   22.5380 C   0  0  2  0  0  0  0  0  0  0  0  0
    7.5730   -0.6630   20.1140 C   0  0  0  0  0  0  0  0  0  0  0  0
    8.5510   -2.0470   23.2680 N   0  0  0  0  0  0  0  0  0  0  0  0
    5.8960   -5.7640   23.3300 C   0  0  2  0  0  0  0  0  0  0  0  0
    5.8780   -6.2670   22.0880 C   0  0  0  0  0  0  0  0  0  0  0  0
    6.8820   -0.2100   18.8230 C   0  0  0  0  0  0  0  0  0  0  0  0
    9.9470   -2.3510   23.6240 C   0  0  0  0  0  0  0  0  0  0  0  0
    6.4100    0.2880   20.0630 C   0  0  0  0  0  0  0  0  0  0  0  0
    6.0680    0.3900   17.9000 N   0  0  0  0  0  0  0  0  0  0  0  0
    4.7890   -6.0920   24.3710 C   0  0  0  0  0  0  0  0  0  0  0  0
   10.7880   -1.0900   23.5660 C   0  0  0  0  0  0  0  0  0  0  0  0
    5.0580    1.2520   18.0020 C   0  0  0  0  0  0  0  0  0  0  0  0
    5.2730    1.2550   20.3390 C   0  0  0  0  0  0  0  0  0  0  0  0
    4.5350   -7.4960   24.5090 O   0  0  0  0  0  0  0  0  0  0  0  0
   10.2760    0.1110   24.1860 C   0  0  0  0  0  0  0  0  0  0  0  0
   12.0680   -0.9840   22.9250 C   0  0  0  0  0  0  0  0  0  0  0  0
    4.5150    1.8050   19.2910 C   0  0  0  0  0  0  0  0  0  0  0  0
    3.1630   -7.7340   24.7310 C   0  0  0  0  0  0  0  0  0  0  0  0
   12.7300   -2.1370   22.2300 C   0  0  0  0  0  0  0  0  0  0  0  0
   10.9960    1.3000   24.1470 C   0  0  0  0  0  0  0  0  0  0  0  0
   12.7490    0.2390   22.9260 C   0  0  0  0  0  0  0  0  0  0  0  0
    2.4920   -7.7920   23.5010 O   0  0  0  0  0  0  0  0  0  0  0  0
   12.2190    1.3420   23.5190 C   0  0  0  0  0  0  0  0  0  0  0  0
  1  2  1  0
  1  3  2  0
  1  4  1  0
  4  5  1  0
  4  6  1  0
  5  7  1  0
  6  8  1  1
  6  9  1  0
  5 10  1  6
  7 11  1  0
  8 11  1  0
  9 12  1  0
  9 13  1  6
 12 13  1  0
 10 14  1  0
 11 15  1  0
 14 16  2  0
 14 17  1  0
 12 18  1  1
 15 19  1  0
 17 20  2  0
 16 21  1  0
 18 22  1  0
 19 23  2  0
 19 24  1  0
 20 25  1  0
 21 25  2  0
 22 26  1  0
 24 27  1  0
 23 28  1  0
 24 29  2  0
 26 30  1  0
 28 31  2  0
 29 31  1  0
M  END
