x0397_0-x1334_1-x1418_1-x0770_1-x1386_1-x1334_0-x0434_2-x0831_0-x1412_1
     RDKit          3D

 34 38  0  0  0  0  0  0  0  0999 V2000
    6.4570   -3.4270   19.8760 C   0  0  0  0  0  0  0  0  0  0  0  0
    7.3490   -3.0620   18.7120 C   0  0  0  0  0  0  0  0  0  0  0  0
    5.4560   -4.1450   19.7500 O   0  0  0  0  0  0  0  0  0  0  0  0
    6.9140   -2.9270   21.0800 N   0  0  0  0  0  0  0  0  0  0  0  0
    7.6850   -1.6690   21.0320 C   0  0  1  0  0  0  0  0  0  0  0  0
    6.0380   -3.0800   22.2660 C   0  0  2  0  0  0  0  0  0  0  0  0
    6.8290   -0.5350   21.2580 N   0  0  0  0  0  0  0  0  0  0  0  0
    8.7130   -1.6350   22.1670 C   0  0  0  0  0  0  0  0  0  0  0  0
    6.7860   -2.6130   23.5440 C   0  0  0  0  0  0  0  0  0  0  0  0
    5.6220   -4.5460   22.3830 C   0  0  0  0  0  0  0  0  0  0  0  0
    8.2270   -2.3320   23.4130 N   0  0  0  0  0  0  0  0  0  0  0  0
    6.2830   -5.5130   23.2270 C   0  0  0  0  0  0  0  0  0  0  0  0
    6.2990   -5.7310   21.7500 C   0  0  0  0  0  0  0  0  0  0  0  0
    6.2480    0.1140   20.1700 C   0  0  0  0  0  0  0  0  0  0  0  0
    9.1170   -3.4380   23.6300 C   0  0  1  0  0  0  0  0  0  0  0  0
    6.8730    0.0370   18.8770 C   0  0  0  0  0  0  0  0  0  0  0  0
    5.0740    0.8490   20.2640 C   0  0  0  0  0  0  0  0  0  0  0  0
   10.5060   -2.8160   23.3270 C   0  0  0  0  0  0  0  0  0  0  0  0
    8.9310   -4.2540   24.9120 C   0  0  0  0  0  0  0  0  0  0  0  0
    6.4080    0.6310   17.7560 N   0  0  0  0  0  0  0  0  0  0  0  0
    4.5850    1.4650   19.1050 C   0  0  0  0  0  0  0  0  0  0  0  0
    9.6740   -5.3850   25.2390 C   0  0  0  0  0  0  0  0  0  0  0  0
    7.7630   -3.9620   26.2040 S   0  0  0  0  0  0  0  0  0  0  0  0
   10.8800   -1.2850   23.4860 C   0  0  0  0  0  0  0  0  0  0  0  0
    5.2790    1.3240   17.9190 C   0  0  0  0  0  0  0  0  0  0  0  0
    9.3160   -5.9730   26.4210 C   0  0  0  0  0  0  0  0  0  0  0  0
    8.2810   -5.3330   27.0770 C   0  0  0  0  0  0  0  0  0  0  0  0
   10.1330   -0.4090   24.1940 C   0  0  0  0  0  0  0  0  0  0  0  0
   12.2010   -0.8160   22.7810 C   0  0  0  0  0  0  0  0  0  0  0  0
    7.5150   -5.7340   28.5440 Cl  0  0  0  0  0  0  0  0  0  0  0  0
   13.0330   -1.7840   21.9860 C   0  0  0  0  0  0  0  0  0  0  0  0
   10.5740    1.0250   24.3000 C   0  0  0  0  0  0  0  0  0  0  0  0
   12.6370    0.5530   22.8860 C   0  0  0  0  0  0  0  0  0  0  0  0
   11.8370    1.5050   23.6390 C   0  0  0  0  0  0  0  0  0  0  0  0
  1  2  1  0
  1  3  2  0
  1  4  1  0
  4  5  1  0
  4  6  1  0
  5  7  1  1
  5  8  1  0
  6  9  1  0
  6 10  1  1
  8 11  1  0
  9 11  1  0
 10 12  1  0
 10 13  1  0
 12 13  1  0
  7 14  1  0
 11 15  1  0
 14 16  2  0
 14 17  1  0
 15 18  1  1
 15 19  1  0
 16 20  1  0
 17 21  2  0
 19 22  2  0
 19 23  1  0
 18 24  1  0
 20 25  2  0
 21 25  1  0
 22 26  1  0
 23 27  1  0
 26 27  2  0
 24 28  2  0
 24 29  1  0
 27 30  1  0
 29 31  1  0
 28 32  1  0
 29 33  2  0
 32 34  2  0
 33 34  1  0
M  END
