x0395_1-x1348_1
     RDKit          3D

 22 24  0  0  0  0  0  0  0  0999 V2000
    7.6520   -4.7440   26.5450 N   0  0  0  0  0  0  0  0  0  0  0  0
    7.7150   -5.0070   27.8200 C   0  0  0  0  0  0  0  0  0  0  0  0
    8.8960   -4.9280   25.7860 C   0  0  0  0  0  0  0  0  0  0  0  0
    6.5160   -5.3790   25.8350 C   0  0  0  0  0  0  0  0  0  0  0  0
    9.2920   -3.7470   24.8810 C   0  0  0  0  0  0  0  0  0  0  0  0
    6.3030   -5.2960   24.4090 C   0  0  0  0  0  0  0  0  0  0  0  0
    5.6190   -6.0960   26.6300 C   0  0  0  0  0  0  0  0  0  0  0  0
   10.6240   -3.1160   25.2710 C   0  0  0  0  0  0  0  0  0  0  0  0
    7.2190   -4.5530   23.5550 N   0  0  0  0  0  0  0  0  0  0  0  0
    5.2460   -5.9040   23.8030 C   0  0  0  0  0  0  0  0  0  0  0  0
    4.4110   -6.8050   26.0550 C   0  0  0  0  0  0  0  0  0  0  0  0
   11.3540   -2.4280   24.1560 C   0  0  0  0  0  0  0  0  0  0  0  0
    6.6950   -4.6910   22.2190 C   0  0  0  0  0  0  0  0  0  0  0  0
    5.2790   -5.6080   22.0000 S   0  0  0  0  0  0  0  0  0  0  0  0
    4.1830   -6.7260   24.5510 C   0  0  0  0  0  0  0  0  0  0  0  0
   10.6470   -1.2900   23.5720 N   0  0  0  0  0  0  0  0  0  0  0  0
   11.0110   -1.3040   22.1730 C   0  0  0  0  0  0  0  0  0  0  0  0
   11.0000   -0.0260   24.2760 C   0  0  0  0  0  0  0  0  0  0  0  0
   12.4900   -0.9400   22.1970 C   0  0  0  0  0  0  0  0  0  0  0  0
   11.6030    1.0580   23.3570 C   0  0  0  0  0  0  0  0  0  0  0  0
   13.4130   -1.7460   21.6520 F   0  0  0  0  0  0  0  0  0  0  0  0
   12.8590    0.3450   22.8410 C   0  0  0  0  0  0  0  0  0  0  0  0
  1  2  1  0
  1  3  1  0
  1  4  1  0
  3  5  1  0
  4  6  1  0
  4  7  2  0
  5  8  1  0
  6  9  1  0
  6 10  2  0
  7 11  1  0
  8 12  1  0
  9 13  2  0
 10 14  1  0
 13 14  1  0
 10 15  1  0
 11 15  2  0
 12 16  1  0
 16 17  1  0
 16 18  1  0
 17 19  1  0
 18 20  1  0
 19 21  1  0
 19 22  2  0
 20 22  1  0
M  END
