x0397_0-x0692_0
     RDKit          3D

 16 17  0  0  0  0  0  0  0  0999 V2000
    5.8360   -3.1030   20.7560 C   0  0  0  0  0  0  0  0  0  0  0  0
    6.1900   -3.6510   21.9890 N   0  0  0  0  0  0  0  0  0  0  0  0
    7.5540   -3.6420   22.4740 C   0  0  0  0  0  0  0  0  0  0  0  0
    5.3930   -3.7300   19.7690 O   0  0  0  0  0  0  0  0  0  0  0  0
    5.4750   -4.8540   22.3870 C   0  0  0  0  0  0  0  0  0  0  0  0
    8.2250   -2.2940   22.7190 C   0  0  0  0  0  0  0  0  0  0  0  0
    6.1460   -5.7990   23.1890 C   0  0  0  0  0  0  0  0  0  0  0  0
    5.9170   -6.0780   21.8430 C   0  0  0  0  0  0  0  0  0  0  0  0
    9.2680   -2.3520   23.8540 C   0  0  0  0  0  0  0  0  0  0  0  0
   10.4350   -1.4360   23.6130 C   0  0  0  0  0  0  0  0  0  0  0  0
   10.2720   -0.0590   23.7520 C   0  0  0  0  0  0  0  0  0  0  0  0
   11.6990   -1.9230   23.2450 C   0  0  0  0  0  0  0  0  0  0  0  0
   11.2610    0.9500   23.5540 C   0  0  0  0  0  0  0  0  0  0  0  0
   12.8580   -0.9500   23.0040 C   0  0  0  0  0  0  0  0  0  0  0  0
   10.9730    2.3370   23.7140 C   0  0  0  0  0  0  0  0  0  0  0  0
   12.6460    0.4140   23.1520 C   0  0  0  0  0  0  0  0  0  0  0  0
  1  2  1  0
  2  3  1  0
  1  4  2  0
  2  5  1  0
  3  6  1  0
  5  7  1  0
  5  8  1  0
  7  8  1  0
  6  9  1  0
  9 10  1  0
 10 11  2  0
 10 12  1  0
 11 13  1  0
 12 14  2  0
 13 15  1  0
 13 16  2  0
 14 16  1  0
M  END
