x0397_0-x0426_1-x1374_1-x0770_1-x1334_1-x0831_1-x0434_2-x0692_1-x1385_1-x1412_1-x0831_0-x1418_1-x1334_0-x1386_1
     RDKit          3D

 44 49  0  0  0  0  0  0  0  0999 V2000
    2.5830   -7.5040   23.1600 O   0  0  0  0  0  0  0  0  0  0  0  0
    2.7900   -7.7620   24.5310 C   0  0  0  0  0  0  0  0  0  0  0  0
    4.1750   -7.9710   24.7200 O   0  0  0  0  0  0  0  0  0  0  0  0
    4.9100   -6.7500   24.6020 C   0  0  0  0  0  0  0  0  0  0  0  0
    6.1520   -7.0290   24.0700 C   0  0  0  0  0  0  0  0  0  0  0  0
    6.4430   -6.1320   22.9070 C   0  0  2  0  0  0  0  0  0  0  0  0
    5.9240   -4.7730   22.6830 C   0  0  2  0  0  0  0  0  0  0  0  0
    5.5360   -6.1110   21.7980 C   0  0  0  0  0  0  0  0  0  0  0  0
    6.9050   -3.6950   22.2180 C   0  0  1  0  0  0  0  0  0  0  0  0
    6.3220   -2.7480   21.2460 N   0  0  0  0  0  0  0  0  0  0  0  0
    7.6380   -3.0480   23.4390 C   0  0  0  0  0  0  0  0  0  0  0  0
    6.1790   -3.3560   19.9850 C   0  0  0  0  0  0  0  0  0  0  0  0
    8.5430   -1.8900   23.1520 N   0  0  0  0  0  0  0  0  0  0  0  0
    7.0560   -1.4630   21.1890 C   0  0  1  0  0  0  0  0  0  0  0  0
    7.1660   -3.0040   18.8640 C   0  0  0  0  0  0  0  0  0  0  0  0
    5.3040   -4.1980   19.7610 O   0  0  0  0  0  0  0  0  0  0  0  0
    6.3160   -0.0820   21.5320 C   0  0  1  0  0  0  0  0  0  0  0  0
    9.9790   -2.1940   23.2860 C   0  0  2  0  0  0  0  0  0  0  0  0
    8.4250   -1.5710   21.7620 C   0  0  0  0  0  0  0  0  0  0  0  0
    5.0430   -0.1680   22.4110 C   0  0  0  0  0  0  0  0  0  0  0  0
   10.5380   -3.1260   24.3730 C   0  0  0  0  0  0  0  0  0  0  0  0
    7.3160    0.9300   22.1260 C   0  0  0  0  0  0  0  0  0  0  0  0
    5.8810    0.5230   20.1930 C   0  0  0  0  0  0  0  0  0  0  0  0
   10.8140   -0.9270   23.3340 C   0  0  0  0  0  0  0  0  0  0  0  0
    4.3960    1.2500   22.5520 C   0  0  2  0  0  0  0  0  0  0  0  0
    4.7220    1.3160   20.0900 C   0  0  0  0  0  0  0  0  0  0  0  0
    6.6390    0.3060   19.0260 C   0  0  0  0  0  0  0  0  0  0  0  0
   10.1900    0.2750   23.8930 C   0  0  0  0  0  0  0  0  0  0  0  0
   12.0850   -0.8570   22.8860 C   0  0  0  0  0  0  0  0  0  0  0  0
    9.7990   -3.9330   25.3730 C   0  0  0  0  0  0  0  0  0  0  0  0
    3.3890    1.3340   23.5880 N   0  0  0  0  0  0  0  0  0  0  0  0
    3.7960    1.6480   21.2110 C   0  0  0  0  0  0  0  0  0  0  0  0
   12.7510   -2.0590   22.2940 C   0  0  0  0  0  0  0  0  0  0  0  0
    4.4140    1.8640   18.7450 C   0  0  0  0  0  0  0  0  0  0  0  0
    6.4580    0.7420   17.7620 N   0  0  0  0  0  0  0  0  0  0  0  0
   10.8210    1.4340   23.9830 C   0  0  0  0  0  0  0  0  0  0  0  0
   12.8490    0.3020   22.9280 C   0  0  0  0  0  0  0  0  0  0  0  0
   10.2410   -5.0720   25.9320 C   0  0  0  0  0  0  0  0  0  0  0  0
    8.2410   -3.5430   26.0390 S   0  0  0  0  0  0  0  0  0  0  0  0
    5.2770    1.5820   17.6110 C   0  0  0  0  0  0  0  0  0  0  0  0
   12.2110    1.4170   23.4690 C   0  0  0  0  0  0  0  0  0  0  0  0
    9.3710   -5.6510   26.9290 C   0  0  0  0  0  0  0  0  0  0  0  0
    8.2370   -4.9520   27.1340 C   0  0  0  0  0  0  0  0  0  0  0  0
    6.9190   -5.2920   28.2750 Cl  0  0  0  0  0  0  0  0  0  0  0  0
  1  2  1  0
  2  3  1  0
  3  4  1  0
  4  5  1  0
  6  5  1  1
  6  7  1  0
  6  8  1  0
  7  8  1  6
  7  9  1  0
  9 10  1  0
  9 11  1  1
 10 12  1  0
 11 13  1  0
 10 14  1  0
 12 15  1  0
 12 16  2  0
 14 17  1  0
 13 18  1  0
 13 19  1  0
 14 19  1  1
 17 20  1  0
 18 21  1  1
 17 22  1  1
 17 23  1  0
 18 24  1  0
 20 25  1  0
 23 26  2  0
 23 27  1  0
 24 28  2  0
 24 29  1  0
 21 30  1  0
 25 31  1  1
 25 32  1  0
 26 32  1  0
 29 33  1  0
 26 34  1  0
 27 35  2  0
 28 36  1  0
 29 37  2  0
 30 38  2  0
 30 39  1  0
 34 40  2  0
 35 40  1  0
 36 41  2  0
 37 41  1  0
 38 42  1  0
 39 43  1  0
 42 43  2  0
 43 44  1  0
M  END
