x0395_1-x0759_1-x0434_2
     RDKit          3D

 24 26  0  0  0  0  0  0  0  0999 V2000
    6.3330   -3.4190   20.0290 C   0  0  0  0  0  0  0  0  0  0  0  0
    7.3370   -3.0260   18.9540 C   0  0  0  0  0  0  0  0  0  0  0  0
    5.3330   -4.0640   19.7010 O   0  0  0  0  0  0  0  0  0  0  0  0
    6.5520   -3.1690   21.3750 N   0  0  0  0  0  0  0  0  0  0  0  0
    7.0830   -1.8940   21.9260 C   0  0  2  0  0  0  0  0  0  0  0  0
    6.4980   -4.2830   22.3480 C   0  0  0  0  0  0  0  0  0  0  0  0
    7.5640   -1.0480   20.7630 N   0  0  0  0  0  0  0  0  0  0  0  0
    8.1010   -2.1150   23.0540 C   0  0  2  0  0  0  0  0  0  0  0  0
    7.6970   -4.2700   23.3070 C   0  0  0  0  0  0  0  0  0  0  0  0
    9.4610   -2.2340   22.4130 C   0  0  0  0  0  0  0  0  0  0  0  0
    7.7840   -2.9750   23.8870 O   0  0  0  0  0  0  0  0  0  0  0  0
    6.6900   -0.2430   19.9390 C   0  0  0  0  0  0  0  0  0  0  0  0
   10.4450   -1.1460   22.5320 N   0  0  0  0  0  0  0  0  0  0  0  0
    7.0380   -0.1100   18.6040 C   0  0  0  0  0  0  0  0  0  0  0  0
    5.5250    0.4030   20.4170 C   0  0  0  0  0  0  0  0  0  0  0  0
   11.6670   -1.8890   22.3720 C   0  0  0  0  0  0  0  0  0  0  0  0
   10.4730   -0.3480   23.7910 C   0  0  0  0  0  0  0  0  0  0  0  0
    6.2210    0.6970   17.6810 N   0  0  0  0  0  0  0  0  0  0  0  0
    4.7630    1.1640   19.5230 C   0  0  0  0  0  0  0  0  0  0  0  0
   12.8140   -1.0140   22.0700 C   0  0  0  0  0  0  0  0  0  0  0  0
   11.6030    0.6970   23.7340 C   0  0  0  0  0  0  0  0  0  0  0  0
    5.1490    1.2750   18.2060 C   0  0  0  0  0  0  0  0  0  0  0  0
   13.7620   -1.3950   21.2250 F   0  0  0  0  0  0  0  0  0  0  0  0
   12.7520    0.3100   22.7980 C   0  0  0  0  0  0  0  0  0  0  0  0
  1  2  1  0
  1  3  2  0
  1  4  1  0
  4  5  1  0
  4  6  1  0
  5  7  1  6
  5  8  1  0
  6  9  1  0
  8 10  1  6
  8 11  1  0
  9 11  1  0
  7 12  1  0
 10 13  1  0
 12 14  2  0
 12 15  1  0
 13 16  1  0
 13 17  1  0
 14 18  1  0
 15 19  2  0
 16 20  1  0
 17 21  1  0
 18 22  2  0
 19 22  1  0
 20 23  1  0
 20 24  2  0
 21 24  1  0
M  END
