x0397_0-x1412_1-x1412_0-x1374_1-x0736_1-x0831_0-x1386_0-x0692_1-x1385_1-x0434_2-x0770_1-x1334_1
     RDKit          3D

 41 46  0  0  0  0  0  0  0  0999 V2000
    2.2180   -7.7290   23.2550 O   0  0  0  0  0  0  0  0  0  0  0  0
    2.4700   -8.0340   24.6110 C   0  0  0  0  0  0  0  0  0  0  0  0
    3.8570   -7.9920   24.8530 O   0  0  0  0  0  0  0  0  0  0  0  0
    4.5050   -7.2320   23.8450 C   0  0  0  0  0  0  0  0  0  0  0  0
    4.8230   -6.0430   24.3900 C   0  0  0  0  0  0  0  0  0  0  0  0
    5.7950   -5.4850   23.4020 C   0  0  2  0  0  0  0  0  0  0  0  0
    5.4890   -4.7750   22.3650 C   0  0  2  0  0  0  0  0  0  0  0  0
    5.9540   -6.3180   22.1970 C   0  0  0  0  0  0  0  0  0  0  0  0
    6.4590   -3.6230   22.4550 C   0  0  2  0  0  0  0  0  0  0  0  0
    6.5150   -2.8280   21.2210 N   0  0  0  0  0  0  0  0  0  0  0  0
    7.8790   -4.0490   22.8480 C   0  0  0  0  0  0  0  0  0  0  0  0
    6.3070   -3.3570   19.9630 C   0  0  0  0  0  0  0  0  0  0  0  0
    8.5380   -2.8040   23.3500 C   0  0  1  0  0  0  0  0  0  0  0  0
    7.4280   -1.7040   21.3240 C   0  0  1  0  0  0  0  0  0  0  0  0
    7.2640   -3.0280   18.8310 C   0  0  0  0  0  0  0  0  0  0  0  0
    5.3700   -4.1390   19.7270 O   0  0  0  0  0  0  0  0  0  0  0  0
    8.3360   -2.5530   24.8990 C   0  0  2  0  0  0  0  0  0  0  0  0
   10.0440   -2.8340   23.4120 C   0  0  0  0  0  0  0  0  0  0  0  0
    6.5580   -0.5380   21.2150 N   0  0  0  0  0  0  0  0  0  0  0  0
    8.0090   -1.6350   22.5160 C   0  0  0  0  0  0  0  0  0  0  0  0
    7.0630   -1.9540   25.1220 O   0  0  0  0  0  0  0  0  0  0  0  0
    9.9150   -1.3790   23.7730 C   0  0  1  0  0  0  0  0  0  0  0  0
    9.2860   -1.3930   25.1340 C   0  0  0  0  0  0  0  0  0  0  0  0
    8.4960   -3.7760   25.8260 C   0  0  0  0  0  0  0  0  0  0  0  0
    6.1830    0.0780   20.0510 C   0  0  0  0  0  0  0  0  0  0  0  0
    9.3750   -5.0050   25.4380 C   0  0  0  0  0  0  0  0  0  0  0  0
    7.7790   -3.9650   27.3580 S   0  0  0  0  0  0  0  0  0  0  0  0
   10.9620   -0.4000   23.5220 C   0  0  0  0  0  0  0  0  0  0  0  0
    6.8700    0.0170   18.8010 C   0  0  0  0  0  0  0  0  0  0  0  0
    5.0290    0.8320   20.1060 C   0  0  0  0  0  0  0  0  0  0  0  0
    9.3860   -6.0750   26.5140 C   0  0  0  0  0  0  0  0  0  0  0  0
    8.4850   -5.5330   27.6430 C   0  0  0  0  0  0  0  0  0  0  0  0
   10.5660    0.8340   24.0080 C   0  0  0  0  0  0  0  0  0  0  0  0
   12.2380   -0.6710   22.8440 C   0  0  0  0  0  0  0  0  0  0  0  0
    6.4150    0.6750   17.7080 N   0  0  0  0  0  0  0  0  0  0  0  0
    4.5550    1.5040   19.0000 C   0  0  0  0  0  0  0  0  0  0  0  0
   12.6680   -2.0050   22.3050 C   0  0  0  0  0  0  0  0  0  0  0  0
   11.4290    1.9370   23.8470 C   0  0  0  0  0  0  0  0  0  0  0  0
   13.0590    0.3910   22.7120 C   0  0  0  0  0  0  0  0  0  0  0  0
    5.2790    1.4010   17.8250 C   0  0  0  0  0  0  0  0  0  0  0  0
   12.6120    1.6900   23.2250 C   0  0  0  0  0  0  0  0  0  0  0  0
  1  2  1  0
  2  3  1  0
  3  4  1  0
  4  5  1  0
  6  5  1  1
  6  7  1  0
  6  8  1  0
  7  8  1  6
  7  9  1  0
  9 10  1  0
  9 11  1  6
 10 12  1  0
 13 11  1  6
 10 14  1  0
 12 15  1  0
 12 16  2  0
 13 17  1  0
 13 18  1  0
 14 19  1  1
 13 20  1  0
 14 20  1  0
 17 21  1  6
 18 22  1  0
 17 23  1  0
 22 23  1  0
 17 24  1  0
 19 25  1  0
 24 26  2  0
 24 27  1  0
 22 28  1  1
 25 29  2  0
 25 30  1  0
 26 31  1  0
 27 32  1  0
 31 32  2  0
 28 33  2  0
 28 34  1  0
 29 35  1  0
 30 36  2  0
 34 37  1  0
 33 38  1  0
 34 39  2  0
 35 40  2  0
 36 40  1  0
 38 41  2  0
 39 41  1  0
M  END
