x0397_0-x0770_1-x1385_1-x0426_1-x1374_1-x1386_0-x0831_1-x0831_0-x1418_1-x1334_0-x0692_1-x0434_2-x1334_1
     RDKit          3D

 45 50  0  0  0  0  0  0  0  0999 V2000
    2.6120   -7.5260   23.3110 O   0  0  0  0  0  0  0  0  0  0  0  0
    2.9850   -7.4220   24.6730 C   0  0  0  0  0  0  0  0  0  0  0  0
    4.3180   -7.8620   24.8510 O   0  0  0  0  0  0  0  0  0  0  0  0
    5.1720   -7.3150   23.8520 C   0  0  0  0  0  0  0  0  0  0  0  0
    5.9670   -6.3400   24.3650 C   0  0  0  0  0  0  0  0  0  0  0  0
    6.5340   -5.5180   23.2520 C   0  0  2  0  0  0  0  0  0  0  0  0
    5.7060   -4.5580   22.4900 C   0  0  2  0  0  0  0  0  0  0  0  0
    6.3770   -5.9580   21.8650 C   0  0  0  0  0  0  0  0  0  0  0  0
    6.3970   -3.1690   22.4490 C   0  0  2  0  0  0  0  0  0  0  0  0
    6.3630   -2.5250   21.1280 N   0  0  0  0  0  0  0  0  0  0  0  0
    7.7040   -3.2580   22.9470 C   0  0  0  0  0  0  0  0  0  0  0  0
    6.2450   -3.2940   19.9490 C   0  0  0  0  0  0  0  0  0  0  0  0
    8.3460   -1.9240   22.9980 N   0  0  0  0  0  0  0  0  0  0  0  0
    7.1900   -1.2760   21.0340 C   0  0  1  0  0  0  0  0  0  0  0  0
    7.1430   -2.9670   18.7680 C   0  0  0  0  0  0  0  0  0  0  0  0
    5.4470   -4.2380   19.8110 O   0  0  0  0  0  0  0  0  0  0  0  0
    6.4860    0.1240   21.3860 C   0  0  1  0  0  0  0  0  0  0  0  0
    9.5770   -1.8880   23.7670 C   0  0  2  0  0  0  0  0  0  0  0  0
    8.4290   -1.4620   21.6550 C   0  0  0  0  0  0  0  0  0  0  0  0
    5.2910   -0.0880   22.3970 C   0  0  0  0  0  0  0  0  0  0  0  0
   10.1550   -3.2330   23.9230 C   0  0  0  0  0  0  0  0  0  0  0  0
    9.0990   -1.6200   25.1700 C   0  0  0  0  0  0  0  0  0  0  0  0
    7.4610    1.1810   21.9290 C   0  0  0  0  0  0  0  0  0  0  0  0
    5.9530    0.6650   20.0910 C   0  0  0  0  0  0  0  0  0  0  0  0
   10.6230   -0.7840   23.5590 C   0  0  0  0  0  0  0  0  0  0  0  0
    4.1180    0.9810   22.3780 C   0  0  1  0  0  0  0  0  0  0  0  0
    4.7790    1.4060   19.9680 C   0  0  0  0  0  0  0  0  0  0  0  0
    6.6800    0.4100   18.9420 C   0  0  0  0  0  0  0  0  0  0  0  0
   10.2080    0.4150   24.1060 C   0  0  0  0  0  0  0  0  0  0  0  0
   11.8850   -0.8720   22.9130 C   0  0  0  0  0  0  0  0  0  0  0  0
    9.6130   -4.0430   25.0920 C   0  0  0  0  0  0  0  0  0  0  0  0
    4.1620    1.9030   23.4920 N   0  0  0  0  0  0  0  0  0  0  0  0
    3.8550    1.7710   21.0840 C   0  0  0  0  0  0  0  0  0  0  0  0
   12.4720   -2.0780   22.2680 C   0  0  0  0  0  0  0  0  0  0  0  0
    4.4450    1.8490   18.6800 C   0  0  0  0  0  0  0  0  0  0  0  0
    6.4120    0.7960   17.6950 N   0  0  0  0  0  0  0  0  0  0  0  0
   11.0440    1.5310   24.0140 C   0  0  0  0  0  0  0  0  0  0  0  0
   12.6810    0.2510   22.8490 C   0  0  0  0  0  0  0  0  0  0  0  0
   10.1830   -5.2860   25.6950 C   0  0  0  0  0  0  0  0  0  0  0  0
    8.1880   -3.7090   26.0220 S   0  0  0  0  0  0  0  0  0  0  0  0
    5.2430    1.5470   17.6310 C   0  0  0  0  0  0  0  0  0  0  0  0
   12.2800    1.4520   23.3880 C   0  0  0  0  0  0  0  0  0  0  0  0
    9.5150   -5.7960   26.7370 C   0  0  0  0  0  0  0  0  0  0  0  0
    8.3740   -5.0430   27.0720 C   0  0  0  0  0  0  0  0  0  0  0  0
    7.2570   -5.3220   28.3390 Cl  0  0  0  0  0  0  0  0  0  0  0  0
  1  2  1  0
  2  3  1  0
  3  4  1  0
  4  5  1  0
  6  5  1  1
  6  7  1  0
  6  8  1  0
  7  8  1  6
  7  9  1  0
  9 10  1  0
  9 11  1  6
 10 12  1  0
 11 13  1  0
 10 14  1  0
 12 15  1  0
 12 16  2  0
 14 17  1  0
 13 18  1  0
 13 19  1  0
 14 19  1  1
 17 20  1  0
 18 21  1  0
 18 22  1  1
 17 23  1  1
 17 24  1  0
 18 25  1  0
 20 26  1  0
 24 27  2  0
 24 28  1  0
 25 29  2  0
 25 30  1  0
 21 31  1  0
 26 32  1  1
 26 33  1  0
 27 33  1  0
 30 34  1  0
 27 35  1  0
 28 36  2  0
 29 37  1  0
 30 38  2  0
 31 39  2  0
 31 40  1  0
 35 41  2  0
 36 41  1  0
 37 42  2  0
 38 42  1  0
 39 43  1  0
 40 44  1  0
 43 44  2  0
 44 45  1  0
M  END
