x0397_0-x0770_1-x1375_1-x1385_1-x0426_1-x1374_1-x1386_0-x1386_1-x0831_0-x1418_1-x1334_0-x0692_1-x0434_2-x1412_1-x1334_1
     RDKit          3D

 44 49  0  0  0  0  0  0  0  0999 V2000
    2.4480   -7.8930   23.4100 O   0  0  0  0  0  0  0  0  0  0  0  0
    3.0730   -7.2980   24.5160 C   0  0  0  0  0  0  0  0  0  0  0  0
    4.4660   -7.4300   24.3420 O   0  0  0  0  0  0  0  0  0  0  0  0
    5.0470   -6.1200   24.4920 C   0  0  0  0  0  0  0  0  0  0  0  0
    5.9120   -5.7280   23.3230 C   0  0  2  0  0  0  0  0  0  0  0  0
    5.6930   -4.6040   22.5290 C   0  0  2  0  0  0  0  0  0  0  0  0
    5.7080   -6.2110   22.1120 C   0  0  0  0  0  0  0  0  0  0  0  0
    6.7970   -3.6320   22.1950 C   0  0  1  0  0  0  0  0  0  0  0  0
    6.3980   -2.6690   21.1360 N   0  0  0  0  0  0  0  0  0  0  0  0
    7.5030   -3.0540   23.4480 C   0  0  0  0  0  0  0  0  0  0  0  0
    6.1940   -3.3550   19.9360 C   0  0  0  0  0  0  0  0  0  0  0  0
    8.3840   -1.8970   23.1960 N   0  0  0  0  0  0  0  0  0  0  0  0
    7.1340   -1.4410   21.0920 C   0  0  1  0  0  0  0  0  0  0  0  0
    7.1080   -3.0060   18.7660 C   0  0  0  0  0  0  0  0  0  0  0  0
    5.3430   -4.2410   19.7780 O   0  0  0  0  0  0  0  0  0  0  0  0
    6.3410   -0.0780   21.4840 C   0  0  1  0  0  0  0  0  0  0  0  0
    9.6620   -1.8980   23.8900 C   0  0  2  0  0  0  0  0  0  0  0  0
    8.5040   -1.6050   21.7670 C   0  0  0  0  0  0  0  0  0  0  0  0
    5.1940   -0.1460   22.4930 C   0  0  0  0  0  0  0  0  0  0  0  0
   10.1160   -3.3400   23.9440 C   0  0  0  0  0  0  0  0  0  0  0  0
    9.4680   -1.6590   25.3600 C   0  0  0  0  0  0  0  0  0  0  0  0
    7.3920    0.8990   22.1210 C   0  0  0  0  0  0  0  0  0  0  0  0
    5.9030    0.4980   20.1520 C   0  0  0  0  0  0  0  0  0  0  0  0
   10.6730   -0.8000   23.6270 C   0  0  0  0  0  0  0  0  0  0  0  0
    4.0930    0.9680   22.4080 C   0  0  1  0  0  0  0  0  0  0  0  0
    4.7440    1.2390   19.9730 C   0  0  0  0  0  0  0  0  0  0  0  0
    6.6560    0.3020   19.0440 C   0  0  0  0  0  0  0  0  0  0  0  0
   10.2480    0.3550   24.0980 C   0  0  0  0  0  0  0  0  0  0  0  0
   11.9270   -0.8460   22.9920 C   0  0  0  0  0  0  0  0  0  0  0  0
    9.5570   -4.2030   25.0760 C   0  0  0  0  0  0  0  0  0  0  0  0
    4.3300    2.0410   23.3630 N   0  0  0  0  0  0  0  0  0  0  0  0
    3.7680    1.5640   21.0410 C   0  0  0  0  0  0  0  0  0  0  0  0
   12.5270   -2.0770   22.4030 C   0  0  0  0  0  0  0  0  0  0  0  0
    4.5190    1.6850   18.7160 C   0  0  0  0  0  0  0  0  0  0  0  0
    6.4550    0.7270   17.7840 N   0  0  0  0  0  0  0  0  0  0  0  0
   11.0010    1.6400   24.0090 C   0  0  0  0  0  0  0  0  0  0  0  0
   12.8420    0.3710   22.8170 C   0  0  0  0  0  0  0  0  0  0  0  0
   10.0030   -5.4180   25.5080 C   0  0  0  0  0  0  0  0  0  0  0  0
    8.1990   -3.7840   26.0690 S   0  0  0  0  0  0  0  0  0  0  0  0
    5.3400    1.4410   17.6790 C   0  0  0  0  0  0  0  0  0  0  0  0
   12.3730    1.5920   23.3210 C   0  0  0  0  0  0  0  0  0  0  0  0
    9.4370   -6.0970   26.5170 C   0  0  0  0  0  0  0  0  0  0  0  0
    8.2870   -5.2120   26.9960 C   0  0  0  0  0  0  0  0  0  0  0  0
    7.1930   -5.5370   28.2710 Cl  0  0  0  0  0  0  0  0  0  0  0  0
  1  2  1  0
  2  3  1  0
  3  4  1  0
  5  4  1  1
  5  6  1  0
  5  7  1  0
  6  7  1  6
  6  8  1  0
  8  9  1  0
  8 10  1  1
  9 11  1  0
 10 12  1  0
  9 13  1  0
 11 14  1  0
 11 15  2  0
 13 16  1  0
 12 17  1  0
 12 18  1  0
 13 18  1  1
 16 19  1  0
 17 20  1  0
 17 21  1  1
 16 22  1  1
 16 23  1  0
 17 24  1  0
 19 25  1  0
 23 26  2  0
 23 27  1  0
 24 28  2  0
 24 29  1  0
 20 30  1  0
 25 31  1  1
 25 32  1  0
 26 32  1  0
 29 33  1  0
 26 34  1  0
 27 35  2  0
 28 36  1  0
 29 37  2  0
 30 38  2  0
 30 39  1  0
 34 40  2  0
 35 40  1  0
 36 41  2  0
 37 41  1  0
 38 42  1  0
 39 43  1  0
 42 43  2  0
 43 44  1  0
M  END
