x0397_0-x0770_1-x1385_1-x0434_2-x1386_1-x0831_0-x1418_1-x1334_0-x0692_1-x1334_1-x1412_1
     RDKit          3D

 34 38  0  0  0  0  0  0  0  0999 V2000
    6.3110   -3.2410   19.8440 C   0  0  0  0  0  0  0  0  0  0  0  0
    7.3060   -2.9570   18.7240 C   0  0  0  0  0  0  0  0  0  0  0  0
    5.4190   -4.0930   19.7120 O   0  0  0  0  0  0  0  0  0  0  0  0
    6.4320   -2.5310   21.0680 N   0  0  0  0  0  0  0  0  0  0  0  0
    7.3300   -1.4010   21.4180 C   0  0  1  0  0  0  0  0  0  0  0  0
    6.3580   -3.3920   22.2640 C   0  0  2  0  0  0  0  0  0  0  0  0
    8.7710   -1.8320   21.5430 C   0  0  0  0  0  0  0  0  0  0  0  0
    7.5330   -3.1210   23.2120 C   0  0  0  0  0  0  0  0  0  0  0  0
    6.3440   -4.8450   21.7850 C   0  0  0  0  0  0  0  0  0  0  0  0
    7.3270   -0.0620   20.6490 C   0  0  0  0  0  0  0  0  0  0  0  0
    8.8180   -2.8060   22.5970 N   0  0  0  0  0  0  0  0  0  0  0  0
    6.5040   -5.8090   22.9830 C   0  0  0  0  0  0  0  0  0  0  0  0
    5.4230   -6.0270   22.3580 C   0  0  0  0  0  0  0  0  0  0  0  0
    7.0240    0.0640   19.3210 C   0  0  0  0  0  0  0  0  0  0  0  0
    9.9220   -2.6300   23.5070 C   0  0  2  0  0  0  0  0  0  0  0  0
    6.0670    0.5830   20.2710 C   0  0  0  0  0  0  0  0  0  0  0  0
    6.4190    0.3610   18.1050 N   0  0  0  0  0  0  0  0  0  0  0  0
    9.3010   -2.5270   24.8150 C   0  0  0  0  0  0  0  0  0  0  0  0
   10.6700   -1.3170   23.4660 C   0  0  0  0  0  0  0  0  0  0  0  0
    5.1700    1.0310   17.8860 C   0  0  0  0  0  0  0  0  0  0  0  0
    4.8420    1.2290   20.1200 C   0  0  0  0  0  0  0  0  0  0  0  0
   10.0440   -0.1520   24.2050 C   0  0  0  0  0  0  0  0  0  0  0  0
   12.0230   -1.0360   22.7560 C   0  0  0  0  0  0  0  0  0  0  0  0
    9.0550   -3.8230   25.5160 C   0  0  0  0  0  0  0  0  0  0  0  0
    4.3190    1.4960   18.9820 C   0  0  0  0  0  0  0  0  0  0  0  0
   12.7950   -2.0450   21.9720 C   0  0  0  0  0  0  0  0  0  0  0  0
   10.7430    1.1920   24.2160 C   0  0  0  0  0  0  0  0  0  0  0  0
   12.5880    0.3320   22.8660 C   0  0  0  0  0  0  0  0  0  0  0  0
    9.6350   -5.1250   25.4220 C   0  0  0  0  0  0  0  0  0  0  0  0
    7.8450   -3.8120   26.7630 S   0  0  0  0  0  0  0  0  0  0  0  0
   12.1000    1.3970   23.4890 C   0  0  0  0  0  0  0  0  0  0  0  0
    9.0830   -5.9360   26.3460 C   0  0  0  0  0  0  0  0  0  0  0  0
    8.1010   -5.4360   27.1770 C   0  0  0  0  0  0  0  0  0  0  0  0
    7.1920   -6.1340   28.4410 Cl  0  0  0  0  0  0  0  0  0  0  0  0
  1  2  1  0
  1  3  2  0
  1  4  1  0
  4  5  1  0
  4  6  1  0
  5  7  1  0
  6  8  1  0
  6  9  1  6
  5 10  1  6
  7 11  1  0
  8 11  1  0
  9 12  1  0
  9 13  1  0
 12 13  1  0
 10 14  1  0
 11 15  1  0
 14 16  2  0
 14 17  1  0
 15 18  1  1
 15 19  1  0
 17 20  2  0
 16 21  1  0
 19 22  2  0
 19 23  1  0
 18 24  1  0
 20 25  1  0
 21 25  2  0
 23 26  1  0
 22 27  1  0
 23 28  2  0
 24 29  2  0
 24 30  1  0
 27 31  2  0
 28 31  1  0
 29 32  1  0
 30 33  1  0
 32 33  2  0
 33 34  1  0
M  END
