x0395_1-x1385_1
     RDKit          3D

 17 18  0  0  0  0  0  0  0  0999 V2000
    6.3090   -3.3470   19.9220 C   0  0  0  0  0  0  0  0  0  0  0  0
    7.3090   -2.9650   18.8330 C   0  0  0  0  0  0  0  0  0  0  0  0
    5.3280   -4.0490   19.6780 O   0  0  0  0  0  0  0  0  0  0  0  0
    6.5470   -2.9420   21.2400 N   0  0  0  0  0  0  0  0  0  0  0  0
    6.2450   -3.7300   22.3080 C   0  0  0  0  0  0  0  0  0  0  0  0
    7.3990   -1.7610   21.5280 C   0  0  0  0  0  0  0  0  0  0  0  0
    7.3200   -3.9010   23.3720 C   0  0  0  0  0  0  0  0  0  0  0  0
    8.5290   -2.1020   22.3270 C   0  0  2  0  0  0  0  0  0  0  0  0
    8.0780   -2.6770   23.5070 N   0  0  0  0  0  0  0  0  0  0  0  0
    8.9610   -0.6990   22.8770 C   0  0  0  0  0  0  0  0  0  0  0  0
   10.2380   -0.3280   22.6800 N   0  0  0  0  0  0  0  0  0  0  0  0
   11.1270   -1.4130   22.2680 C   0  0  0  0  0  0  0  0  0  0  0  0
   10.8810    0.2330   23.8700 C   0  0  0  0  0  0  0  0  0  0  0  0
   12.5740   -0.9970   22.2720 C   0  0  0  0  0  0  0  0  0  0  0  0
   11.8640    1.0680   23.3440 C   0  0  0  0  0  0  0  0  0  0  0  0
   13.5000   -1.8020   21.7510 F   0  0  0  0  0  0  0  0  0  0  0  0
   12.8850    0.2520   22.8240 C   0  0  0  0  0  0  0  0  0  0  0  0
  1  2  1  0
  1  3  2  0
  1  4  1  0
  4  5  1  0
  4  6  1  0
  5  7  1  0
  6  8  1  0
  7  9  1  0
  8  9  1  0
  8 10  1  1
 10 11  1  0
 11 12  1  0
 11 13  1  0
 12 14  1  0
 13 15  1  0
 14 16  1  0
 14 17  2  0
 15 17  1  0
M  END
