x0397_0-x0770_1-x1385_1-x1386_1-x0831_1-x0831_0-x1334_0
     RDKit          3D

 27 30  0  0  0  0  0  0  0  0999 V2000
    6.2060   -3.3020   19.9150 C   0  0  0  0  0  0  0  0  0  0  0  0
    7.1760   -2.9750   18.7970 C   0  0  0  0  0  0  0  0  0  0  0  0
    5.3030   -4.1260   19.7180 O   0  0  0  0  0  0  0  0  0  0  0  0
    6.3970   -2.6900   21.1430 N   0  0  0  0  0  0  0  0  0  0  0  0
    6.9470   -1.3460   21.2630 C   0  0  0  0  0  0  0  0  0  0  0  0
    6.8980   -3.6320   22.1440 C   0  0  1  0  0  0  0  0  0  0  0  0
    8.2990   -1.3040   21.9520 C   0  0  0  0  0  0  0  0  0  0  0  0
    7.4820   -3.0510   23.4410 C   0  0  0  0  0  0  0  0  0  0  0  0
    5.8480   -4.6740   22.4510 C   0  0  0  0  0  0  0  0  0  0  0  0
    8.4050   -1.9290   23.2870 N   0  0  0  0  0  0  0  0  0  0  0  0
    6.2020   -5.8760   23.1940 C   0  0  0  0  0  0  0  0  0  0  0  0
    5.9900   -6.1700   21.9980 C   0  0  0  0  0  0  0  0  0  0  0  0
    9.8210   -2.2570   23.3320 C   0  0  2  0  0  0  0  0  0  0  0  0
   10.4480   -3.1890   24.3380 C   0  0  0  0  0  0  0  0  0  0  0  0
   10.6280   -0.9490   23.3640 C   0  0  0  0  0  0  0  0  0  0  0  0
   10.0530    0.3760   23.9160 C   0  0  0  0  0  0  0  0  0  0  0  0
   12.0700   -0.8610   22.8510 C   0  0  0  0  0  0  0  0  0  0  0  0
    9.6530   -4.0580   25.2770 C   0  0  0  0  0  0  0  0  0  0  0  0
   12.7970   -2.0340   22.2690 C   0  0  0  0  0  0  0  0  0  0  0  0
   10.9770    1.6040   23.8910 C   0  0  0  0  0  0  0  0  0  0  0  0
   12.7930    0.4390   22.9210 C   0  0  0  0  0  0  0  0  0  0  0  0
   10.0200   -5.4760   25.6120 C   0  0  0  0  0  0  0  0  0  0  0  0
    8.2030   -3.7030   26.1990 S   0  0  0  0  0  0  0  0  0  0  0  0
   12.2790    1.5820   23.4030 C   0  0  0  0  0  0  0  0  0  0  0  0
    9.0680   -6.0140   26.5790 C   0  0  0  0  0  0  0  0  0  0  0  0
    8.0910   -5.2380   26.9870 C   0  0  0  0  0  0  0  0  0  0  0  0
    6.8670   -5.6150   28.1170 Cl  0  0  0  0  0  0  0  0  0  0  0  0
  1  2  1  0
  1  3  2  0
  1  4  1  0
  4  5  1  0
  4  6  1  0
  5  7  1  0
  6  8  1  0
  6  9  1  1
  7 10  1  0
  8 10  1  0
  9 11  1  0
  9 12  1  0
 11 12  1  0
 10 13  1  0
 13 14  1  1
 13 15  1  0
 15 16  2  0
 15 17  1  0
 14 18  1  0
 17 19  1  0
 16 20  1  0
 17 21  2  0
 18 22  2  0
 18 23  1  0
 20 24  2  0
 21 24  1  0
 22 25  1  0
 23 26  1  0
 25 26  2  0
 26 27  1  0
M  END
