x0397_0-x0770_1-x0831_0-x1418_1-x0692_1-x0434_2-x1334_1
     RDKit          3D

 27 30  0  0  0  0  0  0  0  0999 V2000
    6.3460   -3.3670   19.8960 C   0  0  0  0  0  0  0  0  0  0  0  0
    7.3200   -3.0750   18.7580 C   0  0  0  0  0  0  0  0  0  0  0  0
    5.4030   -4.1630   19.7610 O   0  0  0  0  0  0  0  0  0  0  0  0
    6.6290   -2.6940   21.0920 N   0  0  0  0  0  0  0  0  0  0  0  0
    7.6900   -1.6640   20.8790 C   0  0  2  0  0  0  0  0  0  0  0  0
    6.5740   -3.3970   22.3950 C   0  0  2  0  0  0  0  0  0  0  0  0
    8.9780   -1.9450   21.6610 C   0  0  0  0  0  0  0  0  0  0  0  0
    7.7180   -3.1040   23.4150 C   0  0  0  0  0  0  0  0  0  0  0  0
    6.5650   -4.8660   22.0480 C   0  0  0  0  0  0  0  0  0  0  0  0
    7.3540   -0.1850   20.7880 C   0  0  0  0  0  0  0  0  0  0  0  0
    8.7770   -2.1570   23.0730 N   0  0  0  0  0  0  0  0  0  0  0  0
    6.5340   -5.8190   22.8890 C   0  0  0  0  0  0  0  0  0  0  0  0
    5.2930   -5.8490   22.1080 C   0  0  0  0  0  0  0  0  0  0  0  0
    7.0350    0.2300   19.3600 C   0  0  0  0  0  0  0  0  0  0  0  0
   10.0590   -2.2740   23.7430 C   0  0  0  0  0  0  0  0  0  0  0  0
    5.9980    0.4490   20.3070 C   0  0  0  0  0  0  0  0  0  0  0  0
    6.4610    0.7020   18.1750 N   0  0  0  0  0  0  0  0  0  0  0  0
   10.8690   -1.0080   23.6130 C   0  0  0  0  0  0  0  0  0  0  0  0
    5.2620    1.2510   17.8910 C   0  0  0  0  0  0  0  0  0  0  0  0
    4.7330    0.9840   20.1780 C   0  0  0  0  0  0  0  0  0  0  0  0
   10.2580    0.2630   24.2250 C   0  0  0  0  0  0  0  0  0  0  0  0
   12.1230   -0.9610   22.9600 C   0  0  0  0  0  0  0  0  0  0  0  0
    4.2040    1.4700   18.8880 C   0  0  0  0  0  0  0  0  0  0  0  0
   12.7740   -2.1570   22.3300 C   0  0  0  0  0  0  0  0  0  0  0  0
   10.9670    1.5160   24.1240 C   0  0  0  0  0  0  0  0  0  0  0  0
   12.7740    0.2510   22.8930 C   0  0  0  0  0  0  0  0  0  0  0  0
   12.1890    1.5120   23.4800 C   0  0  0  0  0  0  0  0  0  0  0  0
  1  2  1  0
  1  3  2  0
  1  4  1  0
  4  5  1  0
  4  6  1  0
  5  7  1  0
  6  8  1  0
  6  9  1  6
  5 10  1  1
  7 11  1  0
  8 11  1  0
  9 12  1  0
  9 13  1  0
 12 13  1  0
 10 14  1  0
 11 15  1  0
 14 16  2  0
 14 17  1  0
 15 18  1  0
 17 19  2  0
 16 20  1  0
 18 21  2  0
 18 22  1  0
 19 23  1  0
 20 23  2  0
 22 24  1  0
 21 25  1  0
 22 26  2  0
 25 27  2  0
 26 27  1  0
M  END
