x0395_0-x0397_0
     RDKit          3D

 15 16  0  0  0  0  0  0  0  0999 V2000
    5.7500   -3.1560   20.4120 C   0  0  0  0  0  0  0  0  0  0  0  0
    6.1770   -3.3130   21.7120 N   0  0  0  0  0  0  0  0  0  0  0  0
    6.7190   -2.1570   22.4340 C   0  0  0  0  0  0  0  0  0  0  0  0
    5.3190   -4.0620   19.7020 O   0  0  0  0  0  0  0  0  0  0  0  0
    5.7200   -4.4860   22.4620 C   0  0  0  0  0  0  0  0  0  0  0  0
    8.1250   -1.7600   21.9390 C   0  0  0  0  0  0  0  0  0  0  0  0
    6.7460   -5.4270   23.0570 C   0  0  0  0  0  0  0  0  0  0  0  0
    5.8720   -5.7710   21.8500 C   0  0  0  0  0  0  0  0  0  0  0  0
    8.8380   -1.3030   23.0390 C   0  0  0  0  0  0  0  0  0  0  0  0
    8.7440   -2.2800   24.1530 C   0  0  0  0  0  0  0  0  0  0  0  0
    8.0860   -2.0930   25.4340 N   0  0  0  0  0  0  0  0  0  0  0  0
    9.4760   -3.9090   24.0040 S   0  0  0  0  0  0  0  0  0  0  0  0
    8.1810   -3.2280   26.2180 N   0  0  0  0  0  0  0  0  0  0  0  0
    8.8630   -4.2500   25.6280 C   0  0  0  0  0  0  0  0  0  0  0  0
    9.1180   -5.5700   26.2450 C   0  0  0  0  0  0  0  0  0  0  0  0
  1  2  1  0
  2  3  1  0
  1  4  2  0
  2  5  1  0
  3  6  1  0
  5  7  1  0
  5  8  1  0
  7  8  1  0
  6  9  1  0
  9 10  1  0
 10 11  2  0
 10 12  1  0
 11 13  1  0
 12 14  1  0
 13 14  2  0
 14 15  1  0
M  END
