x0397_0-x0770_1-x1375_1-x1385_1-x0434_2-x0831_1-x0831_0-x0692_1-x1334_1
     RDKit          3D

 31 34  0  0  0  0  0  0  0  0999 V2000
    2.3850   -7.1770   24.2640 O   0  0  0  0  0  0  0  0  0  0  0  0
    3.4760   -7.2050   25.1590 C   0  0  0  0  0  0  0  0  0  0  0  0
    4.7090   -7.1200   24.4750 O   0  0  0  0  0  0  0  0  0  0  0  0
    5.2910   -5.8200   24.5020 C   0  0  0  0  0  0  0  0  0  0  0  0
    6.1040   -5.5350   23.2710 C   0  0  2  0  0  0  0  0  0  0  0  0
    5.7520   -4.4640   22.3260 C   0  0  2  0  0  0  0  0  0  0  0  0
    5.7510   -6.1060   21.9810 C   0  0  0  0  0  0  0  0  0  0  0  0
    7.0140   -3.6170   22.0760 C   0  0  1  0  0  0  0  0  0  0  0  0
    6.7340   -2.7200   21.0760 N   0  0  0  0  0  0  0  0  0  0  0  0
    7.7070   -3.0850   23.2310 C   0  0  0  0  0  0  0  0  0  0  0  0
    6.3730   -3.3550   19.8900 C   0  0  0  0  0  0  0  0  0  0  0  0
    8.7960   -2.0990   22.9710 N   0  0  0  0  0  0  0  0  0  0  0  0
    7.7290   -1.6540   20.8260 C   0  0  2  0  0  0  0  0  0  0  0  0
    7.3190   -3.0550   18.7260 C   0  0  0  0  0  0  0  0  0  0  0  0
    5.4140   -4.1330   19.7550 O   0  0  0  0  0  0  0  0  0  0  0  0
   10.0110   -2.2070   23.7710 C   0  0  0  0  0  0  0  0  0  0  0  0
    9.0470   -1.7270   21.5920 C   0  0  0  0  0  0  0  0  0  0  0  0
    7.1980   -0.2380   20.8070 C   0  0  0  0  0  0  0  0  0  0  0  0
   10.7300   -0.8990   23.7400 C   0  0  0  0  0  0  0  0  0  0  0  0
    6.9770    0.1970   19.3510 C   0  0  0  0  0  0  0  0  0  0  0  0
   10.3130    0.2950   24.2800 C   0  0  0  0  0  0  0  0  0  0  0  0
   11.9760   -0.9610   23.0380 C   0  0  0  0  0  0  0  0  0  0  0  0
    5.8960    0.4550   20.2400 C   0  0  0  0  0  0  0  0  0  0  0  0
    6.4540    0.7060   18.1500 N   0  0  0  0  0  0  0  0  0  0  0  0
   12.5000   -2.2200   22.4160 C   0  0  0  0  0  0  0  0  0  0  0  0
   11.1230    1.3830   24.1020 C   0  0  0  0  0  0  0  0  0  0  0  0
   12.7670    0.1840   22.8960 C   0  0  0  0  0  0  0  0  0  0  0  0
    5.2760    1.2970   17.8730 C   0  0  0  0  0  0  0  0  0  0  0  0
    4.6780    1.0390   20.0180 C   0  0  0  0  0  0  0  0  0  0  0  0
   12.3310    1.3910   23.4370 C   0  0  0  0  0  0  0  0  0  0  0  0
    4.3110    1.4950   18.8070 C   0  0  0  0  0  0  0  0  0  0  0  0
  1  2  1  0
  2  3  1  0
  3  4  1  0
  5  4  1  1
  5  6  1  0
  5  7  1  0
  6  7  1  6
  6  8  1  0
  8  9  1  0
  8 10  1  1
  9 11  1  0
 10 12  1  0
  9 13  1  0
 11 14  1  0
 11 15  2  0
 12 16  1  0
 12 17  1  0
 13 17  1  0
 13 18  1  1
 16 19  1  0
 18 20  1  0
 19 21  2  0
 19 22  1  0
 20 23  2  0
 20 24  1  0
 22 25  1  0
 21 26  1  0
 22 27  2  0
 24 28  2  0
 23 29  1  0
 26 30  2  0
 27 30  1  0
 28 31  1  0
 29 31  2  0
M  END
