x0397_0-x0426_1-x1334_0-x1418_1-x0434_2-x0692_1-x0770_1-x1412_1-x0831_0-x1374_1-x1334_1
     RDKit          3D

 43 48  0  0  0  0  0  0  0  0999 V2000
    2.2180   -7.7280   23.3230 O   0  0  0  0  0  0  0  0  0  0  0  0
    2.4410   -8.0520   24.6800 C   0  0  0  0  0  0  0  0  0  0  0  0
    3.8290   -7.9620   24.9070 O   0  0  0  0  0  0  0  0  0  0  0  0
    4.4540   -7.2550   23.8520 C   0  0  0  0  0  0  0  0  0  0  0  0
    4.8950   -6.0540   24.3010 C   0  0  0  0  0  0  0  0  0  0  0  0
    6.0420   -5.7620   23.3800 C   0  0  2  0  0  0  0  0  0  0  0  0
    5.9280   -4.6720   22.4370 C   0  0  2  0  0  0  0  0  0  0  0  0
    6.1360   -6.2730   22.1430 C   0  0  0  0  0  0  0  0  0  0  0  0
    7.0340   -3.6360   22.2470 C   0  0  2  0  0  0  0  0  0  0  0  0
    7.0750   -2.7010   23.4720 C   0  0  0  0  0  0  0  0  0  0  0  0
    6.8950   -2.7960   21.1330 N   0  0  0  0  0  0  0  0  0  0  0  0
    6.5310   -3.2680   19.8820 C   0  0  0  0  0  0  0  0  0  0  0  0
    8.3350   -2.0330   23.3820 N   0  0  0  0  0  0  0  0  0  0  0  0
    7.3610   -1.5130   21.2410 C   0  0  1  0  0  0  0  0  0  0  0  0
    7.4400   -2.9870   18.7220 C   0  0  0  0  0  0  0  0  0  0  0  0
    5.5170   -3.9730   19.6870 O   0  0  0  0  0  0  0  0  0  0  0  0
    5.9990   -0.6220   21.3930 C   0  0  1  0  0  0  0  0  0  0  0  0
    9.3460   -3.0790   23.6650 C   0  0  1  0  0  0  0  0  0  0  0  0
    8.5130   -1.4090   22.0130 C   0  0  0  0  0  0  0  0  0  0  0  0
    5.8950    0.4270   22.4990 C   0  0  0  0  0  0  0  0  0  0  0  0
   10.7930   -2.6040   23.7760 C   0  0  0  0  0  0  0  0  0  0  0  0
    5.7340    0.1450   20.1030 C   0  0  0  0  0  0  0  0  0  0  0  0
    9.0980   -3.9740   24.8000 C   0  0  0  0  0  0  0  0  0  0  0  0
    4.4430    1.0390   22.5360 C   0  0  1  0  0  0  0  0  0  0  0  0
    4.6780    1.0340   20.0180 C   0  0  0  0  0  0  0  0  0  0  0  0
    6.6060   -0.0420   18.9110 C   0  0  0  0  0  0  0  0  0  0  0  0
    9.7390   -5.2990   25.1530 C   0  0  0  0  0  0  0  0  0  0  0  0
    7.8870   -3.7570   26.2030 S   0  0  0  0  0  0  0  0  0  0  0  0
   11.1290   -1.1330   23.7240 C   0  0  0  0  0  0  0  0  0  0  0  0
    4.4040    2.1930   23.4240 N   0  0  0  0  0  0  0  0  0  0  0  0
    3.7470    1.2810   21.1720 C   0  0  0  0  0  0  0  0  0  0  0  0
    4.4490    1.7290   18.8490 C   0  0  0  0  0  0  0  0  0  0  0  0
    6.3520    0.6970   17.6770 N   0  0  0  0  0  0  0  0  0  0  0  0
    9.2430   -5.9280   26.3690 C   0  0  0  0  0  0  0  0  0  0  0  0
    8.2660   -5.2390   27.0240 C   0  0  0  0  0  0  0  0  0  0  0  0
   10.3590   -0.2240   24.3500 C   0  0  0  0  0  0  0  0  0  0  0  0
   12.2180   -0.7780   23.0390 C   0  0  0  0  0  0  0  0  0  0  0  0
    7.4500   -5.6740   28.4600 Cl  0  0  0  0  0  0  0  0  0  0  0  0
   13.0520   -1.8040   22.3350 C   0  0  0  0  0  0  0  0  0  0  0  0
    5.3170    1.5500   17.6470 C   0  0  0  0  0  0  0  0  0  0  0  0
   10.8030    1.2200   24.2300 C   0  0  0  0  0  0  0  0  0  0  0  0
   12.6320    0.5280   22.9380 C   0  0  0  0  0  0  0  0  0  0  0  0
   11.9590    1.5650   23.5130 C   0  0  0  0  0  0  0  0  0  0  0  0
  1  2  1  0
  2  3  1  0
  3  4  1  0
  4  5  1  0
  6  5  1  6
  6  7  1  0
  6  8  1  0
  7  8  1  6
  7  9  1  0
  9 10  1  1
  9 11  1  0
 11 12  1  0
 10 13  1  0
 11 14  1  0
 12 15  1  0
 12 16  2  0
 14 17  1  0
 13 18  1  0
 13 19  1  0
 14 19  1  1
 17 20  1  1
 18 21  1  1
 17 22  1  0
 18 23  1  0
 20 24  1  0
 22 25  2  0
 22 26  1  0
 23 27  2  0
 23 28  1  0
 21 29  1  0
 24 30  1  6
 24 31  1  0
 25 31  1  0
 25 32  1  0
 26 33  2  0
 27 34  1  0
 28 35  1  0
 34 35  2  0
 29 36  2  0
 29 37  1  0
 35 38  1  0
 37 39  1  0
 32 40  2  0
 33 40  1  0
 36 41  1  0
 37 42  2  0
 41 43  2  0
 42 43  1  0
M  END
