x0397_0-x1412_1-x1385_1-x0770_1-x1334_1-x0387_0-x0736_1-x0874_0-x1412_0-x0434_2
     RDKit          3D

 32 36  0  0  0  0  0  0  0  0999 V2000
    6.3670   -3.3640   19.9590 C   0  0  0  0  0  0  0  0  0  0  0  0
    7.3130   -3.0590   18.8310 C   0  0  0  0  0  0  0  0  0  0  0  0
    5.4330   -4.1600   19.7730 O   0  0  0  0  0  0  0  0  0  0  0  0
    6.6470   -2.7100   21.1850 N   0  0  0  0  0  0  0  0  0  0  0  0
    7.7270   -1.6910   21.2350 C   0  0  1  0  0  0  0  0  0  0  0  0
    6.5490   -3.4670   22.4250 C   0  0  2  0  0  0  0  0  0  0  0  0
    7.1380   -0.3590   21.3180 N   0  0  0  0  0  0  0  0  0  0  0  0
    8.7640   -1.7300   22.3670 C   0  0  0  0  0  0  0  0  0  0  0  0
    7.9390   -3.8920   22.8820 C   0  0  0  0  0  0  0  0  0  0  0  0
    5.6330   -4.7190   22.3160 C   0  0  0  0  0  0  0  0  0  0  0  0
    8.8130   -2.7690   23.2390 N   0  0  0  0  0  0  0  0  0  0  0  0
    5.9690   -6.0950   23.1890 C   0  0  0  0  0  0  0  0  0  0  0  0
    6.0730   -6.0000   21.7490 C   0  0  0  0  0  0  0  0  0  0  0  0
    6.5130    0.1840   20.1920 C   0  0  0  0  0  0  0  0  0  0  0  0
    8.7280   -2.3820   24.6400 C   0  0  2  0  0  0  0  0  0  0  0  0
    6.9570    0.0340   18.8040 C   0  0  0  0  0  0  0  0  0  0  0  0
    5.2410    1.0360   20.2870 C   0  0  0  0  0  0  0  0  0  0  0  0
    7.7000   -1.7930   24.9480 O   0  0  0  0  0  0  0  0  0  0  0  0
    9.9960   -1.5120   25.0190 C   0  0  0  0  0  0  0  0  0  0  0  0
    8.7760   -3.6020   25.5620 C   0  0  0  0  0  0  0  0  0  0  0  0
    6.3080    0.6030   17.7750 N   0  0  0  0  0  0  0  0  0  0  0  0
    4.6870    1.5460   19.1810 C   0  0  0  0  0  0  0  0  0  0  0  0
    9.5970   -4.6460   25.3920 C   0  0  0  0  0  0  0  0  0  0  0  0
    7.7670   -3.9180   27.0520 S   0  0  0  0  0  0  0  0  0  0  0  0
   11.1210   -1.3230   23.9680 C   0  0  0  0  0  0  0  0  0  0  0  0
    5.1840    1.3600   17.9320 C   0  0  0  0  0  0  0  0  0  0  0  0
    9.5240   -5.6810   26.3130 C   0  0  0  0  0  0  0  0  0  0  0  0
    8.4960   -5.4470   27.3950 C   0  0  0  0  0  0  0  0  0  0  0  0
   12.0910   -0.0270   23.9360 C   0  0  0  0  0  0  0  0  0  0  0  0
   11.5230   -2.2940   22.8150 C   0  0  0  0  0  0  0  0  0  0  0  0
   13.1250   -0.1000   22.8170 C   0  0  0  0  0  0  0  0  0  0  0  0
   12.8960   -1.5370   21.9790 S   0  0  0  0  0  0  0  0  0  0  0  0
  1  2  1  0
  1  3  2  0
  1  4  1  0
  4  5  1  0
  4  6  1  0
  5  7  1  1
  5  8  1  0
  6  9  1  0
  6 10  1  6
  8 11  1  0
  9 11  1  0
 10 12  1  0
 10 13  1  0
 12 13  1  0
  7 14  1  0
 11 15  1  0
 14 16  2  0
 14 17  1  0
 15 18  1  6
 15 19  1  0
 15 20  1  0
 16 21  1  0
 17 22  2  0
 20 23  2  0
 20 24  1  0
 19 25  1  0
 21 26  2  0
 22 26  1  0
 23 27  1  0
 24 28  1  0
 27 28  2  0
 25 29  1  0
 25 30  2  0
 29 31  2  0
 30 32  1  0
 31 32  1  0
M  END
