x0395_1-x1334_1
     RDKit          3D

 17 18  0  0  0  0  0  0  0  0999 V2000
    6.2030   -3.3390   19.9110 C   0  0  0  0  0  0  0  0  0  0  0  0
    7.1920   -2.9880   18.8070 C   0  0  0  0  0  0  0  0  0  0  0  0
    5.3180   -4.1730   19.7250 O   0  0  0  0  0  0  0  0  0  0  0  0
    6.3390   -2.7180   21.1460 N   0  0  0  0  0  0  0  0  0  0  0  0
    7.2660   -1.5550   21.2610 C   0  0  0  0  0  0  0  0  0  0  0  0
    6.0490   -3.3920   22.4090 C   0  0  0  0  0  0  0  0  0  0  0  0
    8.5420   -1.9550   22.0500 C   0  0  2  0  0  0  0  0  0  0  0  0
    7.3260   -3.7640   23.1390 C   0  0  0  0  0  0  0  0  0  0  0  0
    8.2030   -2.6000   23.3430 N   0  0  0  0  0  0  0  0  0  0  0  0
    9.4520   -0.7510   22.0920 C   0  0  0  0  0  0  0  0  0  0  0  0
   10.4450   -0.9120   23.1410 N   0  0  0  0  0  0  0  0  0  0  0  0
   11.5700   -1.7670   22.7560 C   0  0  0  0  0  0  0  0  0  0  0  0
   10.6600    0.2670   23.9810 C   0  0  0  0  0  0  0  0  0  0  0  0
   12.6530   -1.0090   22.3600 C   0  0  0  0  0  0  0  0  0  0  0  0
   11.9070    0.9670   23.5320 C   0  0  0  0  0  0  0  0  0  0  0  0
   13.5610   -1.5690   21.5770 F   0  0  0  0  0  0  0  0  0  0  0  0
   12.8050    0.2630   22.7390 C   0  0  0  0  0  0  0  0  0  0  0  0
  1  2  1  0
  1  3  2  0
  1  4  1  0
  4  5  1  0
  4  6  1  0
  5  7  1  0
  6  8  1  0
  7  9  1  0
  8  9  1  0
  7 10  1  1
 10 11  1  0
 11 12  1  0
 11 13  1  0
 12 14  1  0
 13 15  1  0
 14 16  1  0
 14 17  2  0
 15 17  1  0
M  END
