x0397_0-x1418_1-x0831_0-x1334_0-x1334_1-x0770_1-x1386_1-x1374_1-x0426_1-x0434_2-x0692_1
     RDKit          3D

 43 48  0  0  0  0  0  0  0  0999 V2000
    2.1030   -7.1240   23.7710 O   0  0  0  0  0  0  0  0  0  0  0  0
    2.6280   -7.2930   25.0780 C   0  0  0  0  0  0  0  0  0  0  0  0
    3.9950   -7.6550   24.9660 O   0  0  0  0  0  0  0  0  0  0  0  0
    4.5890   -7.0360   23.8320 C   0  0  0  0  0  0  0  0  0  0  0  0
    5.4420   -5.8450   24.1020 C   0  0  0  0  0  0  0  0  0  0  0  0
    6.3040   -5.9210   22.8860 C   0  0  2  0  0  0  0  0  0  0  0  0
    6.7180   -4.8630   21.9960 C   0  0  1  0  0  0  0  0  0  0  0  0
    5.4930   -5.8680   21.5820 C   0  0  0  0  0  0  0  0  0  0  0  0
    6.5660   -3.3750   22.4170 C   0  0  1  0  0  0  0  0  0  0  0  0
    7.6440   -3.0790   23.4610 C   0  0  0  0  0  0  0  0  0  0  0  0
    6.4450   -2.6970   21.2550 N   0  0  0  0  0  0  0  0  0  0  0  0
    6.3090   -3.3370   19.9830 C   0  0  0  0  0  0  0  0  0  0  0  0
    8.5680   -1.9810   23.1020 N   0  0  0  0  0  0  0  0  0  0  0  0
    7.0550   -1.3550   21.2250 C   0  0  1  0  0  0  0  0  0  0  0  0
    7.3000   -2.9990   18.8760 C   0  0  0  0  0  0  0  0  0  0  0  0
    5.4240   -4.1730   19.7690 O   0  0  0  0  0  0  0  0  0  0  0  0
    6.1880   -0.1580   21.5170 C   0  0  2  0  0  0  0  0  0  0  0  0
    9.9860   -2.2270   23.3660 C   0  0  2  0  0  0  0  0  0  0  0  0
    8.3730   -1.4620   21.7640 C   0  0  0  0  0  0  0  0  0  0  0  0
    4.9670   -0.3750   22.4130 C   0  0  0  0  0  0  0  0  0  0  0  0
   10.4250   -3.2650   24.3800 C   0  0  0  0  0  0  0  0  0  0  0  0
    5.8100    0.4470   20.1880 C   0  0  0  0  0  0  0  0  0  0  0  0
   10.8230   -0.9300   23.3850 C   0  0  0  0  0  0  0  0  0  0  0  0
    3.9300    0.7950   22.4610 C   0  0  1  0  0  0  0  0  0  0  0  0
    4.6560    1.2140   20.0090 C   0  0  0  0  0  0  0  0  0  0  0  0
    6.7140    0.2280   18.9470 C   0  0  0  0  0  0  0  0  0  0  0  0
   10.2000    0.2350   23.9020 C   0  0  0  0  0  0  0  0  0  0  0  0
   12.1290   -0.8890   22.9060 C   0  0  0  0  0  0  0  0  0  0  0  0
    9.4970   -3.9520   25.3380 C   0  0  0  0  0  0  0  0  0  0  0  0
    4.3390    1.8810   23.4560 N   0  0  0  0  0  0  0  0  0  0  0  0
    3.6510    1.5300   21.0740 C   0  0  0  0  0  0  0  0  0  0  0  0
   12.7960   -2.1050   22.3430 C   0  0  0  0  0  0  0  0  0  0  0  0
    4.4220    1.7080   18.8100 C   0  0  0  0  0  0  0  0  0  0  0  0
    6.4550    0.7320   17.7420 N   0  0  0  0  0  0  0  0  0  0  0  0
   10.9190    1.3960   23.9180 C   0  0  0  0  0  0  0  0  0  0  0  0
   12.9480    0.3760   22.9140 C   0  0  0  0  0  0  0  0  0  0  0  0
    9.9730   -5.3490   25.5370 C   0  0  0  0  0  0  0  0  0  0  0  0
    8.1170   -3.6720   26.2750 S   0  0  0  0  0  0  0  0  0  0  0  0
    5.3400    1.4650   17.6620 C   0  0  0  0  0  0  0  0  0  0  0  0
   12.1790    1.5550   23.4850 C   0  0  0  0  0  0  0  0  0  0  0  0
    9.1010   -6.0300   26.5200 C   0  0  0  0  0  0  0  0  0  0  0  0
    8.0860   -5.2500   26.9980 C   0  0  0  0  0  0  0  0  0  0  0  0
    6.8950   -5.6760   28.1540 Cl  0  0  0  0  0  0  0  0  0  0  0  0
  1  2  1  0
  2  3  1  0
  3  4  1  0
  4  5  1  0
  6  5  1  1
  6  7  1  0
  6  8  1  0
  7  8  1  6
  7  9  1  0
  9 10  1  6
  9 11  1  0
 11 12  1  0
 10 13  1  0
 11 14  1  0
 12 15  1  0
 12 16  2  0
 14 17  1  0
 13 18  1  0
 13 19  1  0
 14 19  1  1
 17 20  1  6
 18 21  1  1
 17 22  1  0
 18 23  1  0
 20 24  1  0
 22 25  2  0
 22 26  1  0
 23 27  2  0
 23 28  1  0
 21 29  1  0
 24 30  1  1
 24 31  1  0
 25 31  1  0
 28 32  1  0
 25 33  1  0
 26 34  2  0
 27 35  1  0
 28 36  2  0
 29 37  2  0
 29 38  1  0
 33 39  2  0
 34 39  1  0
 35 40  2  0
 36 40  1  0
 37 41  1  0
 38 42  1  0
 41 42  2  0
 42 43  1  0
M  END
