x0395_1-x0770_1-x0397_0
     RDKit          3D

 20 22  0  0  0  0  0  0  0  0999 V2000
    6.1350   -3.3930   19.9460 C   0  0  0  0  0  0  0  0  0  0  0  0
    7.1750   -3.0250   18.8820 C   0  0  0  0  0  0  0  0  0  0  0  0
    5.2530   -4.2230   19.7530 O   0  0  0  0  0  0  0  0  0  0  0  0
    6.2980   -2.7220   21.1750 N   0  0  0  0  0  0  0  0  0  0  0  0
    7.0450   -1.4090   21.1460 C   0  0  0  0  0  0  0  0  0  0  0  0
    6.8640   -3.6640   22.1620 C   0  0  1  0  0  0  0  0  0  0  0  0
    8.4470   -1.6040   21.7760 C   0  0  0  0  0  0  0  0  0  0  0  0
    7.3320   -3.0050   23.4680 C   0  0  0  0  0  0  0  0  0  0  0  0
    5.8800   -4.7670   22.4430 C   0  0  0  0  0  0  0  0  0  0  0  0
    8.3430   -1.9900   23.1870 N   0  0  0  0  0  0  0  0  0  0  0  0
    6.1480   -5.6550   23.2790 C   0  0  0  0  0  0  0  0  0  0  0  0
    6.0630   -6.1180   21.8820 C   0  0  0  0  0  0  0  0  0  0  0  0
    9.4800   -1.7820   23.9490 C   0  0  0  0  0  0  0  0  0  0  0  0
   10.3160   -0.8250   23.2420 N   0  0  0  0  0  0  0  0  0  0  0  0
   11.3030   -1.5380   22.3970 C   0  0  0  0  0  0  0  0  0  0  0  0
   10.9450    0.1260   24.1540 C   0  0  0  0  0  0  0  0  0  0  0  0
   12.5580   -0.9330   22.2900 C   0  0  0  0  0  0  0  0  0  0  0  0
   11.8610    1.0610   23.3630 C   0  0  0  0  0  0  0  0  0  0  0  0
   13.5200   -1.6390   21.6820 F   0  0  0  0  0  0  0  0  0  0  0  0
   12.8810    0.3400   22.7520 C   0  0  0  0  0  0  0  0  0  0  0  0
  1  2  1  0
  1  3  2  0
  1  4  1  0
  4  5  1  0
  4  6  1  0
  5  7  1  0
  6  8  1  0
  6  9  1  1
  7 10  1  0
  8 10  1  0
  9 11  1  0
  9 12  1  0
 11 12  1  0
 10 13  1  0
 13 14  1  0
 14 15  1  0
 14 16  1  0
 15 17  1  0
 16 18  1  0
 17 19  1  0
 17 20  2  0
 18 20  1  0
M  END
