x0397_0-x0770_1-x1375_1-x0831_0-x1418_1-x0692_1-x1334_1
     RDKit          3D

 24 26  0  0  0  0  0  0  0  0999 V2000
    2.5400   -7.5610   23.7710 O   0  0  0  0  0  0  0  0  0  0  0  0
    3.1830   -7.0570   24.9310 C   0  0  0  0  0  0  0  0  0  0  0  0
    4.5640   -7.2540   24.7770 O   0  0  0  0  0  0  0  0  0  0  0  0
    5.0010   -7.0260   23.4440 C   0  0  0  0  0  0  0  0  0  0  0  0
    5.8940   -5.8700   23.1530 C   0  0  2  0  0  0  0  0  0  0  0  0
    5.5370   -4.5950   22.3400 C   0  0  2  0  0  0  0  0  0  0  0  0
    6.2610   -5.7930   21.6880 C   0  0  0  0  0  0  0  0  0  0  0  0
    6.2860   -3.2710   22.5070 C   0  0  2  0  0  0  0  0  0  0  0  0
    6.4040   -2.6240   21.1770 N   0  0  0  0  0  0  0  0  0  0  0  0
    7.6450   -3.3640   23.2150 C   0  0  0  0  0  0  0  0  0  0  0  0
    6.2490   -3.2990   19.9660 C   0  0  0  0  0  0  0  0  0  0  0  0
    8.5050   -2.1480   23.1270 N   0  0  0  0  0  0  0  0  0  0  0  0
    7.0990   -1.3540   21.2720 C   0  0  0  0  0  0  0  0  0  0  0  0
    7.1980   -2.9960   18.8350 C   0  0  0  0  0  0  0  0  0  0  0  0
    5.3790   -4.1640   19.7770 O   0  0  0  0  0  0  0  0  0  0  0  0
    9.7980   -2.3940   23.5150 C   0  0  0  0  0  0  0  0  0  0  0  0
    8.5120   -1.6200   21.8650 C   0  0  0  0  0  0  0  0  0  0  0  0
   10.6340   -1.1390   23.4960 C   0  0  0  0  0  0  0  0  0  0  0  0
   10.1680    0.0920   24.0790 C   0  0  0  0  0  0  0  0  0  0  0  0
   12.0640   -0.9890   22.8510 C   0  0  0  0  0  0  0  0  0  0  0  0
   12.7550   -2.1360   22.1730 C   0  0  0  0  0  0  0  0  0  0  0  0
   10.8720    1.4580   24.1280 C   0  0  0  0  0  0  0  0  0  0  0  0
   12.7790    0.3330   22.8900 C   0  0  0  0  0  0  0  0  0  0  0  0
   12.2990    1.4960   23.4500 C   0  0  0  0  0  0  0  0  0  0  0  0
  1  2  1  0
  2  3  1  0
  3  4  1  0
  5  4  1  6
  5  6  1  0
  5  7  1  0
  6  7  1  6
  6  8  1  0
  8  9  1  0
  8 10  1  6
  9 11  1  0
 10 12  1  0
  9 13  1  0
 11 14  1  0
 11 15  2  0
 12 16  1  0
 12 17  1  0
 13 17  1  0
 16 18  1  0
 18 19  2  0
 18 20  1  0
 20 21  1  0
 19 22  1  0
 20 23  2  0
 22 24  2  0
 23 24  1  0
M  END
