x0397_0-x0770_1-x1385_1-x0426_1-x1374_1-x1386_1-x0831_1-x0831_0-x1334_0-x0434_2-x1412_1-x1334_1
     RDKit          3D

 44 49  0  0  0  0  0  0  0  0999 V2000
    2.0500   -6.9980   23.8270 O   0  0  0  0  0  0  0  0  0  0  0  0
    2.4770   -7.8830   24.8430 C   0  0  0  0  0  0  0  0  0  0  0  0
    3.8880   -7.9550   24.9190 O   0  0  0  0  0  0  0  0  0  0  0  0
    4.4870   -7.2060   23.8700 C   0  0  0  0  0  0  0  0  0  0  0  0
    4.9710   -6.0320   24.3680 C   0  0  0  0  0  0  0  0  0  0  0  0
    6.0600   -5.5920   23.4450 C   0  0  2  0  0  0  0  0  0  0  0  0
    5.9830   -4.6490   22.5610 C   0  0  2  0  0  0  0  0  0  0  0  0
    6.1800   -6.2810   22.3330 C   0  0  0  0  0  0  0  0  0  0  0  0
    6.9300   -3.6630   22.1720 C   0  0  1  0  0  0  0  0  0  0  0  0
    6.3580   -2.6930   21.2170 N   0  0  0  0  0  0  0  0  0  0  0  0
    7.5070   -3.0480   23.3490 C   0  0  0  0  0  0  0  0  0  0  0  0
    6.2460   -3.2050   19.9090 C   0  0  0  0  0  0  0  0  0  0  0  0
    8.4690   -1.9160   23.1400 N   0  0  0  0  0  0  0  0  0  0  0  0
    6.7340   -1.3240   21.6790 C   0  0  2  0  0  0  0  0  0  0  0  0
    7.2940   -2.9460   18.8300 C   0  0  0  0  0  0  0  0  0  0  0  0
    5.2970   -3.9540   19.6320 O   0  0  0  0  0  0  0  0  0  0  0  0
    6.2510    0.0800   21.4130 C   0  0  1  0  0  0  0  0  0  0  0  0
    9.8730   -2.2210   23.2050 C   0  0  2  0  0  0  0  0  0  0  0  0
    8.2270   -1.3040   21.8540 C   0  0  0  0  0  0  0  0  0  0  0  0
    5.1760    0.3850   22.4750 C   0  0  0  0  0  0  0  0  0  0  0  0
   10.1940   -3.5060   23.8700 C   0  0  0  0  0  0  0  0  0  0  0  0
    7.4290    1.0530   21.7720 C   0  0  0  0  0  0  0  0  0  0  0  0
    5.8700    0.5850   20.0610 C   0  0  0  0  0  0  0  0  0  0  0  0
   10.6270   -0.9900   23.3980 C   0  0  0  0  0  0  0  0  0  0  0  0
    4.4220    1.7250   22.3650 C   0  0  2  0  0  0  0  0  0  0  0  0
    4.7060    1.3660   19.8750 C   0  0  0  0  0  0  0  0  0  0  0  0
    6.6450    0.3120   19.0060 C   0  0  0  0  0  0  0  0  0  0  0  0
   10.0780    0.0590   24.1100 C   0  0  0  0  0  0  0  0  0  0  0  0
   11.8990   -0.9760   22.7850 C   0  0  0  0  0  0  0  0  0  0  0  0
    9.4940   -4.1350   24.9770 C   0  0  0  0  0  0  0  0  0  0  0  0
    3.4520    1.8740   23.4250 N   0  0  0  0  0  0  0  0  0  0  0  0
    3.7630    1.7100   20.9990 C   0  0  0  0  0  0  0  0  0  0  0  0
   12.5100   -2.0910   22.0120 C   0  0  0  0  0  0  0  0  0  0  0  0
    4.5110    1.7750   18.6530 C   0  0  0  0  0  0  0  0  0  0  0  0
    6.4410    0.7240   17.7430 N   0  0  0  0  0  0  0  0  0  0  0  0
   10.8440    1.2280   24.2140 C   0  0  0  0  0  0  0  0  0  0  0  0
   12.6770    0.2700   22.9280 C   0  0  0  0  0  0  0  0  0  0  0  0
    9.8150   -5.5400   25.4410 C   0  0  0  0  0  0  0  0  0  0  0  0
    8.2110   -3.5850   26.0310 S   0  0  0  0  0  0  0  0  0  0  0  0
    5.2660    1.5400   17.5680 C   0  0  0  0  0  0  0  0  0  0  0  0
   12.1210    1.3370   23.6330 C   0  0  0  0  0  0  0  0  0  0  0  0
    9.0840   -5.9580   26.4850 C   0  0  0  0  0  0  0  0  0  0  0  0
    8.1530   -5.0480   26.9670 C   0  0  0  0  0  0  0  0  0  0  0  0
    7.0820   -5.2810   28.2860 Cl  0  0  0  0  0  0  0  0  0  0  0  0
  1  2  1  0
  2  3  1  0
  3  4  1  0
  4  5  1  0
  6  5  1  6
  6  7  1  0
  6  8  1  0
  7  8  1  6
  7  9  1  0
  9 10  1  0
  9 11  1  1
 10 12  1  0
 11 13  1  0
 10 14  1  0
 12 15  1  0
 12 16  2  0
 14 17  1  0
 13 18  1  0
 13 19  1  0
 14 19  1  6
 17 20  1  0
 18 21  1  1
 17 22  1  1
 17 23  1  0
 18 24  1  0
 20 25  1  0
 23 26  2  0
 23 27  1  0
 24 28  2  0
 24 29  1  0
 21 30  1  0
 25 31  1  1
 25 32  1  0
 26 32  1  0
 29 33  1  0
 26 34  1  0
 27 35  2  0
 28 36  1  0
 29 37  2  0
 30 38  2  0
 30 39  1  0
 34 40  2  0
 35 40  1  0
 36 41  2  0
 37 41  1  0
 38 42  1  0
 39 43  1  0
 42 43  2  0
 43 44  1  0
M  END
