x0395_1-x1348_0
     RDKit          3D

 14 14  0  0  0  0  0  0  0  0999 V2000
    6.6430   -3.6760   21.5490 N   0  0  0  0  0  0  0  0  0  0  0  0
    6.3150   -3.7670   20.1960 C   0  0  0  0  0  0  0  0  0  0  0  0
    5.3100   -4.3820   19.8430 O   0  0  0  0  0  0  0  0  0  0  0  0
    6.8340   -2.4780   22.1770 C   0  0  0  0  0  0  0  0  0  0  0  0
    7.2330   -3.1240   19.1550 C   0  0  0  0  0  0  0  0  0  0  0  0
    8.2730   -1.9610   21.9890 C   0  0  0  0  0  0  0  0  0  0  0  0
    8.9220   -1.2040   23.1590 C   0  0  0  0  0  0  0  0  0  0  0  0
   10.1640   -0.7090   22.9470 N   0  0  0  0  0  0  0  0  0  0  0  0
   11.1440   -1.6800   22.3690 C   0  0  0  0  0  0  0  0  0  0  0  0
   10.6490    0.1260   24.0460 C   0  0  0  0  0  0  0  0  0  0  0  0
   12.5640   -1.0540   22.2050 C   0  0  0  0  0  0  0  0  0  0  0  0
   11.7260    1.0080   23.4580 C   0  0  0  0  0  0  0  0  0  0  0  0
   13.5310   -1.6950   21.5680 F   0  0  0  0  0  0  0  0  0  0  0  0
   12.7470    0.3120   22.8000 C   0  0  0  0  0  0  0  0  0  0  0  0
  1  2  1  0
  2  3  2  0
  1  4  1  0
  2  5  1  0
  4  6  1  0
  6  7  1  0
  7  8  1  0
  8  9  1  0
  8 10  1  0
  9 11  1  0
 10 12  1  0
 11 13  1  0
 11 14  2  0
 12 14  1  0
M  END
