x0397_0-x0831_0-x1385_1-x0426_1-x0692_1-x1418_1-x1386_1-x0770_1-x0434_2-x1334_1-x1375_1-x1412_1
     RDKit          3D

 36 40  0  0  0  0  0  0  0  0999 V2000
    2.5040   -7.8320   23.4730 O   0  0  0  0  0  0  0  0  0  0  0  0
    3.1430   -7.1390   24.5160 C   0  0  0  0  0  0  0  0  0  0  0  0
    4.5360   -7.3370   24.4320 O   0  0  0  0  0  0  0  0  0  0  0  0
    5.1980   -6.0720   24.6110 C   0  0  0  0  0  0  0  0  0  0  0  0
    6.0840   -5.7300   23.4400 C   0  0  2  0  0  0  0  0  0  0  0  0
    5.8590   -4.4300   22.7330 C   0  0  2  0  0  0  0  0  0  0  0  0
    5.6140   -5.9340   22.0870 C   0  0  0  0  0  0  0  0  0  0  0  0
    6.9800   -3.5170   22.2900 C   0  0  2  0  0  0  0  0  0  0  0  0
    7.8240   -3.1630   23.4990 C   0  0  0  0  0  0  0  0  0  0  0  0
    6.7630   -2.4270   21.1930 C   0  0  1  0  0  0  0  0  0  0  0  0
    6.4360   -3.1350   19.8350 C   0  0  0  0  0  0  0  0  0  0  0  0
    5.8630   -1.0820   21.4700 C   0  0  2  0  0  0  0  0  0  0  0  0
    8.8610   -2.2200   23.1370 N   0  0  0  0  0  0  0  0  0  0  0  0
    8.0510   -1.6130   21.0060 C   0  0  0  0  0  0  0  0  0  0  0  0
    7.3940   -2.9820   18.6860 C   0  0  0  0  0  0  0  0  0  0  0  0
    5.4670   -3.9090   19.6660 O   0  0  0  0  0  0  0  0  0  0  0  0
    4.7310   -1.0510   22.5980 C   0  0  0  0  0  0  0  0  0  0  0  0
   10.0300   -2.1360   23.9900 C   0  0  0  0  0  0  0  0  0  0  0  0
    9.1510   -2.0520   21.6950 C   0  0  0  0  0  0  0  0  0  0  0  0
    5.4780   -0.0990   20.3010 C   0  0  0  0  0  0  0  0  0  0  0  0
    4.6800    0.3020   23.3650 C   0  0  0  0  0  0  0  0  0  0  0  0
    4.4470    0.8560   20.1370 C   0  0  0  0  0  0  0  0  0  0  0  0
    6.4670   -0.2610   19.1380 C   0  0  0  0  0  0  0  0  0  0  0  0
   10.8470   -0.9750   23.7460 C   0  0  0  0  0  0  0  0  0  0  0  0
    3.7630    1.3540   22.6690 C   0  0  2  0  0  0  0  0  0  0  0  0
    3.3820    1.1240   21.1890 C   0  0  0  0  0  0  0  0  0  0  0  0
    4.4520    1.5480   18.9190 C   0  0  0  0  0  0  0  0  0  0  0  0
    6.4220    0.4240   17.9960 N   0  0  0  0  0  0  0  0  0  0  0  0
   10.3670    0.1710   24.2570 C   0  0  0  0  0  0  0  0  0  0  0  0
   12.0800   -0.9480   23.0280 C   0  0  0  0  0  0  0  0  0  0  0  0
    4.1760    2.7140   22.8870 N   0  0  0  0  0  0  0  0  0  0  0  0
   12.7150   -2.1530   22.4000 C   0  0  0  0  0  0  0  0  0  0  0  0
    5.4270    1.3260   17.8770 C   0  0  0  0  0  0  0  0  0  0  0  0
   11.0180    1.3780   24.1160 C   0  0  0  0  0  0  0  0  0  0  0  0
   12.7540    0.2520   22.8840 C   0  0  0  0  0  0  0  0  0  0  0  0
   12.2330    1.4140   23.4190 C   0  0  0  0  0  0  0  0  0  0  0  0
  1  2  1  0
  2  3  1  0
  3  4  1  0
  5  4  1  1
  5  6  1  0
  5  7  1  0
  6  7  1  6
  6  8  1  0
  8  9  1  1
  8 10  1  0
 10 11  1  6
 10 12  1  0
  9 13  1  0
 10 14  1  0
 11 15  1  0
 11 16  2  0
 12 17  1  6
 13 18  1  0
 13 19  1  0
 14 19  1  0
 12 20  1  0
 17 21  1  0
 20 22  2  0
 20 23  1  0
 18 24  1  0
 21 25  1  0
 22 26  1  0
 25 26  1  0
 22 27  1  0
 23 28  2  0
 24 29  2  0
 24 30  1  0
 25 31  1  6
 30 32  1  0
 27 33  2  0
 28 33  1  0
 29 34  1  0
 30 35  2  0
 34 36  2  0
 35 36  1  0
M  END
