x0397_0-x0770_1-x1385_1-x0434_2-x0426_1-x1374_1-x1386_1-x0831_0-x1334_0-x0692_1-x1334_1
     RDKit          3D

 44 49  0  0  0  0  0  0  0  0999 V2000
    2.2210   -7.8040   23.2270 O   0  0  0  0  0  0  0  0  0  0  0  0
    2.4550   -8.0090   24.6040 C   0  0  0  0  0  0  0  0  0  0  0  0
    3.8360   -7.9820   24.8720 O   0  0  0  0  0  0  0  0  0  0  0  0
    4.4710   -7.2070   23.8670 C   0  0  0  0  0  0  0  0  0  0  0  0
    4.9350   -6.0290   24.3600 C   0  0  0  0  0  0  0  0  0  0  0  0
    6.0200   -5.5660   23.4470 C   0  0  2  0  0  0  0  0  0  0  0  0
    5.8970   -4.6320   22.5260 C   0  0  2  0  0  0  0  0  0  0  0  0
    6.1520   -6.2340   22.1870 C   0  0  0  0  0  0  0  0  0  0  0  0
    6.9180   -3.5920   22.1960 C   0  0  1  0  0  0  0  0  0  0  0  0
    6.4290   -2.6360   21.2070 N   0  0  0  0  0  0  0  0  0  0  0  0
    7.6190   -3.1860   23.3230 C   0  0  0  0  0  0  0  0  0  0  0  0
    6.2530   -3.2960   19.9520 C   0  0  0  0  0  0  0  0  0  0  0  0
    8.4440   -1.9670   23.1970 N   0  0  0  0  0  0  0  0  0  0  0  0
    7.0940   -1.4440   21.2080 C   0  0  1  0  0  0  0  0  0  0  0  0
    7.2950   -3.0000   18.8640 C   0  0  0  0  0  0  0  0  0  0  0  0
    5.3420   -4.1100   19.7470 O   0  0  0  0  0  0  0  0  0  0  0  0
    6.2650   -0.1610   21.5080 C   0  0  1  0  0  0  0  0  0  0  0  0
    9.8910   -2.2990   23.3360 C   0  0  2  0  0  0  0  0  0  0  0  0
    8.3370   -1.4550   21.8190 C   0  0  0  0  0  0  0  0  0  0  0  0
    4.9500   -0.4220   22.3240 C   0  0  0  0  0  0  0  0  0  0  0  0
   10.4610   -3.1370   24.4530 C   0  0  0  0  0  0  0  0  0  0  0  0
    7.0980    0.9350   22.2190 C   0  0  0  0  0  0  0  0  0  0  0  0
    5.9400    0.4220   20.1270 C   0  0  0  0  0  0  0  0  0  0  0  0
   10.7360   -1.0000   23.3340 C   0  0  0  0  0  0  0  0  0  0  0  0
    3.9470    0.7640   22.3880 C   0  0  1  0  0  0  0  0  0  0  0  0
    4.7450    1.3270   19.9920 C   0  0  0  0  0  0  0  0  0  0  0  0
    6.7300    0.1240   19.0260 C   0  0  0  0  0  0  0  0  0  0  0  0
   10.1570    0.1430   23.8600 C   0  0  0  0  0  0  0  0  0  0  0  0
   12.0730   -0.9370   22.8140 C   0  0  0  0  0  0  0  0  0  0  0  0
    9.6880   -4.1000   25.3470 C   0  0  0  0  0  0  0  0  0  0  0  0
    4.2750    1.6540   23.5280 N   0  0  0  0  0  0  0  0  0  0  0  0
    3.8720    1.6630   21.1500 C   0  0  0  0  0  0  0  0  0  0  0  0
   12.8160   -2.0720   22.2060 C   0  0  0  0  0  0  0  0  0  0  0  0
    4.4830    1.8530   18.7330 C   0  0  0  0  0  0  0  0  0  0  0  0
    6.4030    0.7000   17.7370 N   0  0  0  0  0  0  0  0  0  0  0  0
   10.8360    1.4990   23.9430 C   0  0  0  0  0  0  0  0  0  0  0  0
   12.7570    0.4690   22.9130 C   0  0  0  0  0  0  0  0  0  0  0  0
   10.0050   -5.4040   25.6090 C   0  0  0  0  0  0  0  0  0  0  0  0
    8.2500   -3.6730   26.2310 S   0  0  0  0  0  0  0  0  0  0  0  0
    5.2510    1.5840   17.6270 C   0  0  0  0  0  0  0  0  0  0  0  0
   12.0970    1.6520   23.4800 C   0  0  0  0  0  0  0  0  0  0  0  0
    9.1490   -5.9950   26.4890 C   0  0  0  0  0  0  0  0  0  0  0  0
    8.1460   -5.2080   26.9380 C   0  0  0  0  0  0  0  0  0  0  0  0
    6.9240   -5.6310   28.0550 Cl  0  0  0  0  0  0  0  0  0  0  0  0
  1  2  1  0
  2  3  1  0
  3  4  1  0
  4  5  1  0
  6  5  1  6
  6  7  1  0
  6  8  1  0
  7  8  1  6
  7  9  1  0
  9 10  1  0
  9 11  1  1
 10 12  1  0
 11 13  1  0
 10 14  1  0
 12 15  1  0
 12 16  2  0
 14 17  1  0
 13 18  1  0
 13 19  1  0
 14 19  1  1
 17 20  1  0
 18 21  1  1
 17 22  1  1
 17 23  1  0
 18 24  1  0
 20 25  1  0
 23 26  2  0
 23 27  1  0
 24 28  2  0
 24 29  1  0
 21 30  1  0
 25 31  1  1
 25 32  1  0
 26 32  1  0
 29 33  1  0
 26 34  1  0
 27 35  2  0
 28 36  1  0
 29 37  2  0
 30 38  2  0
 30 39  1  0
 34 40  2  0
 35 40  1  0
 36 41  2  0
 37 41  1  0
 38 42  1  0
 39 43  1  0
 42 43  2  0
 43 44  1  0
M  END
