x0397_0-x0770_1-x1385_1-x0831_1-x0831_0-x1334_0
     RDKit          3D

 27 30  0  0  0  0  0  0  0  0999 V2000
    6.2100   -3.3160   20.0240 C   0  0  0  0  0  0  0  0  0  0  0  0
    7.2090   -3.0250   18.9120 C   0  0  0  0  0  0  0  0  0  0  0  0
    5.3820   -4.2220   19.7970 O   0  0  0  0  0  0  0  0  0  0  0  0
    6.3290   -2.5530   21.1850 N   0  0  0  0  0  0  0  0  0  0  0  0
    6.9020   -1.3000   21.2640 C   0  0  0  0  0  0  0  0  0  0  0  0
    6.3420   -3.2110   22.4910 C   0  0  2  0  0  0  0  0  0  0  0  0
    8.3560   -1.3690   21.7380 C   0  0  0  0  0  0  0  0  0  0  0  0
    7.7720   -3.3710   23.0630 C   0  0  0  0  0  0  0  0  0  0  0  0
    5.6050   -4.5600   22.4820 C   0  0  0  0  0  0  0  0  0  0  0  0
    8.6090   -2.1720   22.9920 N   0  0  0  0  0  0  0  0  0  0  0  0
    6.1810   -5.7230   23.1090 C   0  0  0  0  0  0  0  0  0  0  0  0
    6.2050   -5.9520   21.6620 C   0  0  0  0  0  0  0  0  0  0  0  0
    9.9610   -2.2750   23.1790 C   0  0  2  0  0  0  0  0  0  0  0  0
   10.4480   -3.1300   24.3020 C   0  0  0  0  0  0  0  0  0  0  0  0
   10.7200   -0.9280   23.2770 C   0  0  0  0  0  0  0  0  0  0  0  0
    9.8970    0.2570   23.8930 C   0  0  0  0  0  0  0  0  0  0  0  0
   12.0050   -0.9390   22.8210 C   0  0  0  0  0  0  0  0  0  0  0  0
    9.6600   -4.0190   25.2310 C   0  0  0  0  0  0  0  0  0  0  0  0
   12.7160   -2.1130   22.2330 C   0  0  0  0  0  0  0  0  0  0  0  0
   10.6270    1.6260   24.0180 C   0  0  0  0  0  0  0  0  0  0  0  0
   12.6470    0.2110   22.9170 C   0  0  0  0  0  0  0  0  0  0  0  0
    9.9830   -5.4510   25.5510 C   0  0  0  0  0  0  0  0  0  0  0  0
    8.2380   -3.6780   26.1910 S   0  0  0  0  0  0  0  0  0  0  0  0
   12.0800    1.5600   23.4900 C   0  0  0  0  0  0  0  0  0  0  0  0
    9.1000   -6.0640   26.5120 C   0  0  0  0  0  0  0  0  0  0  0  0
    8.1180   -5.2240   26.9530 C   0  0  0  0  0  0  0  0  0  0  0  0
    6.9040   -5.5830   28.1020 Cl  0  0  0  0  0  0  0  0  0  0  0  0
  1  2  1  0
  1  3  2  0
  1  4  1  0
  4  5  1  0
  4  6  1  0
  5  7  1  0
  6  8  1  0
  6  9  1  6
  7 10  1  0
  8 10  1  0
  9 11  1  0
  9 12  1  0
 11 12  1  0
 10 13  1  0
 13 14  1  1
 13 15  1  0
 15 16  2  0
 15 17  1  0
 14 18  1  0
 17 19  1  0
 16 20  1  0
 17 21  2  0
 18 22  2  0
 18 23  1  0
 20 24  2  0
 21 24  1  0
 22 25  1  0
 23 26  1  0
 25 26  2  0
 26 27  1  0
M  END
