x0395_1-x1412_0-x0692_1
     RDKit          3D

 24 26  0  0  0  0  0  0  0  0999 V2000
    6.1880   -3.2460   19.8540 C   0  0  0  0  0  0  0  0  0  0  0  0
    7.1640   -2.9550   18.7290 C   0  0  0  0  0  0  0  0  0  0  0  0
    5.3540   -4.1410   19.7220 O   0  0  0  0  0  0  0  0  0  0  0  0
    6.2960   -2.4860   21.0280 N   0  0  0  0  0  0  0  0  0  0  0  0
    7.4020   -1.5480   21.2520 C   0  0  0  0  0  0  0  0  0  0  0  0
    5.8880   -3.2120   22.2380 C   0  0  0  0  0  0  0  0  0  0  0  0
    8.5100   -2.1450   22.1610 C   0  0  0  0  0  0  0  0  0  0  0  0
    7.0740   -3.7590   23.0010 C   0  0  0  0  0  0  0  0  0  0  0  0
    7.9710   -2.6630   23.3240 N   0  0  0  0  0  0  0  0  0  0  0  0
    8.6360   -2.6060   24.5690 C   0  0  0  0  0  0  0  0  0  0  0  0
    9.2450   -1.5330   24.9280 N   0  0  0  0  0  0  0  0  0  0  0  0
    8.6990   -3.7430   25.5860 C   0  0  0  0  0  0  0  0  0  0  0  0
    9.1500   -0.4460   23.9560 C   0  0  0  0  0  0  0  0  0  0  0  0
    9.6150   -4.7860   25.4910 C   0  0  0  0  0  0  0  0  0  0  0  0
    7.6820   -3.9220   26.9770 S   0  0  0  0  0  0  0  0  0  0  0  0
    9.4770   -5.6680   26.4880 C   0  0  0  0  0  0  0  0  0  0  0  0
    8.4870   -5.3740   27.3990 C   0  0  0  0  0  0  0  0  0  0  0  0
   10.2450   -0.3040   22.9830 N   0  0  0  0  0  0  0  0  0  0  0  0
   11.1630   -1.4700   22.7460 C   0  0  0  0  0  0  0  0  0  0  0  0
   10.7750    1.0620   23.0890 C   0  0  0  0  0  0  0  0  0  0  0  0
   12.4600   -1.0720   22.3910 C   0  0  0  0  0  0  0  0  0  0  0  0
   12.1000    1.1140   23.5140 C   0  0  0  0  0  0  0  0  0  0  0  0
   13.2750   -1.8620   21.6940 F   0  0  0  0  0  0  0  0  0  0  0  0
   12.9150    0.2870   22.8210 C   0  0  0  0  0  0  0  0  0  0  0  0
  1  2  1  0
  1  3  2  0
  1  4  1  0
  4  5  1  0
  4  6  1  0
  5  7  1  0
  6  8  1  0
  7  9  1  0
  8  9  1  0
  9 10  1  0
 10 11  2  3
 10 12  1  0
 11 13  1  0
 12 14  2  0
 12 15  1  0
 14 16  1  0
 15 17  1  0
 16 17  2  0
 13 18  1  0
 18 19  1  0
 18 20  1  0
 19 21  1  0
 20 22  1  0
 21 23  1  0
 21 24  2  0
 22 24  1  0
M  END
