x0397_0-x1334_0-x0770_1-x1334_1-x1412_1-x1386_1-x0434_2-x0692_1-x0831_0-x1374_1
     RDKit          3D

 39 43  0  0  0  0  0  0  0  0999 V2000
    6.2270   -3.2180   19.8780 C   0  0  0  0  0  0  0  0  0  0  0  0
    7.2960   -3.0000   18.8190 C   0  0  0  0  0  0  0  0  0  0  0  0
    5.3080   -4.0230   19.6700 O   0  0  0  0  0  0  0  0  0  0  0  0
    6.3310   -2.5540   21.0940 N   0  0  0  0  0  0  0  0  0  0  0  0
    7.0150   -1.2690   21.3880 C   0  0  1  0  0  0  0  0  0  0  0  0
    6.7080   -3.5070   22.1230 C   0  0  1  0  0  0  0  0  0  0  0  0
    8.2330   -1.3550   22.3700 C   0  0  0  0  0  0  0  0  0  0  0  0
    6.7890   -2.7940   23.4660 C   0  0  0  0  0  0  0  0  0  0  0  0
    5.8260   -4.6860   22.3000 C   0  0  2  0  0  0  0  0  0  0  0  0
    7.6890   -0.6160   20.1910 C   0  0  0  0  0  0  0  0  0  0  0  0
    8.0790   -2.1860   23.5860 N   0  0  0  0  0  0  0  0  0  0  0  0
    6.1410   -5.5820   23.3730 C   0  0  2  0  0  0  0  0  0  0  0  0
    6.1530   -6.1040   21.9660 C   0  0  0  0  0  0  0  0  0  0  0  0
    6.9880   -0.1290   18.9510 C   0  0  0  0  0  0  0  0  0  0  0  0
    9.0810   -3.2520   23.6250 C   0  0  1  0  0  0  0  0  0  0  0  0
    6.2490    0.3520   20.2010 C   0  0  0  0  0  0  0  0  0  0  0  0
    6.1880    0.4260   17.9700 N   0  0  0  0  0  0  0  0  0  0  0  0
    5.0900   -5.9020   24.3750 C   0  0  0  0  0  0  0  0  0  0  0  0
   10.4850   -2.7280   23.2680 C   0  0  0  0  0  0  0  0  0  0  0  0
    8.9150   -4.1210   24.8880 C   0  0  0  0  0  0  0  0  0  0  0  0
    5.0910    1.1760   18.0130 C   0  0  0  0  0  0  0  0  0  0  0  0
    5.1000    1.1230   20.3560 C   0  0  0  0  0  0  0  0  0  0  0  0
    4.5240   -7.1420   23.8220 C   0  0  0  0  0  0  0  0  0  0  0  0
    9.6370   -5.2700   25.1920 C   0  0  0  0  0  0  0  0  0  0  0  0
    7.7690   -3.8980   26.2340 S   0  0  0  0  0  0  0  0  0  0  0  0
   10.8980   -1.2160   23.4400 C   0  0  0  0  0  0  0  0  0  0  0  0
    4.4260    1.6010   19.2750 C   0  0  0  0  0  0  0  0  0  0  0  0
    3.9720   -7.9630   24.8300 O   0  0  0  0  0  0  0  0  0  0  0  0
    9.2960   -5.8890   26.3450 C   0  0  0  0  0  0  0  0  0  0  0  0
    8.2860   -5.3110   27.0690 C   0  0  0  0  0  0  0  0  0  0  0  0
   10.1360   -0.3510   24.1400 C   0  0  0  0  0  0  0  0  0  0  0  0
   12.2400   -0.7840   22.7680 C   0  0  0  0  0  0  0  0  0  0  0  0
    2.5820   -8.1190   24.6440 C   0  0  0  0  0  0  0  0  0  0  0  0
    7.5530   -5.7750   28.5340 Cl  0  0  0  0  0  0  0  0  0  0  0  0
   13.0440   -1.7870   21.9890 C   0  0  0  0  0  0  0  0  0  0  0  0
   10.6650    1.0460   24.2210 C   0  0  0  0  0  0  0  0  0  0  0  0
   12.7620    0.5610   22.8540 C   0  0  0  0  0  0  0  0  0  0  0  0
    2.2600   -7.8230   23.3030 O   0  0  0  0  0  0  0  0  0  0  0  0
   11.9440    1.5120   23.5980 C   0  0  0  0  0  0  0  0  0  0  0  0
  1  2  1  0
  1  3  2  0
  1  4  1  0
  4  5  1  0
  4  6  1  0
  5  7  1  0
  6  8  1  1
  6  9  1  0
  5 10  1  6
  7 11  1  0
  8 11  1  0
  9 12  1  0
  9 13  1  6
 12 13  1  0
 10 14  1  0
 11 15  1  0
 14 16  2  0
 14 17  1  0
 12 18  1  1
 15 19  1  1
 15 20  1  0
 17 21  2  0
 16 22  1  0
 18 23  1  0
 20 24  2  0
 20 25  1  0
 19 26  1  0
 21 27  1  0
 22 27  2  0
 23 28  1  0
 24 29  1  0
 25 30  1  0
 29 30  2  0
 26 31  2  0
 26 32  1  0
 28 33  1  0
 30 34  1  0
 32 35  1  0
 31 36  1  0
 32 37  2  0
 33 38  1  0
 36 39  2  0
 37 39  1  0
M  END
