x0397_0-x0426_1-x1334_0-x0770_1-x1334_1-x0831_0-x0434_2
     RDKit          3D

 39 44  0  0  0  0  0  0  0  0999 V2000
    6.1210   -3.2670   20.0450 C   0  0  0  0  0  0  0  0  0  0  0  0
    7.1350   -2.9450   18.9570 C   0  0  0  0  0  0  0  0  0  0  0  0
    5.3590   -4.2170   19.8050 O   0  0  0  0  0  0  0  0  0  0  0  0
    6.0390   -2.5280   21.2930 N   0  0  0  0  0  0  0  0  0  0  0  0
    6.8700   -1.4570   21.8530 C   0  0  2  0  0  0  0  0  0  0  0  0
    5.9090   -3.3270   22.5050 C   0  0  2  0  0  0  0  0  0  0  0  0
    6.4290    0.0560   21.6770 C   0  0  1  0  0  0  0  0  0  0  0  0
    8.3370   -1.8380   21.9540 C   0  0  0  0  0  0  0  0  0  0  0  0
    7.1820   -3.9610   22.8510 C   0  0  0  0  0  0  0  0  0  0  0  0
    5.5440   -4.7890   22.6030 C   0  0  0  0  0  0  0  0  0  0  0  0
    5.3850    0.4370   22.7990 C   0  0  0  0  0  0  0  0  0  0  0  0
    7.6940    0.9040   22.0630 C   0  0  0  0  0  0  0  0  0  0  0  0
    8.4030   -3.0730   22.8260 N   0  0  0  0  0  0  0  0  0  0  0  0
    6.5170   -5.7600   23.2510 C   0  0  0  0  0  0  0  0  0  0  0  0
    6.2440   -6.0230   21.7490 C   0  0  0  0  0  0  0  0  0  0  0  0
    5.9750    0.5100   20.3050 C   0  0  0  0  0  0  0  0  0  0  0  0
    4.6380    1.7800   22.5540 C   0  0  2  0  0  0  0  0  0  0  0  0
    9.0770   -2.8190   24.0940 C   0  0  2  0  0  0  0  0  0  0  0  0
    4.8290    1.2850   20.0690 C   0  0  0  0  0  0  0  0  0  0  0  0
    6.8280    0.1170   19.0800 C   0  0  0  0  0  0  0  0  0  0  0  0
    3.6420    2.0310   23.5890 N   0  0  0  0  0  0  0  0  0  0  0  0
    3.9430    1.7060   21.1720 C   0  0  0  0  0  0  0  0  0  0  0  0
   10.5570   -2.6580   23.8160 C   0  0  0  0  0  0  0  0  0  0  0  0
    4.5510    1.6470   18.8440 C   0  0  0  0  0  0  0  0  0  0  0  0
    6.5250    0.4980   17.8370 N   0  0  0  0  0  0  0  0  0  0  0  0
    8.9550   -3.9570   25.1480 C   0  0  0  0  0  0  0  0  0  0  0  0
    5.4210    1.2490   17.7130 C   0  0  0  0  0  0  0  0  0  0  0  0
    9.7250   -5.1480   25.2910 C   0  0  0  0  0  0  0  0  0  0  0  0
    7.7730   -3.8480   26.3400 S   0  0  0  0  0  0  0  0  0  0  0  0
   11.0510   -1.2370   23.7000 C   0  0  0  0  0  0  0  0  0  0  0  0
    9.2860   -5.8650   26.3530 C   0  0  0  0  0  0  0  0  0  0  0  0
    8.2680   -5.3310   27.0170 C   0  0  0  0  0  0  0  0  0  0  0  0
   10.3120   -0.0360   24.3540 C   0  0  0  0  0  0  0  0  0  0  0  0
   12.2700   -0.8770   22.9570 C   0  0  0  0  0  0  0  0  0  0  0  0
    7.4450   -5.9270   28.3930 Cl  0  0  0  0  0  0  0  0  0  0  0  0
   13.0950   -1.8940   22.2490 C   0  0  0  0  0  0  0  0  0  0  0  0
   10.7160    1.2430   24.2740 C   0  0  0  0  0  0  0  0  0  0  0  0
   12.6910    0.4350   22.8860 C   0  0  0  0  0  0  0  0  0  0  0  0
   11.9700    1.5970   23.5190 C   0  0  0  0  0  0  0  0  0  0  0  0
  1  2  1  0
  1  3  2  0
  1  4  1  0
  4  5  1  0
  4  6  1  0
  5  7  1  0
  5  8  1  6
  6  9  1  0
  6 10  1  6
  7 11  1  0
  7 12  1  1
  8 13  1  0
  9 13  1  0
 10 14  1  0
 10 15  1  0
 14 15  1  0
  7 16  1  0
 11 17  1  0
 13 18  1  0
 16 19  2  0
 16 20  1  0
 17 21  1  1
 17 22  1  0
 19 22  1  0
 18 23  1  6
 19 24  1  0
 20 25  2  0
 18 26  1  0
 24 27  2  0
 25 27  1  0
 26 28  2  0
 26 29  1  0
 23 30  1  0
 28 31  1  0
 29 32  1  0
 31 32  2  0
 30 33  2  0
 30 34  1  0
 32 35  1  0
 34 36  1  0
 33 37  1  0
 34 38  2  0
 37 39  2  0
 38 39  1  0
M  END
