x0397_0-x0770_1-x1385_1-x0426_1-x1386_1-x0831_1-x0831_0-x1334_1
     RDKit          3D

 31 35  0  0  0  0  0  0  0  0999 V2000
    6.1740   -3.3380   20.0030 C   0  0  0  0  0  0  0  0  0  0  0  0
    7.1560   -3.0120   18.8860 C   0  0  0  0  0  0  0  0  0  0  0  0
    5.2720   -4.1530   19.7380 O   0  0  0  0  0  0  0  0  0  0  0  0
    6.3810   -2.7440   21.2700 N   0  0  0  0  0  0  0  0  0  0  0  0
    7.1940   -1.5000   21.2260 C   0  0  1  0  0  0  0  0  0  0  0  0
    6.8570   -3.6600   22.2990 C   0  0  1  0  0  0  0  0  0  0  0  0
    6.4560   -0.1470   21.5220 C   0  0  2  0  0  0  0  0  0  0  0  0
    8.5080   -1.6290   21.8040 C   0  0  0  0  0  0  0  0  0  0  0  0
    7.5400   -3.0150   23.5490 C   0  0  0  0  0  0  0  0  0  0  0  0
    5.8100   -4.6650   22.7370 C   0  0  0  0  0  0  0  0  0  0  0  0
    5.2440   -0.1390   22.5940 C   0  0  0  0  0  0  0  0  0  0  0  0
    8.5560   -1.9900   23.2190 N   0  0  0  0  0  0  0  0  0  0  0  0
    6.2590   -5.9190   23.3570 C   0  0  0  0  0  0  0  0  0  0  0  0
    5.7010   -6.1740   22.0240 C   0  0  0  0  0  0  0  0  0  0  0  0
    5.9390    0.4740   20.2470 C   0  0  0  0  0  0  0  0  0  0  0  0
    4.5790    1.2560   22.6170 C   0  0  2  0  0  0  0  0  0  0  0  0
    9.8610   -2.2940   23.5530 C   0  0  0  0  0  0  0  0  0  0  0  0
    4.7400    1.2250   20.1580 C   0  0  0  0  0  0  0  0  0  0  0  0
    6.7800    0.2590   19.0000 C   0  0  0  0  0  0  0  0  0  0  0  0
    3.6330    1.4030   23.7190 N   0  0  0  0  0  0  0  0  0  0  0  0
    3.8290    1.4800   21.3230 C   0  0  0  0  0  0  0  0  0  0  0  0
    4.3740    1.8020   18.7980 C   0  0  0  0  0  0  0  0  0  0  0  0
    6.4450    0.7940   17.7030 N   0  0  0  0  0  0  0  0  0  0  0  0
   10.7330   -1.0540   23.5220 C   0  0  0  0  0  0  0  0  0  0  0  0
    5.3270    1.5220   17.6070 C   0  0  0  0  0  0  0  0  0  0  0  0
   10.2100    0.0970   24.1420 C   0  0  0  0  0  0  0  0  0  0  0  0
   12.0870   -1.0070   22.8610 C   0  0  0  0  0  0  0  0  0  0  0  0
   12.7240   -2.1770   22.1680 C   0  0  0  0  0  0  0  0  0  0  0  0
   10.9440    1.3240   24.1490 C   0  0  0  0  0  0  0  0  0  0  0  0
   12.7570    0.1910   22.9010 C   0  0  0  0  0  0  0  0  0  0  0  0
   12.1610    1.3500   23.5500 C   0  0  0  0  0  0  0  0  0  0  0  0
  1  2  1  0
  1  3  2  0
  1  4  1  0
  4  5  1  0
  4  6  1  0
  5  7  1  0
  5  8  1  1
  6  9  1  0
  6 10  1  1
  7 11  1  1
  8 12  1  0
  9 12  1  0
 10 13  1  0
 10 14  1  0
 13 14  1  0
  7 15  1  0
 11 16  1  0
 12 17  1  0
 15 18  2  0
 15 19  1  0
 16 20  1  1
 16 21  1  0
 18 21  1  0
 18 22  1  0
 19 23  2  0
 17 24  1  0
 22 25  2  0
 23 25  1  0
 24 26  2  0
 24 27  1  0
 27 28  1  0
 26 29  1  0
 27 30  2  0
 29 31  2  0
 30 31  1  0
M  END
