x0397_0-x0759_1-x1093_0
     RDKit          3D

 19 21  0  0  0  0  0  0  0  0999 V2000
    6.4870   -3.3470   19.9850 C   0  0  0  0  0  0  0  0  0  0  0  0
    7.4400   -3.0390   18.8500 C   0  0  0  0  0  0  0  0  0  0  0  0
    5.5270   -4.1150   19.7730 O   0  0  0  0  0  0  0  0  0  0  0  0
    6.7600   -2.7650   21.2460 N   0  0  0  0  0  0  0  0  0  0  0  0
    7.9610   -2.0840   21.4730 C   0  0  0  0  0  0  0  0  0  0  0  0
    6.2550   -3.2850   22.4970 C   0  0  2  0  0  0  0  0  0  0  0  0
    8.4700   -2.2150   22.9570 C   0  0  1  0  0  0  0  0  0  0  0  0
    7.2230   -3.9970   23.4750 C   0  0  0  0  0  0  0  0  0  0  0  0
    5.7400   -4.6800   22.7480 C   0  0  0  0  0  0  0  0  0  0  0  0
    8.5090   -3.3420   23.4800 O   0  0  0  0  0  0  0  0  0  0  0  0
    6.7270   -5.6960   23.2480 C   0  0  0  0  0  0  0  0  0  0  0  0
    6.0570   -5.8970   21.9180 C   0  0  0  0  0  0  0  0  0  0  0  0
    9.7990   -1.4790   23.2720 C   0  0  2  0  0  0  0  0  0  0  0  0
    9.6520   -0.0930   22.7930 N   0  0  0  0  0  0  0  0  0  0  0  0
   11.0040   -2.0190   22.7690 C   0  0  0  0  0  0  0  0  0  0  0  0
   10.7190    0.7780   23.3200 C   0  0  0  0  0  0  0  0  0  0  0  0
   12.2220   -1.2010   23.0410 N   0  0  0  0  0  0  0  0  0  0  0  0
   13.1350   -1.8810   23.9510 C   0  0  0  0  0  0  0  0  0  0  0  0
   12.0310    0.2120   23.4170 C   0  0  0  0  0  0  0  0  0  0  0  0
  1  2  1  0
  1  3  2  0
  1  4  1  0
  4  5  1  0
  4  6  1  0
  7  5  1  6
  6  8  1  0
  6  9  1  6
  7 10  1  0
  8 10  1  0
  9 11  1  0
  9 12  1  0
 11 12  1  0
  7 13  1  0
 13 14  1  0
 13 15  1  6
 14 16  1  0
 15 17  1  0
 17 18  1  0
 16 19  1  0
 17 19  1  0
M  END
