x0397_0-x0426_1-x1386_1-x0831_0-x1334_0-x0692_1-x1334_1
     RDKit          3D

 40 45  0  0  0  0  0  0  0  0999 V2000
    6.5680   -2.9910   19.8360 C   0  0  0  0  0  0  0  0  0  0  0  0
    7.5250   -2.9040   18.6760 C   0  0  0  0  0  0  0  0  0  0  0  0
    5.6340   -3.8250   19.6610 O   0  0  0  0  0  0  0  0  0  0  0  0
    6.7340   -2.2110   21.0460 N   0  0  0  0  0  0  0  0  0  0  0  0
    7.8250   -1.3380   21.5130 C   0  0  1  0  0  0  0  0  0  0  0  0
    6.4270   -2.9350   22.2620 C   0  0  2  0  0  0  0  0  0  0  0  0
    9.1110   -2.0390   21.6990 C   0  0  0  0  0  0  0  0  0  0  0  0
    7.6920   -3.5570   22.9730 C   0  0  0  0  0  0  0  0  0  0  0  0
    5.2650   -3.9200   22.0290 C   0  0  0  0  0  0  0  0  0  0  0  0
    7.9220    0.1400   21.1870 C   0  0  0  0  0  0  0  0  0  0  0  0
    9.0260   -2.9120   22.8270 N   0  0  0  0  0  0  0  0  0  0  0  0
    5.4120   -5.2040   22.7690 C   0  0  0  0  0  0  0  0  0  0  0  0
    6.8080    1.1290   21.5230 C   0  0  2  0  0  0  0  0  0  0  0  0
    9.6190   -2.2140   23.9570 C   0  0  1  0  0  0  0  0  0  0  0  0
    6.6290   -5.6690   23.2490 C   0  0  0  0  0  0  0  0  0  0  0  0
    6.4090   -6.4290   22.2660 C   0  0  0  0  0  0  0  0  0  0  0  0
    5.7870    0.8570   22.5950 C   0  0  0  0  0  0  0  0  0  0  0  0
    6.0640    1.1220   20.2390 C   0  0  0  0  0  0  0  0  0  0  0  0
   10.4320   -3.0920   24.8380 C   0  0  0  0  0  0  0  0  0  0  0  0
   10.5530   -1.0120   23.7270 C   0  0  0  0  0  0  0  0  0  0  0  0
    4.7250    1.9930   22.5990 C   0  0  2  0  0  0  0  0  0  0  0  0
    4.8080    1.6580   20.1240 C   0  0  0  0  0  0  0  0  0  0  0  0
    6.7150    0.5100   19.0380 C   0  0  0  0  0  0  0  0  0  0  0  0
   10.1460    0.2190   24.2540 C   0  0  0  0  0  0  0  0  0  0  0  0
   11.8060   -1.0070   23.0330 C   0  0  0  0  0  0  0  0  0  0  0  0
    9.6750   -4.1190   25.6310 C   0  0  0  0  0  0  0  0  0  0  0  0
    3.6880    1.7710   23.6060 N   0  0  0  0  0  0  0  0  0  0  0  0
    4.0730    2.2720   21.2820 C   0  0  0  0  0  0  0  0  0  0  0  0
    4.2150    1.5950   18.7610 C   0  0  0  0  0  0  0  0  0  0  0  0
    6.1730    0.4640   17.8510 N   0  0  0  0  0  0  0  0  0  0  0  0
   12.4160   -2.2100   22.3920 C   0  0  0  0  0  0  0  0  0  0  0  0
   10.8750    1.3900   24.1330 C   0  0  0  0  0  0  0  0  0  0  0  0
   12.5460    0.1910   22.9230 C   0  0  0  0  0  0  0  0  0  0  0  0
   10.0320   -5.4730   25.7360 C   0  0  0  0  0  0  0  0  0  0  0  0
    8.2560   -3.7520   26.5430 S   0  0  0  0  0  0  0  0  0  0  0  0
    4.9650    1.0060   17.7630 C   0  0  0  0  0  0  0  0  0  0  0  0
   12.0870    1.3820   23.4650 C   0  0  0  0  0  0  0  0  0  0  0  0
    9.2150   -6.1710   26.5390 C   0  0  0  0  0  0  0  0  0  0  0  0
    8.1240   -5.3210   27.1110 C   0  0  0  0  0  0  0  0  0  0  0  0
    6.8790   -5.7800   28.1910 Cl  0  0  0  0  0  0  0  0  0  0  0  0
  1  2  1  0
  1  3  2  0
  1  4  1  0
  4  5  1  0
  4  6  1  0
  5  7  1  0
  6  8  1  0
  6  9  1  6
  5 10  1  6
  7 11  1  0
  8 11  1  0
  9 12  1  0
 13 10  1  6
 11 14  1  0
 12 15  1  0
 12 16  1  0
 15 16  1  0
 13 17  1  0
 13 18  1  0
 14 19  1  6
 14 20  1  0
 17 21  1  0
 18 22  2  0
 18 23  1  0
 20 24  2  0
 20 25  1  0
 19 26  1  0
 21 27  1  1
 21 28  1  0
 22 28  1  0
 22 29  1  0
 23 30  2  0
 25 31  1  0
 24 32  1  0
 25 33  2  0
 26 34  2  0
 26 35  1  0
 29 36  2  0
 30 36  1  0
 32 37  2  0
 33 37  1  0
 34 38  1  0
 35 39  1  0
 38 39  2  0
 39 40  1  0
M  END
