x0397_0-x0770_1-x0540_3-x1386_1-x0831_0-x1418_1-x0692_1-x0434_2-x1412_1-x1334_1
     RDKit          3D

 32 35  0  0  0  0  0  0  0  0999 V2000
    6.2180   -3.4330   20.0970 C   0  0  0  0  0  0  0  0  0  0  0  0
    7.2200   -3.0330   19.0000 C   0  0  0  0  0  0  0  0  0  0  0  0
    5.3780   -4.3060   19.8480 O   0  0  0  0  0  0  0  0  0  0  0  0
    6.2760   -2.8160   21.3720 N   0  0  0  0  0  0  0  0  0  0  0  0
    6.8440   -1.4550   21.4680 C   0  0  1  0  0  0  0  0  0  0  0  0
    6.3620   -3.4580   22.5800 C   0  0  2  0  0  0  0  0  0  0  0  0
    6.0090   -0.5950   22.4490 C   0  0  0  0  0  0  0  0  0  0  0  0
    8.3650   -1.5160   21.8860 C   0  0  0  0  0  0  0  0  0  0  0  0
    7.8590   -3.6330   22.9930 C   0  0  0  0  0  0  0  0  0  0  0  0
    5.6060   -4.7820   22.5490 C   0  0  0  0  0  0  0  0  0  0  0  0
    5.0480    0.4450   21.8020 C   0  0  1  0  0  0  0  0  0  0  0  0
    8.6100   -2.3430   23.0580 N   0  0  0  0  0  0  0  0  0  0  0  0
    6.1200   -5.8760   23.0130 C   0  0  0  0  0  0  0  0  0  0  0  0
    6.1180   -6.1270   21.7430 C   0  0  0  0  0  0  0  0  0  0  0  0
    5.1820    1.7940   22.5200 C   0  0  0  0  0  0  0  0  0  0  0  0
   10.0360   -2.4630   23.4120 C   0  0  0  0  0  0  0  0  0  0  0  0
    5.4320    0.5920   20.3430 C   0  0  0  0  0  0  0  0  0  0  0  0
    3.9470    2.6040   22.6150 N   0  0  0  0  0  0  0  0  0  0  0  0
   10.6770   -1.1240   23.5260 C   0  0  0  0  0  0  0  0  0  0  0  0
    6.6550   -0.1090   19.8710 C   0  0  0  0  0  0  0  0  0  0  0  0
    4.7160    1.3440   19.4030 C   0  0  0  0  0  0  0  0  0  0  0  0
    2.8210    2.0710   23.1930 C   0  0  0  0  0  0  0  0  0  0  0  0
   10.1490    0.0080   24.1660 C   0  0  0  0  0  0  0  0  0  0  0  0
   11.9690   -0.9760   22.9040 C   0  0  0  0  0  0  0  0  0  0  0  0
    7.0150    0.0050   18.5590 C   0  0  0  0  0  0  0  0  0  0  0  0
    5.1740    1.4080   18.0610 C   0  0  0  0  0  0  0  0  0  0  0  0
    3.0650    1.4070   24.2000 O   0  0  0  0  0  0  0  0  0  0  0  0
   12.6260   -2.1140   22.1890 C   0  0  0  0  0  0  0  0  0  0  0  0
   10.9610    1.2960   24.1460 C   0  0  0  0  0  0  0  0  0  0  0  0
   12.7030    0.2170   22.9050 C   0  0  0  0  0  0  0  0  0  0  0  0
    6.2770    0.7820   17.5880 N   0  0  0  0  0  0  0  0  0  0  0  0
   12.1820    1.3380   23.5250 C   0  0  0  0  0  0  0  0  0  0  0  0
  1  2  1  0
  1  3  2  0
  1  4  1  0
  4  5  1  0
  4  6  1  0
  5  7  1  1
  5  8  1  0
  6  9  1  0
  6 10  1  6
 11  7  1  1
  8 12  1  0
  9 12  1  0
 10 13  1  0
 10 14  1  0
 13 14  1  0
 11 15  1  0
 12 16  1  0
 11 17  1  0
 15 18  1  0
 16 19  1  0
 17 20  2  0
 17 21  1  0
 18 22  1  0
 19 23  2  0
 19 24  1  0
 20 25  1  0
 21 26  2  0
 22 27  2  0
 24 28  1  0
 23 29  1  0
 24 30  2  0
 25 31  2  0
 26 31  1  0
 29 32  2  0
 30 32  1  0
M  END
