x0397_0-x1385_1-x0540_3-x0831_0-x1418_1-x1334_0-x0692_1-x1334_1-x1412_1
     RDKit          3D

 33 36  0  0  0  0  0  0  0  0999 V2000
    6.3650   -3.2620   19.8920 C   0  0  0  0  0  0  0  0  0  0  0  0
    7.3610   -3.0220   18.7660 C   0  0  0  0  0  0  0  0  0  0  0  0
    5.4810   -4.1260   19.7550 O   0  0  0  0  0  0  0  0  0  0  0  0
    6.5320   -2.4750   21.0390 N   0  0  0  0  0  0  0  0  0  0  0  0
    6.3750   -3.0810   22.2770 C   0  0  2  0  0  0  0  0  0  0  0  0
    7.4700   -1.3110   20.9010 C   0  0  1  0  0  0  0  0  0  0  0  0
    6.8590    0.0590   21.2340 C   0  0  0  0  0  0  0  0  0  0  0  0
    7.7280   -3.2660   22.9240 C   0  0  0  0  0  0  0  0  0  0  0  0
    8.7210   -1.5840   21.6800 C   0  0  0  0  0  0  0  0  0  0  0  0
    5.6350   -4.4050   22.1710 C   0  0  0  0  0  0  0  0  0  0  0  0
    5.3790    0.2410   21.6720 C   0  0  0  0  0  0  0  0  0  0  0  0
    8.4600   -2.0010   23.0450 N   0  0  0  0  0  0  0  0  0  0  0  0
    5.9480   -5.3720   23.0240 C   0  0  0  0  0  0  0  0  0  0  0  0
    6.2440   -5.8830   21.7130 C   0  0  0  0  0  0  0  0  0  0  0  0
    5.2540    1.4600   22.6630 C   0  0  0  0  0  0  0  0  0  0  0  0
    9.5590   -2.0210   23.8250 C   0  0  1  0  0  0  0  0  0  0  0  0
    4.0830    2.3060   22.5050 N   0  0  0  0  0  0  0  0  0  0  0  0
   10.0900   -3.4100   23.9670 C   0  0  0  0  0  0  0  0  0  0  0  0
   10.5470   -0.8230   23.6370 C   0  0  0  0  0  0  0  0  0  0  0  0
    2.9750    2.1870   23.3010 C   0  0  0  0  0  0  0  0  0  0  0  0
   10.1500    0.4650   24.0780 C   0  0  0  0  0  0  0  0  0  0  0  0
   11.8350   -0.9360   23.0530 C   0  0  0  0  0  0  0  0  0  0  0  0
    9.5310   -4.2760   25.0680 C   0  0  0  0  0  0  0  0  0  0  0  0
    2.7750    1.3710   24.1920 O   0  0  0  0  0  0  0  0  0  0  0  0
   12.4290   -2.2010   22.5160 C   0  0  0  0  0  0  0  0  0  0  0  0
   10.9990    1.5730   23.9430 C   0  0  0  0  0  0  0  0  0  0  0  0
   12.6250    0.1970   22.9540 C   0  0  0  0  0  0  0  0  0  0  0  0
    9.9200   -5.5020   25.3340 C   0  0  0  0  0  0  0  0  0  0  0  0
    8.2700   -3.8080   26.1780 S   0  0  0  0  0  0  0  0  0  0  0  0
   12.2600    1.4500   23.3760 C   0  0  0  0  0  0  0  0  0  0  0  0
    9.2100   -6.0960   26.4700 C   0  0  0  0  0  0  0  0  0  0  0  0
    8.3190   -5.2970   26.9960 C   0  0  0  0  0  0  0  0  0  0  0  0
    7.2930   -5.6200   28.3250 Cl  0  0  0  0  0  0  0  0  0  0  0  0
  1  2  1  0
  1  3  2  0
  1  4  1  0
  4  5  1  0
  4  6  1  0
  6  7  1  1
  5  8  1  0
  6  9  1  0
  5 10  1  6
  7 11  1  0
  8 12  1  0
  9 12  1  0
 10 13  1  0
 10 14  1  0
 13 14  1  0
 11 15  1  0
 12 16  1  0
 15 17  1  0
 16 18  1  6
 16 19  1  0
 17 20  1  0
 19 21  2  0
 19 22  1  0
 18 23  1  0
 20 24  2  0
 22 25  1  0
 21 26  1  0
 22 27  2  0
 23 28  2  0
 23 29  1  0
 26 30  2  0
 27 30  1  0
 28 31  1  0
 29 32  1  0
 31 32  2  0
 32 33  1  0
M  END
