x0397_0-x0770_1-x1385_1-x0831_0-x1418_1-x1334_0-x0434_2-x1412_1-x1334_1
     RDKit          3D

 34 38  0  0  0  0  0  0  0  0999 V2000
    6.3630   -3.2560   19.9240 C   0  0  0  0  0  0  0  0  0  0  0  0
    7.2930   -2.9720   18.7910 C   0  0  0  0  0  0  0  0  0  0  0  0
    5.4080   -4.0380   19.7300 O   0  0  0  0  0  0  0  0  0  0  0  0
    6.7110   -2.6250   21.1590 N   0  0  0  0  0  0  0  0  0  0  0  0
    7.7250   -1.5530   21.2570 C   0  0  2  0  0  0  0  0  0  0  0  0
    7.0250   -3.6990   22.1470 C   0  0  1  0  0  0  0  0  0  0  0  0
    7.8360   -1.0990   22.7310 C   0  0  0  0  0  0  0  0  0  0  0  0
    7.4330   -3.2710   23.5550 C   0  0  0  0  0  0  0  0  0  0  0  0
    5.9450   -4.7340   22.1580 C   0  0  0  0  0  0  0  0  0  0  0  0
    7.5100   -0.1610   20.6420 C   0  0  0  0  0  0  0  0  0  0  0  0
    8.3320   -2.1010   23.6300 N   0  0  0  0  0  0  0  0  0  0  0  0
    6.0700   -6.0610   23.1710 C   0  0  0  0  0  0  0  0  0  0  0  0
    6.0640   -6.1260   21.7560 C   0  0  0  0  0  0  0  0  0  0  0  0
    7.0570    0.0600   19.2370 C   0  0  0  0  0  0  0  0  0  0  0  0
    9.6610   -2.3190   23.4680 C   0  0  2  0  0  0  0  0  0  0  0  0
    6.2220    0.4790   20.2390 C   0  0  0  0  0  0  0  0  0  0  0  0
    6.3610    0.4140   18.0890 N   0  0  0  0  0  0  0  0  0  0  0  0
   10.3010   -3.2820   24.4040 C   0  0  0  0  0  0  0  0  0  0  0  0
   10.4910   -1.0150   23.4440 C   0  0  0  0  0  0  0  0  0  0  0  0
    5.1800    1.0240   17.9250 C   0  0  0  0  0  0  0  0  0  0  0  0
    4.9870    1.1050   20.1680 C   0  0  0  0  0  0  0  0  0  0  0  0
   10.0290    0.2490   23.9300 C   0  0  0  0  0  0  0  0  0  0  0  0
   11.9500   -0.8990   22.8960 C   0  0  0  0  0  0  0  0  0  0  0  0
    9.5120   -4.1620   25.3490 C   0  0  0  0  0  0  0  0  0  0  0  0
    4.3960    1.4180   18.8650 C   0  0  0  0  0  0  0  0  0  0  0  0
   12.6570   -2.0850   22.3180 C   0  0  0  0  0  0  0  0  0  0  0  0
   10.7920    1.5880   23.9550 C   0  0  0  0  0  0  0  0  0  0  0  0
   12.7360    0.3840   22.9010 C   0  0  0  0  0  0  0  0  0  0  0  0
   10.0360   -5.5720   25.4830 C   0  0  0  0  0  0  0  0  0  0  0  0
    8.1820   -3.6510   26.2110 S   0  0  0  0  0  0  0  0  0  0  0  0
   12.2750    1.6100   23.3790 C   0  0  0  0  0  0  0  0  0  0  0  0
    9.0620   -6.0450   26.4970 C   0  0  0  0  0  0  0  0  0  0  0  0
    8.0080   -5.1010   26.9850 C   0  0  0  0  0  0  0  0  0  0  0  0
    6.8000   -5.4240   28.1520 Cl  0  0  0  0  0  0  0  0  0  0  0  0
  1  2  1  0
  1  3  2  0
  1  4  1  0
  4  5  1  0
  4  6  1  0
  5  7  1  0
  6  8  1  0
  6  9  1  1
  5 10  1  6
  7 11  1  0
  8 11  1  0
  9 12  1  0
  9 13  1  0
 12 13  1  0
 10 14  1  0
 11 15  1  0
 14 16  2  0
 14 17  1  0
 15 18  1  1
 15 19  1  0
 17 20  2  0
 16 21  1  0
 19 22  2  0
 19 23  1  0
 18 24  1  0
 20 25  1  0
 21 25  2  0
 23 26  1  0
 22 27  1  0
 23 28  2  0
 24 29  2  0
 24 30  1  0
 27 31  2  0
 28 31  1  0
 29 32  1  0
 30 33  1  0
 32 33  2  0
 33 34  1  0
M  END
