x0395_0-x0689_1
     RDKit          3D

 18 19  0  0  0  0  0  0  0  0999 V2000
    6.2870   -4.4480   20.4630 C   0  0  0  0  0  0  0  0  0  0  0  0
    7.3280   -3.4390   19.9770 C   0  0  0  0  0  0  0  0  0  0  0  0
    5.2070   -4.5400   19.8910 O   0  0  0  0  0  0  0  0  0  0  0  0
    6.5390   -5.2950   21.5520 N   0  0  0  0  0  0  0  0  0  0  0  0
    5.5720   -6.2660   21.9960 C   0  0  0  0  0  0  0  0  0  0  0  0
    7.2960   -4.7940   22.7140 C   0  0  2  0  0  0  0  0  0  0  0  0
    7.7960   -6.0380   23.4810 C   0  0  0  0  0  0  0  0  0  0  0  0
    4.5500   -5.6670   23.0000 C   0  0  0  0  0  0  0  0  0  0  0  0
    6.2870   -4.0520   23.5810 C   0  0  0  0  0  0  0  0  0  0  0  0
    9.1080   -5.9120   24.2450 C   0  0  0  0  0  0  0  0  0  0  0  0
    5.2640   -4.9780   24.1170 N   0  0  0  0  0  0  0  0  0  0  0  0
    8.9730   -5.3530   25.6640 C   0  0  0  0  0  0  0  0  0  0  0  0
    8.8180   -3.9030   25.3420 C   0  0  0  0  0  0  0  0  0  0  0  0
    8.1430   -2.8780   26.1340 N   0  0  0  0  0  0  0  0  0  0  0  0
    9.4910   -3.3720   23.8560 S   0  0  0  0  0  0  0  0  0  0  0  0
    8.9200   -1.8070   24.1880 C   0  0  0  0  0  0  0  0  0  0  0  0
    8.2070   -1.6860   25.4610 N   0  0  0  0  0  0  0  0  0  0  0  0
    9.1670   -0.6940   23.2020 C   0  0  0  0  0  0  0  0  0  0  0  0
  1  2  1  0
  1  3  2  0
  1  4  1  0
  4  5  1  0
  4  6  1  0
  6  7  1  1
  5  8  1  0
  6  9  1  0
  7 10  1  0
  8 11  1  0
  9 11  1  0
 10 12  1  0
 12 13  1  0
 13 14  2  0
 13 15  1  0
 15 16  1  0
 14 17  1  0
 16 17  2  0
 16 18  1  0
M  END
