x0397_0-x1418_1-x0426_1-x1385_1-x1334_1-x1334_0-x0831_0-x0831_1
     RDKit          3D

 38 43  0  0  0  0  0  0  0  0999 V2000
    6.1740   -3.2260   20.0240 C   0  0  0  0  0  0  0  0  0  0  0  0
    7.2250   -2.9120   18.9580 C   0  0  0  0  0  0  0  0  0  0  0  0
    5.3460   -4.0980   19.7320 O   0  0  0  0  0  0  0  0  0  0  0  0
    6.1290   -2.6120   21.3220 N   0  0  0  0  0  0  0  0  0  0  0  0
    5.9990   -3.3960   22.4430 C   0  0  2  0  0  0  0  0  0  0  0  0
    6.9000   -1.4180   21.8150 C   0  0  2  0  0  0  0  0  0  0  0  0
    6.6970    0.0870   21.4930 C   0  0  2  0  0  0  0  0  0  0  0  0
    7.3950   -3.7570   22.9300 C   0  0  0  0  0  0  0  0  0  0  0  0
    8.2430   -1.7230   21.9940 C   0  0  0  0  0  0  0  0  0  0  0  0
    5.2530   -4.6950   22.1420 C   0  0  0  0  0  0  0  0  0  0  0  0
    6.0660    0.8290   22.6940 C   0  0  0  0  0  0  0  0  0  0  0  0
    8.2910   -2.6390   23.1730 N   0  0  0  0  0  0  0  0  0  0  0  0
    5.7800   -5.7020   22.9600 C   0  0  0  0  0  0  0  0  0  0  0  0
    5.8660   -6.0360   21.5540 C   0  0  0  0  0  0  0  0  0  0  0  0
    6.0580    0.5400   20.2110 C   0  0  0  0  0  0  0  0  0  0  0  0
    4.5460    1.0800   22.6710 C   0  0  1  0  0  0  0  0  0  0  0  0
    9.4810   -3.3270   23.5460 C   0  0  1  0  0  0  0  0  0  0  0  0
    4.8440    1.2400   20.1120 C   0  0  0  0  0  0  0  0  0  0  0  0
    6.8270    0.2140   18.9880 C   0  0  0  0  0  0  0  0  0  0  0  0
    4.0880    2.1660   23.5550 N   0  0  0  0  0  0  0  0  0  0  0  0
    4.0100    1.5840   21.3000 C   0  0  0  0  0  0  0  0  0  0  0  0
   10.7340   -2.6350   23.0970 C   0  0  0  0  0  0  0  0  0  0  0  0
    4.4760    1.5930   18.8680 C   0  0  0  0  0  0  0  0  0  0  0  0
    6.4480    0.5670   17.7630 N   0  0  0  0  0  0  0  0  0  0  0  0
    9.2080   -4.1330   24.8040 C   0  0  0  0  0  0  0  0  0  0  0  0
    5.3040    1.2550   17.6640 C   0  0  0  0  0  0  0  0  0  0  0  0
    9.8020   -5.3860   25.2280 C   0  0  0  0  0  0  0  0  0  0  0  0
    8.0240   -3.6260   25.9610 S   0  0  0  0  0  0  0  0  0  0  0  0
   10.9740   -1.1650   23.3590 C   0  0  0  0  0  0  0  0  0  0  0  0
    9.4270   -5.9920   26.3480 C   0  0  0  0  0  0  0  0  0  0  0  0
    8.3790   -5.2170   27.0200 C   0  0  0  0  0  0  0  0  0  0  0  0
   10.0580   -0.2280   24.1460 C   0  0  0  0  0  0  0  0  0  0  0  0
   12.1820   -0.7260   22.7910 C   0  0  0  0  0  0  0  0  0  0  0  0
    7.5370   -5.5450   28.4670 Cl  0  0  0  0  0  0  0  0  0  0  0  0
   13.0300   -1.6950   22.0260 C   0  0  0  0  0  0  0  0  0  0  0  0
   10.5170    1.2340   24.2830 C   0  0  0  0  0  0  0  0  0  0  0  0
   12.6700    0.5400   22.8720 C   0  0  0  0  0  0  0  0  0  0  0  0
   11.8450    1.5670   23.6170 C   0  0  0  0  0  0  0  0  0  0  0  0
  1  2  1  0
  1  3  2  0
  1  4  1  0
  4  5  1  0
  4  6  1  0
  6  7  1  0
  5  8  1  0
  6  9  1  6
  5 10  1  6
  7 11  1  1
  8 12  1  0
  9 12  1  0
 10 13  1  0
 10 14  1  0
 13 14  1  0
  7 15  1  0
 11 16  1  0
 12 17  1  0
 15 18  2  0
 15 19  1  0
 16 20  1  1
 16 21  1  0
 18 21  1  0
 17 22  1  1
 18 23  1  0
 19 24  2  0
 17 25  1  0
 23 26  2  0
 24 26  1  0
 25 27  2  0
 25 28  1  0
 22 29  1  0
 27 30  1  0
 28 31  1  0
 30 31  2  0
 29 32  2  0
 29 33  1  0
 31 34  1  0
 33 35  1  0
 32 36  1  0
 33 37  2  0
 36 38  2  0
 37 38  1  0
M  END
