x0397_0-x0692_1-x0831_0-x0434_2-x0831_1-x1385_1-x0770_1-x1418_1-x1334_1-x1334_0-x1374_1-x0540_3-x1412_1
     RDKit          3D

 44 48  0  0  0  0  0  0  0  0999 V2000
    2.2090   -7.7460   23.3530 O   0  0  0  0  0  0  0  0  0  0  0  0
    2.4290   -8.1250   24.6960 C   0  0  0  0  0  0  0  0  0  0  0  0
    3.8140   -8.0230   24.9180 O   0  0  0  0  0  0  0  0  0  0  0  0
    4.4280   -7.2650   23.8920 C   0  0  0  0  0  0  0  0  0  0  0  0
    5.1990   -6.0570   24.4220 C   0  0  0  0  0  0  0  0  0  0  0  0
    6.0880   -5.4940   23.3670 C   0  0  2  0  0  0  0  0  0  0  0  0
    5.6530   -4.6800   22.4570 C   0  0  2  0  0  0  0  0  0  0  0  0
    6.3290   -6.1180   22.0920 C   0  0  0  0  0  0  0  0  0  0  0  0
    6.3500   -3.3740   22.4520 C   0  0  2  0  0  0  0  0  0  0  0  0
    6.0880   -2.5340   21.2870 N   0  0  0  0  0  0  0  0  0  0  0  0
    7.8450   -3.5780   22.6760 C   0  0  0  0  0  0  0  0  0  0  0  0
    6.1550   -3.2220   20.0090 C   0  0  0  0  0  0  0  0  0  0  0  0
    8.6670   -2.3070   22.7480 N   0  0  0  0  0  0  0  0  0  0  0  0
    6.8230   -1.3520   21.8160 C   0  0  2  0  0  0  0  0  0  0  0  0
    5.3520   -4.1470   19.7790 O   0  0  0  0  0  0  0  0  0  0  0  0
    7.1910   -2.9130   18.9160 C   0  0  0  0  0  0  0  0  0  0  0  0
    6.1830   -0.0910   22.4590 C   0  0  0  0  0  0  0  0  0  0  0  0
   10.0310   -2.4580   23.2000 C   0  0  2  0  0  0  0  0  0  0  0  0
    8.3540   -1.3880   21.6110 C   0  0  0  0  0  0  0  0  0  0  0  0
    5.0420    0.6210   21.7570 C   0  0  1  0  0  0  0  0  0  0  0  0
    9.8610   -2.6980   24.6850 C   0  0  0  0  0  0  0  0  0  0  0  0
   10.8240   -1.1280   23.2370 C   0  0  0  0  0  0  0  0  0  0  0  0
    4.8910    2.0340   22.3040 C   0  0  0  0  0  0  0  0  0  0  0  0
   10.2010   -0.0060   23.8570 C   0  0  0  0  0  0  0  0  0  0  0  0
   12.2410   -0.9510   22.6530 C   0  0  0  0  0  0  0  0  0  0  0  0
    9.4370   -3.9620   25.4250 C   0  0  0  0  0  0  0  0  0  0  0  0
    5.4530    0.6600   20.3230 C   0  0  0  0  0  0  0  0  0  0  0  0
    3.5340    2.4680   22.4090 N   0  0  0  0  0  0  0  0  0  0  0  0
   13.0400   -1.9800   21.9550 C   0  0  0  0  0  0  0  0  0  0  0  0
   10.7770    1.2630   23.9960 C   0  0  0  0  0  0  0  0  0  0  0  0
   12.7520    0.4810   22.8790 C   0  0  0  0  0  0  0  0  0  0  0  0
    9.8970   -5.3770   25.4780 C   0  0  0  0  0  0  0  0  0  0  0  0
    8.1150   -3.7510   26.5110 S   0  0  0  0  0  0  0  0  0  0  0  0
    6.6560   -0.0780   19.9030 C   0  0  0  0  0  0  0  0  0  0  0  0
    4.7020    1.4400   19.2280 C   0  0  0  0  0  0  0  0  0  0  0  0
    2.7280    2.2920   23.6090 C   0  0  0  0  0  0  0  0  0  0  0  0
   12.0230    1.4440   23.5010 C   0  0  0  0  0  0  0  0  0  0  0  0
    9.2550   -6.1730   26.3370 C   0  0  0  0  0  0  0  0  0  0  0  0
    8.1730   -5.4390   27.0750 C   0  0  0  0  0  0  0  0  0  0  0  0
    7.0310   -0.0100   18.4880 C   0  0  0  0  0  0  0  0  0  0  0  0
    5.2220    1.3850   17.9320 C   0  0  0  0  0  0  0  0  0  0  0  0
    2.9030    1.4750   24.5050 O   0  0  0  0  0  0  0  0  0  0  0  0
    7.0800   -5.9510   28.2880 Cl  0  0  0  0  0  0  0  0  0  0  0  0
    6.3320    0.6940   17.5710 N   0  0  0  0  0  0  0  0  0  0  0  0
  1  2  1  0
  2  3  1  0
  3  4  1  0
  4  5  1  0
  6  5  1  1
  6  7  1  0
  6  8  1  0
  7  8  1  6
  7  9  1  0
  9 10  1  0
  9 11  1  6
 10 12  1  0
 11 13  1  0
 10 14  1  0
 12 15  2  0
 12 16  1  0
 14 17  1  6
 13 18  1  0
 13 19  1  0
 14 19  1  0
 20 17  1  1
 18 21  1  1
 18 22  1  0
 20 23  1  0
 22 24  2  0
 22 25  1  0
 21 26  1  0
 20 27  1  0
 23 28  1  0
 25 29  1  0
 24 30  1  0
 25 31  2  0
 26 32  2  0
 26 33  1  0
 27 34  2  0
 27 35  1  0
 28 36  1  0
 30 37  2  0
 31 37  1  0
 32 38  1  0
 33 39  1  0
 38 39  2  0
 34 40  1  0
 35 41  2  0
 36 42  2  0
 39 43  1  0
 40 44  2  0
 41 44  1  0
M  END
