x0397_0-x0831_0-x1412_1-x1334_0-x0434_2-x1334_1
     RDKit          3D

 34 38  0  0  0  0  0  0  0  0999 V2000
    6.4300   -3.3540   19.9830 C   0  0  0  0  0  0  0  0  0  0  0  0
    7.3830   -3.0010   18.8510 C   0  0  0  0  0  0  0  0  0  0  0  0
    5.4100   -4.0170   19.6980 O   0  0  0  0  0  0  0  0  0  0  0  0
    6.7980   -2.9980   21.3020 N   0  0  0  0  0  0  0  0  0  0  0  0
    7.0010   -1.5980   21.5770 C   0  0  2  0  0  0  0  0  0  0  0  0
    7.0570   -4.0310   22.1320 C   0  0  1  0  0  0  0  0  0  0  0  0
    7.3270   -0.9410   20.3750 N   0  0  0  0  0  0  0  0  0  0  0  0
    8.2960   -1.4420   22.3140 C   0  0  0  0  0  0  0  0  0  0  0  0
    7.9960   -3.7160   23.3380 C   0  0  0  0  0  0  0  0  0  0  0  0
    5.8480   -4.7460   22.6880 C   0  0  0  0  0  0  0  0  0  0  0  0
    8.5950   -2.3450   23.4580 N   0  0  0  0  0  0  0  0  0  0  0  0
    6.0220   -5.8870   23.5240 C   0  0  0  0  0  0  0  0  0  0  0  0
    5.5450   -6.3730   22.2270 C   0  0  0  0  0  0  0  0  0  0  0  0
    6.4930   -0.1000   19.6980 C   0  0  0  0  0  0  0  0  0  0  0  0
   10.0490   -2.3030   23.3550 C   0  0  2  0  0  0  0  0  0  0  0  0
    6.9020    0.1940   18.4960 C   0  0  0  0  0  0  0  0  0  0  0  0
    5.2940    0.4500   20.1540 C   0  0  0  0  0  0  0  0  0  0  0  0
   10.5860   -3.1980   24.4060 C   0  0  0  0  0  0  0  0  0  0  0  0
   10.7690   -0.9240   23.3850 C   0  0  0  0  0  0  0  0  0  0  0  0
    6.2610    1.0350   17.5610 N   0  0  0  0  0  0  0  0  0  0  0  0
    4.6150    1.2720   19.3040 C   0  0  0  0  0  0  0  0  0  0  0  0
    9.9340    0.2760   23.9580 C   0  0  0  0  0  0  0  0  0  0  0  0
   12.0430   -0.9300   22.9100 C   0  0  0  0  0  0  0  0  0  0  0  0
    9.7440   -4.0590   25.3120 C   0  0  0  0  0  0  0  0  0  0  0  0
    5.0630    1.5900   18.0050 C   0  0  0  0  0  0  0  0  0  0  0  0
   12.7590   -2.1170   22.3640 C   0  0  0  0  0  0  0  0  0  0  0  0
   10.6410    1.6610   24.0090 C   0  0  0  0  0  0  0  0  0  0  0  0
   12.6670    0.2330   22.9430 C   0  0  0  0  0  0  0  0  0  0  0  0
   10.0210   -5.4850   25.6600 C   0  0  0  0  0  0  0  0  0  0  0  0
    8.2860   -3.6800   26.2040 S   0  0  0  0  0  0  0  0  0  0  0  0
   12.0850    1.5990   23.4630 C   0  0  0  0  0  0  0  0  0  0  0  0
    9.0850   -6.0730   26.5800 C   0  0  0  0  0  0  0  0  0  0  0  0
    8.1000   -5.2170   26.9710 C   0  0  0  0  0  0  0  0  0  0  0  0
    6.8310   -5.5510   28.0660 Cl  0  0  0  0  0  0  0  0  0  0  0  0
  1  2  1  0
  1  3  2  0
  1  4  1  0
  4  5  1  0
  4  6  1  0
  5  7  1  6
  5  8  1  0
  6  9  1  0
  6 10  1  1
  8 11  1  0
  9 11  1  0
 10 12  1  0
 10 13  1  0
 12 13  1  0
  7 14  1  0
 11 15  1  0
 14 16  2  0
 14 17  1  0
 15 18  1  1
 15 19  1  0
 16 20  1  0
 17 21  2  0
 19 22  2  0
 19 23  1  0
 18 24  1  0
 20 25  2  0
 21 25  1  0
 23 26  1  0
 22 27  1  0
 23 28  2  0
 24 29  2  0
 24 30  1  0
 27 31  2  0
 28 31  1  0
 29 32  1  0
 30 33  1  0
 32 33  2  0
 33 34  1  0
M  END
