x0397_0-x0770_1-x0426_1-x0831_0-x1418_1-x1334_0-x0692_1-x1334_1
     RDKit          3D

 38 43  0  0  0  0  0  0  0  0999 V2000
    6.0900   -3.3640   20.0290 C   0  0  0  0  0  0  0  0  0  0  0  0
    7.0630   -2.9260   18.9410 C   0  0  0  0  0  0  0  0  0  0  0  0
    5.1970   -4.1670   19.7450 O   0  0  0  0  0  0  0  0  0  0  0  0
    6.2190   -2.9350   21.3950 N   0  0  0  0  0  0  0  0  0  0  0  0
    6.5440   -1.5900   21.8310 C   0  0  2  0  0  0  0  0  0  0  0  0
    6.5560   -3.7970   22.4790 C   0  0  2  0  0  0  0  0  0  0  0  0
    5.5200   -0.4480   21.4870 C   0  0  1  0  0  0  0  0  0  0  0  0
    8.0680   -1.3340   21.8150 C   0  0  0  0  0  0  0  0  0  0  0  0
    7.8920   -3.4610   23.1310 C   0  0  0  0  0  0  0  0  0  0  0  0
    6.6110   -5.1940   22.0080 C   0  0  0  0  0  0  0  0  0  0  0  0
    5.4660    0.6320   22.5910 C   0  0  0  0  0  0  0  0  0  0  0  0
    8.7570   -2.3870   22.5810 N   0  0  0  0  0  0  0  0  0  0  0  0
    6.3130   -6.2760   22.8740 C   0  0  0  0  0  0  0  0  0  0  0  0
    5.2600   -6.1420   21.8800 C   0  0  0  0  0  0  0  0  0  0  0  0
    5.5770    0.1830   20.1360 C   0  0  0  0  0  0  0  0  0  0  0  0
    4.4180    1.7690   22.3620 C   0  0  2  0  0  0  0  0  0  0  0  0
    9.6140   -1.9990   23.6820 C   0  0  1  0  0  0  0  0  0  0  0  0
    4.5630    1.2970   19.9240 C   0  0  0  0  0  0  0  0  0  0  0  0
    6.5180   -0.1900   19.0210 C   0  0  0  0  0  0  0  0  0  0  0  0
    3.4980    1.8160   23.4820 N   0  0  0  0  0  0  0  0  0  0  0  0
    3.6240    1.7160   20.9920 C   0  0  0  0  0  0  0  0  0  0  0  0
   10.3480   -3.2300   24.1330 C   0  0  0  0  0  0  0  0  0  0  0  0
    4.6770    1.8720   18.5260 C   0  0  0  0  0  0  0  0  0  0  0  0
    6.5010    0.4160   17.8290 N   0  0  0  0  0  0  0  0  0  0  0  0
   10.5540   -0.7690   23.5640 C   0  0  0  0  0  0  0  0  0  0  0  0
    5.6050    1.3880   17.6430 C   0  0  0  0  0  0  0  0  0  0  0  0
   10.0520    0.4550   24.0100 C   0  0  0  0  0  0  0  0  0  0  0  0
   11.9520   -0.8320   23.0070 C   0  0  0  0  0  0  0  0  0  0  0  0
    9.6600   -4.1390   25.1430 C   0  0  0  0  0  0  0  0  0  0  0  0
   12.5680   -2.0910   22.4980 C   0  0  0  0  0  0  0  0  0  0  0  0
   10.9300    1.6780   23.9230 C   0  0  0  0  0  0  0  0  0  0  0  0
   12.7250    0.2520   22.9350 C   0  0  0  0  0  0  0  0  0  0  0  0
    9.9820   -5.4380   25.3880 C   0  0  0  0  0  0  0  0  0  0  0  0
    8.3470   -3.7120   26.1810 S   0  0  0  0  0  0  0  0  0  0  0  0
   12.3230    1.4980   23.3480 C   0  0  0  0  0  0  0  0  0  0  0  0
    9.1950   -6.0790   26.4280 C   0  0  0  0  0  0  0  0  0  0  0  0
    8.2670   -5.2260   26.9440 C   0  0  0  0  0  0  0  0  0  0  0  0
    7.1340   -5.5490   28.1860 Cl  0  0  0  0  0  0  0  0  0  0  0  0
  1  2  1  0
  1  3  2  0
  1  4  1  0
  4  5  1  0
  4  6  1  0
  5  7  1  0
  5  8  1  6
  6  9  1  0
  6 10  1  6
  7 11  1  1
  8 12  1  0
  9 12  1  0
 10 13  1  0
 10 14  1  0
 13 14  1  0
  7 15  1  0
 11 16  1  0
 12 17  1  0
 15 18  2  0
 15 19  1  0
 16 20  1  1
 16 21  1  0
 18 21  1  0
 17 22  1  6
 18 23  1  0
 19 24  2  0
 17 25  1  0
 23 26  2  0
 24 26  1  0
 25 27  2  0
 25 28  1  0
 22 29  1  0
 28 30  1  0
 27 31  1  0
 28 32  2  0
 29 33  2  0
 29 34  1  0
 31 35  2  0
 32 35  1  0
 33 36  1  0
 34 37  1  0
 36 37  2  0
 37 38  1  0
M  END
