x0395_1-x0874_0-x1412_0-x0771_0
     RDKit          3D

 25 27  0  0  0  0  0  0  0  0999 V2000
    6.5940   -4.2600   20.6430 C   0  0  0  0  0  0  0  0  0  0  0  0
    7.9630   -3.6230   20.3810 C   0  0  0  0  0  0  0  0  0  0  0  0
    5.6370   -4.2090   19.8390 O   0  0  0  0  0  0  0  0  0  0  0  0
    6.4380   -4.9420   21.8520 N   0  0  0  0  0  0  0  0  0  0  0  0
    5.8410   -6.2650   21.9400 C   0  0  0  0  0  0  0  0  0  0  0  0
    7.2870   -4.6060   23.0370 C   0  0  1  0  0  0  0  0  0  0  0  0
    7.5740   -3.1130   23.2840 C   0  0  0  0  0  0  0  0  0  0  0  0
    4.8860   -6.3040   23.1390 C   0  0  0  0  0  0  0  0  0  0  0  0
    6.6730   -4.9180   24.2530 C   0  0  0  0  0  0  0  0  0  0  0  0
    8.7150   -2.7940   24.2740 C   0  0  0  0  0  0  0  0  0  0  0  0
    5.2520   -5.2620   24.0910 N   0  0  0  0  0  0  0  0  0  0  0  0
    8.7820   -1.4860   24.8950 N   0  0  0  0  0  0  0  0  0  0  0  0
    8.7300   -3.8770   25.3830 C   0  0  0  0  0  0  0  0  0  0  0  0
    9.9400   -0.6290   24.6590 C   0  0  0  0  0  0  0  0  0  0  0  0
    9.5190   -4.9860   25.3590 C   0  0  0  0  0  0  0  0  0  0  0  0
    7.7100   -3.8330   26.8920 S   0  0  0  0  0  0  0  0  0  0  0  0
    9.4040   -5.9530   26.5650 C   0  0  0  0  0  0  0  0  0  0  0  0
    8.4500   -5.3790   27.4200 C   0  0  0  0  0  0  0  0  0  0  0  0
   10.2540   -0.3240   23.2590 N   0  0  0  0  0  0  0  0  0  0  0  0
   10.6050    0.9410   22.9840 C   0  0  0  0  0  0  0  0  0  0  0  0
   11.0650   -1.3100   22.5150 C   0  0  0  0  0  0  0  0  0  0  0  0
   12.5630   -1.1380   22.7320 C   0  0  1  0  0  0  0  0  0  0  0  0
   12.0920    1.1840   22.9310 C   0  0  0  0  0  0  0  0  0  0  0  0
   13.1880   -1.3850   21.5740 F   0  0  0  0  0  0  0  0  0  0  0  0
   12.9820    0.1200   23.1650 C   0  0  0  0  0  0  0  0  0  0  0  0
  1  2  1  0
  1  3  2  0
  1  4  1  0
  4  5  1  0
  4  6  1  0
  6  7  1  1
  5  8  1  0
  6  9  1  0
  7 10  1  0
  8 11  1  0
  9 11  1  0
 10 12  2  3
 10 13  1  0
 12 14  1  0
 13 15  2  0
 13 16  1  0
 15 17  1  0
 16 18  1  0
 17 18  2  0
 14 19  1  0
 19 20  1  0
 19 21  1  0
 21 22  1  0
 20 23  2  0
 22 24  1  6
 22 25  1  0
 23 25  1  0
M  END
