x0397_0-x0770_1-x1385_1-x0434_2-x0831_1-x0831_0-x0692_1-x1334_1
     RDKit          3D

 27 30  0  0  0  0  0  0  0  0999 V2000
    6.3320   -3.2980   19.8860 C   0  0  0  0  0  0  0  0  0  0  0  0
    7.2960   -3.0410   18.7330 C   0  0  0  0  0  0  0  0  0  0  0  0
    5.3560   -4.0440   19.6710 O   0  0  0  0  0  0  0  0  0  0  0  0
    6.6670   -2.7110   21.0940 N   0  0  0  0  0  0  0  0  0  0  0  0
    7.7240   -1.6560   20.8640 C   0  0  2  0  0  0  0  0  0  0  0  0
    7.0080   -3.5130   22.1700 C   0  0  1  0  0  0  0  0  0  0  0  0
    8.9690   -1.8350   21.7410 C   0  0  0  0  0  0  0  0  0  0  0  0
    7.4800   -2.7840   23.4320 C   0  0  0  0  0  0  0  0  0  0  0  0
    5.9410   -4.5880   22.5310 C   0  0  0  0  0  0  0  0  0  0  0  0
    7.2780   -0.2190   20.7430 C   0  0  0  0  0  0  0  0  0  0  0  0
    8.6360   -1.9180   23.1600 N   0  0  0  0  0  0  0  0  0  0  0  0
    6.3220   -5.7320   23.2950 C   0  0  0  0  0  0  0  0  0  0  0  0
    6.0920   -6.1790   21.9710 C   0  0  0  0  0  0  0  0  0  0  0  0
    7.0400    0.1920   19.3010 C   0  0  0  0  0  0  0  0  0  0  0  0
    9.7840   -2.2280   23.7930 C   0  0  0  0  0  0  0  0  0  0  0  0
    5.8450    0.4930   20.2640 C   0  0  0  0  0  0  0  0  0  0  0  0
    6.4940    0.6850   18.1110 N   0  0  0  0  0  0  0  0  0  0  0  0
   10.6970   -1.0520   23.6290 C   0  0  0  0  0  0  0  0  0  0  0  0
    5.3000    1.2590   17.8850 C   0  0  0  0  0  0  0  0  0  0  0  0
    4.6020    1.0600   20.1060 C   0  0  0  0  0  0  0  0  0  0  0  0
   10.1720    0.2740   24.2030 C   0  0  0  0  0  0  0  0  0  0  0  0
   12.1090   -1.0140   22.9260 C   0  0  0  0  0  0  0  0  0  0  0  0
    4.3040    1.4560   18.9270 C   0  0  0  0  0  0  0  0  0  0  0  0
   12.7580   -2.2120   22.3050 C   0  0  0  0  0  0  0  0  0  0  0  0
   10.9930    1.5660   24.0790 C   0  0  0  0  0  0  0  0  0  0  0  0
   12.8730    0.3860   22.8700 C   0  0  0  0  0  0  0  0  0  0  0  0
   12.3830    1.5780   23.3830 C   0  0  0  0  0  0  0  0  0  0  0  0
  1  2  1  0
  1  3  2  0
  1  4  1  0
  4  5  1  0
  4  6  1  0
  5  7  1  0
  6  8  1  0
  6  9  1  1
  5 10  1  1
  7 11  1  0
  8 11  1  0
  9 12  1  0
  9 13  1  0
 12 13  1  0
 10 14  1  0
 11 15  1  0
 14 16  2  0
 14 17  1  0
 15 18  1  0
 17 19  2  0
 16 20  1  0
 18 21  2  0
 18 22  1  0
 19 23  1  0
 20 23  2  0
 22 24  1  0
 21 25  1  0
 22 26  2  0
 25 27  2  0
 26 27  1  0
M  END
