x0395_1-x0691_0
     RDKit          3D

 19 20  0  0  0  0  0  0  0  0999 V2000
    6.3140   -4.3760   20.4870 C   0  0  0  0  0  0  0  0  0  0  0  0
    7.2900   -3.3900   19.8160 C   0  0  0  0  0  0  0  0  0  0  0  0
    5.2600   -4.5950   19.9130 O   0  0  0  0  0  0  0  0  0  0  0  0
    6.5640   -5.0580   21.6820 N   0  0  0  0  0  0  0  0  0  0  0  0
    5.8390   -6.3090   22.0200 C   0  0  0  0  0  0  0  0  0  0  0  0
    7.4810   -4.5790   22.7220 C   0  0  1  0  0  0  0  0  0  0  0  0
    7.9770   -3.1200   22.5140 C   0  0  0  0  0  0  0  0  0  0  0  0
    4.8750   -6.0430   23.1570 C   0  0  0  0  0  0  0  0  0  0  0  0
    6.7920   -4.8010   24.0780 C   0  0  0  0  0  0  0  0  0  0  0  0
    8.3320   -2.3400   23.7870 C   0  0  0  0  0  0  0  0  0  0  0  0
    5.3360   -5.0300   24.1110 N   0  0  0  0  0  0  0  0  0  0  0  0
    9.6850   -2.0870   23.9100 C   0  0  0  0  0  0  0  0  0  0  0  0
   10.2290   -0.9950   23.0880 N   0  0  0  0  0  0  0  0  0  0  0  0
   11.2990   -1.5890   22.2480 C   0  0  0  0  0  0  0  0  0  0  0  0
   10.6800    0.1310   23.9580 C   0  0  0  0  0  0  0  0  0  0  0  0
   12.5400   -0.9790   22.2490 C   0  0  0  0  0  0  0  0  0  0  0  0
   11.6550    0.9270   23.3920 C   0  0  0  0  0  0  0  0  0  0  0  0
   13.5640   -1.6160   21.6720 F   0  0  0  0  0  0  0  0  0  0  0  0
   12.7370    0.2800   22.8180 C   0  0  0  0  0  0  0  0  0  0  0  0
  1  2  1  0
  1  3  2  0
  1  4  1  0
  4  5  1  0
  4  6  1  0
  6  7  1  6
  5  8  1  0
  6  9  1  0
  7 10  1  0
  8 11  1  0
  9 11  1  0
 10 12  1  0
 12 13  1  0
 13 14  1  0
 13 15  1  0
 14 16  1  0
 15 17  1  0
 16 18  1  0
 16 19  2  0
 17 19  1  0
M  END
