x0395_1-x0749_1-x1336_1
     RDKit          3D

 29 31  0  0  0  0  0  0  0  0999 V2000
    7.4850   -1.6970   25.5570 S   0  0  1  0  0  0  0  0  0  0  0  0
    8.5520   -1.8410   24.4470 N   0  0  0  0  0  0  0  0  0  0  0  0
    9.7560   -0.9630   24.4850 C   0  0  0  0  0  0  0  0  0  0  0  0
    6.1280   -1.5530   25.0640 O   0  0  0  0  0  0  0  0  0  0  0  0
    7.8060   -3.2360   26.4370 C   0  0  0  0  0  0  0  0  0  0  0  0
    6.7920   -3.7200   27.4120 C   0  0  0  0  0  0  0  0  0  0  0  0
    8.9700   -3.9930   26.2520 C   0  0  0  0  0  0  0  0  0  0  0  0
   10.0870   -3.6410   25.3180 C   0  0  0  0  0  0  0  0  0  0  0  0
    6.9030   -4.8430   28.1390 C   0  0  0  0  0  0  0  0  0  0  0  0
    9.1810   -5.2960   27.0360 C   0  0  0  0  0  0  0  0  0  0  0  0
   10.1660   -0.5810   23.1360 N   0  0  0  0  0  0  0  0  0  0  0  0
    5.8040   -5.2040   29.0880 C   0  0  0  0  0  0  0  0  0  0  0  0
    9.7700   -4.2600   23.9810 C   0  0  0  0  0  0  0  0  0  0  0  0
    8.1040   -5.7820   28.0470 C   0  0  0  0  0  0  0  0  0  0  0  0
   11.1810   -1.4930   22.5180 C   0  0  0  0  0  0  0  0  0  0  0  0
   10.5130    0.8430   23.0760 C   0  0  0  0  0  0  0  0  0  0  0  0
    8.2900   -4.3310   23.5770 C   0  0  1  0  0  0  0  0  0  0  0  0
   12.4500   -0.9780   22.3520 C   0  0  0  0  0  0  0  0  0  0  0  0
   11.9120    1.1720   23.4700 C   0  0  0  0  0  0  0  0  0  0  0  0
   13.3820   -1.7160   21.7250 F   0  0  0  0  0  0  0  0  0  0  0  0
    8.1170   -3.8190   22.1370 C   0  0  0  0  0  0  0  0  0  0  0  0
    7.7760   -5.7600   23.7420 C   0  0  0  0  0  0  0  0  0  0  0  0
   12.8310    0.3870   22.8440 C   0  0  0  0  0  0  0  0  0  0  0  0
    6.8180   -4.2420   21.5480 N   0  0  0  0  0  0  0  0  0  0  0  0
    7.2560   -6.2240   22.5630 C   0  0  0  0  0  0  0  0  0  0  0  0
    6.4750   -3.9530   20.2360 C   0  0  0  0  0  0  0  0  0  0  0  0
    6.2650   -5.4890   22.0710 C   0  0  0  0  0  0  0  0  0  0  0  0
    7.4880   -3.2480   19.3120 C   0  0  0  0  0  0  0  0  0  0  0  0
    5.3710   -4.2860   19.8120 O   0  0  0  0  0  0  0  0  0  0  0  0
  1  2  2  0
  2  3  1  0
  1  4  2  0
  1  5  1  1
  5  6  2  0
  5  7  1  0
  7  8  1  0
  6  9  1  0
  7 10  2  0
  3 11  1  0
  9 12  1  0
  8 13  1  0
  9 14  2  0
 10 14  1  0
 11 15  1  0
 11 16  1  0
 17 13  1  6
 15 18  1  0
 16 19  1  0
 18 20  1  0
 17 21  1  0
 17 22  1  0
 18 23  2  0
 19 23  1  0
 21 24  1  0
 22 25  1  0
 24 26  1  0
 24 27  1  0
 25 27  1  0
 26 28  1  0
 26 29  2  0
M  END
