x0397_0-x1374_1-x1334_1-x0434_2-x0831_1-x0426_1-x1386_1-x0770_1-x1412_1-x1385_1-x1418_1-x0692_1-x0831_0-x1334_0-x1375_1
     RDKit          3D

 45 51  0  0  0  0  0  0  0  0999 V2000
    2.0350   -6.7220   24.4510 O   0  0  0  0  0  0  0  0  0  0  0  0
    2.9080   -7.5180   23.6650 C   0  0  0  0  0  0  0  0  0  0  0  0
    3.9580   -7.9560   24.5170 O   0  0  0  0  0  0  0  0  0  0  0  0
    5.2090   -7.3370   24.2270 C   0  0  0  0  0  0  0  0  0  0  0  0
    4.9990   -5.9960   24.0420 C   0  0  0  0  0  0  0  0  0  0  0  0
    6.0430   -5.5270   23.0880 C   0  0  2  0  0  0  0  0  0  0  0  0
    5.7040   -4.4260   22.2720 C   0  0  2  0  0  0  0  0  0  0  0  0
    6.0800   -5.9840   21.8270 C   0  0  0  0  0  0  0  0  0  0  0  0
    6.5960   -3.2260   22.2800 C   0  0  2  0  0  0  0  0  0  0  0  0
    6.6370   -2.5410   20.9500 N   0  0  0  0  0  0  0  0  0  0  0  0
    7.8790   -3.4740   22.8280 C   0  0  0  0  0  0  0  0  0  0  0  0
    6.3660   -3.3390   19.8240 C   0  0  0  0  0  0  0  0  0  0  0  0
    8.7190   -2.2650   22.9550 N   0  0  0  0  0  0  0  0  0  0  0  0
    7.8010   -1.6900   20.6960 C   0  0  1  0  0  0  0  0  0  0  0  0
    7.3370   -3.0700   18.6750 C   0  0  0  0  0  0  0  0  0  0  0  0
    5.4630   -4.1820   19.7550 O   0  0  0  0  0  0  0  0  0  0  0  0
   10.0990   -2.3630   23.3860 C   0  0  2  0  0  0  0  0  0  0  0  0
    7.5350   -0.2900   20.7920 N   0  0  0  0  0  0  0  0  0  0  0  0
    8.9960   -1.9060   21.5800 C   0  0  0  0  0  0  0  0  0  0  0  0
   10.4780   -3.3280   24.4740 C   0  0  0  0  0  0  0  0  0  0  0  0
    7.1840    0.1980   22.1350 C   0  0  0  0  0  0  0  0  0  0  0  0
    6.6110    0.3250   19.8490 C   0  0  0  0  0  0  0  0  0  0  0  0
   10.7900   -0.9830   23.4450 C   0  0  0  0  0  0  0  0  0  0  0  0
    5.6480    0.2940   22.0790 C   0  0  2  0  0  0  0  0  0  0  0  0
    6.6570    0.5770   18.5080 N   0  0  0  0  0  0  0  0  0  0  0  0
    5.5270    0.6780   20.6070 C   0  0  0  0  0  0  0  0  0  0  0  0
   10.1950    0.1850   23.9430 C   0  0  0  0  0  0  0  0  0  0  0  0
   12.1930   -0.7920   22.9420 C   0  0  0  0  0  0  0  0  0  0  0  0
    9.7300   -3.9510   25.3810 C   0  0  0  0  0  0  0  0  0  0  0  0
    4.8840    1.2660   23.0490 C   0  0  0  0  0  0  0  0  0  0  0  0
   12.9500   -1.9460   22.3630 C   0  0  0  0  0  0  0  0  0  0  0  0
    4.3480    1.3630   20.1060 C   0  0  0  0  0  0  0  0  0  0  0  0
    5.5690    1.2310   17.9870 C   0  0  0  0  0  0  0  0  0  0  0  0
   10.9150    1.3990   23.9480 C   0  0  0  0  0  0  0  0  0  0  0  0
   12.8650    0.4050   22.9610 C   0  0  0  0  0  0  0  0  0  0  0  0
   10.1840   -5.0430   26.0240 C   0  0  0  0  0  0  0  0  0  0  0  0
    8.1550   -3.5990   25.9750 S   0  0  0  0  0  0  0  0  0  0  0  0
    3.9380    2.2480   22.3190 C   0  0  1  0  0  0  0  0  0  0  0  0
    3.2700    1.6770   21.0780 C   0  0  0  0  0  0  0  0  0  0  0  0
    4.3860    1.6860   18.6060 C   0  0  0  0  0  0  0  0  0  0  0  0
   12.2220    1.5020   23.4650 C   0  0  0  0  0  0  0  0  0  0  0  0
    9.3630   -5.6080   26.9860 C   0  0  0  0  0  0  0  0  0  0  0  0
    8.2040   -4.9110   27.0840 C   0  0  0  0  0  0  0  0  0  0  0  0
    2.9300    2.6810   23.2670 N   0  0  0  0  0  0  0  0  0  0  0  0
    6.9140   -5.2390   28.1620 Cl  0  0  0  0  0  0  0  0  0  0  0  0
  1  2  1  0
  2  3  1  0
  3  4  1  0
  4  5  1  0
  6  5  1  1
  6  7  1  0
  6  8  1  0
  7  8  1  6
  7  9  1  0
  9 10  1  0
  9 11  1  6
 10 12  1  0
 11 13  1  0
 10 14  1  0
 12 15  1  0
 12 16  2  0
 13 17  1  0
 14 18  1  1
 13 19  1  0
 14 19  1  0
 17 20  1  1
 18 21  1  0
 18 22  1  0
 17 23  1  0
 24 21  1  1
 22 25  2  0
 22 26  1  0
 24 26  1  0
 23 27  2  0
 23 28  1  0
 20 29  1  0
 24 30  1  0
 28 31  1  0
 26 32  2  0
 25 33  1  0
 27 34  1  0
 28 35  2  0
 29 36  2  0
 29 37  1  0
 30 38  1  0
 32 39  1  0
 38 39  1  0
 32 40  1  0
 33 40  2  0
 34 41  2  0
 35 41  1  0
 36 42  1  0
 37 43  1  0
 42 43  2  0
 38 44  1  1
 43 45  1  0
M  END
