x0397_0-x0831_0-x1418_1-x1334_0-x0692_1-x1334_1-x1412_1
     RDKit          3D

 27 30  0  0  0  0  0  0  0  0999 V2000
    6.3360   -3.2710   19.8390 C   0  0  0  0  0  0  0  0  0  0  0  0
    7.3480   -2.9700   18.7470 C   0  0  0  0  0  0  0  0  0  0  0  0
    5.3470   -3.9710   19.6170 O   0  0  0  0  0  0  0  0  0  0  0  0
    6.5620   -2.8190   21.1360 N   0  0  0  0  0  0  0  0  0  0  0  0
    7.0370   -3.7400   22.2120 C   0  0  1  0  0  0  0  0  0  0  0  0
    7.1110   -1.4440   21.2020 C   0  0  0  0  0  0  0  0  0  0  0  0
    7.7570   -3.0860   23.4130 C   0  0  0  0  0  0  0  0  0  0  0  0
    8.5470   -1.5140   21.6810 C   0  0  0  0  0  0  0  0  0  0  0  0
    5.9360   -4.6440   22.6700 C   0  0  0  0  0  0  0  0  0  0  0  0
    8.6890   -1.9960   23.0640 N   0  0  0  0  0  0  0  0  0  0  0  0
    6.2050   -5.9680   23.0450 C   0  0  0  0  0  0  0  0  0  0  0  0
    5.6630   -6.0930   21.9120 C   0  0  0  0  0  0  0  0  0  0  0  0
   10.0040   -2.2980   23.2650 C   0  0  2  0  0  0  0  0  0  0  0  0
   10.4800   -3.1440   24.4130 C   0  0  0  0  0  0  0  0  0  0  0  0
   10.7490   -0.9760   23.3420 C   0  0  0  0  0  0  0  0  0  0  0  0
   10.1660    0.2330   23.8940 C   0  0  0  0  0  0  0  0  0  0  0  0
   12.0880   -0.9360   22.8310 C   0  0  0  0  0  0  0  0  0  0  0  0
    9.6790   -4.0960   25.3090 C   0  0  0  0  0  0  0  0  0  0  0  0
   12.7710   -2.1150   22.2310 C   0  0  0  0  0  0  0  0  0  0  0  0
   10.8420    1.4600   23.9640 C   0  0  0  0  0  0  0  0  0  0  0  0
   12.8600    0.3710   22.8870 C   0  0  0  0  0  0  0  0  0  0  0  0
    9.9920   -5.3860   25.5100 C   0  0  0  0  0  0  0  0  0  0  0  0
    8.2940   -3.6610   26.2160 S   0  0  0  0  0  0  0  0  0  0  0  0
   12.2690    1.5890   23.4430 C   0  0  0  0  0  0  0  0  0  0  0  0
    9.0770   -6.0280   26.4730 C   0  0  0  0  0  0  0  0  0  0  0  0
    8.1490   -5.2040   26.9170 C   0  0  0  0  0  0  0  0  0  0  0  0
    6.9210   -5.5650   28.0540 Cl  0  0  0  0  0  0  0  0  0  0  0  0
  1  2  1  0
  1  3  2  0
  1  4  1  0
  4  5  1  0
  4  6  1  0
  5  7  1  0
  6  8  1  0
  5  9  1  1
  7 10  1  0
  8 10  1  0
  9 11  1  0
  9 12  1  0
 11 12  1  0
 10 13  1  0
 13 14  1  1
 13 15  1  0
 15 16  2  0
 15 17  1  0
 14 18  1  0
 17 19  1  0
 16 20  1  0
 17 21  2  0
 18 22  2  0
 18 23  1  0
 20 24  2  0
 21 24  1  0
 22 25  1  0
 23 26  1  0
 25 26  2  0
 26 27  1  0
M  END
