x0397_0-x0770_1-x0426_1-x1386_1-x0831_1-x0831_0-x1418_1-x1334_0-x0692_1-x0434_2-x1412_1-x1334_1
     RDKit          3D

 39 44  0  0  0  0  0  0  0  0999 V2000
    6.2790   -3.3630   19.9890 C   0  0  0  0  0  0  0  0  0  0  0  0
    7.2340   -3.0110   18.8530 C   0  0  0  0  0  0  0  0  0  0  0  0
    5.3810   -4.2020   19.7880 O   0  0  0  0  0  0  0  0  0  0  0  0
    6.4850   -2.7220   21.2380 N   0  0  0  0  0  0  0  0  0  0  0  0
    7.1190   -1.4280   21.1210 C   0  0  1  0  0  0  0  0  0  0  0  0
    6.9630   -3.6030   22.1660 C   0  0  1  0  0  0  0  0  0  0  0  0
    6.2520   -0.1630   21.5250 C   0  0  1  0  0  0  0  0  0  0  0  0
    8.5680   -1.5530   21.7160 C   0  0  0  0  0  0  0  0  0  0  0  0
    7.5030   -3.1060   23.2900 C   0  0  0  0  0  0  0  0  0  0  0  0
    5.8350   -4.6150   22.4980 C   0  0  0  0  0  0  0  0  0  0  0  0
    4.9840   -0.3560   22.4450 C   0  0  0  0  0  0  0  0  0  0  0  0
    7.1920    0.8830   22.2000 C   0  0  0  0  0  0  0  0  0  0  0  0
    8.5380   -2.0710   23.0590 N   0  0  0  0  0  0  0  0  0  0  0  0
    6.1660   -5.8130   23.2290 C   0  0  0  0  0  0  0  0  0  0  0  0
    5.8480   -6.1830   21.9890 C   0  0  0  0  0  0  0  0  0  0  0  0
    5.8160    0.4570   20.2160 C   0  0  0  0  0  0  0  0  0  0  0  0
    4.0120    0.8670   22.5110 C   0  0  1  0  0  0  0  0  0  0  0  0
    9.8550   -2.3150   23.6340 C   0  0  2  0  0  0  0  0  0  0  0  0
    4.6450    1.1690   20.0370 C   0  0  0  0  0  0  0  0  0  0  0  0
    6.7360    0.2660   19.0590 C   0  0  0  0  0  0  0  0  0  0  0  0
    4.4700    1.8770   23.4730 N   0  0  0  0  0  0  0  0  0  0  0  0
    3.6350    1.4110   21.1110 C   0  0  0  0  0  0  0  0  0  0  0  0
    9.9360   -2.7020   25.1000 C   0  0  0  0  0  0  0  0  0  0  0  0
    4.3640    1.7050   18.8020 C   0  0  0  0  0  0  0  0  0  0  0  0
    6.4220    0.8290   17.7500 N   0  0  0  0  0  0  0  0  0  0  0  0
   10.7360   -1.0540   23.4950 C   0  0  0  0  0  0  0  0  0  0  0  0
    5.2810    1.5290   17.6360 C   0  0  0  0  0  0  0  0  0  0  0  0
   10.2360    0.2550   24.1380 C   0  0  0  0  0  0  0  0  0  0  0  0
   12.1160   -0.9240   22.7840 C   0  0  0  0  0  0  0  0  0  0  0  0
    9.4760   -4.0060   25.7370 C   0  0  0  0  0  0  0  0  0  0  0  0
   12.8380   -2.0280   22.0760 C   0  0  0  0  0  0  0  0  0  0  0  0
   11.0210    1.5140   24.0650 C   0  0  0  0  0  0  0  0  0  0  0  0
   12.7300    0.3410   22.8170 C   0  0  0  0  0  0  0  0  0  0  0  0
    9.9560   -5.3070   25.6640 C   0  0  0  0  0  0  0  0  0  0  0  0
    8.1010   -3.8770   26.7940 S   0  0  0  0  0  0  0  0  0  0  0  0
   12.2140    1.5050   23.4210 C   0  0  0  0  0  0  0  0  0  0  0  0
    9.1320   -6.1700   26.5730 C   0  0  0  0  0  0  0  0  0  0  0  0
    8.1160   -5.5320   27.2400 C   0  0  0  0  0  0  0  0  0  0  0  0
    6.9630   -6.1060   28.3630 Cl  0  0  0  0  0  0  0  0  0  0  0  0
  1  2  1  0
  1  3  2  0
  1  4  1  0
  4  5  1  0
  4  6  1  0
  5  7  1  0
  5  8  1  1
  6  9  1  0
  6 10  1  1
  7 11  1  0
  7 12  1  1
  8 13  1  0
  9 13  1  0
 10 14  1  0
 10 15  1  0
 14 15  1  0
  7 16  1  0
 11 17  1  0
 13 18  1  0
 16 19  2  0
 16 20  1  0
 17 21  1  1
 17 22  1  0
 19 22  1  0
 18 23  1  1
 19 24  1  0
 20 25  2  0
 18 26  1  0
 24 27  2  0
 25 27  1  0
 26 28  2  0
 26 29  1  0
 23 30  1  0
 29 31  1  0
 28 32  1  0
 29 33  2  0
 30 34  2  0
 30 35  1  0
 32 36  2  0
 33 36  1  0
 34 37  1  0
 35 38  1  0
 37 38  2  0
 38 39  1  0
M  END
