x0397_0-x0770_1-x1385_1-x1374_1-x0831_0-x0692_1
     RDKit          3D

 25 27  0  0  0  0  0  0  0  0999 V2000
    2.2750   -7.6980   23.2920 O   0  0  0  0  0  0  0  0  0  0  0  0
    2.5190   -8.0290   24.6410 C   0  0  0  0  0  0  0  0  0  0  0  0
    3.9160   -8.0030   24.8390 O   0  0  0  0  0  0  0  0  0  0  0  0
    4.5310   -7.2060   23.8350 C   0  0  0  0  0  0  0  0  0  0  0  0
    5.1660   -6.0380   24.4780 C   0  0  0  0  0  0  0  0  0  0  0  0
    6.1020   -5.4630   23.4740 C   0  0  2  0  0  0  0  0  0  0  0  0
    5.6530   -4.3920   22.6060 C   0  0  2  0  0  0  0  0  0  0  0  0
    6.1460   -5.8820   22.0720 C   0  0  0  0  0  0  0  0  0  0  0  0
    6.3840   -3.1100   22.4410 C   0  0  2  0  0  0  0  0  0  0  0  0
    6.3720   -2.4980   21.1000 N   0  0  0  0  0  0  0  0  0  0  0  0
    7.7610   -3.2380   23.1330 C   0  0  0  0  0  0  0  0  0  0  0  0
    6.2220   -3.2940   19.9430 C   0  0  0  0  0  0  0  0  0  0  0  0
    8.5500   -2.0310   23.0670 N   0  0  0  0  0  0  0  0  0  0  0  0
    7.2450   -1.3220   21.0610 C   0  0  0  0  0  0  0  0  0  0  0  0
    7.2190   -3.0110   18.8450 C   0  0  0  0  0  0  0  0  0  0  0  0
    5.3810   -4.1920   19.7740 O   0  0  0  0  0  0  0  0  0  0  0  0
    9.9210   -2.2900   23.5290 C   0  0  0  0  0  0  0  0  0  0  0  0
    8.6110   -1.5500   21.6980 C   0  0  0  0  0  0  0  0  0  0  0  0
   10.6900   -1.0270   23.5160 C   0  0  0  0  0  0  0  0  0  0  0  0
   10.2310    0.1240   24.0620 C   0  0  0  0  0  0  0  0  0  0  0  0
   12.0890   -1.0140   22.8320 C   0  0  0  0  0  0  0  0  0  0  0  0
   12.7510   -2.1870   22.1740 C   0  0  0  0  0  0  0  0  0  0  0  0
   10.9090    1.4650   24.0850 C   0  0  0  0  0  0  0  0  0  0  0  0
   12.8410    0.3370   22.8310 C   0  0  0  0  0  0  0  0  0  0  0  0
   12.2880    1.6560   23.4510 C   0  0  0  0  0  0  0  0  0  0  0  0
  1  2  1  0
  2  3  1  0
  3  4  1  0
  4  5  1  0
  6  5  1  1
  6  7  1  0
  6  8  1  0
  7  8  1  6
  7  9  1  0
  9 10  1  0
  9 11  1  6
 10 12  1  0
 11 13  1  0
 10 14  1  0
 12 15  1  0
 12 16  2  0
 13 17  1  0
 13 18  1  0
 14 18  1  0
 17 19  1  0
 19 20  2  0
 19 21  1  0
 21 22  1  0
 20 23  1  0
 21 24  2  0
 23 25  2  0
 24 25  1  0
M  END
