x0395_1-x1418_1
     RDKit          3D

 17 18  0  0  0  0  0  0  0  0999 V2000
    6.3230   -3.2920   19.8510 C   0  0  0  0  0  0  0  0  0  0  0  0
    7.3520   -3.0160   18.7730 C   0  0  0  0  0  0  0  0  0  0  0  0
    5.3690   -4.0490   19.6760 O   0  0  0  0  0  0  0  0  0  0  0  0
    6.5250   -2.6820   21.0710 N   0  0  0  0  0  0  0  0  0  0  0  0
    6.5070   -3.4260   22.3460 C   0  0  0  0  0  0  0  0  0  0  0  0
    7.2000   -1.3810   21.0890 C   0  0  0  0  0  0  0  0  0  0  0  0
    7.8980   -3.3760   23.0130 C   0  0  0  0  0  0  0  0  0  0  0  0
    8.6040   -1.4880   21.6720 C   0  0  0  0  0  0  0  0  0  0  0  0
    8.4280   -1.9820   23.0440 N   0  0  0  0  0  0  0  0  0  0  0  0
    9.5390   -1.8170   23.8230 C   0  0  0  0  0  0  0  0  0  0  0  0
   10.3880   -0.8150   23.2010 N   0  0  0  0  0  0  0  0  0  0  0  0
   11.2750   -1.4880   22.2890 C   0  0  0  0  0  0  0  0  0  0  0  0
   11.1020    0.0010   24.1600 C   0  0  0  0  0  0  0  0  0  0  0  0
   12.5480   -0.8830   22.3240 C   0  0  0  0  0  0  0  0  0  0  0  0
   11.7300    0.9530   23.3630 C   0  0  0  0  0  0  0  0  0  0  0  0
   13.5320   -1.6040   21.7690 F   0  0  0  0  0  0  0  0  0  0  0  0
   12.9120    0.3850   22.8620 C   0  0  0  0  0  0  0  0  0  0  0  0
  1  2  1  0
  1  3  2  0
  1  4  1  0
  4  5  1  0
  4  6  1  0
  5  7  1  0
  6  8  1  0
  7  9  1  0
  8  9  1  0
  9 10  1  0
 10 11  1  0
 11 12  1  0
 11 13  1  0
 12 14  1  0
 13 15  1  0
 14 16  1  0
 14 17  2  0
 15 17  1  0
M  END
