x0395_1-x0759_1
     RDKit          3D

 17 18  0  0  0  0  0  0  0  0999 V2000
    6.4380   -3.4480   20.0240 C   0  0  0  0  0  0  0  0  0  0  0  0
    7.3500   -3.0260   18.8920 C   0  0  0  0  0  0  0  0  0  0  0  0
    5.4690   -4.1870   19.7930 O   0  0  0  0  0  0  0  0  0  0  0  0
    6.7420   -3.0160   21.3240 N   0  0  0  0  0  0  0  0  0  0  0  0
    7.8930   -2.1450   21.7100 C   0  0  0  0  0  0  0  0  0  0  0  0
    6.1820   -3.6550   22.4980 C   0  0  0  0  0  0  0  0  0  0  0  0
    8.2800   -2.4840   23.1640 C   0  0  2  0  0  0  0  0  0  0  0  0
    7.2380   -4.4470   23.3310 C   0  0  0  0  0  0  0  0  0  0  0  0
    9.4600   -1.7020   23.8020 C   0  0  0  0  0  0  0  0  0  0  0  0
    8.4330   -3.6700   23.4190 O   0  0  0  0  0  0  0  0  0  0  0  0
   10.1740   -0.8780   22.9890 N   0  0  0  0  0  0  0  0  0  0  0  0
   11.1940   -1.6630   22.2750 C   0  0  0  0  0  0  0  0  0  0  0  0
   10.5360    0.3070   23.7770 C   0  0  0  0  0  0  0  0  0  0  0  0
   12.4390   -1.0070   22.2780 C   0  0  0  0  0  0  0  0  0  0  0  0
   11.6660    1.0270   23.3250 C   0  0  0  0  0  0  0  0  0  0  0  0
   13.4740   -1.6520   21.7540 F   0  0  0  0  0  0  0  0  0  0  0  0
   12.6530    0.2420   22.7710 C   0  0  0  0  0  0  0  0  0  0  0  0
  1  2  1  0
  1  3  2  0
  1  4  1  0
  4  5  1  0
  4  6  1  0
  5  7  1  0
  6  8  1  0
  7  9  1  6
  7 10  1  0
  8 10  1  0
  9 11  1  0
 11 12  1  0
 11 13  1  0
 12 14  1  0
 13 15  1  0
 14 16  1  0
 14 17  2  0
 15 17  1  0
M  END
