x0397_0-x1334_0-x1375_1-x1334_1-x0831_0-x0831_1-x0426_1-x1386_1-x0692_1-x0434_2
     RDKit          3D

 44 50  0  0  0  0  0  0  0  0999 V2000
    2.9430   -8.2970   24.0670 O   0  0  0  0  0  0  0  0  0  0  0  0
    2.9870   -6.9400   24.4400 C   0  0  0  0  0  0  0  0  0  0  0  0
    3.8270   -6.2680   23.5390 O   0  0  0  0  0  0  0  0  0  0  0  0
    5.1740   -6.5590   23.7830 C   0  0  0  0  0  0  0  0  0  0  0  0
    6.0450   -5.7200   22.9220 C   0  0  2  0  0  0  0  0  0  0  0  0
    5.5110   -4.5980   22.2530 C   0  0  2  0  0  0  0  0  0  0  0  0
    6.1700   -5.9780   21.6500 C   0  0  0  0  0  0  0  0  0  0  0  0
    6.3330   -3.2490   22.2680 C   0  0  2  0  0  0  0  0  0  0  0  0
    6.5680   -2.6410   21.0190 N   0  0  0  0  0  0  0  0  0  0  0  0
    7.5330   -3.6990   22.8250 C   0  0  0  0  0  0  0  0  0  0  0  0
    6.3660   -3.3610   19.8620 C   0  0  0  0  0  0  0  0  0  0  0  0
    8.3340   -2.5760   23.1680 N   0  0  0  0  0  0  0  0  0  0  0  0
    7.7620   -1.7460   20.8680 C   0  0  1  0  0  0  0  0  0  0  0  0
    7.3020   -3.0750   18.6980 C   0  0  0  0  0  0  0  0  0  0  0  0
    5.4750   -4.2180   19.7640 O   0  0  0  0  0  0  0  0  0  0  0  0
    9.2890   -2.6650   24.1260 C   0  0  2  0  0  0  0  0  0  0  0  0
    7.4450   -0.4720   21.0140 N   0  0  0  0  0  0  0  0  0  0  0  0
    8.8910   -2.1150   21.8540 C   0  0  0  0  0  0  0  0  0  0  0  0
   10.7180   -2.5410   23.6780 C   0  0  0  0  0  0  0  0  0  0  0  0
    6.7990   -0.2210   22.3140 C   0  0  0  0  0  0  0  0  0  0  0  0
    6.5840    0.1470   20.0550 C   0  0  0  0  0  0  0  0  0  0  0  0
    9.1120   -3.8320   25.1270 C   0  0  0  0  0  0  0  0  0  0  0  0
    5.8070    0.8970   22.0550 C   0  0  1  0  0  0  0  0  0  0  0  0
    6.5410    0.1030   18.5570 N   0  0  0  0  0  0  0  0  0  0  0  0
    5.6140    0.9260   20.5650 C   0  0  0  0  0  0  0  0  0  0  0  0
    9.8090   -5.0230   25.2910 C   0  0  0  0  0  0  0  0  0  0  0  0
    7.8540   -3.8150   26.3430 S   0  0  0  0  0  0  0  0  0  0  0  0
   11.1960   -1.0900   23.5740 C   0  0  0  0  0  0  0  0  0  0  0  0
    4.4100    0.8680   22.6550 C   0  0  0  0  0  0  0  0  0  0  0  0
    4.6060    1.6510   19.9430 C   0  0  0  0  0  0  0  0  0  0  0  0
    5.5410    0.8490   18.0140 C   0  0  0  0  0  0  0  0  0  0  0  0
    9.3610   -5.8030   26.2960 C   0  0  0  0  0  0  0  0  0  0  0  0
    8.2650   -5.3330   27.0420 C   0  0  0  0  0  0  0  0  0  0  0  0
   10.4240   -0.0640   24.0120 C   0  0  0  0  0  0  0  0  0  0  0  0
   12.4430   -0.8570   23.0200 C   0  0  0  0  0  0  0  0  0  0  0  0
    3.8120    2.2470   22.3790 C   0  0  1  0  0  0  0  0  0  0  0  0
    3.6510    2.4060   20.8480 C   0  0  0  0  0  0  0  0  0  0  0  0
    7.4020   -5.9790   28.3690 Cl  0  0  0  0  0  0  0  0  0  0  0  0
   13.2450   -1.9910   22.5260 C   0  0  0  0  0  0  0  0  0  0  0  0
    4.5520    1.6310   18.5980 C   0  0  0  0  0  0  0  0  0  0  0  0
   10.8510    1.2680   23.9480 C   0  0  0  0  0  0  0  0  0  0  0  0
   12.9110    0.3710   22.9280 C   0  0  0  0  0  0  0  0  0  0  0  0
    2.5650    2.4460   23.1210 N   0  0  0  0  0  0  0  0  0  0  0  0
   12.1270    1.5410   23.4000 C   0  0  0  0  0  0  0  0  0  0  0  0
  1  2  1  0
  2  3  1  0
  3  4  1  0
  5  4  1  6
  5  6  1  0
  5  7  1  0
  6  7  1  6
  6  8  1  0
  8  9  1  0
  8 10  1  6
  9 11  1  0
 10 12  1  0
  9 13  1  0
 11 14  1  0
 11 15  2  0
 12 16  1  0
 13 17  1  1
 12 18  1  0
 13 18  1  0
 16 19  1  6
 17 20  1  0
 17 21  1  0
 16 22  1  0
 23 20  1  6
 21 24  2  0
 21 25  1  0
 23 25  1  0
 22 26  2  0
 22 27  1  0
 19 28  1  0
 23 29  1  0
 25 30  2  0
 24 31  1  0
 26 32  1  0
 27 33  1  0
 32 33  2  0
 28 34  2  0
 28 35  1  0
 29 36  1  0
 30 37  1  0
 36 37  1  0
 33 38  1  0
 35 39  1  0
 30 40  1  0
 31 40  2  0
 34 41  1  0
 35 42  2  0
 36 43  1  1
 41 44  2  0
 42 44  1  0
M  END
