x0397_0-x0426_1-x0831_0-x1418_1-x1334_0-x1334_1
     RDKit          3D

 38 43  0  0  0  0  0  0  0  0999 V2000
    6.3250   -3.2720   19.9030 C   0  0  0  0  0  0  0  0  0  0  0  0
    7.3370   -2.9590   18.8240 C   0  0  0  0  0  0  0  0  0  0  0  0
    5.3180   -3.9220   19.6040 O   0  0  0  0  0  0  0  0  0  0  0  0
    6.5940   -2.9120   21.2460 N   0  0  0  0  0  0  0  0  0  0  0  0
    7.0280   -3.8520   22.1010 C   0  0  1  0  0  0  0  0  0  0  0  0
    6.7580   -1.5820   21.8670 C   0  0  2  0  0  0  0  0  0  0  0  0
    5.6750   -0.4620   21.5660 C   0  0  1  0  0  0  0  0  0  0  0  0
    7.7850   -3.2990   23.3150 C   0  0  0  0  0  0  0  0  0  0  0  0
    8.0470   -1.2700   22.0180 C   0  0  0  0  0  0  0  0  0  0  0  0
    5.8340   -4.6870   22.4700 C   0  0  0  0  0  0  0  0  0  0  0  0
    5.5510    0.6190   22.6920 C   0  0  0  0  0  0  0  0  0  0  0  0
    8.5340   -2.0390   23.1700 N   0  0  0  0  0  0  0  0  0  0  0  0
    6.0210   -5.7840   23.4350 C   0  0  0  0  0  0  0  0  0  0  0  0
    5.6660   -6.2840   22.0680 C   0  0  0  0  0  0  0  0  0  0  0  0
    5.6570    0.1700   20.2110 C   0  0  0  0  0  0  0  0  0  0  0  0
    4.5050    1.7540   22.4000 C   0  0  2  0  0  0  0  0  0  0  0  0
    9.9360   -2.3090   23.1930 C   0  0  2  0  0  0  0  0  0  0  0  0
    4.7100    1.1490   19.9620 C   0  0  0  0  0  0  0  0  0  0  0  0
    6.6030   -0.1740   19.0630 C   0  0  0  0  0  0  0  0  0  0  0  0
    3.5220    1.7750   23.4720 N   0  0  0  0  0  0  0  0  0  0  0  0
    3.7530    1.5580   21.0280 C   0  0  0  0  0  0  0  0  0  0  0  0
   10.4990   -3.1890   24.3570 C   0  0  0  0  0  0  0  0  0  0  0  0
    4.6750    1.8050   18.5650 C   0  0  0  0  0  0  0  0  0  0  0  0
    6.5420    0.4200   17.8600 N   0  0  0  0  0  0  0  0  0  0  0  0
   10.7340   -0.9940   23.2860 C   0  0  0  0  0  0  0  0  0  0  0  0
    5.5330    1.4320   17.6480 C   0  0  0  0  0  0  0  0  0  0  0  0
   10.1810    0.1420   23.8550 C   0  0  0  0  0  0  0  0  0  0  0  0
   12.1710   -0.8850   22.7500 C   0  0  0  0  0  0  0  0  0  0  0  0
    9.6840   -4.0910   25.2760 C   0  0  0  0  0  0  0  0  0  0  0  0
   12.9120   -2.0000   22.0960 C   0  0  0  0  0  0  0  0  0  0  0  0
   10.8310    1.3850   23.9810 C   0  0  0  0  0  0  0  0  0  0  0  0
   12.8120    0.4780   22.9210 C   0  0  0  0  0  0  0  0  0  0  0  0
   10.0210   -5.3620   25.4900 C   0  0  0  0  0  0  0  0  0  0  0  0
    8.2700   -3.6380   26.1810 S   0  0  0  0  0  0  0  0  0  0  0  0
   12.1010    1.5170   23.5190 C   0  0  0  0  0  0  0  0  0  0  0  0
    9.1680   -6.0940   26.4540 C   0  0  0  0  0  0  0  0  0  0  0  0
    8.1080   -5.1450   26.9240 C   0  0  0  0  0  0  0  0  0  0  0  0
    6.8780   -5.4890   28.0620 Cl  0  0  0  0  0  0  0  0  0  0  0  0
  1  2  1  0
  1  3  2  0
  1  4  1  0
  4  5  1  0
  4  6  1  0
  6  7  1  0
  5  8  1  0
  6  9  1  6
  5 10  1  1
  7 11  1  1
  8 12  1  0
  9 12  1  0
 10 13  1  0
 10 14  1  0
 13 14  1  0
  7 15  1  0
 11 16  1  0
 12 17  1  0
 15 18  2  0
 15 19  1  0
 16 20  1  1
 16 21  1  0
 18 21  1  0
 17 22  1  1
 18 23  1  0
 19 24  2  0
 17 25  1  0
 23 26  2  0
 24 26  1  0
 25 27  2  0
 25 28  1  0
 22 29  1  0
 28 30  1  0
 27 31  1  0
 28 32  2  0
 29 33  2  0
 29 34  1  0
 31 35  2  0
 32 35  1  0
 33 36  1  0
 34 37  1  0
 36 37  2  0
 37 38  1  0
M  END
