x0397_0-x0831_0-x1374_1-x0692_1-x1334_1-x1386_1-x0770_1-x1334_0
     RDKit          3D

 32 35  0  0  0  0  0  0  0  0999 V2000
    2.0630   -6.7310   24.3460 O   0  0  0  0  0  0  0  0  0  0  0  0
    3.0150   -7.4630   23.6100 C   0  0  0  0  0  0  0  0  0  0  0  0
    4.0480   -7.9260   24.4750 O   0  0  0  0  0  0  0  0  0  0  0  0
    5.2950   -7.3080   24.1650 C   0  0  0  0  0  0  0  0  0  0  0  0
    5.1340   -5.9470   24.1900 C   0  0  0  0  0  0  0  0  0  0  0  0
    6.0120   -5.3550   23.1340 C   0  0  2  0  0  0  0  0  0  0  0  0
    5.5100   -4.2820   22.3130 C   0  0  2  0  0  0  0  0  0  0  0  0
    6.0200   -5.8170   21.8530 C   0  0  0  0  0  0  0  0  0  0  0  0
    6.3340   -2.9920   22.2870 C   0  0  2  0  0  0  0  0  0  0  0  0
    6.3140   -2.3980   20.9420 N   0  0  0  0  0  0  0  0  0  0  0  0
    7.6290   -3.1940   22.7270 C   0  0  0  0  0  0  0  0  0  0  0  0
    6.2230   -3.2150   19.8060 C   0  0  0  0  0  0  0  0  0  0  0  0
    8.3020   -1.8830   22.8860 N   0  0  0  0  0  0  0  0  0  0  0  0
    7.2050   -1.2170   20.7450 C   0  0  0  0  0  0  0  0  0  0  0  0
    5.3780   -4.1170   19.7200 O   0  0  0  0  0  0  0  0  0  0  0  0
    7.2330   -2.9750   18.7030 C   0  0  0  0  0  0  0  0  0  0  0  0
    9.4600   -1.8570   23.7770 C   0  0  1  0  0  0  0  0  0  0  0  0
    8.5550   -1.3460   21.5300 C   0  0  0  0  0  0  0  0  0  0  0  0
   10.0670   -3.2370   23.8740 C   0  0  0  0  0  0  0  0  0  0  0  0
   10.4580   -0.6810   23.6410 C   0  0  0  0  0  0  0  0  0  0  0  0
   10.1620    0.6070   24.0800 C   0  0  0  0  0  0  0  0  0  0  0  0
   11.7330   -0.9550   23.0320 C   0  0  0  0  0  0  0  0  0  0  0  0
    9.5330   -4.0160   25.0950 C   0  0  0  0  0  0  0  0  0  0  0  0
   12.1950   -2.2700   22.4990 C   0  0  0  0  0  0  0  0  0  0  0  0
   11.0630    1.6330   23.9530 C   0  0  0  0  0  0  0  0  0  0  0  0
   12.6960    0.0430   22.8760 C   0  0  0  0  0  0  0  0  0  0  0  0
   10.1860   -5.2250   25.7410 C   0  0  0  0  0  0  0  0  0  0  0  0
    8.1010   -3.6430   25.9460 S   0  0  0  0  0  0  0  0  0  0  0  0
   12.4280    1.3400   23.3090 C   0  0  0  0  0  0  0  0  0  0  0  0
    9.3730   -5.6320   26.8690 C   0  0  0  0  0  0  0  0  0  0  0  0
    8.2870   -4.9240   27.0940 C   0  0  0  0  0  0  0  0  0  0  0  0
    7.1550   -5.1800   28.3520 Cl  0  0  0  0  0  0  0  0  0  0  0  0
  1  2  1  0
  2  3  1  0
  3  4  1  0
  4  5  1  0
  6  5  1  1
  6  7  1  0
  6  8  1  0
  7  8  1  6
  7  9  1  0
  9 10  1  0
  9 11  1  6
 10 12  1  0
 11 13  1  0
 10 14  1  0
 12 15  2  0
 12 16  1  0
 13 17  1  0
 13 18  1  0
 14 18  1  0
 17 19  1  6
 17 20  1  0
 20 21  2  0
 20 22  1  0
 19 23  1  0
 22 24  1  0
 21 25  1  0
 22 26  2  0
 23 27  2  0
 23 28  1  0
 25 29  2  0
 26 29  1  0
 27 30  1  0
 28 31  1  0
 30 31  2  0
 31 32  1  0
M  END
