x0397_0-x0770_1-x1375_1-x1385_1-x0434_2-x0426_1-x1386_1-x0831_1-x0831_0-x1334_0-x0692_1-x1334_1-x1412_1
     RDKit          3D

 43 48  0  0  0  0  0  0  0  0999 V2000
    2.4260   -7.7330   23.3850 O   0  0  0  0  0  0  0  0  0  0  0  0
    2.9860   -7.5810   24.6650 C   0  0  0  0  0  0  0  0  0  0  0  0
    4.3860   -7.6070   24.5310 O   0  0  0  0  0  0  0  0  0  0  0  0
    4.8780   -6.2580   24.5210 C   0  0  0  0  0  0  0  0  0  0  0  0
    5.9360   -5.9580   23.4860 C   0  0  2  0  0  0  0  0  0  0  0  0
    5.7460   -4.7920   22.5850 C   0  0  2  0  0  0  0  0  0  0  0  0
    5.8120   -6.3520   22.0960 C   0  0  0  0  0  0  0  0  0  0  0  0
    6.8840   -3.8170   22.2150 C   0  0  1  0  0  0  0  0  0  0  0  0
    6.3330   -2.7550   21.3690 N   0  0  0  0  0  0  0  0  0  0  0  0
    7.6970   -3.4230   23.2910 C   0  0  0  0  0  0  0  0  0  0  0  0
    6.2230   -3.2530   20.0300 C   0  0  0  0  0  0  0  0  0  0  0  0
    8.5670   -2.2490   23.0940 N   0  0  0  0  0  0  0  0  0  0  0  0
    6.7780   -1.4330   21.9170 C   0  0  2  0  0  0  0  0  0  0  0  0
    7.2360   -2.9490   18.9380 C   0  0  0  0  0  0  0  0  0  0  0  0
    5.3100   -4.0460   19.7220 O   0  0  0  0  0  0  0  0  0  0  0  0
    6.0960   -0.0410   21.7160 C   0  0  1  0  0  0  0  0  0  0  0  0
   10.0000   -2.4080   23.3000 C   0  0  2  0  0  0  0  0  0  0  0  0
    8.1490   -1.4080   21.9810 C   0  0  0  0  0  0  0  0  0  0  0  0
    4.7590   -0.1310   22.5210 C   0  0  0  0  0  0  0  0  0  0  0  0
   10.5290   -3.1240   24.5040 C   0  0  0  0  0  0  0  0  0  0  0  0
    6.9540    1.1430   22.3150 C   0  0  0  0  0  0  0  0  0  0  0  0
    5.8230    0.4560   20.3130 C   0  0  0  0  0  0  0  0  0  0  0  0
   10.7140   -1.1320   23.3760 C   0  0  0  0  0  0  0  0  0  0  0  0
    3.7890    1.0820   22.3800 C   0  0  1  0  0  0  0  0  0  0  0  0
    4.7320    1.3060   19.9750 C   0  0  0  0  0  0  0  0  0  0  0  0
    6.7630    0.0560   19.1710 C   0  0  0  0  0  0  0  0  0  0  0  0
   10.1210   -0.1160   24.0430 C   0  0  0  0  0  0  0  0  0  0  0  0
   11.9980   -0.8930   22.7960 C   0  0  0  0  0  0  0  0  0  0  0  0
    9.7210   -4.0780   25.3570 C   0  0  0  0  0  0  0  0  0  0  0  0
    3.9440    2.0640   23.4300 N   0  0  0  0  0  0  0  0  0  0  0  0
    3.7390    1.7660   21.0110 C   0  0  0  0  0  0  0  0  0  0  0  0
   12.7680   -1.9170   22.0320 C   0  0  0  0  0  0  0  0  0  0  0  0
    4.6040    1.7140   18.6670 C   0  0  0  0  0  0  0  0  0  0  0  0
    6.6460    0.4390   17.9120 N   0  0  0  0  0  0  0  0  0  0  0  0
   10.7090    1.1350   24.1720 C   0  0  0  0  0  0  0  0  0  0  0  0
   12.6020    0.3440   22.9190 C   0  0  0  0  0  0  0  0  0  0  0  0
    9.9820   -5.3940   25.5460 C   0  0  0  0  0  0  0  0  0  0  0  0
    8.3170   -3.6850   26.3110 S   0  0  0  0  0  0  0  0  0  0  0  0
    5.5290    1.2930   17.6970 C   0  0  0  0  0  0  0  0  0  0  0  0
   11.9680    1.3580   23.5960 C   0  0  0  0  0  0  0  0  0  0  0  0
    9.0670   -6.0920   26.4990 C   0  0  0  0  0  0  0  0  0  0  0  0
    8.1200   -5.2480   26.9890 C   0  0  0  0  0  0  0  0  0  0  0  0
    6.8860   -5.6040   28.1180 Cl  0  0  0  0  0  0  0  0  0  0  0  0
  1  2  1  0
  2  3  1  0
  3  4  1  0
  5  4  1  1
  5  6  1  0
  5  7  1  0
  6  7  1  6
  6  8  1  0
  8  9  1  0
  8 10  1  1
  9 11  1  0
 10 12  1  0
  9 13  1  0
 11 14  1  0
 11 15  2  0
 13 16  1  0
 12 17  1  0
 12 18  1  0
 13 18  1  6
 16 19  1  0
 17 20  1  1
 16 21  1  1
 16 22  1  0
 17 23  1  0
 19 24  1  0
 22 25  2  0
 22 26  1  0
 23 27  2  0
 23 28  1  0
 20 29  1  0
 24 30  1  1
 24 31  1  0
 25 31  1  0
 28 32  1  0
 25 33  1  0
 26 34  2  0
 27 35  1  0
 28 36  2  0
 29 37  2  0
 29 38  1  0
 33 39  2  0
 34 39  1  0
 35 40  2  0
 36 40  1  0
 37 41  1  0
 38 42  1  0
 41 42  2  0
 42 43  1  0
M  END
