x0397_0-x1386_1-x0770_1-x0434_2-x1334_1-x1374_1-x1334_0-x1375_1-x1412_1-x1385_1-x0426_1-x0831_0-x1418_1-x0831_1-x0692_1
     RDKit          3D

 45 50  0  0  0  0  0  0  0  0999 V2000
    2.1140   -7.1800   23.5520 O   0  0  0  0  0  0  0  0  0  0  0  0
    2.5580   -7.4720   24.8630 C   0  0  0  0  0  0  0  0  0  0  0  0
    3.9200   -7.8620   24.8460 O   0  0  0  0  0  0  0  0  0  0  0  0
    4.6050   -7.1470   23.8330 C   0  0  0  0  0  0  0  0  0  0  0  0
    5.0750   -5.9770   24.4140 C   0  0  0  0  0  0  0  0  0  0  0  0
    5.8640   -5.3070   23.3340 C   0  0  2  0  0  0  0  0  0  0  0  0
    5.1250   -4.8540   22.4240 C   0  0  2  0  0  0  0  0  0  0  0  0
    6.3300   -5.9820   22.2710 C   0  0  0  0  0  0  0  0  0  0  0  0
    5.2640   -3.4970   22.4820 C   0  0  0  0  0  0  0  0  0  0  0  0
    6.6640   -3.1390   22.1870 C   0  0  1  0  0  0  0  0  0  0  0  0
    6.8120   -2.4280   20.9500 N   0  0  0  0  0  0  0  0  0  0  0  0
    7.2590   -2.3350   23.3790 C   0  0  0  0  0  0  0  0  0  0  0  0
    6.5440   -3.0610   19.7390 C   0  0  0  0  0  0  0  0  0  0  0  0
    8.7000   -2.1590   23.2280 N   0  0  0  0  0  0  0  0  0  0  0  0
    7.8440   -1.3720   21.0500 C   0  0  2  0  0  0  0  0  0  0  0  0
    7.4970   -2.9290   18.5940 C   0  0  0  0  0  0  0  0  0  0  0  0
    5.5470   -3.8050   19.5920 O   0  0  0  0  0  0  0  0  0  0  0  0
    9.5150   -3.2290   23.6900 C   0  0  1  0  0  0  0  0  0  0  0  0
    9.0570   -1.9400   21.8020 C   0  0  0  0  0  0  0  0  0  0  0  0
    7.3400   -0.0930   21.7110 C   0  0  0  0  0  0  0  0  0  0  0  0
   10.9210   -2.7040   23.7550 C   0  0  0  0  0  0  0  0  0  0  0  0
    9.1330   -4.1170   24.9220 C   0  0  0  0  0  0  0  0  0  0  0  0
    5.8160    0.0930   21.6400 C   0  0  1  0  0  0  0  0  0  0  0  0
    9.7710   -5.2990   25.2790 C   0  0  0  0  0  0  0  0  0  0  0  0
    7.7480   -3.7890   26.1630 S   0  0  0  0  0  0  0  0  0  0  0  0
   11.1790   -1.2010   23.6470 C   0  0  0  0  0  0  0  0  0  0  0  0
    5.4080    1.2380   22.5550 C   0  0  0  0  0  0  0  0  0  0  0  0
    5.6180    0.5780   20.2420 C   0  0  0  0  0  0  0  0  0  0  0  0
    9.3270   -5.9610   26.3760 C   0  0  0  0  0  0  0  0  0  0  0  0
    8.1440   -5.3010   27.0980 C   0  0  0  0  0  0  0  0  0  0  0  0
   10.3460   -0.1710   24.0680 C   0  0  0  0  0  0  0  0  0  0  0  0
   12.3730   -0.8130   23.0740 C   0  0  0  0  0  0  0  0  0  0  0  0
    3.9150    1.3880   22.4290 C   0  0  1  0  0  0  0  0  0  0  0  0
    4.5720    1.4630   19.9810 C   0  0  0  0  0  0  0  0  0  0  0  0
    6.4680    0.1680   19.2320 C   0  0  0  0  0  0  0  0  0  0  0  0
    7.2860   -5.7850   28.4900 Cl  0  0  0  0  0  0  0  0  0  0  0  0
   13.3520   -1.7730   22.5330 C   0  0  0  0  0  0  0  0  0  0  0  0
   10.7330    1.1930   23.9450 C   0  0  0  0  0  0  0  0  0  0  0  0
   12.7600    0.5130   22.9500 C   0  0  0  0  0  0  0  0  0  0  0  0
    3.5250    2.0850   23.5190 N   0  0  0  0  0  0  0  0  0  0  0  0
    3.5960    1.9520   21.0450 C   0  0  0  0  0  0  0  0  0  0  0  0
    4.3910    1.9460   18.7010 C   0  0  0  0  0  0  0  0  0  0  0  0
    6.4050    0.5900   17.8160 N   0  0  0  0  0  0  0  0  0  0  0  0
   11.9340    1.5320   23.3950 C   0  0  0  0  0  0  0  0  0  0  0  0
    5.3540    1.4790   17.6280 C   0  0  0  0  0  0  0  0  0  0  0  0
  1  2  1  0
  2  3  1  0
  3  4  1  0
  4  5  1  0
  6  5  1  1
  6  7  1  0
  6  8  1  0
  7  8  1  0
  7  9  1  6
 10  9  1  1
 10 11  1  0
 10 12  1  0
 11 13  1  0
 12 14  1  0
 11 15  1  0
 13 16  1  0
 13 17  2  0
 14 18  1  0
 14 19  1  0
 15 19  1  0
 15 20  1  1
 18 21  1  1
 18 22  1  0
 23 20  1  6
 22 24  2  0
 22 25  1  0
 21 26  1  0
 23 27  1  0
 23 28  1  0
 24 29  1  0
 25 30  1  0
 29 30  2  0
 26 31  2  0
 26 32  1  0
 27 33  1  0
 28 34  2  0
 28 35  1  0
 30 36  1  0
 32 37  1  0
 31 38  1  0
 32 39  2  0
 33 40  1  1
 33 41  1  0
 34 41  1  0
 34 42  1  0
 35 43  2  0
 38 44  2  0
 39 44  1  0
 42 45  2  0
 43 45  1  0
M  END
