x0397_0-x0692_1-x0434_2-x0831_1-x0426_1-x0770_1-x1374_1-x1375_1-x1334_1-x1386_1-x1334_0-x1418_1-x0831_0-x1385_1
     RDKit          3D

 44 49  0  0  0  0  0  0  0  0999 V2000
    1.9820   -7.2560   23.7950 O   0  0  0  0  0  0  0  0  0  0  0  0
    2.4530   -7.8990   24.9670 C   0  0  0  0  0  0  0  0  0  0  0  0
    3.8650   -7.9320   25.0020 O   0  0  0  0  0  0  0  0  0  0  0  0
    4.4200   -7.3120   23.8610 C   0  0  0  0  0  0  0  0  0  0  0  0
    4.8210   -5.9180   24.1850 C   0  0  0  0  0  0  0  0  0  0  0  0
    5.7720   -5.3740   23.1620 C   0  0  2  0  0  0  0  0  0  0  0  0
    5.4390   -4.4790   22.2600 C   0  0  2  0  0  0  0  0  0  0  0  0
    5.9300   -6.0190   21.9200 C   0  0  0  0  0  0  0  0  0  0  0  0
    6.3310   -3.2690   22.3060 C   0  0  2  0  0  0  0  0  0  0  0  0
    6.3770   -2.5220   21.0260 N   0  0  0  0  0  0  0  0  0  0  0  0
    7.5970   -3.6020   22.7180 C   0  0  0  0  0  0  0  0  0  0  0  0
    6.2320   -3.2950   19.8780 C   0  0  0  0  0  0  0  0  0  0  0  0
    8.2460   -2.4240   23.2240 N   0  0  0  0  0  0  0  0  0  0  0  0
    7.5150   -1.5590   21.0150 C   0  0  1  0  0  0  0  0  0  0  0  0
    5.3830   -4.1870   19.7480 O   0  0  0  0  0  0  0  0  0  0  0  0
    7.2180   -3.0040   18.7590 C   0  0  0  0  0  0  0  0  0  0  0  0
    9.2940   -2.6290   24.1920 C   0  0  2  0  0  0  0  0  0  0  0  0
    7.4330   -0.3490   21.9700 C   0  0  0  0  0  0  0  0  0  0  0  0
    8.6440   -1.6010   22.0700 C   0  0  0  0  0  0  0  0  0  0  0  0
    6.0300    0.2520   21.8280 C   0  0  1  0  0  0  0  0  0  0  0  0
   10.6470   -2.5370   23.5020 C   0  0  0  0  0  0  0  0  0  0  0  0
    9.0800   -3.7960   25.1860 C   0  0  0  0  0  0  0  0  0  0  0  0
    5.7440    1.4970   22.6840 C   0  0  0  0  0  0  0  0  0  0  0  0
    5.7780    0.6450   20.4010 C   0  0  0  0  0  0  0  0  0  0  0  0
    9.8230   -4.9480   25.3140 C   0  0  0  0  0  0  0  0  0  0  0  0
    7.8010   -3.8110   26.3610 S   0  0  0  0  0  0  0  0  0  0  0  0
   11.1570   -1.1000   23.4730 C   0  0  0  0  0  0  0  0  0  0  0  0
    4.2190    1.8060   22.6340 C   0  0  1  0  0  0  0  0  0  0  0  0
    4.6010    1.4650   20.0970 C   0  0  0  0  0  0  0  0  0  0  0  0
    6.6890    0.2510   19.2440 C   0  0  0  0  0  0  0  0  0  0  0  0
    9.4010   -5.8030   26.3080 C   0  0  0  0  0  0  0  0  0  0  0  0
    8.2620   -5.3140   27.0160 C   0  0  0  0  0  0  0  0  0  0  0  0
   10.3780   -0.0560   23.9820 C   0  0  0  0  0  0  0  0  0  0  0  0
   12.3980   -0.8210   22.9430 C   0  0  0  0  0  0  0  0  0  0  0  0
    3.9270    2.9600   23.4810 N   0  0  0  0  0  0  0  0  0  0  0  0
    3.6650    1.8700   21.1990 C   0  0  0  0  0  0  0  0  0  0  0  0
    7.3850   -5.9940   28.3220 Cl  0  0  0  0  0  0  0  0  0  0  0  0
   13.2200   -1.9160   22.3760 C   0  0  0  0  0  0  0  0  0  0  0  0
    4.4300    1.8510   18.6440 C   0  0  0  0  0  0  0  0  0  0  0  0
    6.4770    0.6210   17.9760 N   0  0  0  0  0  0  0  0  0  0  0  0
   10.8640    1.2610   23.9680 C   0  0  0  0  0  0  0  0  0  0  0  0
   12.9100    0.4670   22.9150 C   0  0  0  0  0  0  0  0  0  0  0  0
    5.4040    1.3880   17.7100 C   0  0  0  0  0  0  0  0  0  0  0  0
   12.1450    1.4920   23.4260 C   0  0  0  0  0  0  0  0  0  0  0  0
  1  2  1  0
  2  3  1  0
  3  4  1  0
  4  5  1  0
  6  5  1  1
  6  7  1  0
  6  8  1  0
  7  8  1  6
  7  9  1  0
  9 10  1  0
  9 11  1  6
 10 12  1  0
 11 13  1  0
 10 14  1  0
 12 15  2  0
 12 16  1  0
 13 17  1  0
 14 18  1  1
 13 19  1  0
 14 19  1  0
 20 18  1  6
 17 21  1  6
 17 22  1  0
 20 23  1  0
 20 24  1  0
 22 25  2  0
 22 26  1  0
 21 27  1  0
 23 28  1  0
 24 29  2  0
 24 30  1  0
 25 31  1  0
 26 32  1  0
 31 32  2  0
 27 33  2  0
 27 34  1  0
 28 35  1  6
 28 36  1  0
 29 36  1  0
 32 37  1  0
 34 38  1  0
 29 39  1  0
 30 40  2  0
 33 41  1  0
 34 42  2  0
 39 43  2  0
 40 43  1  0
 41 44  2  0
 42 44  1  0
M  END
