x0397_0-x0770_1-x0831_0-x1334_0-x0434_2-x1412_1
     RDKit          3D

 34 38  0  0  0  0  0  0  0  0999 V2000
    6.3980   -3.2930   19.8560 C   0  0  0  0  0  0  0  0  0  0  0  0
    7.3260   -3.0360   18.6910 C   0  0  0  0  0  0  0  0  0  0  0  0
    5.4400   -4.0790   19.7170 O   0  0  0  0  0  0  0  0  0  0  0  0
    6.7280   -2.6510   21.0230 N   0  0  0  0  0  0  0  0  0  0  0  0
    7.7720   -1.6300   20.9040 C   0  0  2  0  0  0  0  0  0  0  0  0
    6.9620   -3.5620   22.1390 C   0  0  1  0  0  0  0  0  0  0  0  0
    8.9480   -1.8600   21.8760 C   0  0  0  0  0  0  0  0  0  0  0  0
    7.4360   -2.8490   23.4220 C   0  0  0  0  0  0  0  0  0  0  0  0
    5.8520   -4.5390   22.3910 C   0  0  0  0  0  0  0  0  0  0  0  0
    7.3700   -0.1710   20.8030 C   0  0  0  0  0  0  0  0  0  0  0  0
    8.4640   -1.7990   23.2530 N   0  0  0  0  0  0  0  0  0  0  0  0
    6.1290   -5.8580   23.1630 C   0  0  0  0  0  0  0  0  0  0  0  0
    6.0610   -6.0880   21.9100 C   0  0  0  0  0  0  0  0  0  0  0  0
    7.0600    0.2330   19.3730 C   0  0  0  0  0  0  0  0  0  0  0  0
    9.5860   -1.8810   24.1590 C   0  0  1  0  0  0  0  0  0  0  0  0
    6.0350    0.4560   20.3300 C   0  0  0  0  0  0  0  0  0  0  0  0
    6.4680    0.7090   18.1880 N   0  0  0  0  0  0  0  0  0  0  0  0
   10.1600   -3.2550   24.1970 C   0  0  0  0  0  0  0  0  0  0  0  0
   10.6190   -0.7840   23.8290 C   0  0  0  0  0  0  0  0  0  0  0  0
    5.2720    1.2740   17.8650 C   0  0  0  0  0  0  0  0  0  0  0  0
    4.7860    0.9940   20.1870 C   0  0  0  0  0  0  0  0  0  0  0  0
   10.1990    0.5900   24.2990 C   0  0  0  0  0  0  0  0  0  0  0  0
   11.9020   -1.0180   23.1120 C   0  0  0  0  0  0  0  0  0  0  0  0
    9.5810   -4.1920   25.2240 C   0  0  0  0  0  0  0  0  0  0  0  0
    4.3790    1.4390   18.8420 C   0  0  0  0  0  0  0  0  0  0  0  0
   12.3980   -2.3270   22.6010 C   0  0  0  0  0  0  0  0  0  0  0  0
   11.0250    1.6310   24.0500 C   0  0  0  0  0  0  0  0  0  0  0  0
   12.8010    0.2450   22.8750 C   0  0  0  0  0  0  0  0  0  0  0  0
    9.9510   -5.4750   25.4510 C   0  0  0  0  0  0  0  0  0  0  0  0
    8.3210   -3.7340   26.2840 S   0  0  0  0  0  0  0  0  0  0  0  0
   12.2500    1.6100   23.4060 C   0  0  0  0  0  0  0  0  0  0  0  0
    9.2370   -6.1010   26.4870 C   0  0  0  0  0  0  0  0  0  0  0  0
    8.3160   -5.2680   27.0360 C   0  0  0  0  0  0  0  0  0  0  0  0
    7.2390   -5.6170   28.3170 Cl  0  0  0  0  0  0  0  0  0  0  0  0
  1  2  1  0
  1  3  2  0
  1  4  1  0
  4  5  1  0
  4  6  1  0
  5  7  1  0
  6  8  1  0
  6  9  1  1
  5 10  1  1
  7 11  1  0
  8 11  1  0
  9 12  1  0
  9 13  1  0
 12 13  1  0
 10 14  1  0
 11 15  1  0
 14 16  2  0
 14 17  1  0
 15 18  1  6
 15 19  1  0
 17 20  2  0
 16 21  1  0
 19 22  2  0
 19 23  1  0
 18 24  1  0
 20 25  1  0
 21 25  2  0
 23 26  1  0
 22 27  1  0
 23 28  2  0
 24 29  2  0
 24 30  1  0
 27 31  2  0
 28 31  1  0
 29 32  1  0
 30 33  1  0
 32 33  2  0
 33 34  1  0
M  END
