x0397_0-x1374_1-x1334_1-x0770_1-x1334_0-x0426_1-x0831_1-x1418_1-x1412_1-x0831_0-x1375_1-x1386_1-x0692_1-x1385_1
     RDKit          3D

 44 49  0  0  0  0  0  0  0  0999 V2000
    1.9190   -7.1100   23.9240 O   0  0  0  0  0  0  0  0  0  0  0  0
    2.3340   -7.9890   24.9550 C   0  0  0  0  0  0  0  0  0  0  0  0
    3.7400   -8.0200   25.0640 O   0  0  0  0  0  0  0  0  0  0  0  0
    4.3070   -7.3690   23.9510 C   0  0  0  0  0  0  0  0  0  0  0  0
    4.7680   -6.1370   24.2600 C   0  0  0  0  0  0  0  0  0  0  0  0
    5.8350   -5.6990   23.3160 C   0  0  2  0  0  0  0  0  0  0  0  0
    5.7690   -4.8830   22.3930 C   0  0  2  0  0  0  0  0  0  0  0  0
    6.1470   -6.3890   22.0610 C   0  0  0  0  0  0  0  0  0  0  0  0
    6.8360   -3.8100   22.1820 C   0  0  1  0  0  0  0  0  0  0  0  0
    6.4760   -2.8950   21.1270 N   0  0  0  0  0  0  0  0  0  0  0  0
    7.0690   -3.1860   23.4910 C   0  0  0  0  0  0  0  0  0  0  0  0
    6.2310   -3.3200   19.8450 C   0  0  0  0  0  0  0  0  0  0  0  0
    8.2330   -2.3630   23.3900 N   0  0  0  0  0  0  0  0  0  0  0  0
    7.2530   -1.6350   21.3010 C   0  0  2  0  0  0  0  0  0  0  0  0
    7.2400   -2.9660   18.7560 C   0  0  0  0  0  0  0  0  0  0  0  0
    5.2500   -4.0200   19.6210 O   0  0  0  0  0  0  0  0  0  0  0  0
    9.3550   -2.7220   24.2140 C   0  0  2  0  0  0  0  0  0  0  0  0
    8.5630   -1.9480   22.0270 C   0  0  0  0  0  0  0  0  0  0  0  0
    6.3990   -0.6900   22.1570 C   0  0  0  0  0  0  0  0  0  0  0  0
   10.6390   -2.5410   23.4370 C   0  0  0  0  0  0  0  0  0  0  0  0
    9.1160   -3.8570   25.2040 C   0  0  0  0  0  0  0  0  0  0  0  0
    6.6090    0.7610   21.7300 C   0  0  2  0  0  0  0  0  0  0  0  0
    9.8060   -5.0290   25.3640 C   0  0  0  0  0  0  0  0  0  0  0  0
    7.8620   -3.8770   26.3930 S   0  0  0  0  0  0  0  0  0  0  0  0
   11.1600   -1.1160   23.4330 C   0  0  0  0  0  0  0  0  0  0  0  0
    5.8880    1.6280   22.5550 C   0  0  0  0  0  0  0  0  0  0  0  0
    6.1090    0.9120   20.3010 C   0  0  0  0  0  0  0  0  0  0  0  0
    9.4090   -5.9000   26.3460 C   0  0  0  0  0  0  0  0  0  0  0  0
    8.3150   -5.3860   27.0300 C   0  0  0  0  0  0  0  0  0  0  0  0
   10.3730   -0.0890   23.9740 C   0  0  0  0  0  0  0  0  0  0  0  0
   12.4160   -0.8170   22.8970 C   0  0  0  0  0  0  0  0  0  0  0  0
    4.4200    1.4150   22.3000 C   0  0  1  0  0  0  0  0  0  0  0  0
    4.9130    1.5930   20.0550 C   0  0  0  0  0  0  0  0  0  0  0  0
    6.7990    0.4000   19.2300 C   0  0  0  0  0  0  0  0  0  0  0  0
    7.4220   -6.0260   28.3390 Cl  0  0  0  0  0  0  0  0  0  0  0  0
   13.2160   -1.9140   22.3100 C   0  0  0  0  0  0  0  0  0  0  0  0
   10.8920    1.2030   23.9660 C   0  0  0  0  0  0  0  0  0  0  0  0
   12.9020    0.4970   22.9110 C   0  0  0  0  0  0  0  0  0  0  0  0
    3.6780    1.7330   23.3820 N   0  0  0  0  0  0  0  0  0  0  0  0
    4.0950    2.1650   21.2040 C   0  0  0  0  0  0  0  0  0  0  0  0
    4.4800    1.7450   18.7710 C   0  0  0  0  0  0  0  0  0  0  0  0
    6.3990    0.5300   17.9660 N   0  0  0  0  0  0  0  0  0  0  0  0
   12.1260    1.5000   23.4500 C   0  0  0  0  0  0  0  0  0  0  0  0
    5.2620    1.1990   17.7830 C   0  0  0  0  0  0  0  0  0  0  0  0
  1  2  1  0
  2  3  1  0
  3  4  1  0
  4  5  1  0
  6  5  1  6
  6  7  1  0
  6  8  1  0
  7  8  1  6
  7  9  1  0
  9 10  1  0
  9 11  1  1
 10 12  1  0
 11 13  1  0
 10 14  1  0
 12 15  1  0
 12 16  2  0
 13 17  1  0
 13 18  1  0
 14 18  1  0
 14 19  1  1
 17 20  1  6
 17 21  1  0
 22 19  1  1
 21 23  2  0
 21 24  1  0
 20 25  1  0
 22 26  1  0
 22 27  1  0
 23 28  1  0
 24 29  1  0
 28 29  2  0
 25 30  2  0
 25 31  1  0
 26 32  1  0
 27 33  2  0
 27 34  1  0
 29 35  1  0
 31 36  1  0
 30 37  1  0
 31 38  2  0
 32 39  1  1
 32 40  1  0
 33 40  1  0
 33 41  1  0
 34 42  2  0
 37 43  2  0
 38 43  1  0
 41 44  2  0
 42 44  1  0
M  END
