x0397_0-x0770_1-x1375_1-x1385_1-x0434_2-x0426_1-x1386_1-x0831_1-x0831_0-x1418_1-x1334_0-x0692_1-x1334_1-x1412_1
     RDKit          3D

 43 48  0  0  0  0  0  0  0  0999 V2000
    3.2110   -8.0040   24.4460 O   0  0  0  0  0  0  0  0  0  0  0  0
    3.6890   -7.0810   25.4000 C   0  0  0  0  0  0  0  0  0  0  0  0
    4.8700   -6.4670   24.9210 O   0  0  0  0  0  0  0  0  0  0  0  0
    5.0750   -6.6250   23.5260 C   0  0  0  0  0  0  0  0  0  0  0  0
    6.0550   -5.6390   22.9610 C   0  0  2  0  0  0  0  0  0  0  0  0
    5.6360   -4.5440   22.3540 C   0  0  2  0  0  0  0  0  0  0  0  0
    6.4040   -5.8450   21.7280 C   0  0  0  0  0  0  0  0  0  0  0  0
    6.3220   -3.1960   22.4740 C   0  0  2  0  0  0  0  0  0  0  0  0
    6.3030   -2.5040   21.1630 N   0  0  0  0  0  0  0  0  0  0  0  0
    7.6340   -3.3360   22.9160 C   0  0  0  0  0  0  0  0  0  0  0  0
    6.2510   -3.3070   19.9830 C   0  0  0  0  0  0  0  0  0  0  0  0
    8.3660   -2.0230   22.9970 N   0  0  0  0  0  0  0  0  0  0  0  0
    7.1680   -1.3170   21.0300 C   0  0  1  0  0  0  0  0  0  0  0  0
    7.2580   -3.0000   18.8640 C   0  0  0  0  0  0  0  0  0  0  0  0
    5.4400   -4.2330   19.8210 O   0  0  0  0  0  0  0  0  0  0  0  0
    6.4750    0.0220   21.3770 C   0  0  1  0  0  0  0  0  0  0  0  0
    9.4550   -1.9670   23.8200 C   0  0  1  0  0  0  0  0  0  0  0  0
    8.5520   -1.5630   21.6560 C   0  0  0  0  0  0  0  0  0  0  0  0
    5.3560   -0.0110   22.4390 C   0  0  0  0  0  0  0  0  0  0  0  0
   10.0140   -3.3140   23.9110 C   0  0  0  0  0  0  0  0  0  0  0  0
    7.5250    1.0480   21.8840 C   0  0  0  0  0  0  0  0  0  0  0  0
    5.9800    0.5830   20.0650 C   0  0  0  0  0  0  0  0  0  0  0  0
   10.4570   -0.8170   23.6330 C   0  0  0  0  0  0  0  0  0  0  0  0
    4.6840    1.3790   22.5340 C   0  0  2  0  0  0  0  0  0  0  0  0
    4.7170    1.4150   20.0330 C   0  0  0  0  0  0  0  0  0  0  0  0
    6.7920    0.2940   18.7800 C   0  0  0  0  0  0  0  0  0  0  0  0
   10.0930    0.5920   24.0800 C   0  0  0  0  0  0  0  0  0  0  0  0
   11.8970   -0.9630   22.9990 C   0  0  0  0  0  0  0  0  0  0  0  0
    9.4700   -4.1680   25.0120 C   0  0  0  0  0  0  0  0  0  0  0  0
    3.7830    1.4770   23.6520 N   0  0  0  0  0  0  0  0  0  0  0  0
    3.9120    1.6910   21.2630 C   0  0  0  0  0  0  0  0  0  0  0  0
   12.5030   -2.2200   22.4690 C   0  0  0  0  0  0  0  0  0  0  0  0
    4.4030    1.8760   18.8050 C   0  0  0  0  0  0  0  0  0  0  0  0
    6.3960    0.7980   17.6020 N   0  0  0  0  0  0  0  0  0  0  0  0
   10.9250    1.6640   23.9620 C   0  0  0  0  0  0  0  0  0  0  0  0
   12.6380    0.2360   22.9500 C   0  0  0  0  0  0  0  0  0  0  0  0
    9.9220   -5.5540   25.3510 C   0  0  0  0  0  0  0  0  0  0  0  0
    8.1290   -3.6950   26.1850 S   0  0  0  0  0  0  0  0  0  0  0  0
    5.2300    1.5820   17.6020 C   0  0  0  0  0  0  0  0  0  0  0  0
   12.1700    1.4600   23.4050 C   0  0  0  0  0  0  0  0  0  0  0  0
    9.2160   -6.1720   26.5130 C   0  0  0  0  0  0  0  0  0  0  0  0
    8.2150   -5.2520   27.0610 C   0  0  0  0  0  0  0  0  0  0  0  0
    7.1860   -5.5600   28.3920 Cl  0  0  0  0  0  0  0  0  0  0  0  0
  1  2  1  0
  2  3  1  0
  3  4  1  0
  5  4  1  6
  5  6  1  0
  5  7  1  0
  6  7  1  6
  6  8  1  0
  8  9  1  0
  8 10  1  6
  9 11  1  0
 10 12  1  0
  9 13  1  0
 11 14  1  0
 11 15  2  0
 13 16  1  0
 12 17  1  0
 12 18  1  0
 13 18  1  1
 16 19  1  0
 17 20  1  6
 16 21  1  1
 16 22  1  0
 17 23  1  0
 19 24  1  0
 22 25  2  0
 22 26  1  0
 23 27  2  0
 23 28  1  0
 20 29  1  0
 24 30  1  1
 24 31  1  0
 25 31  1  0
 28 32  1  0
 25 33  1  0
 26 34  2  0
 27 35  1  0
 28 36  2  0
 29 37  2  0
 29 38  1  0
 33 39  2  0
 34 39  1  0
 35 40  2  0
 36 40  1  0
 37 41  1  0
 38 42  1  0
 41 42  2  0
 42 43  1  0
M  END
