x0395_1-x0736_1-x0981_1
     RDKit          3D

 29 30  0  0  0  0  0  0  0  0999 V2000
    3.8500   -5.2190   23.0790 C   0  0  0  0  0  0  0  0  0  0  0  0
    2.6640   -6.0670   23.5610 C   0  0  1  0  0  0  0  0  0  0  0  0
    2.4910   -7.2820   22.7810 N   0  0  0  0  0  0  0  0  0  0  0  0
    3.9600   -3.8290   23.5270 N   0  0  0  0  0  0  0  0  0  0  0  0
    2.6330   -6.2910   25.1070 C   0  0  0  0  0  0  0  0  0  0  0  0
    5.0720   -3.0190   23.0100 C   0  0  0  0  0  0  0  0  0  0  0  0
    1.3110   -7.4860   22.1060 C   0  0  0  0  0  0  0  0  0  0  0  0
    3.0740   -7.7720   25.3420 C   0  0  0  0  0  0  0  0  0  0  0  0
    6.1490   -3.8690   22.3220 C   0  0  1  0  0  0  0  0  0  0  0  0
    1.2200   -8.7650   21.3250 C   0  0  0  0  0  0  0  0  0  0  0  0
    0.4000   -6.6650   22.1260 O   0  0  0  0  0  0  0  0  0  0  0  0
    2.4320   -8.4990   26.2970 N   0  0  0  0  0  0  0  0  0  0  0  0
    3.9720   -8.2330   24.6720 O   0  0  0  0  0  0  0  0  0  0  0  0
    6.8010   -3.0440   21.2900 N   0  0  0  0  0  0  0  0  0  0  0  0
    7.0770   -4.2520   23.2580 C   0  0  0  0  0  0  0  0  0  0  0  0
    6.4720   -3.4140   19.9780 C   0  0  0  0  0  0  0  0  0  0  0  0
    7.5480   -3.1230   24.0400 N   0  0  0  0  0  0  0  0  0  0  0  0
    8.0280   -2.2870   21.6880 C   0  0  0  0  0  0  0  0  0  0  0  0
    7.4020   -3.0140   18.8540 C   0  0  0  0  0  0  0  0  0  0  0  0
    5.4650   -4.0910   19.7300 O   0  0  0  0  0  0  0  0  0  0  0  0
    8.0630   -2.0260   23.2180 C   0  0  2  0  0  0  0  0  0  0  0  0
    9.3380   -1.7530   23.6710 C   0  0  0  0  0  0  0  0  0  0  0  0
   10.2620   -0.8600   22.9950 N   0  0  0  0  0  0  0  0  0  0  0  0
   11.3260   -1.6020   22.2980 C   0  0  0  0  0  0  0  0  0  0  0  0
   10.6770    0.2540   23.8560 C   0  0  0  0  0  0  0  0  0  0  0  0
   12.5800   -0.9860   22.2230 C   0  0  0  0  0  0  0  0  0  0  0  0
   11.7580    1.1550   23.3780 C   0  0  0  0  0  0  0  0  0  0  0  0
   13.5680   -1.6640   21.6400 F   0  0  0  0  0  0  0  0  0  0  0  0
   12.8490    0.3840   22.7500 C   0  0  0  0  0  0  0  0  0  0  0  0
  2  1  1  6
  2  3  1  0
  1  4  2  3
  2  5  1  0
  4  6  1  0
  3  7  1  0
  5  8  1  0
  9  6  1  1
  7 10  1  0
  7 11  2  0
  8 12  1  0
  8 13  2  0
  9 14  1  0
  9 15  1  0
 14 16  1  0
 15 17  1  0
 14 18  1  0
 16 19  1  0
 16 20  2  0
 17 21  1  0
 18 21  1  0
 21 22  1  1
 22 23  1  0
 23 24  1  0
 23 25  1  0
 24 26  1  0
 25 27  1  0
 26 28  1  0
 26 29  2  0
 27 29  1  0
M  END
