x0397_0-x0831_0-x1334_1-x0426_1-x1334_0-x0692_1-x0770_1-x0434_2-x0831_1-x1412_1-x1374_1
     RDKit          3D

 45 51  0  0  0  0  0  0  0  0999 V2000
    2.0400   -6.6780   24.4370 O   0  0  0  0  0  0  0  0  0  0  0  0
    3.0420   -7.3070   23.6630 C   0  0  0  0  0  0  0  0  0  0  0  0
    4.0450   -7.7920   24.5470 O   0  0  0  0  0  0  0  0  0  0  0  0
    5.3280   -7.2630   24.2100 C   0  0  0  0  0  0  0  0  0  0  0  0
    5.2780   -5.9380   24.2060 C   0  0  0  0  0  0  0  0  0  0  0  0
    6.2110   -5.4790   23.1270 C   0  0  2  0  0  0  0  0  0  0  0  0
    5.9810   -4.5670   22.3420 C   0  0  2  0  0  0  0  0  0  0  0  0
    6.0820   -6.0540   21.8120 C   0  0  0  0  0  0  0  0  0  0  0  0
    7.0910   -3.5510   22.1010 C   0  0  1  0  0  0  0  0  0  0  0  0
    6.7640   -2.6750   20.9690 N   0  0  0  0  0  0  0  0  0  0  0  0
    7.3660   -2.7690   23.1800 C   0  0  0  0  0  0  0  0  0  0  0  0
    6.4160   -3.3070   19.8080 C   0  0  0  0  0  0  0  0  0  0  0  0
    8.4650   -1.7740   22.9880 N   0  0  0  0  0  0  0  0  0  0  0  0
    7.8040   -1.7250   20.6280 C   0  0  1  0  0  0  0  0  0  0  0  0
    7.3750   -3.0730   18.6480 C   0  0  0  0  0  0  0  0  0  0  0  0
    5.4390   -4.0600   19.6670 O   0  0  0  0  0  0  0  0  0  0  0  0
    9.5690   -1.9360   23.8990 C   0  0  1  0  0  0  0  0  0  0  0  0
    7.3810   -0.3770   20.8700 N   0  0  0  0  0  0  0  0  0  0  0  0
    8.9700   -1.8520   21.6120 C   0  0  0  0  0  0  0  0  0  0  0  0
    9.9210   -3.4040   23.7700 C   0  0  0  0  0  0  0  0  0  0  0  0
    7.0360    0.1990   22.2220 C   0  0  0  0  0  0  0  0  0  0  0  0
    6.5280    0.2420   19.9130 C   0  0  0  0  0  0  0  0  0  0  0  0
   10.5910   -0.8010   23.6440 C   0  0  0  0  0  0  0  0  0  0  0  0
    5.5410    0.3880   22.1040 C   0  0  2  0  0  0  0  0  0  0  0  0
    6.6580    0.4280   18.4340 N   0  0  0  0  0  0  0  0  0  0  0  0
    5.4460    0.7090   20.6300 C   0  0  0  0  0  0  0  0  0  0  0  0
   10.2540    0.5010   24.2470 C   0  0  0  0  0  0  0  0  0  0  0  0
   11.7870   -0.9090   22.8940 C   0  0  0  0  0  0  0  0  0  0  0  0
    9.4560   -4.1850   24.9520 C   0  0  0  0  0  0  0  0  0  0  0  0
    4.8680    1.4990   22.8370 C   0  0  0  0  0  0  0  0  0  0  0  0
   12.2430   -2.1600   22.2130 C   0  0  0  0  0  0  0  0  0  0  0  0
    4.3080    1.4640   20.0130 C   0  0  0  0  0  0  0  0  0  0  0  0
    5.6010    1.1260   17.9200 C   0  0  0  0  0  0  0  0  0  0  0  0
   11.0370    1.5780   24.1080 C   0  0  0  0  0  0  0  0  0  0  0  0
   12.6230    0.1710   22.7410 C   0  0  0  0  0  0  0  0  0  0  0  0
    9.9480   -5.3790   25.3760 C   0  0  0  0  0  0  0  0  0  0  0  0
    8.1900   -3.6560   26.0040 S   0  0  0  0  0  0  0  0  0  0  0  0
    3.4200    1.7330   22.3950 C   0  0  2  0  0  0  0  0  0  0  0  0
    3.1860    1.9340   20.8840 C   0  0  0  0  0  0  0  0  0  0  0  0
    4.5320    1.5980   18.6510 C   0  0  0  0  0  0  0  0  0  0  0  0
   12.3440    1.5240   23.3240 C   0  0  0  0  0  0  0  0  0  0  0  0
    9.3930   -5.8800   26.5030 C   0  0  0  0  0  0  0  0  0  0  0  0
    8.3990   -5.1070   27.0320 C   0  0  0  0  0  0  0  0  0  0  0  0
    2.9050    2.8350   23.1800 N   0  0  0  0  0  0  0  0  0  0  0  0
    7.4410   -5.3540   28.4280 Cl  0  0  0  0  0  0  0  0  0  0  0  0
  1  2  1  0
  2  3  1  0
  3  4  1  0
  4  5  1  0
  6  5  1  1
  6  7  1  0
  6  8  1  0
  7  8  1  6
  7  9  1  0
  9 10  1  0
  9 11  1  1
 10 12  1  0
 11 13  1  0
 10 14  1  0
 12 15  1  0
 12 16  2  0
 13 17  1  0
 14 18  1  1
 13 19  1  0
 14 19  1  0
 17 20  1  6
 18 21  1  0
 18 22  1  0
 17 23  1  0
 24 21  1  1
 22 25  2  0
 22 26  1  0
 24 26  1  0
 23 27  2  0
 23 28  1  0
 20 29  1  0
 24 30  1  0
 28 31  1  0
 26 32  2  0
 25 33  1  0
 27 34  1  0
 28 35  2  0
 29 36  2  0
 29 37  1  0
 30 38  1  0
 32 39  1  0
 38 39  1  0
 32 40  1  0
 33 40  2  0
 34 41  2  0
 35 41  1  0
 36 42  1  0
 37 43  1  0
 42 43  2  0
 38 44  1  1
 43 45  1  0
M  END
