x0397_0-x0434_2-x1385_1-x1412_1-x1334_0-x1334_1-x1375_1-x0831_0-x0831_1-x0692_1-x0770_1-x0426_1-x0689_0-x1418_1
     RDKit          3D

 52 58  0  0  0  0  0  0  0  0999 V2000
    1.1890   -8.1230   24.2490 O   0  0  0  0  0  0  0  0  0  0  0  0
    2.1210   -8.1980   25.3270 C   0  0  0  0  0  0  0  0  0  0  0  0
    3.2690   -7.2290   25.0390 C   0  0  2  0  0  0  0  0  0  0  0  0
    4.4240   -7.9390   24.6810 O   0  0  0  0  0  0  0  0  0  0  0  0
    3.5590   -6.4240   25.9890 N   0  0  0  0  0  0  0  0  0  0  0  0
    4.3880   -5.2730   25.4260 S   0  0  2  0  0  0  0  0  0  0  0  0
    5.7710   -4.7260   26.0020 O   0  0  0  0  0  0  0  0  0  0  0  0
    3.2000   -3.9390   25.5490 C   0  0  0  0  0  0  0  0  0  0  0  0
    4.3820   -5.5070   23.6440 C   0  0  0  0  0  0  0  0  0  0  0  0
    3.8060   -2.3740   26.0610 S   0  0  0  0  0  0  0  0  0  0  0  0
    1.8270   -3.9300   25.2940 C   0  0  0  0  0  0  0  0  0  0  0  0
    5.7390   -5.3090   23.0660 C   0  0  2  0  0  0  0  0  0  0  0  0
    2.2840   -1.5980   25.9790 C   0  0  0  0  0  0  0  0  0  0  0  0
    1.2140   -2.5520   25.5350 C   0  0  0  0  0  0  0  0  0  0  0  0
    5.8200   -4.3240   22.2260 C   0  0  2  0  0  0  0  0  0  0  0  0
    5.9610   -5.9520   21.9560 C   0  0  0  0  0  0  0  0  0  0  0  0
    6.8930   -3.4640   22.1350 C   0  0  2  0  0  0  0  0  0  0  0  0
    7.2380   -3.0290   23.3920 C   0  0  0  0  0  0  0  0  0  0  0  0
    6.8990   -2.3830   21.2430 C   0  0  1  0  0  0  0  0  0  0  0  0
    6.5440   -3.1090   19.8540 C   0  0  0  0  0  0  0  0  0  0  0  0
    6.0680   -0.9870   21.4810 C   0  0  2  0  0  0  0  0  0  0  0  0
    8.5810   -2.4370   23.3130 N   0  0  0  0  0  0  0  0  0  0  0  0
    8.1650   -1.8070   21.1460 C   0  0  0  0  0  0  0  0  0  0  0  0
    7.5130   -2.9550   18.6950 C   0  0  0  0  0  0  0  0  0  0  0  0
    5.5570   -3.8730   19.7010 O   0  0  0  0  0  0  0  0  0  0  0  0
    4.9070   -0.9530   22.4390 C   0  0  0  0  0  0  0  0  0  0  0  0
    9.4010   -2.6370   24.4010 C   0  0  2  0  0  0  0  0  0  0  0  0
    9.1180   -2.4370   21.9450 C   0  0  0  0  0  0  0  0  0  0  0  0
    5.7530   -0.1020   20.2530 C   0  0  0  0  0  0  0  0  0  0  0  0
    4.8720    0.3530   23.2670 C   0  0  0  0  0  0  0  0  0  0  0  0
   10.6560   -2.6090   23.8780 C   0  0  0  0  0  0  0  0  0  0  0  0
    4.7000    0.8270   20.1270 C   0  0  0  0  0  0  0  0  0  0  0  0
    6.6720   -0.2180   19.0140 C   0  0  0  0  0  0  0  0  0  0  0  0
    9.1490   -3.8260   25.2960 C   0  0  0  0  0  0  0  0  0  0  0  0
    4.0610    1.4700   22.5370 C   0  0  2  0  0  0  0  0  0  0  0  0
    3.6150    1.2000   21.1150 C   0  0  0  0  0  0  0  0  0  0  0  0
    4.6260    1.5720   18.7870 C   0  0  0  0  0  0  0  0  0  0  0  0
    6.5300    0.4800   17.8680 N   0  0  0  0  0  0  0  0  0  0  0  0
    9.7900   -5.0590   25.3070 C   0  0  0  0  0  0  0  0  0  0  0  0
    7.9510   -3.7900   26.5310 S   0  0  0  0  0  0  0  0  0  0  0  0
   11.1720   -1.1470   23.7190 C   0  0  0  0  0  0  0  0  0  0  0  0
    4.6620    2.7750   22.7230 N   0  0  0  0  0  0  0  0  0  0  0  0
    5.5210    1.3520   17.7760 C   0  0  0  0  0  0  0  0  0  0  0  0
    9.3060   -5.8930   26.2980 C   0  0  0  0  0  0  0  0  0  0  0  0
    8.3030   -5.3460   27.0540 C   0  0  0  0  0  0  0  0  0  0  0  0
   10.4990   -0.1070   24.3130 C   0  0  0  0  0  0  0  0  0  0  0  0
   12.3220   -0.8450   22.9750 C   0  0  0  0  0  0  0  0  0  0  0  0
    7.4270   -6.0000   28.3660 Cl  0  0  0  0  0  0  0  0  0  0  0  0
   13.1010   -1.9050   22.2820 C   0  0  0  0  0  0  0  0  0  0  0  0
   10.9270    1.2190   24.1930 C   0  0  0  0  0  0  0  0  0  0  0  0
   12.7510    0.4680   22.8710 C   0  0  0  0  0  0  0  0  0  0  0  0
   12.0570    1.4990   23.4740 C   0  0  0  0  0  0  0  0  0  0  0  0
  1  2  1  0
  2  3  1  0
  3  4  1  1
  3  5  1  0
  5  6  2  0
  6  7  2  0
  6  8  1  0
  6  9  1  6
  8 10  1  0
  8 11  2  0
 12  9  1  6
 10 13  1  0
 11 14  1  0
 13 14  2  0
 12 15  1  0
 12 16  1  0
 15 16  1  6
 15 17  1  0
 17 18  1  1
 17 19  1  0
 19 20  1  6
 19 21  1  0
 18 22  1  0
 19 23  1  0
 20 24  1  0
 20 25  2  0
 21 26  1  6
 22 27  1  0
 22 28  1  0
 23 28  1  0
 21 29  1  0
 26 30  1  0
 27 31  1  6
 29 32  2  0
 29 33  1  0
 27 34  1  0
 30 35  1  0
 32 36  1  0
 35 36  1  0
 32 37  1  0
 33 38  2  0
 34 39  2  0
 34 40  1  0
 31 41  1  0
 35 42  1  6
 37 43  2  0
 38 43  1  0
 39 44  1  0
 40 45  1  0
 44 45  2  0
 41 46  2  0
 41 47  1  0
 45 48  1  0
 47 49  1  0
 46 50  1  0
 47 51  2  0
 50 52  2  0
 51 52  1  0
M  END
