x0395_1-x1458_1
     RDKit          3D

 20 21  0  0  0  0  0  0  0  0999 V2000
    6.0860   -3.5420   25.5130 C   0  0  0  0  0  0  0  0  0  0  0  0
    6.8670   -3.9400   24.2930 C   0  0  1  0  0  0  0  0  0  0  0  0
    5.9110   -4.9140   23.5430 C   0  0  0  0  0  0  0  0  0  0  0  0
    4.8640   -3.5260   25.5690 O   0  0  0  0  0  0  0  0  0  0  0  0
    7.4880   -2.8530   23.3930 C   0  0  1  0  0  0  0  0  0  0  0  0
    8.6990   -2.1160   23.9950 C   0  0  0  0  0  0  0  0  0  0  0  0
    7.8440   -3.3820   22.0290 C   0  0  0  0  0  0  0  0  0  0  0  0
    6.5280   -5.4210   22.3860 C   0  0  0  0  0  0  0  0  0  0  0  0
    8.9650   -1.0160   22.9550 C   0  0  0  0  0  0  0  0  0  0  0  0
    6.8330   -4.3070   21.5180 N   0  0  0  0  0  0  0  0  0  0  0  0
    6.3440   -4.1040   20.2390 C   0  0  0  0  0  0  0  0  0  0  0  0
   10.2600   -0.6200   22.9140 N   0  0  0  0  0  0  0  0  0  0  0  0
    5.2690   -4.5860   19.9020 O   0  0  0  0  0  0  0  0  0  0  0  0
    7.2220   -3.3140   19.2780 C   0  0  0  0  0  0  0  0  0  0  0  0
   11.2340   -1.5790   22.3620 C   0  0  0  0  0  0  0  0  0  0  0  0
   10.7460    0.0990   23.9840 C   0  0  0  0  0  0  0  0  0  0  0  0
   12.5070   -1.0390   22.2440 C   0  0  0  0  0  0  0  0  0  0  0  0
   11.7400    0.8860   23.4860 C   0  0  0  0  0  0  0  0  0  0  0  0
   13.4660   -1.6850   21.5920 F   0  0  0  0  0  0  0  0  0  0  0  0
   12.7120    0.1620   22.8060 C   0  0  0  0  0  0  0  0  0  0  0  0
  2  1  1  1
  2  3  1  0
  1  4  2  0
  2  5  1  0
  5  6  1  1
  5  7  1  0
  3  8  1  0
  6  9  1  0
  7 10  1  0
  8 10  1  0
 10 11  1  0
  9 12  1  0
 11 13  2  0
 11 14  1  0
 12 15  1  0
 12 16  1  0
 15 17  1  0
 16 18  1  0
 17 19  1  0
 17 20  2  0
 18 20  1  0
M  END
