x0397_0-x0692_1-x1385_1-x0540_3-x0770_1-x0831_0-x1375_1
     RDKit          3D

 30 32  0  0  0  0  0  0  0  0999 V2000
    2.8520   -7.4990   23.9710 O   0  0  0  0  0  0  0  0  0  0  0  0
    3.5700   -7.2280   25.1680 C   0  0  0  0  0  0  0  0  0  0  0  0
    4.8360   -6.6760   24.8440 O   0  0  0  0  0  0  0  0  0  0  0  0
    5.0770   -6.7820   23.4550 C   0  0  0  0  0  0  0  0  0  0  0  0
    6.0200   -5.7660   22.9240 C   0  0  2  0  0  0  0  0  0  0  0  0
    5.7330   -4.5280   22.1810 C   0  0  2  0  0  0  0  0  0  0  0  0
    6.1480   -5.9770   21.4940 C   0  0  0  0  0  0  0  0  0  0  0  0
    6.8310   -3.4350   22.0800 C   0  0  1  0  0  0  0  0  0  0  0  0
    6.3990   -2.4720   21.0030 N   0  0  0  0  0  0  0  0  0  0  0  0
    7.3550   -2.7960   23.3630 C   0  0  0  0  0  0  0  0  0  0  0  0
    6.2400   -3.1870   19.8170 C   0  0  0  0  0  0  0  0  0  0  0  0
    8.4770   -1.8770   23.0780 N   0  0  0  0  0  0  0  0  0  0  0  0
    7.3250   -1.3450   20.8540 C   0  0  1  0  0  0  0  0  0  0  0  0
    5.3350   -4.0260   19.6850 O   0  0  0  0  0  0  0  0  0  0  0  0
    7.2490   -2.9620   18.7000 C   0  0  0  0  0  0  0  0  0  0  0  0
    6.7220    0.0450   21.1510 C   0  0  0  0  0  0  0  0  0  0  0  0
    9.8080   -2.2300   23.6300 C   0  0  0  0  0  0  0  0  0  0  0  0
    8.6360   -1.5050   21.6760 C   0  0  0  0  0  0  0  0  0  0  0  0
    5.2400    0.0550   21.6610 C   0  0  0  0  0  0  0  0  0  0  0  0
   10.7220   -1.0220   23.5460 C   0  0  0  0  0  0  0  0  0  0  0  0
    5.1930    1.2380   22.6790 C   0  0  0  0  0  0  0  0  0  0  0  0
   10.1690    0.2270   24.1950 C   0  0  0  0  0  0  0  0  0  0  0  0
   12.0920   -1.0290   22.8540 C   0  0  0  0  0  0  0  0  0  0  0  0
    4.1130    2.1970   22.4760 N   0  0  0  0  0  0  0  0  0  0  0  0
   12.6750   -2.2370   22.1960 C   0  0  0  0  0  0  0  0  0  0  0  0
   10.9140    1.3530   24.1430 C   0  0  0  0  0  0  0  0  0  0  0  0
   12.7550    0.1660   22.8720 C   0  0  0  0  0  0  0  0  0  0  0  0
    2.9820    2.2500   23.4260 C   0  0  0  0  0  0  0  0  0  0  0  0
   12.1780    1.4230   23.5250 C   0  0  0  0  0  0  0  0  0  0  0  0
    2.8510    1.5340   24.4350 O   0  0  0  0  0  0  0  0  0  0  0  0
  1  2  1  0
  2  3  1  0
  3  4  1  0
  5  4  1  6
  5  6  1  0
  5  7  1  0
  6  7  1  6
  6  8  1  0
  8  9  1  0
  8 10  1  1
  9 11  1  0
 10 12  1  0
  9 13  1  0
 11 14  2  0
 11 15  1  0
 13 16  1  1
 12 17  1  0
 12 18  1  0
 13 18  1  0
 16 19  1  0
 17 20  1  0
 19 21  1  0
 20 22  2  0
 20 23  1  0
 21 24  1  0
 23 25  1  0
 22 26  1  0
 23 27  2  0
 24 28  1  0
 26 29  2  0
 27 29  1  0
 28 30  2  0
M  END
