x0397_0-x0770_1-x1412_1-x1374_1-x1385_1-x0692_1-x1386_1-x1418_1-x0426_1-x1334_0-x1334_1-x0434_2-x0831_0-x0831_1
     RDKit          3D

 44 49  0  0  0  0  0  0  0  0999 V2000
    1.9580   -7.2000   23.6580 O   0  0  0  0  0  0  0  0  0  0  0  0
    2.3620   -7.5460   24.9740 C   0  0  0  0  0  0  0  0  0  0  0  0
    3.7430   -7.8650   24.9450 O   0  0  0  0  0  0  0  0  0  0  0  0
    4.3320   -7.2210   23.8430 C   0  0  0  0  0  0  0  0  0  0  0  0
    4.8720   -6.0480   24.2610 C   0  0  0  0  0  0  0  0  0  0  0  0
    5.9510   -5.7140   23.2850 C   0  0  2  0  0  0  0  0  0  0  0  0
    5.7720   -4.7270   22.4270 C   0  0  2  0  0  0  0  0  0  0  0  0
    6.0910   -6.2900   21.9470 C   0  0  0  0  0  0  0  0  0  0  0  0
    6.7280   -3.6370   22.2310 C   0  0  1  0  0  0  0  0  0  0  0  0
    6.2370   -2.6450   21.2930 N   0  0  0  0  0  0  0  0  0  0  0  0
    7.0930   -3.0140   23.6080 C   0  0  0  0  0  0  0  0  0  0  0  0
    6.1840   -3.2040   19.9640 C   0  0  0  0  0  0  0  0  0  0  0  0
    8.3920   -2.2940   23.4820 N   0  0  0  0  0  0  0  0  0  0  0  0
    6.8720   -1.3900   21.7960 C   0  0  2  0  0  0  0  0  0  0  0  0
    7.2200   -2.9080   18.9050 C   0  0  0  0  0  0  0  0  0  0  0  0
    5.2920   -4.0210   19.6820 O   0  0  0  0  0  0  0  0  0  0  0  0
    6.4740    0.0460   21.6310 C   0  0  1  0  0  0  0  0  0  0  0  0
    9.4700   -3.2650   23.7630 C   0  0  1  0  0  0  0  0  0  0  0  0
    8.4490   -1.6250   22.1600 C   0  0  0  0  0  0  0  0  0  0  0  0
    5.4150    0.4020   22.6890 C   0  0  0  0  0  0  0  0  0  0  0  0
   10.8650   -2.7050   23.8540 C   0  0  0  0  0  0  0  0  0  0  0  0
    7.6590    1.0000   21.9580 C   0  0  0  0  0  0  0  0  0  0  0  0
    6.0740    0.4680   20.2140 C   0  0  0  0  0  0  0  0  0  0  0  0
    9.1480   -4.1550   24.9930 C   0  0  0  0  0  0  0  0  0  0  0  0
    4.7040    1.7480   22.4880 C   0  0  2  0  0  0  0  0  0  0  0  0
    4.8120    1.2970   19.9860 C   0  0  0  0  0  0  0  0  0  0  0  0
    6.8390    0.1260   19.2290 C   0  0  0  0  0  0  0  0  0  0  0  0
    9.7480   -5.3500   25.2840 C   0  0  0  0  0  0  0  0  0  0  0  0
    7.9400   -3.8270   26.2780 S   0  0  0  0  0  0  0  0  0  0  0  0
   11.0880   -1.2300   23.8070 C   0  0  0  0  0  0  0  0  0  0  0  0
    3.6920    2.0360   23.5970 N   0  0  0  0  0  0  0  0  0  0  0  0
    3.9270    1.6740   21.1290 C   0  0  0  0  0  0  0  0  0  0  0  0
    4.3810    1.7930   18.6180 C   0  0  0  0  0  0  0  0  0  0  0  0
    6.5530    0.5190   17.8930 N   0  0  0  0  0  0  0  0  0  0  0  0
    9.3660   -6.0090   26.3650 C   0  0  0  0  0  0  0  0  0  0  0  0
    8.3060   -5.2670   27.0730 C   0  0  0  0  0  0  0  0  0  0  0  0
   10.3040   -0.3010   24.4150 C   0  0  0  0  0  0  0  0  0  0  0  0
   12.2100   -0.8290   23.0710 C   0  0  0  0  0  0  0  0  0  0  0  0
    7.4710   -5.6920   28.4980 Cl  0  0  0  0  0  0  0  0  0  0  0  0
   13.1350   -1.7470   22.3430 C   0  0  0  0  0  0  0  0  0  0  0  0
    5.4600    1.2520   17.7330 C   0  0  0  0  0  0  0  0  0  0  0  0
   10.5890    1.1940   24.3380 C   0  0  0  0  0  0  0  0  0  0  0  0
   12.6000    0.5960   22.9380 C   0  0  0  0  0  0  0  0  0  0  0  0
   11.8370    1.5670   23.5340 C   0  0  0  0  0  0  0  0  0  0  0  0
  1  2  1  0
  2  3  1  0
  3  4  1  0
  4  5  1  0
  6  5  1  6
  6  7  1  0
  6  8  1  0
  7  8  1  6
  7  9  1  0
  9 10  1  0
  9 11  1  1
 10 12  1  0
 11 13  1  0
 10 14  1  0
 12 15  1  0
 12 16  2  0
 14 17  1  0
 13 18  1  0
 13 19  1  0
 14 19  1  6
 17 20  1  0
 18 21  1  1
 17 22  1  1
 17 23  1  0
 18 24  1  0
 20 25  1  0
 23 26  2  0
 23 27  1  0
 24 28  2  0
 24 29  1  0
 21 30  1  0
 25 31  1  1
 25 32  1  0
 26 32  1  0
 26 33  1  0
 27 34  2  0
 28 35  1  0
 29 36  1  0
 35 36  2  0
 30 37  2  0
 30 38  1  0
 36 39  1  0
 38 40  1  0
 33 41  2  0
 34 41  1  0
 37 42  1  0
 38 43  2  0
 42 44  2  0
 43 44  1  0
M  END
