x0397_0-x0770_1-x1385_1-x0426_1-x1374_1-x1386_0-x0831_0-x1418_1-x1334_0-x0689_0-x0692_1-x0434_2-x1412_1-x1334_1
     RDKit          3D

 53 59  0  0  0  0  0  0  0  0999 V2000
    1.6290   -7.0000   22.9940 O   0  0  0  0  0  0  0  0  0  0  0  0
    2.2710   -7.6650   24.0740 C   0  0  0  0  0  0  0  0  0  0  0  0
    3.6160   -6.9850   24.3570 C   0  0  2  0  0  0  0  0  0  0  0  0
    4.6170   -7.9410   24.1630 O   0  0  0  0  0  0  0  0  0  0  0  0
    3.7740   -6.5980   25.5640 N   0  0  0  0  0  0  0  0  0  0  0  0
    4.6390   -5.3830   25.9510 S   0  0  2  0  0  0  0  0  0  0  0  0
    5.1470   -5.1370   27.2790 O   0  0  0  0  0  0  0  0  0  0  0  0
    3.4440   -4.0530   25.7280 C   0  0  0  0  0  0  0  0  0  0  0  0
    6.0570   -5.0650   24.8920 C   0  0  0  0  0  0  0  0  0  0  0  0
    4.0070   -2.4160   26.0220 S   0  0  0  0  0  0  0  0  0  0  0  0
    2.0940   -4.1100   25.3650 C   0  0  0  0  0  0  0  0  0  0  0  0
    6.1470   -5.3220   23.3970 C   0  0  2  0  0  0  0  0  0  0  0  0
    2.4980   -1.6780   25.7020 C   0  0  0  0  0  0  0  0  0  0  0  0
    1.4620   -2.7470   25.3320 C   0  0  0  0  0  0  0  0  0  0  0  0
    5.7040   -4.3160   22.4930 C   0  0  2  0  0  0  0  0  0  0  0  0
    5.5770   -5.9950   22.5020 C   0  0  0  0  0  0  0  0  0  0  0  0
    6.8490   -3.4480   22.1890 C   0  0  1  0  0  0  0  0  0  0  0  0
    6.5270   -2.5170   21.1070 N   0  0  0  0  0  0  0  0  0  0  0  0
    7.3700   -2.8480   23.3160 C   0  0  0  0  0  0  0  0  0  0  0  0
    6.3090   -3.2310   19.9200 C   0  0  0  0  0  0  0  0  0  0  0  0
    8.4040   -1.8510   23.0510 N   0  0  0  0  0  0  0  0  0  0  0  0
    7.2980   -1.3930   21.1090 C   0  0  1  0  0  0  0  0  0  0  0  0
    7.2790   -2.9750   18.7730 C   0  0  0  0  0  0  0  0  0  0  0  0
    5.4160   -4.0840   19.7380 O   0  0  0  0  0  0  0  0  0  0  0  0
    6.6300   -0.0630   21.4230 C   0  0  1  0  0  0  0  0  0  0  0  0
    9.5980   -1.9370   23.8970 C   0  0  2  0  0  0  0  0  0  0  0  0
    8.5190   -1.5600   21.6400 C   0  0  0  0  0  0  0  0  0  0  0  0
    5.6480    0.0260   22.3850 C   0  0  0  0  0  0  0  0  0  0  0  0
   10.1030   -3.3400   23.9460 C   0  0  0  0  0  0  0  0  0  0  0  0
    9.1430   -1.7290   25.1450 C   0  0  0  0  0  0  0  0  0  0  0  0
    7.7300    0.9340   21.8960 C   0  0  0  0  0  0  0  0  0  0  0  0
    6.1110    0.4900   20.0950 C   0  0  0  0  0  0  0  0  0  0  0  0
   10.6710   -0.8230   23.6150 C   0  0  0  0  0  0  0  0  0  0  0  0
    4.9600    1.4610   22.4800 C   0  0  2  0  0  0  0  0  0  0  0  0
    4.8500    1.3720   20.0480 C   0  0  0  0  0  0  0  0  0  0  0  0
    6.7730    0.2080   18.9330 C   0  0  0  0  0  0  0  0  0  0  0  0
   10.3730    0.4170   24.1080 C   0  0  0  0  0  0  0  0  0  0  0  0
   11.8530   -0.9280   22.9550 C   0  0  0  0  0  0  0  0  0  0  0  0
    9.5540   -4.2180   25.0780 C   0  0  0  0  0  0  0  0  0  0  0  0
    4.0150    1.5210   23.6030 N   0  0  0  0  0  0  0  0  0  0  0  0
    4.0650    1.7330   21.2410 C   0  0  0  0  0  0  0  0  0  0  0  0
   12.4100   -2.1590   22.3150 C   0  0  0  0  0  0  0  0  0  0  0  0
    4.4960    1.8160   18.8380 C   0  0  0  0  0  0  0  0  0  0  0  0
    6.4670    0.6170   17.7180 N   0  0  0  0  0  0  0  0  0  0  0  0
   11.1630    1.5210   23.9820 C   0  0  0  0  0  0  0  0  0  0  0  0
   12.6860    0.2160   22.8240 C   0  0  0  0  0  0  0  0  0  0  0  0
    9.9590   -5.4940   25.3630 C   0  0  0  0  0  0  0  0  0  0  0  0
    8.3090   -3.7780   26.2250 S   0  0  0  0  0  0  0  0  0  0  0  0
    5.3480    1.4120   17.6820 C   0  0  0  0  0  0  0  0  0  0  0  0
   12.3670    1.4770   23.3320 C   0  0  0  0  0  0  0  0  0  0  0  0
    9.3640   -6.1000   26.4070 C   0  0  0  0  0  0  0  0  0  0  0  0
    8.3650   -5.2550   27.0480 C   0  0  0  0  0  0  0  0  0  0  0  0
    7.3710   -5.6060   28.3960 Cl  0  0  0  0  0  0  0  0  0  0  0  0
  1  2  1  0
  2  3  1  0
  3  4  1  1
  3  5  1  0
  5  6  2  0
  6  7  2  0
  6  8  1  0
  6  9  1  6
  8 10  1  0
  8 11  2  0
 12  9  1  1
 10 13  1  0
 11 14  1  0
 13 14  2  0
 12 15  1  0
 12 16  1  0
 15 16  1  6
 15 17  1  0
 17 18  1  0
 17 19  1  1
 18 20  1  0
 19 21  1  0
 18 22  1  0
 20 23  1  0
 20 24  2  0
 22 25  1  0
 21 26  1  0
 21 27  1  0
 22 27  1  1
 25 28  1  0
 26 29  1  0
 26 30  1  1
 25 31  1  1
 25 32  1  0
 26 33  1  0
 28 34  1  0
 32 35  2  0
 32 36  1  0
 33 37  2  0
 33 38  1  0
 29 39  1  0
 34 40  1  1
 34 41  1  0
 35 41  1  0
 38 42  1  0
 35 43  1  0
 36 44  2  0
 37 45  1  0
 38 46  2  0
 39 47  2  0
 39 48  1  0
 43 49  2  0
 44 49  1  0
 45 50  2  0
 46 50  1  0
 47 51  1  0
 48 52  1  0
 51 52  2  0
 52 53  1  0
M  END
