x0397_0-x0692_1-x1334_1-x0831_0-x1375_1-x0831_1-x0434_2-x1385_1-x1412_1-x1334_0-x1386_1-x0426_1-x1418_1-x0770_1
     RDKit          3D

 43 48  0  0  0  0  0  0  0  0999 V2000
    3.0020   -8.2130   23.8990 O   0  0  0  0  0  0  0  0  0  0  0  0
    3.4490   -6.8940   24.0100 C   0  0  0  0  0  0  0  0  0  0  0  0
    4.7690   -6.9130   24.4970 O   0  0  0  0  0  0  0  0  0  0  0  0
    5.4080   -5.6420   24.4700 C   0  0  0  0  0  0  0  0  0  0  0  0
    6.2480   -5.5550   23.2330 C   0  0  2  0  0  0  0  0  0  0  0  0
    5.8970   -4.5370   22.3270 C   0  0  2  0  0  0  0  0  0  0  0  0
    5.9910   -6.2000   22.1150 C   0  0  0  0  0  0  0  0  0  0  0  0
    6.9580   -3.4840   22.1310 C   0  0  1  0  0  0  0  0  0  0  0  0
    6.6500   -2.6270   20.9560 N   0  0  0  0  0  0  0  0  0  0  0  0
    7.2970   -2.7670   23.3080 C   0  0  0  0  0  0  0  0  0  0  0  0
    6.2650   -3.3420   19.8170 C   0  0  0  0  0  0  0  0  0  0  0  0
    8.4230   -1.8350   23.2230 N   0  0  0  0  0  0  0  0  0  0  0  0
    7.6080   -1.5100   20.8210 C   0  0  1  0  0  0  0  0  0  0  0  0
    5.3520   -4.1680   19.7310 O   0  0  0  0  0  0  0  0  0  0  0  0
    7.1690   -3.0060   18.6510 C   0  0  0  0  0  0  0  0  0  0  0  0
    9.5730   -1.9110   24.1140 C   0  0  1  0  0  0  0  0  0  0  0  0
    7.3580   -0.3590   21.7820 C   0  0  0  0  0  0  0  0  0  0  0  0
    8.7740   -1.4480   21.8260 C   0  0  0  0  0  0  0  0  0  0  0  0
    5.8470   -0.0180   21.8330 C   0  0  1  0  0  0  0  0  0  0  0  0
   10.0960   -3.3040   24.1520 C   0  0  0  0  0  0  0  0  0  0  0  0
   10.5690   -0.7730   23.8160 C   0  0  0  0  0  0  0  0  0  0  0  0
    5.2550    0.8650   22.9430 C   0  0  0  0  0  0  0  0  0  0  0  0
    5.6050    0.5110   20.4160 C   0  0  0  0  0  0  0  0  0  0  0  0
   10.2990    0.5160   24.2110 C   0  0  0  0  0  0  0  0  0  0  0  0
   11.9230   -0.8600   23.0800 C   0  0  0  0  0  0  0  0  0  0  0  0
    9.5480   -4.2200   25.1910 C   0  0  0  0  0  0  0  0  0  0  0  0
    4.3900    2.0630   22.4950 C   0  0  2  0  0  0  0  0  0  0  0  0
   12.5060   -2.1080   22.5130 C   0  0  0  0  0  0  0  0  0  0  0  0
    4.4820    1.3020   20.1580 C   0  0  0  0  0  0  0  0  0  0  0  0
    6.6070    0.1810   19.2290 C   0  0  0  0  0  0  0  0  0  0  0  0
   11.0280    1.6660   24.0450 C   0  0  0  0  0  0  0  0  0  0  0  0
   12.7420    0.4160   22.8990 C   0  0  0  0  0  0  0  0  0  0  0  0
    9.9560   -5.4610   25.4220 C   0  0  0  0  0  0  0  0  0  0  0  0
    8.2720   -3.7460   26.2520 S   0  0  0  0  0  0  0  0  0  0  0  0
    3.4930    2.5080   23.5450 N   0  0  0  0  0  0  0  0  0  0  0  0
    3.5730    1.5680   21.3010 C   0  0  0  0  0  0  0  0  0  0  0  0
    4.3470    1.7970   18.7260 C   0  0  0  0  0  0  0  0  0  0  0  0
    6.5080    0.5960   17.9420 N   0  0  0  0  0  0  0  0  0  0  0  0
   12.2520    1.6240   23.3910 C   0  0  0  0  0  0  0  0  0  0  0  0
    9.1960   -6.1380   26.5680 C   0  0  0  0  0  0  0  0  0  0  0  0
    8.2700   -5.3110   27.0920 C   0  0  0  0  0  0  0  0  0  0  0  0
    7.1940   -5.6260   28.3850 Cl  0  0  0  0  0  0  0  0  0  0  0  0
    5.3650    1.4210   17.7040 C   0  0  0  0  0  0  0  0  0  0  0  0
  1  2  1  0
  2  3  1  0
  3  4  1  0
  5  4  1  1
  5  6  1  0
  5  7  1  0
  6  7  1  6
  6  8  1  0
  8  9  1  0
  8 10  1  1
  9 11  1  0
 10 12  1  0
  9 13  1  0
 11 14  2  0
 11 15  1  0
 12 16  1  0
 13 17  1  1
 12 18  1  0
 13 18  1  0
 19 17  1  1
 16 20  1  6
 16 21  1  0
 19 22  1  0
 19 23  1  0
 21 24  2  0
 21 25  1  0
 20 26  1  0
 22 27  1  0
 25 28  1  0
 23 29  2  0
 23 30  1  0
 24 31  1  0
 25 32  2  0
 26 33  2  0
 26 34  1  0
 27 35  1  1
 27 36  1  0
 29 36  1  0
 29 37  1  0
 30 38  2  0
 31 39  2  0
 32 39  1  0
 33 40  1  0
 34 41  1  0
 40 41  2  0
 41 42  1  0
 37 43  2  0
 38 43  1  0
M  END
