x0397_0-x0831_0
     RDKit          3D

 16 17  0  0  0  0  0  0  0  0999 V2000
    5.9240   -2.9160   21.0260 C   0  0  0  0  0  0  0  0  0  0  0  0
    6.3940   -3.1710   22.0710 N   0  0  0  0  0  0  0  0  0  0  0  0
    7.8520   -2.9340   22.0740 C   0  0  0  0  0  0  0  0  0  0  0  0
    5.3810   -3.6990   20.2450 O   0  0  0  0  0  0  0  0  0  0  0  0
    5.8620   -4.4070   22.5420 C   0  0  0  0  0  0  0  0  0  0  0  0
    8.4840   -2.4120   23.4240 C   0  0  0  0  0  0  0  0  0  0  0  0
    6.6860   -5.4270   23.3290 C   0  0  0  0  0  0  0  0  0  0  0  0
    6.1200   -5.8190   21.9320 C   0  0  0  0  0  0  0  0  0  0  0  0
    9.9950   -2.4730   23.5120 C   0  0  0  0  0  0  0  0  0  0  0  0
   10.7350   -1.1430   23.5320 C   0  0  0  0  0  0  0  0  0  0  0  0
   10.1360    0.0340   24.2210 C   0  0  0  0  0  0  0  0  0  0  0  0
   11.9900   -0.9650   22.9090 C   0  0  0  0  0  0  0  0  0  0  0  0
   12.6930   -2.0670   22.1790 C   0  0  0  0  0  0  0  0  0  0  0  0
   10.8040    1.2380   24.2240 C   0  0  0  0  0  0  0  0  0  0  0  0
   12.6280    0.2720   22.9480 C   0  0  0  0  0  0  0  0  0  0  0  0
   12.0430    1.3670   23.5940 C   0  0  0  0  0  0  0  0  0  0  0  0
  1  2  1  0
  2  3  1  0
  1  4  2  0
  2  5  1  0
  3  6  1  0
  5  7  1  0
  5  8  1  0
  7  8  1  0
  6  9  1  0
  9 10  1  0
 10 11  2  0
 10 12  1  0
 12 13  1  0
 11 14  1  0
 12 15  2  0
 14 16  2  0
 15 16  1  0
M  END
