x0395_1-x1380_1
     RDKit          3D

 20 21  0  0  0  0  0  0  0  0999 V2000
    5.7900   -3.6180   25.5670 C   0  0  0  0  0  0  0  0  0  0  0  0
    6.5990   -3.8920   24.3070 C   0  0  2  0  0  0  0  0  0  0  0  0
    6.5860   -2.6190   23.4720 C   0  0  0  0  0  0  0  0  0  0  0  0
    4.8870   -2.7870   25.6680 O   0  0  0  0  0  0  0  0  0  0  0  0
    5.8580   -5.0040   23.4810 C   0  0  0  0  0  0  0  0  0  0  0  0
    6.6170   -5.3270   22.3590 C   0  0  0  0  0  0  0  0  0  0  0  0
    7.2110   -2.8170   22.2500 C   0  0  1  0  0  0  0  0  0  0  0  0
    8.7500   -2.5580   22.3190 C   0  0  0  0  0  0  0  0  0  0  0  0
    6.8150   -4.0910   21.5910 N   0  0  0  0  0  0  0  0  0  0  0  0
    6.3300   -4.0820   20.2960 C   0  0  0  0  0  0  0  0  0  0  0  0
    9.0970   -1.0920   22.3280 C   0  0  0  0  0  0  0  0  0  0  0  0
    7.0950   -3.2710   19.2700 C   0  0  0  0  0  0  0  0  0  0  0  0
    5.3520   -4.7410   19.9590 O   0  0  0  0  0  0  0  0  0  0  0  0
   10.3750   -0.6600   22.2960 N   0  0  0  0  0  0  0  0  0  0  0  0
   11.2250   -1.7050   22.2660 C   0  0  0  0  0  0  0  0  0  0  0  0
   10.7230    0.2340   23.4080 C   0  0  0  0  0  0  0  0  0  0  0  0
   12.5180   -1.2500   22.1390 C   0  0  0  0  0  0  0  0  0  0  0  0
   11.9570    0.8580   23.1410 C   0  0  0  0  0  0  0  0  0  0  0  0
   13.4370   -2.0330   21.5760 F   0  0  0  0  0  0  0  0  0  0  0  0
   12.8720    0.0170   22.5800 C   0  0  0  0  0  0  0  0  0  0  0  0
  2  1  1  1
  2  3  1  0
  1  4  2  0
  2  5  1  0
  5  6  1  0
  3  7  1  0
  7  8  1  1
  6  9  1  0
  7  9  1  0
  9 10  1  0
  8 11  1  0
 10 12  1  0
 10 13  2  0
 11 14  1  0
 14 15  1  0
 14 16  1  0
 15 17  1  0
 16 18  1  0
 17 19  1  0
 17 20  2  0
 18 20  1  0
M  END
