x0395_1-x1380_1-x0434_2
     RDKit          3D

 28 30  0  0  0  0  0  0  0  0999 V2000
    5.3830   -3.9970   25.4540 C   0  0  0  0  0  0  0  0  0  0  0  0
    6.2860   -4.2310   24.2690 C   0  0  2  0  0  0  0  0  0  0  0  0
    6.3930   -3.0210   23.4050 C   0  0  0  0  0  0  0  0  0  0  0  0
    4.7130   -2.9800   25.6170 O   0  0  0  0  0  0  0  0  0  0  0  0
    5.8340   -5.3610   23.3400 C   0  0  0  0  0  0  0  0  0  0  0  0
    6.6100   -5.5500   22.2450 C   0  0  0  0  0  0  0  0  0  0  0  0
    7.4160   -3.3170   22.6320 C   0  0  2  0  0  0  0  0  0  0  0  0
    8.1730   -1.9590   22.4450 C   0  0  1  0  0  0  0  0  0  0  0  0
    6.9670   -4.2900   21.5580 N   0  0  0  0  0  0  0  0  0  0  0  0
    6.4400   -4.0070   20.2660 C   0  0  0  0  0  0  0  0  0  0  0  0
    9.4810   -1.9020   23.2450 C   0  0  0  0  0  0  0  0  0  0  0  0
    8.2120   -1.3410   21.1050 C   0  0  0  0  0  0  0  0  0  0  0  0
    7.2510   -3.2050   19.2550 C   0  0  0  0  0  0  0  0  0  0  0  0
    5.3600   -4.4940   19.9170 O   0  0  0  0  0  0  0  0  0  0  0  0
    7.2070   -0.2900   21.2090 N   0  0  0  0  0  0  0  0  0  0  0  0
   10.3810   -0.9540   22.8710 N   0  0  0  0  0  0  0  0  0  0  0  0
   11.5420   -1.7590   22.3740 C   0  0  0  0  0  0  0  0  0  0  0  0
   10.7240   -0.1280   23.9160 C   0  0  0  0  0  0  0  0  0  0  0  0
    6.5490    0.2410   20.1210 C   0  0  0  0  0  0  0  0  0  0  0  0
   12.6020   -0.9830   22.2100 C   0  0  0  0  0  0  0  0  0  0  0  0
   11.6740    0.8320   23.5090 C   0  0  0  0  0  0  0  0  0  0  0  0
    6.9520    0.0780   18.6830 C   0  0  0  0  0  0  0  0  0  0  0  0
    5.4030    1.0080   20.3190 C   0  0  0  0  0  0  0  0  0  0  0  0
   13.6220   -1.4390   21.4800 F   0  0  0  0  0  0  0  0  0  0  0  0
   12.6500    0.3140   22.7940 C   0  0  0  0  0  0  0  0  0  0  0  0
    6.3030    0.6190   17.6390 N   0  0  0  0  0  0  0  0  0  0  0  0
    4.7370    1.5620   19.2210 C   0  0  0  0  0  0  0  0  0  0  0  0
    5.2170    1.3490   17.9270 C   0  0  0  0  0  0  0  0  0  0  0  0
  2  1  1  1
  2  3  1  0
  1  4  2  0
  2  5  1  0
  5  6  1  0
  7  3  1  6
  7  8  1  0
  6  9  1  0
  7  9  1  0
  9 10  1  0
  8 11  1  6
  8 12  1  0
 10 13  1  0
 10 14  2  0
 12 15  1  0
 11 16  1  0
 16 17  1  0
 16 18  1  0
 15 19  1  0
 17 20  1  0
 18 21  1  0
 19 22  2  0
 19 23  1  0
 20 24  1  0
 20 25  2  0
 21 25  1  0
 22 26  1  0
 23 27  2  0
 26 28  2  0
 27 28  1  0
M  END
