x0397_0-x1334_0-x1334_1-x0770_1-x1418_1-x0831_1-x0434_2-x0692_1-x0831_0-x1386_1-x1385_1-x1374_1-x1412_1
     RDKit          3D

 39 43  0  0  0  0  0  0  0  0999 V2000
    2.3040   -7.6140   23.2840 O   0  0  0  0  0  0  0  0  0  0  0  0
    2.5640   -7.8790   24.6450 C   0  0  0  0  0  0  0  0  0  0  0  0
    3.9630   -7.8530   24.8290 O   0  0  0  0  0  0  0  0  0  0  0  0
    4.5980   -7.1460   23.7770 C   0  0  0  0  0  0  0  0  0  0  0  0
    5.0070   -5.9090   24.2250 C   0  0  0  0  0  0  0  0  0  0  0  0
    6.1140   -5.5720   23.2780 C   0  0  2  0  0  0  0  0  0  0  0  0
    5.9270   -4.5670   22.2090 C   0  0  2  0  0  0  0  0  0  0  0  0
    6.2240   -6.2350   22.0100 C   0  0  0  0  0  0  0  0  0  0  0  0
    6.9960   -3.5390   22.0580 C   0  0  1  0  0  0  0  0  0  0  0  0
    6.7550   -2.6760   21.0880 N   0  0  0  0  0  0  0  0  0  0  0  0
    7.1800   -2.7760   23.3870 C   0  0  0  0  0  0  0  0  0  0  0  0
    6.4300   -3.2890   19.8840 C   0  0  0  0  0  0  0  0  0  0  0  0
    8.5140   -2.2340   23.4000 N   0  0  0  0  0  0  0  0  0  0  0  0
    7.7310   -1.6620   21.0800 C   0  0  1  0  0  0  0  0  0  0  0  0
    7.3330   -3.0100   18.7110 C   0  0  0  0  0  0  0  0  0  0  0  0
    5.4710   -4.0770   19.7320 O   0  0  0  0  0  0  0  0  0  0  0  0
    9.4820   -3.2340   23.7870 C   0  0  1  0  0  0  0  0  0  0  0  0
    6.9170   -0.4690   21.3030 N   0  0  0  0  0  0  0  0  0  0  0  0
    8.9070   -1.7600   22.0730 C   0  0  0  0  0  0  0  0  0  0  0  0
   10.8900   -2.7780   24.1020 C   0  0  0  0  0  0  0  0  0  0  0  0
    9.0740   -4.0720   24.9990 C   0  0  0  0  0  0  0  0  0  0  0  0
    6.3010    0.1550   20.2220 C   0  0  0  0  0  0  0  0  0  0  0  0
    9.7450   -5.3580   25.2740 C   0  0  0  0  0  0  0  0  0  0  0  0
    7.9110   -3.7810   26.1860 S   0  0  0  0  0  0  0  0  0  0  0  0
   11.1240   -1.2860   23.9410 C   0  0  0  0  0  0  0  0  0  0  0  0
    6.9070    0.0680   18.8570 C   0  0  0  0  0  0  0  0  0  0  0  0
    5.1130    0.8800   20.3410 C   0  0  0  0  0  0  0  0  0  0  0  0
    9.2290   -6.0390   26.4950 C   0  0  0  0  0  0  0  0  0  0  0  0
    8.2250   -5.2570   27.0620 C   0  0  0  0  0  0  0  0  0  0  0  0
   10.3240   -0.3320   24.5310 C   0  0  0  0  0  0  0  0  0  0  0  0
   12.2990   -0.7870   23.1060 C   0  0  0  0  0  0  0  0  0  0  0  0
    6.3940    0.6430   17.7640 N   0  0  0  0  0  0  0  0  0  0  0  0
    4.5900    1.4710   19.1840 C   0  0  0  0  0  0  0  0  0  0  0  0
    7.3280   -5.6220   28.4680 Cl  0  0  0  0  0  0  0  0  0  0  0  0
   13.1540   -1.8110   22.4460 C   0  0  0  0  0  0  0  0  0  0  0  0
   10.6120    1.1280   24.3530 C   0  0  0  0  0  0  0  0  0  0  0  0
   12.6160    0.7020   22.9310 C   0  0  0  0  0  0  0  0  0  0  0  0
    5.2540    1.3300   17.9430 C   0  0  0  0  0  0  0  0  0  0  0  0
   11.6720    1.6460   23.6210 C   0  0  0  0  0  0  0  0  0  0  0  0
  1  2  1  0
  2  3  1  0
  3  4  1  0
  4  5  1  0
  6  5  1  1
  6  7  1  0
  6  8  1  0
  7  8  1  6
  7  9  1  0
  9 10  1  0
  9 11  1  1
 10 12  1  0
 11 13  1  0
 10 14  1  0
 12 15  1  0
 12 16  2  0
 13 17  1  0
 14 18  1  1
 13 19  1  0
 14 19  1  0
 17 20  1  1
 17 21  1  0
 18 22  1  0
 21 23  2  0
 21 24  1  0
 20 25  1  0
 22 26  2  0
 22 27  1  0
 23 28  1  0
 24 29  1  0
 28 29  2  0
 25 30  2  0
 25 31  1  0
 26 32  1  0
 27 33  2  0
 29 34  1  0
 31 35  1  0
 30 36  1  0
 31 37  2  0
 32 38  2  0
 33 38  1  0
 36 39  2  0
 37 39  1  0
M  END
