x0397_0-x1374_1-x1385_1-x1386_1-x1334_1-x0692_1-x0540_3-x1334_0-x0831_0-x1418_1-x0770_1-x0831_1
     RDKit          3D

 38 41  0  0  0  0  0  0  0  0999 V2000
    2.0300   -7.4270   23.7810 O   0  0  0  0  0  0  0  0  0  0  0  0
    2.5410   -7.8680   25.0210 C   0  0  0  0  0  0  0  0  0  0  0  0
    3.9560   -7.8860   24.9370 O   0  0  0  0  0  0  0  0  0  0  0  0
    4.4230   -7.2050   23.7780 C   0  0  0  0  0  0  0  0  0  0  0  0
    4.7360   -5.9160   24.1100 C   0  0  0  0  0  0  0  0  0  0  0  0
    5.8880   -5.5840   23.2130 C   0  0  2  0  0  0  0  0  0  0  0  0
    5.8240   -4.5480   22.4550 C   0  0  2  0  0  0  0  0  0  0  0  0
    5.9230   -6.1470   22.0020 C   0  0  0  0  0  0  0  0  0  0  0  0
    6.9070   -3.5330   22.1950 C   0  0  2  0  0  0  0  0  0  0  0  0
    7.1570   -2.7750   23.4600 C   0  0  0  0  0  0  0  0  0  0  0  0
    6.5850   -2.5860   21.1360 N   0  0  0  0  0  0  0  0  0  0  0  0
    6.3870   -3.2060   19.8820 C   0  0  0  0  0  0  0  0  0  0  0  0
    8.4910   -2.2080   23.3610 N   0  0  0  0  0  0  0  0  0  0  0  0
    7.4980   -1.4050   21.2480 C   0  0  1  0  0  0  0  0  0  0  0  0
    7.3940   -2.9560   18.7730 C   0  0  0  0  0  0  0  0  0  0  0  0
    5.4370   -3.9820   19.6860 O   0  0  0  0  0  0  0  0  0  0  0  0
    6.8710   -0.1380   21.9430 C   0  0  0  0  0  0  0  0  0  0  0  0
    9.4260   -3.2790   23.7190 C   0  0  1  0  0  0  0  0  0  0  0  0
    8.6750   -1.6560   22.0010 C   0  0  0  0  0  0  0  0  0  0  0  0
    5.3380    0.1020   21.8190 C   0  0  0  0  0  0  0  0  0  0  0  0
   10.8800   -2.7970   23.8490 C   0  0  0  0  0  0  0  0  0  0  0  0
    9.0760   -4.0920   24.9540 C   0  0  0  0  0  0  0  0  0  0  0  0
    5.0270    1.6190   21.6430 C   0  0  0  0  0  0  0  0  0  0  0  0
    9.6810   -5.2520   25.2180 C   0  0  0  0  0  0  0  0  0  0  0  0
    7.9500   -3.7760   26.1770 S   0  0  0  0  0  0  0  0  0  0  0  0
   11.1640   -1.2590   23.7710 C   0  0  0  0  0  0  0  0  0  0  0  0
    4.4110    2.2300   22.8010 N   0  0  0  0  0  0  0  0  0  0  0  0
    9.4100   -6.1540   26.4190 C   0  0  0  0  0  0  0  0  0  0  0  0
    8.3550   -5.2320   26.9710 C   0  0  0  0  0  0  0  0  0  0  0  0
   10.3120   -0.1660   24.4360 C   0  0  0  0  0  0  0  0  0  0  0  0
   12.2070   -0.7870   23.0990 C   0  0  0  0  0  0  0  0  0  0  0  0
    3.1350    1.9110   23.1870 C   0  0  0  0  0  0  0  0  0  0  0  0
    7.4910   -5.5640   28.4060 Cl  0  0  0  0  0  0  0  0  0  0  0  0
   13.0950   -1.7660   22.3910 C   0  0  0  0  0  0  0  0  0  0  0  0
   10.7760    1.2300   24.2350 C   0  0  0  0  0  0  0  0  0  0  0  0
   12.6290    0.7210   22.9530 C   0  0  0  0  0  0  0  0  0  0  0  0
    2.7940    1.3030   24.1910 O   0  0  0  0  0  0  0  0  0  0  0  0
   11.8740    1.6410   23.5360 C   0  0  0  0  0  0  0  0  0  0  0  0
  1  2  1  0
  2  3  1  0
  3  4  1  0
  4  5  1  0
  6  5  1  6
  6  7  1  0
  6  8  1  0
  7  8  1  6
  7  9  1  0
  9 10  1  1
  9 11  1  0
 11 12  1  0
 10 13  1  0
 11 14  1  0
 12 15  1  0
 12 16  2  0
 14 17  1  1
 13 18  1  0
 13 19  1  0
 14 19  1  0
 17 20  1  0
 18 21  1  1
 18 22  1  0
 20 23  1  0
 22 24  2  0
 22 25  1  0
 21 26  1  0
 23 27  1  0
 24 28  1  0
 25 29  1  0
 28 29  2  0
 26 30  2  0
 26 31  1  0
 27 32  1  0
 29 33  1  0
 31 34  1  0
 30 35  1  0
 31 36  2  0
 32 37  2  0
 35 38  2  0
 36 38  1  0
M  END
