x0397_1-x0752_1
     RDKit          3D

 21 23  0  0  0  0  0  0  0  0999 V2000
    7.1340   -2.0600   20.2780 N   0  0  0  0  0  0  0  0  0  0  0  0
    8.2860   -1.5800   21.0770 C   0  0  0  0  0  0  0  0  0  0  0  0
    6.9130   -1.6990   18.9340 C   0  0  0  0  0  0  0  0  0  0  0  0
    6.2850   -2.9930   21.0140 C   0  0  0  0  0  0  0  0  0  0  0  0
    6.9690   -4.4510   21.0550 C   0  0  0  0  0  0  0  0  0  0  0  0
    6.1650   -0.4300   18.7060 C   0  0  0  0  0  0  0  0  0  0  0  0
    7.0510   -5.1180   22.4420 C   0  0  0  0  0  0  0  0  0  0  0  0
    5.1380    0.0730   19.4300 C   0  0  0  0  0  0  0  0  0  0  0  0
    6.3560    0.5790   17.6440 N   0  0  0  0  0  0  0  0  0  0  0  0
    4.6670    1.2580   18.9630 C   0  0  0  0  0  0  0  0  0  0  0  0
    5.4800    1.5400   17.8180 O   0  0  0  0  0  0  0  0  0  0  0  0
    5.8640   -4.6730   23.2020 C   0  0  0  0  0  0  0  0  0  0  0  0
    3.5330    2.1750   19.4600 C   0  0  0  0  0  0  0  0  0  0  0  0
    4.6920   -5.4140   23.3270 C   0  0  0  0  0  0  0  0  0  0  0  0
    6.0260   -3.4020   23.7840 C   0  0  0  0  0  0  0  0  0  0  0  0
    3.6200   -4.7280   24.1340 C   0  0  0  0  0  0  0  0  0  0  0  0
    5.0280   -2.7680   24.5320 C   0  0  0  0  0  0  0  0  0  0  0  0
    3.8150   -3.3870   24.7330 C   0  0  0  0  0  0  0  0  0  0  0  0
    2.3500   -5.2510   24.4070 O   0  0  0  0  0  0  0  0  0  0  0  0
    2.7230   -2.9660   25.4080 O   0  0  0  0  0  0  0  0  0  0  0  0
    1.8610   -4.1530   25.2610 C   0  0  0  0  0  0  0  0  0  0  0  0
  1  2  1  0
  1  3  1  0
  1  4  1  0
  4  5  1  0
  3  6  1  0
  5  7  1  0
  6  8  1  0
  6  9  2  0
  8 10  2  0
  9 11  1  0
 10 11  1  0
  7 12  1  0
 10 13  1  0
 12 14  2  0
 12 15  1  0
 14 16  1  0
 15 17  2  0
 16 18  2  0
 17 18  1  0
 16 19  1  0
 18 20  1  0
 19 21  1  0
 20 21  1  0
M  END
