x0426_0-x0831_0
     RDKit          3D

 23 24  0  0  0  0  0  0  0  0999 V2000
    2.2810    1.8680   23.5960 C   0  0  0  0  0  0  0  0  0  0  0  0
    2.7870    0.5730   23.5950 N   0  0  0  0  0  0  0  0  0  0  0  0
    3.7930    0.2030   22.6050 C   0  0  0  0  0  0  0  0  0  0  0  0
    1.2530    2.5980   24.4480 C   0  0  0  0  0  0  0  0  0  0  0  0
   -0.0680    2.0150   24.4450 C   0  0  0  0  0  0  0  0  0  0  0  0
    1.5850    3.7750   25.1730 C   0  0  0  0  0  0  0  0  0  0  0  0
    2.8210    4.2930   25.1530 F   0  0  0  0  0  0  0  0  0  0  0  0
    4.6790   -1.0020   22.9820 C   0  0  0  0  0  0  0  0  0  0  0  0
   -1.2070    2.6610   25.2590 C   0  0  0  0  0  0  0  0  0  0  0  0
    0.5090    4.4960   26.0200 C   0  0  0  0  0  0  0  0  0  0  0  0
    6.0440   -0.7290   22.9340 C   0  0  0  0  0  0  0  0  0  0  0  0
   -0.9010    3.9250   26.0560 C   0  0  0  0  0  0  0  0  0  0  0  0
    6.9070   -1.8180   22.6660 C   0  0  0  0  0  0  0  0  0  0  0  0
    8.1930   -1.5710   22.1470 C   0  0  0  0  0  0  0  0  0  0  0  0
    9.1460   -2.5580   22.4220 C   0  0  0  0  0  0  0  0  0  0  0  0
   10.0440   -2.3520   23.6040 C   0  0  0  0  0  0  0  0  0  0  0  0
   10.8360   -1.0650   23.5730 C   0  0  0  0  0  0  0  0  0  0  0  0
   10.3050    0.0440   24.2140 C   0  0  0  0  0  0  0  0  0  0  0  0
   12.0710   -0.9590   22.9170 C   0  0  0  0  0  0  0  0  0  0  0  0
   12.7170   -2.1050   22.1910 C   0  0  0  0  0  0  0  0  0  0  0  0
   10.9810    1.2490   24.1910 C   0  0  0  0  0  0  0  0  0  0  0  0
   12.7570    0.2610   22.9120 C   0  0  0  0  0  0  0  0  0  0  0  0
   12.1940    1.3460   23.5470 C   0  0  0  0  0  0  0  0  0  0  0  0
  1  2  2  3
  2  3  1  0
  1  4  1  0
  4  5  2  0
  4  6  1  0
  6  7  1  0
  3  8  1  0
  5  9  1  0
  6 10  2  0
  8 11  1  0
  9 12  2  0
 10 12  1  0
 11 13  1  0
 13 14  1  0
 14 15  1  0
 15 16  1  0
 16 17  1  0
 17 18  2  0
 17 19  1  0
 19 20  1  0
 18 21  1  0
 19 22  2  0
 21 23  2  0
 22 23  1  0
M  END
