x0426_1-x1334_1-x1386_1-x0831_1-x1374_1-x1334_0-x0692_1-x0770_1-x0397_0-x0831_0-x1412_1-x1385_1-x0434_2
     RDKit          3D

 45 51  0  0  0  0  0  0  0  0999 V2000
    1.9100   -6.7190   24.4360 O   0  0  0  0  0  0  0  0  0  0  0  0
    2.7360   -7.6360   23.7420 C   0  0  0  0  0  0  0  0  0  0  0  0
    3.7960   -8.0700   24.5890 O   0  0  0  0  0  0  0  0  0  0  0  0
    4.7970   -7.0750   24.7900 C   0  0  0  0  0  0  0  0  0  0  0  0
    4.5550   -5.9720   23.9760 C   0  0  0  0  0  0  0  0  0  0  0  0
    5.7790   -5.7310   23.1620 C   0  0  2  0  0  0  0  0  0  0  0  0
    5.7450   -4.6540   22.2200 C   0  0  2  0  0  0  0  0  0  0  0  0
    5.9770   -6.2560   21.8590 C   0  0  0  0  0  0  0  0  0  0  0  0
    6.8210   -3.6450   22.0610 C   0  0  1  0  0  0  0  0  0  0  0  0
    6.7030   -2.6210   21.0070 N   0  0  0  0  0  0  0  0  0  0  0  0
    7.1990   -3.1490   23.4370 C   0  0  0  0  0  0  0  0  0  0  0  0
    6.4320   -3.2490   19.7910 C   0  0  0  0  0  0  0  0  0  0  0  0
    8.2440   -2.3440   23.4300 N   0  0  0  0  0  0  0  0  0  0  0  0
    7.9390   -1.7760   20.9700 C   0  0  1  0  0  0  0  0  0  0  0  0
    7.3910   -3.0030   18.6250 C   0  0  0  0  0  0  0  0  0  0  0  0
    5.4690   -4.0240   19.6620 O   0  0  0  0  0  0  0  0  0  0  0  0
    9.2110   -2.5120   24.4990 C   0  0  2  0  0  0  0  0  0  0  0  0
    7.6690   -0.4430   20.9160 N   0  0  0  0  0  0  0  0  0  0  0  0
    8.8510   -2.1800   22.1020 C   0  0  0  0  0  0  0  0  0  0  0  0
   10.5750   -2.4600   23.9200 C   0  0  0  0  0  0  0  0  0  0  0  0
    7.3180    0.2430   22.2050 C   0  0  0  0  0  0  0  0  0  0  0  0
    6.7670    0.1420   19.9250 C   0  0  0  0  0  0  0  0  0  0  0  0
    9.0150   -3.6570   25.4410 C   0  0  0  0  0  0  0  0  0  0  0  0
    5.8100    0.4690   22.1060 C   0  0  2  0  0  0  0  0  0  0  0  0
    6.6900    0.3080   18.5970 N   0  0  0  0  0  0  0  0  0  0  0  0
    5.6190    0.7360   20.6190 C   0  0  0  0  0  0  0  0  0  0  0  0
    9.8210   -4.9870   25.5530 C   0  0  0  0  0  0  0  0  0  0  0  0
    7.8230   -3.6370   26.6050 S   0  0  0  0  0  0  0  0  0  0  0  0
   11.1610   -1.1050   23.7250 C   0  0  0  0  0  0  0  0  0  0  0  0
    5.2290    1.6100   22.8960 C   0  0  0  0  0  0  0  0  0  0  0  0
    4.5740    1.4150   20.0610 C   0  0  0  0  0  0  0  0  0  0  0  0
    5.5380    1.0620   18.0540 C   0  0  0  0  0  0  0  0  0  0  0  0
    9.4070   -5.7900   26.5470 C   0  0  0  0  0  0  0  0  0  0  0  0
    8.2320   -5.1460   27.2930 C   0  0  0  0  0  0  0  0  0  0  0  0
   10.5460    0.0080   24.2780 C   0  0  0  0  0  0  0  0  0  0  0  0
   12.4200   -0.8590   22.9360 C   0  0  0  0  0  0  0  0  0  0  0  0
    3.7370    1.7080   22.5260 C   0  0  2  0  0  0  0  0  0  0  0  0
    3.5140    1.9350   21.0110 C   0  0  0  0  0  0  0  0  0  0  0  0
    7.2970   -5.6460   28.6360 Cl  0  0  0  0  0  0  0  0  0  0  0  0
   13.1860   -1.9320   22.2620 C   0  0  0  0  0  0  0  0  0  0  0  0
    4.4090    1.6950   18.5400 C   0  0  0  0  0  0  0  0  0  0  0  0
   10.9990    1.3120   24.1590 C   0  0  0  0  0  0  0  0  0  0  0  0
   12.8790    0.5660   22.8520 C   0  0  0  0  0  0  0  0  0  0  0  0
    3.1970    2.6350   23.2280 N   0  0  0  0  0  0  0  0  0  0  0  0
   12.1900    1.6230   23.4390 C   0  0  0  0  0  0  0  0  0  0  0  0
  1  2  1  0
  2  3  1  0
  3  4  1  0
  4  5  1  0
  6  5  1  6
  6  7  1  0
  6  8  1  0
  7  8  1  6
  7  9  1  0
  9 10  1  0
  9 11  1  1
 10 12  1  0
 11 13  1  0
 10 14  1  0
 12 15  1  0
 12 16  2  0
 13 17  1  0
 14 18  1  1
 13 19  1  0
 14 19  1  0
 17 20  1  6
 18 21  1  0
 18 22  1  0
 17 23  1  0
 24 21  1  6
 22 25  2  0
 22 26  1  0
 24 26  1  0
 23 27  2  0
 23 28  1  0
 20 29  1  0
 24 30  1  0
 26 31  2  0
 25 32  1  0
 27 33  1  0
 28 34  1  0
 33 34  2  0
 29 35  2  0
 29 36  1  0
 30 37  1  0
 31 38  1  0
 37 38  1  0
 34 39  1  0
 36 40  1  0
 31 41  1  0
 32 41  2  0
 35 42  1  0
 36 43  2  0
 37 44  1  1
 42 45  2  0
 43 45  1  0
M  END
