x0426_1-x0831_0-x1334_0-x0689_0-x1334_1-x1412_1
     RDKit          3D

 46 51  0  0  0  0  0  0  0  0999 V2000
    6.3840   -3.3720   19.8790 C   0  0  0  0  0  0  0  0  0  0  0  0
    7.3420   -3.0250   18.7470 C   0  0  0  0  0  0  0  0  0  0  0  0
    5.4260   -4.1390   19.7370 O   0  0  0  0  0  0  0  0  0  0  0  0
    6.6760   -2.7840   21.1050 N   0  0  0  0  0  0  0  0  0  0  0  0
    7.5120   -1.5610   21.1810 C   0  0  2  0  0  0  0  0  0  0  0  0
    6.6890   -3.7010   22.2700 C   0  0  2  0  0  0  0  0  0  0  0  0
    5.3150   -3.6910   22.9790 C   0  0  0  0  0  0  0  0  0  0  0  0
    8.9210   -1.9330   21.5740 C   0  0  0  0  0  0  0  0  0  0  0  0
    7.9260   -3.6540   23.0120 C   0  0  0  0  0  0  0  0  0  0  0  0
    6.9720   -0.5550   22.2140 C   0  0  0  0  0  0  0  0  0  0  0  0
    4.9290   -5.0810   23.6140 C   0  0  0  0  0  0  0  0  0  0  0  0
    8.8010   -2.4800   22.8620 N   0  0  0  0  0  0  0  0  0  0  0  0
    5.6750    0.1090   21.7730 C   0  0  1  0  0  0  0  0  0  0  0  0
    4.5020   -5.0290   25.3450 S   0  0  0  0  0  0  0  0  0  0  0  0
    9.6300   -2.0270   23.9300 C   0  0  1  0  0  0  0  0  0  0  0  0
    5.5920    1.2840   22.4220 C   0  0  0  0  0  0  0  0  0  0  0  0
    5.6560    0.5090   20.3280 C   0  0  0  0  0  0  0  0  0  0  0  0
    3.7980   -6.3940   25.7880 O   0  0  0  0  0  0  0  0  0  0  0  0
    5.7860   -4.6370   26.3070 O   0  0  0  0  0  0  0  0  0  0  0  0
   10.4460   -3.2180   24.3530 C   0  0  0  0  0  0  0  0  0  0  0  0
    3.3080   -3.8340   25.5100 C   0  0  0  0  0  0  0  0  0  0  0  0
   10.5710   -0.8040   23.6960 C   0  0  0  0  0  0  0  0  0  0  0  0
    4.1450    1.8300   22.3680 C   0  0  1  0  0  0  0  0  0  0  0  0
    4.5410    1.4430   19.9870 C   0  0  0  0  0  0  0  0  0  0  0  0
    6.5160    0.1270   19.3560 C   0  0  0  0  0  0  0  0  0  0  0  0
    3.8030   -2.2550   25.9850 S   0  0  0  0  0  0  0  0  0  0  0  0
    1.8130   -3.9100   25.3070 C   0  0  0  0  0  0  0  0  0  0  0  0
   10.1110    0.4530   24.0810 C   0  0  0  0  0  0  0  0  0  0  0  0
   11.8490   -0.9120   23.1300 C   0  0  0  0  0  0  0  0  0  0  0  0
    9.6790   -4.1020   25.2960 C   0  0  0  0  0  0  0  0  0  0  0  0
    4.0770    3.1310   23.0410 N   0  0  0  0  0  0  0  0  0  0  0  0
    3.5490    1.8720   21.0830 C   0  0  0  0  0  0  0  0  0  0  0  0
    4.4080    1.9560   18.5650 C   0  0  0  0  0  0  0  0  0  0  0  0
    6.4700    0.5240   18.0660 N   0  0  0  0  0  0  0  0  0  0  0  0
   12.4490   -2.2040   22.6660 C   0  0  0  0  0  0  0  0  0  0  0  0
    2.2030   -1.6360   25.9580 C   0  0  0  0  0  0  0  0  0  0  0  0
    1.1760   -2.5620   25.5890 C   0  0  0  0  0  0  0  0  0  0  0  0
   10.9150    1.5710   23.9140 C   0  0  0  0  0  0  0  0  0  0  0  0
   12.6500    0.2100   22.9660 C   0  0  0  0  0  0  0  0  0  0  0  0
   10.0390   -5.5620   25.5140 C   0  0  0  0  0  0  0  0  0  0  0  0
    8.3240   -3.6560   26.2760 S   0  0  0  0  0  0  0  0  0  0  0  0
    5.5020    1.3720   17.7070 C   0  0  0  0  0  0  0  0  0  0  0  0
   12.1830    1.4540   23.3590 C   0  0  0  0  0  0  0  0  0  0  0  0
    9.1290   -6.1470   26.5460 C   0  0  0  0  0  0  0  0  0  0  0  0
    8.1440   -5.1630   27.0460 C   0  0  0  0  0  0  0  0  0  0  0  0
    6.9580   -5.4540   28.2440 Cl  0  0  0  0  0  0  0  0  0  0  0  0
  1  2  1  0
  1  3  2  0
  1  4  1  0
  4  5  1  0
  4  6  1  0
  6  7  1  1
  5  8  1  0
  6  9  1  0
  5 10  1  1
  7 11  1  0
  8 12  1  0
  9 12  1  0
 13 10  1  1
 14 11  1  0
 12 15  1  0
 13 16  1  0
 13 17  1  0
 14 18  2  0
 14 19  2  0
 15 20  1  6
 14 21  1  0
 15 22  1  0
 16 23  1  0
 17 24  2  0
 17 25  1  0
 21 26  1  0
 21 27  2  0
 22 28  2  0
 22 29  1  0
 20 30  1  0
 23 31  1  6
 23 32  1  0
 24 32  1  0
 24 33  1  0
 25 34  2  0
 29 35  1  0
 26 36  1  0
 27 37  1  0
 36 37  2  0
 28 38  1  0
 29 39  2  0
 30 40  2  0
 30 41  1  0
 33 42  2  0
 34 42  1  0
 38 43  2  0
 39 43  1  0
 40 44  1  0
 41 45  1  0
 44 45  2  0
 45 46  1  0
M  END
