x0426_1-x1385_1-x0770_1-x1418_1-x1386_1-x1334_1-x0831_1-x1334_0-x1374_1-x0692_1-x1412_1-x0831_0-x0434_2-x1375_1-x0397_0
     RDKit          3D

 44 49  0  0  0  0  0  0  0  0999 V2000
    1.9870   -6.7290   24.4020 O   0  0  0  0  0  0  0  0  0  0  0  0
    3.0110   -7.3730   23.6710 C   0  0  0  0  0  0  0  0  0  0  0  0
    4.0870   -7.7890   24.5080 O   0  0  0  0  0  0  0  0  0  0  0  0
    5.3090   -7.2700   24.1890 C   0  0  0  0  0  0  0  0  0  0  0  0
    5.2520   -5.9370   24.1140 C   0  0  0  0  0  0  0  0  0  0  0  0
    6.0230   -5.4030   22.9480 C   0  0  2  0  0  0  0  0  0  0  0  0
    5.7290   -4.3020   22.2780 C   0  0  2  0  0  0  0  0  0  0  0  0
    5.7770   -5.8510   21.6510 C   0  0  0  0  0  0  0  0  0  0  0  0
    6.8770   -3.3190   22.0730 C   0  0  2  0  0  0  0  0  0  0  0  0
    7.3610   -2.8970   23.4440 C   0  0  0  0  0  0  0  0  0  0  0  0
    6.7790   -2.2640   21.1210 C   0  0  1  0  0  0  0  0  0  0  0  0
    6.5320   -3.0760   19.7970 C   0  0  0  0  0  0  0  0  0  0  0  0
    5.8170   -1.0130   21.4210 C   0  0  2  0  0  0  0  0  0  0  0  0
    8.6980   -2.3500   23.2560 N   0  0  0  0  0  0  0  0  0  0  0  0
    8.0770   -1.6550   21.0700 C   0  0  0  0  0  0  0  0  0  0  0  0
    7.4870   -2.9430   18.6320 C   0  0  0  0  0  0  0  0  0  0  0  0
    5.5950   -3.9030   19.6730 O   0  0  0  0  0  0  0  0  0  0  0  0
    4.7170   -0.9760   22.4760 C   0  0  0  0  0  0  0  0  0  0  0  0
    9.6390   -3.2720   23.8890 C   0  0  1  0  0  0  0  0  0  0  0  0
    9.0500   -2.2890   21.8170 C   0  0  0  0  0  0  0  0  0  0  0  0
    5.5520   -0.1030   20.2050 C   0  0  0  0  0  0  0  0  0  0  0  0
    4.7150    0.3770   23.2290 C   0  0  0  0  0  0  0  0  0  0  0  0
   10.8860   -2.5380   24.4170 C   0  0  0  0  0  0  0  0  0  0  0  0
    4.4720    0.8350   20.1110 C   0  0  0  0  0  0  0  0  0  0  0  0
    6.4130   -0.1850   19.1210 C   0  0  0  0  0  0  0  0  0  0  0  0
    9.1840   -4.0190   25.1090 C   0  0  0  0  0  0  0  0  0  0  0  0
    3.7700    1.4410   22.6340 C   0  0  2  0  0  0  0  0  0  0  0  0
    3.4270    1.0510   21.1910 C   0  0  0  0  0  0  0  0  0  0  0  0
    4.4060    1.5710   18.9240 C   0  0  0  0  0  0  0  0  0  0  0  0
    6.3550    0.5630   17.8860 N   0  0  0  0  0  0  0  0  0  0  0  0
    9.8440   -5.1980   25.4350 C   0  0  0  0  0  0  0  0  0  0  0  0
    7.9360   -3.6970   26.2720 S   0  0  0  0  0  0  0  0  0  0  0  0
   11.1910   -1.0810   24.0820 C   0  0  0  0  0  0  0  0  0  0  0  0
    4.2370    2.7980   22.8080 N   0  0  0  0  0  0  0  0  0  0  0  0
    5.3360    1.4170   17.8580 C   0  0  0  0  0  0  0  0  0  0  0  0
    9.4100   -5.8220   26.5470 C   0  0  0  0  0  0  0  0  0  0  0  0
    8.2700   -5.0760   27.1880 C   0  0  0  0  0  0  0  0  0  0  0  0
   10.4480   -0.0210   24.5730 C   0  0  0  0  0  0  0  0  0  0  0  0
   12.3030   -0.8490   23.2310 C   0  0  0  0  0  0  0  0  0  0  0  0
    7.3620   -5.4250   28.5910 Cl  0  0  0  0  0  0  0  0  0  0  0  0
   13.1170   -1.9650   22.6620 C   0  0  0  0  0  0  0  0  0  0  0  0
   10.8710    1.4130   24.1760 C   0  0  0  0  0  0  0  0  0  0  0  0
   12.6530    0.4510   22.9130 C   0  0  0  0  0  0  0  0  0  0  0  0
   11.9700    1.5600   23.3610 C   0  0  0  0  0  0  0  0  0  0  0  0
  1  2  1  0
  2  3  1  0
  3  4  1  0
  4  5  1  0
  6  5  1  1
  6  7  1  0
  6  8  1  0
  7  8  1  6
  7  9  1  0
  9 10  1  1
  9 11  1  0
 11 12  1  6
 11 13  1  0
 10 14  1  0
 11 15  1  0
 12 16  1  0
 12 17  2  0
 13 18  1  6
 14 19  1  0
 14 20  1  0
 15 20  1  0
 13 21  1  0
 18 22  1  0
 19 23  1  1
 21 24  2  0
 21 25  1  0
 19 26  1  0
 22 27  1  0
 24 28  1  0
 27 28  1  0
 24 29  1  0
 25 30  2  0
 26 31  2  0
 26 32  1  0
 23 33  1  0
 27 34  1  6
 29 35  2  0
 30 35  1  0
 31 36  1  0
 32 37  1  0
 36 37  2  0
 33 38  2  0
 33 39  1  0
 37 40  1  0
 39 41  1  0
 38 42  1  0
 39 43  2  0
 42 44  2  0
 43 44  1  0
M  END
