x0426_1-x0831_0-x0692_1-x0434_2-x1374_1-x1334_1-x0770_1-x1418_1-x0831_1-x1334_0-x0397_0-x1385_1-x1412_1-x1386_1
     RDKit          3D

 44 49  0  0  0  0  0  0  0  0999 V2000
    2.1190   -7.3550   23.8490 O   0  0  0  0  0  0  0  0  0  0  0  0
    3.4340   -6.8970   23.6290 C   0  0  0  0  0  0  0  0  0  0  0  0
    4.3700   -7.5560   24.4640 O   0  0  0  0  0  0  0  0  0  0  0  0
    5.4110   -6.6740   24.9220 C   0  0  0  0  0  0  0  0  0  0  0  0
    5.5510   -5.5320   24.1490 C   0  0  0  0  0  0  0  0  0  0  0  0
    6.2300   -5.7670   22.8230 C   0  0  2  0  0  0  0  0  0  0  0  0
    6.7480   -4.8600   21.9770 C   0  0  1  0  0  0  0  0  0  0  0  0
    5.5140   -5.9270   21.7330 C   0  0  0  0  0  0  0  0  0  0  0  0
    6.5030   -3.3720   22.3200 C   0  0  2  0  0  0  0  0  0  0  0  0
    6.4320   -2.5630   21.0620 N   0  0  0  0  0  0  0  0  0  0  0  0
    7.3610   -2.9350   23.3590 C   0  0  0  0  0  0  0  0  0  0  0  0
    6.2370   -3.2510   19.8560 C   0  0  0  0  0  0  0  0  0  0  0  0
    8.3680   -1.8970   23.0500 N   0  0  0  0  0  0  0  0  0  0  0  0
    7.4940   -1.5600   20.9840 C   0  0  1  0  0  0  0  0  0  0  0  0
    5.3610   -4.1290   19.7200 O   0  0  0  0  0  0  0  0  0  0  0  0
    7.1550   -2.9580   18.6920 C   0  0  0  0  0  0  0  0  0  0  0  0
    9.5390   -1.9820   23.8840 C   0  0  1  0  0  0  0  0  0  0  0  0
    7.2210   -0.2840   21.7300 C   0  0  0  0  0  0  0  0  0  0  0  0
    8.7350   -1.9970   21.6540 C   0  0  0  0  0  0  0  0  0  0  0  0
    5.7580    0.0760   21.6690 C   0  0  1  0  0  0  0  0  0  0  0  0
   10.0130   -3.3980   23.8900 C   0  0  0  0  0  0  0  0  0  0  0  0
   10.5580   -0.8360   23.6460 C   0  0  0  0  0  0  0  0  0  0  0  0
    5.2830    1.2230   22.5330 C   0  0  0  0  0  0  0  0  0  0  0  0
    5.5890    0.5730   20.2540 C   0  0  0  0  0  0  0  0  0  0  0  0
   10.1480    0.4840   24.2660 C   0  0  0  0  0  0  0  0  0  0  0  0
   11.8050   -0.9190   22.9120 C   0  0  0  0  0  0  0  0  0  0  0  0
    9.5100   -4.2110   25.0320 C   0  0  0  0  0  0  0  0  0  0  0  0
    3.7970    1.4760   22.4310 C   0  0  1  0  0  0  0  0  0  0  0  0
   12.2550   -2.1800   22.2670 C   0  0  0  0  0  0  0  0  0  0  0  0
    4.4940    1.3960   19.9410 C   0  0  0  0  0  0  0  0  0  0  0  0
    6.5080    0.2430   19.2310 C   0  0  0  0  0  0  0  0  0  0  0  0
   10.9330    1.6090   24.1440 C   0  0  0  0  0  0  0  0  0  0  0  0
   12.6830    0.1370   22.7380 C   0  0  0  0  0  0  0  0  0  0  0  0
    9.9920   -5.3590   25.4210 C   0  0  0  0  0  0  0  0  0  0  0  0
    8.2030   -3.7250   26.0460 S   0  0  0  0  0  0  0  0  0  0  0  0
    3.3750    2.5200   23.3480 N   0  0  0  0  0  0  0  0  0  0  0  0
    3.4500    1.7890   20.9700 C   0  0  0  0  0  0  0  0  0  0  0  0
    4.4150    1.8530   18.5940 C   0  0  0  0  0  0  0  0  0  0  0  0
    6.4130    0.7000   17.8720 N   0  0  0  0  0  0  0  0  0  0  0  0
   12.2280    1.4470   23.3740 C   0  0  0  0  0  0  0  0  0  0  0  0
    9.4100   -5.8900   26.5100 C   0  0  0  0  0  0  0  0  0  0  0  0
    8.3800   -5.1130   27.0110 C   0  0  0  0  0  0  0  0  0  0  0  0
    7.3690   -5.3760   28.3730 Cl  0  0  0  0  0  0  0  0  0  0  0  0
    5.2980    1.5330   17.6580 C   0  0  0  0  0  0  0  0  0  0  0  0
  1  2  1  0
  2  3  1  0
  3  4  1  0
  4  5  1  0
  6  5  1  1
  6  7  1  0
  6  8  1  0
  7  8  1  6
  7  9  1  0
  9 10  1  0
  9 11  1  1
 10 12  1  0
 11 13  1  0
 10 14  1  0
 12 15  2  0
 12 16  1  0
 13 17  1  0
 14 18  1  1
 13 19  1  0
 14 19  1  0
 20 18  1  1
 17 21  1  6
 17 22  1  0
 20 23  1  0
 20 24  1  0
 22 25  2  0
 22 26  1  0
 21 27  1  0
 23 28  1  0
 26 29  1  0
 24 30  2  0
 24 31  1  0
 25 32  1  0
 26 33  2  0
 27 34  2  0
 27 35  1  0
 28 36  1  1
 28 37  1  0
 30 37  1  0
 30 38  1  0
 31 39  2  0
 32 40  2  0
 33 40  1  0
 34 41  1  0
 35 42  1  0
 41 42  2  0
 42 43  1  0
 38 44  2  0
 39 44  1  0
M  END
