x0426_1-x0981_1-x1334_1-x1418_0-x0434_2-x0831_0
     RDKit          3D

 43 47  0  0  0  0  0  0  0  0999 V2000
    4.0760   -5.8720   22.9410 C   0  0  0  0  0  0  0  0  0  0  0  0
    2.6720   -6.1420   23.4890 C   0  0  1  0  0  0  0  0  0  0  0  0
    2.3430   -7.4090   22.8370 N   0  0  0  0  0  0  0  0  0  0  0  0
    4.8830   -4.6710   23.0000 N   0  0  0  0  0  0  0  0  0  0  0  0
    2.6630   -6.3010   25.0110 C   0  0  0  0  0  0  0  0  0  0  0  0
    6.1510   -4.8560   22.3160 C   0  0  0  0  0  0  0  0  0  0  0  0
    1.2130   -7.5020   22.0700 C   0  0  0  0  0  0  0  0  0  0  0  0
    3.1040   -7.6770   25.3530 C   0  0  0  0  0  0  0  0  0  0  0  0
    6.8550   -3.5020   22.3760 C   0  0  2  0  0  0  0  0  0  0  0  0
    1.1400   -8.7560   21.2360 C   0  0  0  0  0  0  0  0  0  0  0  0
    0.3430   -6.6420   22.0450 O   0  0  0  0  0  0  0  0  0  0  0  0
    2.5530   -8.3250   26.3990 N   0  0  0  0  0  0  0  0  0  0  0  0
    3.9570   -8.2190   24.6880 O   0  0  0  0  0  0  0  0  0  0  0  0
    6.6600   -2.6390   21.1580 N   0  0  0  0  0  0  0  0  0  0  0  0
    8.1130   -3.5630   22.9040 C   0  0  0  0  0  0  0  0  0  0  0  0
    6.4290   -3.2640   19.9270 C   0  0  0  0  0  0  0  0  0  0  0  0
    8.9450   -2.3170   22.9310 N   0  0  0  0  0  0  0  0  0  0  0  0
    7.3940   -1.4060   21.3780 C   0  0  2  0  0  0  0  0  0  0  0  0
    7.3510   -2.9820   18.7710 C   0  0  0  0  0  0  0  0  0  0  0  0
    5.4920   -4.0770   19.7420 O   0  0  0  0  0  0  0  0  0  0  0  0
   10.3760   -2.4850   23.1560 C   0  0  2  0  0  0  0  0  0  0  0  0
    7.4650   -0.3230   20.6140 N   0  0  0  0  0  0  0  0  0  0  0  0
    8.8650   -1.6770   21.6470 C   0  0  0  0  0  0  0  0  0  0  0  0
   10.8320   -3.2740   24.2980 C   0  0  0  0  0  0  0  0  0  0  0  0
    7.5220    0.8000   21.5260 C   0  0  0  0  0  0  0  0  0  0  0  0
    6.5250    0.1590   19.7800 C   0  0  0  0  0  0  0  0  0  0  0  0
   10.8880   -1.0980   23.3500 C   0  0  0  0  0  0  0  0  0  0  0  0
    6.0190    0.9270   21.9680 C   0  0  2  0  0  0  0  0  0  0  0  0
    6.3660    0.0490   18.4420 N   0  0  0  0  0  0  0  0  0  0  0  0
    5.6070    0.8960   20.5070 C   0  0  0  0  0  0  0  0  0  0  0  0
   10.1220    0.0290   24.1030 C   0  0  0  0  0  0  0  0  0  0  0  0
   12.1570   -0.8180   22.7980 C   0  0  0  0  0  0  0  0  0  0  0  0
    5.6020    2.1530   22.5580 C   0  0  0  0  0  0  0  0  0  0  0  0
   12.9230   -1.8770   22.0580 C   0  0  0  0  0  0  0  0  0  0  0  0
    4.5120    1.5150   19.9850 C   0  0  0  0  0  0  0  0  0  0  0  0
    5.2660    0.7050   17.9820 C   0  0  0  0  0  0  0  0  0  0  0  0
   10.8590    1.3780   24.1510 C   0  0  0  0  0  0  0  0  0  0  0  0
   12.7840    0.4120   22.8760 C   0  0  0  0  0  0  0  0  0  0  0  0
    4.1160    2.5720   22.2840 C   0  0  1  0  0  0  0  0  0  0  0  0
    3.5850    2.2560   20.8700 C   0  0  0  0  0  0  0  0  0  0  0  0
    4.3230    1.4350   18.6930 C   0  0  0  0  0  0  0  0  0  0  0  0
   12.2000    1.4960   23.5110 C   0  0  0  0  0  0  0  0  0  0  0  0
    3.2530    1.9910   23.3160 N   0  0  0  0  0  0  0  0  0  0  0  0
  2  1  1  6
  2  3  1  0
  1  4  2  3
  2  5  1  0
  4  6  1  0
  3  7  1  0
  5  8  1  0
  9  6  1  6
  7 10  1  0
  7 11  2  0
  8 12  1  0
  8 13  2  0
  9 14  1  0
  9 15  1  0
 14 16  1  0
 15 17  1  0
 14 18  1  0
 16 19  1  0
 16 20  2  0
 17 21  1  0
 18 22  1  6
 17 23  1  0
 18 23  1  0
 21 24  1  1
 22 25  1  0
 22 26  1  0
 21 27  1  0
 28 25  1  6
 26 29  2  0
 26 30  1  0
 28 30  1  0
 27 31  2  0
 27 32  1  0
 28 33  1  0
 32 34  1  0
 30 35  2  0
 29 36  1  0
 31 37  1  0
 32 38  2  0
 33 39  1  0
 35 40  1  0
 39 40  1  0
 35 41  1  0
 36 41  2  0
 37 42  2  0
 38 42  1  0
 39 43  1  1
M  END
