x0426_1-x0770_1-x0397_0-x0831_0-x1334_1-x0692_1-x1375_1
     RDKit          3D

 35 39  0  0  0  0  0  0  0  0999 V2000
    2.2650   -7.2520   24.2780 O   0  0  0  0  0  0  0  0  0  0  0  0
    3.3220   -7.2630   25.2110 C   0  0  0  0  0  0  0  0  0  0  0  0
    4.5600   -7.3550   24.5370 O   0  0  0  0  0  0  0  0  0  0  0  0
    5.1860   -6.0380   24.5420 C   0  0  0  0  0  0  0  0  0  0  0  0
    6.0320   -5.7320   23.3230 C   0  0  2  0  0  0  0  0  0  0  0  0
    5.7640   -4.8120   22.4930 C   0  0  2  0  0  0  0  0  0  0  0  0
    5.7850   -6.2960   22.0200 C   0  0  0  0  0  0  0  0  0  0  0  0
    6.9040   -3.7340   22.2230 C   0  0  1  0  0  0  0  0  0  0  0  0
    6.3970   -2.7590   21.2340 N   0  0  0  0  0  0  0  0  0  0  0  0
    7.5120   -3.2260   23.3470 C   0  0  0  0  0  0  0  0  0  0  0  0
    6.1540   -3.4030   19.9820 C   0  0  0  0  0  0  0  0  0  0  0  0
    8.4410   -2.0980   23.1690 N   0  0  0  0  0  0  0  0  0  0  0  0
    7.0890   -1.5730   21.1720 C   0  0  1  0  0  0  0  0  0  0  0  0
    7.1360   -3.0040   18.8790 C   0  0  0  0  0  0  0  0  0  0  0  0
    5.2720   -4.2420   19.7840 O   0  0  0  0  0  0  0  0  0  0  0  0
    6.2690   -0.2760   21.4890 C   0  0  2  0  0  0  0  0  0  0  0  0
    9.8320   -2.3130   23.5790 C   0  0  0  0  0  0  0  0  0  0  0  0
    8.4810   -1.5860   21.8120 C   0  0  0  0  0  0  0  0  0  0  0  0
    5.0870   -0.1840   22.4660 C   0  0  0  0  0  0  0  0  0  0  0  0
    5.9200    0.3440   20.1550 C   0  0  0  0  0  0  0  0  0  0  0  0
   10.6520   -1.0390   23.5750 C   0  0  0  0  0  0  0  0  0  0  0  0
    4.5250    1.2600   22.5030 C   0  0  2  0  0  0  0  0  0  0  0  0
    4.7440    1.1300   20.0270 C   0  0  0  0  0  0  0  0  0  0  0  0
    6.7700    0.1330   19.0570 C   0  0  0  0  0  0  0  0  0  0  0  0
   10.1890    0.1900   24.1840 C   0  0  0  0  0  0  0  0  0  0  0  0
   12.0330   -1.0720   22.8660 C   0  0  0  0  0  0  0  0  0  0  0  0
    3.5940    1.5340   23.5860 N   0  0  0  0  0  0  0  0  0  0  0  0
    3.7990    1.3780   21.1670 C   0  0  0  0  0  0  0  0  0  0  0  0
   12.6430   -2.2560   22.1860 C   0  0  0  0  0  0  0  0  0  0  0  0
    4.4680    1.6850   18.8060 C   0  0  0  0  0  0  0  0  0  0  0  0
    6.4850    0.7160   17.7420 N   0  0  0  0  0  0  0  0  0  0  0  0
   10.9270    1.3480   24.1520 C   0  0  0  0  0  0  0  0  0  0  0  0
   12.8280    0.2490   22.8660 C   0  0  0  0  0  0  0  0  0  0  0  0
    5.2920    1.5070   17.6770 C   0  0  0  0  0  0  0  0  0  0  0  0
   12.1700    1.4250   23.5440 C   0  0  0  0  0  0  0  0  0  0  0  0
  1  2  1  0
  2  3  1  0
  3  4  1  0
  5  4  1  1
  5  6  1  0
  5  7  1  0
  6  7  1  6
  6  8  1  0
  8  9  1  0
  8 10  1  1
  9 11  1  0
 10 12  1  0
  9 13  1  0
 11 14  1  0
 11 15  2  0
 13 16  1  0
 12 17  1  0
 12 18  1  0
 13 18  1  1
 16 19  1  6
 16 20  1  0
 17 21  1  0
 19 22  1  0
 20 23  2  0
 20 24  1  0
 21 25  2  0
 21 26  1  0
 22 27  1  1
 22 28  1  0
 23 28  1  0
 26 29  1  0
 23 30  1  0
 24 31  2  0
 25 32  1  0
 26 33  2  0
 30 34  2  0
 31 34  1  0
 32 35  2  0
 33 35  1  0
M  END
