x0426_0-x1382_1
     RDKit          3D

 22 23  0  0  0  0  0  0  0  0999 V2000
    2.1560    1.9260   23.8330 C   0  0  0  0  0  0  0  0  0  0  0  0
    2.4750    0.4950   23.7970 N   0  0  0  0  0  0  0  0  0  0  0  0
    3.5360    0.2190   22.9690 C   0  0  0  0  0  0  0  0  0  0  0  0
    1.1230    2.6850   24.5670 C   0  0  0  0  0  0  0  0  0  0  0  0
   -0.1660    2.1660   24.5620 C   0  0  0  0  0  0  0  0  0  0  0  0
    1.4690    3.8760   25.2290 C   0  0  0  0  0  0  0  0  0  0  0  0
    2.7420    4.3280   25.1970 F   0  0  0  0  0  0  0  0  0  0  0  0
    4.5450   -0.7250   23.6210 C   0  0  0  0  0  0  0  0  0  0  0  0
   -1.1970    2.8210   25.2310 C   0  0  0  0  0  0  0  0  0  0  0  0
    0.4320    4.7030   26.0070 C   0  0  0  0  0  0  0  0  0  0  0  0
    5.4180   -1.4680   22.6160 C   0  0  0  0  0  0  0  0  0  0  0  0
   -0.9730    4.1190   25.9910 C   0  0  0  0  0  0  0  0  0  0  0  0
    6.4040   -2.3760   23.3380 C   0  0  0  0  0  0  0  0  0  0  0  0
    7.6640   -1.5450   23.6680 C   0  0  0  0  0  0  0  0  0  0  0  0
    8.8920   -2.3280   23.2990 C   0  0  0  0  0  0  0  0  0  0  0  0
   10.1560   -1.5370   23.2120 C   0  0  0  0  0  0  0  0  0  0  0  0
   11.1220   -1.9490   22.3390 C   0  0  0  0  0  0  0  0  0  0  0  0
   10.4600   -0.2700   24.0440 C   0  0  0  0  0  0  0  0  0  0  0  0
   12.3040   -1.2730   22.2120 C   0  0  0  0  0  0  0  0  0  0  0  0
   11.6900    0.3490   23.8390 C   0  0  0  0  0  0  0  0  0  0  0  0
   13.3640   -1.9230   21.0910 Cl  0  0  0  0  0  0  0  0  0  0  0  0
   12.6140   -0.1400   22.9350 C   0  0  0  0  0  0  0  0  0  0  0  0
  1  2  2  3
  2  3  1  0
  1  4  1  0
  4  5  2  0
  4  6  1  0
  6  7  1  0
  3  8  1  0
  5  9  1  0
  6 10  2  0
  8 11  1  0
  9 12  2  0
 10 12  1  0
 11 13  1  0
 13 14  1  0
 14 15  1  0
 15 16  1  0
 16 17  2  0
 16 18  1  0
 17 19  1  0
 18 20  2  0
 19 21  1  0
 19 22  2  0
 20 22  1  0
M  END
