x0425_1-x0425_0
     RDKit          3D

 15 17  0  0  0  0  0  0  0  0999 V2000
    5.1950  -22.3660   -0.8470 N   0  0  0  0  0  0  0  0  0  0  0  0
    6.5110  -22.9120   -1.1140 C   0  0  0  0  0  0  0  0  0  0  0  0
    7.2880  -21.6580   -1.5170 C   0  0  0  0  0  0  0  0  0  0  0  0
    5.0320  -21.0000   -0.9490 C   0  0  0  0  0  0  0  0  0  0  0  0
    4.2170  -23.2230   -0.3020 C   0  0  0  0  0  0  0  0  0  0  0  0
    6.1750  -20.5840   -1.6520 C   0  0  1  0  0  0  0  0  0  0  0  0
    4.4790  -24.6770    0.0920 C   0  0  0  0  0  0  0  0  0  0  0  0
    2.8560  -22.6520   -0.1050 N   0  0  0  0  0  0  0  0  0  0  0  0
    6.6840  -19.2150   -1.2930 C   0  0  0  0  0  0  0  0  0  0  0  0
    5.8370  -20.4480   -3.1190 C   0  0  0  0  0  0  0  0  0  0  0  0
    3.4120  -25.5090    0.6570 N   0  0  0  0  0  0  0  0  0  0  0  0
    1.8230  -23.5220    0.4620 C   0  0  0  0  0  0  0  0  0  0  0  0
    6.5600  -19.3670   -3.5780 O   0  0  0  0  0  0  0  0  0  0  0  0
    7.4150  -18.9650   -2.5900 C   0  0  0  0  0  0  0  0  0  0  0  0
    2.1040  -24.8400    0.8080 C   0  0  0  0  0  0  0  0  0  0  0  0
  1  2  1  0
  2  3  1  0
  1  4  1  0
  1  5  1  0
  6  3  1  6
  4  6  1  0
  5  7  2  0
  5  8  1  0
  6  9  1  0
  6 10  1  0
  7 11  1  0
  8 12  2  0
 10 13  1  0
  9 14  1  0
 13 14  1  0
 11 15  2  0
 12 15  1  0
M  END
