x0426_1-x1418_1-x0397_0-x1334_1-x0831_0-x1385_1-x1334_0-x0831_1-x0692_1
     RDKit          3D

 38 43  0  0  0  0  0  0  0  0999 V2000
    6.2830   -3.2110   20.0130 C   0  0  0  0  0  0  0  0  0  0  0  0
    7.3200   -2.9240   18.9190 C   0  0  0  0  0  0  0  0  0  0  0  0
    5.3960   -4.0340   19.7190 O   0  0  0  0  0  0  0  0  0  0  0  0
    6.3260   -2.6310   21.3390 N   0  0  0  0  0  0  0  0  0  0  0  0
    6.5080   -3.4290   22.4240 C   0  0  2  0  0  0  0  0  0  0  0  0
    6.9850   -1.3580   21.7750 C   0  0  2  0  0  0  0  0  0  0  0  0
    6.4490    0.0920   21.6300 C   0  0  2  0  0  0  0  0  0  0  0  0
    8.0370   -3.6920   22.5670 C   0  0  0  0  0  0  0  0  0  0  0  0
    8.3380   -1.4220   21.5620 C   0  0  0  0  0  0  0  0  0  0  0  0
    5.6540   -4.6900   22.2490 C   0  0  0  0  0  0  0  0  0  0  0  0
    5.5150    0.4480   22.8090 C   0  0  0  0  0  0  0  0  0  0  0  0
    8.9120   -2.4890   22.4270 N   0  0  0  0  0  0  0  0  0  0  0  0
    6.1240   -5.6760   23.1190 C   0  0  0  0  0  0  0  0  0  0  0  0
    6.1250   -6.1100   21.7330 C   0  0  0  0  0  0  0  0  0  0  0  0
    5.9640    0.5700   20.2870 C   0  0  0  0  0  0  0  0  0  0  0  0
    4.1210    1.0320   22.5440 C   0  0  1  0  0  0  0  0  0  0  0  0
    9.5950   -2.1350   23.6560 C   0  0  1  0  0  0  0  0  0  0  0  0
    4.8370    1.3750   20.0880 C   0  0  0  0  0  0  0  0  0  0  0  0
    6.7890    0.1410   19.1270 C   0  0  0  0  0  0  0  0  0  0  0  0
    3.7100    2.0560   23.5220 N   0  0  0  0  0  0  0  0  0  0  0  0
    3.9730    1.8280   21.2140 C   0  0  0  0  0  0  0  0  0  0  0  0
   10.2570   -3.2930   24.3860 C   0  0  0  0  0  0  0  0  0  0  0  0
    4.5850    1.7250   18.8130 C   0  0  0  0  0  0  0  0  0  0  0  0
    6.5250    0.4950   17.8660 N   0  0  0  0  0  0  0  0  0  0  0  0
   10.4620   -0.8820   23.5670 C   0  0  0  0  0  0  0  0  0  0  0  0
    5.4540    1.2790   17.6750 C   0  0  0  0  0  0  0  0  0  0  0  0
   10.1010    0.4500   24.0020 C   0  0  0  0  0  0  0  0  0  0  0  0
   11.8680   -0.9330   22.9840 C   0  0  0  0  0  0  0  0  0  0  0  0
    9.6070   -4.1010   25.2380 C   0  0  0  0  0  0  0  0  0  0  0  0
   12.5030   -2.1740   22.4440 C   0  0  0  0  0  0  0  0  0  0  0  0
   10.8060    1.5780   23.9630 C   0  0  0  0  0  0  0  0  0  0  0  0
   12.7300    0.2860   22.9060 C   0  0  0  0  0  0  0  0  0  0  0  0
    9.9760   -5.5140   25.5540 C   0  0  0  0  0  0  0  0  0  0  0  0
    8.2450   -3.6610   26.1320 S   0  0  0  0  0  0  0  0  0  0  0  0
   12.1750    1.5630   23.4090 C   0  0  0  0  0  0  0  0  0  0  0  0
    9.2180   -6.1410   26.4660 C   0  0  0  0  0  0  0  0  0  0  0  0
    8.1380   -5.1930   26.9370 C   0  0  0  0  0  0  0  0  0  0  0  0
    6.9330   -5.5260   28.1080 Cl  0  0  0  0  0  0  0  0  0  0  0  0
  1  2  1  0
  1  3  2  0
  1  4  1  0
  4  5  1  0
  4  6  1  0
  6  7  1  0
  5  8  1  0
  6  9  1  6
  5 10  1  6
  7 11  1  1
  8 12  1  0
  9 12  1  0
 10 13  1  0
 10 14  1  0
 13 14  1  0
  7 15  1  0
 11 16  1  0
 12 17  1  0
 15 18  2  0
 15 19  1  0
 16 20  1  1
 16 21  1  0
 18 21  1  0
 17 22  1  6
 18 23  1  0
 19 24  2  0
 17 25  1  0
 23 26  2  0
 24 26  1  0
 25 27  2  0
 25 28  1  0
 22 29  1  0
 28 30  1  0
 27 31  1  0
 28 32  2  0
 29 33  2  0
 29 34  1  0
 31 35  2  0
 32 35  1  0
 33 36  1  0
 34 37  1  0
 36 37  2  0
 37 38  1  0
M  END
