x0426_1-x0770_1-x0831_0-x1412_1-x1375_1-x1334_1-x0692_1-x0434_2-x1334_0-x0397_0
     RDKit          3D

 43 48  0  0  0  0  0  0  0  0999 V2000
    2.3860   -6.8580   24.1290 O   0  0  0  0  0  0  0  0  0  0  0  0
    3.4010   -6.5200   25.0520 C   0  0  0  0  0  0  0  0  0  0  0  0
    4.6150   -7.1440   24.6860 O   0  0  0  0  0  0  0  0  0  0  0  0
    5.0610   -6.8730   23.3560 C   0  0  0  0  0  0  0  0  0  0  0  0
    5.9970   -5.7280   23.1280 C   0  0  2  0  0  0  0  0  0  0  0  0
    5.6370   -4.6260   22.4950 C   0  0  2  0  0  0  0  0  0  0  0  0
    6.6190   -5.8530   22.0490 C   0  0  0  0  0  0  0  0  0  0  0  0
    6.2290   -3.2340   22.5500 C   0  0  2  0  0  0  0  0  0  0  0  0
    6.1730   -2.5950   21.2180 N   0  0  0  0  0  0  0  0  0  0  0  0
    7.5560   -3.3650   22.9880 C   0  0  0  0  0  0  0  0  0  0  0  0
    6.1440   -3.3550   20.0210 C   0  0  0  0  0  0  0  0  0  0  0  0
    8.3300   -2.1050   22.9730 N   0  0  0  0  0  0  0  0  0  0  0  0
    6.8900   -1.3160   21.0880 C   0  0  1  0  0  0  0  0  0  0  0  0
    7.1370   -3.0100   18.9090 C   0  0  0  0  0  0  0  0  0  0  0  0
    5.3650   -4.3000   19.8350 O   0  0  0  0  0  0  0  0  0  0  0  0
    6.3730    0.0890   21.4790 C   0  0  1  0  0  0  0  0  0  0  0  0
    9.7500   -2.3160   23.1650 C   0  0  2  0  0  0  0  0  0  0  0  0
    8.2950   -1.5250   21.6360 C   0  0  0  0  0  0  0  0  0  0  0  0
    5.3300    0.2380   22.5970 C   0  0  0  0  0  0  0  0  0  0  0  0
   10.0480   -3.5790   23.9010 C   0  0  0  0  0  0  0  0  0  0  0  0
    7.5110    1.0180   21.9710 C   0  0  0  0  0  0  0  0  0  0  0  0
    5.9000    0.6150   20.2320 C   0  0  0  0  0  0  0  0  0  0  0  0
   10.4850   -1.0690   23.3700 C   0  0  0  0  0  0  0  0  0  0  0  0
    4.3610    1.4550   22.6490 C   0  0  2  0  0  0  0  0  0  0  0  0
    4.5780    1.4440   20.1370 C   0  0  0  0  0  0  0  0  0  0  0  0
    6.6690    0.3520   19.1530 C   0  0  0  0  0  0  0  0  0  0  0  0
    9.9840    0.0190   24.0730 C   0  0  0  0  0  0  0  0  0  0  0  0
   11.7900   -0.9450   22.7970 C   0  0  0  0  0  0  0  0  0  0  0  0
    9.3270   -4.1080   25.0740 C   0  0  0  0  0  0  0  0  0  0  0  0
    3.3460    1.3540   23.6740 N   0  0  0  0  0  0  0  0  0  0  0  0
    3.6710    1.7620   21.2950 C   0  0  0  0  0  0  0  0  0  0  0  0
   12.4630   -2.0230   22.0190 C   0  0  0  0  0  0  0  0  0  0  0  0
    4.3940    1.8590   18.7100 C   0  0  0  0  0  0  0  0  0  0  0  0
    6.4990    0.7380   17.7590 N   0  0  0  0  0  0  0  0  0  0  0  0
   10.8130    1.3180   24.2040 C   0  0  0  0  0  0  0  0  0  0  0  0
   12.5770    0.3140   22.9440 C   0  0  0  0  0  0  0  0  0  0  0  0
    9.8060   -5.4580   25.3830 C   0  0  0  0  0  0  0  0  0  0  0  0
    8.0240   -3.6330   26.2740 S   0  0  0  0  0  0  0  0  0  0  0  0
    5.3500    1.4980   17.5970 C   0  0  0  0  0  0  0  0  0  0  0  0
   12.0830    1.3390   23.5970 C   0  0  0  0  0  0  0  0  0  0  0  0
    9.1590   -5.9740   26.4700 C   0  0  0  0  0  0  0  0  0  0  0  0
    8.2110   -5.1680   27.0510 C   0  0  0  0  0  0  0  0  0  0  0  0
    7.2590   -5.5710   28.4170 Cl  0  0  0  0  0  0  0  0  0  0  0  0
  1  2  1  0
  2  3  1  0
  3  4  1  0
  5  4  1  6
  5  6  1  0
  5  7  1  0
  6  7  1  6
  6  8  1  0
  8  9  1  0
  8 10  1  6
  9 11  1  0
 10 12  1  0
  9 13  1  0
 11 14  1  0
 11 15  2  0
 13 16  1  0
 12 17  1  0
 12 18  1  0
 13 18  1  1
 16 19  1  0
 17 20  1  1
 16 21  1  1
 16 22  1  0
 17 23  1  0
 19 24  1  0
 22 25  2  0
 22 26  1  0
 23 27  2  0
 23 28  1  0
 20 29  1  0
 24 30  1  1
 24 31  1  0
 25 31  1  0
 28 32  1  0
 25 33  1  0
 26 34  2  0
 27 35  1  0
 28 36  2  0
 29 37  2  0
 29 38  1  0
 33 39  2  0
 34 39  1  0
 35 40  2  0
 36 40  1  0
 37 41  1  0
 38 42  1  0
 41 42  2  0
 42 43  1  0
M  END
