x0426_1-x1334_1-x0434_2-x0831_1-x0831_0-x0770_1-x1412_1-x1418_1-x0397_0-x1375_1-x1334_0-x0692_1
     RDKit          3D

 44 50  0  0  0  0  0  0  0  0999 V2000
    3.1500   -8.0480   24.4330 O   0  0  0  0  0  0  0  0  0  0  0  0
    3.5710   -7.1350   25.4160 C   0  0  0  0  0  0  0  0  0  0  0  0
    4.7890   -6.5540   25.0020 O   0  0  0  0  0  0  0  0  0  0  0  0
    4.9690   -6.6710   23.5960 C   0  0  0  0  0  0  0  0  0  0  0  0
    6.0320   -5.7660   23.0840 C   0  0  2  0  0  0  0  0  0  0  0  0
    5.7590   -4.5300   22.3830 C   0  0  2  0  0  0  0  0  0  0  0  0
    6.3960   -5.9220   21.7230 C   0  0  0  0  0  0  0  0  0  0  0  0
    6.5620   -3.2480   22.3410 C   0  0  2  0  0  0  0  0  0  0  0  0
    6.6030   -2.5350   21.0130 N   0  0  0  0  0  0  0  0  0  0  0  0
    7.9410   -3.4530   23.0380 C   0  0  0  0  0  0  0  0  0  0  0  0
    6.3890   -3.3200   19.8710 C   0  0  0  0  0  0  0  0  0  0  0  0
    8.7250   -2.3600   22.9920 N   0  0  0  0  0  0  0  0  0  0  0  0
    7.7950   -1.6670   20.7680 C   0  0  1  0  0  0  0  0  0  0  0  0
    7.3300   -3.0540   18.6850 C   0  0  0  0  0  0  0  0  0  0  0  0
    5.5120   -4.1940   19.7760 O   0  0  0  0  0  0  0  0  0  0  0  0
   10.1220   -2.4080   23.4000 C   0  0  2  0  0  0  0  0  0  0  0  0
    7.5180   -0.3710   20.8920 N   0  0  0  0  0  0  0  0  0  0  0  0
    8.9450   -2.0820   21.5960 C   0  0  0  0  0  0  0  0  0  0  0  0
   10.5680   -3.2390   24.5690 C   0  0  0  0  0  0  0  0  0  0  0  0
    7.1040    0.1470   22.2380 C   0  0  0  0  0  0  0  0  0  0  0  0
    6.6500    0.2450   19.9160 C   0  0  0  0  0  0  0  0  0  0  0  0
   10.7920   -1.0460   23.4140 C   0  0  0  0  0  0  0  0  0  0  0  0
    5.6240    0.4780   22.0810 C   0  0  2  0  0  0  0  0  0  0  0  0
    6.6200    0.4530   18.5940 N   0  0  0  0  0  0  0  0  0  0  0  0
    5.4860    0.8020   20.6010 C   0  0  0  0  0  0  0  0  0  0  0  0
   10.1190    0.2540   23.9810 C   0  0  0  0  0  0  0  0  0  0  0  0
   12.2010   -0.8790   22.8520 C   0  0  0  0  0  0  0  0  0  0  0  0
    9.7310   -4.1320   25.4180 C   0  0  0  0  0  0  0  0  0  0  0  0
    5.0930    1.6290   22.8830 C   0  0  0  0  0  0  0  0  0  0  0  0
   13.0210   -1.9560   22.2470 C   0  0  0  0  0  0  0  0  0  0  0  0
    4.4630    1.4950   20.0430 C   0  0  0  0  0  0  0  0  0  0  0  0
    5.4870    1.2220   18.0480 C   0  0  0  0  0  0  0  0  0  0  0  0
   10.6960    1.4920   24.0130 C   0  0  0  0  0  0  0  0  0  0  0  0
   12.7440    0.5550   22.9460 C   0  0  0  0  0  0  0  0  0  0  0  0
   10.0380   -5.4470   25.6930 C   0  0  0  0  0  0  0  0  0  0  0  0
    8.2560   -3.7490   26.2600 S   0  0  0  0  0  0  0  0  0  0  0  0
    3.6100    1.7860   22.5100 C   0  0  2  0  0  0  0  0  0  0  0  0
    3.3770    1.9720   20.9880 C   0  0  0  0  0  0  0  0  0  0  0  0
    4.3410    1.8360   18.5280 C   0  0  0  0  0  0  0  0  0  0  0  0
   12.1010    1.6930   23.4680 C   0  0  0  0  0  0  0  0  0  0  0  0
    9.0900   -6.1290   26.6030 C   0  0  0  0  0  0  0  0  0  0  0  0
    8.0840   -5.2990   26.9910 C   0  0  0  0  0  0  0  0  0  0  0  0
    3.1250    2.7570   23.1880 N   0  0  0  0  0  0  0  0  0  0  0  0
    6.7960   -5.6650   28.0570 Cl  0  0  0  0  0  0  0  0  0  0  0  0
  1  2  1  0
  2  3  1  0
  3  4  1  0
  5  4  1  6
  5  6  1  0
  5  7  1  0
  6  7  1  6
  6  8  1  0
  8  9  1  0
  8 10  1  6
  9 11  1  0
 10 12  1  0
  9 13  1  0
 11 14  1  0
 11 15  2  0
 12 16  1  0
 13 17  1  1
 12 18  1  0
 13 18  1  0
 16 19  1  1
 17 20  1  0
 17 21  1  0
 16 22  1  0
 23 20  1  1
 21 24  2  0
 21 25  1  0
 23 25  1  0
 22 26  2  0
 22 27  1  0
 19 28  1  0
 23 29  1  0
 27 30  1  0
 25 31  2  0
 24 32  1  0
 26 33  1  0
 27 34  2  0
 28 35  2  0
 28 36  1  0
 29 37  1  0
 31 38  1  0
 37 38  1  0
 31 39  1  0
 32 39  2  0
 33 40  2  0
 34 40  1  0
 35 41  1  0
 36 42  1  0
 41 42  2  0
 37 43  1  1
 42 44  1  0
M  END
