x0426_1-x0434_2-x0831_0-x1374_1-x1334_0-x0397_0-x1375_1-x0770_1-x1412_1-x1385_1-x0692_1-x1386_1-x1418_1-x1334_1
     RDKit          3D

 44 49  0  0  0  0  0  0  0  0999 V2000
    2.2390   -7.7770   23.3330 O   0  0  0  0  0  0  0  0  0  0  0  0
    2.4690   -8.0240   24.7050 C   0  0  0  0  0  0  0  0  0  0  0  0
    3.8580   -7.9330   24.9280 O   0  0  0  0  0  0  0  0  0  0  0  0
    4.4900   -7.1900   23.8990 C   0  0  0  0  0  0  0  0  0  0  0  0
    5.0200   -6.0090   24.3360 C   0  0  0  0  0  0  0  0  0  0  0  0
    6.0830   -5.6130   23.3610 C   0  0  2  0  0  0  0  0  0  0  0  0
    5.8820   -4.6670   22.5030 C   0  0  2  0  0  0  0  0  0  0  0  0
    6.1990   -6.1900   22.0500 C   0  0  0  0  0  0  0  0  0  0  0  0
    6.9450   -3.6890   22.1640 C   0  0  1  0  0  0  0  0  0  0  0  0
    6.3410   -2.7410   21.2240 N   0  0  0  0  0  0  0  0  0  0  0  0
    7.5200   -3.0420   23.3900 C   0  0  0  0  0  0  0  0  0  0  0  0
    6.2180   -3.3280   19.9600 C   0  0  0  0  0  0  0  0  0  0  0  0
    8.4830   -1.9770   23.1580 N   0  0  0  0  0  0  0  0  0  0  0  0
    7.0050   -1.4400   21.1330 C   0  0  1  0  0  0  0  0  0  0  0  0
    7.2220   -2.9820   18.8520 C   0  0  0  0  0  0  0  0  0  0  0  0
    5.3270   -4.1620   19.7570 O   0  0  0  0  0  0  0  0  0  0  0  0
    6.3300   -0.0890   21.5620 C   0  0  1  0  0  0  0  0  0  0  0  0
    9.9270   -2.2310   23.3340 C   0  0  2  0  0  0  0  0  0  0  0  0
    8.4320   -1.5700   21.7370 C   0  0  0  0  0  0  0  0  0  0  0  0
    5.1060   -0.1370   22.4930 C   0  0  0  0  0  0  0  0  0  0  0  0
   10.3990   -3.2070   24.4180 C   0  0  0  0  0  0  0  0  0  0  0  0
    7.4470    0.8740   22.0790 C   0  0  0  0  0  0  0  0  0  0  0  0
    5.9050    0.4890   20.2030 C   0  0  0  0  0  0  0  0  0  0  0  0
   10.7500   -0.9380   23.3670 C   0  0  0  0  0  0  0  0  0  0  0  0
    4.4580    1.2980   22.5630 C   0  0  2  0  0  0  0  0  0  0  0  0
    4.7200    1.2310   20.0410 C   0  0  0  0  0  0  0  0  0  0  0  0
    6.7520    0.2750   18.9960 C   0  0  0  0  0  0  0  0  0  0  0  0
   10.1630    0.3230   23.9230 C   0  0  0  0  0  0  0  0  0  0  0  0
   12.1440   -0.8540   22.8540 C   0  0  0  0  0  0  0  0  0  0  0  0
    9.5520   -4.0770   25.3680 C   0  0  0  0  0  0  0  0  0  0  0  0
    3.5790    1.4300   23.7030 N   0  0  0  0  0  0  0  0  0  0  0  0
    3.7850    1.4920   21.1840 C   0  0  0  0  0  0  0  0  0  0  0  0
   12.8780   -2.0230   22.2470 C   0  0  0  0  0  0  0  0  0  0  0  0
    4.4670    1.7150   18.7290 C   0  0  0  0  0  0  0  0  0  0  0  0
    6.4500    0.7790   17.6920 N   0  0  0  0  0  0  0  0  0  0  0  0
   10.9330    1.6130   23.9680 C   0  0  0  0  0  0  0  0  0  0  0  0
   12.8310    0.3680   22.9170 C   0  0  0  0  0  0  0  0  0  0  0  0
    9.9440   -5.3670   25.6230 C   0  0  0  0  0  0  0  0  0  0  0  0
    8.1200   -3.7000   26.2550 S   0  0  0  0  0  0  0  0  0  0  0  0
    5.3120    1.4750   17.6820 C   0  0  0  0  0  0  0  0  0  0  0  0
   12.2270    1.5210   23.4510 C   0  0  0  0  0  0  0  0  0  0  0  0
    9.1470   -6.0610   26.5350 C   0  0  0  0  0  0  0  0  0  0  0  0
    8.1110   -5.3260   27.0060 C   0  0  0  0  0  0  0  0  0  0  0  0
    6.9240   -5.7890   28.1470 Cl  0  0  0  0  0  0  0  0  0  0  0  0
  1  2  1  0
  2  3  1  0
  3  4  1  0
  4  5  1  0
  6  5  1  1
  6  7  1  0
  6  8  1  0
  7  8  1  6
  7  9  1  0
  9 10  1  0
  9 11  1  1
 10 12  1  0
 11 13  1  0
 10 14  1  0
 12 15  1  0
 12 16  2  0
 14 17  1  0
 13 18  1  0
 13 19  1  0
 14 19  1  1
 17 20  1  0
 18 21  1  1
 17 22  1  1
 17 23  1  0
 18 24  1  0
 20 25  1  0
 23 26  2  0
 23 27  1  0
 24 28  2  0
 24 29  1  0
 21 30  1  0
 25 31  1  1
 25 32  1  0
 26 32  1  0
 29 33  1  0
 26 34  1  0
 27 35  2  0
 28 36  1  0
 29 37  2  0
 30 38  2  0
 30 39  1  0
 34 40  2  0
 35 40  1  0
 36 41  2  0
 37 41  1  0
 38 42  1  0
 39 43  1  0
 42 43  2  0
 43 44  1  0
M  END
