x0426_1-x1334_0-x0770_1-x0831_1-x0397_0-x1385_1-x1412_1-x1334_1-x0692_1-x1418_1-x1374_1-x0831_0
     RDKit          3D

 43 48  0  0  0  0  0  0  0  0999 V2000
    2.1280   -7.8280   23.3040 O   0  0  0  0  0  0  0  0  0  0  0  0
    2.3500   -8.1770   24.6570 C   0  0  0  0  0  0  0  0  0  0  0  0
    3.7210   -8.0490   24.9440 O   0  0  0  0  0  0  0  0  0  0  0  0
    4.3420   -7.2910   23.9270 C   0  0  0  0  0  0  0  0  0  0  0  0
    4.9250   -5.9840   24.3810 C   0  0  0  0  0  0  0  0  0  0  0  0
    5.9380   -5.6490   23.3400 C   0  0  2  0  0  0  0  0  0  0  0  0
    5.6840   -4.7590   22.4260 C   0  0  2  0  0  0  0  0  0  0  0  0
    5.9170   -6.3610   22.0890 C   0  0  0  0  0  0  0  0  0  0  0  0
    6.6830   -3.7240   22.1470 C   0  0  1  0  0  0  0  0  0  0  0  0
    6.3170   -2.7610   21.1600 N   0  0  0  0  0  0  0  0  0  0  0  0
    7.1760   -3.1750   23.4380 C   0  0  0  0  0  0  0  0  0  0  0  0
    6.1670   -3.3080   19.8970 C   0  0  0  0  0  0  0  0  0  0  0  0
    8.3770   -2.5530   23.0270 N   0  0  0  0  0  0  0  0  0  0  0  0
    6.9360   -1.4230   21.2980 C   0  0  1  0  0  0  0  0  0  0  0  0
    7.1590   -2.9840   18.7910 C   0  0  0  0  0  0  0  0  0  0  0  0
    5.2540   -4.1130   19.6700 O   0  0  0  0  0  0  0  0  0  0  0  0
    5.7780   -0.4060   21.4510 C   0  0  1  0  0  0  0  0  0  0  0  0
    9.2930   -2.5150   24.1020 C   0  0  2  0  0  0  0  0  0  0  0  0
    8.0350   -1.2800   22.4060 C   0  0  0  0  0  0  0  0  0  0  0  0
    5.7650    0.6210   22.6160 C   0  0  0  0  0  0  0  0  0  0  0  0
   10.6960   -2.3700   23.5810 C   0  0  0  0  0  0  0  0  0  0  0  0
    5.6130    0.2990   20.1330 C   0  0  0  0  0  0  0  0  0  0  0  0
    9.0810   -3.6810   25.1100 C   0  0  0  0  0  0  0  0  0  0  0  0
    4.6570    1.6970   22.5150 C   0  0  2  0  0  0  0  0  0  0  0  0
    4.6270    1.2930   20.0440 C   0  0  0  0  0  0  0  0  0  0  0  0
    6.3910   -0.0180   19.0790 C   0  0  0  0  0  0  0  0  0  0  0  0
    9.8320   -4.8160   25.2470 C   0  0  0  0  0  0  0  0  0  0  0  0
    7.7300   -3.7810   26.3850 S   0  0  0  0  0  0  0  0  0  0  0  0
   11.2130   -0.9840   23.5150 C   0  0  0  0  0  0  0  0  0  0  0  0
    3.7480    1.6450   23.6330 N   0  0  0  0  0  0  0  0  0  0  0  0
    3.8050    1.6070   21.2360 C   0  0  0  0  0  0  0  0  0  0  0  0
    4.4570    2.0140   18.6770 C   0  0  0  0  0  0  0  0  0  0  0  0
    6.3860    0.5480   17.7100 N   0  0  0  0  0  0  0  0  0  0  0  0
    9.4240   -5.8330   26.3440 C   0  0  0  0  0  0  0  0  0  0  0  0
    8.2190   -5.3600   27.0950 C   0  0  0  0  0  0  0  0  0  0  0  0
   10.4410    0.1280   24.0260 C   0  0  0  0  0  0  0  0  0  0  0  0
   12.4550   -0.7560   22.9540 C   0  0  0  0  0  0  0  0  0  0  0  0
    7.3400   -6.0380   28.3900 Cl  0  0  0  0  0  0  0  0  0  0  0  0
   13.2630   -1.8660   22.3930 C   0  0  0  0  0  0  0  0  0  0  0  0
    5.3910    1.5660   17.5690 C   0  0  0  0  0  0  0  0  0  0  0  0
   10.8860    1.3870   23.9950 C   0  0  0  0  0  0  0  0  0  0  0  0
   12.9800    0.4980   22.8880 C   0  0  0  0  0  0  0  0  0  0  0  0
   12.2330    1.5450   23.3890 C   0  0  0  0  0  0  0  0  0  0  0  0
  1  2  1  0
  2  3  1  0
  3  4  1  0
  4  5  1  0
  6  5  1  1
  6  7  1  0
  6  8  1  0
  7  8  1  6
  7  9  1  0
  9 10  1  0
  9 11  1  1
 10 12  1  0
 11 13  1  0
 10 14  1  0
 12 15  1  0
 12 16  2  0
 14 17  1  0
 13 18  1  0
 13 19  1  0
 14 19  1  1
 17 20  1  1
 18 21  1  6
 17 22  1  0
 18 23  1  0
 20 24  1  0
 22 25  2  0
 22 26  1  0
 23 27  2  0
 23 28  1  0
 21 29  1  0
 24 30  1  1
 24 31  1  0
 25 31  1  0
 25 32  1  0
 26 33  2  0
 27 34  1  0
 28 35  1  0
 34 35  2  0
 29 36  2  0
 29 37  1  0
 35 38  1  0
 37 39  1  0
 32 40  2  0
 33 40  1  0
 36 41  1  0
 37 42  2  0
 41 43  2  0
 42 43  1  0
M  END
