x0426_0-x1412_1
     RDKit          3D

 23 24  0  0  0  0  0  0  0  0999 V2000
    6.3270   -3.3920   19.9710 C   0  0  0  0  0  0  0  0  0  0  0  0
    7.2430   -3.0170   18.8200 C   0  0  0  0  0  0  0  0  0  0  0  0
    5.3970   -4.1800   19.7620 O   0  0  0  0  0  0  0  0  0  0  0  0
    6.6190   -2.8330   21.2250 N   0  0  0  0  0  0  0  0  0  0  0  0
    7.6180   -1.7550   21.4080 C   0  0  0  0  0  0  0  0  0  0  0  0
    6.2750   -3.5680   22.4600 C   0  0  1  0  0  0  0  0  0  0  0  0
    8.8420   -2.2160   22.2550 C   0  0  0  0  0  0  0  0  0  0  0  0
    7.5430   -4.0490   23.2060 C   0  0  0  0  0  0  0  0  0  0  0  0
    5.3440   -2.8360   23.4130 C   0  0  0  0  0  0  0  0  0  0  0  0
    8.4830   -2.9620   23.4810 N   0  0  0  0  0  0  0  0  0  0  0  0
    6.0530   -1.8910   24.3830 C   0  0  0  0  0  0  0  0  0  0  0  0
    5.2370   -0.8910   24.7610 C   0  0  0  0  0  0  0  0  0  0  0  0
    4.9230    0.1060   23.6670 C   0  0  0  0  0  0  0  0  0  0  0  0
    3.6250   -0.0260   23.1670 C   0  0  0  0  0  0  0  0  0  0  0  0
    2.5450    0.5720   23.9520 N   0  0  0  0  0  0  0  0  0  0  0  0
    2.2370    1.8020   23.7860 C   0  0  0  0  0  0  0  0  0  0  0  0
    1.2400    2.5260   24.4750 C   0  0  0  0  0  0  0  0  0  0  0  0
   -0.1090    2.1020   24.5450 C   0  0  0  0  0  0  0  0  0  0  0  0
    1.5620    3.8530   25.2140 C   0  0  0  0  0  0  0  0  0  0  0  0
    2.7910    4.3880   25.2410 F   0  0  0  0  0  0  0  0  0  0  0  0
   -1.2140    2.8340   25.2670 C   0  0  0  0  0  0  0  0  0  0  0  0
    0.3990    4.5540   25.9320 C   0  0  0  0  0  0  0  0  0  0  0  0
   -0.9660    3.9690   25.9050 C   0  0  0  0  0  0  0  0  0  0  0  0
  1  2  1  0
  1  3  2  0
  1  4  1  0
  4  5  1  0
  4  6  1  0
  5  7  1  0
  6  8  1  0
  6  9  1  1
  7 10  1  0
  8 10  1  0
  9 11  1  0
 11 12  1  0
 12 13  1  0
 13 14  1  0
 14 15  1  0
 15 16  2  3
 16 17  1  0
 17 18  2  0
 17 19  1  0
 19 20  1  0
 18 21  1  0
 19 22  2  0
 21 23  2  0
 22 23  1  0
M  END
