x0426_1-x1385_1-x1374_1-x0397_0-x0434_2-x1334_0-x1334_1-x0831_0-x0831_1-x0770_1-x0692_1-x1386_1-x1412_1
     RDKit          3D

 44 49  0  0  0  0  0  0  0  0999 V2000
    1.9830   -7.2160   23.6160 O   0  0  0  0  0  0  0  0  0  0  0  0
    2.4570   -7.5430   24.9140 C   0  0  0  0  0  0  0  0  0  0  0  0
    3.8440   -7.8350   24.8590 O   0  0  0  0  0  0  0  0  0  0  0  0
    4.4190   -7.1000   23.7930 C   0  0  0  0  0  0  0  0  0  0  0  0
    4.8660   -5.8840   24.2570 C   0  0  0  0  0  0  0  0  0  0  0  0
    5.8240   -5.3750   23.2350 C   0  0  2  0  0  0  0  0  0  0  0  0
    5.6030   -4.4390   22.4010 C   0  0  2  0  0  0  0  0  0  0  0  0
    5.7100   -5.9600   21.9300 C   0  0  0  0  0  0  0  0  0  0  0  0
    6.8530   -3.6470   22.0190 C   0  0  2  0  0  0  0  0  0  0  0  0
    8.2090   -3.6220   22.7490 C   0  0  0  0  0  0  0  0  0  0  0  0
    6.8560   -2.4790   21.1690 C   0  0  1  0  0  0  0  0  0  0  0  0
    6.5450   -3.1360   19.7920 C   0  0  0  0  0  0  0  0  0  0  0  0
    5.7520   -1.4060   21.3200 C   0  0  1  0  0  0  0  0  0  0  0  0
    8.2960   -2.3760   23.3990 N   0  0  0  0  0  0  0  0  0  0  0  0
    8.1550   -1.9850   21.1330 C   0  0  0  0  0  0  0  0  0  0  0  0
    7.5350   -2.9700   18.6550 C   0  0  0  0  0  0  0  0  0  0  0  0
    5.5440   -3.8660   19.6420 O   0  0  0  0  0  0  0  0  0  0  0  0
    5.9620   -0.5290   22.5830 C   0  0  0  0  0  0  0  0  0  0  0  0
    9.1270   -2.5140   24.4730 C   0  0  2  0  0  0  0  0  0  0  0  0
    8.5910   -1.4210   22.3360 C   0  0  0  0  0  0  0  0  0  0  0  0
    5.5760   -0.3830   20.1550 C   0  0  0  0  0  0  0  0  0  0  0  0
    4.7770    0.1940   23.2740 C   0  0  0  0  0  0  0  0  0  0  0  0
   10.5660   -2.5390   24.0610 C   0  0  0  0  0  0  0  0  0  0  0  0
    4.6160    0.6620   20.1340 C   0  0  0  0  0  0  0  0  0  0  0  0
    6.4730   -0.4260   18.8700 C   0  0  0  0  0  0  0  0  0  0  0  0
    8.9000   -3.6560   25.4130 C   0  0  0  0  0  0  0  0  0  0  0  0
    4.2990    1.4250   22.5070 C   0  0  1  0  0  0  0  0  0  0  0  0
    3.6360    0.9560   21.2250 C   0  0  0  0  0  0  0  0  0  0  0  0
    4.5530    1.5800   18.9130 C   0  0  0  0  0  0  0  0  0  0  0  0
    6.3930    0.4000   17.8140 N   0  0  0  0  0  0  0  0  0  0  0  0
    9.6700   -4.8130   25.3560 C   0  0  0  0  0  0  0  0  0  0  0  0
    7.7610   -3.8140   26.6560 S   0  0  0  0  0  0  0  0  0  0  0  0
   11.0870   -1.1380   23.8510 C   0  0  0  0  0  0  0  0  0  0  0  0
    3.4270    2.2590   23.3080 N   0  0  0  0  0  0  0  0  0  0  0  0
    5.4510    1.3480   17.8760 C   0  0  0  0  0  0  0  0  0  0  0  0
    9.2930   -5.7290   26.3170 C   0  0  0  0  0  0  0  0  0  0  0  0
    8.2930   -5.3710   27.1060 C   0  0  0  0  0  0  0  0  0  0  0  0
   10.3900   -0.0310   24.4280 C   0  0  0  0  0  0  0  0  0  0  0  0
   12.3620   -0.8600   23.0160 C   0  0  0  0  0  0  0  0  0  0  0  0
    7.4950   -6.1340   28.4030 Cl  0  0  0  0  0  0  0  0  0  0  0  0
   13.1100   -1.9760   22.3780 C   0  0  0  0  0  0  0  0  0  0  0  0
   10.9590    1.3720   24.1780 C   0  0  0  0  0  0  0  0  0  0  0  0
   12.8140    0.3780   22.8470 C   0  0  0  0  0  0  0  0  0  0  0  0
   12.2310    1.5300   23.3510 C   0  0  0  0  0  0  0  0  0  0  0  0
  1  2  1  0
  2  3  1  0
  3  4  1  0
  4  5  1  0
  6  5  1  1
  6  7  1  0
  6  8  1  0
  7  8  1  6
  7  9  1  0
  9 10  1  1
  9 11  1  0
 11 12  1  6
 11 13  1  0
 10 14  1  0
 11 15  1  0
 12 16  1  0
 12 17  2  0
 13 18  1  1
 14 19  1  0
 14 20  1  0
 15 20  1  0
 13 21  1  0
 18 22  1  0
 19 23  1  6
 21 24  2  0
 21 25  1  0
 19 26  1  0
 22 27  1  0
 24 28  1  0
 27 28  1  0
 24 29  1  0
 25 30  2  0
 26 31  2  0
 26 32  1  0
 23 33  1  0
 27 34  1  1
 29 35  2  0
 30 35  1  0
 31 36  1  0
 32 37  1  0
 36 37  2  0
 33 38  2  0
 33 39  1  0
 37 40  1  0
 39 41  1  0
 38 42  1  0
 39 43  2  0
 42 44  2  0
 43 44  1  0
M  END
