x0426_1-x1418_1-x0831_1-x1412_1-x1334_1-x1375_1-x0770_1-x1385_1-x1386_1-x0692_1-x0831_0-x1374_1-x0434_2-x0734_0-x0397_0
     RDKit          3D

 45 50  0  0  0  0  0  0  0  0999 V2000
    2.2090   -7.2010   23.8320 O   0  0  0  0  0  0  0  0  0  0  0  0
    3.3000   -6.4430   23.3110 C   0  0  0  0  0  0  0  0  0  0  0  0
    4.4670   -6.3910   24.3260 C   0  0  2  0  0  0  0  0  0  0  0  0
    4.3610   -7.6150   25.0490 O   0  0  0  0  0  0  0  0  0  0  0  0
    4.4880   -5.0390   24.9720 N   0  0  0  0  0  0  0  0  0  0  0  0
    5.8120   -6.5270   23.5680 C   0  0  0  0  0  0  0  0  0  0  0  0
    4.9700   -4.9090   26.1690 N   0  0  0  0  0  0  0  0  0  0  0  0
    6.2290   -5.6630   22.5100 C   0  0  2  0  0  0  0  0  0  0  0  0
    4.4980   -4.1200   27.0400 O   0  0  0  0  0  0  0  0  0  0  0  0
    6.4160   -5.1030   26.1990 C   0  0  0  0  0  0  0  0  0  0  0  0
    5.5820   -4.4210   22.5580 C   0  0  2  0  0  0  0  0  0  0  0  0
    5.4370   -5.5640   21.3460 C   0  0  0  0  0  0  0  0  0  0  0  0
    7.2030   -4.8480   25.0340 C   0  0  0  0  0  0  0  0  0  0  0  0
    7.0310   -5.5860   27.5370 C   0  0  0  0  0  0  0  0  0  0  0  0
    6.4320   -3.1780   22.3640 C   0  0  1  0  0  0  0  0  0  0  0  0
    8.7140   -5.0440   25.0050 C   0  0  0  0  0  0  0  0  0  0  0  0
    8.5780   -5.7830   27.5050 C   0  0  0  0  0  0  0  0  0  0  0  0
    7.8090   -3.4200   22.6440 C   0  0  0  0  0  0  0  0  0  0  0  0
    6.2130   -2.4520   21.1440 N   0  0  0  0  0  0  0  0  0  0  0  0
    9.4690   -5.5330   26.2640 C   0  0  0  0  0  0  0  0  0  0  0  0
    6.2150   -3.0480   19.8560 C   0  0  0  0  0  0  0  0  0  0  0  0
    8.5980   -2.1690   22.7730 N   0  0  0  0  0  0  0  0  0  0  0  0
    6.9040   -1.2020   21.5890 C   0  0  2  0  0  0  0  0  0  0  0  0
    7.2700   -2.8650   18.7730 C   0  0  0  0  0  0  0  0  0  0  0  0
    5.3030   -3.8490   19.5910 O   0  0  0  0  0  0  0  0  0  0  0  0
    6.2550    0.2150   21.5140 C   0  0  2  0  0  0  0  0  0  0  0  0
    9.9830   -2.3840   23.1490 C   0  0  0  0  0  0  0  0  0  0  0  0
    8.4060   -1.3240   21.5910 C   0  0  0  0  0  0  0  0  0  0  0  0
    5.0470    0.1870   22.2630 C   0  0  0  0  0  0  0  0  0  0  0  0
    5.9240    0.6480   20.1400 C   0  0  0  0  0  0  0  0  0  0  0  0
   10.7020   -1.0690   23.3180 C   0  0  0  0  0  0  0  0  0  0  0  0
    4.4230    1.6260   22.2610 C   0  0  2  0  0  0  0  0  0  0  0  0
    4.7110    1.4820   19.8610 C   0  0  0  0  0  0  0  0  0  0  0  0
    6.7370    0.2950   19.0900 C   0  0  0  0  0  0  0  0  0  0  0  0
   10.2120    0.0540   24.0200 C   0  0  0  0  0  0  0  0  0  0  0  0
   12.0640   -0.8720   22.7080 C   0  0  0  0  0  0  0  0  0  0  0  0
    3.3990    1.7590   23.2790 N   0  0  0  0  0  0  0  0  0  0  0  0
    3.7700    1.8950   20.9390 C   0  0  0  0  0  0  0  0  0  0  0  0
   12.7300   -1.9650   21.9250 C   0  0  0  0  0  0  0  0  0  0  0  0
    4.5190    1.8490   18.5850 C   0  0  0  0  0  0  0  0  0  0  0  0
    6.5060    0.6770   17.8280 N   0  0  0  0  0  0  0  0  0  0  0  0
   10.9850    1.2460   24.0970 C   0  0  0  0  0  0  0  0  0  0  0  0
   12.7580    0.3010   22.8270 C   0  0  0  0  0  0  0  0  0  0  0  0
    5.4160    1.4430   17.6280 C   0  0  0  0  0  0  0  0  0  0  0  0
   12.2410    1.3740   23.5090 C   0  0  0  0  0  0  0  0  0  0  0  0
  1  2  1  0
  2  3  1  0
  3  4  1  1
  3  5  1  0
  3  6  1  0
  5  7  2  3
  8  6  1  1
  7  9  1  0
  7 10  1  0
  8 11  1  0
  8 12  1  0
 11 12  1  6
 10 13  2  0
 10 14  1  0
 11 15  1  0
 13 16  1  0
 14 17  2  0
 15 18  1  6
 15 19  1  0
 16 20  2  0
 17 20  1  0
 19 21  1  0
 18 22  1  0
 19 23  1  0
 21 24  1  0
 21 25  2  0
 23 26  1  0
 22 27  1  0
 22 28  1  0
 23 28  1  6
 26 29  1  1
 26 30  1  0
 27 31  1  0
 29 32  1  0
 30 33  2  0
 30 34  1  0
 31 35  2  0
 31 36  1  0
 32 37  1  1
 32 38  1  0
 33 38  1  0
 36 39  1  0
 33 40  1  0
 34 41  2  0
 35 42  1  0
 36 43  2  0
 40 44  2  0
 41 44  1  0
 42 45  2  0
 43 45  1  0
M  CHG  2   7   1   9  -1
M  END
