x0426_1-x1386_1-x1334_1-x1374_1-x1418_1-x0831_0-x0831_1-x1385_1-x0397_0-x1334_0-x0692_1-x0770_1-x0434_2-x1375_1-x1412_1
     RDKit          3D

 45 50  0  0  0  0  0  0  0  0999 V2000
    2.2360   -6.6480   24.4650 O   0  0  0  0  0  0  0  0  0  0  0  0
    3.1590   -7.4090   23.7240 C   0  0  0  0  0  0  0  0  0  0  0  0
    4.2710   -7.7920   24.5310 O   0  0  0  0  0  0  0  0  0  0  0  0
    5.5090   -7.4800   23.8810 C   0  0  0  0  0  0  0  0  0  0  0  0
    6.0530   -6.3070   24.3550 C   0  0  0  0  0  0  0  0  0  0  0  0
    6.4090   -5.3880   23.2310 C   0  0  2  0  0  0  0  0  0  0  0  0
    5.3870   -4.9400   22.4810 C   0  0  2  0  0  0  0  0  0  0  0  0
    6.7400   -5.8120   22.0890 C   0  0  0  0  0  0  0  0  0  0  0  0
    5.3220   -3.5200   22.7580 C   0  0  0  0  0  0  0  0  0  0  0  0
    6.6030   -2.8340   22.4650 C   0  0  2  0  0  0  0  0  0  0  0  0
    6.6890   -2.3820   21.0700 N   0  0  0  0  0  0  0  0  0  0  0  0
    7.8630   -3.3620   22.8080 C   0  0  0  0  0  0  0  0  0  0  0  0
    6.4930   -3.1810   19.8970 C   0  0  0  0  0  0  0  0  0  0  0  0
    8.7650   -2.1740   22.9800 N   0  0  0  0  0  0  0  0  0  0  0  0
    7.6290   -1.2610   20.9910 C   0  0  2  0  0  0  0  0  0  0  0  0
    7.4450   -2.9740   18.7430 C   0  0  0  0  0  0  0  0  0  0  0  0
    5.5930   -4.0430   19.7690 O   0  0  0  0  0  0  0  0  0  0  0  0
   10.1620   -2.3300   23.3280 C   0  0  2  0  0  0  0  0  0  0  0  0
    8.9600   -1.7010   21.5910 C   0  0  0  0  0  0  0  0  0  0  0  0
    7.1650   -0.0610   21.8230 C   0  0  0  0  0  0  0  0  0  0  0  0
   10.5260   -3.4020   24.3220 C   0  0  0  0  0  0  0  0  0  0  0  0
   10.8580   -0.9520   23.3920 C   0  0  0  0  0  0  0  0  0  0  0  0
    5.6620    0.1770   21.6460 C   0  0  1  0  0  0  0  0  0  0  0  0
   10.2040    0.2830   23.9500 C   0  0  0  0  0  0  0  0  0  0  0  0
   12.1830   -0.8120   22.8920 C   0  0  0  0  0  0  0  0  0  0  0  0
    9.6300   -4.0160   25.3640 C   0  0  0  0  0  0  0  0  0  0  0  0
    5.2490    1.3330   22.3140 C   0  0  0  0  0  0  0  0  0  0  0  0
    5.5320    0.6150   20.2530 C   0  0  0  0  0  0  0  0  0  0  0  0
   12.9390   -1.9500   22.2930 C   0  0  0  0  0  0  0  0  0  0  0  0
   10.8120    1.5710   24.0160 C   0  0  0  0  0  0  0  0  0  0  0  0
   12.8570    0.3850   22.9140 C   0  0  0  0  0  0  0  0  0  0  0  0
   10.1450   -5.0500   25.9680 C   0  0  0  0  0  0  0  0  0  0  0  0
    8.0160   -3.6600   26.0040 S   0  0  0  0  0  0  0  0  0  0  0  0
    3.9050    1.4550   22.3180 C   0  0  1  0  0  0  0  0  0  0  0  0
    4.4940    1.4540   19.8880 C   0  0  0  0  0  0  0  0  0  0  0  0
    6.4570    0.2030   19.2900 C   0  0  0  0  0  0  0  0  0  0  0  0
   12.1020    1.6160   23.5080 C   0  0  0  0  0  0  0  0  0  0  0  0
    9.3030   -5.6080   26.9860 C   0  0  0  0  0  0  0  0  0  0  0  0
    8.0100   -4.9390   27.1800 C   0  0  0  0  0  0  0  0  0  0  0  0
    3.6040    2.2620   23.3620 N   0  0  0  0  0  0  0  0  0  0  0  0
    3.4830    1.9030   20.8950 C   0  0  0  0  0  0  0  0  0  0  0  0
    4.3990    1.8670   18.6420 C   0  0  0  0  0  0  0  0  0  0  0  0
    6.4250    0.5740   18.0040 N   0  0  0  0  0  0  0  0  0  0  0  0
    6.7500   -5.2770   28.2880 Cl  0  0  0  0  0  0  0  0  0  0  0  0
    5.4190    1.3990   17.6850 C   0  0  0  0  0  0  0  0  0  0  0  0
  1  2  1  0
  2  3  1  0
  3  4  1  0
  4  5  1  0
  6  5  1  1
  6  7  1  0
  6  8  1  0
  7  8  1  0
  7  9  1  6
 10  9  1  6
 10 11  1  0
 10 12  1  0
 11 13  1  0
 12 14  1  0
 11 15  1  0
 13 16  1  0
 13 17  2  0
 14 18  1  0
 14 19  1  0
 15 19  1  0
 15 20  1  1
 18 21  1  1
 18 22  1  0
 23 20  1  1
 22 24  2  0
 22 25  1  0
 21 26  1  0
 23 27  1  0
 23 28  1  0
 25 29  1  0
 24 30  1  0
 25 31  2  0
 26 32  2  0
 26 33  1  0
 27 34  1  0
 28 35  2  0
 28 36  1  0
 30 37  2  0
 31 37  1  0
 32 38  1  0
 33 39  1  0
 38 39  2  0
 34 40  1  1
 34 41  1  0
 35 41  1  0
 35 42  1  0
 36 43  2  0
 39 44  1  0
 42 45  2  0
 43 45  1  0
M  END
