x0426_0-x1336_0
     RDKit          3D

 21 22  0  0  0  0  0  0  0  0999 V2000
    6.4790   -3.5600   20.0300 C   0  0  0  0  0  0  0  0  0  0  0  0
    7.3300   -3.0680   18.8740 C   0  0  0  0  0  0  0  0  0  0  0  0
    5.4720   -4.2490   19.8010 O   0  0  0  0  0  0  0  0  0  0  0  0
    6.9220   -3.2510   21.3070 N   0  0  0  0  0  0  0  0  0  0  0  0
    6.5130   -3.9160   22.4530 C   0  0  0  0  0  0  0  0  0  0  0  0
    8.1320   -2.4450   21.5930 C   0  0  0  0  0  0  0  0  0  0  0  0
    6.1540   -3.0100   23.4510 C   0  0  2  0  0  0  0  0  0  0  0  0
    8.1270   -1.8000   22.8520 C   0  0  0  0  0  0  0  0  0  0  0  0
    5.2710   -1.9280   22.8350 C   0  0  0  0  0  0  0  0  0  0  0  0
    7.3630   -2.3800   23.9860 N   0  0  0  0  0  0  0  0  0  0  0  0
    4.4000   -1.1100   23.8070 C   0  0  0  0  0  0  0  0  0  0  0  0
    3.7060    0.0730   23.1140 C   0  0  0  0  0  0  0  0  0  0  0  0
    2.6080    0.6590   23.9240 N   0  0  0  0  0  0  0  0  0  0  0  0
    2.2270    1.9590   23.7390 C   0  0  0  0  0  0  0  0  0  0  0  0
    1.2090    2.5850   24.4750 C   0  0  0  0  0  0  0  0  0  0  0  0
   -0.1040    2.0690   24.5200 C   0  0  0  0  0  0  0  0  0  0  0  0
    1.4850    3.7670   25.1930 C   0  0  0  0  0  0  0  0  0  0  0  0
    2.7190    4.3010   25.1830 F   0  0  0  0  0  0  0  0  0  0  0  0
   -1.0850    2.7400   25.2690 C   0  0  0  0  0  0  0  0  0  0  0  0
    0.4890    4.3970   25.9170 C   0  0  0  0  0  0  0  0  0  0  0  0
   -0.8060    3.9100   25.9750 C   0  0  0  0  0  0  0  0  0  0  0  0
  1  2  1  0
  1  3  2  0
  1  4  1  0
  4  5  1  0
  4  6  1  0
  5  7  1  0
  6  8  1  0
  7  9  1  6
  7 10  1  0
  8 10  1  0
  9 11  1  0
 11 12  1  0
 12 13  1  0
 13 14  2  3
 14 15  1  0
 15 16  2  0
 15 17  1  0
 17 18  1  0
 16 19  1  0
 17 20  2  0
 19 21  2  0
 20 21  1  0
M  END
