x0425_0-x0350_2
     RDKit          3D

 14 16  0  0  0  0  0  0  0  0999 V2000
    8.0260  -23.2710   -1.2090 C   0  0  0  0  0  0  0  0  0  0  0  0
    6.8090  -23.4810   -0.8280 C   0  0  0  0  0  0  0  0  0  0  0  0
    5.5910  -23.6910   -0.4470 C   0  0  1  0  0  0  0  0  0  0  0  0
    7.2060  -21.9740   -1.2490 C   0  0  0  0  0  0  0  0  0  0  0  0
    7.5550  -20.7820   -1.8800 C   0  0  0  0  0  0  0  0  0  0  0  0
    5.9720  -21.7900   -0.6710 C   0  0  1  0  0  0  0  0  0  0  0  0
    6.5230  -19.8800   -1.6630 C   0  0  0  0  0  0  0  0  0  0  0  0
    5.5350  -20.5550   -0.8890 C   0  0  0  0  0  0  0  0  0  0  0  0
    4.0950  -23.3020   -0.1990 C   0  0  0  0  0  0  0  0  0  0  0  0
    4.3240  -24.6790   -0.0720 C   0  0  0  0  0  0  0  0  0  0  0  0
    2.9430  -22.7620    0.1850 N   0  0  0  0  0  0  0  0  0  0  0  0
    3.3770  -25.4520    0.4480 N   0  0  0  0  0  0  0  0  0  0  0  0
    1.9880  -23.5510    0.7010 C   0  0  0  0  0  0  0  0  0  0  0  0
    2.2130  -24.9160    0.8320 C   0  0  0  0  0  0  0  0  0  0  0  0
  1  2  2  0
  2  3  1  0
  1  4  1  0
  4  5  1  0
  3  6  1  0
  4  6  1  0
  5  7  2  0
  6  8  1  6
  7  8  1  0
  3  9  1  6
  9 10  2  0
  9 11  1  0
 10 12  1  0
 11 13  2  0
 12 14  2  0
 13 14  1  0
M  END
