x0426_1-x1374_1-x1418_1-x0770_1-x1386_1-x1334_0-x0831_1-x1412_1-x0434_2-x1385_1-x0692_1-x0831_0-x1375_1-x0397_0-x1334_1
     RDKit          3D

 43 48  0  0  0  0  0  0  0  0999 V2000
    2.5310   -7.4920   23.1190 O   0  0  0  0  0  0  0  0  0  0  0  0
    2.6770   -7.8350   24.4780 C   0  0  0  0  0  0  0  0  0  0  0  0
    4.0380   -7.9880   24.8140 O   0  0  0  0  0  0  0  0  0  0  0  0
    4.6950   -6.7240   24.9140 C   0  0  0  0  0  0  0  0  0  0  0  0
    5.9690   -6.8060   24.1270 C   0  0  0  0  0  0  0  0  0  0  0  0
    6.1330   -6.0180   22.8540 C   0  0  2  0  0  0  0  0  0  0  0  0
    5.9290   -4.7570   22.5780 C   0  0  2  0  0  0  0  0  0  0  0  0
    5.1710   -6.0870   21.9820 C   0  0  0  0  0  0  0  0  0  0  0  0
    7.0450   -4.0090   21.9140 C   0  0  2  0  0  0  0  0  0  0  0  0
    8.0560   -3.8620   22.7790 C   0  0  0  0  0  0  0  0  0  0  0  0
    6.6320   -2.8470   21.1500 N   0  0  0  0  0  0  0  0  0  0  0  0
    6.3310   -3.2560   19.8340 C   0  0  0  0  0  0  0  0  0  0  0  0
    8.2050   -2.5220   23.2840 N   0  0  0  0  0  0  0  0  0  0  0  0
    7.2980   -1.6130   21.2330 C   0  0  1  0  0  0  0  0  0  0  0  0
    7.3990   -2.9720   18.7710 C   0  0  0  0  0  0  0  0  0  0  0  0
    5.3010   -3.8850   19.5800 O   0  0  0  0  0  0  0  0  0  0  0  0
    6.4420   -0.3190   21.4660 C   0  0  2  0  0  0  0  0  0  0  0  0
    9.2040   -2.4430   24.3680 C   0  0  2  0  0  0  0  0  0  0  0  0
    8.3950   -1.6580   22.1050 C   0  0  0  0  0  0  0  0  0  0  0  0
    5.2490   -0.3680   22.4960 C   0  0  0  0  0  0  0  0  0  0  0  0
   10.4920   -2.4560   23.8300 C   0  0  0  0  0  0  0  0  0  0  0  0
    6.0280    0.3110   20.1370 C   0  0  0  0  0  0  0  0  0  0  0  0
    9.0270   -3.5960   25.3440 C   0  0  0  0  0  0  0  0  0  0  0  0
    4.6250    1.0550   22.5670 C   0  0  2  0  0  0  0  0  0  0  0  0
    4.9160    1.1520   20.0300 C   0  0  0  0  0  0  0  0  0  0  0  0
    6.7900    0.0370   19.0140 C   0  0  0  0  0  0  0  0  0  0  0  0
    9.7540   -4.7970   25.4960 C   0  0  0  0  0  0  0  0  0  0  0  0
    7.6480   -3.4550   26.5810 S   0  0  0  0  0  0  0  0  0  0  0  0
   11.0970   -1.1040   23.6700 C   0  0  0  0  0  0  0  0  0  0  0  0
    3.5160    1.1220   23.5480 N   0  0  0  0  0  0  0  0  0  0  0  0
    4.0610    1.4740   21.2050 C   0  0  0  0  0  0  0  0  0  0  0  0
    4.5750    1.7190   18.8240 C   0  0  0  0  0  0  0  0  0  0  0  0
    6.3910    0.6670   17.7310 N   0  0  0  0  0  0  0  0  0  0  0  0
    9.3720   -5.6560   26.5150 C   0  0  0  0  0  0  0  0  0  0  0  0
    8.1780   -5.1110   27.3200 C   0  0  0  0  0  0  0  0  0  0  0  0
   10.4680    0.1380   24.2660 C   0  0  0  0  0  0  0  0  0  0  0  0
   12.3760   -0.8090   22.9110 C   0  0  0  0  0  0  0  0  0  0  0  0
    7.2960   -5.6770   28.6670 Cl  0  0  0  0  0  0  0  0  0  0  0  0
   13.1420   -1.8870   22.2290 C   0  0  0  0  0  0  0  0  0  0  0  0
    5.3040    1.4910   17.6680 C   0  0  0  0  0  0  0  0  0  0  0  0
   10.9810    1.4040   24.1450 C   0  0  0  0  0  0  0  0  0  0  0  0
   12.8440    0.4770   22.8400 C   0  0  0  0  0  0  0  0  0  0  0  0
   12.1770    1.5640   23.4300 C   0  0  0  0  0  0  0  0  0  0  0  0
  1  2  1  0
  2  3  1  0
  3  4  1  0
  4  5  1  0
  6  5  1  1
  6  7  1  0
  6  8  1  0
  7  8  1  6
  7  9  1  0
  9 10  1  1
  9 11  1  0
 11 12  1  0
 10 13  1  0
 11 14  1  0
 12 15  1  0
 12 16  2  0
 14 17  1  0
 13 18  1  0
 13 19  1  0
 14 19  1  1
 17 20  1  6
 18 21  1  6
 17 22  1  0
 18 23  1  0
 20 24  1  0
 22 25  2  0
 22 26  1  0
 23 27  2  0
 23 28  1  0
 21 29  1  0
 24 30  1  1
 24 31  1  0
 25 31  1  0
 25 32  1  0
 26 33  2  0
 27 34  1  0
 28 35  1  0
 34 35  2  0
 29 36  2  0
 29 37  1  0
 35 38  1  0
 37 39  1  0
 32 40  2  0
 33 40  1  0
 36 41  1  0
 37 42  2  0
 41 43  2  0
 42 43  1  0
M  END
