x0426_1-x1412_0-x0981_1-x0831_0-x1334_0-x1334_1
     RDKit          3D

 51 57  0  0  0  0  0  0  0  0999 V2000
    4.0460   -5.9790   23.0560 C   0  0  0  0  0  0  0  0  0  0  0  0
    2.6540   -6.2060   23.5820 C   0  0  1  0  0  0  0  0  0  0  0  0
    2.3310   -7.5260   23.0240 N   0  0  0  0  0  0  0  0  0  0  0  0
    4.6410   -5.0160   22.1810 N   0  0  0  0  0  0  0  0  0  0  0  0
    2.6930   -6.2750   25.1020 C   0  0  0  0  0  0  0  0  0  0  0  0
    6.0410   -5.1680   21.9010 C   0  0  0  0  0  0  0  0  0  0  0  0
    1.2870   -7.6280   22.0460 C   0  0  0  0  0  0  0  0  0  0  0  0
    3.1200   -7.6690   25.4070 C   0  0  0  0  0  0  0  0  0  0  0  0
    6.6710   -3.8290   22.2610 C   0  0  2  0  0  0  0  0  0  0  0  0
    1.1690   -8.7900   21.0640 C   0  0  0  0  0  0  0  0  0  0  0  0
    0.3350   -6.5810   22.0120 O   0  0  0  0  0  0  0  0  0  0  0  0
    2.5110   -8.2740   26.4630 N   0  0  0  0  0  0  0  0  0  0  0  0
    3.9610   -8.2140   24.7260 O   0  0  0  0  0  0  0  0  0  0  0  0
    7.2450   -3.0710   21.1670 N   0  0  0  0  0  0  0  0  0  0  0  0
    7.6720   -3.8420   23.3750 C   0  0  0  0  0  0  0  0  0  0  0  0
    6.6410   -3.3460   19.8900 C   0  0  0  0  0  0  0  0  0  0  0  0
    7.6800   -2.4530   23.7950 N   0  0  0  0  0  0  0  0  0  0  0  0
    7.4490   -1.6910   21.6900 C   0  0  2  0  0  0  0  0  0  0  0  0
    7.4790   -2.9960   18.7090 C   0  0  0  0  0  0  0  0  0  0  0  0
    5.5470   -3.9200   19.6900 O   0  0  0  0  0  0  0  0  0  0  0  0
    8.3460   -2.2400   25.0150 C   0  0  2  0  0  0  0  0  0  0  0  0
    8.2190   -1.6230   22.9040 C   0  0  2  0  0  0  0  0  0  0  0  0
    6.0430   -1.2480   22.1960 C   0  0  0  0  0  0  0  0  0  0  0  0
    8.0450   -1.1580   25.5250 O   0  0  0  0  0  0  0  0  0  0  0  0
    9.7730   -1.9290   23.1490 C   0  0  2  0  0  0  0  0  0  0  0  0
    9.8320   -2.3640   24.6330 C   0  0  2  0  0  0  0  0  0  0  0  0
    8.2530   -3.3490   25.9430 C   0  0  0  0  0  0  0  0  0  0  0  0
    5.1950   -0.1460   21.6030 C   0  0  1  0  0  0  0  0  0  0  0  0
   10.1740   -3.7250   24.7480 C   0  0  0  0  0  0  0  0  0  0  0  0
    9.2800   -4.2330   25.8130 C   0  0  0  0  0  0  0  0  0  0  0  0
    7.1460   -3.8170   27.1480 S   0  0  0  0  0  0  0  0  0  0  0  0
   10.7240   -0.7700   23.1860 C   0  0  0  0  0  0  0  0  0  0  0  0
    5.0750    1.0340   22.5750 C   0  0  0  0  0  0  0  0  0  0  0  0
    5.4090    0.3280   20.2020 C   0  0  0  0  0  0  0  0  0  0  0  0
    9.1830   -5.2970   26.6670 C   0  0  0  0  0  0  0  0  0  0  0  0
    8.0430   -5.2120   27.4670 C   0  0  0  0  0  0  0  0  0  0  0  0
   10.2800    0.4030   23.8030 C   0  0  0  0  0  0  0  0  0  0  0  0
   12.1350   -0.8520   22.5900 C   0  0  0  0  0  0  0  0  0  0  0  0
    4.1070    2.1320   22.1050 C   0  0  2  0  0  0  0  0  0  0  0  0
    4.6100    1.3580   19.8330 C   0  0  0  0  0  0  0  0  0  0  0  0
    6.3240   -0.1770   19.2690 C   0  0  0  0  0  0  0  0  0  0  0  0
   12.7840   -2.0090   21.8980 C   0  0  0  0  0  0  0  0  0  0  0  0
    7.3990   -6.2190   28.6580 Cl  0  0  0  0  0  0  0  0  0  0  0  0
   11.0140    1.5520   23.9270 C   0  0  0  0  0  0  0  0  0  0  0  0
   12.8690    0.4760   22.7870 C   0  0  0  0  0  0  0  0  0  0  0  0
    3.0080    2.2750   23.0620 N   0  0  0  0  0  0  0  0  0  0  0  0
    3.6200    1.9240   20.8030 C   0  0  0  0  0  0  0  0  0  0  0  0
    4.7330    1.9030   18.4690 C   0  0  0  0  0  0  0  0  0  0  0  0
    6.4550    0.3050   18.0090 N   0  0  0  0  0  0  0  0  0  0  0  0
   12.3050    1.5810   23.4120 C   0  0  0  0  0  0  0  0  0  0  0  0
    5.6630    1.3220   17.6530 C   0  0  0  0  0  0  0  0  0  0  0  0
  2  1  1  6
  2  3  1  0
  1  4  2  3
  2  5  1  0
  4  6  1  0
  3  7  1  0
  5  8  1  0
  9  6  1  6
  7 10  1  0
  7 11  2  0
  8 12  1  0
  8 13  2  0
  9 14  1  0
  9 15  1  0
 14 16  1  0
 15 17  1  0
 14 18  1  0
 16 19  1  0
 16 20  2  0
 17 21  1  0
 22 17  1  1
 18 22  1  0
 18 23  1  1
 21 24  1  1
 22 25  1  0
 21 26  1  0
 25 26  1  0
 21 27  1  0
 28 23  1  1
 26 29  1  6
 27 30  2  0
 29 30  1  0
 27 31  1  0
 25 32  1  1
 28 33  1  0
 28 34  1  0
 30 35  1  0
 31 36  1  0
 35 36  2  0
 32 37  2  0
 32 38  1  0
 33 39  1  0
 34 40  2  0
 34 41  1  0
 38 42  1  0
 36 43  1  0
 37 44  1  0
 38 45  2  0
 39 46  1  1
 39 47  1  0
 40 47  1  0
 40 48  1  0
 41 49  2  0
 44 50  2  0
 45 50  1  0
 48 51  2  0
 49 51  1  0
M  END
