x0426_0-x0107_0-x1336_1
     RDKit          3D

 35 37  0  0  0  0  0  0  0  0999 V2000
   10.1620   -0.7560   22.1630 C   0  0  0  0  0  0  0  0  0  0  0  0
    8.9990   -0.0060   21.5520 C   0  0  0  0  0  0  0  0  0  0  0  0
    9.2030    1.4040   21.3690 O   0  0  0  0  0  0  0  0  0  0  0  0
    9.6920   -1.6070   23.3070 C   0  0  0  0  0  0  0  0  0  0  0  0
    7.7880   -0.6930   21.1660 N   0  0  0  0  0  0  0  0  0  0  0  0
    9.8190   -0.8720   24.6500 C   0  0  0  0  0  0  0  0  0  0  0  0
    8.4850   -0.6860   25.2370 N   0  0  0  0  0  0  0  0  0  0  0  0
    6.9070   -0.1570   20.2070 C   0  0  0  0  0  0  0  0  0  0  0  0
    7.3760   -1.9830   25.1630 S   0  0  2  0  0  0  0  0  0  0  0  0
    5.6800    0.5950   20.6460 C   0  0  0  0  0  0  0  0  0  0  0  0
    7.1420   -0.2890   18.8460 C   0  0  0  0  0  0  0  0  0  0  0  0
    5.3590    0.7580   22.1040 C   0  0  0  0  0  0  0  0  0  0  0  0
    6.0560   -1.4960   25.5320 O   0  0  0  0  0  0  0  0  0  0  0  0
    4.7530    1.1990   19.5810 C   0  0  0  0  0  0  0  0  0  0  0  0
    6.3160    0.2530   17.7620 N   0  0  0  0  0  0  0  0  0  0  0  0
    7.7890   -3.3710   26.2290 C   0  0  0  0  0  0  0  0  0  0  0  0
    3.8630    0.6120   22.3440 C   0  0  0  0  0  0  0  0  0  0  0  0
    5.1230    1.0050   18.1110 C   0  0  0  0  0  0  0  0  0  0  0  0
    6.8390   -3.7450   27.1900 C   0  0  0  0  0  0  0  0  0  0  0  0
    8.9880   -4.0900   26.1500 C   0  0  0  0  0  0  0  0  0  0  0  0
   10.0670   -3.7690   25.1690 C   0  0  0  0  0  0  0  0  0  0  0  0
    3.4740    0.0230   23.5730 C   0  0  0  0  0  0  0  0  0  0  0  0
    7.0850   -4.8200   28.0480 C   0  0  0  0  0  0  0  0  0  0  0  0
    9.2180   -5.1610   27.0100 C   0  0  0  0  0  0  0  0  0  0  0  0
    6.0830   -5.2400   29.0810 C   0  0  0  0  0  0  0  0  0  0  0  0
    2.3570    0.5580   24.0350 N   0  0  0  0  0  0  0  0  0  0  0  0
    8.2760   -5.5360   27.9600 C   0  0  0  0  0  0  0  0  0  0  0  0
    2.3740    1.8340   24.1550 C   0  0  0  0  0  0  0  0  0  0  0  0
    1.2480    2.6120   24.6950 C   0  0  0  0  0  0  0  0  0  0  0  0
   -0.0390    2.0780   24.6390 C   0  0  0  0  0  0  0  0  0  0  0  0
    1.4560    3.8680   25.2640 C   0  0  0  0  0  0  0  0  0  0  0  0
    2.6780    4.4130   25.3340 F   0  0  0  0  0  0  0  0  0  0  0  0
   -1.1190    2.8040   25.1580 C   0  0  0  0  0  0  0  0  0  0  0  0
    0.3840    4.5920   25.7810 C   0  0  0  0  0  0  0  0  0  0  0  0
   -0.9030    4.0610   25.7290 C   0  0  0  0  0  0  0  0  0  0  0  0
  1  2  1  0
  2  3  2  0
  1  4  1  0
  2  5  1  0
  4  6  1  0
  6  7  1  0
  5  8  1  0
  7  9  2  0
  8 10  1  0
  8 11  2  0
 10 12  1  0
  9 13  2  0
 10 14  2  0
 11 15  1  0
  9 16  1  1
 12 17  1  0
 14 18  1  0
 15 18  2  0
 16 19  2  0
 16 20  1  0
 20 21  1  0
 17 22  1  0
 19 23  1  0
 20 24  2  0
 23 25  1  0
 22 26  1  0
 23 27  2  0
 24 27  1  0
 26 28  2  3
 28 29  1  0
 29 30  2  0
 29 31  1  0
 31 32  1  0
 30 33  1  0
 31 34  2  0
 33 35  2  0
 34 35  1  0
M  END
