x0426_1-x0831_0-x1418_1-x1334_1-x0434_2-x0770_1-x0397_0-x1334_0-x0692_1
     RDKit          3D

 38 43  0  0  0  0  0  0  0  0999 V2000
    6.2540   -3.2580   20.0300 C   0  0  0  0  0  0  0  0  0  0  0  0
    7.3080   -2.9660   18.9560 C   0  0  0  0  0  0  0  0  0  0  0  0
    5.3990   -4.1150   19.7560 O   0  0  0  0  0  0  0  0  0  0  0  0
    6.2330   -2.6350   21.3240 N   0  0  0  0  0  0  0  0  0  0  0  0
    6.4630   -3.4550   22.3680 C   0  0  2  0  0  0  0  0  0  0  0  0
    6.9120   -1.3750   21.8120 C   0  0  2  0  0  0  0  0  0  0  0  0
    6.2200    0.0220   21.6420 C   0  0  2  0  0  0  0  0  0  0  0  0
    8.0130   -3.6170   22.5750 C   0  0  0  0  0  0  0  0  0  0  0  0
    8.4510   -1.4550   21.6110 C   0  0  0  0  0  0  0  0  0  0  0  0
    5.7070   -4.7330   22.1350 C   0  0  0  0  0  0  0  0  0  0  0  0
    5.0460    0.1880   22.6570 C   0  0  0  0  0  0  0  0  0  0  0  0
    8.9510   -2.4740   22.3660 N   0  0  0  0  0  0  0  0  0  0  0  0
    6.1030   -5.5070   23.1370 C   0  0  0  0  0  0  0  0  0  0  0  0
    6.3720   -6.2600   21.9640 C   0  0  0  0  0  0  0  0  0  0  0  0
    5.9230    0.5020   20.2560 C   0  0  0  0  0  0  0  0  0  0  0  0
    4.4410    1.5980   22.5470 C   0  0  2  0  0  0  0  0  0  0  0  0
    9.6400   -2.0290   23.6020 C   0  0  1  0  0  0  0  0  0  0  0  0
    4.8050    1.3150   20.0140 C   0  0  0  0  0  0  0  0  0  0  0  0
    6.7190    0.1860   19.1870 C   0  0  0  0  0  0  0  0  0  0  0  0
    3.4380    1.8600   23.5780 N   0  0  0  0  0  0  0  0  0  0  0  0
    3.8670    1.7130   21.1060 C   0  0  0  0  0  0  0  0  0  0  0  0
   10.3840   -3.2430   24.2830 C   0  0  0  0  0  0  0  0  0  0  0  0
    4.5370    1.7850   18.7440 C   0  0  0  0  0  0  0  0  0  0  0  0
    6.5320    0.6120   17.8380 N   0  0  0  0  0  0  0  0  0  0  0  0
   10.6420   -0.8450   23.4810 C   0  0  0  0  0  0  0  0  0  0  0  0
    5.3650    1.4750   17.6190 C   0  0  0  0  0  0  0  0  0  0  0  0
   10.1650    0.3780   23.9610 C   0  0  0  0  0  0  0  0  0  0  0  0
   11.8910   -0.9170   22.9670 C   0  0  0  0  0  0  0  0  0  0  0  0
    9.6120   -4.1080   25.2680 C   0  0  0  0  0  0  0  0  0  0  0  0
   12.4880   -2.1760   22.4210 C   0  0  0  0  0  0  0  0  0  0  0  0
   10.9300    1.5550   23.9380 C   0  0  0  0  0  0  0  0  0  0  0  0
   12.7000    0.1960   22.9140 C   0  0  0  0  0  0  0  0  0  0  0  0
    9.9500   -5.3370   25.5820 C   0  0  0  0  0  0  0  0  0  0  0  0
    8.0800   -3.7040   26.2620 S   0  0  0  0  0  0  0  0  0  0  0  0
   12.2110    1.5340   23.4260 C   0  0  0  0  0  0  0  0  0  0  0  0
    9.2610   -6.0770   26.4890 C   0  0  0  0  0  0  0  0  0  0  0  0
    8.1760   -5.3240   26.9970 C   0  0  0  0  0  0  0  0  0  0  0  0
    7.0290   -5.8030   28.1770 Cl  0  0  0  0  0  0  0  0  0  0  0  0
  1  2  1  0
  1  3  2  0
  1  4  1  0
  4  5  1  0
  4  6  1  0
  6  7  1  0
  5  8  1  0
  6  9  1  6
  5 10  1  6
  7 11  1  1
  8 12  1  0
  9 12  1  0
 10 13  1  0
 10 14  1  0
 13 14  1  0
  7 15  1  0
 11 16  1  0
 12 17  1  0
 15 18  2  0
 15 19  1  0
 16 20  1  1
 16 21  1  0
 18 21  1  0
 17 22  1  6
 18 23  1  0
 19 24  2  0
 17 25  1  0
 23 26  2  0
 24 26  1  0
 25 27  2  0
 25 28  1  0
 22 29  1  0
 28 30  1  0
 27 31  1  0
 28 32  2  0
 29 33  2  0
 29 34  1  0
 31 35  2  0
 32 35  1  0
 33 36  1  0
 34 37  1  0
 36 37  2  0
 37 38  1  0
M  END
