x0426_0-x1334_1
     RDKit          3D

 22 23  0  0  0  0  0  0  0  0999 V2000
    6.3540   -3.3070   19.8980 C   0  0  0  0  0  0  0  0  0  0  0  0
    7.2800   -2.9770   18.7510 C   0  0  0  0  0  0  0  0  0  0  0  0
    5.4200   -4.1080   19.7260 O   0  0  0  0  0  0  0  0  0  0  0  0
    6.6530   -2.6790   21.1210 N   0  0  0  0  0  0  0  0  0  0  0  0
    7.7130   -1.6410   21.2290 C   0  0  0  0  0  0  0  0  0  0  0  0
    6.3210   -3.4020   22.3580 C   0  0  1  0  0  0  0  0  0  0  0  0
    8.8050   -2.0520   21.9900 C   0  0  0  0  0  0  0  0  0  0  0  0
    7.4680   -3.7200   23.0930 C   0  0  0  0  0  0  0  0  0  0  0  0
    5.3300   -2.5610   23.2000 C   0  0  0  0  0  0  0  0  0  0  0  0
    8.3690   -2.5770   23.3030 N   0  0  0  0  0  0  0  0  0  0  0  0
    5.8740   -1.3560   23.9630 C   0  0  0  0  0  0  0  0  0  0  0  0
    4.7410   -0.5100   24.5490 C   0  0  0  0  0  0  0  0  0  0  0  0
    3.7920   -0.1820   23.5610 C   0  0  0  0  0  0  0  0  0  0  0  0
    2.6120    0.4530   24.1880 N   0  0  0  0  0  0  0  0  0  0  0  0
    2.2740    1.8660   24.0060 C   0  0  0  0  0  0  0  0  0  0  0  0
    1.2040    2.5730   24.5830 C   0  0  0  0  0  0  0  0  0  0  0  0
   -0.1120    2.0990   24.5750 C   0  0  0  0  0  0  0  0  0  0  0  0
    1.4670    3.8050   25.2010 C   0  0  0  0  0  0  0  0  0  0  0  0
    2.7140    4.3010   25.2350 F   0  0  0  0  0  0  0  0  0  0  0  0
   -1.1340    2.8300   25.1660 C   0  0  0  0  0  0  0  0  0  0  0  0
    0.4300    4.5360   25.7940 C   0  0  0  0  0  0  0  0  0  0  0  0
   -0.8830    4.0540   25.7830 C   0  0  0  0  0  0  0  0  0  0  0  0
  1  2  1  0
  1  3  2  0
  1  4  1  0
  4  5  1  0
  4  6  1  0
  5  7  1  0
  6  8  1  0
  6  9  1  1
  7 10  1  0
  8 10  1  0
  9 11  1  0
 11 12  1  0
 12 13  1  0
 13 14  1  0
 14 15  2  3
 15 16  1  0
 16 17  2  0
 16 18  1  0
 18 19  1  0
 17 20  1  0
 18 21  2  0
 20 22  2  0
 21 22  1  0
M  END
