x0426_1-x1334_1
     RDKit          3D

 21 23  0  0  0  0  0  0  0  0999 V2000
    6.3960   -3.2720   19.9360 C   0  0  0  0  0  0  0  0  0  0  0  0
    7.3670   -3.0210   18.8060 C   0  0  0  0  0  0  0  0  0  0  0  0
    5.4590   -4.0730   19.7400 O   0  0  0  0  0  0  0  0  0  0  0  0
    6.6100   -2.6290   21.1590 N   0  0  0  0  0  0  0  0  0  0  0  0
    7.7060   -1.6460   21.2940 C   0  0  2  0  0  0  0  0  0  0  0  0
    6.2160   -3.3110   22.4100 C   0  0  0  0  0  0  0  0  0  0  0  0
    8.8510   -2.1950   22.1400 C   0  0  0  0  0  0  0  0  0  0  0  0
    7.3520   -3.8320   23.2490 C   0  0  0  0  0  0  0  0  0  0  0  0
    7.2010   -0.3740   21.9640 C   0  0  0  0  0  0  0  0  0  0  0  0
    8.4080   -2.7940   23.4110 N   0  0  0  0  0  0  0  0  0  0  0  0
    5.7180   -0.0630   21.6830 C   0  0  1  0  0  0  0  0  0  0  0  0
    5.2730    0.8120   22.6780 C   0  0  0  0  0  0  0  0  0  0  0  0
    5.6050    0.4790   20.2850 C   0  0  0  0  0  0  0  0  0  0  0  0
    4.4130    2.0500   22.2670 C   0  0  2  0  0  0  0  0  0  0  0  0
    4.6700    1.4490   19.9570 C   0  0  0  0  0  0  0  0  0  0  0  0
    6.5150   -0.0100   19.1750 C   0  0  0  0  0  0  0  0  0  0  0  0
    3.3340    2.1590   23.2350 N   0  0  0  0  0  0  0  0  0  0  0  0
    3.8450    1.9370   20.8440 C   0  0  0  0  0  0  0  0  0  0  0  0
    4.5930    1.9280   18.6690 C   0  0  0  0  0  0  0  0  0  0  0  0
    6.4940    0.4110   17.9120 N   0  0  0  0  0  0  0  0  0  0  0  0
    5.4850    1.4100   17.7110 C   0  0  0  0  0  0  0  0  0  0  0  0
  1  2  1  0
  1  3  2  0
  1  4  1  0
  4  5  1  0
  4  6  1  0
  5  7  1  0
  6  8  1  0
  5  9  1  1
  7 10  1  0
  8 10  1  0
 11  9  1  1
 11 12  1  0
 11 13  1  0
 12 14  1  0
 13 15  2  0
 13 16  1  0
 14 17  1  1
 14 18  1  0
 15 18  1  0
 15 19  1  0
 16 20  2  0
 19 21  2  0
 20 21  1  0
M  END
