x0426_1-x0434_2-x0692_1-x1386_1-x1418_1-x1374_1-x1334_0-x1334_1-x0770_1-x0831_0-x1412_1-x0397_0
     RDKit          3D

 44 49  0  0  0  0  0  0  0  0999 V2000
    2.2810   -7.6840   23.2710 O   0  0  0  0  0  0  0  0  0  0  0  0
    2.5950   -7.9620   24.6170 C   0  0  0  0  0  0  0  0  0  0  0  0
    3.9960   -7.9300   24.7460 O   0  0  0  0  0  0  0  0  0  0  0  0
    4.6230   -7.0800   23.7900 C   0  0  0  0  0  0  0  0  0  0  0  0
    5.1470   -5.9370   24.3440 C   0  0  0  0  0  0  0  0  0  0  0  0
    5.9850   -5.2760   23.2860 C   0  0  2  0  0  0  0  0  0  0  0  0
    5.4110   -4.3030   22.6300 C   0  0  2  0  0  0  0  0  0  0  0  0
    6.0280   -5.7410   22.1110 C   0  0  0  0  0  0  0  0  0  0  0  0
    5.9770   -2.9490   22.2430 C   0  0  2  0  0  0  0  0  0  0  0  0
    6.6170   -2.5650   20.9860 N   0  0  0  0  0  0  0  0  0  0  0  0
    7.2200   -3.5230   22.4530 C   0  0  0  0  0  0  0  0  0  0  0  0
    6.3580   -3.2460   19.8080 C   0  0  0  0  0  0  0  0  0  0  0  0
    8.1420   -2.6150   23.1440 N   0  0  0  0  0  0  0  0  0  0  0  0
    7.6350   -1.4950   20.9760 C   0  0  1  0  0  0  0  0  0  0  0  0
    5.4230   -4.0600   19.6980 O   0  0  0  0  0  0  0  0  0  0  0  0
    7.3130   -2.9860   18.6690 C   0  0  0  0  0  0  0  0  0  0  0  0
    9.2830   -3.4050   23.5590 C   0  0  1  0  0  0  0  0  0  0  0  0
    7.3220   -0.3230   21.9150 C   0  0  0  0  0  0  0  0  0  0  0  0
    8.5280   -1.5220   22.2190 C   0  0  0  0  0  0  0  0  0  0  0  0
    5.8830    0.0940   21.7720 C   0  0  1  0  0  0  0  0  0  0  0  0
   10.6340   -2.7340   23.2470 C   0  0  0  0  0  0  0  0  0  0  0  0
    9.0910   -4.1740   24.7820 C   0  0  0  0  0  0  0  0  0  0  0  0
    5.5210    1.1200   22.8610 C   0  0  0  0  0  0  0  0  0  0  0  0
    5.6700    0.5470   20.4150 C   0  0  0  0  0  0  0  0  0  0  0  0
    9.7680   -5.3120   25.1670 C   0  0  0  0  0  0  0  0  0  0  0  0
    7.9210   -3.8450   26.0360 S   0  0  0  0  0  0  0  0  0  0  0  0
   10.9000   -1.2710   23.4700 C   0  0  0  0  0  0  0  0  0  0  0  0
    4.1040    1.7380   22.6590 C   0  0  1  0  0  0  0  0  0  0  0  0
    4.4620    1.4630   20.1460 C   0  0  0  0  0  0  0  0  0  0  0  0
    6.5250    0.1730   19.4190 C   0  0  0  0  0  0  0  0  0  0  0  0
    9.3290   -5.9270   26.4750 C   0  0  0  0  0  0  0  0  0  0  0  0
    8.2950   -5.1890   27.0410 C   0  0  0  0  0  0  0  0  0  0  0  0
   10.1670   -0.3320   24.2060 C   0  0  0  0  0  0  0  0  0  0  0  0
   12.0340   -0.8490   22.8570 C   0  0  0  0  0  0  0  0  0  0  0  0
    4.0330    3.0390   23.2790 N   0  0  0  0  0  0  0  0  0  0  0  0
    3.5070    1.8730   21.2210 C   0  0  0  0  0  0  0  0  0  0  0  0
    7.4500   -5.4830   28.4930 Cl  0  0  0  0  0  0  0  0  0  0  0  0
   12.8650   -1.8000   22.0500 C   0  0  0  0  0  0  0  0  0  0  0  0
    4.4400    1.8400   18.6930 C   0  0  0  0  0  0  0  0  0  0  0  0
    6.5180    0.5180   17.9860 N   0  0  0  0  0  0  0  0  0  0  0  0
   10.5230    0.9590   24.3350 C   0  0  0  0  0  0  0  0  0  0  0  0
   12.5090    0.4460   22.9190 C   0  0  0  0  0  0  0  0  0  0  0  0
    5.4590    1.3620   17.6830 C   0  0  0  0  0  0  0  0  0  0  0  0
   11.7570    1.4670   23.6820 C   0  0  0  0  0  0  0  0  0  0  0  0
  1  2  1  0
  2  3  1  0
  3  4  1  0
  4  5  1  0
  6  5  1  1
  6  7  1  0
  6  8  1  0
  7  8  1  6
  7  9  1  0
  9 10  1  0
  9 11  1  1
 10 12  1  0
 11 13  1  0
 10 14  1  0
 12 15  2  0
 12 16  1  0
 13 17  1  0
 14 18  1  1
 13 19  1  0
 14 19  1  0
 20 18  1  6
 17 21  1  1
 17 22  1  0
 20 23  1  0
 20 24  1  0
 22 25  2  0
 22 26  1  0
 21 27  1  0
 23 28  1  0
 24 29  2  0
 24 30  1  0
 25 31  1  0
 26 32  1  0
 31 32  2  0
 27 33  2  0
 27 34  1  0
 28 35  1  6
 28 36  1  0
 29 36  1  0
 32 37  1  0
 34 38  1  0
 29 39  1  0
 30 40  2  0
 33 41  1  0
 34 42  2  0
 39 43  2  0
 40 43  1  0
 41 44  2  0
 42 44  1  0
M  END
