x0426_1-x0770_1-x1386_1-x0831_0-x0692_1-x1334_1-x1374_1-x1334_0-x0434_2-x1418_1-x0831_1-x0397_0
     RDKit          3D

 44 49  0  0  0  0  0  0  0  0999 V2000
    2.2150   -7.7420   23.3250 O   0  0  0  0  0  0  0  0  0  0  0  0
    2.5490   -7.9910   24.6720 C   0  0  0  0  0  0  0  0  0  0  0  0
    3.9480   -7.9080   24.8050 O   0  0  0  0  0  0  0  0  0  0  0  0
    4.5280   -7.1030   23.7830 C   0  0  0  0  0  0  0  0  0  0  0  0
    5.1520   -5.8570   24.3040 C   0  0  0  0  0  0  0  0  0  0  0  0
    6.2150   -5.5410   23.2980 C   0  0  2  0  0  0  0  0  0  0  0  0
    5.9150   -4.6040   22.3050 C   0  0  2  0  0  0  0  0  0  0  0  0
    6.2800   -6.2290   22.1730 C   0  0  0  0  0  0  0  0  0  0  0  0
    6.8480   -3.4420   22.1860 C   0  0  1  0  0  0  0  0  0  0  0  0
    6.3950   -2.5850   21.0710 N   0  0  0  0  0  0  0  0  0  0  0  0
    7.1440   -2.7480   23.3790 C   0  0  0  0  0  0  0  0  0  0  0  0
    6.1870   -3.3350   19.8940 C   0  0  0  0  0  0  0  0  0  0  0  0
    8.2180   -1.7680   23.2660 N   0  0  0  0  0  0  0  0  0  0  0  0
    7.1010   -1.2920   21.0430 C   0  0  1  0  0  0  0  0  0  0  0  0
    7.2060   -3.0040   18.8090 C   0  0  0  0  0  0  0  0  0  0  0  0
    5.3100   -4.1900   19.7540 O   0  0  0  0  0  0  0  0  0  0  0  0
    6.2770   -0.0330   21.5070 C   0  0  1  0  0  0  0  0  0  0  0  0
    9.4480   -1.9470   24.0110 C   0  0  1  0  0  0  0  0  0  0  0  0
    8.4250   -1.3940   21.8420 C   0  0  0  0  0  0  0  0  0  0  0  0
    5.1130   -0.2490   22.4760 C   0  0  0  0  0  0  0  0  0  0  0  0
    9.8430   -3.3850   23.9330 C   0  0  0  0  0  0  0  0  0  0  0  0
    7.2420    1.0210   22.1380 C   0  0  0  0  0  0  0  0  0  0  0  0
    5.7870    0.5590   20.2240 C   0  0  0  0  0  0  0  0  0  0  0  0
   10.4830   -0.8390   23.7140 C   0  0  0  0  0  0  0  0  0  0  0  0
    4.0820    0.9120   22.6480 C   0  0  1  0  0  0  0  0  0  0  0  0
    4.5700    1.2580   20.1140 C   0  0  0  0  0  0  0  0  0  0  0  0
    6.7110    0.3620   18.9680 C   0  0  0  0  0  0  0  0  0  0  0  0
   10.2980    0.4370   24.2000 C   0  0  0  0  0  0  0  0  0  0  0  0
   11.7990   -0.9330   22.8990 C   0  0  0  0  0  0  0  0  0  0  0  0
    9.3730   -4.2680   25.0410 C   0  0  0  0  0  0  0  0  0  0  0  0
    4.5430    2.0380   23.4420 N   0  0  0  0  0  0  0  0  0  0  0  0
    3.6370    1.4480   21.2750 C   0  0  0  0  0  0  0  0  0  0  0  0
   12.2960   -2.1740   22.2240 C   0  0  0  0  0  0  0  0  0  0  0  0
    4.3060    1.7890   18.7160 C   0  0  0  0  0  0  0  0  0  0  0  0
    6.4920    0.8090   17.7230 N   0  0  0  0  0  0  0  0  0  0  0  0
   11.0700    1.5600   24.0690 C   0  0  0  0  0  0  0  0  0  0  0  0
   12.6680    0.3160   22.7650 C   0  0  0  0  0  0  0  0  0  0  0  0
    9.8380   -5.4880   25.3160 C   0  0  0  0  0  0  0  0  0  0  0  0
    8.1250   -3.7830   26.1440 S   0  0  0  0  0  0  0  0  0  0  0  0
    5.2740    1.5440   17.6130 C   0  0  0  0  0  0  0  0  0  0  0  0
   12.2600    1.5100   23.3570 C   0  0  0  0  0  0  0  0  0  0  0  0
    9.1600   -6.1270   26.5300 C   0  0  0  0  0  0  0  0  0  0  0  0
    8.2270   -5.3080   27.0570 C   0  0  0  0  0  0  0  0  0  0  0  0
    7.2270   -5.6040   28.4110 Cl  0  0  0  0  0  0  0  0  0  0  0  0
  1  2  1  0
  2  3  1  0
  3  4  1  0
  4  5  1  0
  6  5  1  1
  6  7  1  0
  6  8  1  0
  7  8  1  6
  7  9  1  0
  9 10  1  0
  9 11  1  1
 10 12  1  0
 11 13  1  0
 10 14  1  0
 12 15  1  0
 12 16  2  0
 14 17  1  0
 13 18  1  0
 13 19  1  0
 14 19  1  1
 17 20  1  0
 18 21  1  6
 17 22  1  1
 17 23  1  0
 18 24  1  0
 20 25  1  0
 23 26  2  0
 23 27  1  0
 24 28  2  0
 24 29  1  0
 21 30  1  0
 25 31  1  1
 25 32  1  0
 26 32  1  0
 29 33  1  0
 26 34  1  0
 27 35  2  0
 28 36  1  0
 29 37  2  0
 30 38  2  0
 30 39  1  0
 34 40  2  0
 35 40  1  0
 36 41  2  0
 37 41  1  0
 38 42  1  0
 39 43  1  0
 42 43  2  0
 43 44  1  0
M  END
