x0426_1-x1374_1-x1334_1-x0770_1-x1375_1-x0831_0-x1385_1-x1386_1
     RDKit          3D

 39 43  0  0  0  0  0  0  0  0999 V2000
    6.4960   -3.3240   19.9260 C   0  0  0  0  0  0  0  0  0  0  0  0
    7.4020   -2.9940   18.7590 C   0  0  0  0  0  0  0  0  0  0  0  0
    5.4990   -4.0420   19.7200 O   0  0  0  0  0  0  0  0  0  0  0  0
    6.8750   -2.8330   21.1940 N   0  0  0  0  0  0  0  0  0  0  0  0
    7.5880   -1.5540   21.3020 C   0  0  2  0  0  0  0  0  0  0  0  0
    6.9380   -3.5510   22.4590 C   0  0  1  0  0  0  0  0  0  0  0  0
    6.4560   -4.9980   22.3450 C   0  0  0  0  0  0  0  0  0  0  0  0
    9.0550   -1.7890   21.7640 C   0  0  0  0  0  0  0  0  0  0  0  0
    8.3080   -3.5580   23.1370 C   0  0  0  0  0  0  0  0  0  0  0  0
    6.9120   -0.6980   22.3850 C   0  0  0  0  0  0  0  0  0  0  0  0
    9.0100   -2.2540   23.1400 N   0  0  0  0  0  0  0  0  0  0  0  0
    5.0130   -5.0390   22.6980 C   0  0  2  0  0  0  0  0  0  0  0  0
    6.3690    0.6740   21.9670 C   0  0  2  0  0  0  0  0  0  0  0  0
   10.2890   -2.3990   23.5740 C   0  0  0  0  0  0  0  0  0  0  0  0
    4.4880   -4.5090   23.8720 C   0  0  0  0  0  0  0  0  0  0  0  0
    4.7400   -6.5680   22.7690 C   0  0  0  0  0  0  0  0  0  0  0  0
    5.2710    0.9920   22.7840 C   0  0  0  0  0  0  0  0  0  0  0  0
    6.0120    0.8180   20.5020 C   0  0  0  0  0  0  0  0  0  0  0  0
    3.7130   -5.2860   24.6890 C   0  0  0  0  0  0  0  0  0  0  0  0
    3.5830   -6.8010   24.0140 S   0  0  0  0  0  0  0  0  0  0  0  0
   10.9820   -1.0600   23.5500 C   0  0  0  0  0  0  0  0  0  0  0  0
    4.5920    2.2970   22.3330 C   0  0  2  0  0  0  0  0  0  0  0  0
    4.8690    1.5130   20.1390 C   0  0  0  0  0  0  0  0  0  0  0  0
    6.8340    0.2510   19.3270 C   0  0  0  0  0  0  0  0  0  0  0  0
    2.1680   -7.0720   23.3700 O   0  0  0  0  0  0  0  0  0  0  0  0
    4.0770   -7.9250   24.9900 O   0  0  0  0  0  0  0  0  0  0  0  0
   10.3330   -0.0010   24.1830 C   0  0  0  0  0  0  0  0  0  0  0  0
   12.1940   -0.8780   22.9230 C   0  0  0  0  0  0  0  0  0  0  0  0
    3.5730    2.6820   23.3850 N   0  0  0  0  0  0  0  0  0  0  0  0
    3.9250    2.1320   21.1290 C   0  0  0  0  0  0  0  0  0  0  0  0
    4.5810    1.6480   18.8110 C   0  0  0  0  0  0  0  0  0  0  0  0
    6.5060    0.4120   18.0340 N   0  0  0  0  0  0  0  0  0  0  0  0
   12.8950   -2.0010   22.2300 C   0  0  0  0  0  0  0  0  0  0  0  0
   10.8290    1.2470   24.2190 C   0  0  0  0  0  0  0  0  0  0  0  0
   12.8080    0.3740   22.9060 C   0  0  0  0  0  0  0  0  0  0  0  0
    1.1910   -7.2300   24.4190 O   0  0  0  0  0  0  0  0  0  0  0  0
    4.6900   -7.2840   26.1270 O   0  0  0  0  0  0  0  0  0  0  0  0
    5.3880    1.1120   17.8200 C   0  0  0  0  0  0  0  0  0  0  0  0
   12.1980    1.4630   23.5150 C   0  0  0  0  0  0  0  0  0  0  0  0
  1  2  1  0
  1  3  2  0
  1  4  1  0
  4  5  1  0
  4  6  1  0
  6  7  1  6
  5  8  1  0
  6  9  1  0
  5 10  1  1
  8 11  1  0
  9 11  1  0
 12  7  1  1
 13 10  1  6
 11 14  1  0
 12 15  1  0
 12 16  1  0
 13 17  1  0
 13 18  1  0
 15 19  2  0
 16 20  1  0
 19 20  1  0
 14 21  1  0
 17 22  1  0
 18 23  2  0
 18 24  1  0
 20 25  1  0
 20 26  1  0
 21 27  2  0
 21 28  1  0
 22 29  1  1
 22 30  1  0
 23 30  1  0
 23 31  1  0
 24 32  2  0
 28 33  1  0
 27 34  1  0
 28 35  2  0
 25 36  1  0
 26 37  1  0
 31 38  2  0
 32 38  1  0
 34 39  2  0
 35 39  1  0
M  END
