x0426_1-x1334_1-x0831_1-x1418_1-x0692_1-x1386_1-x0831_0-x1334_0-x0397_0-x1375_1-x1412_1-x0770_1-x0434_2-x1385_1-x1374_1
     RDKit          3D

 44 50  0  0  0  0  0  0  0  0999 V2000
    3.0980   -8.1720   24.2360 O   0  0  0  0  0  0  0  0  0  0  0  0
    3.4040   -6.9270   24.8470 C   0  0  0  0  0  0  0  0  0  0  0  0
    4.7810   -6.6880   24.6790 O   0  0  0  0  0  0  0  0  0  0  0  0
    5.1470   -6.8060   23.3170 C   0  0  0  0  0  0  0  0  0  0  0  0
    6.0730   -5.7450   22.8410 C   0  0  2  0  0  0  0  0  0  0  0  0
    5.6790   -4.4950   22.2690 C   0  0  2  0  0  0  0  0  0  0  0  0
    6.2790   -5.8460   21.5280 C   0  0  0  0  0  0  0  0  0  0  0  0
    6.4840   -3.2220   22.3630 C   0  0  2  0  0  0  0  0  0  0  0  0
    6.6720   -2.5620   21.0130 N   0  0  0  0  0  0  0  0  0  0  0  0
    7.7010   -3.3680   23.0690 C   0  0  0  0  0  0  0  0  0  0  0  0
    6.3980   -3.3460   19.8610 C   0  0  0  0  0  0  0  0  0  0  0  0
    8.5040   -2.1250   23.1500 N   0  0  0  0  0  0  0  0  0  0  0  0
    7.8860   -1.7390   20.8180 C   0  0  1  0  0  0  0  0  0  0  0  0
    7.3710   -3.0820   18.7090 C   0  0  0  0  0  0  0  0  0  0  0  0
    5.4850   -4.1780   19.7670 O   0  0  0  0  0  0  0  0  0  0  0  0
    9.5800   -2.0170   24.1370 C   0  0  1  0  0  0  0  0  0  0  0  0
    7.6360   -0.3130   20.8060 N   0  0  0  0  0  0  0  0  0  0  0  0
    9.0180   -1.9500   21.8050 C   0  0  0  0  0  0  0  0  0  0  0  0
   10.1650   -3.3820   24.3160 C   0  0  0  0  0  0  0  0  0  0  0  0
    7.3880    0.3290   22.1070 C   0  0  0  0  0  0  0  0  0  0  0  0
    6.6970    0.2800   19.8530 C   0  0  0  0  0  0  0  0  0  0  0  0
   10.5590   -0.8460   23.8600 C   0  0  0  0  0  0  0  0  0  0  0  0
    5.8620    0.5360   22.1040 C   0  0  2  0  0  0  0  0  0  0  0  0
    6.6790    0.4100   18.4980 N   0  0  0  0  0  0  0  0  0  0  0  0
    5.6710    0.7770   20.6200 C   0  0  0  0  0  0  0  0  0  0  0  0
   10.2310    0.4380   24.3030 C   0  0  0  0  0  0  0  0  0  0  0  0
   11.8940   -0.9160   23.1250 C   0  0  0  0  0  0  0  0  0  0  0  0
    9.6160   -4.1850   25.2290 C   0  0  0  0  0  0  0  0  0  0  0  0
    5.2110    1.7240   22.8600 C   0  0  0  0  0  0  0  0  0  0  0  0
   12.4270   -2.2020   22.5600 C   0  0  0  0  0  0  0  0  0  0  0  0
    4.4910    1.4890   20.1130 C   0  0  0  0  0  0  0  0  0  0  0  0
    5.6100    1.0810   17.9690 C   0  0  0  0  0  0  0  0  0  0  0  0
   11.0990    1.5200   24.0550 C   0  0  0  0  0  0  0  0  0  0  0  0
   12.7180    0.1720   22.9110 C   0  0  0  0  0  0  0  0  0  0  0  0
    9.9440   -5.4690   25.4730 C   0  0  0  0  0  0  0  0  0  0  0  0
    8.3560   -3.7540   26.3100 S   0  0  0  0  0  0  0  0  0  0  0  0
    3.7150    1.7340   22.5110 C   0  0  2  0  0  0  0  0  0  0  0  0
    3.4140    1.9960   21.0360 C   0  0  0  0  0  0  0  0  0  0  0  0
    4.4840    1.6630   18.5850 C   0  0  0  0  0  0  0  0  0  0  0  0
   12.3120    1.3960   23.3800 C   0  0  0  0  0  0  0  0  0  0  0  0
    9.2540   -6.1300   26.4910 C   0  0  0  0  0  0  0  0  0  0  0  0
    8.3380   -5.2960   27.0520 C   0  0  0  0  0  0  0  0  0  0  0  0
    3.0680    2.7490   23.3210 N   0  0  0  0  0  0  0  0  0  0  0  0
    7.2610   -5.6520   28.3310 Cl  0  0  0  0  0  0  0  0  0  0  0  0
  1  2  1  0
  2  3  1  0
  3  4  1  0
  5  4  1  6
  5  6  1  0
  5  7  1  0
  6  7  1  6
  6  8  1  0
  8  9  1  0
  8 10  1  6
  9 11  1  0
 10 12  1  0
  9 13  1  0
 11 14  1  0
 11 15  2  0
 12 16  1  0
 13 17  1  1
 12 18  1  0
 13 18  1  0
 16 19  1  6
 17 20  1  0
 17 21  1  0
 16 22  1  0
 23 20  1  6
 21 24  2  0
 21 25  1  0
 23 25  1  0
 22 26  2  0
 22 27  1  0
 19 28  1  0
 23 29  1  0
 27 30  1  0
 25 31  2  0
 24 32  1  0
 26 33  1  0
 27 34  2  0
 28 35  2  0
 28 36  1  0
 29 37  1  0
 31 38  1  0
 37 38  1  0
 31 39  1  0
 32 39  2  0
 33 40  2  0
 34 40  1  0
 35 41  1  0
 36 42  1  0
 41 42  2  0
 37 43  1  1
 42 44  1  0
M  END
