x0426_1-x0978_1-x0831_0-x1334_0-x0434_2-x1334_1
     RDKit          3D

 48 53  0  0  0  0  0  0  0  0999 V2000
    3.9030   -5.0670   23.4280 C   0  0  0  0  0  0  0  0  0  0  0  0
    3.0450   -6.3190   23.3530 C   0  0  2  0  0  0  0  0  0  0  0  0
    1.6730   -5.8330   23.3840 N   0  0  0  0  0  0  0  0  0  0  0  0
    4.4250   -4.3820   22.4580 N   0  0  0  0  0  0  0  0  0  0  0  0
    3.3080   -7.1990   24.5780 C   0  0  1  0  0  0  0  0  0  0  0  0
    5.0970   -3.2120   23.0540 C   0  0  0  0  0  0  0  0  0  0  0  0
    0.7060   -6.3010   22.5360 C   0  0  0  0  0  0  0  0  0  0  0  0
    2.2250   -8.2350   24.6520 C   0  0  0  0  0  0  0  0  0  0  0  0
    4.3930   -7.7520   24.5110 O   0  0  0  0  0  0  0  0  0  0  0  0
    6.4330   -2.7780   22.3750 C   0  0  2  0  0  0  0  0  0  0  0  0
    0.8730   -7.3310   21.8940 O   0  0  0  0  0  0  0  0  0  0  0  0
   -0.5480   -5.4750   22.4620 C   0  0  0  0  0  0  0  0  0  0  0  0
    6.5910   -2.4880   20.9180 N   0  0  0  0  0  0  0  0  0  0  0  0
    7.7080   -3.3260   22.9280 C   0  0  0  0  0  0  0  0  0  0  0  0
    6.3930   -3.3260   19.8360 C   0  0  0  0  0  0  0  0  0  0  0  0
    8.5980   -2.1670   22.8840 N   0  0  0  0  0  0  0  0  0  0  0  0
    7.7630   -1.5940   20.6830 C   0  0  1  0  0  0  0  0  0  0  0  0
    7.3180   -3.0920   18.6520 C   0  0  0  0  0  0  0  0  0  0  0  0
    5.5400   -4.2340   19.7680 O   0  0  0  0  0  0  0  0  0  0  0  0
    9.6980   -1.9860   23.8100 C   0  0  1  0  0  0  0  0  0  0  0  0
    7.5930   -0.1940   20.6310 N   0  0  0  0  0  0  0  0  0  0  0  0
    9.0030   -1.9270   21.5080 C   0  0  0  0  0  0  0  0  0  0  0  0
   10.3440   -3.2110   24.2820 C   0  0  0  0  0  0  0  0  0  0  0  0
    7.4900    0.5660   21.8730 C   0  0  0  0  0  0  0  0  0  0  0  0
    6.6730    0.3740   19.7510 C   0  0  0  0  0  0  0  0  0  0  0  0
   10.6620   -0.7800   23.6290 C   0  0  0  0  0  0  0  0  0  0  0  0
    5.8930    0.8550   22.0270 C   0  0  2  0  0  0  0  0  0  0  0  0
    6.6090    0.4200   18.4100 N   0  0  0  0  0  0  0  0  0  0  0  0
    5.6220    1.0110   20.5690 C   0  0  0  0  0  0  0  0  0  0  0  0
   10.1940    0.5210   24.0590 C   0  0  0  0  0  0  0  0  0  0  0  0
   11.9710   -0.8850   23.0650 C   0  0  0  0  0  0  0  0  0  0  0  0
    9.5770   -4.1390   25.3130 C   0  0  0  0  0  0  0  0  0  0  0  0
    5.4990    2.1780   22.7420 C   0  0  0  0  0  0  0  0  0  0  0  0
   12.5690   -2.1780   22.5690 C   0  0  0  0  0  0  0  0  0  0  0  0
    4.5750    1.6500   20.0250 C   0  0  0  0  0  0  0  0  0  0  0  0
    5.5430    1.0870   17.9100 C   0  0  0  0  0  0  0  0  0  0  0  0
   10.9440    1.6240   23.9520 C   0  0  0  0  0  0  0  0  0  0  0  0
   12.7660    0.2250   22.9440 C   0  0  0  0  0  0  0  0  0  0  0  0
   10.0000   -5.5350   25.5190 C   0  0  0  0  0  0  0  0  0  0  0  0
    8.2460   -3.7380   26.2940 S   0  0  0  0  0  0  0  0  0  0  0  0
    4.0710    2.6310   22.3510 C   0  0  1  0  0  0  0  0  0  0  0  0
    3.5700    2.2500   20.9450 C   0  0  0  0  0  0  0  0  0  0  0  0
    4.5100    1.7110   18.6120 C   0  0  0  0  0  0  0  0  0  0  0  0
   12.2950    1.4520   23.3650 C   0  0  0  0  0  0  0  0  0  0  0  0
    9.1250   -6.1730   26.5690 C   0  0  0  0  0  0  0  0  0  0  0  0
    8.1940   -5.2750   27.0150 C   0  0  0  0  0  0  0  0  0  0  0  0
    3.1310    2.1560   23.3700 N   0  0  0  0  0  0  0  0  0  0  0  0
    7.0240   -5.6100   28.2200 Cl  0  0  0  0  0  0  0  0  0  0  0  0
  2  1  1  1
  2  3  1  0
  1  4  2  3
  2  5  1  0
  4  6  1  0
  3  7  1  0
  5  8  1  6
  5  9  1  0
 10  6  1  6
  7 11  2  0
  7 12  1  0
 10 13  1  0
 10 14  1  0
 13 15  1  0
 14 16  1  0
 13 17  1  0
 15 18  1  0
 15 19  2  0
 16 20  1  0
 17 21  1  1
 16 22  1  0
 17 22  1  0
 20 23  1  6
 21 24  1  0
 21 25  1  0
 20 26  1  0
 27 24  1  6
 25 28  2  0
 25 29  1  0
 27 29  1  0
 26 30  2  0
 26 31  1  0
 23 32  1  0
 27 33  1  0
 31 34  1  0
 29 35  2  0
 28 36  1  0
 30 37  1  0
 31 38  2  0
 32 39  2  0
 32 40  1  0
 33 41  1  0
 35 42  1  0
 41 42  1  0
 35 43  1  0
 36 43  2  0
 37 44  2  0
 38 44  1  0
 39 45  1  0
 40 46  1  0
 45 46  2  0
 41 47  1  1
 46 48  1  0
M  END
