x0426_1-x1418_1-x1334_0-x1412_1-x0397_0-x0692_1-x1385_1-x1375_1-x1334_1-x0770_1-x0831_0-x0434_2
     RDKit          3D

 42 47  0  0  0  0  0  0  0  0999 V2000
    2.6720   -7.7700   23.9090 O   0  0  0  0  0  0  0  0  0  0  0  0
    3.2440   -7.0370   24.9860 C   0  0  0  0  0  0  0  0  0  0  0  0
    4.6240   -6.7910   24.7820 O   0  0  0  0  0  0  0  0  0  0  0  0
    4.9440   -6.9170   23.4130 C   0  0  0  0  0  0  0  0  0  0  0  0
    5.8460   -5.8750   22.8920 C   0  0  2  0  0  0  0  0  0  0  0  0
    5.4750   -4.6530   22.2500 C   0  0  2  0  0  0  0  0  0  0  0  0
    6.1760   -5.9750   21.5880 C   0  0  0  0  0  0  0  0  0  0  0  0
    6.2370   -3.3090   22.3330 C   0  0  1  0  0  0  0  0  0  0  0  0
    7.4850   -3.5360   23.1930 C   0  0  0  0  0  0  0  0  0  0  0  0
    6.7740   -2.7840   21.1020 N   0  0  0  0  0  0  0  0  0  0  0  0
    6.4130   -3.3380   19.8940 C   0  0  0  0  0  0  0  0  0  0  0  0
    8.1350   -2.2930   23.5600 N   0  0  0  0  0  0  0  0  0  0  0  0
    7.2560   -1.4090   21.2580 C   0  0  1  0  0  0  0  0  0  0  0  0
    7.3800   -3.0360   18.7740 C   0  0  0  0  0  0  0  0  0  0  0  0
    5.4260   -4.0650   19.7070 O   0  0  0  0  0  0  0  0  0  0  0  0
    6.0020   -0.4920   21.4010 C   0  0  1  0  0  0  0  0  0  0  0  0
    9.2660   -2.5360   24.4480 C   0  0  2  0  0  0  0  0  0  0  0  0
    8.3730   -1.3840   22.3850 C   0  0  0  0  0  0  0  0  0  0  0  0
    5.8780    0.5800   22.4770 C   0  0  0  0  0  0  0  0  0  0  0  0
   10.6080   -2.4680   23.7570 C   0  0  0  0  0  0  0  0  0  0  0  0
    5.7530    0.2190   20.1050 C   0  0  0  0  0  0  0  0  0  0  0  0
    9.0890   -3.7860   25.3420 C   0  0  0  0  0  0  0  0  0  0  0  0
    4.4050    1.1210   22.5670 C   0  0  1  0  0  0  0  0  0  0  0  0
    4.7090    1.1420   20.0350 C   0  0  0  0  0  0  0  0  0  0  0  0
    6.5000    0.0010   19.0060 C   0  0  0  0  0  0  0  0  0  0  0  0
    9.8220   -4.9110   25.2830 C   0  0  0  0  0  0  0  0  0  0  0  0
    7.8640   -3.8140   26.5570 S   0  0  0  0  0  0  0  0  0  0  0  0
   11.1420   -1.0600   23.6620 C   0  0  0  0  0  0  0  0  0  0  0  0
    4.3040    2.2910   23.4200 N   0  0  0  0  0  0  0  0  0  0  0  0
    3.8060    1.4740   21.1800 C   0  0  0  0  0  0  0  0  0  0  0  0
    4.4400    1.8730   18.7450 C   0  0  0  0  0  0  0  0  0  0  0  0
    6.3930    0.5650   17.7820 N   0  0  0  0  0  0  0  0  0  0  0  0
    9.4000   -5.9070   26.2950 C   0  0  0  0  0  0  0  0  0  0  0  0
    8.2540   -5.3670   27.1060 C   0  0  0  0  0  0  0  0  0  0  0  0
   10.3600    0.0850   24.3080 C   0  0  0  0  0  0  0  0  0  0  0  0
   12.3350   -0.8470   22.9840 C   0  0  0  0  0  0  0  0  0  0  0  0
    7.3680   -6.0470   28.3970 Cl  0  0  0  0  0  0  0  0  0  0  0  0
   13.0730   -1.9760   22.3500 C   0  0  0  0  0  0  0  0  0  0  0  0
    5.4170    1.4560   17.6550 C   0  0  0  0  0  0  0  0  0  0  0  0
   11.0550    1.4360   24.0990 C   0  0  0  0  0  0  0  0  0  0  0  0
   12.9130    0.5160   22.8640 C   0  0  0  0  0  0  0  0  0  0  0  0
   12.2610    1.5940   23.4130 C   0  0  0  0  0  0  0  0  0  0  0  0
  1  2  1  0
  2  3  1  0
  3  4  1  0
  5  4  1  6
  5  6  1  0
  5  7  1  0
  6  7  1  6
  6  8  1  0
  8  9  1  1
  8 10  1  0
 10 11  1  0
  9 12  1  0
 10 13  1  0
 11 14  1  0
 11 15  2  0
 13 16  1  0
 12 17  1  0
 12 18  1  0
 13 18  1  1
 16 19  1  1
 17 20  1  6
 16 21  1  0
 17 22  1  0
 19 23  1  0
 21 24  2  0
 21 25  1  0
 22 26  2  0
 22 27  1  0
 20 28  1  0
 23 29  1  1
 23 30  1  0
 24 30  1  0
 24 31  1  0
 25 32  2  0
 26 33  1  0
 27 34  1  0
 33 34  2  0
 28 35  2  0
 28 36  1  0
 34 37  1  0
 36 38  1  0
 31 39  2  0
 32 39  1  0
 35 40  1  0
 36 41  2  0
 40 42  2  0
 41 42  1  0
M  END
