x0426_1-x1334_1-x1374_1-x1334_0-x1375_1-x0831_0-x0692_1-x1412_1-x0831_1-x1386_1-x0770_1-x0397_0-x1418_1-x0434_2-x1385_1
     RDKit          3D

 45 51  0  0  0  0  0  0  0  0999 V2000
    2.2340   -7.7940   23.3230 O   0  0  0  0  0  0  0  0  0  0  0  0
    2.6190   -7.8600   24.6820 C   0  0  0  0  0  0  0  0  0  0  0  0
    4.0270   -7.8220   24.7490 O   0  0  0  0  0  0  0  0  0  0  0  0
    4.5740   -7.0830   23.6640 C   0  0  0  0  0  0  0  0  0  0  0  0
    4.9850   -5.8490   24.0940 C   0  0  0  0  0  0  0  0  0  0  0  0
    5.9790   -5.3500   23.0790 C   0  0  2  0  0  0  0  0  0  0  0  0
    5.6230   -4.3600   22.2910 C   0  0  2  0  0  0  0  0  0  0  0  0
    6.0620   -5.8960   21.8960 C   0  0  0  0  0  0  0  0  0  0  0  0
    6.5360   -3.1680   22.2960 C   0  0  2  0  0  0  0  0  0  0  0  0
    6.7430   -2.5630   20.9910 N   0  0  0  0  0  0  0  0  0  0  0  0
    7.6780   -3.6700   22.8600 C   0  0  0  0  0  0  0  0  0  0  0  0
    6.4140   -3.3190   19.8520 C   0  0  0  0  0  0  0  0  0  0  0  0
    8.5920   -2.5890   23.2730 N   0  0  0  0  0  0  0  0  0  0  0  0
    7.9290   -1.6990   20.9490 C   0  0  1  0  0  0  0  0  0  0  0  0
    7.3340   -3.0540   18.6690 C   0  0  0  0  0  0  0  0  0  0  0  0
    5.4940   -4.1510   19.7660 O   0  0  0  0  0  0  0  0  0  0  0  0
    9.7120   -3.2030   23.9810 C   0  0  1  0  0  0  0  0  0  0  0  0
    7.6730   -0.2850   20.8930 N   0  0  0  0  0  0  0  0  0  0  0  0
    9.0150   -1.8830   22.0380 C   0  0  0  0  0  0  0  0  0  0  0  0
   10.7350   -2.2920   24.5990 C   0  0  0  0  0  0  0  0  0  0  0  0
    7.2170    0.3690   22.1540 C   0  0  0  0  0  0  0  0  0  0  0  0
    6.7930    0.2340   19.8990 C   0  0  0  0  0  0  0  0  0  0  0  0
    9.2740   -4.1220   25.0920 C   0  0  0  0  0  0  0  0  0  0  0  0
    5.6780    0.3500   22.0770 C   0  0  2  0  0  0  0  0  0  0  0  0
    6.6760    0.5130   18.4170 N   0  0  0  0  0  0  0  0  0  0  0  0
    5.5350    0.6580   20.6070 C   0  0  0  0  0  0  0  0  0  0  0  0
    9.8480   -5.4600   25.3730 C   0  0  0  0  0  0  0  0  0  0  0  0
    8.0320   -3.8120   26.2650 S   0  0  0  0  0  0  0  0  0  0  0  0
   11.1600   -0.9210   24.1180 C   0  0  0  0  0  0  0  0  0  0  0  0
    4.8150    1.2170   23.0130 C   0  0  0  0  0  0  0  0  0  0  0  0
    4.3500    1.2710   20.0470 C   0  0  0  0  0  0  0  0  0  0  0  0
    5.5710    1.0840   17.9320 C   0  0  0  0  0  0  0  0  0  0  0  0
    9.2780   -6.0730   26.4390 C   0  0  0  0  0  0  0  0  0  0  0  0
    8.2650   -5.3240   27.0570 C   0  0  0  0  0  0  0  0  0  0  0  0
   10.4670    0.1670   24.5330 C   0  0  0  0  0  0  0  0  0  0  0  0
   12.2310   -0.8440   23.3040 C   0  0  0  0  0  0  0  0  0  0  0  0
    3.9060    2.2000   22.2650 C   0  0  1  0  0  0  0  0  0  0  0  0
    3.2540    1.6000   21.0040 C   0  0  0  0  0  0  0  0  0  0  0  0
    7.3180   -5.7540   28.4140 Cl  0  0  0  0  0  0  0  0  0  0  0  0
   12.9650   -2.0690   22.8490 C   0  0  0  0  0  0  0  0  0  0  0  0
    4.4650    1.4490   18.7000 C   0  0  0  0  0  0  0  0  0  0  0  0
   10.8910    1.4890   24.0990 C   0  0  0  0  0  0  0  0  0  0  0  0
   12.7100    0.3400   22.8510 C   0  0  0  0  0  0  0  0  0  0  0  0
    2.9280    2.7290   23.1800 N   0  0  0  0  0  0  0  0  0  0  0  0
   12.1170    1.6520   23.1820 C   0  0  0  0  0  0  0  0  0  0  0  0
  1  2  1  0
  2  3  1  0
  3  4  1  0
  4  5  1  0
  6  5  1  1
  6  7  1  0
  6  8  1  0
  7  8  1  6
  7  9  1  0
  9 10  1  0
  9 11  1  6
 10 12  1  0
 11 13  1  0
 10 14  1  0
 12 15  1  0
 12 16  2  0
 13 17  1  0
 14 18  1  1
 13 19  1  0
 14 19  1  0
 17 20  1  1
 18 21  1  0
 18 22  1  0
 17 23  1  0
 24 21  1  1
 22 25  2  0
 22 26  1  0
 24 26  1  0
 23 27  2  0
 23 28  1  0
 20 29  1  0
 24 30  1  0
 26 31  2  0
 25 32  1  0
 27 33  1  0
 28 34  1  0
 33 34  2  0
 29 35  2  0
 29 36  1  0
 30 37  1  0
 31 38  1  0
 37 38  1  0
 34 39  1  0
 36 40  1  0
 31 41  1  0
 32 41  2  0
 35 42  1  0
 36 43  2  0
 37 44  1  1
 42 45  2  0
 43 45  1  0
M  END
