x0434_2-x1334_1-x1334_0-x0397_0-x0692_1-x0770_1-x1385_1-x1374_1-x0540_3-x1412_1-x0831_0-x1418_0
     RDKit          3D

 46 52  0  0  0  0  0  0  0  0999 V2000
    2.0080   -7.2640   23.8070 O   0  0  0  0  0  0  0  0  0  0  0  0
    2.4540   -8.0220   24.9140 C   0  0  0  0  0  0  0  0  0  0  0  0
    3.8650   -8.0440   24.8670 O   0  0  0  0  0  0  0  0  0  0  0  0
    4.3590   -7.2490   23.8000 C   0  0  0  0  0  0  0  0  0  0  0  0
    4.7050   -6.0260   24.2580 C   0  0  0  0  0  0  0  0  0  0  0  0
    5.6060   -5.4560   23.2190 C   0  0  2  0  0  0  0  0  0  0  0  0
    5.2360   -4.4250   22.2550 C   0  0  2  0  0  0  0  0  0  0  0  0
    5.7320   -5.9820   21.8940 C   0  0  0  0  0  0  0  0  0  0  0  0
    6.0810   -3.1880   22.4290 C   0  0  2  0  0  0  0  0  0  0  0  0
    6.4900   -2.5520   21.1900 N   0  0  0  0  0  0  0  0  0  0  0  0
    7.2980   -3.7740   23.1420 C   0  0  0  0  0  0  0  0  0  0  0  0
    6.3480   -3.2720   19.9580 C   0  0  0  0  0  0  0  0  0  0  0  0
    8.1530   -2.7220   23.6130 N   0  0  0  0  0  0  0  0  0  0  0  0
    7.6190   -1.5810   21.4000 C   0  0  1  0  0  0  0  0  0  0  0  0
    7.3300   -2.9740   18.8330 C   0  0  0  0  0  0  0  0  0  0  0  0
    5.4760   -4.1400   19.7750 O   0  0  0  0  0  0  0  0  0  0  0  0
    7.1520   -0.1380   21.7130 C   0  0  2  0  0  0  0  0  0  0  0  0
    9.4360   -3.2810   24.0040 C   0  0  1  0  0  0  0  0  0  0  0  0
    8.5730   -1.7930   22.5480 C   0  0  2  0  0  0  0  0  0  0  0  0
    5.6330    0.2570   21.7740 C   0  0  1  0  0  0  0  0  0  0  0  0
   10.6350   -2.5920   23.4050 C   0  0  1  0  0  0  0  0  0  0  0  0
    7.7520    0.5360   20.7110 N   0  0  0  0  0  0  0  0  0  0  0  0
    9.9280   -2.3610   22.1160 C   0  0  0  0  0  0  0  0  0  0  0  0
    9.1890   -4.1720   25.1950 C   0  0  0  0  0  0  0  0  0  0  0  0
    5.3730    1.4910   22.6670 C   0  0  0  0  0  0  0  0  0  0  0  0
    9.8950   -5.4400   25.4150 C   0  0  0  0  0  0  0  0  0  0  0  0
    7.9990   -3.8820   26.4270 S   0  0  0  0  0  0  0  0  0  0  0  0
   11.0740   -1.1520   23.5580 C   0  0  0  0  0  0  0  0  0  0  0  0
    6.8120    0.5660   19.7770 C   0  0  0  0  0  0  0  0  0  0  0  0
    5.4640    0.4310   20.3360 C   0  0  0  0  0  0  0  0  0  0  0  0
    4.1000    2.1310   22.3820 N   0  0  0  0  0  0  0  0  0  0  0  0
    9.4160   -6.1200   26.5820 C   0  0  0  0  0  0  0  0  0  0  0  0
    8.2960   -5.3300   27.2730 C   0  0  0  0  0  0  0  0  0  0  0  0
   10.3830   -0.1730   24.2430 C   0  0  0  0  0  0  0  0  0  0  0  0
   12.2640   -0.8130   22.9100 C   0  0  0  0  0  0  0  0  0  0  0  0
    6.9910    0.7060   18.4520 C   0  0  0  0  0  0  0  0  0  0  0  0
    4.4140    0.4810   19.4710 C   0  0  0  0  0  0  0  0  0  0  0  0
    3.0300    2.2030   23.3960 C   0  0  0  0  0  0  0  0  0  0  0  0
    7.3850   -5.7170   28.6590 Cl  0  0  0  0  0  0  0  0  0  0  0  0
   13.0530   -1.8260   22.1400 C   0  0  0  0  0  0  0  0  0  0  0  0
   10.9120    1.1900   24.2520 C   0  0  0  0  0  0  0  0  0  0  0  0
   12.7310    0.4880   22.9590 C   0  0  0  0  0  0  0  0  0  0  0  0
    5.9630    0.7410   17.6210 N   0  0  0  0  0  0  0  0  0  0  0  0
    4.7330    0.6350   18.1480 C   0  0  0  0  0  0  0  0  0  0  0  0
    2.9470    1.5000   24.4010 O   0  0  0  0  0  0  0  0  0  0  0  0
   12.0500    1.5290   23.6330 C   0  0  0  0  0  0  0  0  0  0  0  0
  1  2  1  0
  2  3  1  0
  3  4  1  0
  4  5  1  0
  6  5  1  1
  6  7  1  0
  6  8  1  0
  7  8  1  6
  7  9  1  0
  9 10  1  0
  9 11  1  6
 10 12  1  0
 11 13  1  0
 14 10  1  1
 12 15  1  0
 12 16  2  0
 14 17  1  0
 13 18  1  0
 13 19  1  0
 14 19  1  0
 17 20  1  0
 18 21  1  0
 17 22  1  6
 19 23  1  6
 21 23  1  0
 18 24  1  1
 20 25  1  1
 24 26  2  0
 24 27  1  0
 21 28  1  1
 22 29  1  0
 20 30  1  0
 29 30  2  0
 25 31  1  0
 26 32  1  0
 27 33  1  0
 32 33  2  0
 28 34  2  0
 28 35  1  0
 29 36  1  0
 30 37  1  0
 31 38  1  0
 33 39  1  0
 35 40  1  0
 34 41  1  0
 35 42  2  0
 36 43  2  0
 37 44  2  0
 43 44  1  0
 38 45  2  0
 41 46  2  0
 42 46  1  0
M  END
