x0434_2-x1412_1-x0831_0-x1418_1-x1386_1-x1334_0-x0692_1-x0831_1-x1385_1-x0770_1-x1374_1-x1334_1-x0397_0
     RDKit          3D

 39 43  0  0  0  0  0  0  0  0999 V2000
    2.0360   -7.2000   23.4380 O   0  0  0  0  0  0  0  0  0  0  0  0
    2.3600   -7.6710   24.7350 C   0  0  0  0  0  0  0  0  0  0  0  0
    3.7410   -7.9880   24.7850 O   0  0  0  0  0  0  0  0  0  0  0  0
    4.4570   -7.2170   23.8470 C   0  0  0  0  0  0  0  0  0  0  0  0
    4.8320   -6.1120   24.4370 C   0  0  0  0  0  0  0  0  0  0  0  0
    5.9710   -5.5880   23.6210 C   0  0  2  0  0  0  0  0  0  0  0  0
    5.6820   -4.6640   22.5870 C   0  0  2  0  0  0  0  0  0  0  0  0
    6.4890   -6.1230   22.3640 C   0  0  0  0  0  0  0  0  0  0  0  0
    6.6210   -3.4400   22.5750 C   0  0  2  0  0  0  0  0  0  0  0  0
    6.6610   -2.7270   21.2920 N   0  0  0  0  0  0  0  0  0  0  0  0
    7.9330   -3.7900   22.9990 C   0  0  0  0  0  0  0  0  0  0  0  0
    6.4320   -3.2920   20.0020 C   0  0  0  0  0  0  0  0  0  0  0  0
    8.7600   -2.5780   23.2710 N   0  0  0  0  0  0  0  0  0  0  0  0
    7.3670   -1.4660   21.5730 C   0  0  2  0  0  0  0  0  0  0  0  0
    7.3700   -2.9890   18.8430 C   0  0  0  0  0  0  0  0  0  0  0  0
    5.4930   -4.0900   19.7700 O   0  0  0  0  0  0  0  0  0  0  0  0
   10.0960   -2.6580   23.5750 C   0  0  2  0  0  0  0  0  0  0  0  0
    7.6230   -0.7270   20.3810 N   0  0  0  0  0  0  0  0  0  0  0  0
    8.7640   -1.6970   22.1300 C   0  0  0  0  0  0  0  0  0  0  0  0
   10.4800   -3.1260   24.9150 C   0  0  0  0  0  0  0  0  0  0  0  0
   10.7640   -1.2610   23.5500 C   0  0  0  0  0  0  0  0  0  0  0  0
    6.7090    0.0320   19.7130 C   0  0  0  0  0  0  0  0  0  0  0  0
   10.2190   -0.1420   24.1800 C   0  0  0  0  0  0  0  0  0  0  0  0
   12.1270   -0.9460   22.8270 C   0  0  0  0  0  0  0  0  0  0  0  0
    9.6150   -4.0600   25.6900 C   0  0  0  0  0  0  0  0  0  0  0  0
    7.0100    0.1660   18.4460 C   0  0  0  0  0  0  0  0  0  0  0  0
    5.5640    0.6260   20.2730 C   0  0  0  0  0  0  0  0  0  0  0  0
   12.8750   -2.0040   22.0830 C   0  0  0  0  0  0  0  0  0  0  0  0
   10.7760    1.1440   24.1940 C   0  0  0  0  0  0  0  0  0  0  0  0
   12.6980    0.3100   22.8380 C   0  0  0  0  0  0  0  0  0  0  0  0
   10.0060   -5.3890   25.7820 C   0  0  0  0  0  0  0  0  0  0  0  0
    8.1440   -3.7900   26.5850 S   0  0  0  0  0  0  0  0  0  0  0  0
    6.2080    0.9390   17.5200 N   0  0  0  0  0  0  0  0  0  0  0  0
    4.6860    1.4010   19.5250 C   0  0  0  0  0  0  0  0  0  0  0  0
   11.9710    1.4380   23.5680 C   0  0  0  0  0  0  0  0  0  0  0  0
    9.1590   -6.0760   26.5570 C   0  0  0  0  0  0  0  0  0  0  0  0
    8.1130   -5.4050   27.0890 C   0  0  0  0  0  0  0  0  0  0  0  0
    5.0040    1.5960   18.0500 C   0  0  0  0  0  0  0  0  0  0  0  0
    6.8820   -5.9730   28.1300 Cl  0  0  0  0  0  0  0  0  0  0  0  0
  1  2  1  0
  2  3  1  0
  3  4  1  0
  4  5  1  0
  6  5  1  6
  6  7  1  0
  6  8  1  0
  7  8  1  6
  7  9  1  0
  9 10  1  0
  9 11  1  6
 10 12  1  0
 11 13  1  0
 10 14  1  0
 12 15  1  0
 12 16  2  0
 13 17  1  0
 14 18  1  6
 13 19  1  0
 14 19  1  0
 17 20  1  1
 17 21  1  0
 18 22  1  0
 21 23  2  0
 21 24  1  0
 20 25  1  0
 22 26  2  0
 22 27  1  0
 24 28  1  0
 23 29  1  0
 24 30  2  0
 25 31  2  0
 25 32  1  0
 26 33  1  0
 27 34  2  0
 29 35  2  0
 30 35  1  0
 31 36  1  0
 32 37  1  0
 36 37  2  0
 33 38  2  0
 34 38  1  0
 37 39  1  0
M  END
