x0434_1-x1380_1
     RDKit          3D

 21 22  0  0  0  0  0  0  0  0999 V2000
    5.9290   -3.2480   25.3630 C   0  0  0  0  0  0  0  0  0  0  0  0
    6.1450   -3.7310   23.9950 C   0  0  1  0  0  0  0  0  0  0  0  0
    7.5160   -3.3270   23.5810 C   0  0  0  0  0  0  0  0  0  0  0  0
    4.8220   -2.9820   25.8210 O   0  0  0  0  0  0  0  0  0  0  0  0
    5.9310   -5.2140   23.6370 C   0  0  0  0  0  0  0  0  0  0  0  0
    6.5850   -5.4640   22.4900 C   0  0  0  0  0  0  0  0  0  0  0  0
    7.4170   -3.1070   22.2390 C   0  0  2  0  0  0  0  0  0  0  0  0
    6.6070   -1.7820   22.0560 C   0  0  0  0  0  0  0  0  0  0  0  0
    6.6540   -4.2440   21.7070 N   0  0  0  0  0  0  0  0  0  0  0  0
    6.2230   -4.1860   20.3710 C   0  0  0  0  0  0  0  0  0  0  0  0
    7.2450   -0.7770   21.1990 N   0  0  0  0  0  0  0  0  0  0  0  0
    6.9940   -3.2990   19.3920 C   0  0  0  0  0  0  0  0  0  0  0  0
    5.2930   -4.8650   19.9750 O   0  0  0  0  0  0  0  0  0  0  0  0
    8.6340   -0.5780   21.4160 C   0  0  0  0  0  0  0  0  0  0  0  0
    6.5110   -0.0360   20.1670 C   0  0  0  0  0  0  0  0  0  0  0  0
    9.2900    0.6880   21.5020 O   0  0  0  0  0  0  0  0  0  0  0  0
    6.9760   -0.1150   18.7170 C   0  0  0  0  0  0  0  0  0  0  0  0
    5.3940    0.7440   20.5060 C   0  0  0  0  0  0  0  0  0  0  0  0
    6.2940    0.6150   17.6500 N   0  0  0  0  0  0  0  0  0  0  0  0
    4.7630    1.4620   19.2990 C   0  0  0  0  0  0  0  0  0  0  0  0
    5.1510    1.4260   17.9920 C   0  0  0  0  0  0  0  0  0  0  0  0
  2  1  1  1
  2  3  1  0
  1  4  2  0
  2  5  1  0
  5  6  1  0
  3  7  1  0
  7  8  1  1
  6  9  1  0
  7  9  1  0
  9 10  1  0
  8 11  1  0
 10 12  1  0
 10 13  2  0
 11 14  1  0
 11 15  1  0
 14 16  2  0
 15 17  2  0
 15 18  1  0
 17 19  1  0
 18 20  2  0
 19 21  2  0
 20 21  1  0
M  END
