x0434_1-x0981_1-x1412_1-x0831_0
     RDKit          3D

 38 40  0  0  0  0  0  0  0  0999 V2000
    4.1180   -5.9530   23.0810 C   0  0  0  0  0  0  0  0  0  0  0  0
    2.6900   -6.1990   23.5410 C   0  0  1  0  0  0  0  0  0  0  0  0
    2.3770   -7.4220   22.8130 N   0  0  0  0  0  0  0  0  0  0  0  0
    5.0030   -5.1580   23.5050 N   0  0  0  0  0  0  0  0  0  0  0  0
    2.6890   -6.2640   24.9520 C   0  0  0  0  0  0  0  0  0  0  0  0
    6.2870   -5.1600   22.8270 C   0  0  0  0  0  0  0  0  0  0  0  0
    1.2250   -7.5000   22.0760 C   0  0  0  0  0  0  0  0  0  0  0  0
    3.1010   -7.6750   25.3180 C   0  0  0  0  0  0  0  0  0  0  0  0
    6.6550   -3.6910   22.7060 C   0  0  2  0  0  0  0  0  0  0  0  0
    1.1310   -8.7470   21.2510 C   0  0  0  0  0  0  0  0  0  0  0  0
    0.3610   -6.6290   22.0690 O   0  0  0  0  0  0  0  0  0  0  0  0
    2.4890   -8.2860   26.3700 N   0  0  0  0  0  0  0  0  0  0  0  0
    3.9590   -8.2190   24.6610 O   0  0  0  0  0  0  0  0  0  0  0  0
    6.5100   -3.0990   21.3790 N   0  0  0  0  0  0  0  0  0  0  0  0
    7.9490   -3.5690   23.1710 C   0  0  0  0  0  0  0  0  0  0  0  0
    6.2530   -3.6160   20.1100 C   0  0  0  0  0  0  0  0  0  0  0  0
    8.5020   -2.1940   23.0460 N   0  0  0  0  0  0  0  0  0  0  0  0
    7.0190   -1.7700   21.3500 C   0  0  0  0  0  0  0  0  0  0  0  0
    7.1320   -3.1180   18.9770 C   0  0  0  0  0  0  0  0  0  0  0  0
    5.3710   -4.4390   19.8660 O   0  0  0  0  0  0  0  0  0  0  0  0
    9.9360   -2.2660   23.4400 C   0  0  0  0  0  0  0  0  0  0  0  0
    8.3580   -1.7500   21.6440 C   0  0  1  0  0  0  0  0  0  0  0  0
    8.5440   -0.2410   21.4850 C   0  0  0  0  0  0  0  0  0  0  0  0
   10.7490   -0.9970   23.2430 C   0  0  0  0  0  0  0  0  0  0  0  0
    9.6050    0.3340   21.4740 O   0  0  0  0  0  0  0  0  0  0  0  0
    7.3390    0.3780   21.3450 N   0  0  0  0  0  0  0  0  0  0  0  0
   10.1450    0.2220   23.2260 C   0  0  0  0  0  0  0  0  0  0  0  0
   12.1450   -1.0270   23.0640 C   0  0  0  0  0  0  0  0  0  0  0  0
   12.9180   -2.3050   23.0510 C   0  0  0  0  0  0  0  0  0  0  0  0
    6.6670    0.6120   20.2100 C   0  0  0  0  0  0  0  0  0  0  0  0
   10.8670    1.3790   23.0330 C   0  0  0  0  0  0  0  0  0  0  0  0
   12.8490    0.1530   22.8890 C   0  0  0  0  0  0  0  0  0  0  0  0
    6.9650    0.1480   18.9210 C   0  0  0  0  0  0  0  0  0  0  0  0
    5.5190    1.4090   20.2570 C   0  0  0  0  0  0  0  0  0  0  0  0
   12.2550    1.4060   22.8660 C   0  0  0  0  0  0  0  0  0  0  0  0
    6.2740    0.4180   17.7950 N   0  0  0  0  0  0  0  0  0  0  0  0
    4.7770    1.7060   19.1290 C   0  0  0  0  0  0  0  0  0  0  0  0
    5.1970    1.1930   17.9210 C   0  0  0  0  0  0  0  0  0  0  0  0
  2  1  1  6
  2  3  1  0
  1  4  2  3
  2  5  1  0
  4  6  1  0
  3  7  1  0
  5  8  1  0
  9  6  1  6
  7 10  1  0
  7 11  2  0
  8 12  1  0
  8 13  2  0
  9 14  1  0
  9 15  1  0
 14 16  1  0
 15 17  1  0
 14 18  1  0
 16 19  1  0
 16 20  2  0
 17 21  1  0
 17 22  1  0
 18 22  1  0
 22 23  1  1
 21 24  1  0
 23 25  2  0
 23 26  1  0
 24 27  2  0
 24 28  1  0
 28 29  1  0
 26 30  1  0
 27 31  1  0
 28 32  2  0
 30 33  2  0
 30 34  1  0
 31 35  2  0
 32 35  1  0
 33 36  1  0
 34 37  2  0
 36 38  2  0
 37 38  1  0
M  END
