x0434_2-x1334_1-x1386_1-x1374_1-x1334_0-x0397_0-x0692_1-x1385_1-x1412_1-x1418_1-x0831_0-x0770_1-x0831_1
     RDKit          3D

 39 43  0  0  0  0  0  0  0  0999 V2000
    2.3650   -7.5810   23.2400 O   0  0  0  0  0  0  0  0  0  0  0  0
    2.6820   -7.7820   24.5990 C   0  0  0  0  0  0  0  0  0  0  0  0
    4.0890   -7.8560   24.7080 O   0  0  0  0  0  0  0  0  0  0  0  0
    4.7320   -7.0930   23.6920 C   0  0  0  0  0  0  0  0  0  0  0  0
    5.1050   -5.8820   24.2300 C   0  0  0  0  0  0  0  0  0  0  0  0
    6.0710   -5.3090   23.2420 C   0  0  2  0  0  0  0  0  0  0  0  0
    5.5630   -4.3300   22.2490 C   0  0  2  0  0  0  0  0  0  0  0  0
    6.2920   -5.8580   21.9370 C   0  0  0  0  0  0  0  0  0  0  0  0
    6.2320   -2.9780   22.2040 C   0  0  2  0  0  0  0  0  0  0  0  0
    6.9730   -2.8390   21.1130 N   0  0  0  0  0  0  0  0  0  0  0  0
    7.0830   -2.7830   23.5190 C   0  0  0  0  0  0  0  0  0  0  0  0
    6.5260   -3.3750   19.9160 C   0  0  0  0  0  0  0  0  0  0  0  0
    8.4620   -2.3000   23.3800 N   0  0  0  0  0  0  0  0  0  0  0  0
    7.7710   -1.6990   21.0940 C   0  0  1  0  0  0  0  0  0  0  0  0
    7.3860   -3.0460   18.7310 C   0  0  0  0  0  0  0  0  0  0  0  0
    5.5280   -4.1160   19.7660 O   0  0  0  0  0  0  0  0  0  0  0  0
    9.4400   -3.2920   23.7420 C   0  0  1  0  0  0  0  0  0  0  0  0
    6.8140   -0.6070   21.2960 N   0  0  0  0  0  0  0  0  0  0  0  0
    8.8810   -1.6970   22.1230 C   0  0  0  0  0  0  0  0  0  0  0  0
   10.8610   -2.8350   24.0030 C   0  0  0  0  0  0  0  0  0  0  0  0
    9.0510   -4.1080   24.9740 C   0  0  0  0  0  0  0  0  0  0  0  0
    6.2500    0.0550   20.2040 C   0  0  0  0  0  0  0  0  0  0  0  0
    9.7260   -5.3870   25.2710 C   0  0  0  0  0  0  0  0  0  0  0  0
    7.8990   -3.7950   26.1650 S   0  0  0  0  0  0  0  0  0  0  0  0
   11.1000   -1.3330   23.8860 C   0  0  0  0  0  0  0  0  0  0  0  0
    6.8960    0.0030   18.8580 C   0  0  0  0  0  0  0  0  0  0  0  0
    5.0660    0.7930   20.3090 C   0  0  0  0  0  0  0  0  0  0  0  0
    9.2210   -6.0420   26.5080 C   0  0  0  0  0  0  0  0  0  0  0  0
    8.2190   -5.2520   27.0680 C   0  0  0  0  0  0  0  0  0  0  0  0
   10.3000   -0.3910   24.4990 C   0  0  0  0  0  0  0  0  0  0  0  0
   12.2790   -0.8170   23.0670 C   0  0  0  0  0  0  0  0  0  0  0  0
    6.4170    0.6200   17.7680 N   0  0  0  0  0  0  0  0  0  0  0  0
    4.5840    1.4240   19.1550 C   0  0  0  0  0  0  0  0  0  0  0  0
    7.3270   -5.5820   28.4860 Cl  0  0  0  0  0  0  0  0  0  0  0  0
   13.1350   -1.8270   22.3810 C   0  0  0  0  0  0  0  0  0  0  0  0
   10.5980    1.0730   24.3570 C   0  0  0  0  0  0  0  0  0  0  0  0
   12.6040    0.6760   22.9290 C   0  0  0  0  0  0  0  0  0  0  0  0
    5.2810    1.3130   17.9310 C   0  0  0  0  0  0  0  0  0  0  0  0
   11.6600    1.6080   23.6390 C   0  0  0  0  0  0  0  0  0  0  0  0
  1  2  1  0
  2  3  1  0
  3  4  1  0
  4  5  1  0
  6  5  1  1
  6  7  1  0
  6  8  1  0
  7  8  1  6
  7  9  1  0
  9 10  1  0
  9 11  1  1
 10 12  1  0
 11 13  1  0
 10 14  1  0
 12 15  1  0
 12 16  2  0
 13 17  1  0
 14 18  1  1
 13 19  1  0
 14 19  1  0
 17 20  1  1
 17 21  1  0
 18 22  1  0
 21 23  2  0
 21 24  1  0
 20 25  1  0
 22 26  2  0
 22 27  1  0
 23 28  1  0
 24 29  1  0
 28 29  2  0
 25 30  2  0
 25 31  1  0
 26 32  1  0
 27 33  2  0
 29 34  1  0
 31 35  1  0
 30 36  1  0
 31 37  2  0
 32 38  2  0
 33 38  1  0
 36 39  2  0
 37 39  1  0
M  END
