x0434_2-x0831_0-x0981_1-x1412_0-x1412_1
     RDKit          3D

 44 47  0  0  0  0  0  0  0  0999 V2000
    4.0580   -5.8820   22.9790 C   0  0  0  0  0  0  0  0  0  0  0  0
    2.6390   -6.1950   23.4910 C   0  0  1  0  0  0  0  0  0  0  0  0
    2.3320   -7.4370   22.8100 N   0  0  0  0  0  0  0  0  0  0  0  0
    4.8210   -4.6530   23.0310 N   0  0  0  0  0  0  0  0  0  0  0  0
    2.5750   -6.3130   25.0280 C   0  0  0  0  0  0  0  0  0  0  0  0
    6.1290   -4.7420   22.4180 C   0  0  0  0  0  0  0  0  0  0  0  0
    1.2010   -7.5310   22.0580 C   0  0  0  0  0  0  0  0  0  0  0  0
    3.0630   -7.7220   25.3450 C   0  0  0  0  0  0  0  0  0  0  0  0
    6.7430   -3.3500   22.3850 C   0  0  2  0  0  0  0  0  0  0  0  0
    1.1350   -8.7770   21.2240 C   0  0  0  0  0  0  0  0  0  0  0  0
    0.3300   -6.6660   22.0520 O   0  0  0  0  0  0  0  0  0  0  0  0
    2.4470   -8.3620   26.3780 N   0  0  0  0  0  0  0  0  0  0  0  0
    3.9520   -8.2230   24.7010 O   0  0  0  0  0  0  0  0  0  0  0  0
    6.8380   -2.6940   21.0530 N   0  0  0  0  0  0  0  0  0  0  0  0
    7.9650   -3.3470   23.0610 C   0  0  0  0  0  0  0  0  0  0  0  0
    6.4460   -3.3300   19.8760 C   0  0  0  0  0  0  0  0  0  0  0  0
    8.6520   -2.0600   23.0340 N   0  0  0  0  0  0  0  0  0  0  0  0
    7.8320   -1.6200   20.9220 C   0  0  1  0  0  0  0  0  0  0  0  0
    7.3350   -3.0450   18.6890 C   0  0  0  0  0  0  0  0  0  0  0  0
    5.4800   -4.1040   19.7380 O   0  0  0  0  0  0  0  0  0  0  0  0
    9.7100   -1.8070   24.0290 C   0  0  2  0  0  0  0  0  0  0  0  0
    7.1030   -0.4050   21.1700 N   0  0  0  0  0  0  0  0  0  0  0  0
    8.9360   -1.7210   21.6680 C   0  0  0  0  0  0  0  0  0  0  0  0
    9.0840   -1.3740   25.3700 C   0  0  0  0  0  0  0  0  0  0  0  0
   10.7370   -0.7350   23.6490 C   0  0  0  0  0  0  0  0  0  0  0  0
    6.3860    0.2200   20.1480 C   0  0  0  0  0  0  0  0  0  0  0  0
    7.9020   -2.2860   25.6450 C   0  0  0  0  0  0  0  0  0  0  0  0
   10.3390    0.4480   24.1390 C   0  0  0  0  0  0  0  0  0  0  0  0
   12.0450   -0.9130   22.8580 C   0  0  0  0  0  0  0  0  0  0  0  0
    6.9120    0.1170   18.8610 C   0  0  0  0  0  0  0  0  0  0  0  0
    5.2100    0.9220   20.3330 C   0  0  0  0  0  0  0  0  0  0  0  0
   12.5300   -2.2050   22.2840 C   0  0  0  0  0  0  0  0  0  0  0  0
    6.7810   -1.9050   25.4220 O   0  0  0  0  0  0  0  0  0  0  0  0
   11.1560    1.6860   23.9480 C   0  0  0  0  0  0  0  0  0  0  0  0
   12.8900    0.3650   22.6800 C   0  0  0  0  0  0  0  0  0  0  0  0
    8.2670   -3.6500   26.2110 C   0  0  0  0  0  0  0  0  0  0  0  0
    6.3750    0.6610   17.7580 N   0  0  0  0  0  0  0  0  0  0  0  0
    4.6580    1.4760   19.2020 C   0  0  0  0  0  0  0  0  0  0  0  0
   12.3640    1.6360   23.2600 C   0  0  0  0  0  0  0  0  0  0  0  0
    9.0470   -4.6110   25.5980 C   0  0  0  0  0  0  0  0  0  0  0  0
    7.7680   -4.2490   27.7850 S   0  0  0  0  0  0  0  0  0  0  0  0
    5.2290    1.3480   17.9520 C   0  0  0  0  0  0  0  0  0  0  0  0
    9.2450   -5.7440   26.3140 C   0  0  0  0  0  0  0  0  0  0  0  0
    8.6020   -5.7290   27.5740 C   0  0  0  0  0  0  0  0  0  0  0  0
  2  1  1  1
  2  3  1  0
  1  4  2  3
  2  5  1  0
  4  6  1  0
  3  7  1  0
  5  8  1  0
  9  6  1  6
  7 10  1  0
  7 11  2  0
  8 12  1  0
  8 13  2  0
  9 14  1  0
  9 15  1  0
 14 16  1  0
 15 17  1  0
 14 18  1  0
 16 19  1  0
 16 20  2  0
 17 21  1  0
 18 22  1  1
 17 23  1  0
 18 23  1  0
 21 24  1  1
 21 25  1  0
 22 26  1  0
 24 27  1  0
 25 28  2  0
 25 29  1  0
 26 30  2  0
 26 31  1  0
 29 32  1  0
 27 33  2  0
 28 34  1  0
 29 35  2  0
 27 36  1  0
 30 37  1  0
 31 38  2  0
 34 39  2  0
 35 39  1  0
 36 40  2  0
 36 41  1  0
 37 42  2  0
 38 42  1  0
 40 43  1  0
 41 44  1  0
 43 44  2  0
M  END
