x0434_2-x0831_0-x0770_1-x1334_0-x0692_1-x1418_1-x0397_0-x0831_1-x1412_1-x1334_1-x1374_1-x0426_1-x1386_1-x1385_1
     RDKit          3D

 44 49  0  0  0  0  0  0  0  0999 V2000
    2.2960   -7.7280   23.2510 O   0  0  0  0  0  0  0  0  0  0  0  0
    2.4920   -8.0010   24.6220 C   0  0  0  0  0  0  0  0  0  0  0  0
    3.8840   -7.9840   24.8550 O   0  0  0  0  0  0  0  0  0  0  0  0
    4.5490   -7.1820   23.8870 C   0  0  0  0  0  0  0  0  0  0  0  0
    5.0180   -6.0410   24.4510 C   0  0  0  0  0  0  0  0  0  0  0  0
    6.0830   -5.5550   23.5270 C   0  0  2  0  0  0  0  0  0  0  0  0
    5.8480   -4.6130   22.4370 C   0  0  2  0  0  0  0  0  0  0  0  0
    6.2570   -6.1970   22.2460 C   0  0  0  0  0  0  0  0  0  0  0  0
    6.8320   -3.4970   22.1580 C   0  0  1  0  0  0  0  0  0  0  0  0
    6.3250   -2.6050   21.1240 N   0  0  0  0  0  0  0  0  0  0  0  0
    7.2360   -2.7310   23.4560 C   0  0  0  0  0  0  0  0  0  0  0  0
    6.1520   -3.2550   19.8980 C   0  0  0  0  0  0  0  0  0  0  0  0
    8.2260   -1.6200   23.2520 N   0  0  0  0  0  0  0  0  0  0  0  0
    7.1070   -1.3550   21.0980 C   0  0  1  0  0  0  0  0  0  0  0  0
    7.1230   -2.9550   18.7720 C   0  0  0  0  0  0  0  0  0  0  0  0
    5.2810   -4.1120   19.7120 O   0  0  0  0  0  0  0  0  0  0  0  0
    6.2800   -0.0320   21.4730 C   0  0  1  0  0  0  0  0  0  0  0  0
    9.5020   -1.8700   23.9440 C   0  0  1  0  0  0  0  0  0  0  0  0
    8.4060   -1.5030   21.8320 C   0  0  0  0  0  0  0  0  0  0  0  0
    4.9960   -0.3160   22.3000 C   0  0  0  0  0  0  0  0  0  0  0  0
    9.9580   -3.3380   23.8810 C   0  0  0  0  0  0  0  0  0  0  0  0
    7.1770    1.0210   22.1480 C   0  0  0  0  0  0  0  0  0  0  0  0
    5.8510    0.5610   20.1480 C   0  0  0  0  0  0  0  0  0  0  0  0
   10.5690   -0.8070   23.6470 C   0  0  0  0  0  0  0  0  0  0  0  0
    3.9700    0.8740   22.4410 C   0  0  1  0  0  0  0  0  0  0  0  0
    4.6740    1.3110   20.0390 C   0  0  0  0  0  0  0  0  0  0  0  0
    6.6330    0.3710   18.9940 C   0  0  0  0  0  0  0  0  0  0  0  0
   10.2510    0.4820   24.2490 C   0  0  0  0  0  0  0  0  0  0  0  0
   11.7310   -0.9050   22.9200 C   0  0  0  0  0  0  0  0  0  0  0  0
    9.4790   -4.2460   24.9610 C   0  0  0  0  0  0  0  0  0  0  0  0
    4.3480    1.8390   23.4540 N   0  0  0  0  0  0  0  0  0  0  0  0
    3.7090    1.6130   21.1320 C   0  0  0  0  0  0  0  0  0  0  0  0
   12.1510   -2.1590   22.2470 C   0  0  0  0  0  0  0  0  0  0  0  0
    4.3740    1.8600   18.6990 C   0  0  0  0  0  0  0  0  0  0  0  0
    6.4600    0.8080   17.7340 N   0  0  0  0  0  0  0  0  0  0  0  0
   11.0210    1.5470   24.1260 C   0  0  0  0  0  0  0  0  0  0  0  0
   12.6220    0.1530   22.7420 C   0  0  0  0  0  0  0  0  0  0  0  0
    9.8880   -5.4910   25.2820 C   0  0  0  0  0  0  0  0  0  0  0  0
    8.2110   -3.7710   26.0670 S   0  0  0  0  0  0  0  0  0  0  0  0
    5.2590    1.6140   17.5760 C   0  0  0  0  0  0  0  0  0  0  0  0
   12.2550    1.3500   23.3400 C   0  0  0  0  0  0  0  0  0  0  0  0
    9.2170   -6.1060   26.4220 C   0  0  0  0  0  0  0  0  0  0  0  0
    8.2730   -5.3090   26.9800 C   0  0  0  0  0  0  0  0  0  0  0  0
    7.2260   -5.6380   28.3760 Cl  0  0  0  0  0  0  0  0  0  0  0  0
  1  2  1  0
  2  3  1  0
  3  4  1  0
  4  5  1  0
  6  5  1  6
  6  7  1  0
  6  8  1  0
  7  8  1  6
  7  9  1  0
  9 10  1  0
  9 11  1  1
 10 12  1  0
 11 13  1  0
 10 14  1  0
 12 15  1  0
 12 16  2  0
 14 17  1  0
 13 18  1  0
 13 19  1  0
 14 19  1  1
 17 20  1  0
 18 21  1  6
 17 22  1  1
 17 23  1  0
 18 24  1  0
 20 25  1  0
 23 26  2  0
 23 27  1  0
 24 28  2  0
 24 29  1  0
 21 30  1  0
 25 31  1  1
 25 32  1  0
 26 32  1  0
 29 33  1  0
 26 34  1  0
 27 35  2  0
 28 36  1  0
 29 37  2  0
 30 38  2  0
 30 39  1  0
 34 40  2  0
 35 40  1  0
 36 41  2  0
 37 41  1  0
 38 42  1  0
 39 43  1  0
 42 43  2  0
 43 44  1  0
M  END
