x0434_2-x1334_1-x0831_0-x0426_1-x0692_1
     RDKit          3D

 30 34  0  0  0  0  0  0  0  0999 V2000
    6.4350   -3.3400   19.8750 C   0  0  0  0  0  0  0  0  0  0  0  0
    7.3620   -3.0620   18.7040 C   0  0  0  0  0  0  0  0  0  0  0  0
    5.5230   -4.1840   19.7810 O   0  0  0  0  0  0  0  0  0  0  0  0
    6.7440   -2.5620   21.0220 N   0  0  0  0  0  0  0  0  0  0  0  0
    7.9220   -1.6740   20.7830 C   0  0  1  0  0  0  0  0  0  0  0  0
    6.5050   -3.2190   22.3640 C   0  0  0  0  0  0  0  0  0  0  0  0
    7.5510   -0.2840   20.9030 N   0  0  0  0  0  0  0  0  0  0  0  0
    9.1490   -1.9590   21.6610 C   0  0  0  0  0  0  0  0  0  0  0  0
    7.9390   -3.6260   22.9380 C   0  0  0  0  0  0  0  0  0  0  0  0
    7.1990    0.3290   22.2090 C   0  0  0  0  0  0  0  0  0  0  0  0
    8.8020   -2.4070   22.9600 N   0  0  0  0  0  0  0  0  0  0  0  0
    6.6090    0.2810   19.9240 C   0  0  0  0  0  0  0  0  0  0  0  0
    5.6790    0.3680   22.1950 C   0  0  2  0  0  0  0  0  0  0  0  0
   10.0400   -2.4630   23.7370 C   0  0  0  0  0  0  0  0  0  0  0  0
    6.7200    0.4420   18.4450 N   0  0  0  0  0  0  0  0  0  0  0  0
    5.5450    0.6690   20.7320 C   0  0  0  0  0  0  0  0  0  0  0  0
    4.8420    1.3600   23.0550 C   0  0  0  0  0  0  0  0  0  0  0  0
    4.3970    1.3520   20.0460 C   0  0  0  0  0  0  0  0  0  0  0  0
    5.5460    1.1130   17.9110 C   0  0  0  0  0  0  0  0  0  0  0  0
   10.7910   -1.1300   23.6580 C   0  0  0  0  0  0  0  0  0  0  0  0
    3.9380    2.3480   22.2820 C   0  0  1  0  0  0  0  0  0  0  0  0
    3.3070    1.7680   20.9490 C   0  0  0  0  0  0  0  0  0  0  0  0
    4.4900    1.5260   18.6710 C   0  0  0  0  0  0  0  0  0  0  0  0
   10.1630   -0.0730   24.2800 C   0  0  0  0  0  0  0  0  0  0  0  0
   12.0510   -1.0010   22.9750 C   0  0  0  0  0  0  0  0  0  0  0  0
    2.8580    2.7700   23.1670 N   0  0  0  0  0  0  0  0  0  0  0  0
   12.7100   -2.1570   22.2980 C   0  0  0  0  0  0  0  0  0  0  0  0
   10.8600    1.2550   24.2020 C   0  0  0  0  0  0  0  0  0  0  0  0
   12.7170    0.1930   22.8970 C   0  0  0  0  0  0  0  0  0  0  0  0
   12.0230    1.3820   23.5750 C   0  0  0  0  0  0  0  0  0  0  0  0
  1  2  1  0
  1  3  2  0
  1  4  1  0
  4  5  1  0
  4  6  1  0
  5  7  1  1
  5  8  1  0
  6  9  1  0
  7 10  1  0
  8 11  1  0
  9 11  1  0
  7 12  1  0
 13 10  1  1
 11 14  1  0
 12 15  2  0
 12 16  1  0
 13 16  1  0
 13 17  1  0
 16 18  2  0
 15 19  1  0
 14 20  1  0
 17 21  1  0
 18 22  1  0
 21 22  1  0
 18 23  1  0
 19 23  2  0
 20 24  2  0
 20 25  1  0
 21 26  1  1
 25 27  1  0
 24 28  1  0
 25 29  2  0
 28 30  2  0
 29 30  1  0
M  END
