x0434_2-x0770_1-x1334_1-x1412_1-x0397_0-x0831_0-x0831_1-x1374_1-x1418_1-x0426_1-x1385_1-x1334_0-x0692_1-x1386_1
     RDKit          3D

 44 49  0  0  0  0  0  0  0  0999 V2000
    1.9810   -7.1980   23.5460 O   0  0  0  0  0  0  0  0  0  0  0  0
    2.3400   -7.6260   24.8490 C   0  0  0  0  0  0  0  0  0  0  0  0
    3.7180   -7.9430   24.9350 O   0  0  0  0  0  0  0  0  0  0  0  0
    4.3990   -7.2500   23.9140 C   0  0  0  0  0  0  0  0  0  0  0  0
    4.8750   -6.0660   24.3760 C   0  0  0  0  0  0  0  0  0  0  0  0
    5.9830   -5.6480   23.4770 C   0  0  2  0  0  0  0  0  0  0  0  0
    5.8780   -4.7370   22.5380 C   0  0  2  0  0  0  0  0  0  0  0  0
    6.1290   -6.3450   22.2350 C   0  0  0  0  0  0  0  0  0  0  0  0
    6.9040   -3.7280   22.1790 C   0  0  1  0  0  0  0  0  0  0  0  0
    6.3470   -2.7050   21.3110 N   0  0  0  0  0  0  0  0  0  0  0  0
    7.7210   -3.3850   23.2670 C   0  0  0  0  0  0  0  0  0  0  0  0
    6.2510   -3.2170   19.9630 C   0  0  0  0  0  0  0  0  0  0  0  0
    8.4730   -2.0980   23.2050 N   0  0  0  0  0  0  0  0  0  0  0  0
    6.7700   -1.4930   21.8040 C   0  0  2  0  0  0  0  0  0  0  0  0
    7.3280   -2.9040   18.9010 C   0  0  0  0  0  0  0  0  0  0  0  0
    5.3170   -3.9830   19.6790 O   0  0  0  0  0  0  0  0  0  0  0  0
    6.0230   -0.1460   21.6320 C   0  0  1  0  0  0  0  0  0  0  0  0
    9.9270   -2.3570   23.2620 C   0  0  2  0  0  0  0  0  0  0  0  0
    8.1300   -1.4340   21.9370 C   0  0  0  0  0  0  0  0  0  0  0  0
    4.6350   -0.2590   22.3470 C   0  0  0  0  0  0  0  0  0  0  0  0
   10.5060   -3.2560   24.3280 C   0  0  0  0  0  0  0  0  0  0  0  0
    6.7980    1.0110   22.3210 C   0  0  0  0  0  0  0  0  0  0  0  0
    5.8750    0.3540   20.1910 C   0  0  0  0  0  0  0  0  0  0  0  0
   10.7310   -1.0320   23.3100 C   0  0  0  0  0  0  0  0  0  0  0  0
    3.7400    0.9890   22.2970 C   0  0  1  0  0  0  0  0  0  0  0  0
    4.7680    1.3520   19.9430 C   0  0  0  0  0  0  0  0  0  0  0  0
    6.7040   -0.0560   19.1590 C   0  0  0  0  0  0  0  0  0  0  0  0
   10.1220    0.0730   23.8860 C   0  0  0  0  0  0  0  0  0  0  0  0
   12.0600   -0.9120   22.7830 C   0  0  0  0  0  0  0  0  0  0  0  0
    9.7010   -4.1630   25.2660 C   0  0  0  0  0  0  0  0  0  0  0  0
    4.0640    1.8770   23.4410 N   0  0  0  0  0  0  0  0  0  0  0  0
    3.8480    1.8270   21.0240 C   0  0  0  0  0  0  0  0  0  0  0  0
   12.8310   -2.0010   22.1280 C   0  0  0  0  0  0  0  0  0  0  0  0
    4.6200    1.8420   18.6570 C   0  0  0  0  0  0  0  0  0  0  0  0
    6.4940    0.4980   17.8330 N   0  0  0  0  0  0  0  0  0  0  0  0
   10.7680    1.4430   24.0060 C   0  0  0  0  0  0  0  0  0  0  0  0
   12.7080    0.5040   22.9200 C   0  0  0  0  0  0  0  0  0  0  0  0
   10.0180   -5.4420   25.6130 C   0  0  0  0  0  0  0  0  0  0  0  0
    8.2310   -3.7210   26.0960 S   0  0  0  0  0  0  0  0  0  0  0  0
    5.4250    1.4650   17.6180 C   0  0  0  0  0  0  0  0  0  0  0  0
   12.0180    1.6450   23.5340 C   0  0  0  0  0  0  0  0  0  0  0  0
    9.1510   -6.0040   26.5020 C   0  0  0  0  0  0  0  0  0  0  0  0
    8.1280   -5.2150   26.8870 C   0  0  0  0  0  0  0  0  0  0  0  0
    6.8840   -5.5940   27.9990 Cl  0  0  0  0  0  0  0  0  0  0  0  0
  1  2  1  0
  2  3  1  0
  3  4  1  0
  4  5  1  0
  6  5  1  6
  6  7  1  0
  6  8  1  0
  7  8  1  6
  7  9  1  0
  9 10  1  0
  9 11  1  1
 10 12  1  0
 11 13  1  0
 10 14  1  0
 12 15  1  0
 12 16  2  0
 14 17  1  0
 13 18  1  0
 13 19  1  0
 14 19  1  6
 17 20  1  0
 18 21  1  1
 17 22  1  1
 17 23  1  0
 18 24  1  0
 20 25  1  0
 23 26  2  0
 23 27  1  0
 24 28  2  0
 24 29  1  0
 21 30  1  0
 25 31  1  1
 25 32  1  0
 26 32  1  0
 29 33  1  0
 26 34  1  0
 27 35  2  0
 28 36  1  0
 29 37  2  0
 30 38  2  0
 30 39  1  0
 34 40  2  0
 35 40  1  0
 36 41  2  0
 37 41  1  0
 38 42  1  0
 39 43  1  0
 42 43  2  0
 43 44  1  0
M  END
