x0434_1-x0691_1
     RDKit          3D

 23 24  0  0  0  0  0  0  0  0999 V2000
    4.6630   -5.7650   25.7090 S   0  0  0  0  0  0  0  0  0  0  0  0
    3.5550   -4.4570   25.7370 C   0  0  0  0  0  0  0  0  0  0  0  0
    2.1650   -4.6970   25.7350 C   0  0  0  0  0  0  0  0  0  0  0  0
    3.9350   -6.9810   25.9890 O   0  0  0  0  0  0  0  0  0  0  0  0
    5.7920   -5.4370   26.7840 O   0  0  0  0  0  0  0  0  0  0  0  0
    3.8640   -2.9160   25.7650 C   0  0  0  0  0  0  0  0  0  0  0  0
    2.8720   -1.9360   25.7820 C   0  0  0  0  0  0  0  0  0  0  0  0
    1.1660   -3.5680   25.7590 C   0  0  0  0  0  0  0  0  0  0  0  0
    3.3160   -0.5790   25.7910 O   0  0  0  0  0  0  0  0  0  0  0  0
    1.5650   -2.2370   25.7830 C   0  0  0  0  0  0  0  0  0  0  0  0
    4.1900   -0.2160   24.7080 C   0  0  0  0  0  0  0  0  0  0  0  0
    4.5110   -1.4630   23.8760 C   0  0  0  0  0  0  0  0  0  0  0  0
    5.0820   -1.1880   22.4900 C   0  0  0  0  0  0  0  0  0  0  0  0
    6.5340   -0.8240   22.5200 C   0  0  0  0  0  0  0  0  0  0  0  0
    7.1340   -0.7510   21.2410 N   0  0  0  0  0  0  0  0  0  0  0  0
    8.5730   -0.5470   21.3180 C   0  0  0  0  0  0  0  0  0  0  0  0
    6.4870   -0.0450   20.1660 C   0  0  0  0  0  0  0  0  0  0  0  0
    9.1580    0.5240   21.4590 O   0  0  0  0  0  0  0  0  0  0  0  0
    6.9890   -0.1430   18.8490 C   0  0  0  0  0  0  0  0  0  0  0  0
    5.4000    0.7240   20.3710 C   0  0  0  0  0  0  0  0  0  0  0  0
    6.3630    0.5720   17.7310 N   0  0  0  0  0  0  0  0  0  0  0  0
    4.7220    1.4660   19.2770 C   0  0  0  0  0  0  0  0  0  0  0  0
    5.1950    1.3890   18.0010 C   0  0  0  0  0  0  0  0  0  0  0  0
  1  2  1  0
  2  3  2  0
  1  4  2  0
  1  5  2  0
  2  6  1  0
  6  7  2  0
  3  8  1  0
  7  9  1  0
  7 10  1  0
  8 10  2  0
  9 11  1  0
 11 12  1  0
 12 13  1  0
 13 14  1  0
 14 15  1  0
 15 16  1  0
 15 17  1  0
 16 18  2  0
 17 19  2  0
 17 20  1  0
 19 21  1  0
 20 22  2  0
 21 23  2  0
 22 23  1  0
M  END
