x0434_2-x1334_1-x0770_1-x0397_0-x0426_1-x1418_1-x1334_0-x0831_0
     RDKit          3D

 40 46  0  0  0  0  0  0  0  0999 V2000
    6.3590   -3.2820   19.8990 C   0  0  0  0  0  0  0  0  0  0  0  0
    7.3490   -3.0080   18.7740 C   0  0  0  0  0  0  0  0  0  0  0  0
    5.5110   -4.1780   19.7750 O   0  0  0  0  0  0  0  0  0  0  0  0
    6.4120   -2.5090   21.0730 N   0  0  0  0  0  0  0  0  0  0  0  0
    7.5190   -1.5910   21.4790 C   0  0  2  0  0  0  0  0  0  0  0  0
    6.3000   -3.2030   22.3670 C   0  0  2  0  0  0  0  0  0  0  0  0
    7.7110   -0.3460   20.7020 N   0  0  0  0  0  0  0  0  0  0  0  0
    8.8750   -2.3000   21.7700 C   0  0  0  0  0  0  0  0  0  0  0  0
    7.4520   -4.1410   22.8070 C   0  0  0  0  0  0  0  0  0  0  0  0
    5.6790   -4.5930   22.4940 C   0  0  0  0  0  0  0  0  0  0  0  0
    7.6580    0.7590   21.6450 C   0  0  0  0  0  0  0  0  0  0  0  0
    8.7760   -3.3980   22.7140 N   0  0  0  0  0  0  0  0  0  0  0  0
    6.2940   -5.6420   22.9750 C   0  0  0  0  0  0  0  0  0  0  0  0
    6.2390   -5.9400   21.7160 C   0  0  0  0  0  0  0  0  0  0  0  0
    6.6850    0.1110   19.7790 C   0  0  0  0  0  0  0  0  0  0  0  0
    6.1740    0.6610   21.9970 C   0  0  2  0  0  0  0  0  0  0  0  0
    9.6750   -3.2530   23.8470 C   0  0  1  0  0  0  0  0  0  0  0  0
    6.5790    0.0360   18.4310 N   0  0  0  0  0  0  0  0  0  0  0  0
    5.7070    0.7230   20.5600 C   0  0  0  0  0  0  0  0  0  0  0  0
    5.4680    1.6780   22.9430 C   0  0  0  0  0  0  0  0  0  0  0  0
    9.5220   -1.7590   24.2080 C   0  0  0  0  0  0  0  0  0  0  0  0
    4.5260    1.3080   20.1580 C   0  0  0  0  0  0  0  0  0  0  0  0
    5.3390    0.6700   17.9650 C   0  0  0  0  0  0  0  0  0  0  0  0
    9.2800   -4.1810   24.9880 C   0  0  0  0  0  0  0  0  0  0  0  0
    4.3120    2.5230   22.3640 C   0  0  1  0  0  0  0  0  0  0  0  0
    3.5990    1.8900   21.1630 C   0  0  0  0  0  0  0  0  0  0  0  0
    4.2300    1.3470   18.8400 C   0  0  0  0  0  0  0  0  0  0  0  0
    9.7850   -5.4120   25.3060 C   0  0  0  0  0  0  0  0  0  0  0  0
    8.0330   -3.7930   26.1590 S   0  0  0  0  0  0  0  0  0  0  0  0
   10.6100   -0.7350   23.7810 C   0  0  0  0  0  0  0  0  0  0  0  0
    3.3840    2.7340   23.3690 N   0  0  0  0  0  0  0  0  0  0  0  0
    9.2390   -6.0190   26.4000 C   0  0  0  0  0  0  0  0  0  0  0  0
    8.2540   -5.2620   26.9920 C   0  0  0  0  0  0  0  0  0  0  0  0
   10.3030    0.4840   24.3300 C   0  0  0  0  0  0  0  0  0  0  0  0
   11.7920   -0.8700   22.9680 C   0  0  0  0  0  0  0  0  0  0  0  0
    7.3430   -5.7430   28.4200 Cl  0  0  0  0  0  0  0  0  0  0  0  0
   12.2310   -2.1400   22.3010 C   0  0  0  0  0  0  0  0  0  0  0  0
   11.1480    1.5530   24.0820 C   0  0  0  0  0  0  0  0  0  0  0  0
   12.6250    0.2200   22.7520 C   0  0  0  0  0  0  0  0  0  0  0  0
   12.2890    1.4320   23.3170 C   0  0  0  0  0  0  0  0  0  0  0  0
  1  2  1  0
  1  3  2  0
  1  4  1  0
  4  5  1  0
  4  6  1  0
  5  7  1  6
  5  8  1  0
  6  9  1  0
  6 10  1  6
  7 11  1  0
  8 12  1  0
  9 12  1  0
 10 13  1  0
 10 14  1  0
 13 14  1  0
  7 15  1  0
 16 11  1  6
 12 17  1  0
 15 18  2  0
 15 19  1  0
 16 19  1  0
 16 20  1  0
 17 21  1  1
 19 22  2  0
 18 23  1  0
 17 24  1  0
 20 25  1  0
 22 26  1  0
 25 26  1  0
 22 27  1  0
 23 27  2  0
 24 28  2  0
 24 29  1  0
 21 30  1  0
 25 31  1  1
 28 32  1  0
 29 33  1  0
 32 33  2  0
 30 34  2  0
 30 35  1  0
 33 36  1  0
 35 37  1  0
 34 38  1  0
 35 39  2  0
 38 40  2  0
 39 40  1  0
M  END
