x0434_2-x0831_0-x1334_1-x1386_1-x1334_0-x0397_0-x1418_1-x0831_1-x1385_1-x1412_1-x0770_1-x0692_1-x1374_1
     RDKit          3D

 39 43  0  0  0  0  0  0  0  0999 V2000
    2.0930   -6.9760   23.8830 O   0  0  0  0  0  0  0  0  0  0  0  0
    2.4810   -7.8810   24.8960 C   0  0  0  0  0  0  0  0  0  0  0  0
    3.8930   -7.9210   24.9370 O   0  0  0  0  0  0  0  0  0  0  0  0
    4.4610   -7.1950   23.8520 C   0  0  0  0  0  0  0  0  0  0  0  0
    4.9000   -5.9600   24.3360 C   0  0  0  0  0  0  0  0  0  0  0  0
    6.0630   -5.6960   23.4280 C   0  0  2  0  0  0  0  0  0  0  0  0
    5.8890   -4.7130   22.4250 C   0  0  2  0  0  0  0  0  0  0  0  0
    6.0190   -6.2170   21.9560 C   0  0  0  0  0  0  0  0  0  0  0  0
    7.0520   -3.8340   22.1570 C   0  0  1  0  0  0  0  0  0  0  0  0
    6.6350   -2.8240   21.1800 N   0  0  0  0  0  0  0  0  0  0  0  0
    7.6390   -3.2650   23.4690 C   0  0  0  0  0  0  0  0  0  0  0  0
    6.3430   -3.2910   19.8920 C   0  0  0  0  0  0  0  0  0  0  0  0
    8.5540   -2.1540   23.2330 N   0  0  0  0  0  0  0  0  0  0  0  0
    7.3030   -1.5480   21.4810 C   0  0  2  0  0  0  0  0  0  0  0  0
    7.2990   -2.9860   18.7480 C   0  0  0  0  0  0  0  0  0  0  0  0
    5.3610   -4.0100   19.6640 O   0  0  0  0  0  0  0  0  0  0  0  0
    9.6270   -2.0600   24.0130 C   0  0  1  0  0  0  0  0  0  0  0  0
    7.4920   -0.7750   20.3160 N   0  0  0  0  0  0  0  0  0  0  0  0
    8.6930   -1.8560   21.9600 C   0  0  0  0  0  0  0  0  0  0  0  0
   10.3330   -3.3290   24.1810 C   0  0  0  0  0  0  0  0  0  0  0  0
   10.5840   -0.8610   23.7430 C   0  0  0  0  0  0  0  0  0  0  0  0
    6.5530   -0.0070   19.7370 C   0  0  0  0  0  0  0  0  0  0  0  0
   10.0860    0.3810   24.1010 C   0  0  0  0  0  0  0  0  0  0  0  0
   12.0410   -0.9210   23.1160 C   0  0  0  0  0  0  0  0  0  0  0  0
    9.6650   -4.2030   25.2050 C   0  0  0  0  0  0  0  0  0  0  0  0
    6.8930    0.3910   18.4050 C   0  0  0  0  0  0  0  0  0  0  0  0
    5.2050    0.5120   20.2360 C   0  0  0  0  0  0  0  0  0  0  0  0
   12.6180   -2.2340   22.6970 C   0  0  0  0  0  0  0  0  0  0  0  0
   10.9370    1.6320   23.9020 C   0  0  0  0  0  0  0  0  0  0  0  0
   12.8190    0.1700   22.9250 C   0  0  0  0  0  0  0  0  0  0  0  0
    9.9840   -5.4650   25.5190 C   0  0  0  0  0  0  0  0  0  0  0  0
    8.3310   -3.7480   26.2010 S   0  0  0  0  0  0  0  0  0  0  0  0
    6.2450    1.1240   17.5490 N   0  0  0  0  0  0  0  0  0  0  0  0
    4.3980    1.3760   19.2930 C   0  0  0  0  0  0  0  0  0  0  0  0
   12.3080    1.4980   23.3100 C   0  0  0  0  0  0  0  0  0  0  0  0
    9.2820   -6.1000   26.4850 C   0  0  0  0  0  0  0  0  0  0  0  0
    8.3120   -5.2470   26.9760 C   0  0  0  0  0  0  0  0  0  0  0  0
    5.0060    1.6640   17.8910 C   0  0  0  0  0  0  0  0  0  0  0  0
    7.1800   -5.5840   28.2200 Cl  0  0  0  0  0  0  0  0  0  0  0  0
  1  2  1  0
  2  3  1  0
  3  4  1  0
  4  5  1  0
  6  5  1  1
  6  7  1  0
  6  8  1  0
  7  8  1  6
  7  9  1  0
  9 10  1  0
  9 11  1  1
 10 12  1  0
 11 13  1  0
 10 14  1  0
 12 15  1  0
 12 16  2  0
 13 17  1  0
 14 18  1  6
 13 19  1  0
 14 19  1  0
 17 20  1  6
 17 21  1  0
 18 22  1  0
 21 23  2  0
 21 24  1  0
 20 25  1  0
 22 26  2  0
 22 27  1  0
 24 28  1  0
 23 29  1  0
 24 30  2  0
 25 31  2  0
 25 32  1  0
 26 33  1  0
 27 34  2  0
 29 35  2  0
 30 35  1  0
 31 36  1  0
 32 37  1  0
 36 37  2  0
 33 38  2  0
 34 38  1  0
 37 39  1  0
M  END
