x0434_2-x0770_1-x1334_1-x0831_0-x1374_1-x0692_1-x1386_1-x1334_0-x1418_1-x0831_1-x0397_0-x1385_1
     RDKit          3D

 39 43  0  0  0  0  0  0  0  0999 V2000
    6.3350   -3.3190   19.8370 C   0  0  0  0  0  0  0  0  0  0  0  0
    7.3030   -3.0510   18.6880 C   0  0  0  0  0  0  0  0  0  0  0  0
    5.4400   -4.1760   19.7740 O   0  0  0  0  0  0  0  0  0  0  0  0
    6.6150   -2.4840   20.9350 N   0  0  0  0  0  0  0  0  0  0  0  0
    7.7020   -1.5040   20.7510 C   0  0  2  0  0  0  0  0  0  0  0  0
    6.4220   -3.0530   22.3200 C   0  0  2  0  0  0  0  0  0  0  0  0
    8.9770   -1.7690   21.5660 C   0  0  0  0  0  0  0  0  0  0  0  0
    7.6920   -3.2180   22.9600 C   0  0  0  0  0  0  0  0  0  0  0  0
    5.6680   -4.3590   22.3510 C   0  0  2  0  0  0  0  0  0  0  0  0
    7.4280   -0.0240   20.6710 C   0  0  0  0  0  0  0  0  0  0  0  0
    8.5690   -2.0230   22.9300 N   0  0  0  0  0  0  0  0  0  0  0  0
    6.0570   -5.3580   23.1110 C   0  0  2  0  0  0  0  0  0  0  0  0
    6.2100   -5.8430   21.7770 C   0  0  0  0  0  0  0  0  0  0  0  0
    7.0560    0.3640   19.2700 C   0  0  0  0  0  0  0  0  0  0  0  0
    9.5980   -1.9490   23.9310 C   0  0  1  0  0  0  0  0  0  0  0  0
    6.0240    0.5300   20.2530 C   0  0  0  0  0  0  0  0  0  0  0  0
    6.4250    0.8000   18.1100 N   0  0  0  0  0  0  0  0  0  0  0  0
    5.1330   -5.9090   24.1530 C   0  0  0  0  0  0  0  0  0  0  0  0
   10.2350   -3.2870   24.0850 C   0  0  0  0  0  0  0  0  0  0  0  0
   10.5690   -0.7590   23.7290 C   0  0  0  0  0  0  0  0  0  0  0  0
    5.1980    1.2910   17.8380 C   0  0  0  0  0  0  0  0  0  0  0  0
    4.7290    0.9950   20.1620 C   0  0  0  0  0  0  0  0  0  0  0  0
    4.6410   -7.1150   23.7480 C   0  0  0  0  0  0  0  0  0  0  0  0
   10.1800    0.5170   24.1290 C   0  0  0  0  0  0  0  0  0  0  0  0
   11.8660   -0.9150   23.1330 C   0  0  0  0  0  0  0  0  0  0  0  0
    9.6020   -4.1630   25.1390 C   0  0  0  0  0  0  0  0  0  0  0  0
    4.2440    1.4010   18.9750 C   0  0  0  0  0  0  0  0  0  0  0  0
    4.0800   -7.8890   24.8070 O   0  0  0  0  0  0  0  0  0  0  0  0
   12.4030   -2.2280   22.6450 C   0  0  0  0  0  0  0  0  0  0  0  0
   11.0790    1.5390   23.9270 C   0  0  0  0  0  0  0  0  0  0  0  0
   12.7320    0.1610   22.9570 C   0  0  0  0  0  0  0  0  0  0  0  0
    9.9690   -5.4490   25.4600 C   0  0  0  0  0  0  0  0  0  0  0  0
    8.2830   -3.7170   26.1570 S   0  0  0  0  0  0  0  0  0  0  0  0
    2.6830   -8.0170   24.6480 C   0  0  0  0  0  0  0  0  0  0  0  0
   12.3280    1.4210   23.3660 C   0  0  0  0  0  0  0  0  0  0  0  0
    9.2610   -6.0350   26.4630 C   0  0  0  0  0  0  0  0  0  0  0  0
    8.2920   -5.2150   26.9680 C   0  0  0  0  0  0  0  0  0  0  0  0
    2.3850   -7.6870   23.3100 O   0  0  0  0  0  0  0  0  0  0  0  0
    7.1940   -5.5620   28.2380 Cl  0  0  0  0  0  0  0  0  0  0  0  0
  1  2  1  0
  1  3  2  0
  1  4  1  0
  4  5  1  0
  4  6  1  0
  5  7  1  0
  6  8  1  6
  6  9  1  0
  5 10  1  1
  7 11  1  0
  8 11  1  0
  9 12  1  0
  9 13  1  6
 12 13  1  0
 10 14  1  0
 11 15  1  0
 14 16  2  0
 14 17  1  0
 12 18  1  1
 15 19  1  6
 15 20  1  0
 17 21  2  0
 16 22  1  0
 18 23  1  0
 20 24  2  0
 20 25  1  0
 19 26  1  0
 21 27  1  0
 22 27  2  0
 23 28  1  0
 25 29  1  0
 24 30  1  0
 25 31  2  0
 26 32  2  0
 26 33  1  0
 28 34  1  0
 30 35  2  0
 31 35  1  0
 32 36  1  0
 33 37  1  0
 36 37  2  0
 34 38  1  0
 37 39  1  0
M  END
