x0434_2-x0770_1-x1385_1-x1418_1-x1334_1-x0692_1-x0426_1-x1412_1-x1334_0-x0831_0-x0397_0
     RDKit          3D

 39 44  0  0  0  0  0  0  0  0999 V2000
    6.1650   -3.3280   19.9700 C   0  0  0  0  0  0  0  0  0  0  0  0
    7.1670   -2.9980   18.8680 C   0  0  0  0  0  0  0  0  0  0  0  0
    5.3270   -4.2140   19.7860 O   0  0  0  0  0  0  0  0  0  0  0  0
    6.2680   -2.6000   21.1740 N   0  0  0  0  0  0  0  0  0  0  0  0
    7.1900   -1.4490   21.2420 C   0  0  1  0  0  0  0  0  0  0  0  0
    5.9980   -3.1060   22.5250 C   0  0  2  0  0  0  0  0  0  0  0  0
    6.4720   -0.0460   21.4890 C   0  0  1  0  0  0  0  0  0  0  0  0
    8.3960   -1.7700   22.1460 C   0  0  0  0  0  0  0  0  0  0  0  0
    7.1130   -3.5630   23.1900 C   0  0  0  0  0  0  0  0  0  0  0  0
    5.8810   -4.5950   22.8810 C   0  0  0  0  0  0  0  0  0  0  0  0
    5.3880    0.0110   22.6190 C   0  0  0  0  0  0  0  0  0  0  0  0
    7.4960    1.0790   21.8190 C   0  0  0  0  0  0  0  0  0  0  0  0
    8.1860   -2.5470   23.4160 N   0  0  0  0  0  0  0  0  0  0  0  0
    6.6840   -5.5830   22.6710 C   0  0  0  0  0  0  0  0  0  0  0  0
    5.7550   -5.8710   21.8310 C   0  0  0  0  0  0  0  0  0  0  0  0
    5.9170    0.5320   20.2370 C   0  0  0  0  0  0  0  0  0  0  0  0
    4.6270    1.3930   22.6180 C   0  0  2  0  0  0  0  0  0  0  0  0
    9.4000   -3.3220   23.7750 C   0  0  1  0  0  0  0  0  0  0  0  0
    4.7380    1.2630   20.1050 C   0  0  0  0  0  0  0  0  0  0  0  0
    6.7660    0.2820   18.9540 C   0  0  0  0  0  0  0  0  0  0  0  0
    3.9650    1.5220   23.7290 N   0  0  0  0  0  0  0  0  0  0  0  0
    3.8540    1.5390   21.2690 C   0  0  0  0  0  0  0  0  0  0  0  0
   10.7870   -2.6430   23.8540 C   0  0  0  0  0  0  0  0  0  0  0  0
    4.4170    1.7400   18.8000 C   0  0  0  0  0  0  0  0  0  0  0  0
    6.4920    0.7090   17.7210 N   0  0  0  0  0  0  0  0  0  0  0  0
    9.2040   -4.2380   24.9220 C   0  0  0  0  0  0  0  0  0  0  0  0
    5.3600    1.4210   17.6480 C   0  0  0  0  0  0  0  0  0  0  0  0
    9.7970   -5.4110   25.2990 C   0  0  0  0  0  0  0  0  0  0  0  0
    7.9500   -3.8620   26.1580 S   0  0  0  0  0  0  0  0  0  0  0  0
   11.0120   -1.1370   23.8280 C   0  0  0  0  0  0  0  0  0  0  0  0
    9.2940   -5.9630   26.4560 C   0  0  0  0  0  0  0  0  0  0  0  0
    8.2890   -5.2660   27.0540 C   0  0  0  0  0  0  0  0  0  0  0  0
   10.1890   -0.1370   24.4670 C   0  0  0  0  0  0  0  0  0  0  0  0
   12.1660   -0.7710   23.0940 C   0  0  0  0  0  0  0  0  0  0  0  0
    7.4230   -5.6430   28.4770 Cl  0  0  0  0  0  0  0  0  0  0  0  0
   13.0000   -1.7980   22.4260 C   0  0  0  0  0  0  0  0  0  0  0  0
   10.6030    1.1670   24.3140 C   0  0  0  0  0  0  0  0  0  0  0  0
   12.5840    0.4900   22.9490 C   0  0  0  0  0  0  0  0  0  0  0  0
   11.8690    1.5030   23.5180 C   0  0  0  0  0  0  0  0  0  0  0  0
  1  2  1  0
  1  3  2  0
  1  4  1  0
  4  5  1  0
  4  6  1  0
  5  7  1  0
  5  8  1  1
  6  9  1  0
  6 10  1  6
  7 11  1  0
  7 12  1  1
  8 13  1  0
  9 13  1  0
 10 14  1  0
 10 15  1  0
 14 15  1  0
  7 16  1  0
 11 17  1  0
 13 18  1  0
 16 19  2  0
 16 20  1  0
 17 21  1  1
 17 22  1  0
 19 22  1  0
 18 23  1  1
 19 24  1  0
 20 25  2  0
 18 26  1  0
 24 27  2  0
 25 27  1  0
 26 28  2  0
 26 29  1  0
 23 30  1  0
 28 31  1  0
 29 32  1  0
 31 32  2  0
 30 33  2  0
 30 34  1  0
 32 35  1  0
 34 36  1  0
 33 37  1  0
 34 38  2  0
 37 39  2  0
 38 39  1  0
M  END
