x0434_2-x0426_1-x0397_0-x0831_0-x0770_1-x1418_1-x1374_1-x0692_1-x1386_1-x1334_0-x1412_1-x0831_1-x1334_1-x1385_1
     RDKit          3D

 44 49  0  0  0  0  0  0  0  0999 V2000
    2.2240   -7.7020   23.2460 O   0  0  0  0  0  0  0  0  0  0  0  0
    2.3600   -8.1040   24.5920 C   0  0  0  0  0  0  0  0  0  0  0  0
    3.7340   -8.0200   24.9070 O   0  0  0  0  0  0  0  0  0  0  0  0
    4.4390   -7.2390   23.9590 C   0  0  0  0  0  0  0  0  0  0  0  0
    4.9810   -6.0660   24.4540 C   0  0  0  0  0  0  0  0  0  0  0  0
    6.1510   -5.7140   23.5920 C   0  0  2  0  0  0  0  0  0  0  0  0
    6.0280   -4.8000   22.4370 C   0  0  2  0  0  0  0  0  0  0  0  0
    6.3680   -6.4240   22.4780 C   0  0  0  0  0  0  0  0  0  0  0  0
    7.0410   -3.7590   22.1830 C   0  0  1  0  0  0  0  0  0  0  0  0
    6.3900   -2.7790   21.2890 N   0  0  0  0  0  0  0  0  0  0  0  0
    7.6570   -3.2470   23.3360 C   0  0  0  0  0  0  0  0  0  0  0  0
    6.2250   -3.2330   19.9520 C   0  0  0  0  0  0  0  0  0  0  0  0
    8.6030   -2.1420   23.1610 N   0  0  0  0  0  0  0  0  0  0  0  0
    6.7890   -1.4480   21.8000 C   0  0  2  0  0  0  0  0  0  0  0  0
    7.2470   -2.9270   18.8680 C   0  0  0  0  0  0  0  0  0  0  0  0
    5.2800   -3.9820   19.6650 O   0  0  0  0  0  0  0  0  0  0  0  0
    6.1320   -0.0660   21.6180 C   0  0  1  0  0  0  0  0  0  0  0  0
   10.0260   -2.3540   23.4280 C   0  0  2  0  0  0  0  0  0  0  0  0
    8.3250   -1.4300   21.9140 C   0  0  0  0  0  0  0  0  0  0  0  0
    4.9760    0.2050   22.6360 C   0  0  0  0  0  0  0  0  0  0  0  0
   10.4860   -3.0770   24.6860 C   0  0  0  0  0  0  0  0  0  0  0  0
    7.2530    0.9470   22.0620 C   0  0  0  0  0  0  0  0  0  0  0  0
    5.8790    0.4350   20.2090 C   0  0  0  0  0  0  0  0  0  0  0  0
   10.7490   -0.9950   23.4620 C   0  0  0  0  0  0  0  0  0  0  0  0
    4.4280    1.6190   22.4040 C   0  0  2  0  0  0  0  0  0  0  0  0
    4.7790    1.2800   19.8870 C   0  0  0  0  0  0  0  0  0  0  0  0
    6.7350    0.0830   19.2120 C   0  0  0  0  0  0  0  0  0  0  0  0
   10.1640    0.0910   24.1080 C   0  0  0  0  0  0  0  0  0  0  0  0
   12.1530   -0.8670   22.7640 C   0  0  0  0  0  0  0  0  0  0  0  0
    9.6950   -4.0690   25.4870 C   0  0  0  0  0  0  0  0  0  0  0  0
    3.4290    1.9980   23.3800 N   0  0  0  0  0  0  0  0  0  0  0  0
    3.8230    1.6530   20.9920 C   0  0  0  0  0  0  0  0  0  0  0  0
   12.8460   -1.9820   22.0430 C   0  0  0  0  0  0  0  0  0  0  0  0
    4.4370    1.8870   18.4830 C   0  0  0  0  0  0  0  0  0  0  0  0
    6.5930    0.4930   17.9900 N   0  0  0  0  0  0  0  0  0  0  0  0
   10.8350    1.3120   24.1270 C   0  0  0  0  0  0  0  0  0  0  0  0
   12.7610    0.3810   22.8380 C   0  0  0  0  0  0  0  0  0  0  0  0
    9.9950   -5.3860   25.6380 C   0  0  0  0  0  0  0  0  0  0  0  0
    8.2700   -3.7140   26.4050 S   0  0  0  0  0  0  0  0  0  0  0  0
    5.5670    1.2920   17.7180 C   0  0  0  0  0  0  0  0  0  0  0  0
   12.0760    1.4840   23.5310 C   0  0  0  0  0  0  0  0  0  0  0  0
    9.0660   -6.0830   26.5360 C   0  0  0  0  0  0  0  0  0  0  0  0
    8.1180   -5.2990   27.0110 C   0  0  0  0  0  0  0  0  0  0  0  0
    6.8680   -5.7140   28.0970 Cl  0  0  0  0  0  0  0  0  0  0  0  0
  1  2  1  0
  2  3  1  0
  3  4  1  0
  4  5  1  0
  6  5  1  6
  6  7  1  0
  6  8  1  0
  7  8  1  6
  7  9  1  0
  9 10  1  0
  9 11  1  1
 10 12  1  0
 11 13  1  0
 10 14  1  0
 12 15  1  0
 12 16  2  0
 14 17  1  0
 13 18  1  0
 13 19  1  0
 14 19  1  6
 17 20  1  0
 18 21  1  1
 17 22  1  1
 17 23  1  0
 18 24  1  0
 20 25  1  0
 23 26  2  0
 23 27  1  0
 24 28  2  0
 24 29  1  0
 21 30  1  0
 25 31  1  1
 25 32  1  0
 26 32  1  0
 29 33  1  0
 26 34  1  0
 27 35  2  0
 28 36  1  0
 29 37  2  0
 30 38  2  0
 30 39  1  0
 34 40  2  0
 35 40  1  0
 36 41  2  0
 37 41  1  0
 38 42  1  0
 39 43  1  0
 42 43  2  0
 43 44  1  0
M  END
