x0434_2-x1334_0-x1334_1-x1418_1-x0692_1-x0831_0-x1374_1-x0426_1-x0397_0-x1386_1-x0831_1-x0770_1-x1385_1
     RDKit          3D

 45 51  0  0  0  0  0  0  0  0999 V2000
    1.9530   -7.2210   23.6460 O   0  0  0  0  0  0  0  0  0  0  0  0
    2.3610   -7.5620   24.9590 C   0  0  0  0  0  0  0  0  0  0  0  0
    3.7440   -7.8740   24.9250 O   0  0  0  0  0  0  0  0  0  0  0  0
    4.3340   -7.2540   23.8020 C   0  0  0  0  0  0  0  0  0  0  0  0
    4.8040   -5.9960   24.1170 C   0  0  0  0  0  0  0  0  0  0  0  0
    5.9500   -5.6990   23.2070 C   0  0  2  0  0  0  0  0  0  0  0  0
    5.8210   -4.6370   22.2190 C   0  0  2  0  0  0  0  0  0  0  0  0
    6.0220   -6.3070   22.0280 C   0  0  0  0  0  0  0  0  0  0  0  0
    6.9620   -3.7080   22.1180 C   0  0  1  0  0  0  0  0  0  0  0  0
    6.8270   -2.7370   21.0500 N   0  0  0  0  0  0  0  0  0  0  0  0
    7.1700   -3.0870   23.4510 C   0  0  0  0  0  0  0  0  0  0  0  0
    6.4330   -3.3270   19.8510 C   0  0  0  0  0  0  0  0  0  0  0  0
    8.3770   -2.2820   23.4560 N   0  0  0  0  0  0  0  0  0  0  0  0
    7.9000   -1.7950   20.9980 C   0  0  1  0  0  0  0  0  0  0  0  0
    7.3430   -3.0380   18.6800 C   0  0  0  0  0  0  0  0  0  0  0  0
    5.4510   -4.0780   19.7010 O   0  0  0  0  0  0  0  0  0  0  0  0
    9.2870   -2.4940   24.4780 C   0  0  2  0  0  0  0  0  0  0  0  0
    7.4970   -0.3920   20.9000 N   0  0  0  0  0  0  0  0  0  0  0  0
    8.9410   -2.1760   22.1130 C   0  0  0  0  0  0  0  0  0  0  0  0
   10.6980   -2.5050   23.9310 C   0  0  0  0  0  0  0  0  0  0  0  0
    7.1610    0.2630   22.1590 C   0  0  0  0  0  0  0  0  0  0  0  0
    6.6300    0.1960   19.9340 C   0  0  0  0  0  0  0  0  0  0  0  0
    9.0570   -3.6570   25.3110 C   0  0  0  0  0  0  0  0  0  0  0  0
    5.6840    0.4270   22.1330 C   0  0  2  0  0  0  0  0  0  0  0  0
    6.6990    0.3360   18.5540 N   0  0  0  0  0  0  0  0  0  0  0  0
    5.5660    0.6880   20.6320 C   0  0  0  0  0  0  0  0  0  0  0  0
    9.7870   -4.9530   25.3310 C   0  0  0  0  0  0  0  0  0  0  0  0
    7.8290   -3.7580   26.5330 S   0  0  0  0  0  0  0  0  0  0  0  0
   11.2130   -1.1050   23.7380 C   0  0  0  0  0  0  0  0  0  0  0  0
    5.0890    1.5420   22.9910 C   0  0  0  0  0  0  0  0  0  0  0  0
    4.4990    1.3520   20.0980 C   0  0  0  0  0  0  0  0  0  0  0  0
    5.6690    1.0020   17.9540 C   0  0  0  0  0  0  0  0  0  0  0  0
    9.3200   -5.8020   26.2640 C   0  0  0  0  0  0  0  0  0  0  0  0
    8.2570   -5.3410   27.0330 C   0  0  0  0  0  0  0  0  0  0  0  0
   10.4330    0.0430   24.3610 C   0  0  0  0  0  0  0  0  0  0  0  0
   12.3670   -0.8720   23.0060 C   0  0  0  0  0  0  0  0  0  0  0  0
    3.9690    2.3730   22.3210 C   0  0  1  0  0  0  0  0  0  0  0  0
    3.4110    1.8330   20.9940 C   0  0  0  0  0  0  0  0  0  0  0  0
    7.3890   -6.0720   28.3100 Cl  0  0  0  0  0  0  0  0  0  0  0  0
   13.1300   -1.9800   22.3720 C   0  0  0  0  0  0  0  0  0  0  0  0
    4.5690    1.5250   18.6360 C   0  0  0  0  0  0  0  0  0  0  0  0
   10.8760    1.3720   24.2020 C   0  0  0  0  0  0  0  0  0  0  0  0
   12.8350    0.5020   22.8550 C   0  0  0  0  0  0  0  0  0  0  0  0
    2.9040    2.5650   23.2830 N   0  0  0  0  0  0  0  0  0  0  0  0
   12.1620    1.5660   23.3970 C   0  0  0  0  0  0  0  0  0  0  0  0
  1  2  1  0
  2  3  1  0
  3  4  1  0
  4  5  1  0
  6  5  1  1
  6  7  1  0
  6  8  1  0
  7  8  1  6
  7  9  1  0
  9 10  1  0
  9 11  1  1
 10 12  1  0
 11 13  1  0
 10 14  1  0
 12 15  1  0
 12 16  2  0
 13 17  1  0
 14 18  1  1
 13 19  1  0
 14 19  1  0
 17 20  1  6
 18 21  1  0
 18 22  1  0
 17 23  1  0
 24 21  1  1
 22 25  2  0
 22 26  1  0
 24 26  1  0
 23 27  2  0
 23 28  1  0
 20 29  1  0
 24 30  1  0
 26 31  2  0
 25 32  1  0
 27 33  1  0
 28 34  1  0
 33 34  2  0
 29 35  2  0
 29 36  1  0
 30 37  1  0
 31 38  1  0
 37 38  1  0
 34 39  1  0
 36 40  1  0
 31 41  1  0
 32 41  2  0
 35 42  1  0
 36 43  2  0
 37 44  1  1
 42 45  2  0
 43 45  1  0
M  END
