x0434_2-x1412_1-x1386_0-x1412_0-x0692_1
     RDKit          3D

 29 32  0  0  0  0  0  0  0  0999 V2000
    6.3730   -3.4130   19.8890 C   0  0  0  0  0  0  0  0  0  0  0  0
    7.3390   -3.0480   18.7680 C   0  0  0  0  0  0  0  0  0  0  0  0
    5.3910   -4.1340   19.7140 O   0  0  0  0  0  0  0  0  0  0  0  0
    6.6670   -2.9400   21.1400 N   0  0  0  0  0  0  0  0  0  0  0  0
    7.6730   -1.8480   21.2250 C   0  0  1  0  0  0  0  0  0  0  0  0
    6.3610   -3.7530   22.3240 C   0  0  0  0  0  0  0  0  0  0  0  0
    6.9240   -0.5910   21.3680 N   0  0  0  0  0  0  0  0  0  0  0  0
    8.6760   -2.0890   22.3830 C   0  0  0  0  0  0  0  0  0  0  0  0
    7.5750   -4.0450   23.2050 C   0  0  0  0  0  0  0  0  0  0  0  0
    8.1490   -2.7540   23.5690 N   0  0  0  0  0  0  0  0  0  0  0  0
    6.3520    0.0530   20.2810 C   0  0  0  0  0  0  0  0  0  0  0  0
    9.0290   -2.7430   24.7010 C   0  0  2  0  0  0  0  0  0  0  0  0
    6.9760   -0.0420   18.8750 C   0  0  0  0  0  0  0  0  0  0  0  0
    5.0560    0.9260   20.3100 C   0  0  0  0  0  0  0  0  0  0  0  0
    8.8410   -1.6950   25.3080 O   0  0  0  0  0  0  0  0  0  0  0  0
   10.5070   -2.7680   24.3270 C   0  0  0  0  0  0  0  0  0  0  0  0
    8.8720   -3.8620   25.7110 C   0  0  0  0  0  0  0  0  0  0  0  0
    6.4010    0.6350   17.7240 N   0  0  0  0  0  0  0  0  0  0  0  0
    4.6040    1.5160   19.1440 C   0  0  0  0  0  0  0  0  0  0  0  0
    9.6630   -5.0330   25.5750 C   0  0  0  0  0  0  0  0  0  0  0  0
    7.8050   -3.8820   27.0730 S   0  0  0  0  0  0  0  0  0  0  0  0
    5.2390    1.3870   17.9050 C   0  0  0  0  0  0  0  0  0  0  0  0
   11.2720   -1.5110   23.9180 C   0  0  0  0  0  0  0  0  0  0  0  0
    9.3900   -5.9130   26.5740 C   0  0  0  0  0  0  0  0  0  0  0  0
    8.3540   -5.4120   27.5220 C   0  0  0  0  0  0  0  0  0  0  0  0
   12.3000   -1.4780   22.9820 C   0  0  0  0  0  0  0  0  0  0  0  0
   11.0580   -0.2380   24.4190 C   0  0  0  0  0  0  0  0  0  0  0  0
   12.8700   -0.2450   22.7530 C   0  0  0  0  0  0  0  0  0  0  0  0
   12.1140    0.9290   23.7210 S   0  0  0  0  0  0  0  0  0  0  0  0
  1  2  1  0
  1  3  2  0
  1  4  1  0
  4  5  1  0
  4  6  1  0
  5  7  1  1
  5  8  1  0
  6  9  1  0
  8 10  1  0
  9 10  1  0
  7 11  1  0
 10 12  1  0
 11 13  2  0
 11 14  1  0
 12 15  1  1
 12 16  1  0
 12 17  1  0
 13 18  1  0
 14 19  2  0
 17 20  2  0
 17 21  1  0
 18 22  2  0
 19 22  1  0
 16 23  1  0
 20 24  1  0
 21 25  1  0
 24 25  2  0
 23 26  1  0
 23 27  2  0
 26 28  2  0
 27 29  1  0
 28 29  1  0
M  END
