x0434_2-x1374_1-x1334_0-x1412_1-x0831_0-x1334_1-x0770_1-x1418_1-x1386_1-x0831_1-x1385_1-x0692_1-x0397_0
     RDKit          3D

 39 43  0  0  0  0  0  0  0  0999 V2000
    2.1780   -7.7660   23.3860 O   0  0  0  0  0  0  0  0  0  0  0  0
    2.3970   -8.1400   24.7330 C   0  0  0  0  0  0  0  0  0  0  0  0
    3.7800   -7.9800   24.9570 O   0  0  0  0  0  0  0  0  0  0  0  0
    4.3530   -7.2750   23.8800 C   0  0  0  0  0  0  0  0  0  0  0  0
    4.9100   -6.1030   24.2990 C   0  0  0  0  0  0  0  0  0  0  0  0
    6.0100   -5.7440   23.3550 C   0  0  2  0  0  0  0  0  0  0  0  0
    5.9820   -4.6570   22.4110 C   0  0  2  0  0  0  0  0  0  0  0  0
    6.1350   -6.3080   22.1640 C   0  0  0  0  0  0  0  0  0  0  0  0
    7.1500   -3.7500   22.1470 C   0  0  1  0  0  0  0  0  0  0  0  0
    6.8220   -2.8460   21.2140 N   0  0  0  0  0  0  0  0  0  0  0  0
    7.3440   -3.2530   23.5470 C   0  0  0  0  0  0  0  0  0  0  0  0
    6.4650   -3.2620   19.9020 C   0  0  0  0  0  0  0  0  0  0  0  0
    8.5220   -2.4190   23.6240 N   0  0  0  0  0  0  0  0  0  0  0  0
    7.4640   -1.5620   21.5340 C   0  0  2  0  0  0  0  0  0  0  0  0
    7.4170   -2.9610   18.7600 C   0  0  0  0  0  0  0  0  0  0  0  0
    5.4460   -3.9340   19.6510 O   0  0  0  0  0  0  0  0  0  0  0  0
    9.6100   -3.2570   24.0120 C   0  0  1  0  0  0  0  0  0  0  0  0
    7.7230   -0.7270   20.4000 N   0  0  0  0  0  0  0  0  0  0  0  0
    8.7810   -1.8030   22.3160 C   0  0  0  0  0  0  0  0  0  0  0  0
   10.8660   -2.5940   24.5290 C   0  0  0  0  0  0  0  0  0  0  0  0
    9.1590   -4.1070   25.1700 C   0  0  0  0  0  0  0  0  0  0  0  0
    6.7310   -0.0030   19.7690 C   0  0  0  0  0  0  0  0  0  0  0  0
    9.7700   -5.3380   25.3750 C   0  0  0  0  0  0  0  0  0  0  0  0
    7.9450   -3.8300   26.3720 S   0  0  0  0  0  0  0  0  0  0  0  0
   11.2030   -1.1690   24.1160 C   0  0  0  0  0  0  0  0  0  0  0  0
    6.9430    0.2450   18.4580 C   0  0  0  0  0  0  0  0  0  0  0  0
    5.5660    0.4810   20.3730 C   0  0  0  0  0  0  0  0  0  0  0  0
    9.3880   -6.1020   26.3860 C   0  0  0  0  0  0  0  0  0  0  0  0
    8.2720   -5.3560   27.1210 C   0  0  0  0  0  0  0  0  0  0  0  0
   10.4140   -0.1050   24.6160 C   0  0  0  0  0  0  0  0  0  0  0  0
   12.3060   -0.9420   23.2550 C   0  0  0  0  0  0  0  0  0  0  0  0
    6.2080    0.9090   17.5910 N   0  0  0  0  0  0  0  0  0  0  0  0
    4.6750    1.2660   19.3900 C   0  0  0  0  0  0  0  0  0  0  0  0
    7.3820   -5.8410   28.4970 Cl  0  0  0  0  0  0  0  0  0  0  0  0
   13.1260   -2.0570   22.7100 C   0  0  0  0  0  0  0  0  0  0  0  0
   10.6850    1.2330   24.2920 C   0  0  0  0  0  0  0  0  0  0  0  0
   12.6560    0.4980   22.8840 C   0  0  0  0  0  0  0  0  0  0  0  0
    5.0710    1.4240   18.0650 C   0  0  0  0  0  0  0  0  0  0  0  0
   11.7410    1.5470   23.4810 C   0  0  0  0  0  0  0  0  0  0  0  0
  1  2  1  0
  2  3  1  0
  3  4  1  0
  4  5  1  0
  6  5  1  6
  6  7  1  0
  6  8  1  0
  7  8  1  6
  7  9  1  0
  9 10  1  0
  9 11  1  1
 10 12  1  0
 11 13  1  0
 10 14  1  0
 12 15  1  0
 12 16  2  0
 13 17  1  0
 14 18  1  6
 13 19  1  0
 14 19  1  0
 17 20  1  1
 17 21  1  0
 18 22  1  0
 21 23  2  0
 21 24  1  0
 20 25  1  0
 22 26  2  0
 22 27  1  0
 23 28  1  0
 24 29  1  0
 28 29  2  0
 25 30  2  0
 25 31  1  0
 26 32  1  0
 27 33  2  0
 29 34  1  0
 31 35  1  0
 30 36  1  0
 31 37  2  0
 32 38  2  0
 33 38  1  0
 36 39  2  0
 37 39  1  0
M  END
