x0434_2-x1334_1-x0831_1-x0831_0-x0397_0-x1334_0
     RDKit          3D

 34 38  0  0  0  0  0  0  0  0999 V2000
    6.3860   -3.3750   19.8980 C   0  0  0  0  0  0  0  0  0  0  0  0
    7.3130   -3.0840   18.7320 C   0  0  0  0  0  0  0  0  0  0  0  0
    5.4430   -4.1720   19.7710 O   0  0  0  0  0  0  0  0  0  0  0  0
    6.7390   -2.6840   21.0530 N   0  0  0  0  0  0  0  0  0  0  0  0
    7.7570   -1.6290   20.9330 C   0  0  1  0  0  0  0  0  0  0  0  0
    6.5090   -3.2880   22.3750 C   0  0  2  0  0  0  0  0  0  0  0  0
    7.0340   -0.4190   21.1830 N   0  0  0  0  0  0  0  0  0  0  0  0
    8.9240   -1.7150   21.9690 C   0  0  0  0  0  0  0  0  0  0  0  0
    7.8190   -3.4340   23.1580 C   0  0  0  0  0  0  0  0  0  0  0  0
    5.6770   -4.5620   22.2720 C   0  0  0  0  0  0  0  0  0  0  0  0
    8.4580   -2.1060   23.2970 N   0  0  0  0  0  0  0  0  0  0  0  0
    5.9900   -5.5600   22.9760 C   0  0  0  0  0  0  0  0  0  0  0  0
    6.1900   -5.8700   21.5730 C   0  0  0  0  0  0  0  0  0  0  0  0
    6.3870    0.2250   20.0520 C   0  0  0  0  0  0  0  0  0  0  0  0
    9.6110   -1.9520   24.2000 C   0  0  1  0  0  0  0  0  0  0  0  0
    6.8860    0.1560   18.7500 C   0  0  0  0  0  0  0  0  0  0  0  0
    5.2140    0.9430   20.2610 C   0  0  0  0  0  0  0  0  0  0  0  0
   10.2030   -3.2930   24.1920 C   0  0  0  0  0  0  0  0  0  0  0  0
   10.6370   -0.8500   23.8420 C   0  0  0  0  0  0  0  0  0  0  0  0
    6.3450    0.7310   17.6600 N   0  0  0  0  0  0  0  0  0  0  0  0
    4.6140    1.5540   19.1640 C   0  0  0  0  0  0  0  0  0  0  0  0
   10.2620    0.4010   24.3160 C   0  0  0  0  0  0  0  0  0  0  0  0
   11.8570   -0.9400   23.1240 C   0  0  0  0  0  0  0  0  0  0  0  0
    9.6090   -4.2120   25.2060 C   0  0  0  0  0  0  0  0  0  0  0  0
    5.2010    1.4240   17.9310 C   0  0  0  0  0  0  0  0  0  0  0  0
   12.3760   -2.2230   22.5500 C   0  0  0  0  0  0  0  0  0  0  0  0
   11.0810    1.4880   24.0690 C   0  0  0  0  0  0  0  0  0  0  0  0
   12.6640    0.1890   22.9020 C   0  0  0  0  0  0  0  0  0  0  0  0
   10.0100   -5.4390   25.5720 C   0  0  0  0  0  0  0  0  0  0  0  0
    8.2030   -3.8370   26.1660 S   0  0  0  0  0  0  0  0  0  0  0  0
   12.2470    1.4350   23.3950 C   0  0  0  0  0  0  0  0  0  0  0  0
    9.3000   -6.0360   26.5190 C   0  0  0  0  0  0  0  0  0  0  0  0
    8.2440   -5.3330   27.0140 C   0  0  0  0  0  0  0  0  0  0  0  0
    7.1150   -5.7560   28.2290 Cl  0  0  0  0  0  0  0  0  0  0  0  0
  1  2  1  0
  1  3  2  0
  1  4  1  0
  4  5  1  0
  4  6  1  0
  5  7  1  1
  5  8  1  0
  6  9  1  0
  6 10  1  6
  8 11  1  0
  9 11  1  0
 10 12  1  0
 10 13  1  0
 12 13  1  0
  7 14  1  0
 11 15  1  0
 14 16  2  0
 14 17  1  0
 15 18  1  6
 15 19  1  0
 16 20  1  0
 17 21  2  0
 19 22  2  0
 19 23  1  0
 18 24  1  0
 20 25  2  0
 21 25  1  0
 23 26  1  0
 22 27  1  0
 23 28  2  0
 24 29  2  0
 24 30  1  0
 27 31  2  0
 28 31  1  0
 29 32  1  0
 30 33  1  0
 32 33  2  0
 33 34  1  0
M  END
