x0434_2-x1418_1-x1334_1-x0397_0-x0692_1-x0770_1-x1374_1-x1385_1-x0426_1-x1334_0-x0831_0-x1386_1
     RDKit          3D

 43 48  0  0  0  0  0  0  0  0999 V2000
    2.3060   -7.6500   23.2720 O   0  0  0  0  0  0  0  0  0  0  0  0
    2.6300   -7.8820   24.6230 C   0  0  0  0  0  0  0  0  0  0  0  0
    4.0350   -7.8930   24.7480 O   0  0  0  0  0  0  0  0  0  0  0  0
    4.6700   -7.1300   23.7250 C   0  0  0  0  0  0  0  0  0  0  0  0
    5.1640   -5.9620   24.2530 C   0  0  0  0  0  0  0  0  0  0  0  0
    6.1180   -5.3040   23.3100 C   0  0  2  0  0  0  0  0  0  0  0  0
    5.6040   -4.5540   22.3790 C   0  0  2  0  0  0  0  0  0  0  0  0
    6.4720   -5.9360   22.0590 C   0  0  0  0  0  0  0  0  0  0  0  0
    6.0550   -3.1120   22.2890 C   0  0  1  0  0  0  0  0  0  0  0  0
    6.7790   -2.6410   23.5880 C   0  0  0  0  0  0  0  0  0  0  0  0
    6.8570   -2.7950   21.1560 N   0  0  0  0  0  0  0  0  0  0  0  0
    6.4800   -3.3310   19.9150 C   0  0  0  0  0  0  0  0  0  0  0  0
    8.1530   -2.1690   23.3880 N   0  0  0  0  0  0  0  0  0  0  0  0
    7.2630   -1.4030   21.2420 C   0  0  1  0  0  0  0  0  0  0  0  0
    7.3950   -3.0140   18.7530 C   0  0  0  0  0  0  0  0  0  0  0  0
    5.4900   -4.0690   19.7410 O   0  0  0  0  0  0  0  0  0  0  0  0
    6.0340   -0.4380   21.3360 C   0  0  1  0  0  0  0  0  0  0  0  0
    9.0970   -3.2700   23.5430 C   0  0  1  0  0  0  0  0  0  0  0  0
    8.3220   -1.3310   22.1670 C   0  0  0  0  0  0  0  0  0  0  0  0
    5.9580    0.5410   22.5470 C   0  0  0  0  0  0  0  0  0  0  0  0
   10.4950   -2.7690   23.1790 C   0  0  0  0  0  0  0  0  0  0  0  0
    5.7410    0.3000   20.0890 C   0  0  0  0  0  0  0  0  0  0  0  0
    8.9580   -4.1510   24.8260 C   0  0  0  0  0  0  0  0  0  0  0  0
    4.7920    1.6030   22.4340 C   0  0  2  0  0  0  0  0  0  0  0  0
    4.7170    1.2350   20.0150 C   0  0  0  0  0  0  0  0  0  0  0  0
    6.5120    0.0700   18.9060 C   0  0  0  0  0  0  0  0  0  0  0  0
    9.7010   -5.3530   25.1430 C   0  0  0  0  0  0  0  0  0  0  0  0
    7.8230   -3.7960   26.0930 S   0  0  0  0  0  0  0  0  0  0  0  0
   10.8870   -1.3160   23.3730 C   0  0  0  0  0  0  0  0  0  0  0  0
    3.9090    1.5460   23.5800 N   0  0  0  0  0  0  0  0  0  0  0  0
    3.8640    1.5440   21.1880 C   0  0  0  0  0  0  0  0  0  0  0  0
    4.5070    1.9250   18.7130 C   0  0  0  0  0  0  0  0  0  0  0  0
    6.3900    0.6420   17.7030 N   0  0  0  0  0  0  0  0  0  0  0  0
    9.3590   -5.9440   26.3150 C   0  0  0  0  0  0  0  0  0  0  0  0
    8.2640   -5.2230   27.0620 C   0  0  0  0  0  0  0  0  0  0  0  0
   10.1560   -0.3860   24.1250 C   0  0  0  0  0  0  0  0  0  0  0  0
   12.1900   -0.8390   22.7100 C   0  0  0  0  0  0  0  0  0  0  0  0
    7.5020   -5.5920   28.5380 Cl  0  0  0  0  0  0  0  0  0  0  0  0
   13.0560   -1.7320   21.8850 C   0  0  0  0  0  0  0  0  0  0  0  0
    5.4180    1.5580   17.5750 C   0  0  0  0  0  0  0  0  0  0  0  0
   10.5990    0.9100   24.2510 C   0  0  0  0  0  0  0  0  0  0  0  0
   12.5310    0.6070   22.9560 C   0  0  0  0  0  0  0  0  0  0  0  0
   11.7000    1.4300   23.7260 C   0  0  0  0  0  0  0  0  0  0  0  0
  1  2  1  0
  2  3  1  0
  3  4  1  0
  4  5  1  0
  6  5  1  1
  6  7  1  0
  6  8  1  0
  7  8  1  6
  7  9  1  0
  9 10  1  1
  9 11  1  0
 11 12  1  0
 10 13  1  0
 11 14  1  0
 12 15  1  0
 12 16  2  0
 14 17  1  0
 13 18  1  0
 13 19  1  0
 14 19  1  1
 17 20  1  1
 18 21  1  1
 17 22  1  0
 18 23  1  0
 20 24  1  0
 22 25  2  0
 22 26  1  0
 23 27  2  0
 23 28  1  0
 21 29  1  0
 24 30  1  1
 24 31  1  0
 25 31  1  0
 25 32  1  0
 26 33  2  0
 27 34  1  0
 28 35  1  0
 34 35  2  0
 29 36  2  0
 29 37  1  0
 35 38  1  0
 37 39  1  0
 32 40  2  0
 33 40  1  0
 36 41  1  0
 37 42  2  0
 41 43  2  0
 42 43  1  0
M  END
