x0434_2-x1334_1-x1418_1-x1374_1-x1334_0-x0397_0-x0831_0-x0692_1-x1386_1-x1412_1-x0426_1-x0770_1
     RDKit          3D

 45 51  0  0  0  0  0  0  0  0999 V2000
    2.3310   -7.6260   23.9030 O   0  0  0  0  0  0  0  0  0  0  0  0
    3.5790   -6.9840   23.7810 C   0  0  0  0  0  0  0  0  0  0  0  0
    4.5890   -7.6230   24.5480 O   0  0  0  0  0  0  0  0  0  0  0  0
    5.9090   -7.2140   24.1290 C   0  0  0  0  0  0  0  0  0  0  0  0
    5.9670   -5.8530   24.0030 C   0  0  0  0  0  0  0  0  0  0  0  0
    5.4150   -5.4560   22.6840 C   0  0  1  0  0  0  0  0  0  0  0  0
    5.6680   -4.4050   21.9180 C   0  0  2  0  0  0  0  0  0  0  0  0
    5.8210   -6.0170   21.5690 C   0  0  0  0  0  0  0  0  0  0  0  0
    6.9520   -3.5770   22.0540 C   0  0  1  0  0  0  0  0  0  0  0  0
    6.8860   -2.7510   21.0090 N   0  0  0  0  0  0  0  0  0  0  0  0
    7.1690   -2.9800   23.2770 C   0  0  0  0  0  0  0  0  0  0  0  0
    6.4880   -3.2970   19.7960 C   0  0  0  0  0  0  0  0  0  0  0  0
    8.4870   -2.3240   23.2960 N   0  0  0  0  0  0  0  0  0  0  0  0
    7.8410   -1.7310   20.9350 C   0  0  1  0  0  0  0  0  0  0  0  0
    7.4080   -3.0240   18.6540 C   0  0  0  0  0  0  0  0  0  0  0  0
    5.4730   -4.0050   19.6450 O   0  0  0  0  0  0  0  0  0  0  0  0
    9.4880   -3.2670   23.7970 C   0  0  1  0  0  0  0  0  0  0  0  0
    7.1090   -0.5480   21.0610 N   0  0  0  0  0  0  0  0  0  0  0  0
    8.9680   -1.8390   21.9650 C   0  0  0  0  0  0  0  0  0  0  0  0
   10.9090   -2.7530   23.9250 C   0  0  0  0  0  0  0  0  0  0  0  0
    6.2850   -0.4970   22.2780 C   0  0  0  0  0  0  0  0  0  0  0  0
    6.4010    0.1430   20.0020 C   0  0  0  0  0  0  0  0  0  0  0  0
    9.1360   -4.0470   25.0540 C   0  0  0  0  0  0  0  0  0  0  0  0
    5.5360    0.7690   22.0980 C   0  0  1  0  0  0  0  0  0  0  0  0
    6.5230    0.1360   18.6140 N   0  0  0  0  0  0  0  0  0  0  0  0
    5.4670    0.9090   20.5950 C   0  0  0  0  0  0  0  0  0  0  0  0
    9.8870   -5.2750   25.4410 C   0  0  0  0  0  0  0  0  0  0  0  0
    7.8890   -3.6700   26.1720 S   0  0  0  0  0  0  0  0  0  0  0  0
   11.1510   -1.2790   23.8260 C   0  0  0  0  0  0  0  0  0  0  0  0
    4.1390    0.9330   22.6270 C   0  0  0  0  0  0  0  0  0  0  0  0
    4.5310    1.7460   19.9940 C   0  0  0  0  0  0  0  0  0  0  0  0
    5.6750    0.9280   17.9260 C   0  0  0  0  0  0  0  0  0  0  0  0
    9.4430   -5.8340   26.5940 C   0  0  0  0  0  0  0  0  0  0  0  0
    8.2700   -5.0190   27.1520 C   0  0  0  0  0  0  0  0  0  0  0  0
   10.3190   -0.1780   24.4940 C   0  0  0  0  0  0  0  0  0  0  0  0
   12.2360   -0.8490   23.0610 C   0  0  0  0  0  0  0  0  0  0  0  0
    3.7100    2.3560   22.3730 C   0  0  1  0  0  0  0  0  0  0  0  0
    3.5500    2.5110   20.8530 C   0  0  0  0  0  0  0  0  0  0  0  0
    7.3600   -5.3120   28.5630 Cl  0  0  0  0  0  0  0  0  0  0  0  0
   13.0970   -1.8290   22.3550 C   0  0  0  0  0  0  0  0  0  0  0  0
    4.6140    1.7870   18.5920 C   0  0  0  0  0  0  0  0  0  0  0  0
   10.7380    1.2480   24.2720 C   0  0  0  0  0  0  0  0  0  0  0  0
   12.5420    0.4920   22.9320 C   0  0  0  0  0  0  0  0  0  0  0  0
    2.5260    2.7050   23.1210 N   0  0  0  0  0  0  0  0  0  0  0  0
   11.8170    1.5210   23.5170 C   0  0  0  0  0  0  0  0  0  0  0  0
  1  2  1  0
  2  3  1  0
  3  4  1  0
  4  5  1  0
  6  5  1  1
  6  7  1  0
  6  8  1  0
  7  8  1  6
  7  9  1  0
  9 10  1  0
  9 11  1  1
 10 12  1  0
 11 13  1  0
 10 14  1  0
 12 15  1  0
 12 16  2  0
 13 17  1  0
 14 18  1  1
 13 19  1  0
 14 19  1  0
 17 20  1  1
 18 21  1  0
 18 22  1  0
 17 23  1  0
 24 21  1  6
 22 25  2  0
 22 26  1  0
 24 26  1  0
 23 27  2  0
 23 28  1  0
 20 29  1  0
 24 30  1  0
 26 31  2  0
 25 32  1  0
 27 33  1  0
 28 34  1  0
 33 34  2  0
 29 35  2  0
 29 36  1  0
 30 37  1  0
 31 38  1  0
 37 38  1  0
 34 39  1  0
 36 40  1  0
 31 41  1  0
 32 41  2  0
 35 42  1  0
 36 43  2  0
 37 44  1  1
 42 45  2  0
 43 45  1  0
M  END
