x0434_2-x0354_0
     RDKit          3D

 17 18  0  0  0  0  0  0  0  0999 V2000
    7.2520   -0.4760   21.4030 N   0  0  0  0  0  0  0  0  0  0  0  0
    8.2810   -1.4980   21.4780 C   0  0  0  0  0  0  0  0  0  0  0  0
    9.5250   -1.1020   22.1450 C   0  0  0  0  0  0  0  0  0  0  0  0
    6.5610    0.1010   20.3240 C   0  0  0  0  0  0  0  0  0  0  0  0
    6.9830   -0.0770   18.9960 C   0  0  0  0  0  0  0  0  0  0  0  0
    5.2910    0.9740   20.4980 C   0  0  0  0  0  0  0  0  0  0  0  0
    6.3870    0.4510   17.8940 N   0  0  0  0  0  0  0  0  0  0  0  0
    4.7300    1.4820   19.3380 C   0  0  0  0  0  0  0  0  0  0  0  0
   10.5510   -2.2130   22.1280 C   0  0  0  0  0  0  0  0  0  0  0  0
    5.2240    1.2620   18.0490 C   0  0  0  0  0  0  0  0  0  0  0  0
   11.4550   -2.3690   23.3820 C   0  0  2  0  0  0  0  0  0  0  0  0
   10.6170   -2.6110   24.6280 C   0  0  0  0  0  0  0  0  0  0  0  0
   12.3360   -1.2220   23.6080 N   0  0  0  0  0  0  0  0  0  0  0  0
   13.1700   -0.9780   22.5920 C   0  0  0  0  0  0  0  0  0  0  0  0
    9.8640   -1.5490   24.9210 N   0  0  0  0  0  0  0  0  0  0  0  0
   11.5770   -0.0280   23.9680 C   0  0  0  0  0  0  0  0  0  0  0  0
   10.6260   -0.3730   25.1180 C   0  0  0  0  0  0  0  0  0  0  0  0
  1  2  1  0
  2  3  1  0
  1  4  1  0
  4  5  2  0
  4  6  1  0
  5  7  1  0
  6  8  2  0
  3  9  1  0
  7 10  2  0
  8 10  1  0
 11  9  1  6
 11 12  1  0
 11 13  1  0
 13 14  1  0
 12 15  1  0
 13 16  1  0
 15 17  1  0
 16 17  1  0
M  END
