x0434_1-x1358_1
     RDKit          3D

 21 22  0  0  0  0  0  0  0  0999 V2000
    5.8980   -3.0320   25.2960 C   0  0  0  0  0  0  0  0  0  0  0  0
    6.1050   -3.2880   23.8280 C   0  0  2  0  0  0  0  0  0  0  0  0
    6.3090   -4.7600   23.5850 C   0  0  0  0  0  0  0  0  0  0  0  0
    4.7000   -3.2920   26.0310 O   0  0  0  0  0  0  0  0  0  0  0  0
    7.1760   -2.4590   23.0720 C   0  0  2  0  0  0  0  0  0  0  0  0
    6.4350   -1.5830   22.3670 C   0  0  0  0  0  0  0  0  0  0  0  0
    7.7650   -3.3880   22.0240 C   0  0  0  0  0  0  0  0  0  0  0  0
    6.1840   -5.1570   22.1230 C   0  0  0  0  0  0  0  0  0  0  0  0
    7.0990   -0.9850   21.1820 N   0  0  0  0  0  0  0  0  0  0  0  0
    6.8450   -4.2240   21.2480 N   0  0  0  0  0  0  0  0  0  0  0  0
    6.3080   -3.8710   20.0260 C   0  0  0  0  0  0  0  0  0  0  0  0
    8.4880   -0.5470   21.4160 C   0  0  0  0  0  0  0  0  0  0  0  0
    6.3780   -0.1570   20.1890 C   0  0  0  0  0  0  0  0  0  0  0  0
    5.1700   -4.1910   19.7100 O   0  0  0  0  0  0  0  0  0  0  0  0
    7.2080   -3.1430   19.0450 C   0  0  0  0  0  0  0  0  0  0  0  0
    8.9320    0.6010   21.3970 O   0  0  0  0  0  0  0  0  0  0  0  0
    7.0230   -0.1720   18.8060 C   0  0  0  0  0  0  0  0  0  0  0  0
    5.2180    0.5840   20.4520 C   0  0  0  0  0  0  0  0  0  0  0  0
    6.4330    0.6100   17.7120 N   0  0  0  0  0  0  0  0  0  0  0  0
    4.6610    1.3160   19.4170 C   0  0  0  0  0  0  0  0  0  0  0  0
    5.2220    1.3770   18.0140 C   0  0  0  0  0  0  0  0  0  0  0  0
  2  1  1  1
  2  3  1  0
  1  4  2  0
  2  5  1  0
  5  6  1  6
  5  7  1  0
  3  8  1  0
  6  9  1  0
  7 10  1  0
  8 10  1  0
 10 11  1  0
  9 12  1  0
  9 13  1  0
 11 14  2  0
 11 15  1  0
 12 16  2  0
 13 17  2  0
 13 18  1  0
 17 19  1  0
 18 20  2  0
 19 21  2  0
 20 21  1  0
M  END
