x0434_2-x1418_1-x0831_0-x0831_1-x0692_1-x0397_0-x0770_1-x1334_0-x1374_1-x1385_1-x1334_1
     RDKit          3D

 39 43  0  0  0  0  0  0  0  0999 V2000
    6.3990   -3.2310   19.8670 C   0  0  0  0  0  0  0  0  0  0  0  0
    7.3920   -2.9700   18.7390 C   0  0  0  0  0  0  0  0  0  0  0  0
    5.4720   -4.0480   19.7260 O   0  0  0  0  0  0  0  0  0  0  0  0
    6.6260   -2.5140   21.0800 N   0  0  0  0  0  0  0  0  0  0  0  0
    6.5450   -3.1800   22.3790 C   0  0  2  0  0  0  0  0  0  0  0  0
    7.7230   -1.4630   21.0840 C   0  0  2  0  0  0  0  0  0  0  0  0
    7.9460   -3.5470   22.9400 C   0  0  0  0  0  0  0  0  0  0  0  0
    8.1570   -1.1950   22.4170 C   0  0  0  0  0  0  0  0  0  0  0  0
    5.6730   -4.4030   22.2920 C   0  0  2  0  0  0  0  0  0  0  0  0
    7.4890   -0.0790   20.6030 C   0  0  0  0  0  0  0  0  0  0  0  0
    8.6710   -2.3090   23.2410 N   0  0  0  0  0  0  0  0  0  0  0  0
    6.0210   -5.4120   23.0580 C   0  0  2  0  0  0  0  0  0  0  0  0
    6.1310   -5.9180   21.7280 C   0  0  0  0  0  0  0  0  0  0  0  0
    7.0770    0.2010   19.1950 C   0  0  0  0  0  0  0  0  0  0  0  0
   10.1170   -2.3290   23.3370 C   0  0  2  0  0  0  0  0  0  0  0  0
    6.1280    0.5190   20.2290 C   0  0  0  0  0  0  0  0  0  0  0  0
    6.3920    0.5870   18.0540 N   0  0  0  0  0  0  0  0  0  0  0  0
    5.0940   -5.9130   24.1230 C   0  0  0  0  0  0  0  0  0  0  0  0
   10.6520   -3.2240   24.4270 C   0  0  0  0  0  0  0  0  0  0  0  0
   10.7920   -0.9460   23.4070 C   0  0  0  0  0  0  0  0  0  0  0  0
    5.1780    1.1380   17.8360 C   0  0  0  0  0  0  0  0  0  0  0  0
    4.8610    1.0620   20.1950 C   0  0  0  0  0  0  0  0  0  0  0  0
    4.5800   -7.1180   23.7490 C   0  0  0  0  0  0  0  0  0  0  0  0
   10.1690    0.1890   23.9180 C   0  0  0  0  0  0  0  0  0  0  0  0
   12.1210   -0.8330   22.9190 C   0  0  0  0  0  0  0  0  0  0  0  0
    9.7700   -4.0850   25.3210 C   0  0  0  0  0  0  0  0  0  0  0  0
    4.3150    1.4040   19.0170 C   0  0  0  0  0  0  0  0  0  0  0  0
    4.0540   -7.8880   24.8280 O   0  0  0  0  0  0  0  0  0  0  0  0
   12.8540   -2.0010   22.3380 C   0  0  0  0  0  0  0  0  0  0  0  0
   10.9070    1.3560   23.9180 C   0  0  0  0  0  0  0  0  0  0  0  0
   12.8190    0.3660   22.9430 C   0  0  0  0  0  0  0  0  0  0  0  0
   10.0470   -5.3990   25.6500 C   0  0  0  0  0  0  0  0  0  0  0  0
    8.3050   -3.6470   26.1270 S   0  0  0  0  0  0  0  0  0  0  0  0
    2.6600   -8.0520   24.6820 C   0  0  0  0  0  0  0  0  0  0  0  0
   12.2000    1.4890   23.4530 C   0  0  0  0  0  0  0  0  0  0  0  0
    9.1750   -6.0010   26.4990 C   0  0  0  0  0  0  0  0  0  0  0  0
    8.1610   -5.1770   26.8740 C   0  0  0  0  0  0  0  0  0  0  0  0
    2.3460   -7.7320   23.3440 O   0  0  0  0  0  0  0  0  0  0  0  0
    6.8830   -5.5570   27.9510 Cl  0  0  0  0  0  0  0  0  0  0  0  0
  1  2  1  0
  1  3  2  0
  1  4  1  0
  4  5  1  0
  4  6  1  0
  5  7  1  6
  6  8  1  0
  5  9  1  0
  6 10  1  1
  7 11  1  0
  8 11  1  0
  9 12  1  0
  9 13  1  6
 12 13  1  0
 10 14  1  0
 11 15  1  0
 14 16  2  0
 14 17  1  0
 12 18  1  1
 15 19  1  1
 15 20  1  0
 17 21  2  0
 16 22  1  0
 18 23  1  0
 20 24  2  0
 20 25  1  0
 19 26  1  0
 21 27  1  0
 22 27  2  0
 23 28  1  0
 25 29  1  0
 24 30  1  0
 25 31  2  0
 26 32  2  0
 26 33  1  0
 28 34  1  0
 30 35  2  0
 31 35  1  0
 32 36  1  0
 33 37  1  0
 36 37  2  0
 34 38  1  0
 37 39  1  0
M  END
