x0434_2-x0831_0-x1412_0-x1334_1-x0981_1
     RDKit          3D

 44 47  0  0  0  0  0  0  0  0999 V2000
    4.1840   -5.8660   22.9180 C   0  0  0  0  0  0  0  0  0  0  0  0
    2.7930   -6.1570   23.4560 C   0  0  1  0  0  0  0  0  0  0  0  0
    2.3950   -7.3890   22.7870 N   0  0  0  0  0  0  0  0  0  0  0  0
    4.7560   -4.7290   22.9480 N   0  0  0  0  0  0  0  0  0  0  0  0
    2.7250   -6.2670   24.9690 C   0  0  0  0  0  0  0  0  0  0  0  0
    6.0770   -4.8040   22.3120 C   0  0  0  0  0  0  0  0  0  0  0  0
    1.2250   -7.4900   22.0890 C   0  0  0  0  0  0  0  0  0  0  0  0
    3.1460   -7.6520   25.3370 C   0  0  0  0  0  0  0  0  0  0  0  0
    6.6780   -3.3290   22.3770 C   0  0  2  0  0  0  0  0  0  0  0  0
    1.1160   -8.7510   21.2730 C   0  0  0  0  0  0  0  0  0  0  0  0
    0.3520   -6.6270   22.1070 O   0  0  0  0  0  0  0  0  0  0  0  0
    2.5480   -8.2320   26.4210 N   0  0  0  0  0  0  0  0  0  0  0  0
    3.9860   -8.2240   24.6800 O   0  0  0  0  0  0  0  0  0  0  0  0
    6.8030   -2.6940   21.0420 N   0  0  0  0  0  0  0  0  0  0  0  0
    8.1360   -3.3810   23.1160 C   0  0  0  0  0  0  0  0  0  0  0  0
    6.4620   -3.3150   19.8480 C   0  0  0  0  0  0  0  0  0  0  0  0
    8.8670   -2.1280   23.0300 N   0  0  0  0  0  0  0  0  0  0  0  0
    7.8090   -1.6430   20.8640 C   0  0  1  0  0  0  0  0  0  0  0  0
    7.3700   -3.0460   18.6780 C   0  0  0  0  0  0  0  0  0  0  0  0
    5.4900   -4.0770   19.7130 O   0  0  0  0  0  0  0  0  0  0  0  0
    9.8580   -1.8280   23.9600 C   0  0  2  0  0  0  0  0  0  0  0  0
    7.1200   -0.3760   21.0850 N   0  0  0  0  0  0  0  0  0  0  0  0
    9.1260   -1.7650   21.6670 C   0  0  0  0  0  0  0  0  0  0  0  0
    9.2280   -1.4530   25.3090 C   0  0  0  0  0  0  0  0  0  0  0  0
   10.8180   -0.6860   23.6170 C   0  0  0  0  0  0  0  0  0  0  0  0
    6.4570    0.2350   20.0470 C   0  0  0  0  0  0  0  0  0  0  0  0
    8.0250   -2.4620   25.5780 C   0  0  0  0  0  0  0  0  0  0  0  0
   10.4140    0.5070   24.0760 C   0  0  0  0  0  0  0  0  0  0  0  0
   12.0970   -0.8950   22.8560 C   0  0  0  0  0  0  0  0  0  0  0  0
    6.8840    0.1810   18.7700 C   0  0  0  0  0  0  0  0  0  0  0  0
    5.2700    0.9520   20.3220 C   0  0  0  0  0  0  0  0  0  0  0  0
   12.5870   -2.2020   22.3130 C   0  0  0  0  0  0  0  0  0  0  0  0
    6.9010   -2.0750   25.3450 O   0  0  0  0  0  0  0  0  0  0  0  0
   11.0750    1.8990   23.9760 C   0  0  0  0  0  0  0  0  0  0  0  0
   12.7970    0.1590   22.6890 C   0  0  0  0  0  0  0  0  0  0  0  0
    8.3820   -3.7640   26.0910 C   0  0  0  0  0  0  0  0  0  0  0  0
    6.3260    0.7430   17.6680 N   0  0  0  0  0  0  0  0  0  0  0  0
    4.6390    1.5550   19.2420 C   0  0  0  0  0  0  0  0  0  0  0  0
   12.3280    1.5250   23.2190 C   0  0  0  0  0  0  0  0  0  0  0  0
    9.1450   -4.8130   25.5970 C   0  0  0  0  0  0  0  0  0  0  0  0
    7.7990   -4.2610   27.7200 S   0  0  0  0  0  0  0  0  0  0  0  0
    5.2060    1.4390   17.8600 C   0  0  0  0  0  0  0  0  0  0  0  0
    9.3010   -5.8950   26.3390 C   0  0  0  0  0  0  0  0  0  0  0  0
    8.5800   -5.7410   27.6100 C   0  0  0  0  0  0  0  0  0  0  0  0
  2  1  1  1
  2  3  1  0
  1  4  2  3
  2  5  1  0
  4  6  1  0
  3  7  1  0
  5  8  1  0
  9  6  1  6
  7 10  1  0
  7 11  2  0
  8 12  1  0
  8 13  2  0
  9 14  1  0
  9 15  1  0
 14 16  1  0
 15 17  1  0
 14 18  1  0
 16 19  1  0
 16 20  2  0
 17 21  1  0
 18 22  1  1
 17 23  1  0
 18 23  1  0
 21 24  1  1
 21 25  1  0
 22 26  1  0
 24 27  1  0
 25 28  2  0
 25 29  1  0
 26 30  2  0
 26 31  1  0
 29 32  1  0
 27 33  2  0
 28 34  1  0
 29 35  2  0
 27 36  1  0
 30 37  1  0
 31 38  2  0
 34 39  2  0
 35 39  1  0
 36 40  2  0
 36 41  1  0
 37 42  2  0
 38 42  1  0
 40 43  1  0
 41 44  1  0
 43 44  2  0
M  END
