x0434_2-x1412_1-x1334_0-x1385_1-x0831_0-x1334_1-x0770_1-x0397_0
     RDKit          3D

 34 38  0  0  0  0  0  0  0  0999 V2000
    6.3640   -3.3150   20.0600 C   0  0  0  0  0  0  0  0  0  0  0  0
    7.3290   -2.9930   18.9160 C   0  0  0  0  0  0  0  0  0  0  0  0
    5.4430   -4.1180   19.7740 O   0  0  0  0  0  0  0  0  0  0  0  0
    6.5520   -2.7520   21.3670 N   0  0  0  0  0  0  0  0  0  0  0  0
    7.3890   -1.5640   21.5660 C   0  0  2  0  0  0  0  0  0  0  0  0
    6.2070   -3.5000   22.4650 C   0  0  2  0  0  0  0  0  0  0  0  0
    7.7180   -0.8320   20.4020 N   0  0  0  0  0  0  0  0  0  0  0  0
    8.6810   -2.0170   22.2140 C   0  0  0  0  0  0  0  0  0  0  0  0
    7.5050   -3.8850   23.2050 C   0  0  0  0  0  0  0  0  0  0  0  0
    5.3910   -4.7710   22.3590 C   0  0  0  0  0  0  0  0  0  0  0  0
    8.3740   -2.7210   23.5000 N   0  0  0  0  0  0  0  0  0  0  0  0
    5.8530   -5.9980   22.9600 C   0  0  0  0  0  0  0  0  0  0  0  0
    6.0140   -6.1220   21.5110 C   0  0  0  0  0  0  0  0  0  0  0  0
    6.7860   -0.0650   19.7340 C   0  0  0  0  0  0  0  0  0  0  0  0
    9.6160   -3.1860   24.0600 C   0  0  1  0  0  0  0  0  0  0  0  0
    7.0100    0.1160   18.4650 C   0  0  0  0  0  0  0  0  0  0  0  0
    5.6430    0.5230   20.2910 C   0  0  0  0  0  0  0  0  0  0  0  0
   10.5730   -2.3080   24.8120 C   0  0  0  0  0  0  0  0  0  0  0  0
    9.2340   -4.1590   25.1460 C   0  0  0  0  0  0  0  0  0  0  0  0
    6.2160    0.8670   17.5560 N   0  0  0  0  0  0  0  0  0  0  0  0
    4.8330    1.2600   19.4750 C   0  0  0  0  0  0  0  0  0  0  0  0
    9.8960   -5.5170   25.2760 C   0  0  0  0  0  0  0  0  0  0  0  0
    8.0680   -3.8480   26.3090 S   0  0  0  0  0  0  0  0  0  0  0  0
   11.0810   -0.9830   24.2060 C   0  0  0  0  0  0  0  0  0  0  0  0
    5.0850    1.4590   18.1060 C   0  0  0  0  0  0  0  0  0  0  0  0
    9.3250   -6.2620   26.4640 C   0  0  0  0  0  0  0  0  0  0  0  0
    8.2480   -5.3860   27.1380 C   0  0  0  0  0  0  0  0  0  0  0  0
   10.3600    0.3380   24.5850 C   0  0  0  0  0  0  0  0  0  0  0  0
   12.3080   -0.8580   23.2420 C   0  0  0  0  0  0  0  0  0  0  0  0
    7.2910   -5.7520   28.5020 Cl  0  0  0  0  0  0  0  0  0  0  0  0
   13.0740   -2.0640   22.7860 C   0  0  0  0  0  0  0  0  0  0  0  0
   10.8610    1.6850   24.0390 C   0  0  0  0  0  0  0  0  0  0  0  0
   12.7140    0.3600   22.7970 C   0  0  0  0  0  0  0  0  0  0  0  0
   12.0990    1.5740   23.1250 C   0  0  0  0  0  0  0  0  0  0  0  0
  1  2  1  0
  1  3  2  0
  1  4  1  0
  4  5  1  0
  4  6  1  0
  5  7  1  6
  5  8  1  0
  6  9  1  0
  6 10  1  6
  8 11  1  0
  9 11  1  0
 10 12  1  0
 10 13  1  0
 12 13  1  0
  7 14  1  0
 11 15  1  0
 14 16  2  0
 14 17  1  0
 15 18  1  1
 15 19  1  0
 16 20  1  0
 17 21  2  0
 19 22  2  0
 19 23  1  0
 18 24  1  0
 20 25  2  0
 21 25  1  0
 22 26  1  0
 23 27  1  0
 26 27  2  0
 24 28  2  0
 24 29  1  0
 27 30  1  0
 29 31  1  0
 28 32  1  0
 29 33  2  0
 32 34  2  0
 33 34  1  0
M  END
