x0434_2-x0831_0-x1334_1-x0770_1-x1385_1-x0831_1-x0397_0-x0692_1-x1418_1
     RDKit          3D

 27 30  0  0  0  0  0  0  0  0999 V2000
    6.4190   -3.3130   20.0400 C   0  0  0  0  0  0  0  0  0  0  0  0
    7.3400   -3.0050   18.8750 C   0  0  0  0  0  0  0  0  0  0  0  0
    5.4910   -4.1290   19.7960 O   0  0  0  0  0  0  0  0  0  0  0  0
    6.6310   -2.7280   21.3340 N   0  0  0  0  0  0  0  0  0  0  0  0
    7.6420   -1.7060   21.6000 C   0  0  2  0  0  0  0  0  0  0  0  0
    6.4100   -3.3750   22.6030 C   0  0  2  0  0  0  0  0  0  0  0  0
    7.8510   -0.7470   20.5610 N   0  0  0  0  0  0  0  0  0  0  0  0
    8.9750   -2.3280   21.9260 C   0  0  0  0  0  0  0  0  0  0  0  0
    7.6910   -3.5640   23.4840 C   0  0  0  0  0  0  0  0  0  0  0  0
    5.6590   -4.6980   22.2480 C   0  0  0  0  0  0  0  0  0  0  0  0
    8.9830   -2.9640   23.0960 N   0  0  0  0  0  0  0  0  0  0  0  0
    6.1150   -5.7310   23.2020 C   0  0  0  0  0  0  0  0  0  0  0  0
    6.1420   -6.1060   21.6280 C   0  0  0  0  0  0  0  0  0  0  0  0
    6.8760   -0.0450   19.9360 C   0  0  0  0  0  0  0  0  0  0  0  0
    9.8580   -2.2860   24.0350 C   0  0  0  0  0  0  0  0  0  0  0  0
    7.0000    0.3160   18.4180 C   0  0  0  0  0  0  0  0  0  0  0  0
    5.5470    0.5880   20.2670 C   0  0  0  0  0  0  0  0  0  0  0  0
   10.7590   -1.0280   23.7870 C   0  0  0  0  0  0  0  0  0  0  0  0
    6.1470    1.0280   17.5630 N   0  0  0  0  0  0  0  0  0  0  0  0
    4.6330    1.2980   19.5520 C   0  0  0  0  0  0  0  0  0  0  0  0
   10.2750    0.1840   24.3100 C   0  0  0  0  0  0  0  0  0  0  0  0
   12.0100   -1.0140   23.0760 C   0  0  0  0  0  0  0  0  0  0  0  0
    4.9630    1.5390   18.1020 C   0  0  0  0  0  0  0  0  0  0  0  0
   12.6260   -2.2400   22.4630 C   0  0  0  0  0  0  0  0  0  0  0  0
   10.9760    1.3490   24.1410 C   0  0  0  0  0  0  0  0  0  0  0  0
   12.7190    0.2140   22.9270 C   0  0  0  0  0  0  0  0  0  0  0  0
   12.1710    1.3730   23.4700 C   0  0  0  0  0  0  0  0  0  0  0  0
  1  2  1  0
  1  3  2  0
  1  4  1  0
  4  5  1  0
  4  6  1  0
  5  7  1  6
  5  8  1  0
  6  9  1  0
  6 10  1  6
  8 11  1  0
  9 11  1  0
 10 12  1  0
 10 13  1  0
 12 13  1  0
  7 14  1  0
 11 15  1  0
 14 16  2  0
 14 17  1  0
 15 18  1  0
 16 19  1  0
 17 20  2  0
 18 21  2  0
 18 22  1  0
 19 23  2  0
 20 23  1  0
 22 24  1  0
 21 25  1  0
 22 26  2  0
 25 27  2  0
 26 27  1  0
M  END
