x0434_2-x1334_1-x1334_0-x0692_1-x0831_1-x0831_0-x0426_1-x1418_1-x0770_1-x0397_0-x1385_1
     RDKit          3D

 40 46  0  0  0  0  0  0  0  0999 V2000
    6.3820   -3.2470   19.9340 C   0  0  0  0  0  0  0  0  0  0  0  0
    7.3480   -2.9620   18.7970 C   0  0  0  0  0  0  0  0  0  0  0  0
    5.4730   -4.0730   19.7240 O   0  0  0  0  0  0  0  0  0  0  0  0
    6.5270   -2.6210   21.2090 N   0  0  0  0  0  0  0  0  0  0  0  0
    7.6250   -1.6080   21.4120 C   0  0  2  0  0  0  0  0  0  0  0  0
    6.3610   -3.3960   22.4530 C   0  0  2  0  0  0  0  0  0  0  0  0
    7.7160   -0.3630   20.6180 N   0  0  0  0  0  0  0  0  0  0  0  0
    8.9770   -2.2110   21.9000 C   0  0  0  0  0  0  0  0  0  0  0  0
    7.6210   -3.8320   22.9520 C   0  0  0  0  0  0  0  0  0  0  0  0
    5.5200   -4.6520   22.2820 C   0  0  0  0  0  0  0  0  0  0  0  0
    7.8180    0.7800   21.5640 C   0  0  0  0  0  0  0  0  0  0  0  0
    8.5830   -2.7540   23.2020 N   0  0  0  0  0  0  0  0  0  0  0  0
    5.7660   -5.7060   23.0060 C   0  0  0  0  0  0  0  0  0  0  0  0
    6.1310   -6.0410   21.6600 C   0  0  0  0  0  0  0  0  0  0  0  0
    6.7170    0.0770   19.7810 C   0  0  0  0  0  0  0  0  0  0  0  0
    6.3270    0.9570   21.8640 C   0  0  2  0  0  0  0  0  0  0  0  0
    9.7210   -3.1980   23.9820 C   0  0  1  0  0  0  0  0  0  0  0  0
    6.4560   -0.0880   18.4520 N   0  0  0  0  0  0  0  0  0  0  0  0
    5.7990    0.8730   20.4880 C   0  0  0  0  0  0  0  0  0  0  0  0
    5.8830    2.2950   22.5150 C   0  0  0  0  0  0  0  0  0  0  0  0
   10.3910   -2.0460   24.7580 C   0  0  0  0  0  0  0  0  0  0  0  0
    4.6450    1.4980   20.0520 C   0  0  0  0  0  0  0  0  0  0  0  0
    5.2610    0.5760   17.9820 C   0  0  0  0  0  0  0  0  0  0  0  0
    9.3340   -4.1850   25.0720 C   0  0  0  0  0  0  0  0  0  0  0  0
    4.3900    2.6340   22.4100 C   0  0  1  0  0  0  0  0  0  0  0  0
    3.7910    2.2880   20.9930 C   0  0  0  0  0  0  0  0  0  0  0  0
    4.3790    1.3310   18.7260 C   0  0  0  0  0  0  0  0  0  0  0  0
    9.8460   -5.4290   25.3400 C   0  0  0  0  0  0  0  0  0  0  0  0
    8.0480   -3.8600   26.2940 S   0  0  0  0  0  0  0  0  0  0  0  0
   11.0920   -0.8850   24.1480 C   0  0  0  0  0  0  0  0  0  0  0  0
    3.6240    1.9240   23.4320 N   0  0  0  0  0  0  0  0  0  0  0  0
    9.2930   -6.0740   26.4040 C   0  0  0  0  0  0  0  0  0  0  0  0
    8.2850   -5.3660   27.0550 C   0  0  0  0  0  0  0  0  0  0  0  0
   10.5280    0.3260   24.4960 C   0  0  0  0  0  0  0  0  0  0  0  0
   12.2320   -0.9070   23.3000 C   0  0  0  0  0  0  0  0  0  0  0  0
    7.3520   -5.8220   28.4100 Cl  0  0  0  0  0  0  0  0  0  0  0  0
   12.9120   -2.1630   22.8520 C   0  0  0  0  0  0  0  0  0  0  0  0
   11.0680    1.5130   24.0330 C   0  0  0  0  0  0  0  0  0  0  0  0
   12.7760    0.3040   22.8430 C   0  0  0  0  0  0  0  0  0  0  0  0
   12.1810    1.4990   23.2210 C   0  0  0  0  0  0  0  0  0  0  0  0
  1  2  1  0
  1  3  2  0
  1  4  1  0
  4  5  1  0
  4  6  1  0
  5  7  1  6
  5  8  1  0
  6  9  1  0
  6 10  1  6
  7 11  1  0
  8 12  1  0
  9 12  1  0
 10 13  1  0
 10 14  1  0
 13 14  1  0
  7 15  1  0
 16 11  1  6
 12 17  1  0
 15 18  2  0
 15 19  1  0
 16 19  1  0
 16 20  1  0
 17 21  1  1
 19 22  2  0
 18 23  1  0
 17 24  1  0
 20 25  1  0
 22 26  1  0
 25 26  1  0
 22 27  1  0
 23 27  2  0
 24 28  2  0
 24 29  1  0
 21 30  1  0
 25 31  1  1
 28 32  1  0
 29 33  1  0
 32 33  2  0
 30 34  2  0
 30 35  1  0
 33 36  1  0
 35 37  1  0
 34 38  1  0
 35 39  2  0
 38 40  2  0
 39 40  1  0
M  END
