x0434_2-x1334_1-x1412_1-x0770_1-x0831_0-x0831_1-x0397_0-x1386_1-x1375_1-x1385_1-x1418_1-x0692_1
     RDKit          3D

 31 34  0  0  0  0  0  0  0  0999 V2000
    2.1630   -7.1580   24.7150 O   0  0  0  0  0  0  0  0  0  0  0  0
    3.2960   -7.5750   25.4510 C   0  0  0  0  0  0  0  0  0  0  0  0
    4.4150   -7.6060   24.6000 O   0  0  0  0  0  0  0  0  0  0  0  0
    4.3330   -6.5470   23.6330 C   0  0  0  0  0  0  0  0  0  0  0  0
    5.6560   -5.9570   23.2000 C   0  0  2  0  0  0  0  0  0  0  0  0
    5.6690   -4.7640   22.2440 C   0  0  2  0  0  0  0  0  0  0  0  0
    6.2340   -6.2590   21.8850 C   0  0  0  0  0  0  0  0  0  0  0  0
    6.5790   -3.5940   22.5620 C   0  0  2  0  0  0  0  0  0  0  0  0
    6.7220   -2.7960   21.3130 N   0  0  0  0  0  0  0  0  0  0  0  0
    7.9330   -3.8180   23.2630 C   0  0  0  0  0  0  0  0  0  0  0  0
    6.4390   -3.3150   20.0020 C   0  0  0  0  0  0  0  0  0  0  0  0
    8.7240   -2.5690   23.3640 N   0  0  0  0  0  0  0  0  0  0  0  0
    7.4990   -1.6020   21.5830 C   0  0  2  0  0  0  0  0  0  0  0  0
    7.3410   -2.9880   18.8300 C   0  0  0  0  0  0  0  0  0  0  0  0
    5.4770   -4.0900   19.7660 O   0  0  0  0  0  0  0  0  0  0  0  0
   10.0600   -2.7080   23.6600 C   0  0  0  0  0  0  0  0  0  0  0  0
    7.6730   -0.8410   20.4210 N   0  0  0  0  0  0  0  0  0  0  0  0
    8.6770   -1.9460   22.0680 C   0  0  0  0  0  0  0  0  0  0  0  0
   10.7290   -1.3380   23.6500 C   0  0  0  0  0  0  0  0  0  0  0  0
    6.7420   -0.0860   19.7680 C   0  0  0  0  0  0  0  0  0  0  0  0
   10.1950   -0.1980   24.2850 C   0  0  0  0  0  0  0  0  0  0  0  0
   12.0900   -1.0580   22.9080 C   0  0  0  0  0  0  0  0  0  0  0  0
    7.0240    0.1750   18.4420 C   0  0  0  0  0  0  0  0  0  0  0  0
    5.4330    0.5290   20.2470 C   0  0  0  0  0  0  0  0  0  0  0  0
   12.8310   -2.1060   22.1580 C   0  0  0  0  0  0  0  0  0  0  0  0
   10.7210    1.0720   24.3080 C   0  0  0  0  0  0  0  0  0  0  0  0
   12.7200    0.4150   22.9360 C   0  0  0  0  0  0  0  0  0  0  0  0
    6.1780    0.9440   17.6120 N   0  0  0  0  0  0  0  0  0  0  0  0
    4.5580    1.3150   19.4240 C   0  0  0  0  0  0  0  0  0  0  0  0
   12.0260    1.3990   23.6130 C   0  0  0  0  0  0  0  0  0  0  0  0
    5.0050    1.4600   18.1750 C   0  0  0  0  0  0  0  0  0  0  0  0
  1  2  1  0
  2  3  1  0
  3  4  1  0
  5  4  1  6
  5  6  1  0
  5  7  1  0
  6  7  1  6
  6  8  1  0
  8  9  1  0
  8 10  1  6
  9 11  1  0
 10 12  1  0
  9 13  1  0
 11 14  1  0
 11 15  2  0
 12 16  1  0
 13 17  1  6
 12 18  1  0
 13 18  1  0
 16 19  1  0
 17 20  1  0
 19 21  2  0
 19 22  1  0
 20 23  2  0
 20 24  1  0
 22 25  1  0
 21 26  1  0
 22 27  2  0
 23 28  1  0
 24 29  2  0
 26 30  2  0
 27 30  1  0
 28 31  2  0
 29 31  1  0
M  END
