x0434_2-x1412_1
     RDKit          3D

 16 17  0  0  0  0  0  0  0  0999 V2000
    6.3210   -3.3640   19.9460 C   0  0  0  0  0  0  0  0  0  0  0  0
    7.2580   -2.9850   18.8100 C   0  0  0  0  0  0  0  0  0  0  0  0
    5.3590   -4.1100   19.7170 O   0  0  0  0  0  0  0  0  0  0  0  0
    6.5780   -2.9140   21.2520 N   0  0  0  0  0  0  0  0  0  0  0  0
    7.3970   -1.7620   21.7030 C   0  0  2  0  0  0  0  0  0  0  0  0
    6.2080   -3.6790   22.4550 C   0  0  0  0  0  0  0  0  0  0  0  0
    7.8600   -0.9190   20.6010 N   0  0  0  0  0  0  0  0  0  0  0  0
    8.6450   -2.2290   22.4770 C   0  0  0  0  0  0  0  0  0  0  0  0
    7.3790   -4.0890   23.3530 C   0  0  0  0  0  0  0  0  0  0  0  0
    8.2890   -2.9800   23.6810 N   0  0  0  0  0  0  0  0  0  0  0  0
    6.7950   -0.1380   19.9190 C   0  0  0  0  0  0  0  0  0  0  0  0
    6.9850    0.0300   18.5730 C   0  0  0  0  0  0  0  0  0  0  0  0
    5.6360    0.4560   20.4250 C   0  0  0  0  0  0  0  0  0  0  0  0
    6.2160    0.6850   17.6970 N   0  0  0  0  0  0  0  0  0  0  0  0
    4.7800    1.1620   19.5550 C   0  0  0  0  0  0  0  0  0  0  0  0
    5.1160    1.2490   18.2110 C   0  0  0  0  0  0  0  0  0  0  0  0
  1  2  1  0
  1  3  2  0
  1  4  1  0
  4  5  1  0
  4  6  1  0
  5  7  1  6
  5  8  1  0
  6  9  1  0
  8 10  1  0
  9 10  1  0
  7 11  1  0
 11 12  2  0
 11 13  1  0
 12 14  1  0
 13 15  2  0
 14 16  2  0
 15 16  1  0
M  END
