x0434_2-x1380_1
     RDKit          3D

 19 20  0  0  0  0  0  0  0  0999 V2000
    5.9580   -3.1870   25.4030 C   0  0  0  0  0  0  0  0  0  0  0  0
    6.1720   -3.7240   24.0280 C   0  0  1  0  0  0  0  0  0  0  0  0
    7.3760   -3.2250   23.5410 C   0  0  0  0  0  0  0  0  0  0  0  0
    4.8580   -2.9010   25.8770 O   0  0  0  0  0  0  0  0  0  0  0  0
    6.0290   -5.0700   23.6770 C   0  0  0  0  0  0  0  0  0  0  0  0
    6.6650   -5.3920   22.4460 C   0  0  0  0  0  0  0  0  0  0  0  0
    7.2940   -3.1510   22.1920 C   0  0  2  0  0  0  0  0  0  0  0  0
    6.5350   -1.9120   21.9050 C   0  0  0  0  0  0  0  0  0  0  0  0
    6.6760   -4.1760   21.5890 N   0  0  0  0  0  0  0  0  0  0  0  0
    6.2210   -4.1260   20.2830 C   0  0  0  0  0  0  0  0  0  0  0  0
    7.3110   -0.9370   21.1370 N   0  0  0  0  0  0  0  0  0  0  0  0
    6.9960   -3.2640   19.3050 C   0  0  0  0  0  0  0  0  0  0  0  0
    5.2640   -4.8060   19.9560 O   0  0  0  0  0  0  0  0  0  0  0  0
    6.6610   -0.2270   20.1690 C   0  0  0  0  0  0  0  0  0  0  0  0
    7.0290   -0.1790   18.7840 C   0  0  0  0  0  0  0  0  0  0  0  0
    5.4050    0.6410   20.4610 C   0  0  0  0  0  0  0  0  0  0  0  0
    6.3410    0.5900   17.7230 N   0  0  0  0  0  0  0  0  0  0  0  0
    4.7260    1.4170   19.3370 C   0  0  0  0  0  0  0  0  0  0  0  0
    5.1660    1.4010   18.0400 C   0  0  0  0  0  0  0  0  0  0  0  0
  2  1  1  1
  2  3  1  0
  1  4  2  0
  2  5  1  0
  5  6  1  0
  3  7  1  0
  7  8  1  1
  6  9  1  0
  7  9  1  0
  9 10  1  0
  8 11  1  0
 10 12  1  0
 10 13  2  0
 11 14  1  0
 14 15  2  0
 14 16  1  0
 15 17  1  0
 16 18  2  0
 17 19  2  0
 18 19  1  0
M  END
