x0434_2-x1334_1-x0770_1-x1418_1-x1374_1-x1412_1-x1385_1-x0692_1-x0831_0-x0397_0-x0426_1-x1334_0-x0831_1-x1375_1
     RDKit          3D

 45 51  0  0  0  0  0  0  0  0999 V2000
    2.1130   -7.0020   23.8580 O   0  0  0  0  0  0  0  0  0  0  0  0
    2.5140   -7.8890   24.8910 C   0  0  0  0  0  0  0  0  0  0  0  0
    3.9260   -7.9490   24.8620 O   0  0  0  0  0  0  0  0  0  0  0  0
    4.4910   -7.2040   23.7890 C   0  0  0  0  0  0  0  0  0  0  0  0
    4.8910   -5.9760   24.2310 C   0  0  0  0  0  0  0  0  0  0  0  0
    5.9810   -5.5470   23.2970 C   0  0  2  0  0  0  0  0  0  0  0  0
    5.6460   -4.5300   22.3700 C   0  0  2  0  0  0  0  0  0  0  0  0
    6.1270   -6.0930   22.0740 C   0  0  0  0  0  0  0  0  0  0  0  0
    6.4690   -3.2900   22.4090 C   0  0  2  0  0  0  0  0  0  0  0  0
    6.5390   -2.5250   21.1160 N   0  0  0  0  0  0  0  0  0  0  0  0
    7.7400   -3.4680   23.0420 C   0  0  0  0  0  0  0  0  0  0  0  0
    6.3640   -3.2470   19.8970 C   0  0  0  0  0  0  0  0  0  0  0  0
    8.5450   -2.2260   23.1710 N   0  0  0  0  0  0  0  0  0  0  0  0
    7.5190   -1.4440   21.3050 C   0  0  2  0  0  0  0  0  0  0  0  0
    7.3710   -2.9850   18.8010 C   0  0  0  0  0  0  0  0  0  0  0  0
    5.4580   -4.0810   19.7420 O   0  0  0  0  0  0  0  0  0  0  0  0
    9.6330   -2.0670   24.1320 C   0  0  1  0  0  0  0  0  0  0  0  0
    7.7510   -0.3240   20.4030 N   0  0  0  0  0  0  0  0  0  0  0  0
    8.8610   -1.8810   21.8140 C   0  0  0  0  0  0  0  0  0  0  0  0
   10.2300   -3.4130   24.3480 C   0  0  0  0  0  0  0  0  0  0  0  0
    8.0510    0.7530   21.3770 C   0  0  0  0  0  0  0  0  0  0  0  0
    6.6430    0.1950   19.6030 C   0  0  0  0  0  0  0  0  0  0  0  0
   10.5860   -0.8750   23.8540 C   0  0  0  0  0  0  0  0  0  0  0  0
    6.6960    1.4640   21.6510 C   0  0  1  0  0  0  0  0  0  0  0  0
    6.1540   -0.0890   18.3850 N   0  0  0  0  0  0  0  0  0  0  0  0
    6.0360    1.1520   20.3630 C   0  0  0  0  0  0  0  0  0  0  0  0
   10.2420    0.4000   24.3170 C   0  0  0  0  0  0  0  0  0  0  0  0
   11.9110   -0.9150   23.1020 C   0  0  0  0  0  0  0  0  0  0  0  0
    9.6480   -4.1990   25.2540 C   0  0  0  0  0  0  0  0  0  0  0  0
    5.5990    1.2060   22.7150 C   0  0  0  0  0  0  0  0  0  0  0  0
   12.4580   -2.1850   22.5160 C   0  0  0  0  0  0  0  0  0  0  0  0
    4.8420    1.9030   20.0630 C   0  0  0  0  0  0  0  0  0  0  0  0
    5.0280    0.6130   18.0230 C   0  0  0  0  0  0  0  0  0  0  0  0
   11.0890    1.4990   24.0690 C   0  0  0  0  0  0  0  0  0  0  0  0
   12.7150    0.1900   22.8910 C   0  0  0  0  0  0  0  0  0  0  0  0
    9.9460   -5.4870   25.5080 C   0  0  0  0  0  0  0  0  0  0  0  0
    8.3790   -3.7380   26.3100 S   0  0  0  0  0  0  0  0  0  0  0  0
    4.5930    2.3960   22.5490 C   0  0  1  0  0  0  0  0  0  0  0  0
    4.3270    2.8690   21.0910 C   0  0  0  0  0  0  0  0  0  0  0  0
    4.2580    1.5910   18.6940 C   0  0  0  0  0  0  0  0  0  0  0  0
   12.2950    1.4010   23.3780 C   0  0  0  0  0  0  0  0  0  0  0  0
    9.2260   -6.1280   26.5180 C   0  0  0  0  0  0  0  0  0  0  0  0
    8.3160   -5.2740   27.0610 C   0  0  0  0  0  0  0  0  0  0  0  0
    3.3380    2.0860   23.2020 N   0  0  0  0  0  0  0  0  0  0  0  0
    7.2130   -5.6000   28.3270 Cl  0  0  0  0  0  0  0  0  0  0  0  0
  1  2  1  0
  2  3  1  0
  3  4  1  0
  4  5  1  0
  6  5  1  1
  6  7  1  0
  6  8  1  0
  7  8  1  6
  7  9  1  0
  9 10  1  0
  9 11  1  6
 10 12  1  0
 11 13  1  0
 10 14  1  0
 12 15  1  0
 12 16  2  0
 13 17  1  0
 14 18  1  6
 13 19  1  0
 14 19  1  0
 17 20  1  6
 18 21  1  0
 18 22  1  0
 17 23  1  0
 24 21  1  1
 22 25  2  0
 22 26  1  0
 24 26  1  0
 23 27  2  0
 23 28  1  0
 20 29  1  0
 24 30  1  0
 28 31  1  0
 26 32  2  0
 25 33  1  0
 27 34  1  0
 28 35  2  0
 29 36  2  0
 29 37  1  0
 30 38  1  0
 32 39  1  0
 38 39  1  0
 32 40  1  0
 33 40  2  0
 34 41  2  0
 35 41  1  0
 36 42  1  0
 37 43  1  0
 42 43  2  0
 38 44  1  6
 43 45  1  0
M  END
