x0434_1-x0395_1-x1412_1-x0981_1
     RDKit          3D

 38 40  0  0  0  0  0  0  0  0999 V2000
    4.2410   -5.4340   23.2880 C   0  0  0  0  0  0  0  0  0  0  0  0
    2.8440   -5.9990   23.5350 C   0  0  1  0  0  0  0  0  0  0  0  0
    2.5610   -7.1800   22.7160 N   0  0  0  0  0  0  0  0  0  0  0  0
    4.4750   -4.2350   23.7160 N   0  0  0  0  0  0  0  0  0  0  0  0
    2.6040   -6.2970   25.0040 C   0  0  0  0  0  0  0  0  0  0  0  0
    5.7910   -3.5900   23.5510 C   0  0  0  0  0  0  0  0  0  0  0  0
    1.3780   -7.4860   22.1060 C   0  0  0  0  0  0  0  0  0  0  0  0
    3.0790   -7.7090   25.3180 C   0  0  0  0  0  0  0  0  0  0  0  0
    6.5280   -4.0070   22.4310 C   0  0  1  0  0  0  0  0  0  0  0  0
    1.2310   -8.7670   21.3320 C   0  0  0  0  0  0  0  0  0  0  0  0
    0.4500   -6.6780   22.1860 O   0  0  0  0  0  0  0  0  0  0  0  0
    2.4770   -8.3420   26.3660 N   0  0  0  0  0  0  0  0  0  0  0  0
    3.9550   -8.2260   24.6600 O   0  0  0  0  0  0  0  0  0  0  0  0
    6.4340   -3.1050   21.2760 N   0  0  0  0  0  0  0  0  0  0  0  0
    7.9350   -4.0210   22.6890 C   0  0  0  0  0  0  0  0  0  0  0  0
    6.2410   -3.5910   20.0080 C   0  0  0  0  0  0  0  0  0  0  0  0
    8.5680   -2.6890   22.9560 N   0  0  0  0  0  0  0  0  0  0  0  0
    7.0540   -1.8100   21.4220 C   0  0  0  0  0  0  0  0  0  0  0  0
    7.2270   -3.1020   18.9300 C   0  0  0  0  0  0  0  0  0  0  0  0
    5.3280   -4.3710   19.7990 O   0  0  0  0  0  0  0  0  0  0  0  0
    8.4220   -1.8240   21.7600 C   0  0  1  0  0  0  0  0  0  0  0  0
    8.7660   -0.2650   22.0390 C   0  0  1  0  0  0  0  0  0  0  0  0
    9.1890    0.4900   21.2110 O   0  0  0  0  0  0  0  0  0  0  0  0
    7.3550    0.2250   22.1090 N   0  0  0  0  0  0  0  0  0  0  0  0
    9.8470   -0.4860   23.0650 N   0  0  0  0  0  0  0  0  0  0  0  0
    8.8030    1.8580   21.4900 C   0  0  0  0  0  0  0  0  0  0  0  0
    6.6230    0.5100   20.7450 C   0  0  0  0  0  0  0  0  0  0  0  0
   10.9260   -1.4300   22.6310 C   0  0  0  0  0  0  0  0  0  0  0  0
   10.3100    0.5880   23.9550 C   0  0  0  0  0  0  0  0  0  0  0  0
    7.0820    0.0170   19.5130 C   0  0  0  0  0  0  0  0  0  0  0  0
    5.3680    1.3240   20.5740 C   0  0  0  0  0  0  0  0  0  0  0  0
   12.2010   -0.8430   22.5250 C   0  0  0  0  0  0  0  0  0  0  0  0
   11.4930    1.3510   23.3440 C   0  0  0  0  0  0  0  0  0  0  0  0
   13.2190   -1.6050   22.0570 F   0  0  0  0  0  0  0  0  0  0  0  0
    6.5150    0.2240   18.2720 N   0  0  0  0  0  0  0  0  0  0  0  0
    4.7990    1.5240   19.3030 C   0  0  0  0  0  0  0  0  0  0  0  0
   12.4960    0.4900   22.8700 C   0  0  0  0  0  0  0  0  0  0  0  0
    5.4020    0.9650   18.1940 C   0  0  0  0  0  0  0  0  0  0  0  0
  2  1  1  1
  2  3  1  0
  1  4  2  3
  2  5  1  0
  4  6  1  0
  3  7  1  0
  5  8  1  0
  9  6  1  1
  7 10  1  0
  7 11  2  0
  8 12  1  0
  8 13  2  0
  9 14  1  0
  9 15  1  0
 14 16  1  0
 15 17  1  0
 14 18  1  0
 16 19  1  0
 16 20  2  0
 17 21  1  0
 21 18  1  1
 21 22  1  0
 22 23  1  0
 22 24  1  1
 22 25  1  0
 23 26  1  0
 24 27  1  0
 25 28  1  0
 25 29  1  0
 27 30  2  0
 27 31  1  0
 28 32  1  0
 29 33  1  0
 32 34  1  0
 30 35  1  0
 31 36  2  0
 32 37  2  0
 33 37  1  0
 35 38  2  0
 36 38  1  0
M  END
