x0434_1-x0991_0
     RDKit          3D

 16 16  0  0  0  0  0  0  0  0999 V2000
   10.0610   -5.4930   25.3210 N   0  0  0  0  0  0  0  0  0  0  0  0
    8.7800   -5.1100   25.4290 C   0  0  0  0  0  0  0  0  0  0  0  0
    8.0110   -4.4280   24.3230 C   0  0  0  0  0  0  0  0  0  0  0  0
    8.0260   -5.3330   26.6730 N   0  0  0  0  0  0  0  0  0  0  0  0
    8.9670   -3.7070   23.3940 C   0  0  0  0  0  0  0  0  0  0  0  0
    8.7920   -2.1930   23.3980 C   0  0  0  0  0  0  0  0  0  0  0  0
    9.3380   -1.5490   22.1210 C   0  0  0  0  0  0  0  0  0  0  0  0
    8.6390   -0.3470   21.5570 C   0  0  0  0  0  0  0  0  0  0  0  0
    9.1890    0.7480   21.4650 O   0  0  0  0  0  0  0  0  0  0  0  0
    7.2620   -0.6380   21.1550 N   0  0  0  0  0  0  0  0  0  0  0  0
    6.5190    0.0240   20.0880 C   0  0  0  0  0  0  0  0  0  0  0  0
    6.9670   -0.0220   18.7710 C   0  0  0  0  0  0  0  0  0  0  0  0
    5.2470    0.8030   20.3000 C   0  0  0  0  0  0  0  0  0  0  0  0
    6.3820    0.5660   17.7120 N   0  0  0  0  0  0  0  0  0  0  0  0
    4.6170    1.4050   19.2800 C   0  0  0  0  0  0  0  0  0  0  0  0
    5.1650    1.2950   18.0230 C   0  0  0  0  0  0  0  0  0  0  0  0
  1  2  2  3
  2  3  1  0
  2  4  1  0
  3  5  1  0
  5  6  1  0
  6  7  1  0
  7  8  1  0
  8  9  2  0
  8 10  1  0
 10 11  1  0
 11 12  2  0
 11 13  1  0
 12 14  1  0
 13 15  2  0
 14 16  2  0
 15 16  1  0
M  END
