x0434_2-x1385_1-x1386_1-x1334_0-x1418_1-x0692_1-x0426_1-x0397_0-x0831_0-x0770_1-x1334_1-x1374_1-x0831_1-x1412_1
     RDKit          3D

 44 49  0  0  0  0  0  0  0  0999 V2000
    2.2830   -7.7090   23.3040 O   0  0  0  0  0  0  0  0  0  0  0  0
    2.6120   -7.8950   24.6650 C   0  0  0  0  0  0  0  0  0  0  0  0
    4.0160   -7.8690   24.7880 O   0  0  0  0  0  0  0  0  0  0  0  0
    4.5690   -7.0800   23.7380 C   0  0  0  0  0  0  0  0  0  0  0  0
    5.0620   -5.8900   24.1730 C   0  0  0  0  0  0  0  0  0  0  0  0
    6.0980   -5.4150   23.2020 C   0  0  2  0  0  0  0  0  0  0  0  0
    5.8070   -4.3420   22.2100 C   0  0  2  0  0  0  0  0  0  0  0  0
    6.0490   -5.9510   21.8370 C   0  0  0  0  0  0  0  0  0  0  0  0
    6.9410   -3.3330   22.2870 C   0  0  2  0  0  0  0  0  0  0  0  0
    7.1020   -2.8710   23.5660 C   0  0  0  0  0  0  0  0  0  0  0  0
    6.9200   -2.2750   21.1970 C   0  0  1  0  0  0  0  0  0  0  0  0
    6.5900   -3.1010   19.8540 C   0  0  0  0  0  0  0  0  0  0  0  0
    6.0170   -1.0050   21.3360 C   0  0  2  0  0  0  0  0  0  0  0  0
    8.4360   -2.1950   23.5930 N   0  0  0  0  0  0  0  0  0  0  0  0
    8.2520   -1.9790   21.2060 C   0  0  0  0  0  0  0  0  0  0  0  0
    7.5090   -2.9610   18.6570 C   0  0  0  0  0  0  0  0  0  0  0  0
    5.6420   -3.9210   19.7110 O   0  0  0  0  0  0  0  0  0  0  0  0
    4.9100   -1.0890   22.4160 C   0  0  0  0  0  0  0  0  0  0  0  0
    9.4560   -3.1880   23.8650 C   0  0  1  0  0  0  0  0  0  0  0  0
    8.7180   -1.3650   22.3730 C   0  0  0  0  0  0  0  0  0  0  0  0
    5.7240   -0.1290   20.1360 C   0  0  0  0  0  0  0  0  0  0  0  0
    4.8550    0.2110   23.2880 C   0  0  0  0  0  0  0  0  0  0  0  0
   10.7720   -2.6170   24.4050 C   0  0  0  0  0  0  0  0  0  0  0  0
    4.6830    0.8510   20.0220 C   0  0  0  0  0  0  0  0  0  0  0  0
    6.6270   -0.3810   19.0940 C   0  0  0  0  0  0  0  0  0  0  0  0
    9.2190   -4.1930   24.9910 C   0  0  0  0  0  0  0  0  0  0  0  0
    4.3680    1.4610   22.4830 C   0  0  1  0  0  0  0  0  0  0  0  0
    3.7080    1.1450   21.1290 C   0  0  0  0  0  0  0  0  0  0  0  0
    4.4890    1.6300   18.8450 C   0  0  0  0  0  0  0  0  0  0  0  0
    6.4300    0.4380   17.8510 N   0  0  0  0  0  0  0  0  0  0  0  0
    9.7990   -5.4020   25.2190 C   0  0  0  0  0  0  0  0  0  0  0  0
    8.0410   -3.7680   26.1770 S   0  0  0  0  0  0  0  0  0  0  0  0
   11.1180   -1.1670   24.0840 C   0  0  0  0  0  0  0  0  0  0  0  0
    3.4840    2.3070   23.2530 N   0  0  0  0  0  0  0  0  0  0  0  0
    5.3580    1.3850   17.8410 C   0  0  0  0  0  0  0  0  0  0  0  0
    9.2910   -5.9910   26.3570 C   0  0  0  0  0  0  0  0  0  0  0  0
    8.3200   -5.2380   27.0020 C   0  0  0  0  0  0  0  0  0  0  0  0
   10.3900   -0.1260   24.5490 C   0  0  0  0  0  0  0  0  0  0  0  0
   12.2710   -0.9640   23.2620 C   0  0  0  0  0  0  0  0  0  0  0  0
    7.4540   -5.6260   28.4200 Cl  0  0  0  0  0  0  0  0  0  0  0  0
   13.0910   -2.0860   22.7100 C   0  0  0  0  0  0  0  0  0  0  0  0
   10.6520    1.2060   24.3110 C   0  0  0  0  0  0  0  0  0  0  0  0
   12.7010    0.5190   22.9200 C   0  0  0  0  0  0  0  0  0  0  0  0
   11.8580    1.6200   23.4660 C   0  0  0  0  0  0  0  0  0  0  0  0
  1  2  1  0
  2  3  1  0
  3  4  1  0
  4  5  1  0
  6  5  1  1
  6  7  1  0
  6  8  1  0
  7  8  1  6
  7  9  1  0
  9 10  1  1
  9 11  1  0
 11 12  1  6
 11 13  1  0
 10 14  1  0
 11 15  1  0
 12 16  1  0
 12 17  2  0
 13 18  1  6
 14 19  1  0
 14 20  1  0
 15 20  1  0
 13 21  1  0
 18 22  1  0
 19 23  1  1
 21 24  2  0
 21 25  1  0
 19 26  1  0
 22 27  1  0
 24 28  1  0
 27 28  1  0
 24 29  1  0
 25 30  2  0
 26 31  2  0
 26 32  1  0
 23 33  1  0
 27 34  1  1
 29 35  2  0
 30 35  1  0
 31 36  1  0
 32 37  1  0
 36 37  2  0
 33 38  2  0
 33 39  1  0
 37 40  1  0
 39 41  1  0
 38 42  1  0
 39 43  2  0
 42 44  2  0
 43 44  1  0
M  END
