x0434_2-x0736_1-x0874_0-x1412_0-x1334_1
     RDKit          3D

 30 33  0  0  0  0  0  0  0  0999 V2000
    6.2990   -3.3440   19.9760 C   0  0  0  0  0  0  0  0  0  0  0  0
    7.3550   -3.0200   18.9300 C   0  0  0  0  0  0  0  0  0  0  0  0
    5.3530   -4.0780   19.6820 O   0  0  0  0  0  0  0  0  0  0  0  0
    6.3790   -2.8660   21.2770 N   0  0  0  0  0  0  0  0  0  0  0  0
    7.2620   -1.7810   21.7800 C   0  0  2  0  0  0  0  0  0  0  0  0
    6.0640   -3.8570   22.3170 C   0  0  0  0  0  0  0  0  0  0  0  0
    7.6180   -0.7130   20.8380 N   0  0  0  0  0  0  0  0  0  0  0  0
    8.5790   -2.3930   22.3000 C   0  0  0  0  0  0  0  0  0  0  0  0
    7.3440   -4.3900   22.9670 C   0  0  0  0  0  0  0  0  0  0  0  0
    8.3490   -3.3680   23.3580 N   0  0  0  0  0  0  0  0  0  0  0  0
    6.6810    0.0240   20.0460 C   0  0  0  0  0  0  0  0  0  0  0  0
    8.5300   -3.0200   24.6680 C   0  0  0  0  0  0  0  0  0  0  0  0
    7.0430   -0.0070   18.5650 C   0  0  0  0  0  0  0  0  0  0  0  0
    5.5510    0.7280   20.4360 C   0  0  0  0  0  0  0  0  0  0  0  0
    8.6260   -1.6280   25.0660 N   0  0  0  0  0  0  0  0  0  0  0  0
    8.6640   -4.0900   25.7160 C   0  0  0  0  0  0  0  0  0  0  0  0
    6.1850    0.7210   17.6140 N   0  0  0  0  0  0  0  0  0  0  0  0
    4.7410    1.4350   19.4060 C   0  0  0  0  0  0  0  0  0  0  0  0
    8.5370   -0.6810   24.0780 C   0  0  0  0  0  0  0  0  0  0  0  0
    9.5440   -5.3370   25.4870 C   0  0  0  0  0  0  0  0  0  0  0  0
    7.8020   -3.9080   27.2230 S   0  0  0  0  0  0  0  0  0  0  0  0
    5.1040    1.3960   18.0660 C   0  0  0  0  0  0  0  0  0  0  0  0
    9.8080    0.2760   24.0400 C   0  0  0  0  0  0  0  0  0  0  0  0
    9.2400   -5.9380   26.8230 C   0  0  0  0  0  0  0  0  0  0  0  0
    8.4750   -5.4650   27.7750 C   0  0  0  0  0  0  0  0  0  0  0  0
   11.0940   -0.1440   23.3450 C   0  0  0  0  0  0  0  0  0  0  0  0
   12.2800    0.8290   23.4120 C   0  0  0  0  0  0  0  0  0  0  0  0
   11.2770   -1.3500   22.6490 C   0  0  0  0  0  0  0  0  0  0  0  0
   13.2070   -0.0380   22.6200 C   0  0  0  0  0  0  0  0  0  0  0  0
   12.8140   -1.5500   21.9840 S   0  0  0  0  0  0  0  0  0  0  0  0
  1  2  1  0
  1  3  2  0
  1  4  1  0
  4  5  1  0
  4  6  1  0
  5  7  1  6
  5  8  1  0
  6  9  1  0
  8 10  1  0
  9 10  1  0
  7 11  1  0
 10 12  1  0
 11 13  2  0
 11 14  1  0
 12 15  2  3
 12 16  1  0
 13 17  1  0
 14 18  2  0
 15 19  1  0
 16 20  2  0
 16 21  1  0
 17 22  2  0
 18 22  1  0
 19 23  1  0
 20 24  1  0
 21 25  1  0
 24 25  2  0
 23 26  1  0
 26 27  1  0
 26 28  2  0
 27 29  2  0
 28 30  1  0
 29 30  1  0
M  END
