x0434_2-x0831_0-x0831_1-x1418_1-x1386_1-x0692_1-x0770_1-x1334_1-x1412_1-x0397_0
     RDKit          3D

 28 31  0  0  0  0  0  0  0  0999 V2000
    6.3340   -3.3350   20.0300 C   0  0  0  0  0  0  0  0  0  0  0  0
    7.3120   -3.0020   18.9150 C   0  0  0  0  0  0  0  0  0  0  0  0
    5.4260   -4.1550   19.7810 O   0  0  0  0  0  0  0  0  0  0  0  0
    6.5080   -2.7480   21.3090 N   0  0  0  0  0  0  0  0  0  0  0  0
    6.2960   -1.3330   21.5730 C   0  0  1  0  0  0  0  0  0  0  0  0
    6.6020   -3.6270   22.4720 C   0  0  2  0  0  0  0  0  0  0  0  0
    7.6590   -0.6750   21.2550 C   0  0  0  0  0  0  0  0  0  0  0  0
    7.7450   -3.2260   23.4220 C   0  0  0  0  0  0  0  0  0  0  0  0
    6.6090   -5.1170   22.0750 C   0  0  0  0  0  0  0  0  0  0  0  0
    4.9450   -0.8870   20.9910 C   0  0  0  0  0  0  0  0  0  0  0  0
    8.6660   -2.1220   23.0280 N   0  0  0  0  0  0  0  0  0  0  0  0
    8.7270   -1.7070   21.7060 C   0  0  0  0  0  0  0  0  0  0  0  0
    6.7730   -5.7770   23.3190 C   0  0  0  0  0  0  0  0  0  0  0  0
    5.6820   -6.3200   22.8010 C   0  0  0  0  0  0  0  0  0  0  0  0
    4.6970    0.2380   20.3010 C   0  0  0  0  0  0  0  0  0  0  0  0
    9.9420   -2.3020   23.5030 C   0  0  0  0  0  0  0  0  0  0  0  0
    5.7450   -0.5270   19.6970 C   0  0  0  0  0  0  0  0  0  0  0  0
    4.7010    1.2950   19.3390 C   0  0  0  0  0  0  0  0  0  0  0  0
   10.6930   -0.9980   23.5050 C   0  0  0  0  0  0  0  0  0  0  0  0
    6.5780   -0.3180   18.4720 C   0  0  0  0  0  0  0  0  0  0  0  0
    5.4050    1.5530   18.1930 C   0  0  0  0  0  0  0  0  0  0  0  0
   10.2170    0.1920   24.0560 C   0  0  0  0  0  0  0  0  0  0  0  0
   11.9850   -0.9620   22.8870 C   0  0  0  0  0  0  0  0  0  0  0  0
    6.4310    0.7070   17.6890 N   0  0  0  0  0  0  0  0  0  0  0  0
   12.6150   -2.1720   22.2530 C   0  0  0  0  0  0  0  0  0  0  0  0
   10.9340    1.5540   24.0570 C   0  0  0  0  0  0  0  0  0  0  0  0
   12.8590    0.4100   22.8250 C   0  0  0  0  0  0  0  0  0  0  0  0
   12.3330    1.7260   23.4160 C   0  0  0  0  0  0  0  0  0  0  0  0
  1  2  1  0
  1  3  2  0
  1  4  1  0
  4  5  1  0
  4  6  1  0
  5  7  1  0
  6  8  1  0
  6  9  1  6
  5 10  1  6
  8 11  1  0
  7 12  1  0
 11 12  1  0
  9 13  1  0
  9 14  1  0
 13 14  1  0
 10 15  1  0
 11 16  1  0
 15 17  2  0
 15 18  1  0
 16 19  1  0
 17 20  1  0
 18 21  2  0
 19 22  2  0
 19 23  1  0
 20 24  2  0
 21 24  1  0
 23 25  1  0
 22 26  1  0
 23 27  2  0
 26 28  2  0
 27 28  1  0
M  END
