x0434_2-x1385_1-x0692_1-x1334_1-x1334_0-x1374_1-x0397_0-x0426_1-x0770_1-x1412_1-x1386_1-x1418_1-x0831_0-x0831_1
     RDKit          3D

 44 49  0  0  0  0  0  0  0  0999 V2000
    2.0900   -7.1790   23.6050 O   0  0  0  0  0  0  0  0  0  0  0  0
    2.6930   -7.3420   24.8740 C   0  0  0  0  0  0  0  0  0  0  0  0
    4.0520   -7.6960   24.6640 O   0  0  0  0  0  0  0  0  0  0  0  0
    4.5860   -6.9790   23.5560 C   0  0  0  0  0  0  0  0  0  0  0  0
    5.0180   -5.7450   23.9230 C   0  0  0  0  0  0  0  0  0  0  0  0
    5.9240   -5.2370   22.8480 C   0  0  2  0  0  0  0  0  0  0  0  0
    5.4560   -4.3690   21.9750 C   0  0  2  0  0  0  0  0  0  0  0  0
    6.1480   -5.8860   21.7630 C   0  0  0  0  0  0  0  0  0  0  0  0
    6.1890   -3.0420   22.2860 C   0  0  1  0  0  0  0  0  0  0  0  0
    7.2340   -3.3370   23.3650 C   0  0  0  0  0  0  0  0  0  0  0  0
    6.5930   -2.2530   21.1710 C   0  0  1  0  0  0  0  0  0  0  0  0
    6.3850   -3.1390   19.8870 C   0  0  0  0  0  0  0  0  0  0  0  0
    5.7410   -0.9550   21.3860 C   0  0  2  0  0  0  0  0  0  0  0  0
    8.3560   -2.4520   23.2930 N   0  0  0  0  0  0  0  0  0  0  0  0
    7.9110   -1.7910   21.0990 C   0  0  0  0  0  0  0  0  0  0  0  0
    7.3740   -2.9670   18.7320 C   0  0  0  0  0  0  0  0  0  0  0  0
    5.5040   -4.0100   19.7450 O   0  0  0  0  0  0  0  0  0  0  0  0
    4.6340   -0.8710   22.4470 C   0  0  0  0  0  0  0  0  0  0  0  0
    9.3330   -2.6470   24.3110 C   0  0  2  0  0  0  0  0  0  0  0  0
    8.9310   -2.4720   21.9400 C   0  0  0  0  0  0  0  0  0  0  0  0
    5.4710   -0.0280   20.1930 C   0  0  0  0  0  0  0  0  0  0  0  0
    4.6230    0.3980   23.3670 C   0  0  0  0  0  0  0  0  0  0  0  0
   10.6680   -2.6140   23.5780 C   0  0  0  0  0  0  0  0  0  0  0  0
    4.4880    0.9790   20.0820 C   0  0  0  0  0  0  0  0  0  0  0  0
    6.4170   -0.2690   19.0310 C   0  0  0  0  0  0  0  0  0  0  0  0
    9.0870   -3.8300   25.2160 C   0  0  0  0  0  0  0  0  0  0  0  0
    4.2360    1.6500   22.5500 C   0  0  1  0  0  0  0  0  0  0  0  0
    3.5490    1.2460   21.2180 C   0  0  0  0  0  0  0  0  0  0  0  0
    4.4550    1.7280   18.8120 C   0  0  0  0  0  0  0  0  0  0  0  0
    6.3920    0.4670   17.7820 N   0  0  0  0  0  0  0  0  0  0  0  0
    9.7260   -5.0740   25.2130 C   0  0  0  0  0  0  0  0  0  0  0  0
    7.9170   -3.7810   26.4870 S   0  0  0  0  0  0  0  0  0  0  0  0
   11.1250   -1.1840   23.5550 C   0  0  0  0  0  0  0  0  0  0  0  0
    3.3600    2.5030   23.3220 N   0  0  0  0  0  0  0  0  0  0  0  0
    5.4460    1.4090   17.7060 C   0  0  0  0  0  0  0  0  0  0  0  0
    9.2690   -5.9210   26.2190 C   0  0  0  0  0  0  0  0  0  0  0  0
    8.2730   -5.3690   27.0150 C   0  0  0  0  0  0  0  0  0  0  0  0
   10.4350   -0.1590   24.2230 C   0  0  0  0  0  0  0  0  0  0  0  0
   12.2920   -0.8740   22.8480 C   0  0  0  0  0  0  0  0  0  0  0  0
    7.4230   -6.0150   28.3510 Cl  0  0  0  0  0  0  0  0  0  0  0  0
   13.0460   -1.9280   22.1080 C   0  0  0  0  0  0  0  0  0  0  0  0
   10.8800    1.1530   24.2030 C   0  0  0  0  0  0  0  0  0  0  0  0
   12.7860    0.4080   22.8070 C   0  0  0  0  0  0  0  0  0  0  0  0
   12.1400    1.4570   23.4510 C   0  0  0  0  0  0  0  0  0  0  0  0
  1  2  1  0
  2  3  1  0
  3  4  1  0
  4  5  1  0
  6  5  1  1
  6  7  1  0
  6  8  1  0
  7  8  1  6
  7  9  1  0
  9 10  1  6
  9 11  1  0
 11 12  1  6
 11 13  1  0
 10 14  1  0
 11 15  1  0
 12 16  1  0
 12 17  2  0
 13 18  1  6
 14 19  1  0
 14 20  1  0
 15 20  1  0
 13 21  1  0
 18 22  1  0
 19 23  1  6
 21 24  2  0
 21 25  1  0
 19 26  1  0
 22 27  1  0
 24 28  1  0
 27 28  1  0
 24 29  1  0
 25 30  2  0
 26 31  2  0
 26 32  1  0
 23 33  1  0
 27 34  1  1
 29 35  2  0
 30 35  1  0
 31 36  1  0
 32 37  1  0
 36 37  2  0
 33 38  2  0
 33 39  1  0
 37 40  1  0
 39 41  1  0
 38 42  1  0
 39 43  2  0
 42 44  2  0
 43 44  1  0
M  END
