x0434_2-x0397_0-x1334_0-x1385_1-x1418_1-x0831_0-x0770_1-x0831_1-x1374_1-x0692_1-x1334_1-x1412_1-x0540_3
     RDKit          3D

 44 48  0  0  0  0  0  0  0  0999 V2000
    1.9730   -7.0770   23.9490 O   0  0  0  0  0  0  0  0  0  0  0  0
    2.3630   -8.0460   24.9050 C   0  0  0  0  0  0  0  0  0  0  0  0
    3.7740   -8.0870   24.9240 O   0  0  0  0  0  0  0  0  0  0  0  0
    4.3300   -7.3050   23.8810 C   0  0  0  0  0  0  0  0  0  0  0  0
    4.8290   -6.0070   24.3420 C   0  0  0  0  0  0  0  0  0  0  0  0
    5.7750   -5.5830   23.2680 C   0  0  2  0  0  0  0  0  0  0  0  0
    5.3680   -4.6350   22.2650 C   0  0  2  0  0  0  0  0  0  0  0  0
    5.8930   -6.1440   21.8370 C   0  0  0  0  0  0  0  0  0  0  0  0
    6.2190   -3.3730   22.3820 C   0  0  1  0  0  0  0  0  0  0  0  0
    7.4680   -3.6950   23.1390 C   0  0  0  0  0  0  0  0  0  0  0  0
    6.3160   -2.6940   21.2490 N   0  0  0  0  0  0  0  0  0  0  0  0
    6.2410   -3.2780   19.9480 C   0  0  0  0  0  0  0  0  0  0  0  0
    8.1100   -2.4280   23.3720 N   0  0  0  0  0  0  0  0  0  0  0  0
    7.0010   -1.4040   21.5010 C   0  0  1  0  0  0  0  0  0  0  0  0
    7.2870   -2.9680   18.8900 C   0  0  0  0  0  0  0  0  0  0  0  0
    5.3340   -4.0730   19.6960 O   0  0  0  0  0  0  0  0  0  0  0  0
    6.0940   -0.5360   22.4650 C   0  0  0  0  0  0  0  0  0  0  0  0
    9.2140   -2.6360   24.2660 C   0  0  2  0  0  0  0  0  0  0  0  0
    8.2770   -1.7630   22.0860 C   0  0  0  0  0  0  0  0  0  0  0  0
    5.1440    0.4860   21.8060 C   0  0  1  0  0  0  0  0  0  0  0  0
   10.4090   -2.5280   23.3920 C   0  0  0  0  0  0  0  0  0  0  0  0
    9.0310   -3.8220   25.2220 C   0  0  0  0  0  0  0  0  0  0  0  0
    5.2540    1.8990   22.5280 C   0  0  0  0  0  0  0  0  0  0  0  0
    9.6900   -4.9660   25.2210 C   0  0  0  0  0  0  0  0  0  0  0  0
    7.8960   -3.7750   26.4690 S   0  0  0  0  0  0  0  0  0  0  0  0
   10.9910   -1.1270   23.4190 C   0  0  0  0  0  0  0  0  0  0  0  0
    5.5320    0.5940   20.3490 C   0  0  0  0  0  0  0  0  0  0  0  0
    3.9940    2.6050   22.5280 N   0  0  0  0  0  0  0  0  0  0  0  0
    9.4280   -6.0750   26.2500 C   0  0  0  0  0  0  0  0  0  0  0  0
    8.3360   -5.3180   26.9860 C   0  0  0  0  0  0  0  0  0  0  0  0
   10.4120   -0.0350   24.0640 C   0  0  0  0  0  0  0  0  0  0  0  0
   12.3120   -0.8630   22.7120 C   0  0  0  0  0  0  0  0  0  0  0  0
    6.7480   -0.0650   19.7950 C   0  0  0  0  0  0  0  0  0  0  0  0
    4.7480    1.3270   19.4710 C   0  0  0  0  0  0  0  0  0  0  0  0
    2.9420    2.2030   23.3090 C   0  0  0  0  0  0  0  0  0  0  0  0
    7.4770   -5.9080   28.3450 Cl  0  0  0  0  0  0  0  0  0  0  0  0
   13.0730   -1.8910   21.9590 C   0  0  0  0  0  0  0  0  0  0  0  0
   10.9400    1.2660   24.1130 C   0  0  0  0  0  0  0  0  0  0  0  0
   12.8360    0.5500   22.8160 C   0  0  0  0  0  0  0  0  0  0  0  0
    6.9850    0.0950   18.5100 C   0  0  0  0  0  0  0  0  0  0  0  0
    5.1660    1.4140   18.0220 C   0  0  0  0  0  0  0  0  0  0  0  0
    3.0180    1.4040   24.4780 O   0  0  0  0  0  0  0  0  0  0  0  0
   12.1180    1.5210   23.5010 C   0  0  0  0  0  0  0  0  0  0  0  0
    6.2760    0.7900   17.5830 N   0  0  0  0  0  0  0  0  0  0  0  0
  1  2  1  0
  2  3  1  0
  3  4  1  0
  4  5  1  0
  6  5  1  1
  6  7  1  0
  6  8  1  0
  7  8  1  6
  7  9  1  0
  9 10  1  6
  9 11  1  0
 11 12  1  0
 10 13  1  0
 11 14  1  0
 12 15  1  0
 12 16  2  0
 14 17  1  1
 13 18  1  0
 13 19  1  0
 14 19  1  0
 20 17  1  1
 18 21  1  6
 18 22  1  0
 20 23  1  0
 22 24  2  0
 22 25  1  0
 21 26  1  0
 20 27  1  0
 23 28  1  0
 24 29  1  0
 25 30  1  0
 29 30  2  0
 26 31  2  0
 26 32  1  0
 27 33  2  0
 27 34  1  0
 28 35  1  0
 30 36  1  0
 32 37  1  0
 31 38  1  0
 32 39  2  0
 33 40  1  0
 34 41  2  0
 35 42  2  0
 38 43  2  0
 39 43  1  0
 40 44  2  0
 41 44  1  0
M  END
