x0434_2-x0831_0-x0397_0-x1374_1-x1412_1-x1334_0-x1334_1-x0770_1-x0692_1
     RDKit          3D

 39 43  0  0  0  0  0  0  0  0999 V2000
    2.2520   -7.6870   23.1900 O   0  0  0  0  0  0  0  0  0  0  0  0
    2.4940   -7.9920   24.5470 C   0  0  0  0  0  0  0  0  0  0  0  0
    3.8800   -7.9910   24.7950 O   0  0  0  0  0  0  0  0  0  0  0  0
    4.5680   -7.2350   23.8090 C   0  0  0  0  0  0  0  0  0  0  0  0
    4.8800   -6.0150   24.3330 C   0  0  0  0  0  0  0  0  0  0  0  0
    5.9850   -5.5440   23.4440 C   0  0  2  0  0  0  0  0  0  0  0  0
    5.7690   -4.7020   22.5570 C   0  0  2  0  0  0  0  0  0  0  0  0
    6.2760   -6.1580   22.1410 C   0  0  0  0  0  0  0  0  0  0  0  0
    6.6380   -3.4310   22.5670 C   0  0  2  0  0  0  0  0  0  0  0  0
    6.7000   -2.7440   21.2860 N   0  0  0  0  0  0  0  0  0  0  0  0
    8.0100   -3.6150   23.1530 C   0  0  0  0  0  0  0  0  0  0  0  0
    6.4310   -3.3640   20.0100 C   0  0  0  0  0  0  0  0  0  0  0  0
    8.6240   -2.2730   23.3520 N   0  0  0  0  0  0  0  0  0  0  0  0
    7.3580   -1.4560   21.4970 C   0  0  2  0  0  0  0  0  0  0  0  0
    7.3800   -3.0060   18.8600 C   0  0  0  0  0  0  0  0  0  0  0  0
    5.5010   -4.1700   19.8170 O   0  0  0  0  0  0  0  0  0  0  0  0
    9.7000   -2.0910   24.1770 C   0  0  1  0  0  0  0  0  0  0  0  0
    7.6310   -0.7260   20.3230 N   0  0  0  0  0  0  0  0  0  0  0  0
    8.7560   -1.6640   22.0670 C   0  0  0  0  0  0  0  0  0  0  0  0
   10.4030   -3.3770   24.3920 C   0  0  0  0  0  0  0  0  0  0  0  0
   10.6350   -0.9190   23.8500 C   0  0  0  0  0  0  0  0  0  0  0  0
    6.7070    0.0190   19.6760 C   0  0  0  0  0  0  0  0  0  0  0  0
   10.2460    0.3370   24.3160 C   0  0  0  0  0  0  0  0  0  0  0  0
   11.8760   -0.9790   23.1140 C   0  0  0  0  0  0  0  0  0  0  0  0
    9.6910   -4.2560   25.3600 C   0  0  0  0  0  0  0  0  0  0  0  0
    6.9960    0.3300   18.4160 C   0  0  0  0  0  0  0  0  0  0  0  0
    5.3980    0.5560   20.1630 C   0  0  0  0  0  0  0  0  0  0  0  0
   12.4530   -2.2300   22.5310 C   0  0  0  0  0  0  0  0  0  0  0  0
   10.9910    1.4840   24.0960 C   0  0  0  0  0  0  0  0  0  0  0  0
   12.5940    0.2060   22.9260 C   0  0  0  0  0  0  0  0  0  0  0  0
    9.9730   -5.5550   25.5830 C   0  0  0  0  0  0  0  0  0  0  0  0
    8.3790   -3.7650   26.3700 S   0  0  0  0  0  0  0  0  0  0  0  0
    6.2860    1.0450   17.5580 N   0  0  0  0  0  0  0  0  0  0  0  0
    4.5750    1.3640   19.2300 C   0  0  0  0  0  0  0  0  0  0  0  0
   12.1760    1.4260   23.4000 C   0  0  0  0  0  0  0  0  0  0  0  0
    9.2050   -6.1380   26.5270 C   0  0  0  0  0  0  0  0  0  0  0  0
    8.2570   -5.3080   27.0960 C   0  0  0  0  0  0  0  0  0  0  0  0
    5.0440    1.6000   17.9300 C   0  0  0  0  0  0  0  0  0  0  0  0
    7.1180   -5.6690   28.3140 Cl  0  0  0  0  0  0  0  0  0  0  0  0
  1  2  1  0
  2  3  1  0
  3  4  1  0
  4  5  1  0
  6  5  1  6
  6  7  1  0
  6  8  1  0
  7  8  1  6
  7  9  1  0
  9 10  1  0
  9 11  1  6
 10 12  1  0
 11 13  1  0
 10 14  1  0
 12 15  1  0
 12 16  2  0
 13 17  1  0
 14 18  1  6
 13 19  1  0
 14 19  1  0
 17 20  1  6
 17 21  1  0
 18 22  1  0
 21 23  2  0
 21 24  1  0
 20 25  1  0
 22 26  2  0
 22 27  1  0
 24 28  1  0
 23 29  1  0
 24 30  2  0
 25 31  2  0
 25 32  1  0
 26 33  1  0
 27 34  2  0
 29 35  2  0
 30 35  1  0
 31 36  1  0
 32 37  1  0
 36 37  2  0
 33 38  2  0
 34 38  1  0
 37 39  1  0
M  END
