x0434_2-x1418_1-x0831_0-x0692_1-x1334_1-x1375_1-x1374_1-x0770_1-x1385_1-x0426_1-x1386_1-x0831_1-x0397_0-x0734_0
     RDKit          3D

 45 50  0  0  0  0  0  0  0  0999 V2000
    2.1500   -6.6850   24.0050 O   0  0  0  0  0  0  0  0  0  0  0  0
    3.3960   -6.4880   23.3330 C   0  0  0  0  0  0  0  0  0  0  0  0
    4.5360   -6.3850   24.3610 C   0  0  2  0  0  0  0  0  0  0  0  0
    4.3870   -7.5930   25.0990 O   0  0  0  0  0  0  0  0  0  0  0  0
    4.3470   -5.0800   25.0160 N   0  0  0  0  0  0  0  0  0  0  0  0
    5.8890   -6.4330   23.6430 C   0  0  0  0  0  0  0  0  0  0  0  0
    4.8680   -4.8800   26.1740 N   0  0  0  0  0  0  0  0  0  0  0  0
    6.2360   -5.5100   22.5700 C   0  0  2  0  0  0  0  0  0  0  0  0
    4.3400   -4.0710   27.0130 O   0  0  0  0  0  0  0  0  0  0  0  0
    6.3380   -5.0370   26.1800 C   0  0  0  0  0  0  0  0  0  0  0  0
    5.6500   -4.3950   22.3240 C   0  0  2  0  0  0  0  0  0  0  0  0
    5.9070   -5.6920   21.3350 C   0  0  0  0  0  0  0  0  0  0  0  0
    7.1640   -4.6410   25.0960 C   0  0  0  0  0  0  0  0  0  0  0  0
    6.9690   -5.6560   27.4290 C   0  0  0  0  0  0  0  0  0  0  0  0
    6.4010   -3.1070   22.3430 C   0  0  1  0  0  0  0  0  0  0  0  0
    8.6840   -4.8280   25.1310 C   0  0  0  0  0  0  0  0  0  0  0  0
    8.5110   -5.8710   27.5250 C   0  0  0  0  0  0  0  0  0  0  0  0
    7.8430   -3.3470   22.5910 C   0  0  0  0  0  0  0  0  0  0  0  0
    6.4110   -2.4380   21.0720 N   0  0  0  0  0  0  0  0  0  0  0  0
    9.4220   -5.4660   26.3540 C   0  0  0  0  0  0  0  0  0  0  0  0
    6.2790   -3.2130   19.8750 C   0  0  0  0  0  0  0  0  0  0  0  0
    8.4190   -2.0370   22.8340 N   0  0  0  0  0  0  0  0  0  0  0  0
    7.2930   -1.2860   20.9840 C   0  0  1  0  0  0  0  0  0  0  0  0
    7.2340   -2.9670   18.7190 C   0  0  0  0  0  0  0  0  0  0  0  0
    5.4270   -4.1080   19.7420 O   0  0  0  0  0  0  0  0  0  0  0  0
    6.5200    0.0120   21.3920 C   0  0  2  0  0  0  0  0  0  0  0  0
    9.7580   -2.1450   23.4030 C   0  0  0  0  0  0  0  0  0  0  0  0
    8.5050   -1.3070   21.7140 C   0  0  0  0  0  0  0  0  0  0  0  0
    5.3800   -0.0180   22.4040 C   0  0  0  0  0  0  0  0  0  0  0  0
    5.9630    0.5960   20.1480 C   0  0  0  0  0  0  0  0  0  0  0  0
   10.6050   -0.9010   23.4400 C   0  0  0  0  0  0  0  0  0  0  0  0
    4.6490    1.3740   22.4250 C   0  0  2  0  0  0  0  0  0  0  0  0
    4.7990    1.3250   20.0330 C   0  0  0  0  0  0  0  0  0  0  0  0
    6.6860    0.4090   18.8410 C   0  0  0  0  0  0  0  0  0  0  0  0
   10.2130    0.2830   24.0940 C   0  0  0  0  0  0  0  0  0  0  0  0
   11.8760   -0.8750   22.7880 C   0  0  0  0  0  0  0  0  0  0  0  0
    3.7080    1.5170   23.5470 N   0  0  0  0  0  0  0  0  0  0  0  0
    3.9420    1.5810   21.2870 C   0  0  0  0  0  0  0  0  0  0  0  0
   12.4320   -2.0550   22.0430 C   0  0  0  0  0  0  0  0  0  0  0  0
    4.5420    1.7710   18.6550 C   0  0  0  0  0  0  0  0  0  0  0  0
    6.3930    0.8370   17.6080 N   0  0  0  0  0  0  0  0  0  0  0  0
   11.0090    1.4090   24.0990 C   0  0  0  0  0  0  0  0  0  0  0  0
   12.6720    0.2530   22.8060 C   0  0  0  0  0  0  0  0  0  0  0  0
    5.2790    1.5370   17.6020 C   0  0  0  0  0  0  0  0  0  0  0  0
   12.2420    1.3950   23.4560 C   0  0  0  0  0  0  0  0  0  0  0  0
  1  2  1  0
  2  3  1  0
  3  4  1  1
  3  5  1  0
  3  6  1  0
  5  7  2  3
  8  6  1  1
  7  9  1  0
  7 10  1  0
  8 11  1  0
  8 12  1  0
 11 12  1  6
 10 13  2  0
 10 14  1  0
 11 15  1  0
 13 16  1  0
 14 17  2  0
 15 18  1  6
 15 19  1  0
 16 20  2  0
 17 20  1  0
 19 21  1  0
 18 22  1  0
 19 23  1  0
 21 24  1  0
 21 25  2  0
 23 26  1  0
 22 27  1  0
 22 28  1  0
 23 28  1  1
 26 29  1  1
 26 30  1  0
 27 31  1  0
 29 32  1  0
 30 33  2  0
 30 34  1  0
 31 35  2  0
 31 36  1  0
 32 37  1  1
 32 38  1  0
 33 38  1  0
 36 39  1  0
 33 40  1  0
 34 41  2  0
 35 42  1  0
 36 43  2  0
 40 44  2  0
 41 44  1  0
 42 45  2  0
 43 45  1  0
M  CHG  2   7   1   9  -1
M  END
