x0434_2-x0831_1-x1385_1-x1334_0-x0770_1-x0831_0-x1334_1-x0692_1-x0397_0
     RDKit          3D

 35 39  0  0  0  0  0  0  0  0999 V2000
    6.3880   -3.4290   19.9790 C   0  0  0  0  0  0  0  0  0  0  0  0
    7.3600   -3.0270   18.8770 C   0  0  0  0  0  0  0  0  0  0  0  0
    5.4310   -4.1890   19.7810 O   0  0  0  0  0  0  0  0  0  0  0  0
    6.6680   -2.9070   21.2500 N   0  0  0  0  0  0  0  0  0  0  0  0
    6.4230   -1.6100   21.6680 C   0  0  1  0  0  0  0  0  0  0  0  0
    7.0430   -3.7580   22.3770 C   0  0  1  0  0  0  0  0  0  0  0  0
    7.6550   -0.7540   21.4380 C   0  0  0  0  0  0  0  0  0  0  0  0
    7.1480   -2.9890   23.5070 C   0  0  0  0  0  0  0  0  0  0  0  0
    5.9020   -4.7380   22.6770 C   0  0  0  0  0  0  0  0  0  0  0  0
    5.1050   -1.2520   21.0950 C   0  0  0  0  0  0  0  0  0  0  0  0
    8.2680   -2.0650   23.4450 N   0  0  0  0  0  0  0  0  0  0  0  0
    8.7450   -1.6860   22.0620 C   0  0  0  0  0  0  0  0  0  0  0  0
    6.2850   -5.8950   23.0950 C   0  0  0  0  0  0  0  0  0  0  0  0
    5.7560   -6.1430   21.8100 C   0  0  0  0  0  0  0  0  0  0  0  0
    4.7950   -0.0240   20.4800 C   0  0  0  0  0  0  0  0  0  0  0  0
    9.2790   -2.5250   24.3950 C   0  0  2  0  0  0  0  0  0  0  0  0
    5.8220   -0.6770   19.7500 C   0  0  0  0  0  0  0  0  0  0  0  0
    4.7080    1.1250   19.6340 C   0  0  0  0  0  0  0  0  0  0  0  0
   10.6360   -2.5520   23.7190 C   0  0  0  0  0  0  0  0  0  0  0  0
    9.0700   -3.7630   25.2710 C   0  0  0  0  0  0  0  0  0  0  0  0
    6.5930   -0.3240   18.4880 C   0  0  0  0  0  0  0  0  0  0  0  0
    5.4270    1.5590   18.3350 C   0  0  0  0  0  0  0  0  0  0  0  0
    9.7010   -4.9810   25.3240 C   0  0  0  0  0  0  0  0  0  0  0  0
    7.8520   -3.7740   26.5050 S   0  0  0  0  0  0  0  0  0  0  0  0
   11.1780   -1.1400   23.6210 C   0  0  0  0  0  0  0  0  0  0  0  0
    6.4350    0.8400   17.6720 N   0  0  0  0  0  0  0  0  0  0  0  0
    9.2630   -5.8720   26.2880 C   0  0  0  0  0  0  0  0  0  0  0  0
    8.2310   -5.3490   27.0420 C   0  0  0  0  0  0  0  0  0  0  0  0
   10.4060   -0.1450   24.2560 C   0  0  0  0  0  0  0  0  0  0  0  0
   12.4620   -0.8090   22.8890 C   0  0  0  0  0  0  0  0  0  0  0  0
    7.3490   -6.0220   28.3440 Cl  0  0  0  0  0  0  0  0  0  0  0  0
   13.2370   -1.8730   22.2100 C   0  0  0  0  0  0  0  0  0  0  0  0
   10.7720    1.1980   24.2470 C   0  0  0  0  0  0  0  0  0  0  0  0
   12.9200    0.6390   22.8680 C   0  0  0  0  0  0  0  0  0  0  0  0
   12.0500    1.6700   23.5560 C   0  0  0  0  0  0  0  0  0  0  0  0
  1  2  1  0
  1  3  2  0
  1  4  1  0
  4  5  1  0
  4  6  1  0
  5  7  1  0
  6  8  1  0
  6  9  1  1
  5 10  1  6
  8 11  1  0
  7 12  1  0
 11 12  1  0
  9 13  1  0
  9 14  1  0
 13 14  1  0
 10 15  1  0
 11 16  1  0
 15 17  2  0
 15 18  1  0
 16 19  1  6
 16 20  1  0
 17 21  1  0
 18 22  2  0
 20 23  2  0
 20 24  1  0
 19 25  1  0
 21 26  2  0
 22 26  1  0
 23 27  1  0
 24 28  1  0
 27 28  2  0
 25 29  2  0
 25 30  1  0
 28 31  1  0
 30 32  1  0
 29 33  1  0
 30 34  2  0
 33 35  2  0
 34 35  1  0
M  END
