x0434_2-x1412_1-x0692_1-x0397_0-x1334_0-x0831_1-x1334_1-x0831_0
     RDKit          3D

 34 38  0  0  0  0  0  0  0  0999 V2000
    6.4210   -3.4080   19.9410 C   0  0  0  0  0  0  0  0  0  0  0  0
    7.3760   -3.0530   18.8070 C   0  0  0  0  0  0  0  0  0  0  0  0
    5.4510   -4.1560   19.7560 O   0  0  0  0  0  0  0  0  0  0  0  0
    6.7200   -2.8690   21.1960 N   0  0  0  0  0  0  0  0  0  0  0  0
    7.6990   -1.8060   21.1390 C   0  0  1  0  0  0  0  0  0  0  0  0
    6.1330   -3.2240   22.3890 C   0  0  2  0  0  0  0  0  0  0  0  0
    6.9580   -0.5530   21.2970 N   0  0  0  0  0  0  0  0  0  0  0  0
    8.8470   -1.9290   22.1800 C   0  0  0  0  0  0  0  0  0  0  0  0
    6.9970   -2.9650   23.6800 C   0  0  0  0  0  0  0  0  0  0  0  0
    5.5710   -4.6340   22.3540 C   0  0  0  0  0  0  0  0  0  0  0  0
    8.3770   -2.5360   23.4740 N   0  0  0  0  0  0  0  0  0  0  0  0
    6.1290   -5.6620   22.9520 C   0  0  0  0  0  0  0  0  0  0  0  0
    6.2860   -5.9500   21.6620 C   0  0  0  0  0  0  0  0  0  0  0  0
    6.3890    0.0610   20.1820 C   0  0  0  0  0  0  0  0  0  0  0  0
    9.4240   -3.3790   23.9400 C   0  0  1  0  0  0  0  0  0  0  0  0
    6.9100    0.0140   18.9110 C   0  0  0  0  0  0  0  0  0  0  0  0
    5.2080    0.7730   20.3850 C   0  0  0  0  0  0  0  0  0  0  0  0
   10.8500   -2.7950   24.0860 C   0  0  0  0  0  0  0  0  0  0  0  0
    9.1360   -4.2500   25.0530 C   0  0  0  0  0  0  0  0  0  0  0  0
    6.4170    0.5970   17.7950 N   0  0  0  0  0  0  0  0  0  0  0  0
    4.5130    1.4950   19.1960 C   0  0  0  0  0  0  0  0  0  0  0  0
    9.7380   -5.4520   25.2980 C   0  0  0  0  0  0  0  0  0  0  0  0
    7.9700   -3.8680   26.2370 S   0  0  0  0  0  0  0  0  0  0  0  0
   11.1130   -1.3210   23.9200 C   0  0  0  0  0  0  0  0  0  0  0  0
    5.2860    1.3050   17.8950 C   0  0  0  0  0  0  0  0  0  0  0  0
    9.2480   -6.0740   26.4600 C   0  0  0  0  0  0  0  0  0  0  0  0
    8.2790   -5.3230   27.0650 C   0  0  0  0  0  0  0  0  0  0  0  0
   10.3060   -0.3620   24.5470 C   0  0  0  0  0  0  0  0  0  0  0  0
   12.2890   -0.8200   23.0570 C   0  0  0  0  0  0  0  0  0  0  0  0
    7.4050   -5.6990   28.4810 Cl  0  0  0  0  0  0  0  0  0  0  0  0
   13.1930   -1.7490   22.3250 C   0  0  0  0  0  0  0  0  0  0  0  0
   10.5700    1.0490   24.3980 C   0  0  0  0  0  0  0  0  0  0  0  0
   12.5610    0.7130   22.9310 C   0  0  0  0  0  0  0  0  0  0  0  0
   11.7390    1.6060   23.5680 C   0  0  0  0  0  0  0  0  0  0  0  0
  1  2  1  0
  1  3  2  0
  1  4  1  0
  4  5  1  0
  4  6  1  0
  5  7  1  1
  5  8  1  0
  6  9  1  0
  6 10  1  6
  8 11  1  0
  9 11  1  0
 10 12  1  0
 10 13  1  0
 12 13  1  0
  7 14  1  0
 11 15  1  0
 14 16  2  0
 14 17  1  0
 15 18  1  1
 15 19  1  0
 16 20  1  0
 17 21  2  0
 19 22  2  0
 19 23  1  0
 18 24  1  0
 20 25  2  0
 21 25  1  0
 22 26  1  0
 23 27  1  0
 26 27  2  0
 24 28  2  0
 24 29  1  0
 27 30  1  0
 29 31  1  0
 28 32  1  0
 29 33  2  0
 32 34  2  0
 33 34  1  0
M  END
