x0434_2-x1386_0-x1412_1-x0831_0-x1412_0-x0981_1
     RDKit          3D

 45 48  0  0  0  0  0  0  0  0999 V2000
    4.3340   -5.8410   23.1590 C   0  0  0  0  0  0  0  0  0  0  0  0
    2.8610   -6.0690   23.4480 C   0  0  1  0  0  0  0  0  0  0  0  0
    2.5190   -7.3000   22.7390 N   0  0  0  0  0  0  0  0  0  0  0  0
    4.7440   -4.8700   22.4250 N   0  0  0  0  0  0  0  0  0  0  0  0
    2.6850   -6.2400   24.9680 C   0  0  0  0  0  0  0  0  0  0  0  0
    6.2130   -4.8580   22.2740 C   0  0  0  0  0  0  0  0  0  0  0  0
    1.2980   -7.4410   22.1300 C   0  0  0  0  0  0  0  0  0  0  0  0
    3.1190   -7.6490   25.3170 C   0  0  0  0  0  0  0  0  0  0  0  0
    6.7230   -3.4080   22.3580 C   0  0  2  0  0  0  0  0  0  0  0  0
    1.1290   -8.7510   21.3020 C   0  0  0  0  0  0  0  0  0  0  0  0
    0.4110   -6.5960   22.2100 O   0  0  0  0  0  0  0  0  0  0  0  0
    2.4970   -8.2320   26.3870 N   0  0  0  0  0  0  0  0  0  0  0  0
    3.9720   -8.2090   24.6710 O   0  0  0  0  0  0  0  0  0  0  0  0
    6.7250   -2.6940   21.0630 N   0  0  0  0  0  0  0  0  0  0  0  0
    7.9330   -3.3800   23.0350 C   0  0  0  0  0  0  0  0  0  0  0  0
    6.4210   -3.3440   19.8840 C   0  0  0  0  0  0  0  0  0  0  0  0
    8.7160   -2.1130   23.0540 N   0  0  0  0  0  0  0  0  0  0  0  0
    7.7330   -1.6260   20.9400 C   0  0  1  0  0  0  0  0  0  0  0  0
    7.3000   -3.0530   18.6910 C   0  0  0  0  0  0  0  0  0  0  0  0
    5.4880   -4.1610   19.7690 O   0  0  0  0  0  0  0  0  0  0  0  0
    9.9060   -1.9210   23.9100 C   0  0  1  0  0  0  0  0  0  0  0  0
    7.0770   -0.3340   21.0950 N   0  0  0  0  0  0  0  0  0  0  0  0
    9.0120   -1.8290   21.6950 C   0  0  0  0  0  0  0  0  0  0  0  0
    9.5640   -1.7870   25.3550 C   0  0  0  0  0  0  0  0  0  0  0  0
   10.8480   -3.0850   23.9110 C   0  0  0  0  0  0  0  0  0  0  0  0
   10.8080   -0.7510   23.6410 C   0  0  0  0  0  0  0  0  0  0  0  0
    6.3040    0.3510   20.0520 C   0  0  0  0  0  0  0  0  0  0  0  0
    8.2150   -2.4430   25.5440 C   0  0  0  0  0  0  0  0  0  0  0  0
   10.3060    0.5910   24.1890 C   0  0  0  0  0  0  0  0  0  0  0  0
   12.0530   -0.7750   22.9530 C   0  0  0  0  0  0  0  0  0  0  0  0
    6.8440    0.2340   18.7770 C   0  0  0  0  0  0  0  0  0  0  0  0
    5.1380    1.0550   20.2850 C   0  0  0  0  0  0  0  0  0  0  0  0
   12.6810   -2.0040   22.3450 C   0  0  0  0  0  0  0  0  0  0  0  0
    7.1490   -1.9260   25.2300 O   0  0  0  0  0  0  0  0  0  0  0  0
   11.2020    1.7520   23.9350 C   0  0  0  0  0  0  0  0  0  0  0  0
   12.7670    0.3540   22.8010 C   0  0  0  0  0  0  0  0  0  0  0  0
    8.4300   -3.7990   26.1870 C   0  0  0  0  0  0  0  0  0  0  0  0
    6.3310    0.7760   17.6520 N   0  0  0  0  0  0  0  0  0  0  0  0
    4.5790    1.6220   19.1760 C   0  0  0  0  0  0  0  0  0  0  0  0
   12.3470    1.5960   23.2820 C   0  0  0  0  0  0  0  0  0  0  0  0
    9.3740   -4.8810   25.7950 C   0  0  0  0  0  0  0  0  0  0  0  0
    7.5550   -4.2720   27.5570 S   0  0  0  0  0  0  0  0  0  0  0  0
    5.2030    1.4760   17.8230 C   0  0  0  0  0  0  0  0  0  0  0  0
    9.3660   -6.0840   26.6290 C   0  0  0  0  0  0  0  0  0  0  0  0
    8.3240   -5.8070   27.6940 C   0  0  0  0  0  0  0  0  0  0  0  0
  2  1  1  1
  2  3  1  0
  1  4  2  3
  2  5  1  0
  4  6  1  0
  3  7  1  0
  5  8  1  0
  9  6  1  6
  7 10  1  0
  7 11  2  0
  8 12  1  0
  8 13  2  0
  9 14  1  0
  9 15  1  0
 14 16  1  0
 15 17  1  0
 14 18  1  0
 16 19  1  0
 16 20  2  0
 17 21  1  0
 18 22  1  1
 17 23  1  0
 18 23  1  0
 21 24  1  0
 21 25  1  1
 21 26  1  0
 22 27  1  0
 24 28  1  0
 26 29  2  0
 26 30  1  0
 27 31  2  0
 27 32  1  0
 30 33  1  0
 28 34  2  0
 29 35  1  0
 30 36  2  0
 28 37  1  0
 31 38  1  0
 32 39  2  0
 35 40  2  0
 36 40  1  0
 37 41  2  0
 37 42  1  0
 38 43  2  0
 39 43  1  0
 41 44  1  0
 42 45  1  0
 44 45  2  0
M  END
