x0434_2-x1375_1-x0831_0-x1385_1-x1334_1-x0692_1-x0426_1-x0397_0-x0770_1-x1418_1
     RDKit          3D

 36 40  0  0  0  0  0  0  0  0999 V2000
    2.9650   -8.2480   24.3710 O   0  0  0  0  0  0  0  0  0  0  0  0
    3.4000   -6.9700   24.7470 C   0  0  0  0  0  0  0  0  0  0  0  0
    4.7920   -6.9420   24.5310 O   0  0  0  0  0  0  0  0  0  0  0  0
    5.2730   -5.6060   24.5310 C   0  0  0  0  0  0  0  0  0  0  0  0
    6.0820   -5.4060   23.2940 C   0  0  2  0  0  0  0  0  0  0  0  0
    5.7740   -4.3490   22.5270 C   0  0  2  0  0  0  0  0  0  0  0  0
    5.6370   -5.9100   22.0130 C   0  0  0  0  0  0  0  0  0  0  0  0
    6.9540   -3.3960   22.1450 C   0  0  2  0  0  0  0  0  0  0  0  0
    7.7810   -3.0930   23.4360 C   0  0  0  0  0  0  0  0  0  0  0  0
    6.7950   -2.3910   21.1830 C   0  0  1  0  0  0  0  0  0  0  0  0
    6.4290   -3.1240   19.8250 C   0  0  0  0  0  0  0  0  0  0  0  0
    5.8780   -1.1150   21.3510 C   0  0  2  0  0  0  0  0  0  0  0  0
    8.8670   -2.1940   23.0700 N   0  0  0  0  0  0  0  0  0  0  0  0
    7.9880   -1.6430   21.0040 C   0  0  0  0  0  0  0  0  0  0  0  0
    7.3640   -2.9510   18.6510 C   0  0  0  0  0  0  0  0  0  0  0  0
    5.4700   -3.9130   19.6780 O   0  0  0  0  0  0  0  0  0  0  0  0
    4.8320   -1.0750   22.4950 C   0  0  0  0  0  0  0  0  0  0  0  0
   10.0750   -2.2650   23.8520 C   0  0  0  0  0  0  0  0  0  0  0  0
    9.1510   -2.0550   21.6460 C   0  0  0  0  0  0  0  0  0  0  0  0
    5.5840   -0.1450   20.1500 C   0  0  0  0  0  0  0  0  0  0  0  0
    4.7750    0.2010   23.3340 C   0  0  0  0  0  0  0  0  0  0  0  0
    4.5700    0.8440   20.0940 C   0  0  0  0  0  0  0  0  0  0  0  0
    6.4850   -0.2670   18.8980 C   0  0  0  0  0  0  0  0  0  0  0  0
   10.7940   -1.0300   23.7220 C   0  0  0  0  0  0  0  0  0  0  0  0
    4.3370    1.4540   22.5410 C   0  0  1  0  0  0  0  0  0  0  0  0
    3.6340    1.0710   21.2420 C   0  0  0  0  0  0  0  0  0  0  0  0
    4.5370    1.5620   18.8980 C   0  0  0  0  0  0  0  0  0  0  0  0
    6.3790    0.4730   17.7890 N   0  0  0  0  0  0  0  0  0  0  0  0
   10.3240    0.1650   24.2420 C   0  0  0  0  0  0  0  0  0  0  0  0
   12.1110   -0.9340   23.0010 C   0  0  0  0  0  0  0  0  0  0  0  0
    3.4990    2.3320   23.3350 N   0  0  0  0  0  0  0  0  0  0  0  0
   12.8080   -2.0970   22.3470 C   0  0  0  0  0  0  0  0  0  0  0  0
    5.3890    1.3690   17.8400 C   0  0  0  0  0  0  0  0  0  0  0  0
   10.9870    1.3860   24.1240 C   0  0  0  0  0  0  0  0  0  0  0  0
   12.8410    0.2430   22.8480 C   0  0  0  0  0  0  0  0  0  0  0  0
   12.1990    1.4880   23.4680 C   0  0  0  0  0  0  0  0  0  0  0  0
  1  2  1  0
  2  3  1  0
  3  4  1  0
  5  4  1  1
  5  6  1  0
  5  7  1  0
  6  7  1  6
  6  8  1  0
  8  9  1  1
  8 10  1  0
 10 11  1  6
 10 12  1  0
  9 13  1  0
 10 14  1  0
 11 15  1  0
 11 16  2  0
 12 17  1  6
 13 18  1  0
 13 19  1  0
 14 19  1  0
 12 20  1  0
 17 21  1  0
 20 22  2  0
 20 23  1  0
 18 24  1  0
 21 25  1  0
 22 26  1  0
 25 26  1  0
 22 27  1  0
 23 28  2  0
 24 29  2  0
 24 30  1  0
 25 31  1  1
 30 32  1  0
 27 33  2  0
 28 33  1  0
 29 34  1  0
 30 35  2  0
 34 36  2  0
 35 36  1  0
M  END
