x0434_2-x0397_0-x1412_1-x0831_1-x0831_0-x0770_1-x1374_1-x1385_1-x0692_1-x1334_0-x1334_1
     RDKit          3D

 39 43  0  0  0  0  0  0  0  0999 V2000
    1.9260   -7.2930   23.8410 O   0  0  0  0  0  0  0  0  0  0  0  0
    2.4020   -7.9630   24.9930 C   0  0  0  0  0  0  0  0  0  0  0  0
    3.8100   -7.9460   25.0350 O   0  0  0  0  0  0  0  0  0  0  0  0
    4.3290   -7.2720   23.9020 C   0  0  0  0  0  0  0  0  0  0  0  0
    4.7460   -5.9060   24.2960 C   0  0  0  0  0  0  0  0  0  0  0  0
    5.8790   -5.6450   23.3660 C   0  0  2  0  0  0  0  0  0  0  0  0
    5.8620   -4.7360   22.3680 C   0  0  2  0  0  0  0  0  0  0  0  0
    5.8590   -6.2480   22.0020 C   0  0  0  0  0  0  0  0  0  0  0  0
    7.0670   -3.9460   22.0380 C   0  0  1  0  0  0  0  0  0  0  0  0
    6.7190   -2.7670   21.2250 N   0  0  0  0  0  0  0  0  0  0  0  0
    8.0170   -3.8130   23.3420 C   0  0  0  0  0  0  0  0  0  0  0  0
    6.4610   -3.2320   19.9110 C   0  0  0  0  0  0  0  0  0  0  0  0
    8.6330   -2.5200   23.6010 N   0  0  0  0  0  0  0  0  0  0  0  0
    7.8040   -1.7510   21.4510 C   0  0  1  0  0  0  0  0  0  0  0  0
    7.4530   -2.9760   18.8010 C   0  0  0  0  0  0  0  0  0  0  0  0
    5.4540   -3.9300   19.6520 O   0  0  0  0  0  0  0  0  0  0  0  0
    9.9940   -2.4550   23.5290 C   0  0  2  0  0  0  0  0  0  0  0  0
    7.6600   -0.3690   20.9720 N   0  0  0  0  0  0  0  0  0  0  0  0
    7.9220   -1.4900   22.9410 C   0  0  0  0  0  0  0  0  0  0  0  0
   10.6110   -3.3620   24.4970 C   0  0  0  0  0  0  0  0  0  0  0  0
   10.6810   -1.0770   23.5220 C   0  0  0  0  0  0  0  0  0  0  0  0
    6.7820    0.1620   20.0520 C   0  0  0  0  0  0  0  0  0  0  0  0
   10.1010    0.0230   24.1280 C   0  0  0  0  0  0  0  0  0  0  0  0
   11.9470   -0.9180   22.8800 C   0  0  0  0  0  0  0  0  0  0  0  0
    9.7680   -4.2260   25.3730 C   0  0  0  0  0  0  0  0  0  0  0  0
    7.0290    0.0550   18.5810 C   0  0  0  0  0  0  0  0  0  0  0  0
    5.6530    0.8340   20.5140 C   0  0  0  0  0  0  0  0  0  0  0  0
   12.6410   -2.0550   22.2010 C   0  0  0  0  0  0  0  0  0  0  0  0
   10.7320    1.4090   24.1410 C   0  0  0  0  0  0  0  0  0  0  0  0
   12.7330    0.4450   22.8170 C   0  0  0  0  0  0  0  0  0  0  0  0
   10.0100   -5.4400   25.7600 C   0  0  0  0  0  0  0  0  0  0  0  0
    8.2580   -3.8000   26.1000 S   0  0  0  0  0  0  0  0  0  0  0  0
    6.1470    0.6460   17.5290 N   0  0  0  0  0  0  0  0  0  0  0  0
    4.7750    1.4260   19.4100 C   0  0  0  0  0  0  0  0  0  0  0  0
   12.0800    1.7260   23.4920 C   0  0  0  0  0  0  0  0  0  0  0  0
    9.1140   -6.0800   26.6150 C   0  0  0  0  0  0  0  0  0  0  0  0
    8.0910   -5.3150   26.9250 C   0  0  0  0  0  0  0  0  0  0  0  0
    5.0790    1.3070   17.9600 C   0  0  0  0  0  0  0  0  0  0  0  0
    6.7780   -5.6760   27.9590 Cl  0  0  0  0  0  0  0  0  0  0  0  0
  1  2  1  0
  2  3  1  0
  3  4  1  0
  4  5  1  0
  6  5  1  1
  6  7  1  0
  6  8  1  0
  7  8  1  6
  7  9  1  0
  9 10  1  0
  9 11  1  1
 10 12  1  0
 11 13  1  0
 10 14  1  0
 12 15  1  0
 12 16  2  0
 13 17  1  0
 14 18  1  6
 13 19  1  0
 14 19  1  0
 17 20  1  1
 17 21  1  0
 18 22  1  0
 21 23  2  0
 21 24  1  0
 20 25  1  0
 22 26  2  0
 22 27  1  0
 24 28  1  0
 23 29  1  0
 24 30  2  0
 25 31  2  0
 25 32  1  0
 26 33  1  0
 27 34  2  0
 29 35  2  0
 30 35  1  0
 31 36  1  0
 32 37  1  0
 36 37  2  0
 33 38  2  0
 34 38  1  0
 37 39  1  0
M  END
