x0434_2-x1334_1-x0770_1-x1412_1-x1418_1-x1334_0-x1385_1-x0831_1-x0692_1-x0831_0-x0397_0-x1386_1
     RDKit          3D

 34 38  0  0  0  0  0  0  0  0999 V2000
    6.2320   -3.2870   19.9200 C   0  0  0  0  0  0  0  0  0  0  0  0
    7.2560   -2.9460   18.8420 C   0  0  0  0  0  0  0  0  0  0  0  0
    5.2710   -4.0070   19.6450 O   0  0  0  0  0  0  0  0  0  0  0  0
    6.4080   -2.8580   21.2490 N   0  0  0  0  0  0  0  0  0  0  0  0
    7.0710   -1.5860   21.5340 C   0  0  2  0  0  0  0  0  0  0  0  0
    6.7990   -3.8660   22.2560 C   0  0  1  0  0  0  0  0  0  0  0  0
    7.5040   -0.8450   20.3940 N   0  0  0  0  0  0  0  0  0  0  0  0
    8.3240   -1.8320   22.3810 C   0  0  0  0  0  0  0  0  0  0  0  0
    7.0080   -3.3470   23.6660 C   0  0  0  0  0  0  0  0  0  0  0  0
    5.7490   -4.9840   22.2640 C   0  0  0  0  0  0  0  0  0  0  0  0
    8.0280   -2.3110   23.7350 N   0  0  0  0  0  0  0  0  0  0  0  0
    6.2380   -5.7280   23.3690 C   0  0  0  0  0  0  0  0  0  0  0  0
    6.1590   -6.6190   22.4110 C   0  0  0  0  0  0  0  0  0  0  0  0
    6.5930   -0.0590   19.7260 C   0  0  0  0  0  0  0  0  0  0  0  0
    9.2230   -2.6550   24.2490 C   0  0  2  0  0  0  0  0  0  0  0  0
    6.9410    0.2460   18.4690 C   0  0  0  0  0  0  0  0  0  0  0  0
    5.3910    0.4160   20.2460 C   0  0  0  0  0  0  0  0  0  0  0  0
   10.3420   -2.6470   23.2520 C   0  0  0  0  0  0  0  0  0  0  0  0
    9.0910   -3.8700   25.1560 C   0  0  0  0  0  0  0  0  0  0  0  0
    6.2480    0.9860   17.6160 N   0  0  0  0  0  0  0  0  0  0  0  0
    4.5960    1.2240   19.3620 C   0  0  0  0  0  0  0  0  0  0  0  0
    9.7300   -5.1010   25.2520 C   0  0  0  0  0  0  0  0  0  0  0  0
    7.8780   -3.7910   26.4320 S   0  0  0  0  0  0  0  0  0  0  0  0
   10.9410   -1.2610   23.2960 C   0  0  0  0  0  0  0  0  0  0  0  0
    5.0850    1.4690   18.0640 C   0  0  0  0  0  0  0  0  0  0  0  0
    9.2910   -6.0470   26.3500 C   0  0  0  0  0  0  0  0  0  0  0  0
    8.1600   -5.4440   27.1940 C   0  0  0  0  0  0  0  0  0  0  0  0
   10.2780   -0.0850   24.0080 C   0  0  0  0  0  0  0  0  0  0  0  0
   12.2920   -0.8880   22.6440 C   0  0  0  0  0  0  0  0  0  0  0  0
    7.2670   -6.0120   28.5320 Cl  0  0  0  0  0  0  0  0  0  0  0  0
   13.0700   -1.9120   21.8960 C   0  0  0  0  0  0  0  0  0  0  0  0
   10.7920    1.3740   24.1350 C   0  0  0  0  0  0  0  0  0  0  0  0
   12.7950    0.3920   22.7420 C   0  0  0  0  0  0  0  0  0  0  0  0
   12.1150    1.5880   23.4610 C   0  0  0  0  0  0  0  0  0  0  0  0
  1  2  1  0
  1  3  2  0
  1  4  1  0
  4  5  1  0
  4  6  1  0
  5  7  1  6
  5  8  1  0
  6  9  1  0
  6 10  1  1
  8 11  1  0
  9 11  1  0
 10 12  1  0
 10 13  1  0
 12 13  1  0
  7 14  1  0
 11 15  1  0
 14 16  2  0
 14 17  1  0
 15 18  1  6
 15 19  1  0
 16 20  1  0
 17 21  2  0
 19 22  2  0
 19 23  1  0
 18 24  1  0
 20 25  2  0
 21 25  1  0
 22 26  1  0
 23 27  1  0
 26 27  2  0
 24 28  2  0
 24 29  1  0
 27 30  1  0
 29 31  1  0
 28 32  1  0
 29 33  2  0
 32 34  2  0
 33 34  1  0
M  END
