x0434_1-x1412_0
     RDKit          3D

 18 19  0  0  0  0  0  0  0  0999 V2000
    8.3780   -0.3010   21.4130 C   0  0  0  0  0  0  0  0  0  0  0  0
    7.1640   -0.8160   21.0240 N   0  0  0  0  0  0  0  0  0  0  0  0
    6.3910   -0.0360   20.0870 C   0  0  0  0  0  0  0  0  0  0  0  0
    8.7780    0.8260   21.1610 O   0  0  0  0  0  0  0  0  0  0  0  0
    9.1900   -1.2440   22.2300 C   0  0  0  0  0  0  0  0  0  0  0  0
    9.2100   -0.8320   23.6900 C   0  0  0  0  0  0  0  0  0  0  0  0
    9.0800   -1.7760   24.6370 N   0  0  0  0  0  0  0  0  0  0  0  0
    6.9630   -0.0210   18.6870 C   0  0  0  0  0  0  0  0  0  0  0  0
    5.2320    0.6780   20.3440 C   0  0  0  0  0  0  0  0  0  0  0  0
    8.5200   -2.9990   24.4420 C   0  0  0  0  0  0  0  0  0  0  0  0
    6.3540    0.7220   17.6020 N   0  0  0  0  0  0  0  0  0  0  0  0
    4.5060    1.4880   19.2840 C   0  0  0  0  0  0  0  0  0  0  0  0
    5.1270    1.4830   17.8800 C   0  0  0  0  0  0  0  0  0  0  0  0
    8.5340   -3.9470   25.5850 C   0  0  0  0  0  0  0  0  0  0  0  0
    9.3740   -5.0440   25.5670 C   0  0  0  0  0  0  0  0  0  0  0  0
    7.6170   -3.8970   27.0360 S   0  0  0  0  0  0  0  0  0  0  0  0
    9.2680   -5.8280   26.6960 C   0  0  0  0  0  0  0  0  0  0  0  0
    8.3700   -5.3440   27.5730 C   0  0  0  0  0  0  0  0  0  0  0  0
  1  2  1  0
  2  3  1  0
  1  4  2  0
  1  5  1  0
  5  6  1  0
  6  7  1  0
  3  8  2  0
  3  9  1  0
  7 10  2  3
  8 11  1  0
  9 12  2  0
 11 13  2  0
 12 13  1  0
 10 14  1  0
 14 15  2  0
 14 16  1  0
 15 17  1  0
 16 18  1  0
 17 18  2  0
M  END
