x0434_2-x0426_1-x1385_1-x0692_1-x1334_1-x1334_0-x0397_0-x1412_1-x1418_1-x0831_0-x1386_1-x1374_1-x0770_1
     RDKit          3D

 44 49  0  0  0  0  0  0  0  0999 V2000
    2.1020   -7.2610   23.7480 O   0  0  0  0  0  0  0  0  0  0  0  0
    2.5770   -7.8140   24.9650 C   0  0  0  0  0  0  0  0  0  0  0  0
    3.9860   -7.8760   24.8780 O   0  0  0  0  0  0  0  0  0  0  0  0
    4.4820   -7.1810   23.7370 C   0  0  0  0  0  0  0  0  0  0  0  0
    4.7960   -5.9330   24.0370 C   0  0  0  0  0  0  0  0  0  0  0  0
    5.8570   -5.5620   23.0400 C   0  0  2  0  0  0  0  0  0  0  0  0
    5.6860   -4.5440   22.2140 C   0  0  2  0  0  0  0  0  0  0  0  0
    5.9010   -6.1330   21.8700 C   0  0  0  0  0  0  0  0  0  0  0  0
    6.7990   -3.5350   22.0840 C   0  0  2  0  0  0  0  0  0  0  0  0
    7.1880   -3.0240   23.4360 C   0  0  0  0  0  0  0  0  0  0  0  0
    6.7680   -2.3040   21.1580 C   0  0  1  0  0  0  0  0  0  0  0  0
    6.4660   -3.0830   19.7980 C   0  0  0  0  0  0  0  0  0  0  0  0
    5.8280   -1.0480   21.3740 C   0  0  2  0  0  0  0  0  0  0  0  0
    8.4780   -2.3880   23.3040 N   0  0  0  0  0  0  0  0  0  0  0  0
    8.0400   -1.7270   21.1230 C   0  0  0  0  0  0  0  0  0  0  0  0
    7.4520   -2.9410   18.6430 C   0  0  0  0  0  0  0  0  0  0  0  0
    5.5020   -3.8660   19.6680 O   0  0  0  0  0  0  0  0  0  0  0  0
    4.7410   -1.0460   22.4770 C   0  0  0  0  0  0  0  0  0  0  0  0
    9.4440   -2.6170   24.3470 C   0  0  2  0  0  0  0  0  0  0  0  0
    9.0050   -2.3100   21.9140 C   0  0  0  0  0  0  0  0  0  0  0  0
    5.5720   -0.1270   20.1480 C   0  0  0  0  0  0  0  0  0  0  0  0
    4.6200    0.2450   23.3610 C   0  0  0  0  0  0  0  0  0  0  0  0
   10.8080   -2.5500   23.6790 C   0  0  0  0  0  0  0  0  0  0  0  0
    4.5780    0.8790   20.0630 C   0  0  0  0  0  0  0  0  0  0  0  0
    6.3870   -0.2710   19.0180 C   0  0  0  0  0  0  0  0  0  0  0  0
    9.1740   -3.8280   25.2440 C   0  0  0  0  0  0  0  0  0  0  0  0
    4.2980    1.5040   22.5000 C   0  0  1  0  0  0  0  0  0  0  0  0
    3.6090    1.1980   21.1710 C   0  0  0  0  0  0  0  0  0  0  0  0
    4.5170    1.6180   18.8440 C   0  0  0  0  0  0  0  0  0  0  0  0
    6.3500    0.4160   17.8540 N   0  0  0  0  0  0  0  0  0  0  0  0
    9.8210   -5.0580   25.3280 C   0  0  0  0  0  0  0  0  0  0  0  0
    7.8390   -3.8100   26.4810 S   0  0  0  0  0  0  0  0  0  0  0  0
   11.2360   -1.0850   23.5700 C   0  0  0  0  0  0  0  0  0  0  0  0
    3.4540    2.3990   23.2750 N   0  0  0  0  0  0  0  0  0  0  0  0
    5.3950    1.3410   17.8340 C   0  0  0  0  0  0  0  0  0  0  0  0
    9.3100   -5.8940   26.3020 C   0  0  0  0  0  0  0  0  0  0  0  0
    8.2440   -5.3610   27.0160 C   0  0  0  0  0  0  0  0  0  0  0  0
   10.4710   -0.0250   24.0230 C   0  0  0  0  0  0  0  0  0  0  0  0
   12.4350   -0.8110   23.0000 C   0  0  0  0  0  0  0  0  0  0  0  0
    7.3370   -6.0380   28.2980 Cl  0  0  0  0  0  0  0  0  0  0  0  0
   13.2700   -1.9150   22.4720 C   0  0  0  0  0  0  0  0  0  0  0  0
   10.8870    1.3010   23.9390 C   0  0  0  0  0  0  0  0  0  0  0  0
   12.8730    0.4830   22.9050 C   0  0  0  0  0  0  0  0  0  0  0  0
   12.1650    1.5740   23.3500 C   0  0  0  0  0  0  0  0  0  0  0  0
  1  2  1  0
  2  3  1  0
  3  4  1  0
  4  5  1  0
  6  5  1  1
  6  7  1  0
  6  8  1  0
  7  8  1  6
  7  9  1  0
  9 10  1  1
  9 11  1  0
 11 12  1  6
 11 13  1  0
 10 14  1  0
 11 15  1  0
 12 16  1  0
 12 17  2  0
 13 18  1  6
 14 19  1  0
 14 20  1  0
 15 20  1  0
 13 21  1  0
 18 22  1  0
 19 23  1  6
 21 24  2  0
 21 25  1  0
 19 26  1  0
 22 27  1  0
 24 28  1  0
 27 28  1  0
 24 29  1  0
 25 30  2  0
 26 31  2  0
 26 32  1  0
 23 33  1  0
 27 34  1  1
 29 35  2  0
 30 35  1  0
 31 36  1  0
 32 37  1  0
 36 37  2  0
 33 38  2  0
 33 39  1  0
 37 40  1  0
 39 41  1  0
 38 42  1  0
 39 43  2  0
 42 44  2  0
 43 44  1  0
M  END
