x0434_2-x0770_1-x1334_0-x0397_0-x1385_1-x1418_1-x0831_0-x1334_1-x0692_1
     RDKit          3D

 34 38  0  0  0  0  0  0  0  0999 V2000
    6.3970   -3.3820   19.9360 C   0  0  0  0  0  0  0  0  0  0  0  0
    7.3440   -3.0540   18.7920 C   0  0  0  0  0  0  0  0  0  0  0  0
    5.4440   -4.1640   19.7860 O   0  0  0  0  0  0  0  0  0  0  0  0
    6.7340   -2.7500   21.1480 N   0  0  0  0  0  0  0  0  0  0  0  0
    7.7790   -1.6990   21.1210 C   0  0  2  0  0  0  0  0  0  0  0  0
    6.0900   -3.0580   22.3340 C   0  0  2  0  0  0  0  0  0  0  0  0
    8.6250   -1.4380   22.3870 C   0  0  0  0  0  0  0  0  0  0  0  0
    6.9330   -2.8520   23.5880 C   0  0  0  0  0  0  0  0  0  0  0  0
    5.5380   -4.4720   22.3070 C   0  0  0  0  0  0  0  0  0  0  0  0
    7.2250   -0.3050   20.7930 C   0  0  0  0  0  0  0  0  0  0  0  0
    8.3230   -2.4410   23.4010 N   0  0  0  0  0  0  0  0  0  0  0  0
    6.2050   -5.6060   22.9790 C   0  0  0  0  0  0  0  0  0  0  0  0
    6.2890   -5.7440   21.7360 C   0  0  0  0  0  0  0  0  0  0  0  0
    7.0380    0.0010   19.4600 C   0  0  0  0  0  0  0  0  0  0  0  0
    9.3830   -3.3580   23.7470 C   0  0  1  0  0  0  0  0  0  0  0  0
    5.9320    0.4410   20.5450 C   0  0  0  0  0  0  0  0  0  0  0  0
    6.5430    0.4700   18.2280 N   0  0  0  0  0  0  0  0  0  0  0  0
   10.7940   -2.7450   23.9410 C   0  0  0  0  0  0  0  0  0  0  0  0
    9.1130   -4.2500   24.9440 C   0  0  0  0  0  0  0  0  0  0  0  0
    5.4390    1.1520   17.8700 C   0  0  0  0  0  0  0  0  0  0  0  0
    4.7040    1.1850   20.1460 C   0  0  0  0  0  0  0  0  0  0  0  0
    9.7320   -5.4880   25.3000 C   0  0  0  0  0  0  0  0  0  0  0  0
    7.9060   -3.8250   26.1330 S   0  0  0  0  0  0  0  0  0  0  0  0
   11.0670   -1.2470   23.8510 C   0  0  0  0  0  0  0  0  0  0  0  0
    4.4710    1.5580   18.6980 C   0  0  0  0  0  0  0  0  0  0  0  0
    9.2240   -5.9980   26.4460 C   0  0  0  0  0  0  0  0  0  0  0  0
    8.2260   -5.2660   27.0600 C   0  0  0  0  0  0  0  0  0  0  0  0
   10.3690   -0.2040   24.4370 C   0  0  0  0  0  0  0  0  0  0  0  0
   12.2790   -0.8040   23.0100 C   0  0  0  0  0  0  0  0  0  0  0  0
    7.3640   -5.6160   28.4940 Cl  0  0  0  0  0  0  0  0  0  0  0  0
   13.1310   -1.7970   22.2900 C   0  0  0  0  0  0  0  0  0  0  0  0
   10.6930    1.1280   24.3120 C   0  0  0  0  0  0  0  0  0  0  0  0
   12.5620    0.7050   22.9500 C   0  0  0  0  0  0  0  0  0  0  0  0
   11.7550    1.6230   23.6020 C   0  0  0  0  0  0  0  0  0  0  0  0
  1  2  1  0
  1  3  2  0
  1  4  1  0
  4  5  1  0
  4  6  1  0
  5  7  1  0
  6  8  1  0
  6  9  1  6
  5 10  1  1
  7 11  1  0
  8 11  1  0
  9 12  1  0
  9 13  1  0
 12 13  1  0
 10 14  1  0
 11 15  1  0
 14 16  2  0
 14 17  1  0
 15 18  1  1
 15 19  1  0
 17 20  2  0
 16 21  1  0
 19 22  2  0
 19 23  1  0
 18 24  1  0
 20 25  1  0
 21 25  2  0
 22 26  1  0
 23 27  1  0
 26 27  2  0
 24 28  2  0
 24 29  1  0
 27 30  1  0
 29 31  1  0
 28 32  1  0
 29 33  2  0
 32 34  2  0
 33 34  1  0
M  END
