x0434_1-x1412_1-x1412_0-x0981_1
     RDKit          3D

 37 39  0  0  0  0  0  0  0  0999 V2000
    4.0100   -5.9470   22.9180 C   0  0  0  0  0  0  0  0  0  0  0  0
    2.6640   -6.2660   23.5090 C   0  0  1  0  0  0  0  0  0  0  0  0
    2.2490   -7.5190   22.9050 N   0  0  0  0  0  0  0  0  0  0  0  0
    4.6130   -4.8420   22.8470 N   0  0  0  0  0  0  0  0  0  0  0  0
    2.6920   -6.2940   25.0310 C   0  0  0  0  0  0  0  0  0  0  0  0
    5.8850   -4.9080   22.1610 C   0  0  0  0  0  0  0  0  0  0  0  0
    1.1730   -7.5550   22.0670 C   0  0  0  0  0  0  0  0  0  0  0  0
    3.1060   -7.6910   25.3560 C   0  0  0  0  0  0  0  0  0  0  0  0
    6.5110   -3.5270   22.2850 C   0  0  2  0  0  0  0  0  0  0  0  0
    1.1380   -8.7780   21.1890 C   0  0  0  0  0  0  0  0  0  0  0  0
    0.3200   -6.6740   22.0210 O   0  0  0  0  0  0  0  0  0  0  0  0
    2.4830   -8.3140   26.3990 N   0  0  0  0  0  0  0  0  0  0  0  0
    3.9670   -8.2190   24.6860 O   0  0  0  0  0  0  0  0  0  0  0  0
    6.9330   -2.8690   21.0560 N   0  0  0  0  0  0  0  0  0  0  0  0
    7.7380   -3.6680   23.1610 C   0  0  0  0  0  0  0  0  0  0  0  0
    6.5310   -3.3680   19.8260 C   0  0  0  0  0  0  0  0  0  0  0  0
    8.0780   -2.3200   23.5910 N   0  0  0  0  0  0  0  0  0  0  0  0
    8.3160   -2.3620   21.1250 C   0  0  0  0  0  0  0  0  0  0  0  0
    7.4220   -3.0400   18.6320 C   0  0  0  0  0  0  0  0  0  0  0  0
    5.5140   -4.0710   19.6900 O   0  0  0  0  0  0  0  0  0  0  0  0
    8.4550   -2.1810   24.9170 C   0  0  0  0  0  0  0  0  0  0  0  0
    8.7090   -1.6410   22.4000 C   0  0  1  0  0  0  0  0  0  0  0  0
    8.1990   -0.3810   21.9550 C   0  0  0  0  0  0  0  0  0  0  0  0
    8.6150   -1.0700   25.4220 O   0  0  0  0  0  0  0  0  0  0  0  0
    8.6010   -3.4820   25.6730 C   0  0  0  0  0  0  0  0  0  0  0  0
    8.9500    0.6020   21.8330 O   0  0  0  0  0  0  0  0  0  0  0  0
    6.7520   -0.4620   21.6400 N   0  0  0  0  0  0  0  0  0  0  0  0
    9.3550   -4.5950   25.3830 C   0  0  0  0  0  0  0  0  0  0  0  0
    7.7730   -3.8020   27.1530 S   0  0  0  0  0  0  0  0  0  0  0  0
    6.2520    0.1510   20.4020 C   0  0  0  0  0  0  0  0  0  0  0  0
    9.3390   -5.6710   26.2280 C   0  0  0  0  0  0  0  0  0  0  0  0
    8.4630   -5.3840   27.3270 C   0  0  0  0  0  0  0  0  0  0  0  0
    6.9300   -0.0240   19.1690 C   0  0  0  0  0  0  0  0  0  0  0  0
    5.0990    0.9320   20.3020 C   0  0  0  0  0  0  0  0  0  0  0  0
    6.5560    0.4930   17.9570 N   0  0  0  0  0  0  0  0  0  0  0  0
    4.6830    1.4740   19.0940 C   0  0  0  0  0  0  0  0  0  0  0  0
    5.4580    1.2130   17.9770 C   0  0  0  0  0  0  0  0  0  0  0  0
  2  1  1  6
  2  3  1  0
  1  4  2  3
  2  5  1  0
  4  6  1  0
  3  7  1  0
  5  8  1  0
  9  6  1  6
  7 10  1  0
  7 11  2  0
  8 12  1  0
  8 13  2  0
  9 14  1  0
  9 15  1  0
 14 16  1  0
 15 17  1  0
 14 18  1  0
 16 19  1  0
 16 20  2  0
 17 21  1  0
 17 22  1  0
 18 22  1  0
 22 23  1  6
 21 24  2  0
 21 25  1  0
 23 26  2  0
 23 27  1  0
 25 28  2  0
 25 29  1  0
 27 30  1  0
 28 31  1  0
 29 32  1  0
 31 32  2  0
 30 33  2  0
 30 34  1  0
 33 35  1  0
 34 36  2  0
 35 37  2  0
 36 37  1  0
M  END
