x0434_2-x1334_0-x0831_0-x1334_1-x0397_0-x0770_1-x1412_1-x1385_1-x0831_1
     RDKit          3D

 34 38  0  0  0  0  0  0  0  0999 V2000
    6.3480   -3.3150   19.9880 C   0  0  0  0  0  0  0  0  0  0  0  0
    7.3160   -3.0010   18.8480 C   0  0  0  0  0  0  0  0  0  0  0  0
    5.4250   -4.1230   19.7770 O   0  0  0  0  0  0  0  0  0  0  0  0
    6.5470   -2.7170   21.2640 N   0  0  0  0  0  0  0  0  0  0  0  0
    7.4780   -1.5650   21.5270 C   0  0  2  0  0  0  0  0  0  0  0  0
    6.3490   -3.4610   22.5180 C   0  0  2  0  0  0  0  0  0  0  0  0
    7.6900   -0.7170   20.3850 N   0  0  0  0  0  0  0  0  0  0  0  0
    8.7880   -1.9720   22.2280 C   0  0  0  0  0  0  0  0  0  0  0  0
    7.6030   -3.7800   23.1390 C   0  0  0  0  0  0  0  0  0  0  0  0
    5.5210   -4.7020   22.3400 C   0  0  0  0  0  0  0  0  0  0  0  0
    8.4640   -2.6600   23.4840 N   0  0  0  0  0  0  0  0  0  0  0  0
    5.8420   -5.8520   22.9000 C   0  0  0  0  0  0  0  0  0  0  0  0
    6.0210   -6.0630   21.5040 C   0  0  0  0  0  0  0  0  0  0  0  0
    6.7090    0.0050   19.7600 C   0  0  0  0  0  0  0  0  0  0  0  0
    9.7120   -3.2010   24.0750 C   0  0  1  0  0  0  0  0  0  0  0  0
    6.9830    0.2500   18.4540 C   0  0  0  0  0  0  0  0  0  0  0  0
    5.5170    0.4960   20.2870 C   0  0  0  0  0  0  0  0  0  0  0  0
   10.4150   -2.0810   24.8140 C   0  0  0  0  0  0  0  0  0  0  0  0
    9.3340   -4.2100   25.1370 C   0  0  0  0  0  0  0  0  0  0  0  0
    6.2220    0.9350   17.5950 N   0  0  0  0  0  0  0  0  0  0  0  0
    4.7240    1.2110   19.3900 C   0  0  0  0  0  0  0  0  0  0  0  0
    9.8550   -5.4480   25.3640 C   0  0  0  0  0  0  0  0  0  0  0  0
    8.0920   -3.9140   26.3220 S   0  0  0  0  0  0  0  0  0  0  0  0
   11.1200   -0.8980   24.1470 C   0  0  0  0  0  0  0  0  0  0  0  0
    5.0780    1.4240   18.0770 C   0  0  0  0  0  0  0  0  0  0  0  0
    9.2800   -6.0660   26.4150 C   0  0  0  0  0  0  0  0  0  0  0  0
    8.2860   -5.4260   27.1020 C   0  0  0  0  0  0  0  0  0  0  0  0
   10.4330    0.4240   24.5330 C   0  0  0  0  0  0  0  0  0  0  0  0
   12.2580   -0.9360   23.3030 C   0  0  0  0  0  0  0  0  0  0  0  0
    7.3470   -5.8970   28.4500 Cl  0  0  0  0  0  0  0  0  0  0  0  0
   12.9290   -2.2170   22.9070 C   0  0  0  0  0  0  0  0  0  0  0  0
   11.0220    1.5660   24.0040 C   0  0  0  0  0  0  0  0  0  0  0  0
   12.7730    0.2570   22.8340 C   0  0  0  0  0  0  0  0  0  0  0  0
   12.1500    1.4390   23.1950 C   0  0  0  0  0  0  0  0  0  0  0  0
  1  2  1  0
  1  3  2  0
  1  4  1  0
  4  5  1  0
  4  6  1  0
  5  7  1  6
  5  8  1  0
  6  9  1  0
  6 10  1  6
  8 11  1  0
  9 11  1  0
 10 12  1  0
 10 13  1  0
 12 13  1  0
  7 14  1  0
 11 15  1  0
 14 16  2  0
 14 17  1  0
 15 18  1  1
 15 19  1  0
 16 20  1  0
 17 21  2  0
 19 22  2  0
 19 23  1  0
 18 24  1  0
 20 25  2  0
 21 25  1  0
 22 26  1  0
 23 27  1  0
 26 27  2  0
 24 28  2  0
 24 29  1  0
 27 30  1  0
 29 31  1  0
 28 32  1  0
 29 33  2  0
 32 34  2  0
 33 34  1  0
M  END
