x0434_2-x0397_0-x0831_0-x1412_1-x0692_1-x1334_1-x1374_1-x1375_1-x1334_0
     RDKit          3D

 39 43  0  0  0  0  0  0  0  0999 V2000
    2.2520   -7.7060   23.2480 O   0  0  0  0  0  0  0  0  0  0  0  0
    2.5160   -8.0160   24.5980 C   0  0  0  0  0  0  0  0  0  0  0  0
    3.9120   -7.9950   24.7960 O   0  0  0  0  0  0  0  0  0  0  0  0
    4.5520   -7.1910   23.8170 C   0  0  0  0  0  0  0  0  0  0  0  0
    5.1800   -6.1510   24.4200 C   0  0  0  0  0  0  0  0  0  0  0  0
    6.1630   -5.6460   23.4060 C   0  0  2  0  0  0  0  0  0  0  0  0
    5.6750   -4.6150   22.4830 C   0  0  2  0  0  0  0  0  0  0  0  0
    6.2360   -6.1160   22.0120 C   0  0  0  0  0  0  0  0  0  0  0  0
    6.4720   -3.3260   22.4880 C   0  0  2  0  0  0  0  0  0  0  0  0
    6.5600   -2.6080   21.2050 N   0  0  0  0  0  0  0  0  0  0  0  0
    7.8480   -3.5600   23.1120 C   0  0  0  0  0  0  0  0  0  0  0  0
    6.4150   -3.2870   19.9670 C   0  0  0  0  0  0  0  0  0  0  0  0
    8.6890   -2.3580   23.1340 N   0  0  0  0  0  0  0  0  0  0  0  0
    7.5230   -1.5010   21.4130 C   0  0  2  0  0  0  0  0  0  0  0  0
    7.4000   -3.0160   18.8320 C   0  0  0  0  0  0  0  0  0  0  0  0
    5.5140   -4.1300   19.7810 O   0  0  0  0  0  0  0  0  0  0  0  0
    9.7330   -2.2240   23.9460 C   0  0  1  0  0  0  0  0  0  0  0  0
    7.6760   -0.6380   20.3200 N   0  0  0  0  0  0  0  0  0  0  0  0
    8.8880   -1.9300   21.8230 C   0  0  0  0  0  0  0  0  0  0  0  0
   10.3180   -3.4860   24.3130 C   0  0  0  0  0  0  0  0  0  0  0  0
   10.5940   -0.9410   23.7090 C   0  0  0  0  0  0  0  0  0  0  0  0
    6.5700    0.0940   19.7790 C   0  0  0  0  0  0  0  0  0  0  0  0
   10.0240    0.4330   24.0690 C   0  0  0  0  0  0  0  0  0  0  0  0
   12.0630   -0.9800   23.1120 C   0  0  0  0  0  0  0  0  0  0  0  0
    9.5590   -4.2550   25.3390 C   0  0  0  0  0  0  0  0  0  0  0  0
    6.9530    0.4050   18.3550 C   0  0  0  0  0  0  0  0  0  0  0  0
    5.2070    0.6000   20.2690 C   0  0  0  0  0  0  0  0  0  0  0  0
   12.7440   -2.2500   22.7060 C   0  0  0  0  0  0  0  0  0  0  0  0
   10.8660    1.7800   23.8700 C   0  0  0  0  0  0  0  0  0  0  0  0
   12.8450    0.1960   22.9180 C   0  0  0  0  0  0  0  0  0  0  0  0
    9.9190   -5.6210   25.5150 C   0  0  0  0  0  0  0  0  0  0  0  0
    8.2810   -3.8390   26.4090 S   0  0  0  0  0  0  0  0  0  0  0  0
    6.2020    1.0780   17.5180 N   0  0  0  0  0  0  0  0  0  0  0  0
    4.5030    1.3160   19.2710 C   0  0  0  0  0  0  0  0  0  0  0  0
   12.2760    1.5910   23.2890 C   0  0  0  0  0  0  0  0  0  0  0  0
    9.2200   -6.3180   26.4870 C   0  0  0  0  0  0  0  0  0  0  0  0
    8.1920   -5.3940   27.1420 C   0  0  0  0  0  0  0  0  0  0  0  0
    5.0250    1.5140   17.9920 C   0  0  0  0  0  0  0  0  0  0  0  0
    7.0810   -5.7250   28.3990 Cl  0  0  0  0  0  0  0  0  0  0  0  0
  1  2  1  0
  2  3  1  0
  3  4  1  0
  4  5  1  0
  6  5  1  1
  6  7  1  0
  6  8  1  0
  7  8  1  6
  7  9  1  0
  9 10  1  0
  9 11  1  6
 10 12  1  0
 11 13  1  0
 10 14  1  0
 12 15  1  0
 12 16  2  0
 13 17  1  0
 14 18  1  6
 13 19  1  0
 14 19  1  0
 17 20  1  6
 17 21  1  0
 18 22  1  0
 21 23  2  0
 21 24  1  0
 20 25  1  0
 22 26  2  0
 22 27  1  0
 24 28  1  0
 23 29  1  0
 24 30  2  0
 25 31  2  0
 25 32  1  0
 26 33  1  0
 27 34  2  0
 29 35  2  0
 30 35  1  0
 31 36  1  0
 32 37  1  0
 36 37  2  0
 33 38  2  0
 34 38  1  0
 37 39  1  0
M  END
