x0434_2-x0831_0-x1418_1-x1334_0-x1334_1-x0397_0
     RDKit          3D

 34 38  0  0  0  0  0  0  0  0999 V2000
    6.4080   -3.2780   19.8160 C   0  0  0  0  0  0  0  0  0  0  0  0
    7.3500   -3.0600   18.6680 C   0  0  0  0  0  0  0  0  0  0  0  0
    5.4790   -4.1090   19.7300 O   0  0  0  0  0  0  0  0  0  0  0  0
    6.7080   -2.5000   20.9150 N   0  0  0  0  0  0  0  0  0  0  0  0
    6.6030   -3.1030   22.2710 C   0  0  2  0  0  0  0  0  0  0  0  0
    7.8020   -1.4940   20.6760 C   0  0  2  0  0  0  0  0  0  0  0  0
    7.8480   -3.3730   22.6700 C   0  0  0  0  0  0  0  0  0  0  0  0
    9.0320   -1.7200   21.5160 C   0  0  0  0  0  0  0  0  0  0  0  0
    5.7290   -4.3410   22.2780 C   0  0  0  0  0  0  0  0  0  0  0  0
    7.3500   -0.0350   20.6510 C   0  0  0  0  0  0  0  0  0  0  0  0
    8.6000   -2.1230   22.8010 N   0  0  0  0  0  0  0  0  0  0  0  0
    6.0960   -5.5010   23.0820 C   0  0  0  0  0  0  0  0  0  0  0  0
    6.1210   -5.8440   21.6740 C   0  0  0  0  0  0  0  0  0  0  0  0
    7.0450    0.3150   19.3250 C   0  0  0  0  0  0  0  0  0  0  0  0
    9.5330   -2.0460   23.7470 C   0  0  1  0  0  0  0  0  0  0  0  0
    6.0010    0.5300   20.2710 C   0  0  0  0  0  0  0  0  0  0  0  0
    6.4450    0.7520   18.1530 N   0  0  0  0  0  0  0  0  0  0  0  0
   10.0670   -3.3680   24.0840 C   0  0  0  0  0  0  0  0  0  0  0  0
   10.5550   -0.8880   23.5610 C   0  0  0  0  0  0  0  0  0  0  0  0
    5.2290    1.2670   17.9010 C   0  0  0  0  0  0  0  0  0  0  0  0
    4.7280    1.0340   20.1200 C   0  0  0  0  0  0  0  0  0  0  0  0
   10.1080    0.3930   23.9480 C   0  0  0  0  0  0  0  0  0  0  0  0
   12.0070   -0.9530   23.0090 C   0  0  0  0  0  0  0  0  0  0  0  0
    9.4820   -4.2150   25.1650 C   0  0  0  0  0  0  0  0  0  0  0  0
    4.2610    1.4600   18.8170 C   0  0  0  0  0  0  0  0  0  0  0  0
   12.7480   -2.1450   22.5220 C   0  0  0  0  0  0  0  0  0  0  0  0
   10.8400    1.5760   23.8860 C   0  0  0  0  0  0  0  0  0  0  0  0
   12.8220    0.4010   22.9450 C   0  0  0  0  0  0  0  0  0  0  0  0
    9.9280   -5.5150   25.4740 C   0  0  0  0  0  0  0  0  0  0  0  0
    8.1750   -3.7660   26.2120 S   0  0  0  0  0  0  0  0  0  0  0  0
   12.2750    1.6010   23.3580 C   0  0  0  0  0  0  0  0  0  0  0  0
    9.2670   -6.0560   26.4700 C   0  0  0  0  0  0  0  0  0  0  0  0
    8.2420   -5.2550   27.0400 C   0  0  0  0  0  0  0  0  0  0  0  0
    7.1950   -5.6330   28.3390 Cl  0  0  0  0  0  0  0  0  0  0  0  0
  1  2  1  0
  1  3  2  0
  1  4  1  0
  4  5  1  0
  4  6  1  0
  5  7  1  0
  6  8  1  0
  5  9  1  6
  6 10  1  1
  7 11  1  0
  8 11  1  0
  9 12  1  0
  9 13  1  0
 12 13  1  0
 10 14  1  0
 11 15  1  0
 14 16  2  0
 14 17  1  0
 15 18  1  6
 15 19  1  0
 17 20  2  0
 16 21  1  0
 19 22  2  0
 19 23  1  0
 18 24  1  0
 20 25  1  0
 21 25  2  0
 23 26  1  0
 22 27  1  0
 23 28  2  0
 24 29  2  0
 24 30  1  0
 27 31  2  0
 28 31  1  0
 29 32  1  0
 30 33  1  0
 32 33  2  0
 33 34  1  0
M  END
