x0434_2-x0759_1
     RDKit          3D

 16 17  0  0  0  0  0  0  0  0999 V2000
    6.2850   -3.4930   20.0620 C   0  0  0  0  0  0  0  0  0  0  0  0
    7.2020   -3.0050   18.9420 C   0  0  0  0  0  0  0  0  0  0  0  0
    5.3330   -4.2130   19.7740 O   0  0  0  0  0  0  0  0  0  0  0  0
    6.5300   -3.2240   21.4170 N   0  0  0  0  0  0  0  0  0  0  0  0
    7.1030   -2.0310   21.8400 C   0  0  2  0  0  0  0  0  0  0  0  0
    6.3690   -4.2640   22.3450 C   0  0  0  0  0  0  0  0  0  0  0  0
    7.5540   -1.2230   20.6670 N   0  0  0  0  0  0  0  0  0  0  0  0
    8.3080   -2.3240   22.7760 C   0  0  0  0  0  0  0  0  0  0  0  0
    7.4210   -4.2940   23.4430 C   0  0  0  0  0  0  0  0  0  0  0  0
    8.5620   -3.4600   23.2070 O   0  0  0  0  0  0  0  0  0  0  0  0
    6.5770   -0.3340   20.0080 C   0  0  0  0  0  0  0  0  0  0  0  0
    6.9730    0.0230   18.6080 C   0  0  0  0  0  0  0  0  0  0  0  0
    5.3760    0.2350   20.4160 C   0  0  0  0  0  0  0  0  0  0  0  0
    6.3230    0.8100   17.7330 N   0  0  0  0  0  0  0  0  0  0  0  0
    4.6770    1.0580   19.5150 C   0  0  0  0  0  0  0  0  0  0  0  0
    5.1750    1.3090   18.2240 C   0  0  0  0  0  0  0  0  0  0  0  0
  1  2  1  0
  1  3  2  0
  1  4  1  0
  4  5  1  0
  4  6  1  0
  5  7  1  6
  5  8  1  0
  6  9  1  0
  8 10  1  0
  9 10  1  0
  7 11  1  0
 11 12  2  0
 11 13  1  0
 12 14  1  0
 13 15  2  0
 14 16  2  0
 15 16  1  0
M  END
