x0434_2-x0749_1-x0107_0-x1336_1
     RDKit          3D

 34 36  0  0  0  0  0  0  0  0999 V2000
   10.1410   -0.5100   22.3260 C   0  0  0  0  0  0  0  0  0  0  0  0
    9.0140    0.2070   21.5990 C   0  0  0  0  0  0  0  0  0  0  0  0
    9.1370    1.4060   21.2950 O   0  0  0  0  0  0  0  0  0  0  0  0
    9.5490   -1.4790   23.3180 C   0  0  0  0  0  0  0  0  0  0  0  0
    7.8700   -0.5150   21.2950 N   0  0  0  0  0  0  0  0  0  0  0  0
    9.7000   -0.9510   24.7600 C   0  0  0  0  0  0  0  0  0  0  0  0
    8.3980   -0.7950   25.4340 N   0  0  0  0  0  0  0  0  0  0  0  0
    6.9400   -0.0460   20.2740 C   0  0  0  0  0  0  0  0  0  0  0  0
    7.2710   -1.8600   25.3140 S   0  0  2  0  0  0  0  0  0  0  0  0
    5.7390    0.6580   20.5970 C   0  0  0  0  0  0  0  0  0  0  0  0
    7.1190   -0.2270   18.7660 C   0  0  0  0  0  0  0  0  0  0  0  0
    5.5200    0.8460   22.1270 C   0  0  0  0  0  0  0  0  0  0  0  0
    5.8710   -1.5700   25.5200 O   0  0  0  0  0  0  0  0  0  0  0  0
    4.9070    1.1020   19.6430 C   0  0  0  0  0  0  0  0  0  0  0  0
    6.2860    0.2200   17.8100 N   0  0  0  0  0  0  0  0  0  0  0  0
    7.6470   -3.2520   26.2500 C   0  0  0  0  0  0  0  0  0  0  0  0
    5.1000    0.9360   18.2420 C   0  0  0  0  0  0  0  0  0  0  0  0
    6.6160   -3.6400   27.3050 C   0  0  0  0  0  0  0  0  0  0  0  0
    8.8240   -4.0000   26.0730 C   0  0  0  0  0  0  0  0  0  0  0  0
    9.8260   -3.6140   25.0420 C   0  0  0  0  0  0  0  0  0  0  0  0
    6.9380   -4.8750   28.1460 C   0  0  0  0  0  0  0  0  0  0  0  0
    9.1230   -5.1310   26.8420 C   0  0  0  0  0  0  0  0  0  0  0  0
    5.9880   -5.3400   29.2050 C   0  0  0  0  0  0  0  0  0  0  0  0
    9.8220   -4.5190   23.8180 C   0  0  0  0  0  0  0  0  0  0  0  0
    8.2320   -5.5520   27.8280 C   0  0  0  0  0  0  0  0  0  0  0  0
    8.5380   -4.6920   23.0280 C   0  0  2  0  0  0  0  0  0  0  0  0
    7.8000   -3.6850   22.3870 C   0  0  0  0  0  0  0  0  0  0  0  0
    7.5170   -5.4430   23.8100 C   0  0  0  0  0  0  0  0  0  0  0  0
    6.6360   -4.2790   21.6610 N   0  0  0  0  0  0  0  0  0  0  0  0
    7.0270   -6.2190   22.7530 C   0  0  0  0  0  0  0  0  0  0  0  0
    6.3530   -4.0110   20.3230 C   0  0  0  0  0  0  0  0  0  0  0  0
    6.0360   -5.4600   22.2820 C   0  0  0  0  0  0  0  0  0  0  0  0
    7.3140   -3.2420   19.4120 C   0  0  0  0  0  0  0  0  0  0  0  0
    5.2980   -4.4510   19.8740 O   0  0  0  0  0  0  0  0  0  0  0  0
  1  2  1  0
  2  3  2  0
  1  4  1  0
  2  5  1  0
  4  6  1  0
  6  7  1  0
  5  8  1  0
  7  9  2  0
  8 10  2  0
  8 11  1  0
 10 12  1  0
  9 13  2  0
 10 14  1  0
 11 15  2  0
  9 16  1  1
 14 17  2  0
 15 17  1  0
 16 18  2  0
 16 19  1  0
 19 20  1  0
 18 21  1  0
 19 22  2  0
 21 23  1  0
 20 24  1  0
 21 25  2  0
 22 25  1  0
 26 24  1  1
 26 27  1  0
 26 28  1  0
 27 29  1  0
 28 30  1  0
 29 31  1  0
 29 32  1  0
 30 32  1  0
 31 33  1  0
 31 34  2  0
M  END
