x0434_2-x1334_1-x0770_1-x1334_0-x1418_1-x0397_0-x0692_1-x0831_0-x1412_1
     RDKit          3D

 34 38  0  0  0  0  0  0  0  0999 V2000
    6.3420   -3.3090   20.0200 C   0  0  0  0  0  0  0  0  0  0  0  0
    7.2920   -3.0030   18.8730 C   0  0  0  0  0  0  0  0  0  0  0  0
    5.4580   -4.1640   19.7970 O   0  0  0  0  0  0  0  0  0  0  0  0
    6.4780   -2.6690   21.2970 N   0  0  0  0  0  0  0  0  0  0  0  0
    7.4690   -1.6220   21.6080 C   0  0  2  0  0  0  0  0  0  0  0  0
    6.1490   -3.3200   22.4860 C   0  0  2  0  0  0  0  0  0  0  0  0
    7.6940   -0.8190   20.4230 N   0  0  0  0  0  0  0  0  0  0  0  0
    8.7960   -2.1790   22.1330 C   0  0  0  0  0  0  0  0  0  0  0  0
    7.2680   -3.4930   23.5140 C   0  0  0  0  0  0  0  0  0  0  0  0
    5.4430   -4.6820   22.2940 C   0  0  0  0  0  0  0  0  0  0  0  0
    8.4480   -2.6310   23.5110 N   0  0  0  0  0  0  0  0  0  0  0  0
    5.7510   -5.9300   22.8610 C   0  0  0  0  0  0  0  0  0  0  0  0
    6.1480   -6.0490   21.6730 C   0  0  0  0  0  0  0  0  0  0  0  0
    6.6310   -0.0120   19.7580 C   0  0  0  0  0  0  0  0  0  0  0  0
    9.6300   -3.2850   23.9750 C   0  0  1  0  0  0  0  0  0  0  0  0
    6.9660    0.2630   18.4640 C   0  0  0  0  0  0  0  0  0  0  0  0
    5.4180    0.4700   20.2630 C   0  0  0  0  0  0  0  0  0  0  0  0
   10.8630   -2.5030   24.4730 C   0  0  0  0  0  0  0  0  0  0  0  0
    9.2730   -4.2370   25.0820 C   0  0  0  0  0  0  0  0  0  0  0  0
    6.2610    0.9690   17.5790 N   0  0  0  0  0  0  0  0  0  0  0  0
    4.5950    1.2180   19.4340 C   0  0  0  0  0  0  0  0  0  0  0  0
    9.8220   -5.4940   25.3540 C   0  0  0  0  0  0  0  0  0  0  0  0
    8.0070   -3.8770   26.3070 S   0  0  0  0  0  0  0  0  0  0  0  0
   11.1950   -1.0860   24.0930 C   0  0  0  0  0  0  0  0  0  0  0  0
    5.0950    1.4580   18.0100 C   0  0  0  0  0  0  0  0  0  0  0  0
    9.2900   -6.1140   26.4340 C   0  0  0  0  0  0  0  0  0  0  0  0
    8.1950   -5.3510   27.1600 C   0  0  0  0  0  0  0  0  0  0  0  0
   10.4810   -0.0070   24.5650 C   0  0  0  0  0  0  0  0  0  0  0  0
   12.2620   -0.8250   23.2500 C   0  0  0  0  0  0  0  0  0  0  0  0
    7.2690   -5.7580   28.5330 Cl  0  0  0  0  0  0  0  0  0  0  0  0
   13.1040   -1.9090   22.6520 C   0  0  0  0  0  0  0  0  0  0  0  0
   10.8460    1.3490   24.1940 C   0  0  0  0  0  0  0  0  0  0  0  0
   12.5990    0.6030   22.9140 C   0  0  0  0  0  0  0  0  0  0  0  0
   11.8890    1.7070   23.3850 C   0  0  0  0  0  0  0  0  0  0  0  0
  1  2  1  0
  1  3  2  0
  1  4  1  0
  4  5  1  0
  4  6  1  0
  5  7  1  6
  5  8  1  0
  6  9  1  0
  6 10  1  6
  8 11  1  0
  9 11  1  0
 10 12  1  0
 10 13  1  0
 12 13  1  0
  7 14  1  0
 11 15  1  0
 14 16  2  0
 14 17  1  0
 15 18  1  1
 15 19  1  0
 16 20  1  0
 17 21  2  0
 19 22  2  0
 19 23  1  0
 18 24  1  0
 20 25  2  0
 21 25  1  0
 22 26  1  0
 23 27  1  0
 26 27  2  0
 24 28  2  0
 24 29  1  0
 27 30  1  0
 29 31  1  0
 28 32  1  0
 29 33  2  0
 32 34  2  0
 33 34  1  0
M  END
