x0434_2-x0831_0-x0692_1-x1386_1-x0831_1-x0770_1-x1418_1-x1334_0-x1412_1-x1374_1-x1334_1-x0397_0-x1385_1
     RDKit          3D

 39 43  0  0  0  0  0  0  0  0999 V2000
    6.3720   -3.2610   19.7810 C   0  0  0  0  0  0  0  0  0  0  0  0
    7.2950   -3.0360   18.6060 C   0  0  0  0  0  0  0  0  0  0  0  0
    5.4690   -4.1140   19.7250 O   0  0  0  0  0  0  0  0  0  0  0  0
    6.6580   -2.4610   20.8620 N   0  0  0  0  0  0  0  0  0  0  0  0
    7.7180   -1.5690   20.7010 C   0  0  2  0  0  0  0  0  0  0  0  0
    6.3270   -2.9510   22.2280 C   0  0  2  0  0  0  0  0  0  0  0  0
    8.8760   -1.7810   21.6780 C   0  0  0  0  0  0  0  0  0  0  0  0
    7.5660   -3.0090   23.1590 C   0  0  0  0  0  0  0  0  0  0  0  0
    5.5820   -4.2910   22.2960 C   0  0  2  0  0  0  0  0  0  0  0  0
    7.3280   -0.1190   20.5030 C   0  0  0  0  0  0  0  0  0  0  0  0
    8.4180   -1.8460   23.0470 N   0  0  0  0  0  0  0  0  0  0  0  0
    6.0850   -5.3230   23.2000 C   0  0  2  0  0  0  0  0  0  0  0  0
    6.2420   -5.7490   21.9010 C   0  0  0  0  0  0  0  0  0  0  0  0
    6.9990    0.2860   19.2070 C   0  0  0  0  0  0  0  0  0  0  0  0
    9.4690   -1.8710   23.9330 C   0  0  1  0  0  0  0  0  0  0  0  0
    5.9380    0.4930   20.3520 C   0  0  0  0  0  0  0  0  0  0  0  0
    6.4150    0.7750   18.0550 N   0  0  0  0  0  0  0  0  0  0  0  0
    5.0190   -5.8860   24.0800 C   0  0  0  0  0  0  0  0  0  0  0  0
   10.0640   -3.2390   24.1140 C   0  0  0  0  0  0  0  0  0  0  0  0
   10.5430   -0.7670   23.6920 C   0  0  0  0  0  0  0  0  0  0  0  0
    5.2440    1.3280   17.8630 C   0  0  0  0  0  0  0  0  0  0  0  0
    4.5780    1.1070   20.1980 C   0  0  0  0  0  0  0  0  0  0  0  0
    4.5640   -7.1210   23.6980 C   0  0  0  0  0  0  0  0  0  0  0  0
   10.1330    0.5290   24.0930 C   0  0  0  0  0  0  0  0  0  0  0  0
   11.8540   -0.9790   23.1090 C   0  0  0  0  0  0  0  0  0  0  0  0
    9.4460   -4.1190   25.1870 C   0  0  0  0  0  0  0  0  0  0  0  0
    4.2800    1.5510   18.7660 C   0  0  0  0  0  0  0  0  0  0  0  0
    4.0580   -7.8810   24.7670 O   0  0  0  0  0  0  0  0  0  0  0  0
   12.3670   -2.3020   22.6420 C   0  0  0  0  0  0  0  0  0  0  0  0
   10.9220    1.6710   23.9740 C   0  0  0  0  0  0  0  0  0  0  0  0
   12.7470    0.0730   22.9360 C   0  0  0  0  0  0  0  0  0  0  0  0
   10.0640   -5.5270   25.4150 C   0  0  0  0  0  0  0  0  0  0  0  0
    8.0930   -3.6130   26.1530 S   0  0  0  0  0  0  0  0  0  0  0  0
    2.6460   -7.9500   24.7180 C   0  0  0  0  0  0  0  0  0  0  0  0
   12.2710    1.5100   23.3910 C   0  0  0  0  0  0  0  0  0  0  0  0
    9.1570   -5.8870   26.4920 C   0  0  0  0  0  0  0  0  0  0  0  0
    8.0790   -5.0330   27.0160 C   0  0  0  0  0  0  0  0  0  0  0  0
    2.1100   -7.0050   23.8120 O   0  0  0  0  0  0  0  0  0  0  0  0
    6.9840   -5.3860   28.2830 Cl  0  0  0  0  0  0  0  0  0  0  0  0
  1  2  1  0
  1  3  2  0
  1  4  1  0
  4  5  1  0
  4  6  1  0
  5  7  1  0
  6  8  1  1
  6  9  1  0
  5 10  1  1
  7 11  1  0
  8 11  1  0
  9 12  1  0
  9 13  1  6
 12 13  1  0
 10 14  1  0
 11 15  1  0
 14 16  2  0
 14 17  1  0
 12 18  1  1
 15 19  1  6
 15 20  1  0
 17 21  2  0
 16 22  1  0
 18 23  1  0
 20 24  2  0
 20 25  1  0
 19 26  1  0
 21 27  1  0
 22 27  2  0
 23 28  1  0
 25 29  1  0
 24 30  1  0
 25 31  2  0
 26 32  2  0
 26 33  1  0
 28 34  1  0
 30 35  2  0
 31 35  1  0
 32 36  1  0
 33 37  1  0
 36 37  2  0
 34 38  1  0
 37 39  1  0
M  END
