x0434_2-x0770_1-x1412_1-x0831_1-x0397_0-x1385_1-x0831_0-x1334_1-x1386_1-x1334_0-x0692_1
     RDKit          3D

 34 38  0  0  0  0  0  0  0  0999 V2000
    6.1890   -3.2600   19.9170 C   0  0  0  0  0  0  0  0  0  0  0  0
    7.1050   -2.9260   18.7670 C   0  0  0  0  0  0  0  0  0  0  0  0
    5.3480   -4.1660   19.7500 O   0  0  0  0  0  0  0  0  0  0  0  0
    6.3210   -2.5900   21.1430 N   0  0  0  0  0  0  0  0  0  0  0  0
    7.1010   -1.3590   21.3240 C   0  0  1  0  0  0  0  0  0  0  0  0
    6.2800   -3.3900   22.3980 C   0  0  2  0  0  0  0  0  0  0  0  0
    8.2630   -1.7730   21.8210 C   0  0  0  0  0  0  0  0  0  0  0  0
    7.0510   -2.7690   23.5880 C   0  0  0  0  0  0  0  0  0  0  0  0
    6.6330   -4.8400   22.1230 C   0  0  0  0  0  0  0  0  0  0  0  0
    7.6700   -0.5770   20.1450 C   0  0  0  0  0  0  0  0  0  0  0  0
    8.1510   -1.8500   23.2530 N   0  0  0  0  0  0  0  0  0  0  0  0
    6.5790   -5.8080   23.2000 C   0  0  0  0  0  0  0  0  0  0  0  0
    5.6410   -6.1660   22.1500 C   0  0  0  0  0  0  0  0  0  0  0  0
    6.9500   -0.2190   18.9970 C   0  0  0  0  0  0  0  0  0  0  0  0
    9.3260   -2.0210   23.9300 C   0  0  1  0  0  0  0  0  0  0  0  0
    6.4100    0.4150   20.1580 C   0  0  0  0  0  0  0  0  0  0  0  0
    6.1040    0.2770   18.0320 N   0  0  0  0  0  0  0  0  0  0  0  0
    9.7100   -3.4450   23.9080 C   0  0  0  0  0  0  0  0  0  0  0  0
   10.4110   -0.9380   23.6490 C   0  0  0  0  0  0  0  0  0  0  0  0
    5.0590    1.1140   18.0440 C   0  0  0  0  0  0  0  0  0  0  0  0
    5.3380    1.2840   20.3000 C   0  0  0  0  0  0  0  0  0  0  0  0
   10.1150    0.3090   24.2270 C   0  0  0  0  0  0  0  0  0  0  0  0
   11.7560   -1.0090   22.8500 C   0  0  0  0  0  0  0  0  0  0  0  0
    9.3000   -4.3060   25.0540 C   0  0  0  0  0  0  0  0  0  0  0  0
    4.5590    1.7000   19.1440 C   0  0  0  0  0  0  0  0  0  0  0  0
   12.3390   -2.1690   22.1250 C   0  0  0  0  0  0  0  0  0  0  0  0
   10.9070    1.4500   24.1390 C   0  0  0  0  0  0  0  0  0  0  0  0
   12.6410    0.3020   22.7830 C   0  0  0  0  0  0  0  0  0  0  0  0
    9.8480   -5.5650   25.3820 C   0  0  0  0  0  0  0  0  0  0  0  0
    8.0550   -3.8720   26.1850 S   0  0  0  0  0  0  0  0  0  0  0  0
   12.2380    1.4730   23.3930 C   0  0  0  0  0  0  0  0  0  0  0  0
    9.2890   -6.0890   26.4460 C   0  0  0  0  0  0  0  0  0  0  0  0
    8.2620   -5.3200   27.0570 C   0  0  0  0  0  0  0  0  0  0  0  0
    7.3210   -5.6830   28.4370 Cl  0  0  0  0  0  0  0  0  0  0  0  0
  1  2  1  0
  1  3  2  0
  1  4  1  0
  4  5  1  0
  4  6  1  0
  5  7  1  0
  6  8  1  0
  6  9  1  6
  5 10  1  6
  7 11  1  0
  8 11  1  0
  9 12  1  0
  9 13  1  0
 12 13  1  0
 10 14  1  0
 11 15  1  0
 14 16  2  0
 14 17  1  0
 15 18  1  6
 15 19  1  0
 17 20  2  0
 16 21  1  0
 19 22  2  0
 19 23  1  0
 18 24  1  0
 20 25  1  0
 21 25  2  0
 23 26  1  0
 22 27  1  0
 23 28  2  0
 24 29  2  0
 24 30  1  0
 27 31  2  0
 28 31  1  0
 29 32  1  0
 30 33  1  0
 32 33  2  0
 33 34  1  0
M  END
