x0434_2-x1412_1-x1334_1-x0770_1-x0736_1-x0874_0-x0387_0-x1412_0-x1385_1
     RDKit          3D

 29 32  0  0  0  0  0  0  0  0999 V2000
    6.3470   -3.3720   19.9840 C   0  0  0  0  0  0  0  0  0  0  0  0
    7.3000   -3.0070   18.8650 C   0  0  0  0  0  0  0  0  0  0  0  0
    5.3720   -4.0980   19.7190 O   0  0  0  0  0  0  0  0  0  0  0  0
    6.5640   -2.9710   21.3080 N   0  0  0  0  0  0  0  0  0  0  0  0
    7.3150   -1.7520   21.6580 C   0  0  2  0  0  0  0  0  0  0  0  0
    6.4570   -3.9060   22.3820 C   0  0  0  0  0  0  0  0  0  0  0  0
    7.5430   -0.9180   20.4820 N   0  0  0  0  0  0  0  0  0  0  0  0
    8.6720   -2.0870   22.3120 C   0  0  0  0  0  0  0  0  0  0  0  0
    7.7750   -4.1300   23.1430 C   0  0  0  0  0  0  0  0  0  0  0  0
    8.6300   -2.9610   23.3510 N   0  0  0  0  0  0  0  0  0  0  0  0
    6.6450   -0.1550   19.8640 C   0  0  0  0  0  0  0  0  0  0  0  0
    8.7750   -2.4010   24.6880 C   0  0  2  0  0  0  0  0  0  0  0  0
    6.9610    0.1470   18.5770 C   0  0  0  0  0  0  0  0  0  0  0  0
    5.4520    0.3390   20.4100 C   0  0  0  0  0  0  0  0  0  0  0  0
    7.7270   -1.7740   24.8760 O   0  0  0  0  0  0  0  0  0  0  0  0
   10.0590   -1.5970   24.9850 C   0  0  0  0  0  0  0  0  0  0  0  0
    8.7500   -3.5900   25.6780 C   0  0  0  0  0  0  0  0  0  0  0  0
    6.2720    0.8860   17.7230 N   0  0  0  0  0  0  0  0  0  0  0  0
    4.6790    1.1400   19.5200 C   0  0  0  0  0  0  0  0  0  0  0  0
    9.7250   -4.8270   25.4150 C   0  0  0  0  0  0  0  0  0  0  0  0
    7.7840   -3.8440   27.1030 S   0  0  0  0  0  0  0  0  0  0  0  0
    5.0210    1.4480   18.1980 C   0  0  0  0  0  0  0  0  0  0  0  0
   11.1930   -1.4000   23.9070 C   0  0  0  0  0  0  0  0  0  0  0  0
    9.5010   -5.8480   26.5070 C   0  0  0  0  0  0  0  0  0  0  0  0
    8.4340   -5.3900   27.5110 C   0  0  0  0  0  0  0  0  0  0  0  0
   12.0970   -0.1060   23.9580 C   0  0  0  0  0  0  0  0  0  0  0  0
   11.6120   -2.1880   22.8360 C   0  0  0  0  0  0  0  0  0  0  0  0
   13.0500   -0.1290   22.9290 C   0  0  0  0  0  0  0  0  0  0  0  0
   12.9480   -1.5240   21.9500 S   0  0  0  0  0  0  0  0  0  0  0  0
  1  2  1  0
  1  3  2  0
  1  4  1  0
  4  5  1  0
  4  6  1  0
  5  7  1  6
  5  8  1  0
  6  9  1  0
  8 10  1  0
  9 10  1  0
  7 11  1  0
 10 12  1  0
 11 13  2  0
 11 14  1  0
 12 15  1  1
 12 16  1  0
 12 17  1  0
 13 18  1  0
 14 19  2  0
 17 20  2  0
 17 21  1  0
 18 22  2  0
 19 22  1  0
 16 23  1  0
 20 24  1  0
 21 25  1  0
 24 25  2  0
 23 26  1  0
 23 27  2  0
 26 28  2  0
 27 29  1  0
 28 29  1  0
M  END
