x0434_2-x0770_1-x0831_1-x0397_0-x0692_1-x1412_1-x1334_0-x0831_0-x1385_1-x0426_1-x1374_1-x1418_1-x1334_1
     RDKit          3D

 44 49  0  0  0  0  0  0  0  0999 V2000
    1.9950   -6.6000   24.0070 O   0  0  0  0  0  0  0  0  0  0  0  0
    2.8950   -7.5500   23.4920 C   0  0  0  0  0  0  0  0  0  0  0  0
    3.7800   -7.9450   24.5280 O   0  0  0  0  0  0  0  0  0  0  0  0
    5.0850   -7.4050   24.3380 C   0  0  0  0  0  0  0  0  0  0  0  0
    4.9850   -6.0420   24.1980 C   0  0  0  0  0  0  0  0  0  0  0  0
    6.0370   -5.6760   23.2070 C   0  0  2  0  0  0  0  0  0  0  0  0
    5.7590   -4.5580   22.4340 C   0  0  2  0  0  0  0  0  0  0  0  0
    6.0020   -6.1120   21.9670 C   0  0  0  0  0  0  0  0  0  0  0  0
    6.8890   -3.5290   22.1670 C   0  0  1  0  0  0  0  0  0  0  0  0
    6.4510   -2.6010   21.1470 N   0  0  0  0  0  0  0  0  0  0  0  0
    7.1450   -2.9500   23.3980 C   0  0  0  0  0  0  0  0  0  0  0  0
    6.2580   -3.2330   19.9120 C   0  0  0  0  0  0  0  0  0  0  0  0
    8.4290   -2.2730   23.3200 N   0  0  0  0  0  0  0  0  0  0  0  0
    7.3380   -1.4140   21.1690 C   0  0  1  0  0  0  0  0  0  0  0  0
    7.2390   -2.9470   18.7840 C   0  0  0  0  0  0  0  0  0  0  0  0
    5.3520   -4.0590   19.7110 O   0  0  0  0  0  0  0  0  0  0  0  0
    6.6160    0.0170   21.4390 C   0  0  1  0  0  0  0  0  0  0  0  0
    9.5710   -3.1210   23.7600 C   0  0  1  0  0  0  0  0  0  0  0  0
    8.5960   -1.6860   22.1060 C   0  0  0  0  0  0  0  0  0  0  0  0
    5.4570    0.0170   22.4700 C   0  0  0  0  0  0  0  0  0  0  0  0
   10.6940   -2.3450   24.4380 C   0  0  0  0  0  0  0  0  0  0  0  0
    7.6330    1.0530   22.0140 C   0  0  0  0  0  0  0  0  0  0  0  0
    6.0370    0.5480   20.1330 C   0  0  0  0  0  0  0  0  0  0  0  0
    9.2350   -4.0200   24.9590 C   0  0  0  0  0  0  0  0  0  0  0  0
    4.7750    1.4120   22.5560 C   0  0  2  0  0  0  0  0  0  0  0  0
    4.8270    1.3020   20.0290 C   0  0  0  0  0  0  0  0  0  0  0  0
    6.8100    0.2590   18.8250 C   0  0  0  0  0  0  0  0  0  0  0  0
    9.8360   -5.2220   25.2890 C   0  0  0  0  0  0  0  0  0  0  0  0
    8.0190   -3.6580   26.1570 S   0  0  0  0  0  0  0  0  0  0  0  0
   11.1420   -0.9730   24.0040 C   0  0  0  0  0  0  0  0  0  0  0  0
    3.8260    1.5470   23.6710 N   0  0  0  0  0  0  0  0  0  0  0  0
    4.0130    1.5990   21.2560 C   0  0  0  0  0  0  0  0  0  0  0  0
    4.4130    1.7500   18.8210 C   0  0  0  0  0  0  0  0  0  0  0  0
    6.4080    0.6920   17.6510 N   0  0  0  0  0  0  0  0  0  0  0  0
    9.3550   -5.7760   26.4110 C   0  0  0  0  0  0  0  0  0  0  0  0
    8.3240   -5.0740   27.0760 C   0  0  0  0  0  0  0  0  0  0  0  0
   10.4630    0.0940   24.4680 C   0  0  0  0  0  0  0  0  0  0  0  0
   12.2510   -0.8140   23.1560 C   0  0  0  0  0  0  0  0  0  0  0  0
    7.4470   -5.4110   28.5050 Cl  0  0  0  0  0  0  0  0  0  0  0  0
   13.0200   -1.9680   22.6110 C   0  0  0  0  0  0  0  0  0  0  0  0
    5.2850    1.3920   17.6890 C   0  0  0  0  0  0  0  0  0  0  0  0
   10.7970    1.4120   24.1590 C   0  0  0  0  0  0  0  0  0  0  0  0
   12.6310    0.4000   22.8310 C   0  0  0  0  0  0  0  0  0  0  0  0
   11.9240    1.6210   23.3140 C   0  0  0  0  0  0  0  0  0  0  0  0
  1  2  1  0
  2  3  1  0
  3  4  1  0
  4  5  1  0
  6  5  1  1
  6  7  1  0
  6  8  1  0
  7  8  1  6
  7  9  1  0
  9 10  1  0
  9 11  1  1
 10 12  1  0
 11 13  1  0
 10 14  1  0
 12 15  1  0
 12 16  2  0
 14 17  1  0
 13 18  1  0
 13 19  1  0
 14 19  1  1
 17 20  1  0
 18 21  1  1
 17 22  1  1
 17 23  1  0
 18 24  1  0
 20 25  1  0
 23 26  2  0
 23 27  1  0
 24 28  2  0
 24 29  1  0
 21 30  1  0
 25 31  1  1
 25 32  1  0
 26 32  1  0
 26 33  1  0
 27 34  2  0
 28 35  1  0
 29 36  1  0
 35 36  2  0
 30 37  2  0
 30 38  1  0
 36 39  1  0
 38 40  1  0
 33 41  2  0
 34 41  1  0
 37 42  1  0
 38 43  2  0
 42 44  2  0
 43 44  1  0
M  END
