x0434_1-x0981_1-x1412_0-x1412_1
     RDKit          3D

 37 39  0  0  0  0  0  0  0  0999 V2000
    4.2200   -5.5340   23.3580 C   0  0  0  0  0  0  0  0  0  0  0  0
    2.7920   -6.0440   23.5110 C   0  0  1  0  0  0  0  0  0  0  0  0
    2.6100   -7.2610   22.7170 N   0  0  0  0  0  0  0  0  0  0  0  0
    4.4800   -4.3480   23.8160 N   0  0  0  0  0  0  0  0  0  0  0  0
    2.4700   -6.3670   24.9750 C   0  0  0  0  0  0  0  0  0  0  0  0
    5.8470   -3.8040   23.7450 C   0  0  0  0  0  0  0  0  0  0  0  0
    1.2950   -7.5400   22.0500 C   0  0  0  0  0  0  0  0  0  0  0  0
    3.0000   -7.7400   25.3010 C   0  0  0  0  0  0  0  0  0  0  0  0
    6.6570   -4.1010   22.4580 C   0  0  1  0  0  0  0  0  0  0  0  0
    1.2220   -8.8110   21.2400 C   0  0  0  0  0  0  0  0  0  0  0  0
    0.3430   -6.7670   22.1370 O   0  0  0  0  0  0  0  0  0  0  0  0
    2.4170   -8.3860   26.3500 N   0  0  0  0  0  0  0  0  0  0  0  0
    3.9090   -8.2090   24.6440 O   0  0  0  0  0  0  0  0  0  0  0  0
    6.3720   -3.1530   21.3970 N   0  0  0  0  0  0  0  0  0  0  0  0
    8.0500   -4.1050   22.7740 C   0  0  0  0  0  0  0  0  0  0  0  0
    6.2290   -3.6090   20.0910 C   0  0  0  0  0  0  0  0  0  0  0  0
    8.5610   -2.7350   23.1000 N   0  0  0  0  0  0  0  0  0  0  0  0
    6.7040   -1.9500   21.6330 C   0  0  0  0  0  0  0  0  0  0  0  0
    7.2060   -3.0930   19.0210 C   0  0  0  0  0  0  0  0  0  0  0  0
    5.3380   -4.4030   19.8300 O   0  0  0  0  0  0  0  0  0  0  0  0
    8.4780   -2.3720   24.5530 C   0  0  0  0  0  0  0  0  0  0  0  0
    8.2000   -1.8730   21.9230 C   0  0  1  0  0  0  0  0  0  0  0  0
    8.5090   -0.3730   21.7610 C   0  0  0  0  0  0  0  0  0  0  0  0
    8.3030   -1.2130   24.9180 O   0  0  0  0  0  0  0  0  0  0  0  0
    8.6360   -3.5700   25.5140 C   0  0  0  0  0  0  0  0  0  0  0  0
    9.6200    0.1480   21.7510 O   0  0  0  0  0  0  0  0  0  0  0  0
    7.3200    0.3190   21.6000 N   0  0  0  0  0  0  0  0  0  0  0  0
    9.5500   -4.5910   25.3500 C   0  0  0  0  0  0  0  0  0  0  0  0
    7.7180   -3.8680   26.9420 S   0  0  0  0  0  0  0  0  0  0  0  0
    6.5560    0.6140   20.4350 C   0  0  0  0  0  0  0  0  0  0  0  0
    9.5260   -5.5850   26.3290 C   0  0  0  0  0  0  0  0  0  0  0  0
    8.5700   -5.3300   27.2850 C   0  0  0  0  0  0  0  0  0  0  0  0
    7.0260    0.0230   19.1200 C   0  0  0  0  0  0  0  0  0  0  0  0
    5.3330    1.4460   20.3510 C   0  0  0  0  0  0  0  0  0  0  0  0
    6.3840    0.2520   17.9440 N   0  0  0  0  0  0  0  0  0  0  0  0
    4.7200    1.6360   19.1130 C   0  0  0  0  0  0  0  0  0  0  0  0
    5.2710    1.0390   17.9800 C   0  0  0  0  0  0  0  0  0  0  0  0
  2  1  1  1
  2  3  1  0
  1  4  2  3
  2  5  1  0
  4  6  1  0
  3  7  1  0
  5  8  1  0
  9  6  1  1
  7 10  1  0
  7 11  2  0
  8 12  1  0
  8 13  2  0
  9 14  1  0
  9 15  1  0
 14 16  1  0
 15 17  1  0
 14 18  1  0
 16 19  1  0
 16 20  2  0
 17 21  1  0
 17 22  1  0
 18 22  1  0
 22 23  1  1
 21 24  2  0
 21 25  1  0
 23 26  2  0
 23 27  1  0
 25 28  2  0
 25 29  1  0
 27 30  1  0
 28 31  1  0
 29 32  1  0
 31 32  2  0
 30 33  2  0
 30 34  1  0
 33 35  1  0
 34 36  2  0
 35 37  2  0
 36 37  1  0
M  END
