x0434_2-x0692_1-x1334_0-x0397_0-x0770_1-x1386_1-x1385_1-x0426_1-x1418_1-x0831_0-x1334_1-x1374_1
     RDKit          3D

 44 49  0  0  0  0  0  0  0  0999 V2000
    2.1680   -6.6920   24.3660 O   0  0  0  0  0  0  0  0  0  0  0  0
    3.1150   -7.3820   23.5880 C   0  0  0  0  0  0  0  0  0  0  0  0
    4.1810   -7.8580   24.4050 O   0  0  0  0  0  0  0  0  0  0  0  0
    5.4660   -7.3190   24.0770 C   0  0  0  0  0  0  0  0  0  0  0  0
    5.5010   -5.9670   24.2730 C   0  0  0  0  0  0  0  0  0  0  0  0
    6.1970   -5.3150   23.1060 C   0  0  2  0  0  0  0  0  0  0  0  0
    5.5330   -4.3930   22.4730 C   0  0  2  0  0  0  0  0  0  0  0  0
    6.2000   -5.8000   21.9470 C   0  0  0  0  0  0  0  0  0  0  0  0
    6.0620   -2.9840   22.3210 C   0  0  2  0  0  0  0  0  0  0  0  0
    6.8600   -2.8240   21.1060 N   0  0  0  0  0  0  0  0  0  0  0  0
    6.7540   -2.6270   23.4910 C   0  0  0  0  0  0  0  0  0  0  0  0
    6.4560   -3.3720   19.8930 C   0  0  0  0  0  0  0  0  0  0  0  0
    8.1820   -2.2760   23.3250 N   0  0  0  0  0  0  0  0  0  0  0  0
    7.6100   -1.5670   20.9900 C   0  0  1  0  0  0  0  0  0  0  0  0
    5.4740   -4.1210   19.7520 O   0  0  0  0  0  0  0  0  0  0  0  0
    7.3450   -3.0260   18.7220 C   0  0  0  0  0  0  0  0  0  0  0  0
    9.1730   -3.3270   23.4820 C   0  0  1  0  0  0  0  0  0  0  0  0
    7.0870   -0.4020   21.8520 C   0  0  0  0  0  0  0  0  0  0  0  0
    8.4850   -1.3360   22.2170 C   0  0  0  0  0  0  0  0  0  0  0  0
    5.6180   -0.1840   21.6200 C   0  0  1  0  0  0  0  0  0  0  0  0
   10.5750   -2.7550   23.1800 C   0  0  0  0  0  0  0  0  0  0  0  0
    9.0460   -4.0840   24.7200 C   0  0  0  0  0  0  0  0  0  0  0  0
    5.0050    0.5590   22.8390 C   0  0  0  0  0  0  0  0  0  0  0  0
    5.4900    0.4090   20.3040 C   0  0  0  0  0  0  0  0  0  0  0  0
    9.7670   -5.1890   25.1200 C   0  0  0  0  0  0  0  0  0  0  0  0
    7.8980   -3.7510   25.9940 S   0  0  0  0  0  0  0  0  0  0  0  0
   10.8950   -1.2990   23.4150 C   0  0  0  0  0  0  0  0  0  0  0  0
    4.2570    1.8710   22.4550 C   0  0  2  0  0  0  0  0  0  0  0  0
    4.3980    1.4580   20.0420 C   0  0  0  0  0  0  0  0  0  0  0  0
    6.3510    0.0210   19.3260 C   0  0  0  0  0  0  0  0  0  0  0  0
    9.3820   -5.7700   26.4590 C   0  0  0  0  0  0  0  0  0  0  0  0
    8.3370   -5.0410   27.0300 C   0  0  0  0  0  0  0  0  0  0  0  0
   10.1770   -0.3450   24.1610 C   0  0  0  0  0  0  0  0  0  0  0  0
   12.0410   -0.8920   22.8200 C   0  0  0  0  0  0  0  0  0  0  0  0
    3.3510    2.2710   23.5110 N   0  0  0  0  0  0  0  0  0  0  0  0
    3.4680    1.8650   21.1220 C   0  0  0  0  0  0  0  0  0  0  0  0
    7.5340   -5.2910   28.5130 Cl  0  0  0  0  0  0  0  0  0  0  0  0
   12.8640   -1.8460   22.0070 C   0  0  0  0  0  0  0  0  0  0  0  0
    4.4780    1.9300   18.6190 C   0  0  0  0  0  0  0  0  0  0  0  0
    6.4570    0.4550   17.9270 N   0  0  0  0  0  0  0  0  0  0  0  0
   10.5660    0.9360   24.3060 C   0  0  0  0  0  0  0  0  0  0  0  0
   12.5490    0.3910   22.8980 C   0  0  0  0  0  0  0  0  0  0  0  0
    5.5000    1.4150   17.6260 C   0  0  0  0  0  0  0  0  0  0  0  0
   11.8120    1.4220   23.6700 C   0  0  0  0  0  0  0  0  0  0  0  0
  1  2  1  0
  2  3  1  0
  3  4  1  0
  4  5  1  0
  6  5  1  1
  6  7  1  0
  6  8  1  0
  7  8  1  6
  7  9  1  0
  9 10  1  0
  9 11  1  1
 10 12  1  0
 11 13  1  0
 10 14  1  0
 12 15  2  0
 12 16  1  0
 13 17  1  0
 14 18  1  1
 13 19  1  0
 14 19  1  0
 20 18  1  1
 17 21  1  1
 17 22  1  0
 20 23  1  0
 20 24  1  0
 22 25  2  0
 22 26  1  0
 21 27  1  0
 23 28  1  0
 24 29  2  0
 24 30  1  0
 25 31  1  0
 26 32  1  0
 31 32  2  0
 27 33  2  0
 27 34  1  0
 28 35  1  1
 28 36  1  0
 29 36  1  0
 32 37  1  0
 34 38  1  0
 29 39  1  0
 30 40  2  0
 33 41  1  0
 34 42  2  0
 39 43  2  0
 40 43  1  0
 41 44  2  0
 42 44  1  0
M  END
