x0434_2-x1412_1-x1386_0-x0397_0-x1412_0
     RDKit          3D

 32 36  0  0  0  0  0  0  0  0999 V2000
    6.3980   -3.3980   19.9080 C   0  0  0  0  0  0  0  0  0  0  0  0
    7.3460   -3.0260   18.7730 C   0  0  0  0  0  0  0  0  0  0  0  0
    5.4290   -4.1480   19.7520 O   0  0  0  0  0  0  0  0  0  0  0  0
    6.7240   -2.8560   21.1640 N   0  0  0  0  0  0  0  0  0  0  0  0
    7.7430   -1.7860   21.2330 C   0  0  1  0  0  0  0  0  0  0  0  0
    6.7510   -3.8320   22.2520 C   0  0  1  0  0  0  0  0  0  0  0  0
    7.0520   -0.5210   21.3260 N   0  0  0  0  0  0  0  0  0  0  0  0
    8.7930   -1.9230   22.4120 C   0  0  0  0  0  0  0  0  0  0  0  0
    7.0820   -3.2580   23.4530 C   0  0  0  0  0  0  0  0  0  0  0  0
    5.7160   -4.7360   22.2740 C   0  0  0  0  0  0  0  0  0  0  0  0
    8.5040   -2.9870   23.4150 N   0  0  0  0  0  0  0  0  0  0  0  0
    5.8700   -5.9780   23.0630 C   0  0  0  0  0  0  0  0  0  0  0  0
    5.9400   -6.2160   21.6980 C   0  0  0  0  0  0  0  0  0  0  0  0
    6.4930    0.0720   20.1830 C   0  0  0  0  0  0  0  0  0  0  0  0
    9.0970   -2.6950   24.7230 C   0  0  2  0  0  0  0  0  0  0  0  0
    6.9640    0.0160   18.8710 C   0  0  0  0  0  0  0  0  0  0  0  0
    5.2150    0.8920   20.3160 C   0  0  0  0  0  0  0  0  0  0  0  0
    8.7310   -1.5610   25.0410 O   0  0  0  0  0  0  0  0  0  0  0  0
   10.6060   -2.7220   24.5040 C   0  0  0  0  0  0  0  0  0  0  0  0
    8.9200   -3.8050   25.6490 C   0  0  0  0  0  0  0  0  0  0  0  0
    6.4270    0.5970   17.8030 N   0  0  0  0  0  0  0  0  0  0  0  0
    4.6380    1.5020   19.2040 C   0  0  0  0  0  0  0  0  0  0  0  0
    9.6380   -4.9790   25.5690 C   0  0  0  0  0  0  0  0  0  0  0  0
    7.8280   -3.8350   26.9770 S   0  0  0  0  0  0  0  0  0  0  0  0
    5.2050    1.3870   17.9360 C   0  0  0  0  0  0  0  0  0  0  0  0
   11.3180   -1.4900   24.0110 C   0  0  0  0  0  0  0  0  0  0  0  0
    9.3050   -5.8980   26.5900 C   0  0  0  0  0  0  0  0  0  0  0  0
    8.3360   -5.4080   27.4310 C   0  0  0  0  0  0  0  0  0  0  0  0
   12.3320   -1.5210   23.0760 C   0  0  0  0  0  0  0  0  0  0  0  0
   11.0650   -0.1880   24.4270 C   0  0  0  0  0  0  0  0  0  0  0  0
   12.9000   -0.1510   22.7500 C   0  0  0  0  0  0  0  0  0  0  0  0
   12.0850    1.0260   23.6590 S   0  0  0  0  0  0  0  0  0  0  0  0
  1  2  1  0
  1  3  2  0
  1  4  1  0
  4  5  1  0
  4  6  1  0
  5  7  1  1
  5  8  1  0
  6  9  1  0
  6 10  1  1
  8 11  1  0
  9 11  1  0
 10 12  1  0
 10 13  1  0
 12 13  1  0
  7 14  1  0
 11 15  1  0
 14 16  2  0
 14 17  1  0
 15 18  1  1
 15 19  1  0
 15 20  1  0
 16 21  1  0
 17 22  2  0
 20 23  2  0
 20 24  1  0
 21 25  2  0
 22 25  1  0
 19 26  1  0
 23 27  1  0
 24 28  1  0
 27 28  2  0
 26 29  1  0
 26 30  2  0
 29 31  2  0
 30 32  1  0
 31 32  1  0
M  END
