x0434_2-x1334_0-x1418_1-x0770_1-x0831_0-x1334_1-x0397_0
     RDKit          3D

 34 38  0  0  0  0  0  0  0  0999 V2000
    6.3500   -3.2940   19.8270 C   0  0  0  0  0  0  0  0  0  0  0  0
    7.3400   -3.0280   18.7220 C   0  0  0  0  0  0  0  0  0  0  0  0
    5.3980   -4.0620   19.6630 O   0  0  0  0  0  0  0  0  0  0  0  0
    6.5990   -2.6470   21.0410 N   0  0  0  0  0  0  0  0  0  0  0  0
    6.2860   -3.2680   22.3220 C   0  0  2  0  0  0  0  0  0  0  0  0
    7.7370   -1.6510   20.9960 C   0  0  2  0  0  0  0  0  0  0  0  0
    7.6090   -3.6250   23.0120 C   0  0  0  0  0  0  0  0  0  0  0  0
    8.7960   -1.8300   22.0650 C   0  0  0  0  0  0  0  0  0  0  0  0
    5.5000   -4.5760   22.0170 C   0  0  0  0  0  0  0  0  0  0  0  0
    7.3000   -0.2630   20.7540 C   0  0  0  0  0  0  0  0  0  0  0  0
    8.2980   -2.4120   23.3360 N   0  0  0  0  0  0  0  0  0  0  0  0
    6.2010   -5.6270   23.1500 C   0  0  0  0  0  0  0  0  0  0  0  0
    5.9800   -5.9400   21.7910 C   0  0  0  0  0  0  0  0  0  0  0  0
    7.0140    0.1620   19.3370 C   0  0  0  0  0  0  0  0  0  0  0  0
    9.3020   -2.6680   24.1780 C   0  0  2  0  0  0  0  0  0  0  0  0
    6.0330    0.4120   20.2560 C   0  0  0  0  0  0  0  0  0  0  0  0
    6.4710    0.6600   18.1500 N   0  0  0  0  0  0  0  0  0  0  0  0
   10.5760   -2.6600   23.3210 C   0  0  0  0  0  0  0  0  0  0  0  0
    9.0710   -3.8330   25.1520 C   0  0  0  0  0  0  0  0  0  0  0  0
    5.3010    1.2590   17.8940 C   0  0  0  0  0  0  0  0  0  0  0  0
    4.7950    1.0130   20.0850 C   0  0  0  0  0  0  0  0  0  0  0  0
    9.7520   -5.0840   25.2110 C   0  0  0  0  0  0  0  0  0  0  0  0
    7.8760   -3.7830   26.4260 S   0  0  0  0  0  0  0  0  0  0  0  0
   11.1030   -1.2490   23.3360 C   0  0  0  0  0  0  0  0  0  0  0  0
    4.3790    1.4930   18.7640 C   0  0  0  0  0  0  0  0  0  0  0  0
    9.3400   -6.0560   26.2990 C   0  0  0  0  0  0  0  0  0  0  0  0
    8.1840   -5.3410   27.1010 C   0  0  0  0  0  0  0  0  0  0  0  0
   10.4190   -0.0870   24.0550 C   0  0  0  0  0  0  0  0  0  0  0  0
   12.2410   -0.9070   22.7210 C   0  0  0  0  0  0  0  0  0  0  0  0
    7.2890   -5.9020   28.4440 Cl  0  0  0  0  0  0  0  0  0  0  0  0
   13.0350   -1.9150   21.9620 C   0  0  0  0  0  0  0  0  0  0  0  0
   10.8330    1.1630   24.1130 C   0  0  0  0  0  0  0  0  0  0  0  0
   12.7630    0.5410   22.7800 C   0  0  0  0  0  0  0  0  0  0  0  0
   12.1060    1.7870   23.4880 C   0  0  0  0  0  0  0  0  0  0  0  0
  1  2  1  0
  1  3  2  0
  1  4  1  0
  4  5  1  0
  4  6  1  0
  5  7  1  0
  6  8  1  0
  5  9  1  6
  6 10  1  1
  7 11  1  0
  8 11  1  0
  9 12  1  0
  9 13  1  0
 12 13  1  0
 10 14  1  0
 11 15  1  0
 14 16  2  0
 14 17  1  0
 15 18  1  6
 15 19  1  0
 17 20  2  0
 16 21  1  0
 19 22  2  0
 19 23  1  0
 18 24  1  0
 20 25  1  0
 21 25  2  0
 22 26  1  0
 23 27  1  0
 26 27  2  0
 24 28  2  0
 24 29  1  0
 27 30  1  0
 29 31  1  0
 28 32  1  0
 29 33  2  0
 32 34  2  0
 33 34  1  0
M  END
