x0434_2-x1374_1-x1385_1-x1334_0-x0831_0-x1334_1-x0397_0-x0831_1-x0770_1-x1412_1-x0540_3-x0692_1
     RDKit          3D

 44 48  0  0  0  0  0  0  0  0999 V2000
    2.7030   -7.4140   23.3720 O   0  0  0  0  0  0  0  0  0  0  0  0
    3.1770   -7.2190   24.6910 C   0  0  0  0  0  0  0  0  0  0  0  0
    4.4350   -7.8220   24.9140 O   0  0  0  0  0  0  0  0  0  0  0  0
    5.3820   -7.5000   23.8950 C   0  0  0  0  0  0  0  0  0  0  0  0
    6.1380   -6.2820   24.2100 C   0  0  0  0  0  0  0  0  0  0  0  0
    6.3940   -5.4130   23.0310 C   0  0  2  0  0  0  0  0  0  0  0  0
    5.6370   -4.5890   22.3840 C   0  0  2  0  0  0  0  0  0  0  0  0
    6.4800   -5.9050   21.8360 C   0  0  0  0  0  0  0  0  0  0  0  0
    6.0250   -3.1420   22.4380 C   0  0  1  0  0  0  0  0  0  0  0  0
    7.0180   -3.0180   23.3790 C   0  0  0  0  0  0  0  0  0  0  0  0
    6.4820   -2.6230   21.1830 N   0  0  0  0  0  0  0  0  0  0  0  0
    6.3320   -3.2920   19.9320 C   0  0  0  0  0  0  0  0  0  0  0  0
    8.3840   -2.9870   22.7850 N   0  0  0  0  0  0  0  0  0  0  0  0
    7.2510   -1.5020   21.2890 C   0  0  1  0  0  0  0  0  0  0  0  0
    7.3620   -2.9780   18.8300 C   0  0  0  0  0  0  0  0  0  0  0  0
    5.4250   -4.1130   19.7480 O   0  0  0  0  0  0  0  0  0  0  0  0
    6.6230   -0.4250   22.2530 C   0  0  0  0  0  0  0  0  0  0  0  0
    9.5320   -3.0580   23.7100 C   0  0  1  0  0  0  0  0  0  0  0  0
    8.4900   -1.8920   21.7960 C   0  0  0  0  0  0  0  0  0  0  0  0
    5.4320    0.3960   21.7100 C   0  0  1  0  0  0  0  0  0  0  0  0
    9.6530   -1.7600   24.2590 C   0  0  0  0  0  0  0  0  0  0  0  0
    9.2180   -3.9580   24.9020 C   0  0  0  0  0  0  0  0  0  0  0  0
    5.3200    1.6980   22.5430 C   0  0  0  0  0  0  0  0  0  0  0  0
    9.8000   -5.1740   25.1910 C   0  0  0  0  0  0  0  0  0  0  0  0
    7.9690   -3.5540   26.2120 S   0  0  0  0  0  0  0  0  0  0  0  0
   10.7520   -0.6970   23.7570 C   0  0  0  0  0  0  0  0  0  0  0  0
    5.6110    0.5560   20.4010 C   0  0  0  0  0  0  0  0  0  0  0  0
    4.0160    2.3850   22.4150 N   0  0  0  0  0  0  0  0  0  0  0  0
    9.3540   -5.7920   26.3460 C   0  0  0  0  0  0  0  0  0  0  0  0
    8.3700   -5.0980   27.0510 C   0  0  0  0  0  0  0  0  0  0  0  0
   10.4480    0.5630   24.2440 C   0  0  0  0  0  0  0  0  0  0  0  0
   11.9140   -0.8440   22.9490 C   0  0  0  0  0  0  0  0  0  0  0  0
    6.7390   -0.0270   19.8610 C   0  0  0  0  0  0  0  0  0  0  0  0
    4.7790    1.2490   19.5430 C   0  0  0  0  0  0  0  0  0  0  0  0
    2.9160    2.2080   23.4220 C   0  0  0  0  0  0  0  0  0  0  0  0
    7.5550   -5.4810   28.5020 Cl  0  0  0  0  0  0  0  0  0  0  0  0
   12.3960   -2.1180   22.3210 C   0  0  0  0  0  0  0  0  0  0  0  0
   11.1890    1.6910   24.0140 C   0  0  0  0  0  0  0  0  0  0  0  0
   12.6710    0.3160   22.7360 C   0  0  0  0  0  0  0  0  0  0  0  0
    7.0150    0.0710   18.5390 C   0  0  0  0  0  0  0  0  0  0  0  0
    5.1330    1.3120   18.1900 C   0  0  0  0  0  0  0  0  0  0  0  0
    2.9830    1.4670   24.3980 O   0  0  0  0  0  0  0  0  0  0  0  0
   12.3300    1.5630   23.2480 C   0  0  0  0  0  0  0  0  0  0  0  0
    6.2380    0.7310   17.6740 N   0  0  0  0  0  0  0  0  0  0  0  0
  1  2  1  0
  2  3  1  0
  3  4  1  0
  4  5  1  0
  6  5  1  1
  6  7  1  0
  6  8  1  0
  7  8  1  6
  7  9  1  0
  9 10  1  1
  9 11  1  0
 11 12  1  0
 10 13  1  0
 11 14  1  0
 12 15  1  0
 12 16  2  0
 14 17  1  1
 13 18  1  0
 13 19  1  0
 14 19  1  0
 20 17  1  1
 18 21  1  1
 18 22  1  0
 20 23  1  0
 22 24  2  0
 22 25  1  0
 21 26  1  0
 20 27  1  0
 23 28  1  0
 24 29  1  0
 25 30  1  0
 29 30  2  0
 26 31  2  0
 26 32  1  0
 27 33  2  0
 27 34  1  0
 28 35  1  0
 30 36  1  0
 32 37  1  0
 31 38  1  0
 32 39  2  0
 33 40  1  0
 34 41  2  0
 35 42  2  0
 38 43  2  0
 39 43  1  0
 40 44  2  0
 41 44  1  0
M  END
