x0434_2-x1334_0-x0831_0-x0981_1-x1385_0-x1412_1
     RDKit          3D

 45 48  0  0  0  0  0  0  0  0999 V2000
    4.1540   -5.9100   23.0680 C   0  0  0  0  0  0  0  0  0  0  0  0
    2.7310   -6.1390   23.5000 C   0  0  1  0  0  0  0  0  0  0  0  0
    2.3780   -7.3840   22.8270 N   0  0  0  0  0  0  0  0  0  0  0  0
    4.4360   -4.9400   22.2970 N   0  0  0  0  0  0  0  0  0  0  0  0
    2.6400   -6.3130   24.9970 C   0  0  0  0  0  0  0  0  0  0  0  0
    5.8260   -4.9450   21.9680 C   0  0  0  0  0  0  0  0  0  0  0  0
    1.2230   -7.4700   22.0980 C   0  0  0  0  0  0  0  0  0  0  0  0
    3.0590   -7.7090   25.3580 C   0  0  0  0  0  0  0  0  0  0  0  0
    6.4140   -3.5820   22.3160 C   0  0  2  0  0  0  0  0  0  0  0  0
    1.1090   -8.7470   21.2630 C   0  0  0  0  0  0  0  0  0  0  0  0
    0.3590   -6.5990   22.0960 O   0  0  0  0  0  0  0  0  0  0  0  0
    2.4850   -8.3570   26.4070 N   0  0  0  0  0  0  0  0  0  0  0  0
    3.9210   -8.2270   24.6730 O   0  0  0  0  0  0  0  0  0  0  0  0
    6.6860   -2.7890   21.1210 N   0  0  0  0  0  0  0  0  0  0  0  0
    7.6560   -3.8420   23.1190 C   0  0  0  0  0  0  0  0  0  0  0  0
    6.4260   -3.3040   19.8590 C   0  0  0  0  0  0  0  0  0  0  0  0
    8.3110   -2.5910   23.4260 N   0  0  0  0  0  0  0  0  0  0  0  0
    7.6990   -1.7340   21.2220 C   0  0  1  0  0  0  0  0  0  0  0  0
    7.4310   -3.0150   18.7520 C   0  0  0  0  0  0  0  0  0  0  0  0
    5.4260   -4.0070   19.6630 O   0  0  0  0  0  0  0  0  0  0  0  0
    9.4940   -2.8580   24.1880 C   0  0  2  0  0  0  0  0  0  0  0  0
    6.9960   -0.4540   21.2410 N   0  0  0  0  0  0  0  0  0  0  0  0
    8.6980   -1.8660   22.2040 C   0  0  0  0  0  0  0  0  0  0  0  0
   10.0980   -1.6990   24.8880 C   0  0  0  0  0  0  0  0  0  0  0  0
   10.5780   -3.1820   23.1800 C   0  0  0  0  0  0  0  0  0  0  0  0
    9.2060   -3.9500   25.2340 C   0  0  0  0  0  0  0  0  0  0  0  0
    6.4410    0.1170   20.1550 C   0  0  0  0  0  0  0  0  0  0  0  0
    9.8520   -5.1750   25.2370 C   0  0  0  0  0  0  0  0  0  0  0  0
    8.0970   -3.8310   26.5230 S   0  0  0  0  0  0  0  0  0  0  0  0
   10.8410   -0.5840   24.2680 C   0  0  0  0  0  0  0  0  0  0  0  0
    6.9450    0.0290   18.8740 C   0  0  0  0  0  0  0  0  0  0  0  0
    5.2680    0.8540   20.3250 C   0  0  0  0  0  0  0  0  0  0  0  0
    9.4580   -5.9720   26.2810 C   0  0  0  0  0  0  0  0  0  0  0  0
    8.5080   -5.3710   27.0830 C   0  0  0  0  0  0  0  0  0  0  0  0
   10.4140    0.7400   24.3760 C   0  0  0  0  0  0  0  0  0  0  0  0
   12.0890   -0.7850   23.5140 C   0  0  0  0  0  0  0  0  0  0  0  0
    6.4220    0.5980   17.7770 N   0  0  0  0  0  0  0  0  0  0  0  0
    4.6570    1.4720   19.2350 C   0  0  0  0  0  0  0  0  0  0  0  0
    7.8490   -5.8620   28.2960 C   0  0  0  0  0  0  0  0  0  0  0  0
   12.7510   -2.1160   23.2540 C   0  0  0  0  0  0  0  0  0  0  0  0
   11.0620    1.8210   23.8530 C   0  0  0  0  0  0  0  0  0  0  0  0
   12.8260    0.3670   22.9300 C   0  0  0  0  0  0  0  0  0  0  0  0
    5.1960    1.3720   17.9660 C   0  0  0  0  0  0  0  0  0  0  0  0
   12.3430    1.6430   23.0870 C   0  0  0  0  0  0  0  0  0  0  0  0
    5.9280   -5.8250   28.1480 Br  0  0  0  0  0  0  0  0  0  0  0  0
  2  1  1  1
  2  3  1  0
  1  4  2  3
  2  5  1  0
  4  6  1  0
  3  7  1  0
  5  8  1  0
  9  6  1  6
  7 10  1  0
  7 11  2  0
  8 12  1  0
  8 13  2  0
  9 14  1  0
  9 15  1  0
 14 16  1  0
 15 17  1  0
 14 18  1  0
 16 19  1  0
 16 20  2  0
 17 21  1  0
 18 22  1  1
 17 23  1  0
 18 23  1  0
 21 24  1  0
 21 25  1  6
 21 26  1  0
 22 27  1  0
 26 28  2  0
 26 29  1  0
 24 30  1  0
 27 31  2  0
 27 32  1  0
 28 33  1  0
 29 34  1  0
 33 34  2  0
 30 35  2  0
 30 36  1  0
 31 37  1  0
 32 38  2  0
 34 39  1  0
 36 40  1  0
 35 41  1  0
 36 42  2  0
 37 43  2  0
 38 43  1  0
 41 44  2  0
 42 44  1  0
 39 45  1  0
M  END
