x0434_2-x1334_1-x0770_1-x0734_0-x0692_1-x1386_1-x1418_1-x1385_1-x0831_0-x0397_0-x1375_1-x0426_1
     RDKit          3D

 47 53  0  0  0  0  0  0  0  0999 V2000
    1.8040   -6.4410   24.6850 O   0  0  0  0  0  0  0  0  0  0  0  0
    2.7940   -6.9770   23.8290 C   0  0  0  0  0  0  0  0  0  0  0  0
    4.1970   -6.5620   24.3160 C   0  0  2  0  0  0  0  0  0  0  0  0
    4.4510   -7.6900   25.1220 O   0  0  0  0  0  0  0  0  0  0  0  0
    4.3080   -5.2340   24.9380 N   0  0  0  0  0  0  0  0  0  0  0  0
    5.1250   -6.7310   23.1620 C   0  0  0  0  0  0  0  0  0  0  0  0
    4.9140   -5.0030   26.0540 N   0  0  0  0  0  0  0  0  0  0  0  0
    6.0910   -5.6770   22.7720 C   0  0  2  0  0  0  0  0  0  0  0  0
    4.3750   -4.1180   26.8080 O   0  0  0  0  0  0  0  0  0  0  0  0
    6.3810   -5.1340   26.1700 C   0  0  0  0  0  0  0  0  0  0  0  0
    5.7150   -4.3730   22.1930 C   0  0  2  0  0  0  0  0  0  0  0  0
    6.3740   -5.7190   21.4900 C   0  0  0  0  0  0  0  0  0  0  0  0
    7.2190   -4.7130   25.0880 C   0  0  0  0  0  0  0  0  0  0  0  0
    6.8970   -5.7390   27.5090 C   0  0  0  0  0  0  0  0  0  0  0  0
    6.4920   -3.1220   22.3070 C   0  0  2  0  0  0  0  0  0  0  0  0
    8.7330   -4.8210   25.1210 C   0  0  0  0  0  0  0  0  0  0  0  0
    8.4280   -5.8720   27.5950 C   0  0  0  0  0  0  0  0  0  0  0  0
    6.6590   -2.5200   20.9620 N   0  0  0  0  0  0  0  0  0  0  0  0
    7.8090   -3.2560   23.0010 C   0  0  0  0  0  0  0  0  0  0  0  0
    9.3140   -5.4250   26.4140 C   0  0  0  0  0  0  0  0  0  0  0  0
    6.3860   -3.3170   19.8520 C   0  0  0  0  0  0  0  0  0  0  0  0
    8.6610   -2.0700   22.8620 N   0  0  0  0  0  0  0  0  0  0  0  0
    7.8580   -1.6750   20.7080 C   0  0  1  0  0  0  0  0  0  0  0  0
    7.3110   -3.0620   18.6690 C   0  0  0  0  0  0  0  0  0  0  0  0
    5.4960   -4.1810   19.7640 O   0  0  0  0  0  0  0  0  0  0  0  0
    9.8610   -2.1540   23.6830 C   0  0  0  0  0  0  0  0  0  0  0  0
    7.5420   -0.2900   20.8350 N   0  0  0  0  0  0  0  0  0  0  0  0
    9.0900   -2.0270   21.5890 C   0  0  0  0  0  0  0  0  0  0  0  0
    7.2750    0.3110   22.0180 C   0  0  0  0  0  0  0  0  0  0  0  0
    6.6140    0.2560   19.9560 C   0  0  0  0  0  0  0  0  0  0  0  0
   10.6240   -0.9210   23.6030 C   0  0  0  0  0  0  0  0  0  0  0  0
    5.7650    0.4930   22.0520 C   0  0  2  0  0  0  0  0  0  0  0  0
    6.6570    0.3590   18.5860 N   0  0  0  0  0  0  0  0  0  0  0  0
    5.5930    0.7330   20.5970 C   0  0  0  0  0  0  0  0  0  0  0  0
   10.2020    0.2850   24.2340 C   0  0  0  0  0  0  0  0  0  0  0  0
   11.8730   -0.8690   22.8670 C   0  0  0  0  0  0  0  0  0  0  0  0
    5.2170    1.6330   22.6800 C   0  0  0  0  0  0  0  0  0  0  0  0
   12.4390   -2.0560   22.1480 C   0  0  0  0  0  0  0  0  0  0  0  0
    4.4510    1.4120   20.0090 C   0  0  0  0  0  0  0  0  0  0  0  0
    5.5940    1.0000   17.9950 C   0  0  0  0  0  0  0  0  0  0  0  0
   10.9930    1.3950   24.1020 C   0  0  0  0  0  0  0  0  0  0  0  0
   12.6200    0.2920   22.7910 C   0  0  0  0  0  0  0  0  0  0  0  0
    3.6800    1.6700   22.3270 C   0  0  2  0  0  0  0  0  0  0  0  0
    3.4280    1.8700   20.9960 C   0  0  0  0  0  0  0  0  0  0  0  0
    4.4950    1.5340   18.6520 C   0  0  0  0  0  0  0  0  0  0  0  0
   12.1690    1.4230   23.4110 C   0  0  0  0  0  0  0  0  0  0  0  0
    2.9930    2.6580   23.1550 N   0  0  0  0  0  0  0  0  0  0  0  0
  1  2  1  0
  2  3  1  0
  3  4  1  1
  3  5  1  0
  3  6  1  0
  5  7  2  3
  8  6  1  6
  7  9  1  0
  7 10  1  0
  8 11  1  0
  8 12  1  0
 11 12  1  6
 10 13  2  0
 10 14  1  0
 11 15  1  0
 13 16  1  0
 14 17  2  0
 15 18  1  0
 15 19  1  6
 16 20  2  0
 17 20  1  0
 18 21  1  0
 19 22  1  0
 18 23  1  0
 21 24  1  0
 21 25  2  0
 22 26  1  0
 23 27  1  1
 22 28  1  0
 23 28  1  0
 27 29  1  0
 27 30  1  0
 26 31  1  0
 32 29  1  6
 30 33  2  0
 30 34  1  0
 32 34  1  0
 31 35  2  0
 31 36  1  0
 32 37  1  0
 36 38  1  0
 34 39  2  0
 33 40  1  0
 35 41  1  0
 36 42  2  0
 37 43  1  0
 39 44  1  0
 43 44  1  0
 39 45  1  0
 40 45  2  0
 41 46  2  0
 42 46  1  0
 43 47  1  1
M  CHG  2   7   1   9  -1
M  END
