x0540_3-x1348_1
     RDKit          3D

 20 21  0  0  0  0  0  0  0  0999 V2000
    4.7810    0.2230   21.5890 C   0  0  0  0  0  0  0  0  0  0  0  0
    5.2260    1.4360   22.3960 C   0  0  0  0  0  0  0  0  0  0  0  0
    4.2480    2.4160   22.6170 N   0  0  0  0  0  0  0  0  0  0  0  0
    5.1070   -1.0930   22.3150 C   0  0  0  0  0  0  0  0  0  0  0  0
    6.3750   -1.7740   21.7770 C   0  0  0  0  0  0  0  0  0  0  0  0
    3.0290    2.1200   23.3430 C   0  0  0  0  0  0  0  0  0  0  0  0
    7.4300   -2.0520   22.6620 C   0  0  0  0  0  0  0  0  0  0  0  0
    2.9510    1.4890   24.3910 O   0  0  0  0  0  0  0  0  0  0  0  0
    7.1090   -2.9610   23.9100 C   0  0  0  0  0  0  0  0  0  0  0  0
    6.9960   -4.3610   23.5560 N   0  0  0  0  0  0  0  0  0  0  0  0
    6.7420   -4.7480   22.3170 C   0  0  0  0  0  0  0  0  0  0  0  0
    6.4420   -5.3670   24.3670 C   0  0  2  0  0  0  0  0  0  0  0  0
    5.2060   -5.5030   23.7810 C   0  0  1  0  0  0  0  0  0  0  0  0
    5.3030   -5.7940   21.9370 S   0  0  0  0  0  0  0  0  0  0  0  0
    6.3530   -5.0850   25.8780 C   0  0  2  0  0  0  0  0  0  0  0  0
    7.6920   -5.0870   26.4010 O   0  0  0  0  0  0  0  0  0  0  0  0
    5.5820   -6.0610   26.5130 C   0  0  0  0  0  0  0  0  0  0  0  0
    4.3740   -6.6060   24.4380 C   0  0  0  0  0  0  0  0  0  0  0  0
    7.7960   -5.0190   27.8210 C   0  0  0  0  0  0  0  0  0  0  0  0
    4.6250   -6.7920   25.8040 C   0  0  0  0  0  0  0  0  0  0  0  0
  1  2  1  0
  2  3  1  0
  1  4  1  0
  4  5  1  0
  3  6  1  0
  5  7  1  0
  6  8  2  0
  7  9  1  0
  9 10  1  0
 10 11  1  0
 12 10  1  6
 12 13  1  0
 11 14  2  0
 13 14  1  0
 12 15  1  0
 15 16  1  1
 15 17  1  0
 13 18  1  1
 16 19  1  0
 17 20  2  0
 18 20  1  0
M  END
