x0540_3-x0692_1
     RDKit          3D

 15 15  0  0  0  0  0  0  0  0999 V2000
    5.3030    0.2930   21.7000 C   0  0  0  0  0  0  0  0  0  0  0  0
    5.2640    1.5940   22.5250 C   0  0  0  0  0  0  0  0  0  0  0  0
    4.0540    2.2570   22.4140 N   0  0  0  0  0  0  0  0  0  0  0  0
    6.3590   -0.4970   22.1880 C   0  0  0  0  0  0  0  0  0  0  0  0
    7.0640   -1.3130   21.2670 C   0  0  1  0  0  0  0  0  0  0  0  0
    3.0540    2.0840   23.3470 C   0  0  0  0  0  0  0  0  0  0  0  0
    8.4880   -1.6340   21.7180 C   0  0  0  0  0  0  0  0  0  0  0  0
    6.2800   -2.5640   21.1080 N   0  0  0  0  0  0  0  0  0  0  0  0
    3.1100    1.3710   24.3540 O   0  0  0  0  0  0  0  0  0  0  0  0
    6.1840   -3.2560   19.8940 C   0  0  0  0  0  0  0  0  0  0  0  0
    8.3360   -2.2300   23.0650 N   0  0  0  0  0  0  0  0  0  0  0  0
    6.2510   -3.2510   22.4090 C   0  0  0  0  0  0  0  0  0  0  0  0
    5.3180   -4.1190   19.7160 O   0  0  0  0  0  0  0  0  0  0  0  0
    7.2040   -2.9710   18.7980 C   0  0  0  0  0  0  0  0  0  0  0  0
    7.5020   -3.4430   23.0090 C   0  0  0  0  0  0  0  0  0  0  0  0
  1  2  1  0
  2  3  1  0
  1  4  1  0
  5  4  1  1
  3  6  1  0
  5  7  1  0
  5  8  1  0
  6  9  2  0
  8 10  1  0
  7 11  1  0
  8 12  1  0
 10 13  2  0
 10 14  1  0
 11 15  1  0
 12 15  1  0
M  END
