x0540_3-x1386_0-x0820_1-x0831_0-x0434_2
     RDKit          3D

 36 40  0  0  0  0  0  0  0  0999 V2000
    4.8620    0.2200   21.7270 C   0  0  2  0  0  0  0  0  0  0  0  0
    5.1860    1.3890   22.6540 C   0  0  0  0  0  0  0  0  0  0  0  0
    4.1290    2.3870   22.6960 N   0  0  0  0  0  0  0  0  0  0  0  0
    5.4310   -1.0850   22.3250 C   0  0  0  0  0  0  0  0  0  0  0  0
    5.3640    0.4030   20.3120 C   0  0  0  0  0  0  0  0  0  0  0  0
    6.9510   -1.1960   22.1920 C   0  0  1  0  0  0  0  0  0  0  0  0
    6.5610   -0.2130   19.9420 C   0  0  0  0  0  0  0  0  0  0  0  0
    4.6760    1.1680   19.3510 C   0  0  0  0  0  0  0  0  0  0  0  0
    2.9870    2.1850   23.4180 C   0  0  0  0  0  0  0  0  0  0  0  0
    7.7920   -2.3630   22.8110 C   0  0  1  0  0  0  0  0  0  0  0  0
    7.3270   -0.9830   20.8000 N   0  0  0  0  0  0  0  0  0  0  0  0
    6.9850   -0.0290   18.6460 C   0  0  0  0  0  0  0  0  0  0  0  0
    5.2090    1.2820   18.0780 C   0  0  0  0  0  0  0  0  0  0  0  0
    2.8850    1.4820   24.4170 O   0  0  0  0  0  0  0  0  0  0  0  0
    7.1260   -3.7810   22.8320 C   0  0  0  0  0  0  0  0  0  0  0  0
    9.2360   -2.3780   22.2910 C   0  0  0  0  0  0  0  0  0  0  0  0
    6.3550    0.6950   17.7090 N   0  0  0  0  0  0  0  0  0  0  0  0
   10.3520   -2.3630   23.3630 C   0  0  2  0  0  0  0  0  0  0  0  0
    6.2750   -4.1050   24.0390 C   0  0  0  0  0  0  0  0  0  0  0  0
    9.9010   -2.7580   24.7560 C   0  0  0  0  0  0  0  0  0  0  0  0
    6.7770   -4.2730   25.3370 C   0  0  0  0  0  0  0  0  0  0  0  0
    4.8930   -4.2310   23.8100 C   0  0  0  0  0  0  0  0  0  0  0  0
   10.9960   -1.0050   23.4290 C   0  0  0  0  0  0  0  0  0  0  0  0
    5.8820   -4.5550   26.4000 C   0  0  0  0  0  0  0  0  0  0  0  0
    4.0170   -4.5140   24.8490 C   0  0  0  0  0  0  0  0  0  0  0  0
    8.1430   -4.1780   25.6760 C   0  0  0  0  0  0  0  0  0  0  0  0
   10.3610    0.0670   24.0750 C   0  0  0  0  0  0  0  0  0  0  0  0
   12.2430   -0.8110   22.8280 C   0  0  0  0  0  0  0  0  0  0  0  0
   12.9670   -1.9160   22.1160 C   0  0  0  0  0  0  0  0  0  0  0  0
    4.5120   -4.6720   26.1390 C   0  0  0  0  0  0  0  0  0  0  0  0
    8.6130   -4.3450   26.9820 C   0  0  0  0  0  0  0  0  0  0  0  0
    6.3620   -4.7180   27.7160 C   0  0  0  0  0  0  0  0  0  0  0  0
   10.9630    1.3180   24.1080 C   0  0  0  0  0  0  0  0  0  0  0  0
   12.8350    0.4480   22.8790 C   0  0  0  0  0  0  0  0  0  0  0  0
    7.7200   -4.6120   28.0010 C   0  0  0  0  0  0  0  0  0  0  0  0
   12.1990    1.5050   23.5080 C   0  0  0  0  0  0  0  0  0  0  0  0
  1  2  1  1
  2  3  1  0
  1  4  1  0
  1  5  1  0
  6  4  1  6
  5  7  2  0
  5  8  1  0
  3  9  1  0
  6 10  1  0
  6 11  1  0
  7 11  1  0
  7 12  1  0
  8 13  2  0
  9 14  2  0
 10 15  1  6
 10 16  1  0
 12 17  2  0
 13 17  1  0
 16 18  1  0
 15 19  1  0
 18 20  1  1
 19 21  1  0
 19 22  2  0
 18 23  1  0
 21 24  2  0
 22 25  1  0
 21 26  1  0
 23 27  2  0
 23 28  1  0
 28 29  1  0
 24 30  1  0
 25 30  2  0
 26 31  2  0
 24 32  1  0
 27 33  1  0
 28 34  2  0
 31 35  1  0
 32 35  2  0
 33 36  2  0
 34 36  1  0
M  END
