x0540_3-x1374_0
     RDKit          3D

 16 16  0  0  0  0  0  0  0  0999 V2000
    4.8150    0.2820   21.7540 C   0  0  0  0  0  0  0  0  0  0  0  0
    5.3320    1.5040   22.4910 C   0  0  0  0  0  0  0  0  0  0  0  0
    4.2180    2.4590   22.6370 N   0  0  0  0  0  0  0  0  0  0  0  0
    5.8600   -0.6760   21.5220 C   0  0  0  0  0  0  0  0  0  0  0  0
    6.6040   -1.2940   22.7150 C   0  0  0  0  0  0  0  0  0  0  0  0
    3.0780    2.1470   23.3220 C   0  0  0  0  0  0  0  0  0  0  0  0
    7.6980   -2.2270   22.2020 C   0  0  1  0  0  0  0  0  0  0  0  0
    3.0350    1.4890   24.3620 O   0  0  0  0  0  0  0  0  0  0  0  0
    8.9240   -1.4840   21.6610 C   0  0  0  0  0  0  0  0  0  0  0  0
    8.2040   -3.1920   23.1350 C   0  0  0  0  0  0  0  0  0  0  0  0
    7.5130   -4.3990   22.9050 C   0  0  0  0  0  0  0  0  0  0  0  0
    9.1700   -3.1690   24.1370 C   0  0  0  0  0  0  0  0  0  0  0  0
    9.4250   -4.3210   24.8780 C   0  0  0  0  0  0  0  0  0  0  0  0
    7.7820   -5.5430   23.6580 C   0  0  0  0  0  0  0  0  0  0  0  0
   10.4500   -4.3680   25.9650 C   0  0  0  0  0  0  0  0  0  0  0  0
    8.7600   -5.4690   24.6550 C   0  0  0  0  0  0  0  0  0  0  0  0
  1  2  1  0
  2  3  1  0
  1  4  1  0
  4  5  1  0
  3  6  1  0
  5  7  1  0
  6  8  2  0
  7  9  1  1
  7 10  1  0
 10 11  2  0
 10 12  1  0
 12 13  2  0
 11 14  1  0
 13 15  1  0
 13 16  1  0
 14 16  2  0
M  END
