x0540_3-x0831_0
     RDKit          3D

 17 17  0  0  0  0  0  0  0  0999 V2000
    5.0180    0.1280   21.5450 C   0  0  0  0  0  0  0  0  0  0  0  0
    5.3790    1.3070   22.4650 C   0  0  0  0  0  0  0  0  0  0  0  0
    4.3060    2.3070   22.5810 N   0  0  0  0  0  0  0  0  0  0  0  0
    5.7540   -1.1540   21.6960 C   0  0  0  0  0  0  0  0  0  0  0  0
    7.2940   -1.1150   21.7060 C   0  0  0  0  0  0  0  0  0  0  0  0
    3.0620    2.0870   23.3180 C   0  0  0  0  0  0  0  0  0  0  0  0
    7.9890   -2.0910   22.4390 C   0  0  0  0  0  0  0  0  0  0  0  0
    2.9720    1.4670   24.3840 O   0  0  0  0  0  0  0  0  0  0  0  0
    9.3160   -2.2360   22.2610 C   0  0  0  0  0  0  0  0  0  0  0  0
   10.1160   -2.3780   23.5030 C   0  0  0  0  0  0  0  0  0  0  0  0
   10.7910   -1.0490   23.5460 C   0  0  0  0  0  0  0  0  0  0  0  0
   10.2510    0.0760   24.1600 C   0  0  0  0  0  0  0  0  0  0  0  0
   12.0410   -0.9860   22.9120 C   0  0  0  0  0  0  0  0  0  0  0  0
   12.6920   -2.1460   22.2230 C   0  0  0  0  0  0  0  0  0  0  0  0
   10.9330    1.4510   24.1830 C   0  0  0  0  0  0  0  0  0  0  0  0
   12.7870    0.3150   22.9010 C   0  0  0  0  0  0  0  0  0  0  0  0
   12.1700    1.5190   23.5550 C   0  0  0  0  0  0  0  0  0  0  0  0
  1  2  1  0
  2  3  1  0
  1  4  1  0
  4  5  1  0
  3  6  1  0
  5  7  1  0
  6  8  2  0
  7  9  1  0
  9 10  1  0
 10 11  1  0
 11 12  2  0
 11 13  1  0
 13 14  1  0
 12 15  1  0
 13 16  2  0
 15 17  2  0
 16 17  1  0
M  END
