x0540_3-x1358_1
     RDKit          3D

 18 18  0  0  0  0  0  0  0  0999 V2000
    6.0110   -3.3020   25.2250 C   0  0  0  0  0  0  0  0  0  0  0  0
    6.6360   -3.7400   23.9010 C   0  0  1  0  0  0  0  0  0  0  0  0
    5.7840   -4.6420   23.2320 C   0  0  0  0  0  0  0  0  0  0  0  0
    4.8270   -3.4170   25.5260 O   0  0  0  0  0  0  0  0  0  0  0  0
    7.0170   -2.5390   23.0800 C   0  0  2  0  0  0  0  0  0  0  0  0
    5.7570   -1.6790   22.9080 C   0  0  0  0  0  0  0  0  0  0  0  0
    7.6820   -3.0680   22.0070 C   0  0  0  0  0  0  0  0  0  0  0  0
    6.4110   -5.1280   22.0770 C   0  0  0  0  0  0  0  0  0  0  0  0
    6.0100   -0.9060   21.7660 C   0  0  0  0  0  0  0  0  0  0  0  0
    6.7980   -4.0480   21.3540 N   0  0  0  0  0  0  0  0  0  0  0  0
    6.3510   -3.8410   20.0580 C   0  0  0  0  0  0  0  0  0  0  0  0
    4.9780    0.2410   21.6500 C   0  0  0  0  0  0  0  0  0  0  0  0
    5.2390   -4.2430   19.7450 O   0  0  0  0  0  0  0  0  0  0  0  0
    7.2990   -3.1620   19.0710 C   0  0  0  0  0  0  0  0  0  0  0  0
    5.3060    1.4190   22.5780 C   0  0  0  0  0  0  0  0  0  0  0  0
    4.3240    2.3760   22.4680 N   0  0  0  0  0  0  0  0  0  0  0  0
    3.1060    2.1260   23.2440 C   0  0  0  0  0  0  0  0  0  0  0  0
    2.9860    1.4410   24.4210 O   0  0  0  0  0  0  0  0  0  0  0  0
  2  1  1  1
  2  3  1  0
  1  4  2  0
  2  5  1  0
  5  6  1  6
  5  7  1  0
  3  8  1  0
  6  9  1  0
  7 10  1  0
  8 10  1  0
 10 11  1  0
  9 12  1  0
 11 13  2  0
 11 14  1  0
 12 15  1  0
 15 16  1  0
 16 17  1  0
 17 18  2  0
M  END
