x0540_3-x1412_0
     RDKit          3D

 15 15  0  0  0  0  0  0  0  0999 V2000
    4.8380    0.2840   21.6800 C   0  0  0  0  0  0  0  0  0  0  0  0
    5.2980    1.2760   22.6640 C   0  0  1  0  0  0  0  0  0  0  0  0
    4.2870    2.3230   22.7420 N   0  0  0  0  0  0  0  0  0  0  0  0
    5.6950    1.0300   23.9780 C   0  0  0  0  0  0  0  0  0  0  0  0
    3.0690    2.0830   23.3990 C   0  0  0  0  0  0  0  0  0  0  0  0
    7.0840    1.0170   24.1710 C   0  0  0  0  0  0  0  0  0  0  0  0
    2.9350    1.4330   24.4370 O   0  0  0  0  0  0  0  0  0  0  0  0
    7.8660   -0.2610   23.8540 C   0  0  0  0  0  0  0  0  0  0  0  0
    7.7560   -1.2280   24.9550 N   0  0  0  0  0  0  0  0  0  0  0  0
    8.5520   -2.4580   24.9230 C   0  0  0  0  0  0  0  0  0  0  0  0
    8.6820   -3.6710   25.8450 C   0  0  0  0  0  0  0  0  0  0  0  0
    9.6610   -4.7490   25.5400 C   0  0  0  0  0  0  0  0  0  0  0  0
    7.8280   -4.0730   27.3060 S   0  0  0  0  0  0  0  0  0  0  0  0
    9.5230   -5.7720   26.6010 C   0  0  0  0  0  0  0  0  0  0  0  0
    8.5590   -5.4270   27.5460 C   0  0  0  0  0  0  0  0  0  0  0  0
  2  1  1  1
  2  3  1  0
  2  4  1  0
  3  5  1  0
  4  6  1  0
  5  7  2  0
  6  8  1  0
  8  9  1  0
  9 10  2  3
 10 11  1  0
 11 12  2  0
 11 13  1  0
 12 14  1  0
 13 15  1  0
 14 15  2  0
M  END
