x0540_3-x1418_0-x0692_1
     RDKit          3D

 21 22  0  0  0  0  0  0  0  0999 V2000
    5.2580    0.4510   21.8330 C   0  0  0  0  0  0  0  0  0  0  0  0
    5.2360    1.7870   22.5670 C   0  0  0  0  0  0  0  0  0  0  0  0
    3.9670    2.4610   22.4580 N   0  0  0  0  0  0  0  0  0  0  0  0
    6.5580   -0.2360   22.2030 C   0  0  0  0  0  0  0  0  0  0  0  0
    7.1550   -1.2370   21.1830 C   0  0  1  0  0  0  0  0  0  0  0  0
    2.9260    2.1600   23.3440 C   0  0  0  0  0  0  0  0  0  0  0  0
    8.5810   -1.6160   21.6650 C   0  0  0  0  0  0  0  0  0  0  0  0
    6.3550   -2.4780   21.0640 N   0  0  0  0  0  0  0  0  0  0  0  0
    3.0250    1.4620   24.3470 O   0  0  0  0  0  0  0  0  0  0  0  0
    6.2510   -3.2370   19.8930 C   0  0  0  0  0  0  0  0  0  0  0  0
    8.6180   -2.2380   22.9910 N   0  0  0  0  0  0  0  0  0  0  0  0
    6.3080   -3.2680   22.3020 C   0  0  0  0  0  0  0  0  0  0  0  0
    5.3960   -4.1230   19.7390 O   0  0  0  0  0  0  0  0  0  0  0  0
    7.2510   -2.9840   18.7840 C   0  0  0  0  0  0  0  0  0  0  0  0
    9.9960   -2.5980   23.3730 C   0  0  0  0  0  0  0  0  0  0  0  0
    7.6280   -3.3420   23.1500 C   0  0  0  0  0  0  0  0  0  0  0  0
   10.8990   -1.5390   23.4340 C   0  0  0  0  0  0  0  0  0  0  0  0
   12.0200   -1.3800   22.6190 C   0  0  0  0  0  0  0  0  0  0  0  0
   10.7570   -0.2330   24.5530 S   0  0  0  0  0  0  0  0  0  0  0  0
   12.7420   -0.2360   22.8760 C   0  0  0  0  0  0  0  0  0  0  0  0
   12.1690    0.4890   23.9010 C   0  0  0  0  0  0  0  0  0  0  0  0
  1  2  1  0
  2  3  1  0
  1  4  1  0
  5  4  1  1
  3  6  1  0
  5  7  1  0
  5  8  1  0
  6  9  2  0
  8 10  1  0
  7 11  1  0
  8 12  1  0
 10 13  2  0
 10 14  1  0
 11 15  1  0
 11 16  1  0
 12 16  1  0
 15 17  1  0
 17 18  2  0
 17 19  1  0
 18 20  1  0
 19 21  1  0
 20 21  2  0
M  END
