x0678_0-x0736_1
     RDKit          3D

 16 17  0  0  0  0  0  0  0  0999 V2000
    6.3670   -3.3660   19.9740 C   0  0  0  0  0  0  0  0  0  0  0  0
    7.3550   -3.0440   18.8710 C   0  0  0  0  0  0  0  0  0  0  0  0
    5.4240   -4.1420   19.7500 O   0  0  0  0  0  0  0  0  0  0  0  0
    6.5980   -2.7730   21.2310 N   0  0  0  0  0  0  0  0  0  0  0  0
    7.7180   -1.8240   21.4220 C   0  0  1  0  0  0  0  0  0  0  0  0
    6.0700   -3.4010   22.4510 C   0  0  0  0  0  0  0  0  0  0  0  0
    7.2460   -0.4420   21.6220 N   0  0  0  0  0  0  0  0  0  0  0  0
    8.6200   -2.2540   22.6000 C   0  0  0  0  0  0  0  0  0  0  0  0
    7.1630   -3.9450   23.3150 C   0  0  0  0  0  0  0  0  0  0  0  0
    7.9590   -2.9210   23.7250 N   0  0  0  0  0  0  0  0  0  0  0  0
    6.5970    0.1210   20.4310 C   0  0  0  0  0  0  0  0  0  0  0  0
    7.1220   -0.1730   19.0370 C   0  0  0  0  0  0  0  0  0  0  0  0
    5.4730    0.9520   20.5240 C   0  0  0  0  0  0  0  0  0  0  0  0
    6.5900    0.3150   17.9080 N   0  0  0  0  0  0  0  0  0  0  0  0
    4.8730    1.4850   19.3720 C   0  0  0  0  0  0  0  0  0  0  0  0
    5.5240    1.1030   18.0400 C   0  0  0  0  0  0  0  0  0  0  0  0
  1  2  1  0
  1  3  2  0
  1  4  1  0
  4  5  1  0
  4  6  1  0
  5  7  1  1
  5  8  1  0
  6  9  1  0
  8 10  1  0
  9 10  1  0
  7 11  1  0
 11 12  2  0
 11 13  1  0
 12 14  1  0
 13 15  2  0
 14 16  2  0
 15 16  1  0
M  END
