x0678_0-x0978_1
     RDKit          3D

 21 21  0  0  0  0  0  0  0  0999 V2000
    4.2400   -5.7020   22.7660 C   0  0  0  0  0  0  0  0  0  0  0  0
    3.0260   -6.5810   23.2050 C   0  0  2  0  0  0  0  0  0  0  0  0
    1.8410   -5.7270   23.2150 N   0  0  0  0  0  0  0  0  0  0  0  0
    4.2500   -4.4870   23.1590 N   0  0  0  0  0  0  0  0  0  0  0  0
    3.2280   -7.2730   24.5490 C   0  0  1  0  0  0  0  0  0  0  0  0
    5.3660   -3.8280   22.6990 C   0  0  0  0  0  0  0  0  0  0  0  0
    0.6990   -6.1650   22.5740 C   0  0  0  0  0  0  0  0  0  0  0  0
    2.1500   -8.2910   24.8930 C   0  0  0  0  0  0  0  0  0  0  0  0
    4.4490   -7.9820   24.4640 O   0  0  0  0  0  0  0  0  0  0  0  0
    5.1760   -2.5120   22.7030 C   0  0  0  0  0  0  0  0  0  0  0  0
    0.6650   -7.1840   21.8990 O   0  0  0  0  0  0  0  0  0  0  0  0
   -0.5260   -5.3080   22.7490 C   0  0  0  0  0  0  0  0  0  0  0  0
    5.9400   -1.8410   21.7480 C   0  0  0  0  0  0  0  0  0  0  0  0
    7.2930   -1.5920   22.0220 C   0  0  0  0  0  0  0  0  0  0  0  0
    7.6990   -0.3440   21.4130 N   0  0  0  0  0  0  0  0  0  0  0  0
    6.8880    0.1870   20.3200 C   0  0  0  0  0  0  0  0  0  0  0  0
    7.1470   -0.2680   18.8690 C   0  0  0  0  0  0  0  0  0  0  0  0
    5.8680    1.1150   20.5730 C   0  0  0  0  0  0  0  0  0  0  0  0
    6.4010    0.2300   17.8270 N   0  0  0  0  0  0  0  0  0  0  0  0
    5.1020    1.5950   19.3470 C   0  0  0  0  0  0  0  0  0  0  0  0
    5.3530    1.1860   18.0870 C   0  0  0  0  0  0  0  0  0  0  0  0
  2  1  1  1
  2  3  1  0
  1  4  2  3
  2  5  1  0
  4  6  1  0
  3  7  1  0
  5  8  1  6
  5  9  1  0
  6 10  1  0
  7 11  2  0
  7 12  1  0
 10 13  1  0
 13 14  1  0
 14 15  1  0
 15 16  1  0
 16 17  2  0
 16 18  1  0
 17 19  1  0
 18 20  2  0
 19 21  2  0
 20 21  1  0
M  END
