x0678_0-x0831_0
     RDKit          3D

 17 18  0  0  0  0  0  0  0  0999 V2000
    9.8430   -2.3150   23.4880 C   0  0  0  0  0  0  0  0  0  0  0  0
    9.0190   -2.4380   22.2000 C   0  0  0  0  0  0  0  0  0  0  0  0
    7.7450   -1.5500   22.1540 C   0  0  0  0  0  0  0  0  0  0  0  0
   10.6450   -1.0360   23.4970 C   0  0  0  0  0  0  0  0  0  0  0  0
   10.0830    0.2430   24.1180 C   0  0  0  0  0  0  0  0  0  0  0  0
   11.9460   -1.0110   22.9090 C   0  0  0  0  0  0  0  0  0  0  0  0
   12.5410   -2.1590   22.3020 C   0  0  0  0  0  0  0  0  0  0  0  0
    7.9010   -0.3250   21.3610 N   0  0  0  0  0  0  0  0  0  0  0  0
   10.9210    1.5480   24.0950 C   0  0  0  0  0  0  0  0  0  0  0  0
   12.7430    0.2650   22.9080 C   0  0  0  0  0  0  0  0  0  0  0  0
   12.2670    1.4530   23.4540 C   0  0  0  0  0  0  0  0  0  0  0  0
    6.9950    0.1600   20.3300 C   0  0  0  0  0  0  0  0  0  0  0  0
    7.1810   -0.2890   19.0230 C   0  0  0  0  0  0  0  0  0  0  0  0
    5.9450    1.0730   20.6190 C   0  0  0  0  0  0  0  0  0  0  0  0
    6.4730    0.0460   17.9380 N   0  0  0  0  0  0  0  0  0  0  0  0
    5.1690    1.4490   19.4900 C   0  0  0  0  0  0  0  0  0  0  0  0
    5.4120    0.9720   18.2230 C   0  0  0  0  0  0  0  0  0  0  0  0
  1  2  1  0
  2  3  1  0
  1  4  1  0
  4  5  2  0
  4  6  1  0
  6  7  1  0
  3  8  1  0
  5  9  1  0
  6 10  2  0
  9 11  2  0
 10 11  1  0
  8 12  1  0
 12 13  2  0
 12 14  1  0
 13 15  1  0
 14 16  2  0
 15 17  2  0
 16 17  1  0
M  END
