x0678_0-x1402_1
     RDKit          3D

 19 20  0  0  0  0  0  0  0  0999 V2000
    6.3470   -4.5860   20.5240 C   0  0  0  0  0  0  0  0  0  0  0  0
    7.2980   -3.4990   20.0050 C   0  0  0  0  0  0  0  0  0  0  0  0
    5.2810   -4.7450   19.9530 O   0  0  0  0  0  0  0  0  0  0  0  0
    6.6750   -5.4030   21.6090 N   0  0  0  0  0  0  0  0  0  0  0  0
    7.5380   -4.8800   22.6600 C   0  0  0  0  0  0  0  0  0  0  0  0
    5.7040   -6.3650   22.1500 C   0  0  0  0  0  0  0  0  0  0  0  0
    6.7860   -4.3470   23.8770 C   0  0  1  0  0  0  0  0  0  0  0  0
    4.9250   -5.8190   23.3370 C   0  0  0  0  0  0  0  0  0  0  0  0
    6.0800   -3.1190   23.5040 C   0  0  0  0  0  0  0  0  0  0  0  0
    5.7710   -5.2780   24.4160 N   0  0  0  0  0  0  0  0  0  0  0  0
    7.1090   -1.9910   23.3620 C   0  0  0  0  0  0  0  0  0  0  0  0
    6.6000   -0.8760   22.4650 C   0  0  0  0  0  0  0  0  0  0  0  0
    7.5030   -0.5020   21.3760 N   0  0  0  0  0  0  0  0  0  0  0  0
    6.7490    0.1140   20.2670 C   0  0  0  0  0  0  0  0  0  0  0  0
    7.1580   -0.2400   19.0060 C   0  0  0  0  0  0  0  0  0  0  0  0
    5.6890    0.9960   20.4400 C   0  0  0  0  0  0  0  0  0  0  0  0
    6.5260    0.2870   17.8090 N   0  0  0  0  0  0  0  0  0  0  0  0
    4.9940    1.5650   19.3680 C   0  0  0  0  0  0  0  0  0  0  0  0
    5.4110    1.2150   18.0860 C   0  0  0  0  0  0  0  0  0  0  0  0
  1  2  1  0
  1  3  2  0
  1  4  1  0
  4  5  1  0
  4  6  1  0
  5  7  1  0
  6  8  1  0
  7  9  1  6
  7 10  1  0
  8 10  1  0
  9 11  1  0
 11 12  1  0
 12 13  1  0
 13 14  1  0
 14 15  2  0
 14 16  1  0
 15 17  1  0
 16 18  2  0
 17 19  2  0
 18 19  1  0
M  END
