x0678_0-x0755_0
     RDKit          3D

 19 20  0  0  0  0  0  0  0  0999 V2000
    6.5760   -4.4990   20.6230 C   0  0  0  0  0  0  0  0  0  0  0  0
    7.6830   -3.5400   20.1290 C   0  0  0  0  0  0  0  0  0  0  0  0
    5.5400   -4.6600   19.9570 O   0  0  0  0  0  0  0  0  0  0  0  0
    6.6820   -5.2300   21.8160 N   0  0  0  0  0  0  0  0  0  0  0  0
    7.5080   -4.8210   22.8660 C   0  0  2  0  0  0  0  0  0  0  0  0
    5.7070   -6.2570   22.1760 C   0  0  0  0  0  0  0  0  0  0  0  0
    6.7090   -4.4440   24.1300 C   0  0  0  0  0  0  0  0  0  0  0  0
    4.7860   -5.7230   23.2800 C   0  0  0  0  0  0  0  0  0  0  0  0
    8.4480   -3.6480   22.5200 C   0  0  0  0  0  0  0  0  0  0  0  0
    5.5430   -5.2850   24.4580 N   0  0  0  0  0  0  0  0  0  0  0  0
    7.7680   -2.2730   22.4940 C   0  0  0  0  0  0  0  0  0  0  0  0
    8.4520   -1.2390   21.5200 C   0  0  0  0  0  0  0  0  0  0  0  0
    7.7000    0.0200   21.5040 N   0  0  0  0  0  0  0  0  0  0  0  0
    6.8530    0.3930   20.3660 C   0  0  0  0  0  0  0  0  0  0  0  0
    7.1680   -0.2090   19.1560 C   0  0  0  0  0  0  0  0  0  0  0  0
    5.7770    1.2890   20.3940 C   0  0  0  0  0  0  0  0  0  0  0  0
    6.5130    0.0200   17.9920 N   0  0  0  0  0  0  0  0  0  0  0  0
    5.0530    1.5760   19.2610 C   0  0  0  0  0  0  0  0  0  0  0  0
    5.3880    0.9780   18.0800 C   0  0  0  0  0  0  0  0  0  0  0  0
  1  2  1  0
  1  3  2  0
  1  4  1  0
  4  5  1  0
  4  6  1  0
  5  7  1  0
  6  8  1  0
  5  9  1  6
  7 10  1  0
  8 10  1  0
  9 11  1  0
 11 12  1  0
 12 13  1  0
 13 14  1  0
 14 15  2  0
 14 16  1  0
 15 17  1  0
 16 18  2  0
 17 19  2  0
 18 19  1  0
M  END
