x0678_0-x1458_1
     RDKit          3D

 20 21  0  0  0  0  0  0  0  0999 V2000
    6.0110   -3.5140   25.3970 C   0  0  0  0  0  0  0  0  0  0  0  0
    6.6900   -4.0470   24.1450 C   0  0  1  0  0  0  0  0  0  0  0  0
    5.7990   -4.9690   23.3500 C   0  0  0  0  0  0  0  0  0  0  0  0
    4.8010   -3.4160   25.5220 O   0  0  0  0  0  0  0  0  0  0  0  0
    7.2810   -2.8760   23.3580 C   0  0  2  0  0  0  0  0  0  0  0  0
    6.2420   -1.7440   23.1020 C   0  0  0  0  0  0  0  0  0  0  0  0
    7.8250   -3.4390   22.0660 C   0  0  0  0  0  0  0  0  0  0  0  0
    6.5260   -5.4450   22.2570 C   0  0  0  0  0  0  0  0  0  0  0  0
    6.9210   -0.5570   22.7480 C   0  0  0  0  0  0  0  0  0  0  0  0
    6.8840   -4.3870   21.4810 N   0  0  0  0  0  0  0  0  0  0  0  0
    6.3500   -4.1090   20.2280 C   0  0  0  0  0  0  0  0  0  0  0  0
    7.4330   -0.6360   21.3780 N   0  0  0  0  0  0  0  0  0  0  0  0
    5.2650   -4.5600   19.8950 O   0  0  0  0  0  0  0  0  0  0  0  0
    7.1920   -3.2740   19.2620 C   0  0  0  0  0  0  0  0  0  0  0  0
    6.7900   -0.0430   20.2810 C   0  0  0  0  0  0  0  0  0  0  0  0
    7.1280   -0.2120   18.9340 C   0  0  0  0  0  0  0  0  0  0  0  0
    5.7000    0.8000   20.4910 C   0  0  0  0  0  0  0  0  0  0  0  0
    6.5030    0.3690   17.8670 N   0  0  0  0  0  0  0  0  0  0  0  0
    5.0460    1.3950   19.4180 C   0  0  0  0  0  0  0  0  0  0  0  0
    5.4600    1.1700   18.1220 C   0  0  0  0  0  0  0  0  0  0  0  0
  2  1  1  1
  2  3  1  0
  1  4  2  0
  2  5  1  0
  5  6  1  6
  5  7  1  0
  3  8  1  0
  6  9  1  0
  7 10  1  0
  8 10  1  0
 10 11  1  0
  9 12  1  0
 11 13  2  0
 11 14  1  0
 12 15  1  0
 15 16  2  0
 15 17  1  0
 16 18  1  0
 17 19  2  0
 18 20  2  0
 19 20  1  0
M  END
