x0678_0-x1380_1
     RDKit          3D

 19 20  0  0  0  0  0  0  0  0999 V2000
    5.8720   -3.1540   25.4830 C   0  0  0  0  0  0  0  0  0  0  0  0
    6.5000   -4.0400   24.4430 C   0  0  2  0  0  0  0  0  0  0  0  0
    7.6360   -3.2790   23.7420 C   0  0  0  0  0  0  0  0  0  0  0  0
    4.6990   -2.8160   25.5180 O   0  0  0  0  0  0  0  0  0  0  0  0
    5.5830   -4.7350   23.4900 C   0  0  0  0  0  0  0  0  0  0  0  0
    6.2340   -5.3680   22.2810 C   0  0  0  0  0  0  0  0  0  0  0  0
    7.3160   -3.2350   22.2220 C   0  0  2  0  0  0  0  0  0  0  0  0
    6.4320   -2.0140   21.9890 C   0  0  0  0  0  0  0  0  0  0  0  0
    6.7940   -4.2640   21.5200 N   0  0  0  0  0  0  0  0  0  0  0  0
    6.3080   -4.0430   20.2520 C   0  0  0  0  0  0  0  0  0  0  0  0
    7.2210   -0.9310   21.3490 N   0  0  0  0  0  0  0  0  0  0  0  0
    7.1790   -3.2800   19.2930 C   0  0  0  0  0  0  0  0  0  0  0  0
    5.2340   -4.5030   19.8760 O   0  0  0  0  0  0  0  0  0  0  0  0
    6.5350   -0.1270   20.3470 C   0  0  0  0  0  0  0  0  0  0  0  0
    7.1670   -0.3060   18.9500 C   0  0  0  0  0  0  0  0  0  0  0  0
    5.3470    0.7780   20.5860 C   0  0  0  0  0  0  0  0  0  0  0  0
    6.6300    0.3910   17.9000 N   0  0  0  0  0  0  0  0  0  0  0  0
    4.8300    1.4890   19.3720 C   0  0  0  0  0  0  0  0  0  0  0  0
    5.4790    1.2900   18.0340 C   0  0  0  0  0  0  0  0  0  0  0  0
  2  1  1  6
  2  3  1  0
  1  4  2  0
  2  5  1  0
  5  6  1  0
  3  7  1  0
  7  8  1  1
  6  9  1  0
  7  9  1  0
  9 10  1  0
  8 11  1  0
 10 12  1  0
 10 13  2  0
 11 14  1  0
 14 15  2  0
 14 16  1  0
 15 17  1  0
 16 18  2  0
 17 19  2  0
 18 19  1  0
M  END
