x0689_0-x0692_1
     RDKit          3D

 20 21  0  0  0  0  0  0  0  0999 V2000
    6.3030   -3.2310   19.8300 C   0  0  0  0  0  0  0  0  0  0  0  0
    7.3010   -2.9890   18.7190 C   0  0  0  0  0  0  0  0  0  0  0  0
    5.3450   -3.9940   19.6470 O   0  0  0  0  0  0  0  0  0  0  0  0
    6.5450   -2.6030   21.0540 N   0  0  0  0  0  0  0  0  0  0  0  0
    7.4300   -1.4320   21.0190 C   0  0  0  0  0  0  0  0  0  0  0  0
    6.4630   -3.3760   22.2970 C   0  0  2  0  0  0  0  0  0  0  0  0
    5.0380   -3.3950   22.7970 C   0  0  0  0  0  0  0  0  0  0  0  0
    8.6230   -1.6710   21.6960 C   0  0  0  0  0  0  0  0  0  0  0  0
    7.5420   -3.0980   23.3720 C   0  0  0  0  0  0  0  0  0  0  0  0
    4.3680   -4.7570   23.0320 C   0  0  0  0  0  0  0  0  0  0  0  0
    8.4100   -1.9410   23.1250 N   0  0  0  0  0  0  0  0  0  0  0  0
    5.0650   -5.6390   24.0790 C   0  0  0  0  0  0  0  0  0  0  0  0
    4.5470   -5.2880   25.7390 S   0  0  0  0  0  0  0  0  0  0  0  0
    3.8660   -6.5910   26.3670 O   0  0  0  0  0  0  0  0  0  0  0  0
    5.7800   -4.8020   26.6440 O   0  0  0  0  0  0  0  0  0  0  0  0
    3.3410   -3.9830   25.6820 C   0  0  0  0  0  0  0  0  0  0  0  0
    3.8630   -2.3770   26.0490 S   0  0  0  0  0  0  0  0  0  0  0  0
    1.9920   -4.0340   25.3870 C   0  0  0  0  0  0  0  0  0  0  0  0
    2.3120   -1.6740   25.8420 C   0  0  0  0  0  0  0  0  0  0  0  0
    1.3940   -2.6430   25.4900 C   0  0  0  0  0  0  0  0  0  0  0  0
  1  2  1  0
  1  3  2  0
  1  4  1  0
  4  5  1  0
  4  6  1  0
  6  7  1  1
  5  8  1  0
  6  9  1  0
  7 10  1  0
  8 11  1  0
  9 11  1  0
 10 12  1  0
 13 12  1  0
 13 14  2  0
 13 15  2  0
 13 16  1  0
 16 17  1  0
 16 18  2  0
 17 19  1  0
 18 20  1  0
 19 20  2  0
M  END
