x0689_0-x1412_1-x0434_2-x0981_1-x0831_0
     RDKit          3D

 43 46  0  0  0  0  0  0  0  0999 V2000
    4.4290   -6.0360   23.4970 C   0  0  0  0  0  0  0  0  0  0  0  0
    2.8910   -6.1020   23.4710 C   0  0  1  0  0  0  0  0  0  0  0  0
    2.5390   -7.1920   22.5620 N   0  0  0  0  0  0  0  0  0  0  0  0
    5.0970   -4.8200   24.1360 C   0  0  0  0  0  0  0  0  0  0  0  0
    2.2600   -6.5420   24.7650 C   0  0  1  0  0  0  0  0  0  0  0  0
    5.3700   -4.7830   25.3520 O   0  0  0  0  0  0  0  0  0  0  0  0
    5.4630   -3.6750   23.1850 C   0  0  0  0  0  0  0  0  0  0  0  0
    1.2710   -7.4070   22.0990 C   0  0  0  0  0  0  0  0  0  0  0  0
    3.0010   -7.7290   25.3670 C   0  0  0  0  0  0  0  0  0  0  0  0
    6.5940   -3.8790   22.3570 C   0  0  1  0  0  0  0  0  0  0  0  0
    1.7860   -5.5160   25.8100 C   0  0  0  0  0  0  0  0  0  0  0  0
    1.0900   -8.7170   21.3810 C   0  0  0  0  0  0  0  0  0  0  0  0
    0.3640   -6.5960   22.2330 O   0  0  0  0  0  0  0  0  0  0  0  0
    2.3340   -8.1900   26.6000 N   0  0  0  0  0  0  0  0  0  0  0  0
    3.9870   -8.2100   24.8640 O   0  0  0  0  0  0  0  0  0  0  0  0
    6.6300   -2.9740   21.3580 N   0  0  0  0  0  0  0  0  0  0  0  0
    7.9680   -3.9470   23.0560 C   0  0  0  0  0  0  0  0  0  0  0  0
    2.2730   -4.1970   25.7900 C   0  0  0  0  0  0  0  0  0  0  0  0
    6.3670   -3.4110   20.0420 C   0  0  0  0  0  0  0  0  0  0  0  0
    8.6350   -2.6910   23.4570 N   0  0  0  0  0  0  0  0  0  0  0  0
    6.9720   -1.7200   21.7370 C   0  0  2  0  0  0  0  0  0  0  0  0
    3.6660   -3.7120   25.9940 C   0  0  0  0  0  0  0  0  0  0  0  0
    1.4950   -3.0900   25.5890 C   0  0  0  0  0  0  0  0  0  0  0  0
    7.3260   -3.0290   18.9310 C   0  0  0  0  0  0  0  0  0  0  0  0
    5.4030   -4.1480   19.7700 O   0  0  0  0  0  0  0  0  0  0  0  0
   10.1130   -2.7370   23.6110 C   0  0  0  0  0  0  0  0  0  0  0  0
    7.3830   -0.9460   20.6190 N   0  0  0  0  0  0  0  0  0  0  0  0
    8.1920   -1.5730   22.7130 C   0  0  0  0  0  0  0  0  0  0  0  0
    3.8920   -2.0350   25.9250 S   0  0  0  0  0  0  0  0  0  0  0  0
    2.2370   -1.7870   25.6370 C   0  0  0  0  0  0  0  0  0  0  0  0
   10.7340   -1.3400   23.6330 C   0  0  0  0  0  0  0  0  0  0  0  0
    6.5510   -0.1790   19.9370 C   0  0  0  0  0  0  0  0  0  0  0  0
   10.2140   -0.1800   24.2870 C   0  0  0  0  0  0  0  0  0  0  0  0
   12.0830   -1.0330   22.8750 C   0  0  0  0  0  0  0  0  0  0  0  0
    6.9660    0.1650   18.5210 C   0  0  0  0  0  0  0  0  0  0  0  0
    5.2360    0.4510   20.2660 C   0  0  0  0  0  0  0  0  0  0  0  0
   12.9600   -2.0060   22.0310 C   0  0  0  0  0  0  0  0  0  0  0  0
   10.7720    1.0960   24.2930 C   0  0  0  0  0  0  0  0  0  0  0  0
   12.6380    0.3490   22.9260 C   0  0  0  0  0  0  0  0  0  0  0  0
    6.2970    0.9280   17.6400 N   0  0  0  0  0  0  0  0  0  0  0  0
    4.5970    1.2370   19.2780 C   0  0  0  0  0  0  0  0  0  0  0  0
   12.0320    1.3710   23.5860 C   0  0  0  0  0  0  0  0  0  0  0  0
    5.1280    1.4370   18.0640 C   0  0  0  0  0  0  0  0  0  0  0  0
  2  1  1  1
  2  3  1  0
  1  4  1  0
  2  5  1  0
  4  6  2  0
  4  7  1  0
  3  8  1  0
  5  9  1  0
 10  7  1  1
  5 11  1  1
  8 12  1  0
  8 13  2  0
  9 14  1  0
  9 15  2  0
 10 16  1  0
 10 17  1  0
 11 18  1  0
 16 19  1  0
 17 20  1  0
 16 21  1  0
 18 22  2  0
 18 23  1  0
 19 24  1  0
 19 25  2  0
 20 26  1  0
 21 27  1  6
 20 28  1  0
 21 28  1  0
 22 29  1  0
 23 30  2  0
 29 30  1  0
 26 31  1  0
 27 32  1  0
 31 33  2  0
 31 34  1  0
 32 35  2  0
 32 36  1  0
 34 37  1  0
 33 38  1  0
 34 39  2  0
 35 40  1  0
 36 41  2  0
 38 42  2  0
 39 42  1  0
 40 43  2  0
 41 43  1  0
M  END
