x0689_1-x1412_0
     RDKit          3D

 17 18  0  0  0  0  0  0  0  0999 V2000
    6.3820   -4.3820   20.5610 C   0  0  0  0  0  0  0  0  0  0  0  0
    7.3710   -3.3860   19.9460 C   0  0  0  0  0  0  0  0  0  0  0  0
    5.3450   -4.6100   19.9370 O   0  0  0  0  0  0  0  0  0  0  0  0
    6.6090   -5.0890   21.7720 N   0  0  0  0  0  0  0  0  0  0  0  0
    5.7380   -6.2350   22.0670 C   0  0  0  0  0  0  0  0  0  0  0  0
    7.2480   -4.6130   23.0280 C   0  0  1  0  0  0  0  0  0  0  0  0
    8.1270   -3.3440   22.9270 C   0  0  0  0  0  0  0  0  0  0  0  0
    4.6840   -5.9200   22.9170 C   0  0  0  0  0  0  0  0  0  0  0  0
    6.1190   -4.3060   24.0100 C   0  0  0  0  0  0  0  0  0  0  0  0
    8.3740   -2.8940   24.2650 C   0  0  0  0  0  0  0  0  0  0  0  0
    5.1560   -5.4180   24.2040 N   0  0  0  0  0  0  0  0  0  0  0  0
    8.4080   -1.6820   24.5010 O   0  0  0  0  0  0  0  0  0  0  0  0
    8.5760   -3.9330   25.3590 C   0  0  0  0  0  0  0  0  0  0  0  0
    9.3650   -5.0670   25.2850 C   0  0  0  0  0  0  0  0  0  0  0  0
    7.7910   -3.8770   27.0160 S   0  0  0  0  0  0  0  0  0  0  0  0
    9.3560   -5.8360   26.4310 C   0  0  0  0  0  0  0  0  0  0  0  0
    8.5650   -5.3480   27.4670 C   0  0  0  0  0  0  0  0  0  0  0  0
  1  2  1  0
  1  3  2  0
  1  4  1  0
  4  5  1  0
  4  6  1  0
  6  7  1  6
  5  8  1  0
  6  9  1  0
  7 10  1  0
  8 11  1  0
  9 11  1  0
 10 12  2  0
 10 13  1  0
 13 14  2  0
 13 15  1  0
 14 16  1  0
 15 17  1  0
 16 17  2  0
M  END
