x0689_0-x0434_2
     RDKit          3D

 20 21  0  0  0  0  0  0  0  0999 V2000
    4.7120   -5.0820   25.5300 S   0  0  0  0  0  0  0  0  0  0  0  0
    5.3190   -5.1530   23.9100 C   0  0  0  0  0  0  0  0  0  0  0  0
    6.5360   -4.3780   23.6240 C   0  0  0  0  0  0  0  0  0  0  0  0
    4.1850   -6.3970   25.8240 O   0  0  0  0  0  0  0  0  0  0  0  0
    5.7700   -4.5500   26.3630 O   0  0  0  0  0  0  0  0  0  0  0  0
    3.5110   -3.9170   25.5420 C   0  0  0  0  0  0  0  0  0  0  0  0
    3.9620   -2.2730   25.9260 S   0  0  0  0  0  0  0  0  0  0  0  0
    2.0280   -4.0030   25.2800 C   0  0  0  0  0  0  0  0  0  0  0  0
    7.2540   -3.4640   23.3090 C   0  0  0  0  0  0  0  0  0  0  0  0
    2.3680   -1.6230   25.7880 C   0  0  0  0  0  0  0  0  0  0  0  0
    1.3610   -2.6780   25.4220 C   0  0  0  0  0  0  0  0  0  0  0  0
    6.7670   -2.4430   22.4730 C   0  0  0  0  0  0  0  0  0  0  0  0
    7.6110   -1.3630   22.1820 C   0  0  0  0  0  0  0  0  0  0  0  0
    7.7050   -1.0720   20.7390 N   0  0  0  0  0  0  0  0  0  0  0  0
    6.7310   -0.2400   20.0150 C   0  0  0  0  0  0  0  0  0  0  0  0
    7.0160   -0.0470   18.6800 C   0  0  0  0  0  0  0  0  0  0  0  0
    5.5290    0.4330   20.3640 C   0  0  0  0  0  0  0  0  0  0  0  0
    6.3280    0.7000   17.6550 N   0  0  0  0  0  0  0  0  0  0  0  0
    4.6640    1.2720   19.3960 C   0  0  0  0  0  0  0  0  0  0  0  0
    5.1220    1.3610   18.0980 C   0  0  0  0  0  0  0  0  0  0  0  0
  1  2  1  0
  2  3  1  0
  1  4  2  0
  1  5  2  0
  1  6  1  0
  6  7  1  0
  6  8  2  0
  3  9  1  0
  7 10  1  0
  8 11  1  0
 10 11  2  0
  9 12  1  0
 12 13  1  0
 13 14  1  0
 14 15  1  0
 15 16  2  0
 15 17  1  0
 16 18  1  0
 17 19  2  0
 18 20  2  0
 19 20  1  0
M  END
