x0689_1-x0749_0
     RDKit          3D

 19 21  0  0  0  0  0  0  0  0999 V2000
    6.5830   -4.4660   20.6760 C   0  0  0  0  0  0  0  0  0  0  0  0
    7.9050   -3.7250   20.4050 C   0  0  0  0  0  0  0  0  0  0  0  0
    5.6120   -4.4030   19.9050 O   0  0  0  0  0  0  0  0  0  0  0  0
    6.5070   -5.2370   21.8480 N   0  0  0  0  0  0  0  0  0  0  0  0
    5.5790   -6.3440   22.0110 C   0  0  0  0  0  0  0  0  0  0  0  0
    7.1180   -4.7850   23.1170 C   0  0  1  0  0  0  0  0  0  0  0  0
    7.9360   -3.4910   23.0340 C   0  0  0  0  0  0  0  0  0  0  0  0
    4.4620   -5.9760   23.0350 C   0  0  0  0  0  0  0  0  0  0  0  0
    6.0820   -4.5610   24.2310 C   0  0  0  0  0  0  0  0  0  0  0  0
    5.0490   -5.6130   24.3330 N   0  0  0  0  0  0  0  0  0  0  0  0
    9.2630   -3.3860   23.7220 C   0  0  0  0  0  0  0  0  0  0  0  0
    9.8830   -2.2680   23.2890 N   0  0  0  0  0  0  0  0  0  0  0  0
   10.0330   -4.4050   24.8830 S   0  0  0  0  0  0  0  0  0  0  0  0
   11.0710   -2.1890   23.8890 C   0  0  0  0  0  0  0  0  0  0  0  0
   11.3610   -3.3080   24.8370 C   0  0  0  0  0  0  0  0  0  0  0  0
   11.9770   -1.1840   23.6770 C   0  0  0  0  0  0  0  0  0  0  0  0
   12.5900   -3.2750   25.4830 C   0  0  0  0  0  0  0  0  0  0  0  0
   13.1680   -1.2090   24.3410 C   0  0  0  0  0  0  0  0  0  0  0  0
   13.4540   -2.2380   25.2220 C   0  0  0  0  0  0  0  0  0  0  0  0
  1  2  1  0
  1  3  2  0
  1  4  1  0
  4  5  1  0
  4  6  1  0
  6  7  1  6
  5  8  1  0
  6  9  1  0
  8 10  1  0
  9 10  1  0
  7 11  1  0
 11 12  2  0
 11 13  1  0
 12 14  1  0
 13 15  1  0
 14 15  2  0
 14 16  1  0
 15 17  1  0
 16 18  2  0
 17 19  2  0
 18 19  1  0
M  END
