x0689_0-x1412_1
     RDKit          3D

 19 20  0  0  0  0  0  0  0  0999 V2000
    6.3770   -3.4320   19.9870 C   0  0  0  0  0  0  0  0  0  0  0  0
    7.3150   -3.0230   18.8590 C   0  0  0  0  0  0  0  0  0  0  0  0
    5.4070   -4.1540   19.7550 O   0  0  0  0  0  0  0  0  0  0  0  0
    6.6690   -3.0100   21.2820 N   0  0  0  0  0  0  0  0  0  0  0  0
    7.5610   -1.8540   21.4490 C   0  0  0  0  0  0  0  0  0  0  0  0
    6.6270   -4.0260   22.2410 C   0  0  2  0  0  0  0  0  0  0  0  0
    5.3090   -3.9740   23.0630 C   0  0  0  0  0  0  0  0  0  0  0  0
    8.7080   -2.1750   22.1650 C   0  0  0  0  0  0  0  0  0  0  0  0
    7.7870   -4.1110   23.2310 C   0  0  0  0  0  0  0  0  0  0  0  0
    5.0990   -5.3090   23.7940 C   0  0  0  0  0  0  0  0  0  0  0  0
    8.4270   -2.8170   23.4540 N   0  0  0  0  0  0  0  0  0  0  0  0
    4.6180   -5.1270   25.5070 S   0  0  0  0  0  0  0  0  0  0  0  0
    3.9400   -6.3320   25.9210 O   0  0  0  0  0  0  0  0  0  0  0  0
    5.7140   -4.5980   26.2940 O   0  0  0  0  0  0  0  0  0  0  0  0
    3.4050   -3.9470   25.5550 C   0  0  0  0  0  0  0  0  0  0  0  0
    3.8810   -2.3350   25.9800 S   0  0  0  0  0  0  0  0  0  0  0  0
    2.0330   -4.0390   25.3070 C   0  0  0  0  0  0  0  0  0  0  0  0
    2.3090   -1.6020   25.8800 C   0  0  0  0  0  0  0  0  0  0  0  0
    1.3440   -2.6960   25.4860 C   0  0  0  0  0  0  0  0  0  0  0  0
  1  2  1  0
  1  3  2  0
  1  4  1  0
  4  5  1  0
  4  6  1  0
  6  7  1  1
  5  8  1  0
  6  9  1  0
  7 10  1  0
  8 11  1  0
  9 11  1  0
 12 10  1  0
 12 13  2  0
 12 14  2  0
 12 15  1  0
 15 16  1  0
 15 17  2  0
 16 18  1  0
 17 19  1  0
 18 19  2  0
M  END
