x0689_0-x0759_1
     RDKit          3D

 19 20  0  0  0  0  0  0  0  0999 V2000
    6.3550   -3.5530   20.0960 C   0  0  0  0  0  0  0  0  0  0  0  0
    7.2680   -3.0550   18.9920 C   0  0  0  0  0  0  0  0  0  0  0  0
    5.3900   -4.2720   19.8240 O   0  0  0  0  0  0  0  0  0  0  0  0
    6.6750   -3.2270   21.4200 N   0  0  0  0  0  0  0  0  0  0  0  0
    7.4770   -2.0040   21.7060 C   0  0  0  0  0  0  0  0  0  0  0  0
    6.4650   -4.2780   22.4280 C   0  0  2  0  0  0  0  0  0  0  0  0
    5.0890   -4.1750   23.0100 C   0  0  0  0  0  0  0  0  0  0  0  0
    8.4350   -2.1520   22.7130 C   0  0  0  0  0  0  0  0  0  0  0  0
    7.4590   -4.2100   23.4530 C   0  0  0  0  0  0  0  0  0  0  0  0
    4.7650   -5.4270   23.8370 C   0  0  0  0  0  0  0  0  0  0  0  0
    8.6480   -3.5090   23.0930 O   0  0  0  0  0  0  0  0  0  0  0  0
    4.4800   -5.1380   25.5180 S   0  0  0  0  0  0  0  0  0  0  0  0
    3.8340   -6.3170   26.0380 O   0  0  0  0  0  0  0  0  0  0  0  0
    5.6830   -4.6370   26.1530 O   0  0  0  0  0  0  0  0  0  0  0  0
    3.3390   -3.8910   25.5700 C   0  0  0  0  0  0  0  0  0  0  0  0
    3.8950   -2.3130   25.9410 S   0  0  0  0  0  0  0  0  0  0  0  0
    1.9700   -3.9040   25.3600 C   0  0  0  0  0  0  0  0  0  0  0  0
    2.3000   -1.7170   25.8110 C   0  0  0  0  0  0  0  0  0  0  0  0
    1.3760   -2.6420   25.5030 C   0  0  0  0  0  0  0  0  0  0  0  0
  1  2  1  0
  1  3  2  0
  1  4  1  0
  4  5  1  0
  4  6  1  0
  6  7  1  1
  5  8  1  0
  6  9  1  0
  7 10  1  0
  8 11  1  0
  9 11  1  0
 12 10  1  0
 12 13  2  0
 12 14  2  0
 12 15  1  0
 15 16  1  0
 15 17  2  0
 16 18  1  0
 17 19  1  0
 18 19  2  0
M  END
