x0689_0-x0820_0
     RDKit          3D

 15 15  0  0  0  0  0  0  0  0999 V2000
    7.0070   -4.8030   21.7170 N   0  0  0  0  0  0  0  0  0  0  0  0
    6.4270   -4.5140   20.4850 C   0  0  0  0  0  0  0  0  0  0  0  0
    5.4510   -5.1310   20.0530 O   0  0  0  0  0  0  0  0  0  0  0  0
    6.4160   -3.7420   22.3400 C   0  0  0  0  0  0  0  0  0  0  0  0
    7.0730   -3.4520   19.6170 C   0  0  0  0  0  0  0  0  0  0  0  0
    5.1670   -4.1630   23.1320 C   0  0  0  0  0  0  0  0  0  0  0  0
    5.3690   -5.2840   24.1600 C   0  0  0  0  0  0  0  0  0  0  0  0
    4.6490   -5.1450   25.7100 S   0  0  0  0  0  0  0  0  0  0  0  0
    3.9710   -6.4020   25.9750 O   0  0  0  0  0  0  0  0  0  0  0  0
    5.6480   -4.6300   26.6300 O   0  0  0  0  0  0  0  0  0  0  0  0
    3.3840   -3.8770   25.6240 C   0  0  0  0  0  0  0  0  0  0  0  0
    3.8890   -2.2560   25.9850 S   0  0  0  0  0  0  0  0  0  0  0  0
    2.0280   -3.9530   25.3100 C   0  0  0  0  0  0  0  0  0  0  0  0
    2.3280   -1.6740   25.7330 C   0  0  0  0  0  0  0  0  0  0  0  0
    1.4790   -2.7070   25.3880 C   0  0  0  0  0  0  0  0  0  0  0  0
  1  2  1  0
  2  3  2  0
  1  4  1  0
  2  5  1  0
  4  6  1  0
  6  7  1  0
  8  7  1  0
  8  9  2  0
  8 10  2  0
  8 11  1  0
 11 12  1  0
 11 13  2  0
 12 14  1  0
 13 15  1  0
 14 15  2  0
M  END
