x0689_0-x0981_1-x0434_2-x1412_1-x0831_0
     RDKit          3D

 43 46  0  0  0  0  0  0  0  0999 V2000
    4.6260   -5.7820   23.1620 C   0  0  0  0  0  0  0  0  0  0  0  0
    3.1530   -6.1320   23.4420 C   0  0  1  0  0  0  0  0  0  0  0  0
    2.6930   -7.3420   22.7590 N   0  0  0  0  0  0  0  0  0  0  0  0
    5.3600   -4.8210   24.1250 C   0  0  0  0  0  0  0  0  0  0  0  0
    2.8940   -6.2680   24.9160 C   0  0  2  0  0  0  0  0  0  0  0  0
    5.3520   -4.9910   25.3940 O   0  0  0  0  0  0  0  0  0  0  0  0
    6.0330   -3.8040   23.5720 C   0  0  0  0  0  0  0  0  0  0  0  0
    1.3650   -7.4290   22.1500 C   0  0  0  0  0  0  0  0  0  0  0  0
    2.7810   -7.6940   25.3570 C   0  0  0  0  0  0  0  0  0  0  0  0
    6.8680   -4.0680   22.4710 C   0  0  1  0  0  0  0  0  0  0  0  0
    1.8220   -5.3270   25.4250 C   0  0  0  0  0  0  0  0  0  0  0  0
    1.1780   -8.7420   21.3480 C   0  0  0  0  0  0  0  0  0  0  0  0
    0.5030   -6.5620   22.2410 O   0  0  0  0  0  0  0  0  0  0  0  0
    1.9570   -7.9880   26.5570 N   0  0  0  0  0  0  0  0  0  0  0  0
    3.3650   -8.5680   24.7390 O   0  0  0  0  0  0  0  0  0  0  0  0
    6.7020   -3.0740   21.3990 N   0  0  0  0  0  0  0  0  0  0  0  0
    8.2030   -4.0330   22.8980 C   0  0  0  0  0  0  0  0  0  0  0  0
    2.2570   -3.9040   25.6190 C   0  0  0  0  0  0  0  0  0  0  0  0
    6.4200   -3.4250   20.0540 C   0  0  0  0  0  0  0  0  0  0  0  0
    8.6400   -2.7590   23.5030 N   0  0  0  0  0  0  0  0  0  0  0  0
    7.0670   -1.6860   21.7910 C   0  0  2  0  0  0  0  0  0  0  0  0
    3.4980   -3.3790   25.8200 C   0  0  0  0  0  0  0  0  0  0  0  0
    1.3460   -2.9170   25.6100 C   0  0  0  0  0  0  0  0  0  0  0  0
    7.3830   -3.0270   18.9430 C   0  0  0  0  0  0  0  0  0  0  0  0
    5.4300   -4.1180   19.7750 O   0  0  0  0  0  0  0  0  0  0  0  0
   10.1240   -2.7500   23.6030 C   0  0  0  0  0  0  0  0  0  0  0  0
    7.4670   -1.0190   20.5820 N   0  0  0  0  0  0  0  0  0  0  0  0
    8.2270   -1.5560   22.8160 C   0  0  0  0  0  0  0  0  0  0  0  0
    3.6680   -1.6920   26.0090 S   0  0  0  0  0  0  0  0  0  0  0  0
    1.9560   -1.6570   25.8130 C   0  0  0  0  0  0  0  0  0  0  0  0
   10.7880   -1.3250   23.5920 C   0  0  0  0  0  0  0  0  0  0  0  0
    6.6750   -0.2240   19.8370 C   0  0  0  0  0  0  0  0  0  0  0  0
   10.1680   -0.2770   24.2910 C   0  0  0  0  0  0  0  0  0  0  0  0
   12.0990   -1.0010   22.8420 C   0  0  0  0  0  0  0  0  0  0  0  0
    6.9510    0.2230   18.4320 C   0  0  0  0  0  0  0  0  0  0  0  0
    5.3500    0.3840   20.2430 C   0  0  0  0  0  0  0  0  0  0  0  0
   12.9210   -2.0100   22.0130 C   0  0  0  0  0  0  0  0  0  0  0  0
   10.7050    1.0210   24.3070 C   0  0  0  0  0  0  0  0  0  0  0  0
   12.5480    0.4440   22.9690 C   0  0  0  0  0  0  0  0  0  0  0  0
    6.2670    1.0020   17.5850 N   0  0  0  0  0  0  0  0  0  0  0  0
    4.5830    1.2900   19.2070 C   0  0  0  0  0  0  0  0  0  0  0  0
   11.8690    1.4010   23.6680 C   0  0  0  0  0  0  0  0  0  0  0  0
    5.1000    1.5140   17.9980 C   0  0  0  0  0  0  0  0  0  0  0  0
  2  1  1  1
  2  3  1  0
  1  4  1  0
  2  5  1  0
  4  6  2  0
  4  7  1  0
  3  8  1  0
  5  9  1  0
 10  7  1  1
  5 11  1  6
  8 12  1  0
  8 13  2  0
  9 14  1  0
  9 15  2  0
 10 16  1  0
 10 17  1  0
 11 18  1  0
 16 19  1  0
 17 20  1  0
 16 21  1  0
 18 22  2  0
 18 23  1  0
 19 24  1  0
 19 25  2  0
 20 26  1  0
 21 27  1  6
 20 28  1  0
 21 28  1  0
 22 29  1  0
 23 30  2  0
 29 30  1  0
 26 31  1  0
 27 32  1  0
 31 33  2  0
 31 34  1  0
 32 35  2  0
 32 36  1  0
 34 37  1  0
 33 38  1  0
 34 39  2  0
 35 40  1  0
 36 41  2  0
 38 42  2  0
 39 42  1  0
 40 43  2  0
 41 43  1  0
M  END
