x0689
     RDKit          3D

 18 19  0  0  0  0  0  0  0  0999 V2000
    6.3830   -5.0550   21.6400 N   0  0  0  0  0  0  0  0  0  0  0  0
    7.6380   -3.4680   20.2090 C   0  0  0  0  0  0  0  0  0  0  0  0
    5.7020   -4.6950   19.5360 O   0  0  0  0  0  0  0  0  0  0  0  0
    6.5060   -4.4620   20.4320 C   0  0  0  0  0  0  0  0  0  0  0  0
    5.3290   -5.2600   24.2530 N   0  0  0  0  0  0  0  0  0  0  0  0
    3.8390   -6.3070   25.9200 O   0  0  0  0  0  0  0  0  0  0  0  0
    3.8660   -2.1950   25.9630 S   0  0  0  0  0  0  0  0  0  0  0  0
    7.2260   -4.7960   22.8080 C   0  0  0  0  0  0  0  0  0  0  0  0
    5.5830   -4.7160   26.6480 O   0  0  0  0  0  0  0  0  0  0  0  0
    6.3810   -4.2790   23.9410 C   0  0  0  0  0  0  0  0  0  0  0  0
    4.4830   -5.5660   23.0850 C   0  0  0  0  0  0  0  0  0  0  0  0
    5.3490   -6.0440   21.9480 C   0  0  0  0  0  0  0  0  0  0  0  0
    3.4300   -3.8080   25.5830 C   0  0  0  0  0  0  0  0  0  0  0  0
    2.1200   -3.9180   25.1860 C   0  0  0  0  0  0  0  0  0  0  0  0
    1.4720   -2.6580   25.2370 C   0  0  0  0  0  0  0  0  0  0  0  0
    2.2600   -1.6750   25.7320 C   0  0  0  0  0  0  0  0  0  0  0  0
    4.5870   -5.1100   25.7010 S   0  0  1  0  0  0  0  0  0  0  0  0
    8.3170   -3.3850   18.5250 R   0  0  0  0  0  0  0  0  0  0  0  0
  1  4  1  0
  2  4  1  0
  3  4  2  0
  1  8  1  0
  5 10  1  0
  8 10  1  0
  5 11  1  0
  1 12  1  0
 11 12  1  0
  7 13  1  0
 13 14  2  0
 14 15  1  0
  7 16  1  0
 15 16  2  0
  5 17  1  0
  6 17  2  0
  9 17  2  0
 17 13  1  6
  2 18  1  0
M  END
