x0689_0-x0749_1
     RDKit          3D

 19 20  0  0  0  0  0  0  0  0999 V2000
    6.4080   -3.8870   20.1260 C   0  0  0  0  0  0  0  0  0  0  0  0
    7.3750   -3.1780   19.1660 C   0  0  0  0  0  0  0  0  0  0  0  0
    5.2840   -4.1980   19.7380 O   0  0  0  0  0  0  0  0  0  0  0  0
    6.7870   -4.2540   21.4130 N   0  0  0  0  0  0  0  0  0  0  0  0
    7.9580   -3.6840   22.1610 C   0  0  0  0  0  0  0  0  0  0  0  0
    5.9680   -5.3420   21.9520 C   0  0  2  0  0  0  0  0  0  0  0  0
    5.0840   -4.8910   23.0780 C   0  0  0  0  0  0  0  0  0  0  0  0
    8.3760   -4.4530   23.4250 C   0  0  0  0  0  0  0  0  0  0  0  0
    7.0190   -6.3640   22.4600 C   0  0  0  0  0  0  0  0  0  0  0  0
    5.8110   -4.8460   24.4170 C   0  0  0  0  0  0  0  0  0  0  0  0
    8.0240   -5.8010   23.4830 C   0  0  0  0  0  0  0  0  0  0  0  0
    4.6910   -5.0300   25.8840 S   0  0  0  0  0  0  0  0  0  0  0  0
    4.0400   -6.3220   25.7820 O   0  0  0  0  0  0  0  0  0  0  0  0
    5.4840   -4.7100   27.0470 O   0  0  0  0  0  0  0  0  0  0  0  0
    3.4170   -3.8080   25.7540 C   0  0  0  0  0  0  0  0  0  0  0  0
    3.8430   -2.1620   26.0580 S   0  0  0  0  0  0  0  0  0  0  0  0
    1.9210   -3.9580   25.4030 C   0  0  0  0  0  0  0  0  0  0  0  0
    2.2420   -1.6540   25.7760 C   0  0  0  0  0  0  0  0  0  0  0  0
    1.4050   -2.6980   25.4570 C   0  0  0  0  0  0  0  0  0  0  0  0
  1  2  1  0
  1  3  2  0
  1  4  1  0
  4  5  1  0
  4  6  1  0
  6  7  1  1
  5  8  1  0
  6  9  1  0
  7 10  1  0
  8 11  1  0
  9 11  1  0
 12 10  1  0
 12 13  2  0
 12 14  2  0
 12 15  1  0
 15 16  1  0
 15 17  2  0
 16 18  1  0
 17 19  1  0
 18 19  2  0
M  END
