x0689_0-x1386_1
     RDKit          3D

 20 21  0  0  0  0  0  0  0  0999 V2000
    6.4530   -3.1120   19.7700 C   0  0  0  0  0  0  0  0  0  0  0  0
    7.4650   -2.9760   18.6760 C   0  0  0  0  0  0  0  0  0  0  0  0
    5.4810   -3.8820   19.6320 O   0  0  0  0  0  0  0  0  0  0  0  0
    6.7030   -2.3600   20.9270 N   0  0  0  0  0  0  0  0  0  0  0  0
    7.7280   -1.3110   20.9010 C   0  0  0  0  0  0  0  0  0  0  0  0
    6.4070   -2.8060   22.2690 C   0  0  1  0  0  0  0  0  0  0  0  0
    5.3950   -3.8890   22.1130 C   0  0  0  0  0  0  0  0  0  0  0  0
    8.9700   -1.6920   21.7470 C   0  0  0  0  0  0  0  0  0  0  0  0
    7.5330   -3.2120   23.0020 C   0  0  0  0  0  0  0  0  0  0  0  0
    4.4770   -4.2060   23.2930 C   0  0  0  0  0  0  0  0  0  0  0  0
    8.6200   -2.2060   23.0830 N   0  0  0  0  0  0  0  0  0  0  0  0
    5.2220   -5.2310   24.1390 C   0  0  0  0  0  0  0  0  0  0  0  0
    4.6280   -5.1950   25.8070 S   0  0  0  0  0  0  0  0  0  0  0  0
    3.9820   -6.4670   26.0210 O   0  0  0  0  0  0  0  0  0  0  0  0
    5.6750   -4.6620   26.6500 O   0  0  0  0  0  0  0  0  0  0  0  0
    3.3800   -3.9430   25.7450 C   0  0  0  0  0  0  0  0  0  0  0  0
    3.8390   -2.2970   26.1160 S   0  0  0  0  0  0  0  0  0  0  0  0
    1.9320   -3.9990   25.4210 C   0  0  0  0  0  0  0  0  0  0  0  0
    2.2550   -1.6480   25.8870 C   0  0  0  0  0  0  0  0  0  0  0  0
    1.3560   -2.6180   25.5300 C   0  0  0  0  0  0  0  0  0  0  0  0
  1  2  1  0
  1  3  2  0
  1  4  1  0
  4  5  1  0
  4  6  1  0
  6  7  1  6
  5  8  1  0
  6  9  1  0
  7 10  1  0
  8 11  1  0
  9 11  1  0
 10 12  1  0
 13 12  1  0
 13 14  2  0
 13 15  2  0
 13 16  1  0
 16 17  1  0
 16 18  2  0
 17 19  1  0
 18 20  1  0
 19 20  2  0
M  END
