x0689_0-x0691_0
     RDKit          3D

 17 18  0  0  0  0  0  0  0  0999 V2000
    6.2940   -4.5790   20.5870 C   0  0  0  0  0  0  0  0  0  0  0  0
    7.2300   -3.5010   20.0600 C   0  0  0  0  0  0  0  0  0  0  0  0
    5.2850   -4.8440   19.9670 O   0  0  0  0  0  0  0  0  0  0  0  0
    6.6000   -5.2730   21.7600 N   0  0  0  0  0  0  0  0  0  0  0  0
    5.7420   -6.2760   22.1720 C   0  0  0  0  0  0  0  0  0  0  0  0
    7.3190   -4.7820   22.8290 C   0  0  0  0  0  0  0  0  0  0  0  0
    4.7780   -5.7740   23.0920 C   0  0  0  0  0  0  0  0  0  0  0  0
    6.4210   -4.2310   23.9300 C   0  0  0  0  0  0  0  0  0  0  0  0
    5.4810   -5.3000   24.2850 N   0  0  0  0  0  0  0  0  0  0  0  0
    4.6570   -5.2040   25.7430 S   0  0  0  0  0  0  0  0  0  0  0  0
    3.9300   -6.4410   25.9450 O   0  0  0  0  0  0  0  0  0  0  0  0
    5.6400   -4.7650   26.7110 O   0  0  0  0  0  0  0  0  0  0  0  0
    3.4300   -3.9210   25.6800 C   0  0  0  0  0  0  0  0  0  0  0  0
    3.8980   -2.2990   26.0270 S   0  0  0  0  0  0  0  0  0  0  0  0
    1.9600   -3.9370   25.3740 C   0  0  0  0  0  0  0  0  0  0  0  0
    2.2920   -1.7430   25.7880 C   0  0  0  0  0  0  0  0  0  0  0  0
    1.4010   -2.6870   25.4570 C   0  0  0  0  0  0  0  0  0  0  0  0
  1  2  1  0
  1  3  2  0
  1  4  1  0
  4  5  1  0
  4  6  1  0
  5  7  1  0
  6  8  1  0
  7  9  1  0
  8  9  1  0
  9 10  1  0
 10 11  2  0
 10 12  2  0
 10 13  1  0
 13 14  1  0
 13 15  2  0
 14 16  1  0
 15 17  1  0
 16 17  2  0
M  END
