x0689_0-x0731_0
     RDKit          3D

 17 18  0  0  0  0  0  0  0  0999 V2000
    6.2720   -4.5920   20.5040 C   0  0  0  0  0  0  0  0  0  0  0  0
    6.9160   -3.4540   19.7140 C   0  0  0  0  0  0  0  0  0  0  0  0
    5.3100   -5.1460   20.0030 O   0  0  0  0  0  0  0  0  0  0  0  0
    6.7500   -5.0910   21.7210 N   0  0  0  0  0  0  0  0  0  0  0  0
    7.2950   -4.2300   22.6570 C   0  0  0  0  0  0  0  0  0  0  0  0
    6.2500   -6.3570   22.2570 C   0  0  0  0  0  0  0  0  0  0  0  0
    6.3620   -3.9800   23.8620 C   0  0  0  0  0  0  0  0  0  0  0  0
    5.2090   -6.0850   23.3420 C   0  0  0  0  0  0  0  0  0  0  0  0
    5.7510   -5.2140   24.3850 N   0  0  0  0  0  0  0  0  0  0  0  0
    4.8320   -5.0900   25.8220 S   0  0  0  0  0  0  0  0  0  0  0  0
    4.1090   -6.3380   25.9880 O   0  0  0  0  0  0  0  0  0  0  0  0
    5.7300   -4.6250   26.8540 O   0  0  0  0  0  0  0  0  0  0  0  0
    3.5280   -3.8840   25.6800 C   0  0  0  0  0  0  0  0  0  0  0  0
    3.9770   -2.2360   26.0250 S   0  0  0  0  0  0  0  0  0  0  0  0
    2.1760   -4.0400   25.3430 C   0  0  0  0  0  0  0  0  0  0  0  0
    2.4160   -1.6640   25.7550 C   0  0  0  0  0  0  0  0  0  0  0  0
    1.5080   -2.8310   25.3710 C   0  0  0  0  0  0  0  0  0  0  0  0
  1  2  1  0
  1  3  2  0
  1  4  1  0
  4  5  1  0
  4  6  1  0
  5  7  1  0
  6  8  1  0
  7  9  1  0
  8  9  1  0
  9 10  1  0
 10 11  2  0
 10 12  2  0
 10 13  1  0
 13 14  1  0
 13 15  2  0
 14 16  1  0
 15 17  1  0
 16 17  2  0
M  END
