x0689_1-x0874_0
     RDKit          3D

 17 18  0  0  0  0  0  0  0  0999 V2000
    6.4280   -4.3640   20.6530 C   0  0  0  0  0  0  0  0  0  0  0  0
    7.7310   -3.6180   20.3950 C   0  0  0  0  0  0  0  0  0  0  0  0
    5.4750   -4.3530   19.8620 O   0  0  0  0  0  0  0  0  0  0  0  0
    6.4070   -5.0540   21.8710 N   0  0  0  0  0  0  0  0  0  0  0  0
    5.6550   -6.1620   22.1180 C   0  0  0  0  0  0  0  0  0  0  0  0
    7.0880   -4.4810   23.0640 C   0  0  1  0  0  0  0  0  0  0  0  0
    7.4200   -2.9720   22.8820 C   0  0  0  0  0  0  0  0  0  0  0  0
    4.5940   -6.0940   23.1940 C   0  0  0  0  0  0  0  0  0  0  0  0
    6.3470   -4.8600   24.3400 C   0  0  0  0  0  0  0  0  0  0  0  0
    8.8530   -2.5700   23.3210 C   0  0  0  0  0  0  0  0  0  0  0  0
    4.8900   -5.0700   24.2160 N   0  0  0  0  0  0  0  0  0  0  0  0
    9.6460   -1.8630   22.2220 C   0  0  0  0  0  0  0  0  0  0  0  0
   10.5520   -0.7320   22.6930 C   0  0  0  0  0  0  0  0  0  0  0  0
   11.6310    0.1530   23.0150 C   0  0  0  0  0  0  0  0  0  0  0  0
   11.4780   -1.6760   22.0890 C   0  0  0  0  0  0  0  0  0  0  0  0
   12.9590    0.0230   22.7800 C   0  0  0  0  0  0  0  0  0  0  0  0
   13.1960   -1.5030   21.9620 S   0  0  0  0  0  0  0  0  0  0  0  0
  1  2  1  0
  1  3  2  0
  1  4  1  0
  4  5  1  0
  4  6  1  0
  6  7  1  6
  5  8  1  0
  6  9  1  0
  7 10  1  0
  8 11  1  0
  9 11  1  0
 10 12  1  0
 12 13  1  0
 13 14  1  0
 13 15  2  0
 14 16  2  0
 15 17  1  0
 16 17  1  0
M  END
