x0689_0-x1308_0
     RDKit          3D

 17 18  0  0  0  0  0  0  0  0999 V2000
    6.5330   -4.5080   20.6920 C   0  0  0  0  0  0  0  0  0  0  0  0
    7.7270   -3.6160   20.3560 C   0  0  0  0  0  0  0  0  0  0  0  0
    5.5350   -4.5680   19.9500 O   0  0  0  0  0  0  0  0  0  0  0  0
    6.5850   -5.2580   21.8580 N   0  0  0  0  0  0  0  0  0  0  0  0
    7.3180   -4.7660   22.9190 C   0  0  0  0  0  0  0  0  0  0  0  0
    5.7040   -6.3740   22.1770 C   0  0  0  0  0  0  0  0  0  0  0  0
    6.4140   -4.2940   24.0510 C   0  0  0  0  0  0  0  0  0  0  0  0
    4.7900   -6.0080   23.3590 C   0  0  0  0  0  0  0  0  0  0  0  0
    5.5270   -5.3840   24.4680 N   0  0  0  0  0  0  0  0  0  0  0  0
    4.6850   -5.1550   25.9250 S   0  0  0  0  0  0  0  0  0  0  0  0
    3.9260   -6.3640   26.1740 O   0  0  0  0  0  0  0  0  0  0  0  0
    5.6370   -4.6650   26.8960 O   0  0  0  0  0  0  0  0  0  0  0  0
    3.4340   -3.9060   25.7300 C   0  0  0  0  0  0  0  0  0  0  0  0
    3.9530   -2.2640   25.9980 S   0  0  0  0  0  0  0  0  0  0  0  0
    2.0790   -4.0260   25.4000 C   0  0  0  0  0  0  0  0  0  0  0  0
    2.4160   -1.6460   25.7000 C   0  0  0  0  0  0  0  0  0  0  0  0
    1.4610   -2.7940   25.3730 C   0  0  0  0  0  0  0  0  0  0  0  0
  1  2  1  0
  1  3  2  0
  1  4  1  0
  4  5  1  0
  4  6  1  0
  5  7  1  0
  6  8  1  0
  7  9  1  0
  8  9  1  0
  9 10  1  0
 10 11  2  0
 10 12  2  0
 10 13  1  0
 13 14  1  0
 13 15  2  0
 14 16  1  0
 15 17  1  0
 16 17  2  0
M  END
