x0692_1-x1334_0-x0831_0-x1334_1-x1385_1-x0434_2-x1418_1-x0397_0-x0831_1-x0770_1
     RDKit          3D

 34 38  0  0  0  0  0  0  0  0999 V2000
    6.2310   -3.2110   19.8060 C   0  0  0  0  0  0  0  0  0  0  0  0
    7.2490   -2.9570   18.7180 C   0  0  0  0  0  0  0  0  0  0  0  0
    5.2400   -3.9010   19.5630 O   0  0  0  0  0  0  0  0  0  0  0  0
    6.4840   -2.7480   21.0780 N   0  0  0  0  0  0  0  0  0  0  0  0
    7.0270   -1.4190   21.3310 C   0  0  1  0  0  0  0  0  0  0  0  0
    6.7700   -3.8230   22.0610 C   0  0  1  0  0  0  0  0  0  0  0  0
    8.2340   -1.7470   22.2360 C   0  0  0  0  0  0  0  0  0  0  0  0
    6.8930   -3.2930   23.4740 C   0  0  0  0  0  0  0  0  0  0  0  0
    5.8580   -5.0700   21.9510 C   0  0  0  0  0  0  0  0  0  0  0  0
    7.6690   -0.5250   20.2720 C   0  0  0  0  0  0  0  0  0  0  0  0
    7.9380   -2.2800   23.6000 N   0  0  0  0  0  0  0  0  0  0  0  0
    6.6840   -6.0630   22.5700 C   0  0  0  0  0  0  0  0  0  0  0  0
    5.5300   -6.1600   23.1970 C   0  0  0  0  0  0  0  0  0  0  0  0
    7.0040   -0.1110   18.9820 C   0  0  0  0  0  0  0  0  0  0  0  0
    9.0990   -2.6320   24.2350 C   0  0  2  0  0  0  0  0  0  0  0  0
    6.3180    0.3830   20.0720 C   0  0  0  0  0  0  0  0  0  0  0  0
    6.2230    0.3950   17.9690 N   0  0  0  0  0  0  0  0  0  0  0  0
   10.2580   -2.6050   23.2760 C   0  0  0  0  0  0  0  0  0  0  0  0
    9.0010   -3.8510   25.1480 C   0  0  0  0  0  0  0  0  0  0  0  0
    5.1280    1.1490   18.0010 C   0  0  0  0  0  0  0  0  0  0  0  0
    5.1660    1.1670   20.1860 C   0  0  0  0  0  0  0  0  0  0  0  0
    9.6970   -5.0670   25.2170 C   0  0  0  0  0  0  0  0  0  0  0  0
    7.7950   -3.7870   26.4260 S   0  0  0  0  0  0  0  0  0  0  0  0
   10.8810   -1.2300   23.3320 C   0  0  0  0  0  0  0  0  0  0  0  0
    4.5170    1.5880   19.0370 C   0  0  0  0  0  0  0  0  0  0  0  0
    9.2560   -5.9970   26.3400 C   0  0  0  0  0  0  0  0  0  0  0  0
    8.1180   -5.4250   27.1920 C   0  0  0  0  0  0  0  0  0  0  0  0
   10.1930   -0.0680   24.0650 C   0  0  0  0  0  0  0  0  0  0  0  0
   12.2560   -0.8870   22.6770 C   0  0  0  0  0  0  0  0  0  0  0  0
    7.2510   -6.0120   28.5370 Cl  0  0  0  0  0  0  0  0  0  0  0  0
   13.0090   -1.9320   21.9250 C   0  0  0  0  0  0  0  0  0  0  0  0
   10.7960    1.3590   24.1600 C   0  0  0  0  0  0  0  0  0  0  0  0
   12.8230    0.3660   22.7570 C   0  0  0  0  0  0  0  0  0  0  0  0
   12.1170    1.5270   23.4910 C   0  0  0  0  0  0  0  0  0  0  0  0
  1  2  1  0
  1  3  2  0
  1  4  1  0
  4  5  1  0
  4  6  1  0
  5  7  1  0
  6  8  1  0
  6  9  1  1
  5 10  1  6
  7 11  1  0
  8 11  1  0
  9 12  1  0
  9 13  1  0
 12 13  1  0
 10 14  1  0
 11 15  1  0
 14 16  2  0
 14 17  1  0
 15 18  1  6
 15 19  1  0
 17 20  2  0
 16 21  1  0
 19 22  2  0
 19 23  1  0
 18 24  1  0
 20 25  1  0
 21 25  2  0
 22 26  1  0
 23 27  1  0
 26 27  2  0
 24 28  2  0
 24 29  1  0
 27 30  1  0
 29 31  1  0
 28 32  1  0
 29 33  2  0
 32 34  2  0
 33 34  1  0
M  END
