x0692_1-x1385_1-x0397_0-x1375_1-x0770_1-x0831_1-x1412_1-x1334_0-x1418_1-x0434_2-x1374_1-x1334_1-x0831_0-x1386_1
     RDKit          3D

 38 42  0  0  0  0  0  0  0  0999 V2000
    6.3930   -3.2440   19.8300 C   0  0  0  0  0  0  0  0  0  0  0  0
    7.3310   -3.0230   18.6700 C   0  0  0  0  0  0  0  0  0  0  0  0
    5.4190   -4.0050   19.6850 O   0  0  0  0  0  0  0  0  0  0  0  0
    6.7410   -2.6020   21.0090 N   0  0  0  0  0  0  0  0  0  0  0  0
    7.7760   -1.6600   20.9580 C   0  0  2  0  0  0  0  0  0  0  0  0
    6.8760   -3.5190   22.1440 C   0  0  1  0  0  0  0  0  0  0  0  0
    8.8780   -1.7770   22.0670 C   0  0  0  0  0  0  0  0  0  0  0  0
    7.1560   -2.7410   23.4370 C   0  0  0  0  0  0  0  0  0  0  0  0
    5.7790   -4.5830   22.2800 C   0  0  2  0  0  0  0  0  0  0  0  0
    7.3310   -0.2290   20.6490 C   0  0  0  0  0  0  0  0  0  0  0  0
    8.5110   -2.2150   23.4460 N   0  0  0  0  0  0  0  0  0  0  0  0
    5.9200   -5.7030   23.2100 C   0  0  2  0  0  0  0  0  0  0  0  0
    6.0570   -6.1630   21.9230 C   0  0  0  0  0  0  0  0  0  0  0  0
    7.0320    0.1500   19.3240 C   0  0  0  0  0  0  0  0  0  0  0  0
    9.4390   -3.1850   23.8850 C   0  0  1  0  0  0  0  0  0  0  0  0
    5.9590    0.4430   20.4400 C   0  0  0  0  0  0  0  0  0  0  0  0
    6.4760    0.6250   18.1440 N   0  0  0  0  0  0  0  0  0  0  0  0
    4.6600   -5.9070   24.0060 C   0  0  0  0  0  0  0  0  0  0  0  0
   10.8590   -2.6940   24.0800 C   0  0  0  0  0  0  0  0  0  0  0  0
    9.0800   -4.0870   25.0770 C   0  0  0  0  0  0  0  0  0  0  0  0
    5.3280    1.2160   17.9070 C   0  0  0  0  0  0  0  0  0  0  0  0
    4.6230    1.1050   20.2360 C   0  0  0  0  0  0  0  0  0  0  0  0
    4.6090   -7.2150   24.5720 O   0  0  0  0  0  0  0  0  0  0  0  0
    9.7450   -5.2850   25.3310 C   0  0  0  0  0  0  0  0  0  0  0  0
    7.8850   -3.8130   26.2410 S   0  0  0  0  0  0  0  0  0  0  0  0
   11.1740   -1.2290   23.8740 C   0  0  0  0  0  0  0  0  0  0  0  0
    4.3600    1.5070   18.7840 C   0  0  0  0  0  0  0  0  0  0  0  0
    3.2740   -7.6060   24.8120 C   0  0  0  0  0  0  0  0  0  0  0  0
    9.3150   -5.9720   26.4220 C   0  0  0  0  0  0  0  0  0  0  0  0
    8.2070   -5.2610   27.1040 C   0  0  0  0  0  0  0  0  0  0  0  0
   10.4720   -0.2260   24.4650 C   0  0  0  0  0  0  0  0  0  0  0  0
   12.2190   -0.8240   23.0640 C   0  0  0  0  0  0  0  0  0  0  0  0
    2.5790   -7.7480   23.5940 O   0  0  0  0  0  0  0  0  0  0  0  0
    7.3290   -5.7070   28.4990 Cl  0  0  0  0  0  0  0  0  0  0  0  0
   13.0590   -1.8260   22.3390 C   0  0  0  0  0  0  0  0  0  0  0  0
   10.7780    1.0910   24.2800 C   0  0  0  0  0  0  0  0  0  0  0  0
   12.4990    0.5320   22.9150 C   0  0  0  0  0  0  0  0  0  0  0  0
   11.9280    1.7330   23.4180 C   0  0  0  0  0  0  0  0  0  0  0  0
  1  2  1  0
  1  3  2  0
  1  4  1  0
  4  5  1  0
  4  6  1  0
  5  7  1  0
  6  8  1  1
  6  9  1  0
  5 10  1  1
  7 11  1  0
  8 11  1  0
  9 12  1  0
  9 13  1  6
 12 13  1  0
 10 14  1  0
 11 15  1  0
 14 16  2  0
 14 17  1  0
 12 18  1  6
 15 19  1  1
 15 20  1  0
 17 21  2  0
 16 22  1  0
 18 23  1  0
 20 24  2  0
 20 25  1  0
 19 26  1  0
 21 27  1  0
 22 27  2  0
 23 28  1  0
 24 29  1  0
 25 30  1  0
 29 30  2  0
 26 31  2  0
 26 32  1  0
 28 33  1  0
 30 34  1  0
 32 35  1  0
 31 36  1  0
 32 37  2  0
 36 38  2  0
 37 38  1  0
M  END
