x0692_1-x0831_0-x1334_1-x0397_0
     RDKit          3D

 20 22  0  0  0  0  0  0  0  0999 V2000
    6.2100   -3.2880   19.8500 C   0  0  0  0  0  0  0  0  0  0  0  0
    7.2340   -2.9960   18.7700 C   0  0  0  0  0  0  0  0  0  0  0  0
    5.2430   -4.0240   19.6500 O   0  0  0  0  0  0  0  0  0  0  0  0
    6.4510   -2.7430   21.1120 N   0  0  0  0  0  0  0  0  0  0  0  0
    7.1470   -1.4430   21.1020 C   0  0  0  0  0  0  0  0  0  0  0  0
    6.8950   -3.6390   22.1960 C   0  0  1  0  0  0  0  0  0  0  0  0
    8.5600   -1.4790   21.7040 C   0  0  0  0  0  0  0  0  0  0  0  0
    7.4690   -2.8830   23.4040 C   0  0  0  0  0  0  0  0  0  0  0  0
    5.8300   -4.6230   22.5610 C   0  0  0  0  0  0  0  0  0  0  0  0
    8.6240   -2.0670   23.0380 N   0  0  0  0  0  0  0  0  0  0  0  0
    6.1230   -5.7370   23.1970 C   0  0  0  0  0  0  0  0  0  0  0  0
    5.9180   -6.1580   21.9800 C   0  0  0  0  0  0  0  0  0  0  0  0
    9.9290   -2.3200   23.5040 C   0  0  0  0  0  0  0  0  0  0  0  0
   10.7430   -1.0510   23.5020 C   0  0  0  0  0  0  0  0  0  0  0  0
   10.1940    0.0390   24.1110 C   0  0  0  0  0  0  0  0  0  0  0  0
   12.0080   -0.9650   22.8930 C   0  0  0  0  0  0  0  0  0  0  0  0
   12.6500   -2.1340   22.2090 C   0  0  0  0  0  0  0  0  0  0  0  0
   10.9080    1.3670   24.1420 C   0  0  0  0  0  0  0  0  0  0  0  0
   12.8110    0.3570   22.8870 C   0  0  0  0  0  0  0  0  0  0  0  0
   12.3210    1.5210   23.4710 C   0  0  0  0  0  0  0  0  0  0  0  0
  1  2  1  0
  1  3  2  0
  1  4  1  0
  4  5  1  0
  4  6  1  0
  5  7  1  0
  6  8  1  0
  6  9  1  1
  7 10  1  0
  8 10  1  0
  9 11  1  0
  9 12  1  0
 11 12  1  0
 10 13  1  0
 13 14  1  0
 14 15  2  0
 14 16  1  0
 16 17  1  0
 15 18  1  0
 16 19  2  0
 18 20  2  0
 19 20  1  0
M  END
