x0692_1-x0434_2-x1385_1-x1334_0-x0770_1-x1334_1-x0426_1-x0831_0-x1374_1-x0397_0-x1412_1-x1418_1-x1386_1
     RDKit          3D

 44 49  0  0  0  0  0  0  0  0999 V2000
    2.6290   -7.4190   23.2150 O   0  0  0  0  0  0  0  0  0  0  0  0
    2.9940   -7.5640   24.5720 C   0  0  0  0  0  0  0  0  0  0  0  0
    4.3960   -7.6780   24.7180 O   0  0  0  0  0  0  0  0  0  0  0  0
    4.9520   -6.4090   25.1100 C   0  0  0  0  0  0  0  0  0  0  0  0
    6.2320   -6.1370   24.3190 C   0  0  0  0  0  0  0  0  0  0  0  0
    6.0570   -6.1550   22.8250 C   0  0  2  0  0  0  0  0  0  0  0  0
    6.0700   -5.1770   21.9130 C   0  0  1  0  0  0  0  0  0  0  0  0
    4.7390   -5.9930   22.4010 C   0  0  0  0  0  0  0  0  0  0  0  0
    6.4700   -3.7690   22.3260 C   0  0  2  0  0  0  0  0  0  0  0  0
    6.2900   -2.8140   21.1860 N   0  0  0  0  0  0  0  0  0  0  0  0
    7.7640   -3.7710   22.7730 C   0  0  0  0  0  0  0  0  0  0  0  0
    6.1090   -3.4170   19.9480 C   0  0  0  0  0  0  0  0  0  0  0  0
    8.1560   -2.4960   23.3220 N   0  0  0  0  0  0  0  0  0  0  0  0
    7.2780   -1.7030   21.1710 C   0  0  1  0  0  0  0  0  0  0  0  0
    5.2220   -4.2390   19.7330 O   0  0  0  0  0  0  0  0  0  0  0  0
    7.0980   -3.0440   18.8520 C   0  0  0  0  0  0  0  0  0  0  0  0
    9.2660   -2.5740   24.2320 C   0  0  2  0  0  0  0  0  0  0  0  0
    7.0500   -0.5260   22.1360 C   0  0  0  0  0  0  0  0  0  0  0  0
    8.4150   -1.5930   22.1980 C   0  0  0  0  0  0  0  0  0  0  0  0
    5.6920    0.1170   21.8300 C   0  0  1  0  0  0  0  0  0  0  0  0
   10.5900   -2.4890   23.4800 C   0  0  0  0  0  0  0  0  0  0  0  0
    9.1030   -3.6790   25.2860 C   0  0  0  0  0  0  0  0  0  0  0  0
    5.3520    1.2840   22.7910 C   0  0  0  0  0  0  0  0  0  0  0  0
    5.6440    0.5470   20.3790 C   0  0  0  0  0  0  0  0  0  0  0  0
    9.8900   -4.7860   25.5280 C   0  0  0  0  0  0  0  0  0  0  0  0
    7.7840   -3.6370   26.4020 S   0  0  0  0  0  0  0  0  0  0  0  0
   11.1210   -1.0660   23.4610 C   0  0  0  0  0  0  0  0  0  0  0  0
    4.1310    2.1660   22.3590 C   0  0  2  0  0  0  0  0  0  0  0  0
    4.5840    1.4490   19.9490 C   0  0  0  0  0  0  0  0  0  0  0  0
    6.6430    0.1040   19.3100 C   0  0  0  0  0  0  0  0  0  0  0  0
    9.4550   -5.5600   26.5830 C   0  0  0  0  0  0  0  0  0  0  0  0
    8.2740   -5.0410   27.2100 C   0  0  0  0  0  0  0  0  0  0  0  0
   10.3430   -0.0160   23.9630 C   0  0  0  0  0  0  0  0  0  0  0  0
   12.3740   -0.7910   22.9500 C   0  0  0  0  0  0  0  0  0  0  0  0
    3.1030    2.0960   23.3960 N   0  0  0  0  0  0  0  0  0  0  0  0
    3.5900    1.8830   20.9580 C   0  0  0  0  0  0  0  0  0  0  0  0
    7.3530   -5.5750   28.5520 Cl  0  0  0  0  0  0  0  0  0  0  0  0
   13.2040   -1.8860   22.3890 C   0  0  0  0  0  0  0  0  0  0  0  0
    4.5830    1.8720   18.4970 C   0  0  0  0  0  0  0  0  0  0  0  0
    6.5830    0.5070   18.0330 N   0  0  0  0  0  0  0  0  0  0  0  0
   10.8410    1.2940   23.9620 C   0  0  0  0  0  0  0  0  0  0  0  0
   12.8960    0.4870   22.9350 C   0  0  0  0  0  0  0  0  0  0  0  0
    5.6090    1.3490   17.6600 C   0  0  0  0  0  0  0  0  0  0  0  0
   12.1300    1.5180   23.4400 C   0  0  0  0  0  0  0  0  0  0  0  0
  1  2  1  0
  2  3  1  0
  3  4  1  0
  4  5  1  0
  6  5  1  1
  6  7  1  0
  6  8  1  0
  7  8  1  1
  7  9  1  0
  9 10  1  0
  9 11  1  6
 10 12  1  0
 11 13  1  0
 10 14  1  0
 12 15  2  0
 12 16  1  0
 13 17  1  0
 14 18  1  1
 13 19  1  0
 14 19  1  0
 20 18  1  1
 17 21  1  6
 17 22  1  0
 20 23  1  0
 20 24  1  0
 22 25  2  0
 22 26  1  0
 21 27  1  0
 23 28  1  0
 24 29  2  0
 24 30  1  0
 25 31  1  0
 26 32  1  0
 31 32  2  0
 27 33  2  0
 27 34  1  0
 28 35  1  1
 28 36  1  0
 29 36  1  0
 32 37  1  0
 34 38  1  0
 29 39  1  0
 30 40  2  0
 33 41  1  0
 34 42  2  0
 39 43  2  0
 40 43  1  0
 41 44  2  0
 42 44  1  0
M  END
