x0692_1-x1386_1-x1375_1-x0770_1-x1374_1-x0831_0
     RDKit          3D

 27 29  0  0  0  0  0  0  0  0999 V2000
    6.3310   -3.1170   19.7690 C   0  0  0  0  0  0  0  0  0  0  0  0
    7.3170   -2.9320   18.6480 C   0  0  0  0  0  0  0  0  0  0  0  0
    5.3620   -3.8710   19.5800 O   0  0  0  0  0  0  0  0  0  0  0  0
    6.5970   -2.4610   20.9830 N   0  0  0  0  0  0  0  0  0  0  0  0
    7.4540   -1.2500   20.9570 C   0  0  0  0  0  0  0  0  0  0  0  0
    6.5400   -3.1000   22.2770 C   0  0  1  0  0  0  0  0  0  0  0  0
    6.0440   -4.5600   22.1460 C   0  0  0  0  0  0  0  0  0  0  0  0
    8.8520   -1.5130   21.6180 C   0  0  0  0  0  0  0  0  0  0  0  0
    7.8640   -3.1330   23.0630 C   0  0  0  0  0  0  0  0  0  0  0  0
    8.6930   -1.9010   23.0100 N   0  0  0  0  0  0  0  0  0  0  0  0
    4.7860   -4.7680   22.9180 C   0  0  2  0  0  0  0  0  0  0  0  0
    9.9410   -2.1680   23.5280 C   0  0  0  0  0  0  0  0  0  0  0  0
    4.5880   -4.2580   24.1990 C   0  0  0  0  0  0  0  0  0  0  0  0
    4.6660   -6.3330   23.0200 C   0  0  0  0  0  0  0  0  0  0  0  0
    4.0330   -5.0620   25.1560 C   0  0  0  0  0  0  0  0  0  0  0  0
    3.7480   -6.5370   24.4480 S   0  0  0  0  0  0  0  0  0  0  0  0
   10.8100   -0.9400   23.4940 C   0  0  0  0  0  0  0  0  0  0  0  0
    2.2450   -6.8000   24.0350 O   0  0  0  0  0  0  0  0  0  0  0  0
    4.3280   -7.7120   25.2720 O   0  0  0  0  0  0  0  0  0  0  0  0
   10.2750    0.1990   24.0970 C   0  0  0  0  0  0  0  0  0  0  0  0
   12.0630   -0.9070   22.8960 C   0  0  0  0  0  0  0  0  0  0  0  0
   12.6740   -2.1060   22.2290 C   0  0  0  0  0  0  0  0  0  0  0  0
   10.8970    1.3900   24.1440 C   0  0  0  0  0  0  0  0  0  0  0  0
   12.7950    0.2760   22.8960 C   0  0  0  0  0  0  0  0  0  0  0  0
    2.1380   -7.4210   22.7230 O   0  0  0  0  0  0  0  0  0  0  0  0
    3.4300   -8.7990   25.0930 O   0  0  0  0  0  0  0  0  0  0  0  0
   12.3010    1.4330   23.4740 C   0  0  0  0  0  0  0  0  0  0  0  0
  1  2  1  0
  1  3  2  0
  1  4  1  0
  4  5  1  0
  4  6  1  0
  6  7  1  6
  5  8  1  0
  6  9  1  0
  8 10  1  0
  9 10  1  0
 11  7  1  1
 10 12  1  0
 11 13  1  0
 11 14  1  0
 13 15  2  0
 14 16  1  0
 15 16  1  0
 12 17  1  0
 16 18  1  0
 16 19  1  0
 17 20  2  0
 17 21  1  0
 21 22  1  0
 20 23  1  0
 21 24  2  0
 18 25  1  0
 19 26  1  0
 23 27  2  0
 24 27  1  0
M  END
