x0692_1-x1385_1-x1374_1-x1334_1-x0434_2-x0831_1-x0770_1-x0397_0-x1334_0-x0831_0-x1412_1-x1386_1
     RDKit          3D

 39 43  0  0  0  0  0  0  0  0999 V2000
    6.3360   -3.2740   19.8370 C   0  0  0  0  0  0  0  0  0  0  0  0
    7.2770   -2.9950   18.6780 C   0  0  0  0  0  0  0  0  0  0  0  0
    5.4240   -4.1130   19.7520 O   0  0  0  0  0  0  0  0  0  0  0  0
    6.6430   -2.4980   20.9860 N   0  0  0  0  0  0  0  0  0  0  0  0
    7.6860   -1.4500   20.9640 C   0  0  2  0  0  0  0  0  0  0  0  0
    5.9910   -2.8600   22.2880 C   0  0  2  0  0  0  0  0  0  0  0  0
    8.6910   -1.4380   22.1300 C   0  0  0  0  0  0  0  0  0  0  0  0
    6.8120   -2.5140   23.4240 C   0  0  0  0  0  0  0  0  0  0  0  0
    5.5120   -4.3010   22.3600 C   0  0  2  0  0  0  0  0  0  0  0  0
    7.3580    0.0000   20.6850 C   0  0  0  0  0  0  0  0  0  0  0  0
    8.2850   -2.2980   23.2580 N   0  0  0  0  0  0  0  0  0  0  0  0
    6.0430   -5.2110   23.1470 C   0  0  2  0  0  0  0  0  0  0  0  0
    6.3090   -5.6800   21.8250 C   0  0  0  0  0  0  0  0  0  0  0  0
    7.0260    0.3230   19.2620 C   0  0  0  0  0  0  0  0  0  0  0  0
    9.2050   -3.3790   23.5740 C   0  0  1  0  0  0  0  0  0  0  0  0
    6.0060    0.5570   20.2460 C   0  0  0  0  0  0  0  0  0  0  0  0
    6.3960    0.7300   18.0920 N   0  0  0  0  0  0  0  0  0  0  0  0
    5.1760   -5.8690   24.1810 C   0  0  0  0  0  0  0  0  0  0  0  0
   10.6130   -2.8710   23.3050 C   0  0  0  0  0  0  0  0  0  0  0  0
    8.9980   -4.2060   24.8540 C   0  0  0  0  0  0  0  0  0  0  0  0
    5.1790    1.2440   17.8220 C   0  0  0  0  0  0  0  0  0  0  0  0
    4.7250    1.0510   20.1540 C   0  0  0  0  0  0  0  0  0  0  0  0
    4.6710   -7.0660   23.7260 C   0  0  0  0  0  0  0  0  0  0  0  0
    9.6980   -5.3540   25.2090 C   0  0  0  0  0  0  0  0  0  0  0  0
    7.8290   -3.8620   26.0970 S   0  0  0  0  0  0  0  0  0  0  0  0
   10.9910   -1.3740   23.4440 C   0  0  0  0  0  0  0  0  0  0  0  0
    4.2380    1.4230   18.9600 C   0  0  0  0  0  0  0  0  0  0  0  0
    4.1530   -7.8920   24.7700 O   0  0  0  0  0  0  0  0  0  0  0  0
    9.2600   -5.8620   26.3860 C   0  0  0  0  0  0  0  0  0  0  0  0
    8.2490   -5.2260   27.0470 C   0  0  0  0  0  0  0  0  0  0  0  0
   10.1450   -0.4190   24.2730 C   0  0  0  0  0  0  0  0  0  0  0  0
   12.1400   -0.8600   22.8190 C   0  0  0  0  0  0  0  0  0  0  0  0
    2.7560   -7.7370   24.9300 C   0  0  0  0  0  0  0  0  0  0  0  0
    7.4660   -5.6040   28.5140 Cl  0  0  0  0  0  0  0  0  0  0  0  0
   12.9860   -1.7800   21.9950 C   0  0  0  0  0  0  0  0  0  0  0  0
   10.5640    0.8930   24.3550 C   0  0  0  0  0  0  0  0  0  0  0  0
   12.5330    0.4820   22.9380 C   0  0  0  0  0  0  0  0  0  0  0  0
    2.2530   -7.0410   23.8080 O   0  0  0  0  0  0  0  0  0  0  0  0
   11.7320    1.3450   23.7060 C   0  0  0  0  0  0  0  0  0  0  0  0
  1  2  1  0
  1  3  2  0
  1  4  1  0
  4  5  1  0
  4  6  1  0
  5  7  1  0
  6  8  1  1
  6  9  1  0
  5 10  1  1
  7 11  1  0
  8 11  1  0
  9 12  1  0
  9 13  1  6
 12 13  1  0
 10 14  1  0
 11 15  1  0
 14 16  2  0
 14 17  1  0
 12 18  1  1
 15 19  1  1
 15 20  1  0
 17 21  2  0
 16 22  1  0
 18 23  1  0
 20 24  2  0
 20 25  1  0
 19 26  1  0
 21 27  1  0
 22 27  2  0
 23 28  1  0
 24 29  1  0
 25 30  1  0
 29 30  2  0
 26 31  2  0
 26 32  1  0
 28 33  1  0
 30 34  1  0
 32 35  1  0
 31 36  1  0
 32 37  2  0
 33 38  1  0
 36 39  2  0
 37 39  1  0
M  END
