x0692_1-x1334_0-x1334_1-x1418_1-x1374_1-x0831_0-x0434_2-x0770_1-x1386_1-x1385_1-x1412_1-x0426_1-x0397_0-x1375_1
     RDKit          3D

 44 49  0  0  0  0  0  0  0  0999 V2000
    2.2340   -6.5810   24.0570 O   0  0  0  0  0  0  0  0  0  0  0  0
    2.5930   -7.9430   24.0210 C   0  0  0  0  0  0  0  0  0  0  0  0
    3.7990   -8.1460   24.7580 O   0  0  0  0  0  0  0  0  0  0  0  0
    4.8550   -7.2080   24.5340 C   0  0  0  0  0  0  0  0  0  0  0  0
    4.4910   -6.4160   23.4700 C   0  0  0  0  0  0  0  0  0  0  0  0
    5.6660   -5.6370   22.9510 C   0  0  2  0  0  0  0  0  0  0  0  0
    5.4320   -4.5160   22.2790 C   0  0  2  0  0  0  0  0  0  0  0  0
    6.0320   -5.8840   21.5820 C   0  0  0  0  0  0  0  0  0  0  0  0
    6.3030   -3.2970   22.3380 C   0  0  2  0  0  0  0  0  0  0  0  0
    6.3740   -2.5890   21.0530 N   0  0  0  0  0  0  0  0  0  0  0  0
    7.6050   -3.6340   22.6550 C   0  0  0  0  0  0  0  0  0  0  0  0
    6.2080   -3.3580   19.8970 C   0  0  0  0  0  0  0  0  0  0  0  0
    8.3280   -2.4870   23.0950 N   0  0  0  0  0  0  0  0  0  0  0  0
    7.5330   -1.6420   20.9460 C   0  0  1  0  0  0  0  0  0  0  0  0
    5.3490   -4.2330   19.7600 O   0  0  0  0  0  0  0  0  0  0  0  0
    7.2100   -3.0660   18.7870 C   0  0  0  0  0  0  0  0  0  0  0  0
    9.2650   -2.6060   24.1570 C   0  0  2  0  0  0  0  0  0  0  0  0
    7.3340   -0.4230   21.8820 C   0  0  0  0  0  0  0  0  0  0  0  0
    8.6290   -1.5880   22.0030 C   0  0  0  0  0  0  0  0  0  0  0  0
    5.9100    0.1290   21.8030 C   0  0  1  0  0  0  0  0  0  0  0  0
   10.6470   -2.5080   23.5710 C   0  0  0  0  0  0  0  0  0  0  0  0
    9.1420   -3.7060   25.0930 C   0  0  0  0  0  0  0  0  0  0  0  0
    5.6080    1.2690   22.7660 C   0  0  0  0  0  0  0  0  0  0  0  0
    5.6930    0.5850   20.3550 C   0  0  0  0  0  0  0  0  0  0  0  0
    9.8030   -4.8990   25.3020 C   0  0  0  0  0  0  0  0  0  0  0  0
    7.8810   -3.5970   26.3320 S   0  0  0  0  0  0  0  0  0  0  0  0
   11.1640   -1.0930   23.5050 C   0  0  0  0  0  0  0  0  0  0  0  0
    4.3210    2.0870   22.4640 C   0  0  2  0  0  0  0  0  0  0  0  0
    4.6220    1.3980   20.0250 C   0  0  0  0  0  0  0  0  0  0  0  0
    6.6530    0.1760   19.1970 C   0  0  0  0  0  0  0  0  0  0  0  0
    9.3590   -5.6490   26.3770 C   0  0  0  0  0  0  0  0  0  0  0  0
    8.3070   -5.0560   27.0640 C   0  0  0  0  0  0  0  0  0  0  0  0
   10.4300    0.0030   23.9710 C   0  0  0  0  0  0  0  0  0  0  0  0
   12.4110   -0.8290   22.9670 C   0  0  0  0  0  0  0  0  0  0  0  0
    3.3840    1.9140   23.5470 N   0  0  0  0  0  0  0  0  0  0  0  0
    3.6670    1.8100   21.1010 C   0  0  0  0  0  0  0  0  0  0  0  0
    7.4350   -5.5380   28.4560 Cl  0  0  0  0  0  0  0  0  0  0  0  0
   13.2370   -1.9400   22.4250 C   0  0  0  0  0  0  0  0  0  0  0  0
    4.5510    1.7510   18.6990 C   0  0  0  0  0  0  0  0  0  0  0  0
    6.5120    0.5580   17.9260 N   0  0  0  0  0  0  0  0  0  0  0  0
   10.9340    1.2890   23.9140 C   0  0  0  0  0  0  0  0  0  0  0  0
   12.8830    0.4680   22.9290 C   0  0  0  0  0  0  0  0  0  0  0  0
    5.4460    1.3440   17.7520 C   0  0  0  0  0  0  0  0  0  0  0  0
   12.1410    1.5540   23.4090 C   0  0  0  0  0  0  0  0  0  0  0  0
  1  2  1  0
  2  3  1  0
  3  4  1  0
  4  5  1  0
  6  5  1  6
  6  7  1  0
  6  8  1  0
  7  8  1  6
  7  9  1  0
  9 10  1  0
  9 11  1  6
 10 12  1  0
 11 13  1  0
 10 14  1  0
 12 15  2  0
 12 16  1  0
 13 17  1  0
 14 18  1  1
 13 19  1  0
 14 19  1  0
 20 18  1  6
 17 21  1  6
 17 22  1  0
 20 23  1  0
 20 24  1  0
 22 25  2  0
 22 26  1  0
 21 27  1  0
 23 28  1  0
 24 29  2  0
 24 30  1  0
 25 31  1  0
 26 32  1  0
 31 32  2  0
 27 33  2  0
 27 34  1  0
 28 35  1  1
 28 36  1  0
 29 36  1  0
 32 37  1  0
 34 38  1  0
 29 39  1  0
 30 40  2  0
 33 41  1  0
 34 42  2  0
 39 43  2  0
 40 43  1  0
 41 44  2  0
 42 44  1  0
M  END
