x0692_1-x0831_0-x1334_1-x0540_3
     RDKit          3D

 23 24  0  0  0  0  0  0  0  0999 V2000
    6.2150   -3.2430   19.9010 C   0  0  0  0  0  0  0  0  0  0  0  0
    7.1910   -2.9670   18.7640 C   0  0  0  0  0  0  0  0  0  0  0  0
    5.3910   -4.1580   19.7540 O   0  0  0  0  0  0  0  0  0  0  0  0
    6.2910   -2.4760   21.0750 N   0  0  0  0  0  0  0  0  0  0  0  0
    7.2010   -1.3050   21.0500 C   0  0  1  0  0  0  0  0  0  0  0  0
    6.2910   -3.0530   22.4380 C   0  0  0  0  0  0  0  0  0  0  0  0
    6.6370   -0.0670   21.7660 C   0  0  0  0  0  0  0  0  0  0  0  0
    8.5760   -1.6410   21.6830 C   0  0  0  0  0  0  0  0  0  0  0  0
    7.5850   -3.3370   22.9350 C   0  0  0  0  0  0  0  0  0  0  0  0
    5.1100    0.0990   21.7550 C   0  0  0  0  0  0  0  0  0  0  0  0
    8.4830   -2.1680   22.9650 N   0  0  0  0  0  0  0  0  0  0  0  0
    4.6590    1.5610   21.5960 C   0  0  0  0  0  0  0  0  0  0  0  0
    9.8580   -2.3940   23.4800 C   0  0  0  0  0  0  0  0  0  0  0  0
    4.3830    2.2710   22.8740 N   0  0  0  0  0  0  0  0  0  0  0  0
   10.6840   -1.1250   23.4800 C   0  0  0  0  0  0  0  0  0  0  0  0
    3.0690    2.1310   23.3760 C   0  0  0  0  0  0  0  0  0  0  0  0
   10.2250    0.0390   24.0550 C   0  0  0  0  0  0  0  0  0  0  0  0
   12.0390   -0.9910   22.8620 C   0  0  0  0  0  0  0  0  0  0  0  0
    3.0130    1.4470   24.3960 O   0  0  0  0  0  0  0  0  0  0  0  0
   12.7100   -2.1450   22.1790 C   0  0  0  0  0  0  0  0  0  0  0  0
   10.9170    1.4090   24.1190 C   0  0  0  0  0  0  0  0  0  0  0  0
   12.7880    0.2780   22.8790 C   0  0  0  0  0  0  0  0  0  0  0  0
   12.2200    1.5160   23.5140 C   0  0  0  0  0  0  0  0  0  0  0  0
  1  2  1  0
  1  3  2  0
  1  4  1  0
  4  5  1  0
  4  6  1  0
  5  7  1  1
  5  8  1  0
  6  9  1  0
  7 10  1  0
  8 11  1  0
  9 11  1  0
 10 12  1  0
 11 13  1  0
 12 14  1  0
 13 15  1  0
 14 16  1  0
 15 17  2  0
 15 18  1  0
 16 19  2  0
 18 20  1  0
 17 21  1  0
 18 22  2  0
 21 23  2  0
 22 23  1  0
M  END
