x0692_1-x0426_1-x0831_0-x1374_1-x1334_0-x1418_1-x1386_1-x0397_0-x0434_2-x0770_1-x1334_1-x1385_1-x1412_1-x0831_1
     RDKit          3D

 44 49  0  0  0  0  0  0  0  0999 V2000
    2.2330   -7.7980   23.2440 O   0  0  0  0  0  0  0  0  0  0  0  0
    2.4980   -7.9580   24.6230 C   0  0  0  0  0  0  0  0  0  0  0  0
    3.8850   -7.9450   24.8570 O   0  0  0  0  0  0  0  0  0  0  0  0
    4.5050   -7.1840   23.8290 C   0  0  0  0  0  0  0  0  0  0  0  0
    4.9540   -5.9860   24.2880 C   0  0  0  0  0  0  0  0  0  0  0  0
    6.0100   -5.5170   23.3430 C   0  0  2  0  0  0  0  0  0  0  0  0
    5.8730   -4.5810   22.4200 C   0  0  2  0  0  0  0  0  0  0  0  0
    6.1000   -6.1880   22.0830 C   0  0  0  0  0  0  0  0  0  0  0  0
    6.9080   -3.5600   22.0630 C   0  0  1  0  0  0  0  0  0  0  0  0
    6.5020   -2.6230   21.0250 N   0  0  0  0  0  0  0  0  0  0  0  0
    7.5790   -3.1060   23.1790 C   0  0  0  0  0  0  0  0  0  0  0  0
    6.2360   -3.2970   19.8350 C   0  0  0  0  0  0  0  0  0  0  0  0
    8.5200   -1.9910   22.9710 N   0  0  0  0  0  0  0  0  0  0  0  0
    7.3580   -1.5880   20.8840 C   0  0  1  0  0  0  0  0  0  0  0  0
    5.3030   -4.0870   19.6820 O   0  0  0  0  0  0  0  0  0  0  0  0
    7.2450   -3.0420   18.7210 C   0  0  0  0  0  0  0  0  0  0  0  0
    9.8890   -2.3880   23.3820 C   0  0  2  0  0  0  0  0  0  0  0  0
    7.2540   -0.5320   21.9680 C   0  0  0  0  0  0  0  0  0  0  0  0
    8.5520   -1.5480   21.5800 C   0  0  0  0  0  0  0  0  0  0  0  0
    5.9080    0.1910   21.8920 C   0  0  1  0  0  0  0  0  0  0  0  0
    9.9580   -2.7580   24.8200 C   0  0  0  0  0  0  0  0  0  0  0  0
   10.7560   -1.0930   23.3360 C   0  0  0  0  0  0  0  0  0  0  0  0
    5.6970    1.4910   22.7410 C   0  0  0  0  0  0  0  0  0  0  0  0
    5.8230    0.5450   20.3820 C   0  0  0  0  0  0  0  0  0  0  0  0
   10.1690    0.0440   23.8710 C   0  0  0  0  0  0  0  0  0  0  0  0
   12.0850   -0.9840   22.7990 C   0  0  0  0  0  0  0  0  0  0  0  0
    9.5390   -4.0380   25.5000 C   0  0  0  0  0  0  0  0  0  0  0  0
    4.4040    2.2440   22.3810 C   0  0  2  0  0  0  0  0  0  0  0  0
   12.8560   -2.0770   22.1750 C   0  0  0  0  0  0  0  0  0  0  0  0
    4.6150    1.3480   20.0430 C   0  0  0  0  0  0  0  0  0  0  0  0
    6.7430    0.1900   19.3900 C   0  0  0  0  0  0  0  0  0  0  0  0
   10.8110    1.4180   23.9530 C   0  0  0  0  0  0  0  0  0  0  0  0
   12.7350    0.4390   22.8950 C   0  0  0  0  0  0  0  0  0  0  0  0
    9.9800   -5.3380   25.5180 C   0  0  0  0  0  0  0  0  0  0  0  0
    8.1850   -3.8570   26.5650 S   0  0  0  0  0  0  0  0  0  0  0  0
    3.4910    2.1710   23.5430 N   0  0  0  0  0  0  0  0  0  0  0  0
    3.6790    1.6760   21.1520 C   0  0  0  0  0  0  0  0  0  0  0  0
    4.4370    1.7460   18.7260 C   0  0  0  0  0  0  0  0  0  0  0  0
    6.5110    0.6230   18.0130 N   0  0  0  0  0  0  0  0  0  0  0  0
   12.0620    1.6070   23.4760 C   0  0  0  0  0  0  0  0  0  0  0  0
    9.2500   -6.1030   26.4000 C   0  0  0  0  0  0  0  0  0  0  0  0
    8.2440   -5.4500   27.0550 C   0  0  0  0  0  0  0  0  0  0  0  0
    7.1340   -6.0190   28.2240 Cl  0  0  0  0  0  0  0  0  0  0  0  0
    5.3250    1.4250   17.7200 C   0  0  0  0  0  0  0  0  0  0  0  0
  1  2  1  0
  2  3  1  0
  3  4  1  0
  4  5  1  0
  6  5  1  1
  6  7  1  0
  6  8  1  0
  7  8  1  6
  7  9  1  0
  9 10  1  0
  9 11  1  1
 10 12  1  0
 11 13  1  0
 10 14  1  0
 12 15  2  0
 12 16  1  0
 13 17  1  0
 14 18  1  1
 13 19  1  0
 14 19  1  0
 20 18  1  6
 17 21  1  1
 17 22  1  0
 20 23  1  0
 20 24  1  0
 22 25  2  0
 22 26  1  0
 21 27  1  0
 23 28  1  0
 26 29  1  0
 24 30  2  0
 24 31  1  0
 25 32  1  0
 26 33  2  0
 27 34  2  0
 27 35  1  0
 28 36  1  1
 28 37  1  0
 30 37  1  0
 30 38  1  0
 31 39  2  0
 32 40  2  0
 33 40  1  0
 34 41  1  0
 35 42  1  0
 41 42  2  0
 42 43  1  0
 38 44  2  0
 39 44  1  0
M  END
