x0692_1-x0831_0-x0770_1-x1412_1-x1334_0-x1334_1-x0426_1-x1418_1-x0397_0-x1375_1-x0434_2-x1385_1
     RDKit          3D

 43 48  0  0  0  0  0  0  0  0999 V2000
    3.2560   -8.0710   24.1040 O   0  0  0  0  0  0  0  0  0  0  0  0
    3.7360   -6.7500   24.0980 C   0  0  0  0  0  0  0  0  0  0  0  0
    4.9610   -6.7050   24.8120 O   0  0  0  0  0  0  0  0  0  0  0  0
    5.8090   -5.6460   24.3310 C   0  0  0  0  0  0  0  0  0  0  0  0
    5.3910   -5.3370   22.9340 C   0  0  1  0  0  0  0  0  0  0  0  0
    5.8090   -4.6100   22.0510 C   0  0  2  0  0  0  0  0  0  0  0  0
    5.8830   -6.1780   21.8640 C   0  0  0  0  0  0  0  0  0  0  0  0
    7.0660   -3.7540   22.1000 C   0  0  1  0  0  0  0  0  0  0  0  0
    6.7480   -2.6810   21.1180 N   0  0  0  0  0  0  0  0  0  0  0  0
    7.4420   -3.2200   23.3280 C   0  0  0  0  0  0  0  0  0  0  0  0
    6.4160   -3.2580   19.8650 C   0  0  0  0  0  0  0  0  0  0  0  0
    8.4340   -2.1080   23.3980 N   0  0  0  0  0  0  0  0  0  0  0  0
    7.6930   -1.5590   21.0790 C   0  0  1  0  0  0  0  0  0  0  0  0
    5.4400   -4.0180   19.7030 O   0  0  0  0  0  0  0  0  0  0  0  0
    7.3470   -2.9710   18.7070 C   0  0  0  0  0  0  0  0  0  0  0  0
    9.8820   -2.3690   23.3300 C   0  0  2  0  0  0  0  0  0  0  0  0
    7.1900   -0.2660   21.6400 C   0  0  0  0  0  0  0  0  0  0  0  0
    8.1420   -1.0380   22.4550 C   0  0  0  0  0  0  0  0  0  0  0  0
    5.6850   -0.0900   21.6450 C   0  0  1  0  0  0  0  0  0  0  0  0
   10.4570   -3.3130   24.3840 C   0  0  0  0  0  0  0  0  0  0  0  0
   10.6990   -1.0450   23.3460 C   0  0  0  0  0  0  0  0  0  0  0  0
    5.1190    0.8580   22.6660 C   0  0  0  0  0  0  0  0  0  0  0  0
    5.5200    0.4770   20.2620 C   0  0  0  0  0  0  0  0  0  0  0  0
   10.1710    0.2240   23.9190 C   0  0  0  0  0  0  0  0  0  0  0  0
   12.0120   -0.9340   22.8260 C   0  0  0  0  0  0  0  0  0  0  0  0
    9.6450   -4.1690   25.3160 C   0  0  0  0  0  0  0  0  0  0  0  0
    3.7070    1.3980   22.3910 C   0  0  1  0  0  0  0  0  0  0  0  0
   12.7490   -2.0620   22.1910 C   0  0  0  0  0  0  0  0  0  0  0  0
    4.4030    1.4430   19.9510 C   0  0  0  0  0  0  0  0  0  0  0  0
    6.4860    0.1080   19.1050 C   0  0  0  0  0  0  0  0  0  0  0  0
   10.7460    1.4250   24.0150 C   0  0  0  0  0  0  0  0  0  0  0  0
   12.6510    0.2950   22.9050 C   0  0  0  0  0  0  0  0  0  0  0  0
    9.9410   -5.4670   25.6120 C   0  0  0  0  0  0  0  0  0  0  0  0
    8.2430   -3.6980   26.1970 S   0  0  0  0  0  0  0  0  0  0  0  0
    3.4260    2.4630   23.3390 N   0  0  0  0  0  0  0  0  0  0  0  0
    3.3980    1.8800   20.9680 C   0  0  0  0  0  0  0  0  0  0  0  0
    4.5050    1.8160   18.6170 C   0  0  0  0  0  0  0  0  0  0  0  0
    6.4230    0.5720   17.8610 N   0  0  0  0  0  0  0  0  0  0  0  0
   12.1500    1.5860   23.4740 C   0  0  0  0  0  0  0  0  0  0  0  0
    9.1320   -6.0930   26.5140 C   0  0  0  0  0  0  0  0  0  0  0  0
    8.1340   -5.3080   26.9840 C   0  0  0  0  0  0  0  0  0  0  0  0
    6.9290   -5.6940   28.1340 Cl  0  0  0  0  0  0  0  0  0  0  0  0
    5.4140    1.4230   17.6830 C   0  0  0  0  0  0  0  0  0  0  0  0
  1  2  1  0
  2  3  1  0
  3  4  1  0
  5  4  1  1
  5  6  1  0
  5  7  1  0
  6  7  1  6
  6  8  1  0
  8  9  1  0
  8 10  1  1
  9 11  1  0
 10 12  1  0
  9 13  1  0
 11 14  2  0
 11 15  1  0
 12 16  1  0
 13 17  1  1
 12 18  1  0
 13 18  1  0
 19 17  1  1
 16 20  1  1
 16 21  1  0
 19 22  1  0
 19 23  1  0
 21 24  2  0
 21 25  1  0
 20 26  1  0
 22 27  1  0
 25 28  1  0
 23 29  2  0
 23 30  1  0
 24 31  1  0
 25 32  2  0
 26 33  2  0
 26 34  1  0
 27 35  1  1
 27 36  1  0
 29 36  1  0
 29 37  1  0
 30 38  2  0
 31 39  2  0
 32 39  1  0
 33 40  1  0
 34 41  1  0
 40 41  2  0
 41 42  1  0
 37 43  2  0
 38 43  1  0
M  END
