x0692_1-x1334_0-x1385_1-x1334_1-x0831_1-x0397_0-x0434_2-x0831_0-x0770_1-x1418_1
     RDKit          3D

 34 38  0  0  0  0  0  0  0  0999 V2000
    6.1660   -3.2140   19.8570 C   0  0  0  0  0  0  0  0  0  0  0  0
    7.2120   -2.9490   18.7740 C   0  0  0  0  0  0  0  0  0  0  0  0
    5.2490   -3.9980   19.6070 O   0  0  0  0  0  0  0  0  0  0  0  0
    6.2560   -2.6280   21.1300 N   0  0  0  0  0  0  0  0  0  0  0  0
    7.2290   -1.5180   21.3890 C   0  0  1  0  0  0  0  0  0  0  0  0
    6.0180   -3.4010   22.3430 C   0  0  2  0  0  0  0  0  0  0  0  0
    8.5580   -2.0030   22.0970 C   0  0  0  0  0  0  0  0  0  0  0  0
    6.8320   -2.8240   23.4940 C   0  0  0  0  0  0  0  0  0  0  0  0
    6.3920   -4.8540   22.1460 C   0  0  0  0  0  0  0  0  0  0  0  0
    7.6690   -0.5770   20.2730 C   0  0  0  0  0  0  0  0  0  0  0  0
    8.2760   -2.9290   23.1780 N   0  0  0  0  0  0  0  0  0  0  0  0
    6.3530   -5.6930   23.0710 C   0  0  0  0  0  0  0  0  0  0  0  0
    5.3720   -6.0320   22.0480 C   0  0  0  0  0  0  0  0  0  0  0  0
    6.9980   -0.2480   19.0740 C   0  0  0  0  0  0  0  0  0  0  0  0
    9.0840   -2.7890   24.2620 C   0  0  2  0  0  0  0  0  0  0  0  0
    6.3120    0.4290   20.2790 C   0  0  0  0  0  0  0  0  0  0  0  0
    6.1800    0.2210   18.0510 N   0  0  0  0  0  0  0  0  0  0  0  0
   10.5420   -2.6750   23.7770 C   0  0  0  0  0  0  0  0  0  0  0  0
    8.8570   -3.8640   25.3180 C   0  0  0  0  0  0  0  0  0  0  0  0
    5.1100    1.0270   18.0390 C   0  0  0  0  0  0  0  0  0  0  0  0
    5.2020    1.2610   20.3270 C   0  0  0  0  0  0  0  0  0  0  0  0
    9.6520   -5.0300   25.4010 C   0  0  0  0  0  0  0  0  0  0  0  0
    7.6550   -3.8510   26.5390 S   0  0  0  0  0  0  0  0  0  0  0  0
   11.0350   -1.2500   23.7000 C   0  0  0  0  0  0  0  0  0  0  0  0
    4.5920    1.5630   19.1620 C   0  0  0  0  0  0  0  0  0  0  0  0
    9.2710   -5.8690   26.4330 C   0  0  0  0  0  0  0  0  0  0  0  0
    8.2320   -5.4280   27.1580 C   0  0  0  0  0  0  0  0  0  0  0  0
   10.4120    0.0180   24.3150 C   0  0  0  0  0  0  0  0  0  0  0  0
   12.3240   -0.8830   22.9230 C   0  0  0  0  0  0  0  0  0  0  0  0
    7.4200   -6.0990   28.4950 Cl  0  0  0  0  0  0  0  0  0  0  0  0
   13.1110   -1.9390   22.2180 C   0  0  0  0  0  0  0  0  0  0  0  0
   10.9210    1.3030   24.1940 C   0  0  0  0  0  0  0  0  0  0  0  0
   12.7770    0.5840   22.8870 C   0  0  0  0  0  0  0  0  0  0  0  0
   12.0780    1.6020   23.5030 C   0  0  0  0  0  0  0  0  0  0  0  0
  1  2  1  0
  1  3  2  0
  1  4  1  0
  4  5  1  0
  4  6  1  0
  5  7  1  0
  6  8  1  0
  6  9  1  6
  5 10  1  6
  7 11  1  0
  8 11  1  0
  9 12  1  0
  9 13  1  0
 12 13  1  0
 10 14  1  0
 11 15  1  0
 14 16  2  0
 14 17  1  0
 15 18  1  6
 15 19  1  0
 17 20  2  0
 16 21  1  0
 19 22  2  0
 19 23  1  0
 18 24  1  0
 20 25  1  0
 21 25  2  0
 22 26  1  0
 23 27  1  0
 26 27  2  0
 24 28  2  0
 24 29  1  0
 27 30  1  0
 29 31  1  0
 28 32  1  0
 29 33  2  0
 32 34  2  0
 33 34  1  0
M  END
