x0691_0-x1412_0-x1386_0
     RDKit          3D

 23 25  0  0  0  0  0  0  0  0999 V2000
    6.5970   -4.3380   20.6760 C   0  0  0  0  0  0  0  0  0  0  0  0
    7.9950   -3.7380   20.4400 C   0  0  0  0  0  0  0  0  0  0  0  0
    5.6480   -4.2780   19.8730 O   0  0  0  0  0  0  0  0  0  0  0  0
    6.4210   -5.0130   21.8970 N   0  0  0  0  0  0  0  0  0  0  0  0
    5.6410   -6.2240   22.0110 C   0  0  0  0  0  0  0  0  0  0  0  0
    7.1660   -4.6740   23.1390 C   0  0  1  0  0  0  0  0  0  0  0  0
    7.6780   -3.2000   23.2000 C   0  0  0  0  0  0  0  0  0  0  0  0
    4.5330   -6.0700   23.1070 C   0  0  0  0  0  0  0  0  0  0  0  0
    6.3070   -4.8210   24.3720 C   0  0  0  0  0  0  0  0  0  0  0  0
    8.7160   -2.8480   24.3110 C   0  0  2  0  0  0  0  0  0  0  0  0
    5.1590   -5.7740   24.4170 N   0  0  0  0  0  0  0  0  0  0  0  0
    8.4550   -1.7190   24.7440 O   0  0  0  0  0  0  0  0  0  0  0  0
   10.1660   -2.9100   23.7250 C   0  0  0  0  0  0  0  0  0  0  0  0
    8.7220   -3.8700   25.4750 C   0  0  0  0  0  0  0  0  0  0  0  0
    9.4820   -5.0050   25.4250 C   0  0  0  0  0  0  0  0  0  0  0  0
    7.8480   -3.8330   27.0010 S   0  0  0  0  0  0  0  0  0  0  0  0
   11.0410   -1.6730   23.6040 C   0  0  0  0  0  0  0  0  0  0  0  0
    9.3980   -5.8290   26.5280 C   0  0  0  0  0  0  0  0  0  0  0  0
    8.5260   -5.3290   27.5190 C   0  0  0  0  0  0  0  0  0  0  0  0
   12.1840   -1.5390   22.7180 C   0  0  0  0  0  0  0  0  0  0  0  0
   10.8940   -0.4760   24.3170 C   0  0  0  0  0  0  0  0  0  0  0  0
   12.8770   -0.2400   22.7810 C   0  0  0  0  0  0  0  0  0  0  0  0
   12.0750    0.7290   23.9160 S   0  0  0  0  0  0  0  0  0  0  0  0
  1  2  1  0
  1  3  2  0
  1  4  1  0
  4  5  1  0
  4  6  1  0
  6  7  1  6
  5  8  1  0
  6  9  1  0
  7 10  1  0
  8 11  1  0
  9 11  1  0
 10 12  1  1
 10 13  1  0
 10 14  1  0
 14 15  2  0
 14 16  1  0
 13 17  1  0
 15 18  1  0
 16 19  1  0
 18 19  2  0
 17 20  1  0
 17 21  2  0
 20 22  2  0
 21 23  1  0
 22 23  1  0
M  END
