x0692_1-x0831_1-x0397_0-x1334_0-x1412_1-x0831_0
     RDKit          3D

 27 30  0  0  0  0  0  0  0  0999 V2000
    6.2360   -3.2280   19.8400 C   0  0  0  0  0  0  0  0  0  0  0  0
    7.2340   -2.9750   18.7330 C   0  0  0  0  0  0  0  0  0  0  0  0
    5.3160   -4.0410   19.6670 O   0  0  0  0  0  0  0  0  0  0  0  0
    6.4220   -2.5550   21.0330 N   0  0  0  0  0  0  0  0  0  0  0  0
    7.2970   -1.3810   21.1460 C   0  0  0  0  0  0  0  0  0  0  0  0
    6.6530   -3.4590   22.1440 C   0  0  1  0  0  0  0  0  0  0  0  0
    8.5070   -1.5890   22.0740 C   0  0  0  0  0  0  0  0  0  0  0  0
    6.9100   -2.7050   23.4390 C   0  0  0  0  0  0  0  0  0  0  0  0
    5.6390   -4.5680   22.3100 C   0  0  0  0  0  0  0  0  0  0  0  0
    8.2490   -2.1660   23.4340 N   0  0  0  0  0  0  0  0  0  0  0  0
    5.9890   -5.7420   23.1040 C   0  0  0  0  0  0  0  0  0  0  0  0
    5.9280   -6.0580   21.8960 C   0  0  0  0  0  0  0  0  0  0  0  0
    9.1910   -3.2690   23.5690 C   0  0  1  0  0  0  0  0  0  0  0  0
   10.5790   -2.7120   23.1850 C   0  0  0  0  0  0  0  0  0  0  0  0
    8.9820   -4.1160   24.8510 C   0  0  0  0  0  0  0  0  0  0  0  0
    9.7890   -5.3860   25.1740 C   0  0  0  0  0  0  0  0  0  0  0  0
    7.8720   -3.8580   26.0980 S   0  0  0  0  0  0  0  0  0  0  0  0
   10.8890   -1.2350   23.4070 C   0  0  0  0  0  0  0  0  0  0  0  0
    9.3030   -5.9620   26.4670 C   0  0  0  0  0  0  0  0  0  0  0  0
    8.2930   -5.2360   27.0280 C   0  0  0  0  0  0  0  0  0  0  0  0
   10.1740   -0.2820   24.1040 C   0  0  0  0  0  0  0  0  0  0  0  0
   12.2050   -0.7680   22.7590 C   0  0  0  0  0  0  0  0  0  0  0  0
    7.4650   -5.5730   28.4800 Cl  0  0  0  0  0  0  0  0  0  0  0  0
   13.0390   -1.7340   21.9800 C   0  0  0  0  0  0  0  0  0  0  0  0
   10.6080    1.1670   24.2520 C   0  0  0  0  0  0  0  0  0  0  0  0
   12.6270    0.4880   22.8710 C   0  0  0  0  0  0  0  0  0  0  0  0
   11.9310    1.5790   23.5860 C   0  0  0  0  0  0  0  0  0  0  0  0
  1  2  1  0
  1  3  2  0
  1  4  1  0
  4  5  1  0
  4  6  1  0
  5  7  1  0
  6  8  1  0
  6  9  1  1
  7 10  1  0
  8 10  1  0
  9 11  1  0
  9 12  1  0
 11 12  1  0
 10 13  1  0
 13 14  1  1
 13 15  1  0
 15 16  2  0
 15 17  1  0
 14 18  1  0
 16 19  1  0
 17 20  1  0
 19 20  2  0
 18 21  2  0
 18 22  1  0
 20 23  1  0
 22 24  1  0
 21 25  1  0
 22 26  2  0
 25 27  2  0
 26 27  1  0
M  END
