x0692_0-x1418_0-x0692_1
     RDKit          3D

 18 19  0  0  0  0  0  0  0  0999 V2000
    6.2870   -3.1850   19.8490 C   0  0  0  0  0  0  0  0  0  0  0  0
    7.3100   -2.9950   18.7540 C   0  0  0  0  0  0  0  0  0  0  0  0
    5.4260   -4.0680   19.7160 O   0  0  0  0  0  0  0  0  0  0  0  0
    6.3840   -2.3630   20.9670 N   0  0  0  0  0  0  0  0  0  0  0  0
    7.3390   -1.2270   20.8970 C   0  0  0  0  0  0  0  0  0  0  0  0
    6.2710   -2.9750   22.2950 C   0  0  0  0  0  0  0  0  0  0  0  0
    8.6190   -1.4440   21.7670 C   0  0  0  0  0  0  0  0  0  0  0  0
    7.4990   -3.2230   22.9460 C   0  0  0  0  0  0  0  0  0  0  0  0
    8.3380   -2.0170   23.0680 N   0  0  0  0  0  0  0  0  0  0  0  0
    9.4050   -2.1920   23.9150 C   0  0  1  0  0  0  0  0  0  0  0  0
    9.9330   -3.5650   23.7930 C   0  0  0  0  0  0  0  0  0  0  0  0
   10.5590   -1.2450   23.6310 C   0  0  0  0  0  0  0  0  0  0  0  0
   10.3070    0.0650   23.7890 C   0  0  0  0  0  0  0  0  0  0  0  0
   11.8290   -1.6750   23.2270 C   0  0  0  0  0  0  0  0  0  0  0  0
   11.2660    1.0370   23.5580 C   0  0  0  0  0  0  0  0  0  0  0  0
   12.8050   -0.7100   22.9960 C   0  0  0  0  0  0  0  0  0  0  0  0
   10.9450    2.4810   23.7260 C   0  0  0  0  0  0  0  0  0  0  0  0
   12.5310    0.6160   23.1570 C   0  0  0  0  0  0  0  0  0  0  0  0
  1  2  1  0
  1  3  2  0
  1  4  1  0
  4  5  1  0
  4  6  1  0
  5  7  1  0
  6  8  1  0
  7  9  1  0
  8  9  1  0
  9 10  1  0
 10 11  1  6
 10 12  1  0
 12 13  2  0
 12 14  1  0
 13 15  1  0
 14 16  2  0
 15 17  1  0
 15 18  2  0
 16 18  1  0
M  END
