x0692_1-x0831_0-x0831_1-x1412_1-x0770_1-x1385_1-x1334_0-x0397_0-x1418_1
     RDKit          3D

 27 30  0  0  0  0  0  0  0  0999 V2000
    6.1910   -3.2820   19.8830 C   0  0  0  0  0  0  0  0  0  0  0  0
    7.2010   -2.9640   18.7870 C   0  0  0  0  0  0  0  0  0  0  0  0
    5.3150   -4.1360   19.7270 O   0  0  0  0  0  0  0  0  0  0  0  0
    6.3300   -2.5770   21.0920 N   0  0  0  0  0  0  0  0  0  0  0  0
    6.9790   -1.2700   21.1690 C   0  0  0  0  0  0  0  0  0  0  0  0
    6.4030   -3.3890   22.3170 C   0  0  2  0  0  0  0  0  0  0  0  0
    8.3840   -1.2820   21.7650 C   0  0  0  0  0  0  0  0  0  0  0  0
    7.6730   -3.1900   23.2080 C   0  0  0  0  0  0  0  0  0  0  0  0
    6.4190   -4.8600   21.9550 C   0  0  0  0  0  0  0  0  0  0  0  0
    8.5040   -1.9900   23.0370 N   0  0  0  0  0  0  0  0  0  0  0  0
    6.3580   -5.8930   22.9170 C   0  0  0  0  0  0  0  0  0  0  0  0
    5.2810   -6.0100   22.2600 C   0  0  0  0  0  0  0  0  0  0  0  0
    9.9220   -2.2340   23.2150 C   0  0  2  0  0  0  0  0  0  0  0  0
   10.4670   -3.0990   24.3210 C   0  0  0  0  0  0  0  0  0  0  0  0
   10.6940   -0.9290   23.3210 C   0  0  0  0  0  0  0  0  0  0  0  0
   10.0940    0.3700   23.9160 C   0  0  0  0  0  0  0  0  0  0  0  0
   11.9910   -0.8940   22.8610 C   0  0  0  0  0  0  0  0  0  0  0  0
    9.6280   -3.9970   25.2660 C   0  0  0  0  0  0  0  0  0  0  0  0
   12.6630   -2.0890   22.2570 C   0  0  0  0  0  0  0  0  0  0  0  0
   10.8680    1.5250   23.9720 C   0  0  0  0  0  0  0  0  0  0  0  0
   12.7560    0.2710   22.9270 C   0  0  0  0  0  0  0  0  0  0  0  0
   10.0320   -5.4370   25.5790 C   0  0  0  0  0  0  0  0  0  0  0  0
    8.1800   -3.6320   26.1620 S   0  0  0  0  0  0  0  0  0  0  0  0
   12.1460    1.5170   23.5080 C   0  0  0  0  0  0  0  0  0  0  0  0
    9.1200   -5.9690   26.5000 C   0  0  0  0  0  0  0  0  0  0  0  0
    8.1090   -5.1540   26.9080 C   0  0  0  0  0  0  0  0  0  0  0  0
    6.8810   -5.5580   28.0380 Cl  0  0  0  0  0  0  0  0  0  0  0  0
  1  2  1  0
  1  3  2  0
  1  4  1  0
  4  5  1  0
  4  6  1  0
  5  7  1  0
  6  8  1  0
  6  9  1  6
  7 10  1  0
  8 10  1  0
  9 11  1  0
  9 12  1  0
 11 12  1  0
 10 13  1  0
 13 14  1  1
 13 15  1  0
 15 16  2  0
 15 17  1  0
 14 18  1  0
 17 19  1  0
 16 20  1  0
 17 21  2  0
 18 22  2  0
 18 23  1  0
 20 24  2  0
 21 24  1  0
 22 25  1  0
 23 26  1  0
 25 26  2  0
 26 27  1  0
M  END
