x0692_1-x0820_1-x1418_0-x0540_3
     RDKit          3D

 31 34  0  0  0  0  0  0  0  0999 V2000
    6.3230   -3.1290   19.7490 C   0  0  0  0  0  0  0  0  0  0  0  0
    7.3210   -2.9660   18.6310 C   0  0  0  0  0  0  0  0  0  0  0  0
    5.4520   -4.0120   19.6660 O   0  0  0  0  0  0  0  0  0  0  0  0
    6.4220   -2.3030   20.8520 N   0  0  0  0  0  0  0  0  0  0  0  0
    7.5090   -1.3300   20.8970 C   0  0  1  0  0  0  0  0  0  0  0  0
    6.0530   -2.7700   22.1710 C   0  0  0  0  0  0  0  0  0  0  0  0
    7.0710    0.1070   21.2910 C   0  0  0  0  0  0  0  0  0  0  0  0
    8.6350   -1.7680   21.8450 C   0  0  0  0  0  0  0  0  0  0  0  0
    7.1890   -3.3990   22.9640 C   0  0  1  0  0  0  0  0  0  0  0  0
    5.5720    0.3050   21.5820 C   0  0  0  0  0  0  0  0  0  0  0  0
    8.2640   -2.3680   23.1450 N   0  0  0  0  0  0  0  0  0  0  0  0
    6.5120   -3.8260   24.1290 C   0  0  0  0  0  0  0  0  0  0  0  0
    5.2380    1.2590   22.7960 C   0  0  0  0  0  0  0  0  0  0  0  0
    9.5350   -2.7400   23.8200 C   0  0  0  0  0  0  0  0  0  0  0  0
    7.0240   -4.1020   25.4000 C   0  0  0  0  0  0  0  0  0  0  0  0
    5.1180   -3.9680   23.8990 C   0  0  0  0  0  0  0  0  0  0  0  0
    4.2420    2.2670   22.4970 N   0  0  0  0  0  0  0  0  0  0  0  0
    6.1450   -4.5020   26.4170 C   0  0  0  0  0  0  0  0  0  0  0  0
    4.2670   -4.3710   24.9220 C   0  0  0  0  0  0  0  0  0  0  0  0
    8.3750   -4.0140   25.7620 C   0  0  0  0  0  0  0  0  0  0  0  0
   10.6400   -1.7180   23.6230 C   0  0  0  0  0  0  0  0  0  0  0  0
    3.0670    2.3640   23.2680 C   0  0  0  0  0  0  0  0  0  0  0  0
    4.7980   -4.6320   26.1780 C   0  0  0  0  0  0  0  0  0  0  0  0
    8.8460   -4.2940   27.0360 C   0  0  0  0  0  0  0  0  0  0  0  0
    6.6180   -4.7810   27.7140 C   0  0  0  0  0  0  0  0  0  0  0  0
   11.8000   -1.6330   22.6430 C   0  0  0  0  0  0  0  0  0  0  0  0
   10.7570   -0.3070   24.6190 S   0  0  0  0  0  0  0  0  0  0  0  0
    2.8520    1.7960   24.3310 O   0  0  0  0  0  0  0  0  0  0  0  0
    7.9670   -4.6790   28.0350 C   0  0  0  0  0  0  0  0  0  0  0  0
   12.6310   -0.4080   22.8420 C   0  0  0  0  0  0  0  0  0  0  0  0
   12.1710    0.3890   23.8710 C   0  0  0  0  0  0  0  0  0  0  0  0
  1  2  1  0
  1  3  2  0
  1  4  1  0
  4  5  1  0
  4  6  1  0
  5  7  1  1
  5  8  1  0
  6  9  1  0
  7 10  1  0
  8 11  1  0
  9 11  1  0
  9 12  1  1
 10 13  1  0
 11 14  1  0
 12 15  1  0
 12 16  2  0
 13 17  1  0
 15 18  2  0
 16 19  1  0
 15 20  1  0
 14 21  1  0
 17 22  1  0
 18 23  1  0
 19 23  2  0
 20 24  2  0
 18 25  1  0
 21 26  2  0
 21 27  1  0
 22 28  2  0
 24 29  1  0
 25 29  2  0
 26 30  1  0
 27 31  1  0
 30 31  2  0
M  END
