x0692_1-x1334_0-x0831_0-x0426_1-x1412_1-x1385_1-x1418_1-x0397_0-x1374_1-x0434_2-x0831_1-x0770_1-x1334_1
     RDKit          3D

 44 49  0  0  0  0  0  0  0  0999 V2000
    2.3670   -7.6670   23.2840 O   0  0  0  0  0  0  0  0  0  0  0  0
    2.5490   -8.1080   24.6130 C   0  0  0  0  0  0  0  0  0  0  0  0
    3.9350   -8.0530   24.8820 O   0  0  0  0  0  0  0  0  0  0  0  0
    4.3670   -6.6980   25.0020 C   0  0  0  0  0  0  0  0  0  0  0  0
    4.3090   -6.1640   23.7390 C   0  0  0  0  0  0  0  0  0  0  0  0
    5.6370   -5.7080   23.2250 C   0  0  2  0  0  0  0  0  0  0  0  0
    5.7560   -4.6510   22.2150 C   0  0  2  0  0  0  0  0  0  0  0  0
    6.0940   -6.2480   21.9750 C   0  0  0  0  0  0  0  0  0  0  0  0
    6.8680   -3.6160   22.1550 C   0  0  1  0  0  0  0  0  0  0  0  0
    6.6440   -2.6920   21.0680 N   0  0  0  0  0  0  0  0  0  0  0  0
    7.0620   -2.7910   23.4500 C   0  0  0  0  0  0  0  0  0  0  0  0
    6.3470   -3.2770   19.8490 C   0  0  0  0  0  0  0  0  0  0  0  0
    8.4060   -2.1320   23.5150 N   0  0  0  0  0  0  0  0  0  0  0  0
    7.6490   -1.6090   21.0870 C   0  0  1  0  0  0  0  0  0  0  0  0
    5.3840   -4.0390   19.6810 O   0  0  0  0  0  0  0  0  0  0  0  0
    7.2970   -3.0130   18.7160 C   0  0  0  0  0  0  0  0  0  0  0  0
    9.4110   -3.1820   23.8530 C   0  0  1  0  0  0  0  0  0  0  0  0
    7.3460   -0.3720   21.9610 C   0  0  0  0  0  0  0  0  0  0  0  0
    8.6840   -1.5200   22.2070 C   0  0  0  0  0  0  0  0  0  0  0  0
    5.9430    0.2350   21.8880 C   0  0  1  0  0  0  0  0  0  0  0  0
   10.8340   -2.6850   24.0140 C   0  0  0  0  0  0  0  0  0  0  0  0
    9.0770   -4.0750   25.0350 C   0  0  0  0  0  0  0  0  0  0  0  0
    5.5700    1.4130   22.8250 C   0  0  0  0  0  0  0  0  0  0  0  0
    5.7680    0.6300   20.4110 C   0  0  0  0  0  0  0  0  0  0  0  0
    9.7470   -5.3180   25.3250 C   0  0  0  0  0  0  0  0  0  0  0  0
    7.8250   -3.8260   26.3030 S   0  0  0  0  0  0  0  0  0  0  0  0
   11.1200   -1.2190   23.8730 C   0  0  0  0  0  0  0  0  0  0  0  0
    4.2750    2.2160   22.4590 C   0  0  2  0  0  0  0  0  0  0  0  0
    4.6900    1.4410   20.0880 C   0  0  0  0  0  0  0  0  0  0  0  0
    6.6310    0.2280   19.3580 C   0  0  0  0  0  0  0  0  0  0  0  0
    9.3440   -5.9860   26.3780 C   0  0  0  0  0  0  0  0  0  0  0  0
    8.2340   -5.2930   27.0870 C   0  0  0  0  0  0  0  0  0  0  0  0
   10.3740   -0.1610   24.4780 C   0  0  0  0  0  0  0  0  0  0  0  0
   12.2160   -0.8410   23.0880 C   0  0  0  0  0  0  0  0  0  0  0  0
    3.2290    1.9850   23.4290 N   0  0  0  0  0  0  0  0  0  0  0  0
    3.6990    1.9290   21.0670 C   0  0  0  0  0  0  0  0  0  0  0  0
    7.3910   -5.7810   28.4880 Cl  0  0  0  0  0  0  0  0  0  0  0  0
   13.0650   -1.8560   22.3840 C   0  0  0  0  0  0  0  0  0  0  0  0
    4.5400    1.8410   18.6650 C   0  0  0  0  0  0  0  0  0  0  0  0
    6.5890    0.5180   18.0290 N   0  0  0  0  0  0  0  0  0  0  0  0
   10.7190    1.1590   24.3000 C   0  0  0  0  0  0  0  0  0  0  0  0
   12.5560    0.4980   22.9310 C   0  0  0  0  0  0  0  0  0  0  0  0
    5.4860    1.3840   17.6670 C   0  0  0  0  0  0  0  0  0  0  0  0
   11.8100    1.4930   23.5330 C   0  0  0  0  0  0  0  0  0  0  0  0
  1  2  1  0
  2  3  1  0
  3  4  1  0
  4  5  1  0
  6  5  1  6
  6  7  1  0
  6  8  1  0
  7  8  1  6
  7  9  1  0
  9 10  1  0
  9 11  1  1
 10 12  1  0
 11 13  1  0
 10 14  1  0
 12 15  2  0
 12 16  1  0
 13 17  1  0
 14 18  1  1
 13 19  1  0
 14 19  1  0
 20 18  1  6
 17 21  1  1
 17 22  1  0
 20 23  1  0
 20 24  1  0
 22 25  2  0
 22 26  1  0
 21 27  1  0
 23 28  1  0
 24 29  2  0
 24 30  1  0
 25 31  1  0
 26 32  1  0
 31 32  2  0
 27 33  2  0
 27 34  1  0
 28 35  1  1
 28 36  1  0
 29 36  1  0
 32 37  1  0
 34 38  1  0
 29 39  1  0
 30 40  2  0
 33 41  1  0
 34 42  2  0
 39 43  2  0
 40 43  1  0
 41 44  2  0
 42 44  1  0
M  END
