x0692_1-x0831_1-x1374_1-x0831_0-x1385_1-x1418_1-x0770_1-x0397_0
     RDKit          3D

 25 27  0  0  0  0  0  0  0  0999 V2000
    2.3660   -7.6010   23.3280 O   0  0  0  0  0  0  0  0  0  0  0  0
    2.6250   -7.8460   24.6960 C   0  0  0  0  0  0  0  0  0  0  0  0
    4.0300   -7.8540   24.8600 O   0  0  0  0  0  0  0  0  0  0  0  0
    4.6660   -7.1000   23.8290 C   0  0  0  0  0  0  0  0  0  0  0  0
    5.1920   -5.9380   24.3490 C   0  0  0  0  0  0  0  0  0  0  0  0
    6.1820   -5.5040   23.3090 C   0  0  2  0  0  0  0  0  0  0  0  0
    5.8940   -4.5700   22.3610 C   0  0  2  0  0  0  0  0  0  0  0  0
    6.0670   -6.0670   21.9410 C   0  0  0  0  0  0  0  0  0  0  0  0
    7.0150   -3.5650   22.0700 C   0  0  1  0  0  0  0  0  0  0  0  0
    6.5160   -2.6140   21.0850 N   0  0  0  0  0  0  0  0  0  0  0  0
    7.5180   -2.9170   23.3600 C   0  0  0  0  0  0  0  0  0  0  0  0
    6.2640   -3.2280   19.8440 C   0  0  0  0  0  0  0  0  0  0  0  0
    8.5700   -1.8810   23.0680 N   0  0  0  0  0  0  0  0  0  0  0  0
    7.2890   -1.3500   21.0360 C   0  0  0  0  0  0  0  0  0  0  0  0
    5.3240   -4.0170   19.6700 O   0  0  0  0  0  0  0  0  0  0  0  0
    7.2320   -2.9660   18.7120 C   0  0  0  0  0  0  0  0  0  0  0  0
    9.8220   -2.2130   23.5390 C   0  0  0  0  0  0  0  0  0  0  0  0
    8.6850   -1.5400   21.7340 C   0  0  0  0  0  0  0  0  0  0  0  0
   10.7040   -0.9900   23.5210 C   0  0  0  0  0  0  0  0  0  0  0  0
   10.2880    0.2140   24.1210 C   0  0  0  0  0  0  0  0  0  0  0  0
   11.9740   -0.9600   22.9000 C   0  0  0  0  0  0  0  0  0  0  0  0
   12.5690   -2.1560   22.2070 C   0  0  0  0  0  0  0  0  0  0  0  0
   11.1020    1.3370   24.0700 C   0  0  0  0  0  0  0  0  0  0  0  0
   12.7390    0.2070   22.8970 C   0  0  0  0  0  0  0  0  0  0  0  0
   12.3080    1.3900   23.4840 C   0  0  0  0  0  0  0  0  0  0  0  0
  1  2  1  0
  2  3  1  0
  3  4  1  0
  4  5  1  0
  6  5  1  1
  6  7  1  0
  6  8  1  0
  7  8  1  6
  7  9  1  0
  9 10  1  0
  9 11  1  1
 10 12  1  0
 11 13  1  0
 10 14  1  0
 12 15  2  0
 12 16  1  0
 13 17  1  0
 13 18  1  0
 14 18  1  0
 17 19  1  0
 19 20  2  0
 19 21  1  0
 21 22  1  0
 20 23  1  0
 21 24  2  0
 23 25  2  0
 24 25  1  0
M  END
