x0692_1-x0831_0-x0820_1-x0540_3
     RDKit          3D

 33 36  0  0  0  0  0  0  0  0999 V2000
    6.2560   -3.3760   19.9130 C   0  0  0  0  0  0  0  0  0  0  0  0
    7.2340   -3.0070   18.7970 C   0  0  0  0  0  0  0  0  0  0  0  0
    5.3050   -4.1250   19.6910 O   0  0  0  0  0  0  0  0  0  0  0  0
    6.4770   -2.8910   21.1870 N   0  0  0  0  0  0  0  0  0  0  0  0
    6.7450   -1.4700   21.4530 C   0  0  1  0  0  0  0  0  0  0  0  0
    7.3560   -3.8150   21.9040 C   0  0  0  0  0  0  0  0  0  0  0  0
    5.6170   -0.8820   22.3270 C   0  0  0  0  0  0  0  0  0  0  0  0
    8.1040   -1.3740   22.1150 C   0  0  0  0  0  0  0  0  0  0  0  0
    7.6810   -3.5760   23.2190 C   0  0  1  0  0  0  0  0  0  0  0  0
    4.9600    0.3590   21.7250 C   0  0  0  0  0  0  0  0  0  0  0  0
    8.3030   -2.2160   23.3150 N   0  0  0  0  0  0  0  0  0  0  0  0
    6.6090   -3.8060   24.0890 C   0  0  0  0  0  0  0  0  0  0  0  0
    5.2690    1.7200   22.4530 C   0  0  0  0  0  0  0  0  0  0  0  0
    9.7570   -2.3660   23.5220 C   0  0  0  0  0  0  0  0  0  0  0  0
    6.8610   -4.2040   25.4110 C   0  0  0  0  0  0  0  0  0  0  0  0
    5.2500   -3.6680   23.6900 C   0  0  0  0  0  0  0  0  0  0  0  0
    4.1000    2.5600   22.5880 N   0  0  0  0  0  0  0  0  0  0  0  0
    5.8290   -4.4380   26.2970 C   0  0  0  0  0  0  0  0  0  0  0  0
    4.2200   -3.9160   24.5980 C   0  0  0  0  0  0  0  0  0  0  0  0
    8.2070   -4.3730   25.8330 C   0  0  0  0  0  0  0  0  0  0  0  0
   10.5890   -1.0750   23.4740 C   0  0  0  0  0  0  0  0  0  0  0  0
    2.9900    2.1730   23.3650 C   0  0  0  0  0  0  0  0  0  0  0  0
    4.5070   -4.2960   25.9030 C   0  0  0  0  0  0  0  0  0  0  0  0
    8.4400   -4.7760   27.1490 C   0  0  0  0  0  0  0  0  0  0  0  0
    6.0980   -4.8270   27.6130 C   0  0  0  0  0  0  0  0  0  0  0  0
   10.0720    0.1420   24.2170 C   0  0  0  0  0  0  0  0  0  0  0  0
   11.8330   -0.9460   22.7820 C   0  0  0  0  0  0  0  0  0  0  0  0
    3.0120    1.4900   24.3830 O   0  0  0  0  0  0  0  0  0  0  0  0
   12.4520   -2.0760   22.0060 C   0  0  0  0  0  0  0  0  0  0  0  0
    7.4110   -4.9940   28.0360 C   0  0  0  0  0  0  0  0  0  0  0  0
   10.8590    1.2790   24.1550 C   0  0  0  0  0  0  0  0  0  0  0  0
   12.5040    0.2150   22.8100 C   0  0  0  0  0  0  0  0  0  0  0  0
   12.0680    1.3670   23.4780 C   0  0  0  0  0  0  0  0  0  0  0  0
  1  2  1  0
  1  3  2  0
  1  4  1  0
  4  5  1  0
  4  6  1  0
  5  7  1  1
  5  8  1  0
  6  9  1  0
  7 10  1  0
  8 11  1  0
  9 11  1  0
  9 12  1  1
 10 13  1  0
 11 14  1  0
 12 15  1  0
 12 16  2  0
 13 17  1  0
 15 18  2  0
 16 19  1  0
 15 20  1  0
 14 21  1  0
 17 22  1  0
 18 23  1  0
 19 23  2  0
 20 24  2  0
 18 25  1  0
 21 26  2  0
 21 27  1  0
 22 28  2  0
 27 29  1  0
 24 30  1  0
 25 30  2  0
 26 31  1  0
 27 32  2  0
 31 33  2  0
 32 33  1  0
M  END
