x0692_1-x0434_2-x0426_1-x0831_1-x1412_1-x1334_0-x0831_0-x0397_0-x1385_1-x1374_1-x1334_1-x1418_1-x0770_1
     RDKit          3D

 44 49  0  0  0  0  0  0  0  0999 V2000
    1.9670   -7.2010   23.6460 O   0  0  0  0  0  0  0  0  0  0  0  0
    2.3860   -7.5390   24.9560 C   0  0  0  0  0  0  0  0  0  0  0  0
    3.7660   -7.8690   24.9140 O   0  0  0  0  0  0  0  0  0  0  0  0
    4.3760   -7.2220   23.8140 C   0  0  0  0  0  0  0  0  0  0  0  0
    4.8690   -6.0040   24.2390 C   0  0  0  0  0  0  0  0  0  0  0  0
    5.9440   -5.6100   23.2830 C   0  0  2  0  0  0  0  0  0  0  0  0
    5.6710   -4.5760   22.2920 C   0  0  2  0  0  0  0  0  0  0  0  0
    6.0300   -6.2220   22.1050 C   0  0  0  0  0  0  0  0  0  0  0  0
    6.7080   -3.5490   22.0960 C   0  0  1  0  0  0  0  0  0  0  0  0
    6.4990   -2.6270   21.0250 N   0  0  0  0  0  0  0  0  0  0  0  0
    6.9940   -2.8890   23.3910 C   0  0  0  0  0  0  0  0  0  0  0  0
    6.2910   -3.2220   19.8050 C   0  0  0  0  0  0  0  0  0  0  0  0
    8.3050   -2.3020   23.2680 N   0  0  0  0  0  0  0  0  0  0  0  0
    7.5350   -1.7060   21.0660 C   0  0  1  0  0  0  0  0  0  0  0  0
    5.3460   -4.0080   19.6400 O   0  0  0  0  0  0  0  0  0  0  0  0
    7.2700   -2.9710   18.6850 C   0  0  0  0  0  0  0  0  0  0  0  0
    9.2700   -2.5800   24.2810 C   0  0  2  0  0  0  0  0  0  0  0  0
    7.1450   -0.4130   21.8150 C   0  0  0  0  0  0  0  0  0  0  0  0
    8.7480   -2.2100   21.8900 C   0  0  0  0  0  0  0  0  0  0  0  0
    5.6870   -0.0920   21.7720 C   0  0  1  0  0  0  0  0  0  0  0  0
   10.6580   -2.5240   23.6900 C   0  0  0  0  0  0  0  0  0  0  0  0
    9.0550   -3.7080   25.1780 C   0  0  0  0  0  0  0  0  0  0  0  0
    5.2210    0.9680   22.7590 C   0  0  0  0  0  0  0  0  0  0  0  0
    5.5620    0.4490   20.3520 C   0  0  0  0  0  0  0  0  0  0  0  0
    9.8460   -4.9710   25.2590 C   0  0  0  0  0  0  0  0  0  0  0  0
    7.8030   -3.7580   26.3630 S   0  0  0  0  0  0  0  0  0  0  0  0
   11.1710   -1.1010   23.5660 C   0  0  0  0  0  0  0  0  0  0  0  0
    3.7740    1.4270   22.5060 C   0  0  1  0  0  0  0  0  0  0  0  0
    4.5130    1.3190   20.0420 C   0  0  0  0  0  0  0  0  0  0  0  0
    6.5210    0.1180   19.2050 C   0  0  0  0  0  0  0  0  0  0  0  0
    9.3690   -5.7910   26.2460 C   0  0  0  0  0  0  0  0  0  0  0  0
    8.2720   -5.2890   26.9470 C   0  0  0  0  0  0  0  0  0  0  0  0
   10.3320    0.0810   24.0290 C   0  0  0  0  0  0  0  0  0  0  0  0
   12.4230   -0.8730   23.0260 C   0  0  0  0  0  0  0  0  0  0  0  0
    3.4690    2.4980   23.4350 N   0  0  0  0  0  0  0  0  0  0  0  0
    3.4710    1.7430   21.0390 C   0  0  0  0  0  0  0  0  0  0  0  0
    7.4020   -5.9880   28.2470 Cl  0  0  0  0  0  0  0  0  0  0  0  0
   13.2400   -2.0050   22.5460 C   0  0  0  0  0  0  0  0  0  0  0  0
    4.4660    1.8310   18.6420 C   0  0  0  0  0  0  0  0  0  0  0  0
    6.4940    0.5530   17.9470 N   0  0  0  0  0  0  0  0  0  0  0  0
   10.7900    1.4100   23.9500 C   0  0  0  0  0  0  0  0  0  0  0  0
   12.9110    0.5090   22.9380 C   0  0  0  0  0  0  0  0  0  0  0  0
    5.3810    1.4850   17.6660 C   0  0  0  0  0  0  0  0  0  0  0  0
   12.1830    1.5880   23.3590 C   0  0  0  0  0  0  0  0  0  0  0  0
  1  2  1  0
  2  3  1  0
  3  4  1  0
  4  5  1  0
  6  5  1  1
  6  7  1  0
  6  8  1  0
  7  8  1  6
  7  9  1  0
  9 10  1  0
  9 11  1  1
 10 12  1  0
 11 13  1  0
 10 14  1  0
 12 15  2  0
 12 16  1  0
 13 17  1  0
 14 18  1  1
 13 19  1  0
 14 19  1  0
 20 18  1  1
 17 21  1  6
 17 22  1  0
 20 23  1  0
 20 24  1  0
 22 25  2  0
 22 26  1  0
 21 27  1  0
 23 28  1  0
 24 29  2  0
 24 30  1  0
 25 31  1  0
 26 32  1  0
 31 32  2  0
 27 33  2  0
 27 34  1  0
 28 35  1  1
 28 36  1  0
 29 36  1  0
 32 37  1  0
 34 38  1  0
 29 39  1  0
 30 40  2  0
 33 41  1  0
 34 42  2  0
 39 43  2  0
 40 43  1  0
 41 44  2  0
 42 44  1  0
M  END
