x0692_1-x1418_1-x1375_1-x0426_1-x1334_0-x0831_0-x0397_0-x0831_1-x0770_1-x1334_1-x1412_1
     RDKit          3D

 43 48  0  0  0  0  0  0  0  0999 V2000
    2.3200   -7.4850   24.2130 O   0  0  0  0  0  0  0  0  0  0  0  0
    3.3110   -6.8000   24.9450 C   0  0  0  0  0  0  0  0  0  0  0  0
    4.5940   -7.2840   24.6170 O   0  0  0  0  0  0  0  0  0  0  0  0
    5.0550   -6.8900   23.3180 C   0  0  0  0  0  0  0  0  0  0  0  0
    5.8460   -5.6170   23.2570 C   0  0  2  0  0  0  0  0  0  0  0  0
    5.8680   -4.6490   22.1990 C   0  0  2  0  0  0  0  0  0  0  0  0
    7.0950   -5.6620   22.2600 C   0  0  0  0  0  0  0  0  0  0  0  0
    6.1160   -3.1620   22.4110 C   0  0  2  0  0  0  0  0  0  0  0  0
    6.5060   -2.5980   21.1090 N   0  0  0  0  0  0  0  0  0  0  0  0
    7.1130   -2.9260   23.5860 C   0  0  0  0  0  0  0  0  0  0  0  0
    6.3120   -3.2500   19.8920 C   0  0  0  0  0  0  0  0  0  0  0  0
    8.4850   -2.4160   23.3530 N   0  0  0  0  0  0  0  0  0  0  0  0
    7.5760   -1.6070   21.2280 C   0  0  2  0  0  0  0  0  0  0  0  0
    5.3950   -4.0800   19.7150 O   0  0  0  0  0  0  0  0  0  0  0  0
    7.2740   -2.9920   18.7490 C   0  0  0  0  0  0  0  0  0  0  0  0
    9.5000   -3.3280   23.8320 C   0  0  1  0  0  0  0  0  0  0  0  0
    8.7520   -2.2390   21.9430 C   0  0  0  0  0  0  0  0  0  0  0  0
    7.2120   -0.3340   21.9070 C   0  0  0  0  0  0  0  0  0  0  0  0
   10.8500   -2.7130   24.1640 C   0  0  0  0  0  0  0  0  0  0  0  0
    9.0930   -4.1640   25.0420 C   0  0  0  0  0  0  0  0  0  0  0  0
    5.7670    0.0870   21.6630 C   0  0  1  0  0  0  0  0  0  0  0  0
    9.8170   -5.4920   25.2660 C   0  0  0  0  0  0  0  0  0  0  0  0
    7.8560   -3.8170   26.2840 S   0  0  0  0  0  0  0  0  0  0  0  0
   11.0560   -1.2850   23.9840 C   0  0  0  0  0  0  0  0  0  0  0  0
    5.5480    1.3990   22.3530 C   0  0  0  0  0  0  0  0  0  0  0  0
    5.6550    0.5310   20.2410 C   0  0  0  0  0  0  0  0  0  0  0  0
    9.2040   -6.0800   26.5150 C   0  0  0  0  0  0  0  0  0  0  0  0
    8.1100   -5.2480   27.1640 C   0  0  0  0  0  0  0  0  0  0  0  0
   10.2020   -0.1120   24.5930 C   0  0  0  0  0  0  0  0  0  0  0  0
   12.2530   -0.8370   23.1100 C   0  0  0  0  0  0  0  0  0  0  0  0
    4.0400    1.5110   22.3700 C   0  0  1  0  0  0  0  0  0  0  0  0
    4.4970    1.4130   19.9070 C   0  0  0  0  0  0  0  0  0  0  0  0
    6.5620    0.1650   19.2620 C   0  0  0  0  0  0  0  0  0  0  0  0
    7.2110   -5.6180   28.5640 Cl  0  0  0  0  0  0  0  0  0  0  0  0
   13.1520   -1.8260   22.4370 C   0  0  0  0  0  0  0  0  0  0  0  0
   10.6170    1.3380   24.2900 C   0  0  0  0  0  0  0  0  0  0  0  0
   12.5260    0.6270   22.9280 C   0  0  0  0  0  0  0  0  0  0  0  0
    3.6350    2.4450   23.2650 N   0  0  0  0  0  0  0  0  0  0  0  0
    3.5010    1.8120   20.9480 C   0  0  0  0  0  0  0  0  0  0  0  0
    4.3510    1.8560   18.6700 C   0  0  0  0  0  0  0  0  0  0  0  0
    6.4740    0.5650   17.9890 N   0  0  0  0  0  0  0  0  0  0  0  0
   11.8070    1.6170   23.4470 C   0  0  0  0  0  0  0  0  0  0  0  0
    5.3960    1.3880   17.7390 C   0  0  0  0  0  0  0  0  0  0  0  0
  1  2  1  0
  2  3  1  0
  3  4  1  0
  5  4  1  6
  5  6  1  0
  5  7  1  0
  6  7  1  6
  6  8  1  0
  8  9  1  0
  8 10  1  1
  9 11  1  0
 10 12  1  0
  9 13  1  0
 11 14  2  0
 11 15  1  0
 12 16  1  0
 12 17  1  0
 13 17  1  0
 13 18  1  1
 16 19  1  1
 16 20  1  0
 21 18  1  6
 20 22  2  0
 20 23  1  0
 19 24  1  0
 21 25  1  0
 21 26  1  0
 22 27  1  0
 23 28  1  0
 27 28  2  0
 24 29  2  0
 24 30  1  0
 25 31  1  0
 26 32  2  0
 26 33  1  0
 28 34  1  0
 30 35  1  0
 29 36  1  0
 30 37  2  0
 31 38  1  1
 31 39  1  0
 32 39  1  0
 32 40  1  0
 33 41  2  0
 36 42  2  0
 37 42  1  0
 40 43  2  0
 41 43  1  0
M  END
