x0692_0-x1402_1
     RDKit          3D

 19 20  0  0  0  0  0  0  0  0999 V2000
    6.2920   -4.5740   20.4650 C   0  0  0  0  0  0  0  0  0  0  0  0
    7.2460   -3.5200   19.8890 C   0  0  0  0  0  0  0  0  0  0  0  0
    5.2130   -4.7460   19.9420 O   0  0  0  0  0  0  0  0  0  0  0  0
    6.6610   -5.3520   21.5540 N   0  0  0  0  0  0  0  0  0  0  0  0
    7.5160   -4.8830   22.6340 C   0  0  0  0  0  0  0  0  0  0  0  0
    5.7060   -6.3300   22.0710 C   0  0  0  0  0  0  0  0  0  0  0  0
    6.7060   -4.1450   23.4730 C   0  0  2  0  0  0  0  0  0  0  0  0
    4.9510   -5.7500   23.1050 C   0  0  0  0  0  0  0  0  0  0  0  0
    7.5450   -3.4530   24.4630 C   0  0  0  0  0  0  0  0  0  0  0  0
    5.7440   -5.0270   24.1390 N   0  0  0  0  0  0  0  0  0  0  0  0
    8.3090   -2.2560   23.9270 C   0  0  0  0  0  0  0  0  0  0  0  0
    9.7540   -2.6960   23.6560 C   0  0  0  0  0  0  0  0  0  0  0  0
   10.6740   -1.5310   23.5110 C   0  0  0  0  0  0  0  0  0  0  0  0
   10.2730   -0.2270   23.7620 C   0  0  0  0  0  0  0  0  0  0  0  0
   11.9810   -1.8110   23.0980 C   0  0  0  0  0  0  0  0  0  0  0  0
   11.1390    0.8330   23.6080 C   0  0  0  0  0  0  0  0  0  0  0  0
   12.9410   -0.8090   22.9160 C   0  0  0  0  0  0  0  0  0  0  0  0
   10.6730    2.2220   23.8650 C   0  0  0  0  0  0  0  0  0  0  0  0
   12.5730    0.5190   23.1560 C   0  0  0  0  0  0  0  0  0  0  0  0
  1  2  1  0
  1  3  2  0
  1  4  1  0
  4  5  1  0
  4  6  1  0
  5  7  1  0
  6  8  1  0
  7  9  1  1
  7 10  1  0
  8 10  1  0
  9 11  1  0
 11 12  1  0
 12 13  1  0
 13 14  2  0
 13 15  1  0
 14 16  1  0
 15 17  2  0
 16 18  1  0
 16 19  2  0
 17 19  1  0
M  END
