x0692_1-x0831_0-x0397_0-x1385_1-x1334_1-x1386_1-x0434_2-x0770_1
     RDKit          3D

 27 30  0  0  0  0  0  0  0  0999 V2000
    6.2170   -3.2230   19.8620 C   0  0  0  0  0  0  0  0  0  0  0  0
    7.2210   -2.9610   18.7700 C   0  0  0  0  0  0  0  0  0  0  0  0
    5.2680   -3.9820   19.6270 O   0  0  0  0  0  0  0  0  0  0  0  0
    6.4360   -2.6430   21.1470 N   0  0  0  0  0  0  0  0  0  0  0  0
    7.1010   -1.3200   21.3430 C   0  0  1  0  0  0  0  0  0  0  0  0
    6.3450   -3.4220   22.3730 C   0  0  2  0  0  0  0  0  0  0  0  0
    8.4310   -1.4860   22.0480 C   0  0  0  0  0  0  0  0  0  0  0  0
    7.5760   -3.3300   23.3160 C   0  0  0  0  0  0  0  0  0  0  0  0
    6.1870   -4.9250   21.9920 C   0  0  0  0  0  0  0  0  0  0  0  0
    7.6930   -0.6570   20.1250 C   0  0  0  0  0  0  0  0  0  0  0  0
    8.4000   -2.0970   23.3210 N   0  0  0  0  0  0  0  0  0  0  0  0
    6.6020   -6.1220   23.0450 C   0  0  0  0  0  0  0  0  0  0  0  0
    5.2500   -5.9160   22.5560 C   0  0  0  0  0  0  0  0  0  0  0  0
    6.9850   -0.1330   18.9250 C   0  0  0  0  0  0  0  0  0  0  0  0
    9.7160   -2.3560   23.6300 C   0  0  0  0  0  0  0  0  0  0  0  0
    6.3300    0.3220   20.0470 C   0  0  0  0  0  0  0  0  0  0  0  0
    6.0830    0.5370   17.9420 N   0  0  0  0  0  0  0  0  0  0  0  0
   10.5860   -1.1060   23.5810 C   0  0  0  0  0  0  0  0  0  0  0  0
    5.0060    1.3300   17.9750 C   0  0  0  0  0  0  0  0  0  0  0  0
    5.0900    1.2110   20.3300 C   0  0  0  0  0  0  0  0  0  0  0  0
   10.1510    0.0160   24.1500 C   0  0  0  0  0  0  0  0  0  0  0  0
   11.9950   -1.0110   22.8830 C   0  0  0  0  0  0  0  0  0  0  0  0
    4.3430    1.7820   19.1640 C   0  0  0  0  0  0  0  0  0  0  0  0
   12.6010   -2.2040   22.1960 C   0  0  0  0  0  0  0  0  0  0  0  0
   10.8470    1.2490   24.1590 C   0  0  0  0  0  0  0  0  0  0  0  0
   12.7620    0.1730   22.8490 C   0  0  0  0  0  0  0  0  0  0  0  0
   12.2250    1.4170   23.4950 C   0  0  0  0  0  0  0  0  0  0  0  0
  1  2  1  0
  1  3  2  0
  1  4  1  0
  4  5  1  0
  4  6  1  0
  5  7  1  0
  6  8  1  0
  6  9  1  6
  5 10  1  6
  7 11  1  0
  8 11  1  0
  9 12  1  0
  9 13  1  0
 12 13  1  0
 10 14  1  0
 11 15  1  0
 14 16  2  0
 14 17  1  0
 15 18  1  0
 17 19  2  0
 16 20  1  0
 18 21  2  0
 18 22  1  0
 19 23  1  0
 20 23  2  0
 22 24  1  0
 21 25  1  0
 22 26  2  0
 25 27  2  0
 26 27  1  0
M  END
