x0692_1-x0831_0-x1412_0-x1334_1
     RDKit          3D

 25 27  0  0  0  0  0  0  0  0999 V2000
    6.2320   -3.2450   19.8640 C   0  0  0  0  0  0  0  0  0  0  0  0
    7.1870   -2.9750   18.7220 C   0  0  0  0  0  0  0  0  0  0  0  0
    5.3800   -4.1360   19.7410 O   0  0  0  0  0  0  0  0  0  0  0  0
    6.3630   -2.4960   21.0300 N   0  0  0  0  0  0  0  0  0  0  0  0
    7.1540   -1.2540   20.9680 C   0  0  0  0  0  0  0  0  0  0  0  0
    6.2650   -3.0560   22.3680 C   0  0  0  0  0  0  0  0  0  0  0  0
    8.4510   -1.4480   21.4580 C   0  0  0  0  0  0  0  0  0  0  0  0
    7.6800   -3.2330   22.9440 C   0  0  0  0  0  0  0  0  0  0  0  0
    8.5010   -1.9860   22.8250 N   0  0  0  0  0  0  0  0  0  0  0  0
    9.9360   -2.1790   23.1500 C   0  0  2  0  0  0  0  0  0  0  0  0
   10.0700   -2.9130   24.4340 C   0  0  0  0  0  0  0  0  0  0  0  0
   10.6750   -0.8890   23.2640 C   0  0  0  0  0  0  0  0  0  0  0  0
    8.7310   -2.8140   25.1580 C   0  0  0  0  0  0  0  0  0  0  0  0
   10.0550    0.2870   23.8460 C   0  0  0  0  0  0  0  0  0  0  0  0
   12.0280   -0.8130   22.7880 C   0  0  0  0  0  0  0  0  0  0  0  0
   12.7900   -1.9440   22.1600 C   0  0  0  0  0  0  0  0  0  0  0  0
    7.9190   -1.9150   24.9830 O   0  0  0  0  0  0  0  0  0  0  0  0
   10.8550    1.5860   23.9410 C   0  0  0  0  0  0  0  0  0  0  0  0
   12.7760    0.2950   22.8450 C   0  0  0  0  0  0  0  0  0  0  0  0
    8.6720   -4.0100   26.0660 C   0  0  0  0  0  0  0  0  0  0  0  0
   12.2820    1.6080   23.4180 C   0  0  0  0  0  0  0  0  0  0  0  0
    9.5310   -5.0490   25.9190 C   0  0  0  0  0  0  0  0  0  0  0  0
    7.5610   -4.2260   27.3680 S   0  0  0  0  0  0  0  0  0  0  0  0
    9.3650   -6.0370   26.7870 C   0  0  0  0  0  0  0  0  0  0  0  0
    8.2600   -5.7520   27.7330 C   0  0  0  0  0  0  0  0  0  0  0  0
  1  2  1  0
  1  3  2  0
  1  4  1  0
  4  5  1  0
  4  6  1  0
  5  7  1  0
  6  8  1  0
  7  9  1  0
  8  9  1  0
  9 10  1  0
 10 11  1  1
 10 12  1  0
 11 13  1  0
 12 14  2  0
 12 15  1  0
 15 16  1  0
 13 17  2  0
 14 18  1  0
 15 19  2  0
 13 20  1  0
 18 21  2  0
 19 21  1  0
 20 22  2  0
 20 23  1  0
 22 24  1  0
 23 25  1  0
 24 25  2  0
M  END
