x0692_1-x0770_1-x0831_1-x1334_1-x1374_1-x1412_1-x0397_0-x0434_2-x1385_1-x0831_0
     RDKit          3D

 32 35  0  0  0  0  0  0  0  0999 V2000
    6.3540   -3.1340   19.8670 C   0  0  0  0  0  0  0  0  0  0  0  0
    7.3490   -2.9550   18.7490 C   0  0  0  0  0  0  0  0  0  0  0  0
    5.4670   -4.0040   19.7070 O   0  0  0  0  0  0  0  0  0  0  0  0
    6.4670   -2.3670   21.0400 N   0  0  0  0  0  0  0  0  0  0  0  0
    7.3930   -1.2620   21.3480 C   0  0  1  0  0  0  0  0  0  0  0  0
    6.3640   -3.1160   22.2900 C   0  0  2  0  0  0  0  0  0  0  0  0
    8.7530   -1.8110   21.7220 C   0  0  0  0  0  0  0  0  0  0  0  0
    7.6880   -3.4610   23.0610 C   0  0  0  0  0  0  0  0  0  0  0  0
    6.8350   -4.5860   22.3770 C   0  0  1  0  0  0  0  0  0  0  0  0
    7.5630    0.0200   20.5450 C   0  0  0  0  0  0  0  0  0  0  0  0
    8.6580   -2.3470   23.0600 N   0  0  0  0  0  0  0  0  0  0  0  0
    5.7330   -5.2240   23.0840 C   0  0  1  0  0  0  0  0  0  0  0  0
    5.9440   -5.9190   21.8460 C   0  0  0  0  0  0  0  0  0  0  0  0
    7.1150    0.1660   19.2260 C   0  0  0  0  0  0  0  0  0  0  0  0
   10.0100   -2.5330   23.5990 C   0  0  0  0  0  0  0  0  0  0  0  0
    6.1170    0.6420   20.3390 C   0  0  0  0  0  0  0  0  0  0  0  0
    6.3110    0.4830   18.0230 N   0  0  0  0  0  0  0  0  0  0  0  0
    5.9120   -6.0930   24.3250 C   0  0  0  0  0  0  0  0  0  0  0  0
   10.8110   -1.2070   23.5380 C   0  0  0  0  0  0  0  0  0  0  0  0
    5.0950    1.0330   17.9030 C   0  0  0  0  0  0  0  0  0  0  0  0
    4.8670    1.1940   20.2110 C   0  0  0  0  0  0  0  0  0  0  0  0
    5.6650   -7.3790   23.9940 C   0  0  0  0  0  0  0  0  0  0  0  0
   10.1750   -0.0050   24.2210 C   0  0  0  0  0  0  0  0  0  0  0  0
   12.1160   -1.0280   22.8630 C   0  0  0  0  0  0  0  0  0  0  0  0
    4.2810    1.4250   18.8990 C   0  0  0  0  0  0  0  0  0  0  0  0
    4.5250   -7.8680   24.7030 O   0  0  0  0  0  0  0  0  0  0  0  0
   12.8230   -2.1360   22.1540 C   0  0  0  0  0  0  0  0  0  0  0  0
   10.7280    1.2170   24.2360 C   0  0  0  0  0  0  0  0  0  0  0  0
   12.7960    0.3790   22.8710 C   0  0  0  0  0  0  0  0  0  0  0  0
    3.3850   -7.0550   24.4920 C   0  0  0  0  0  0  0  0  0  0  0  0
   12.0600    1.5440   23.5820 C   0  0  0  0  0  0  0  0  0  0  0  0
    2.6910   -7.5060   23.3470 O   0  0  0  0  0  0  0  0  0  0  0  0
  1  2  1  0
  1  3  2  0
  1  4  1  0
  4  5  1  0
  4  6  1  0
  5  7  1  0
  6  8  1  1
  6  9  1  0
  5 10  1  6
  7 11  1  0
  8 11  1  0
  9 12  1  0
  9 13  1  6
 12 13  1  0
 10 14  1  0
 11 15  1  0
 14 16  2  0
 14 17  1  0
 12 18  1  1
 15 19  1  0
 17 20  2  0
 16 21  1  0
 18 22  1  0
 19 23  2  0
 19 24  1  0
 20 25  1  0
 21 25  2  0
 22 26  1  0
 24 27  1  0
 23 28  1  0
 24 29  2  0
 26 30  1  0
 28 31  2  0
 29 31  1  0
 30 32  1  0
M  END
