x0692_0-x0692_1
     RDKit          3D

 17 18  0  0  0  0  0  0  0  0999 V2000
    6.1990   -3.2430   19.8460 C   0  0  0  0  0  0  0  0  0  0  0  0
    7.1940   -2.9770   18.7340 C   0  0  0  0  0  0  0  0  0  0  0  0
    5.3320   -4.1140   19.7050 O   0  0  0  0  0  0  0  0  0  0  0  0
    6.3580   -2.4740   21.0110 N   0  0  0  0  0  0  0  0  0  0  0  0
    7.3410   -1.3740   20.9600 C   0  0  0  0  0  0  0  0  0  0  0  0
    6.0840   -2.9780   22.2510 C   0  0  0  0  0  0  0  0  0  0  0  0
    8.6500   -1.6730   21.7500 C   0  0  0  0  0  0  0  0  0  0  0  0
    7.3480   -3.2790   23.0410 C   0  0  0  0  0  0  0  0  0  0  0  0
    8.2850   -2.1510   23.0810 N   0  0  0  0  0  0  0  0  0  0  0  0
    9.4150   -2.3780   23.9810 C   0  0  0  0  0  0  0  0  0  0  0  0
   10.6070   -1.4520   23.6670 C   0  0  0  0  0  0  0  0  0  0  0  0
   10.3500   -0.0970   23.8310 C   0  0  0  0  0  0  0  0  0  0  0  0
   11.8950   -1.7940   23.2390 C   0  0  0  0  0  0  0  0  0  0  0  0
   11.3190    0.8690   23.5790 C   0  0  0  0  0  0  0  0  0  0  0  0
   12.9070   -0.8810   22.9750 C   0  0  0  0  0  0  0  0  0  0  0  0
   10.8730    2.3270   23.7920 C   0  0  0  0  0  0  0  0  0  0  0  0
   12.5950    0.4660   23.1540 C   0  0  0  0  0  0  0  0  0  0  0  0
  1  2  1  0
  1  3  2  0
  1  4  1  0
  4  5  1  0
  4  6  1  0
  5  7  1  0
  6  8  1  0
  7  9  1  0
  8  9  1  0
  9 10  1  0
 10 11  1  0
 11 12  2  0
 11 13  1  0
 12 14  1  0
 13 15  2  0
 14 16  1  0
 14 17  2  0
 15 17  1  0
M  END
