x0692_0-x0770_1-x0397_0
     RDKit          3D

 20 22  0  0  0  0  0  0  0  0999 V2000
    6.2160   -3.3110   19.9010 C   0  0  0  0  0  0  0  0  0  0  0  0
    7.2220   -3.0210   18.8100 C   0  0  0  0  0  0  0  0  0  0  0  0
    5.2700   -4.0700   19.6860 O   0  0  0  0  0  0  0  0  0  0  0  0
    6.4320   -2.7470   21.1410 N   0  0  0  0  0  0  0  0  0  0  0  0
    7.0520   -1.4070   21.2750 C   0  0  0  0  0  0  0  0  0  0  0  0
    6.7290   -3.6500   22.2500 C   0  0  1  0  0  0  0  0  0  0  0  0
    8.4360   -1.5420   21.9130 C   0  0  0  0  0  0  0  0  0  0  0  0
    7.2480   -2.9780   23.4870 C   0  0  0  0  0  0  0  0  0  0  0  0
    5.8120   -4.6770   22.4450 C   0  0  0  0  0  0  0  0  0  0  0  0
    8.4010   -2.0980   23.2800 N   0  0  0  0  0  0  0  0  0  0  0  0
    6.1850   -6.0430   23.2120 C   0  0  0  0  0  0  0  0  0  0  0  0
    5.9910   -6.0990   21.8390 C   0  0  0  0  0  0  0  0  0  0  0  0
    9.7030   -2.7020   23.5770 C   0  0  0  0  0  0  0  0  0  0  0  0
   10.7290   -1.6190   23.4450 C   0  0  0  0  0  0  0  0  0  0  0  0
   10.3030   -0.1760   23.6930 C   0  0  0  0  0  0  0  0  0  0  0  0
   11.9760   -1.8580   23.1140 C   0  0  0  0  0  0  0  0  0  0  0  0
   11.2880    0.9660   23.5520 C   0  0  0  0  0  0  0  0  0  0  0  0
   12.9290   -0.8460   22.9740 C   0  0  0  0  0  0  0  0  0  0  0  0
   10.9350    2.4020   23.7560 C   0  0  0  0  0  0  0  0  0  0  0  0
   12.7050    0.4760   23.1550 C   0  0  0  0  0  0  0  0  0  0  0  0
  1  2  1  0
  1  3  2  0
  1  4  1  0
  4  5  1  0
  4  6  1  0
  5  7  1  0
  6  8  1  0
  6  9  1  1
  7 10  1  0
  8 10  1  0
  9 11  1  0
  9 12  1  0
 11 12  1  0
 10 13  1  0
 13 14  1  0
 14 15  2  0
 14 16  1  0
 15 17  1  0
 16 18  2  0
 17 19  1  0
 17 20  2  0
 18 20  1  0
M  END
