x0692_1-x0770_1-x0831_0-x0831_1-x1386_1-x1418_1-x1334_0-x0397_0-x1385_1
     RDKit          3D

 27 30  0  0  0  0  0  0  0  0999 V2000
    6.1850   -3.2530   19.8270 C   0  0  0  0  0  0  0  0  0  0  0  0
    7.2450   -3.0120   18.7630 C   0  0  0  0  0  0  0  0  0  0  0  0
    5.3210   -4.1230   19.7140 O   0  0  0  0  0  0  0  0  0  0  0  0
    6.2900   -2.4260   20.9400 N   0  0  0  0  0  0  0  0  0  0  0  0
    7.1890   -1.2480   20.8740 C   0  0  0  0  0  0  0  0  0  0  0  0
    6.1940   -3.0700   22.2720 C   0  0  2  0  0  0  0  0  0  0  0  0
    8.5490   -1.4040   21.5680 C   0  0  0  0  0  0  0  0  0  0  0  0
    7.5940   -3.1860   22.9220 C   0  0  0  0  0  0  0  0  0  0  0  0
    5.5440   -4.4560   22.2770 C   0  0  0  0  0  0  0  0  0  0  0  0
    8.3490   -1.9380   22.8880 N   0  0  0  0  0  0  0  0  0  0  0  0
    6.0660   -5.5380   23.0370 C   0  0  0  0  0  0  0  0  0  0  0  0
    6.2200   -5.9130   21.8410 C   0  0  0  0  0  0  0  0  0  0  0  0
    9.4820   -1.9220   23.7660 C   0  0  1  0  0  0  0  0  0  0  0  0
   10.1360   -3.2350   23.9130 C   0  0  0  0  0  0  0  0  0  0  0  0
   10.4980   -0.7770   23.5850 C   0  0  0  0  0  0  0  0  0  0  0  0
   10.1270    0.6570   24.0340 C   0  0  0  0  0  0  0  0  0  0  0  0
   11.7640   -0.9630   23.0320 C   0  0  0  0  0  0  0  0  0  0  0  0
    9.5230   -4.1020   25.0340 C   0  0  0  0  0  0  0  0  0  0  0  0
   12.2790   -2.2750   22.5330 C   0  0  0  0  0  0  0  0  0  0  0  0
   11.0310    1.7000   23.8930 C   0  0  0  0  0  0  0  0  0  0  0  0
   12.6630    0.1070   22.9010 C   0  0  0  0  0  0  0  0  0  0  0  0
    9.9770   -5.5110   25.3670 C   0  0  0  0  0  0  0  0  0  0  0  0
    8.2310   -3.6750   26.1180 S   0  0  0  0  0  0  0  0  0  0  0  0
   12.2570    1.4810   23.3570 C   0  0  0  0  0  0  0  0  0  0  0  0
    9.2160   -5.9920   26.4450 C   0  0  0  0  0  0  0  0  0  0  0  0
    8.2690   -5.1520   26.9490 C   0  0  0  0  0  0  0  0  0  0  0  0
    7.2100   -5.4860   28.2580 Cl  0  0  0  0  0  0  0  0  0  0  0  0
  1  2  1  0
  1  3  2  0
  1  4  1  0
  4  5  1  0
  4  6  1  0
  5  7  1  0
  6  8  1  0
  6  9  1  6
  7 10  1  0
  8 10  1  0
  9 11  1  0
  9 12  1  0
 11 12  1  0
 10 13  1  0
 13 14  1  6
 13 15  1  0
 15 16  2  0
 15 17  1  0
 14 18  1  0
 17 19  1  0
 16 20  1  0
 17 21  2  0
 18 22  2  0
 18 23  1  0
 20 24  2  0
 21 24  1  0
 22 25  1  0
 23 26  1  0
 25 26  2  0
 26 27  1  0
M  END
