x0692_1-x0831_0-x1418_1-x1334_1
     RDKit          3D

 17 18  0  0  0  0  0  0  0  0999 V2000
    6.2840   -3.2620   19.9010 C   0  0  0  0  0  0  0  0  0  0  0  0
    7.2570   -2.9950   18.7600 C   0  0  0  0  0  0  0  0  0  0  0  0
    5.4340   -4.1560   19.7660 O   0  0  0  0  0  0  0  0  0  0  0  0
    6.4060   -2.4900   21.0580 N   0  0  0  0  0  0  0  0  0  0  0  0
    7.2560   -1.3030   21.0070 C   0  0  0  0  0  0  0  0  0  0  0  0
    6.4260   -3.1600   22.3660 C   0  0  0  0  0  0  0  0  0  0  0  0
    8.6170   -1.5270   21.7060 C   0  0  0  0  0  0  0  0  0  0  0  0
    7.7430   -3.4310   22.8590 C   0  0  0  0  0  0  0  0  0  0  0  0
    8.5850   -2.2140   22.9910 N   0  0  0  0  0  0  0  0  0  0  0  0
    9.9680   -2.4860   23.4610 C   0  0  0  0  0  0  0  0  0  0  0  0
   10.7210   -1.1250   23.5000 C   0  0  0  0  0  0  0  0  0  0  0  0
   10.1900    0.1420   24.1660 C   0  0  0  0  0  0  0  0  0  0  0  0
   11.9810   -0.9610   22.8940 C   0  0  0  0  0  0  0  0  0  0  0  0
   12.6680   -2.0810   22.1830 C   0  0  0  0  0  0  0  0  0  0  0  0
   10.8640    1.3410   24.1750 C   0  0  0  0  0  0  0  0  0  0  0  0
   12.6760    0.2770   22.9140 C   0  0  0  0  0  0  0  0  0  0  0  0
   12.1450    1.4100   23.5310 C   0  0  0  0  0  0  0  0  0  0  0  0
  1  2  1  0
  1  3  2  0
  1  4  1  0
  4  5  1  0
  4  6  1  0
  5  7  1  0
  6  8  1  0
  7  9  1  0
  8  9  1  0
  9 10  1  0
 10 11  1  0
 11 12  2  0
 11 13  1  0
 13 14  1  0
 12 15  1  0
 13 16  2  0
 15 17  2  0
 16 17  1  0
M  END
