x0692_1-x0831_0-x0426_1-x0770_1-x0397_0-x1334_0-x1386_1-x0434_2-x1385_1-x1334_1-x1412_1-x1374_1-x1418_1
     RDKit          3D

 44 49  0  0  0  0  0  0  0  0999 V2000
    2.2740   -7.7230   23.2820 O   0  0  0  0  0  0  0  0  0  0  0  0
    2.4770   -7.9780   24.6630 C   0  0  0  0  0  0  0  0  0  0  0  0
    3.8680   -7.9200   24.8850 O   0  0  0  0  0  0  0  0  0  0  0  0
    4.5390   -7.2060   23.8570 C   0  0  0  0  0  0  0  0  0  0  0  0
    4.9410   -5.9520   24.2300 C   0  0  0  0  0  0  0  0  0  0  0  0
    6.0480   -5.5930   23.2920 C   0  0  2  0  0  0  0  0  0  0  0  0
    5.8800   -4.5000   22.4060 C   0  0  2  0  0  0  0  0  0  0  0  0
    5.9900   -6.1130   22.0510 C   0  0  0  0  0  0  0  0  0  0  0  0
    7.0020   -3.5740   22.0900 C   0  0  1  0  0  0  0  0  0  0  0  0
    6.6450   -2.6490   21.0040 N   0  0  0  0  0  0  0  0  0  0  0  0
    7.6530   -2.9590   23.1550 C   0  0  0  0  0  0  0  0  0  0  0  0
    6.3130   -3.2780   19.8170 C   0  0  0  0  0  0  0  0  0  0  0  0
    8.9300   -2.4920   22.6470 N   0  0  0  0  0  0  0  0  0  0  0  0
    7.5930   -1.5460   20.8040 C   0  0  1  0  0  0  0  0  0  0  0  0
    5.3600   -4.0520   19.6850 O   0  0  0  0  0  0  0  0  0  0  0  0
    7.2850   -2.9900   18.6890 C   0  0  0  0  0  0  0  0  0  0  0  0
   10.1200   -2.5170   23.4900 C   0  0  2  0  0  0  0  0  0  0  0  0
    7.3850   -0.3080   21.8170 C   0  0  0  0  0  0  0  0  0  0  0  0
    8.7440   -1.2890   21.7720 C   0  0  0  0  0  0  0  0  0  0  0  0
    5.9160    0.1390   21.8240 C   0  0  1  0  0  0  0  0  0  0  0  0
    9.6680   -2.7820   24.8920 C   0  0  0  0  0  0  0  0  0  0  0  0
   10.8180   -1.1220   23.4600 C   0  0  0  0  0  0  0  0  0  0  0  0
    5.4550    1.2910   22.7630 C   0  0  0  0  0  0  0  0  0  0  0  0
    5.7430    0.5660   20.3690 C   0  0  0  0  0  0  0  0  0  0  0  0
   10.1930    0.0410   23.9610 C   0  0  0  0  0  0  0  0  0  0  0  0
   12.1970   -0.8850   22.9160 C   0  0  0  0  0  0  0  0  0  0  0  0
    9.3650   -3.9110   25.5250 C   0  0  0  0  0  0  0  0  0  0  0  0
    3.9490    1.5210   22.5430 C   0  0  1  0  0  0  0  0  0  0  0  0
   12.9740   -2.0180   22.3310 C   0  0  0  0  0  0  0  0  0  0  0  0
    4.5680    1.4420   20.0560 C   0  0  0  0  0  0  0  0  0  0  0  0
    6.5840    0.2200   19.3180 C   0  0  0  0  0  0  0  0  0  0  0  0
   10.8870    1.2780   23.9260 C   0  0  0  0  0  0  0  0  0  0  0  0
   12.8380    0.3320   22.9000 C   0  0  0  0  0  0  0  0  0  0  0  0
    9.9550   -5.1500   25.5260 C   0  0  0  0  0  0  0  0  0  0  0  0
    8.0300   -3.8800   26.5790 S   0  0  0  0  0  0  0  0  0  0  0  0
    3.4900    2.5720   23.4320 N   0  0  0  0  0  0  0  0  0  0  0  0
    3.5770    1.8740   21.1090 C   0  0  0  0  0  0  0  0  0  0  0  0
    4.4180    1.8930   18.5880 C   0  0  0  0  0  0  0  0  0  0  0  0
    6.4860    0.5770   18.0360 N   0  0  0  0  0  0  0  0  0  0  0  0
   12.1770    1.4160   23.4100 C   0  0  0  0  0  0  0  0  0  0  0  0
    9.3240   -6.0560   26.4180 C   0  0  0  0  0  0  0  0  0  0  0  0
    8.2620   -5.4730   27.0620 C   0  0  0  0  0  0  0  0  0  0  0  0
    7.1980   -6.1190   28.2350 Cl  0  0  0  0  0  0  0  0  0  0  0  0
    5.4540    1.3700   17.7440 C   0  0  0  0  0  0  0  0  0  0  0  0
  1  2  1  0
  2  3  1  0
  3  4  1  0
  4  5  1  0
  6  5  1  1
  6  7  1  0
  6  8  1  0
  7  8  1  6
  7  9  1  0
  9 10  1  0
  9 11  1  1
 10 12  1  0
 11 13  1  0
 10 14  1  0
 12 15  2  0
 12 16  1  0
 13 17  1  0
 14 18  1  1
 13 19  1  0
 14 19  1  0
 20 18  1  6
 17 21  1  1
 17 22  1  0
 20 23  1  0
 20 24  1  0
 22 25  2  0
 22 26  1  0
 21 27  1  0
 23 28  1  0
 26 29  1  0
 24 30  2  0
 24 31  1  0
 25 32  1  0
 26 33  2  0
 27 34  2  0
 27 35  1  0
 28 36  1  1
 28 37  1  0
 30 37  1  0
 30 38  1  0
 31 39  2  0
 32 40  2  0
 33 40  1  0
 34 41  1  0
 35 42  1  0
 41 42  2  0
 42 43  1  0
 38 44  2  0
 39 44  1  0
M  END
