x0692_1-x0831_0-x1386_1-x0770_1-x0397_0-x1374_1-x1334_1-x1334_0-x1412_1-x1385_1
     RDKit          3D

 32 35  0  0  0  0  0  0  0  0999 V2000
    2.3230   -7.5990   23.2080 O   0  0  0  0  0  0  0  0  0  0  0  0
    2.4790   -7.9740   24.5590 C   0  0  0  0  0  0  0  0  0  0  0  0
    3.8620   -7.9890   24.8310 O   0  0  0  0  0  0  0  0  0  0  0  0
    4.5810   -7.2470   23.8650 C   0  0  0  0  0  0  0  0  0  0  0  0
    4.9250   -5.9040   24.3530 C   0  0  0  0  0  0  0  0  0  0  0  0
    5.9940   -5.2990   23.4040 C   0  0  2  0  0  0  0  0  0  0  0  0
    5.5320   -4.4240   22.3920 C   0  0  2  0  0  0  0  0  0  0  0  0
    6.1860   -5.8120   21.9400 C   0  0  0  0  0  0  0  0  0  0  0  0
    6.2570   -3.1150   22.3750 C   0  0  2  0  0  0  0  0  0  0  0  0
    6.2460   -2.4700   21.0650 N   0  0  0  0  0  0  0  0  0  0  0  0
    7.7260   -3.3310   22.8140 C   0  0  0  0  0  0  0  0  0  0  0  0
    6.1850   -3.2630   19.9110 C   0  0  0  0  0  0  0  0  0  0  0  0
    8.5030   -2.1110   22.9740 N   0  0  0  0  0  0  0  0  0  0  0  0
    7.0760   -1.2540   20.9900 C   0  0  0  0  0  0  0  0  0  0  0  0
    5.3510   -4.1700   19.7650 O   0  0  0  0  0  0  0  0  0  0  0  0
    7.2150   -2.9960   18.8300 C   0  0  0  0  0  0  0  0  0  0  0  0
    9.9240   -2.3350   23.1980 C   0  0  2  0  0  0  0  0  0  0  0  0
    8.4110   -1.2420   21.7690 C   0  0  0  0  0  0  0  0  0  0  0  0
   10.4610   -3.2000   24.3050 C   0  0  0  0  0  0  0  0  0  0  0  0
   10.6880   -0.9990   23.3090 C   0  0  0  0  0  0  0  0  0  0  0  0
   10.0350    0.0750   23.8940 C   0  0  0  0  0  0  0  0  0  0  0  0
   12.1550   -0.8020   22.7900 C   0  0  0  0  0  0  0  0  0  0  0  0
    9.6440   -4.0750   25.2410 C   0  0  0  0  0  0  0  0  0  0  0  0
   12.8440   -1.9600   22.1510 C   0  0  0  0  0  0  0  0  0  0  0  0
   10.7680    1.4130   24.0090 C   0  0  0  0  0  0  0  0  0  0  0  0
   12.8330    0.3570   22.8760 C   0  0  0  0  0  0  0  0  0  0  0  0
    9.9920   -5.3340   25.6040 C   0  0  0  0  0  0  0  0  0  0  0  0
    8.1710   -3.7050   26.0650 S   0  0  0  0  0  0  0  0  0  0  0  0
   12.1720    1.5210   23.4840 C   0  0  0  0  0  0  0  0  0  0  0  0
    9.2180   -6.0100   26.4820 C   0  0  0  0  0  0  0  0  0  0  0  0
    8.1540   -5.2110   26.8440 C   0  0  0  0  0  0  0  0  0  0  0  0
    6.9180   -5.6310   27.9560 Cl  0  0  0  0  0  0  0  0  0  0  0  0
  1  2  1  0
  2  3  1  0
  3  4  1  0
  4  5  1  0
  6  5  1  1
  6  7  1  0
  6  8  1  0
  7  8  1  6
  7  9  1  0
  9 10  1  0
  9 11  1  6
 10 12  1  0
 11 13  1  0
 10 14  1  0
 12 15  2  0
 12 16  1  0
 13 17  1  0
 13 18  1  0
 14 18  1  0
 17 19  1  1
 17 20  1  0
 20 21  2  0
 20 22  1  0
 19 23  1  0
 22 24  1  0
 21 25  1  0
 22 26  2  0
 23 27  2  0
 23 28  1  0
 25 29  2  0
 26 29  1  0
 27 30  1  0
 28 31  1  0
 30 31  2  0
 31 32  1  0
M  END
