x0692_1-x0831_0-x0770_1-x1334_1
     RDKit          3D

 17 18  0  0  0  0  0  0  0  0999 V2000
    6.3210   -3.2460   19.9000 C   0  0  0  0  0  0  0  0  0  0  0  0
    7.3230   -3.0020   18.7860 C   0  0  0  0  0  0  0  0  0  0  0  0
    5.4390   -4.1020   19.7430 O   0  0  0  0  0  0  0  0  0  0  0  0
    6.4790   -2.4860   21.0650 N   0  0  0  0  0  0  0  0  0  0  0  0
    7.3520   -1.3070   21.0320 C   0  0  0  0  0  0  0  0  0  0  0  0
    6.4070   -3.0130   22.4300 C   0  0  0  0  0  0  0  0  0  0  0  0
    8.7080   -1.5900   21.6580 C   0  0  0  0  0  0  0  0  0  0  0  0
    7.6880   -3.3720   22.9130 C   0  0  0  0  0  0  0  0  0  0  0  0
    8.6010   -2.2190   22.9820 N   0  0  0  0  0  0  0  0  0  0  0  0
    9.8490   -2.5240   23.4930 C   0  0  0  0  0  0  0  0  0  0  0  0
   10.6610   -1.1930   23.4920 C   0  0  0  0  0  0  0  0  0  0  0  0
   10.0310    0.0140   24.2030 C   0  0  0  0  0  0  0  0  0  0  0  0
   12.0410   -0.9650   22.8370 C   0  0  0  0  0  0  0  0  0  0  0  0
   12.7660   -2.0490   22.1040 C   0  0  0  0  0  0  0  0  0  0  0  0
   10.7230    1.2520   24.2200 C   0  0  0  0  0  0  0  0  0  0  0  0
   12.6670    0.2810   22.8990 C   0  0  0  0  0  0  0  0  0  0  0  0
   12.0860    1.3910   23.5460 C   0  0  0  0  0  0  0  0  0  0  0  0
  1  2  1  0
  1  3  2  0
  1  4  1  0
  4  5  1  0
  4  6  1  0
  5  7  1  0
  6  8  1  0
  7  9  1  0
  8  9  1  0
  9 10  1  0
 10 11  1  0
 11 12  2  0
 11 13  1  0
 13 14  1  0
 12 15  1  0
 13 16  2  0
 15 17  2  0
 16 17  1  0
M  END
