x0692_1-x0397_0-x0831_0-x1334_1-x1385_1-x1412_1-x1418_1-x0831_1-x0770_1-x1334_0
     RDKit          3D

 27 30  0  0  0  0  0  0  0  0999 V2000
    6.1620   -3.3420   19.9350 C   0  0  0  0  0  0  0  0  0  0  0  0
    7.1580   -2.9970   18.8300 C   0  0  0  0  0  0  0  0  0  0  0  0
    5.3100   -4.2190   19.7770 O   0  0  0  0  0  0  0  0  0  0  0  0
    6.2900   -2.6150   21.1320 N   0  0  0  0  0  0  0  0  0  0  0  0
    6.9730   -1.3260   21.1320 C   0  0  0  0  0  0  0  0  0  0  0  0
    6.3090   -3.2340   22.3580 C   0  0  2  0  0  0  0  0  0  0  0  0
    8.4290   -1.3240   21.6660 C   0  0  0  0  0  0  0  0  0  0  0  0
    7.7340   -3.3350   22.8850 C   0  0  0  0  0  0  0  0  0  0  0  0
    5.6030   -4.5690   22.3370 C   0  0  0  0  0  0  0  0  0  0  0  0
    8.5050   -2.0760   22.9330 N   0  0  0  0  0  0  0  0  0  0  0  0
    6.1520   -5.7550   23.0100 C   0  0  0  0  0  0  0  0  0  0  0  0
    6.1940   -5.9220   21.7630 C   0  0  0  0  0  0  0  0  0  0  0  0
    9.9230   -2.2260   23.2470 C   0  0  2  0  0  0  0  0  0  0  0  0
   10.3980   -3.2080   24.2650 C   0  0  0  0  0  0  0  0  0  0  0  0
   10.6490   -0.8830   23.3650 C   0  0  0  0  0  0  0  0  0  0  0  0
   10.1160    0.3310   23.9040 C   0  0  0  0  0  0  0  0  0  0  0  0
   11.9650   -0.8420   22.8940 C   0  0  0  0  0  0  0  0  0  0  0  0
    9.6340   -4.1100   25.2230 C   0  0  0  0  0  0  0  0  0  0  0  0
   12.6380   -2.0390   22.2960 C   0  0  0  0  0  0  0  0  0  0  0  0
   10.8790    1.4550   23.9440 C   0  0  0  0  0  0  0  0  0  0  0  0
   12.7450    0.3140   22.9380 C   0  0  0  0  0  0  0  0  0  0  0  0
    9.9660   -5.3960   25.4950 C   0  0  0  0  0  0  0  0  0  0  0  0
    8.2320   -3.7160   26.1810 S   0  0  0  0  0  0  0  0  0  0  0  0
   12.1860    1.4770   23.4700 C   0  0  0  0  0  0  0  0  0  0  0  0
    9.1090   -6.0690   26.4960 C   0  0  0  0  0  0  0  0  0  0  0  0
    8.1150   -5.2460   26.9640 C   0  0  0  0  0  0  0  0  0  0  0  0
    6.9240   -5.6130   28.1340 Cl  0  0  0  0  0  0  0  0  0  0  0  0
  1  2  1  0
  1  3  2  0
  1  4  1  0
  4  5  1  0
  4  6  1  0
  5  7  1  0
  6  8  1  0
  6  9  1  6
  7 10  1  0
  8 10  1  0
  9 11  1  0
  9 12  1  0
 11 12  1  0
 10 13  1  0
 13 14  1  1
 13 15  1  0
 15 16  2  0
 15 17  1  0
 14 18  1  0
 17 19  1  0
 16 20  1  0
 17 21  2  0
 18 22  2  0
 18 23  1  0
 20 24  2  0
 21 24  1  0
 22 25  1  0
 23 26  1  0
 25 26  2  0
 26 27  1  0
M  END
