x0692_1-x0434_2-x0770_1-x0397_0-x1374_1-x0831_1-x1418_1-x1334_0-x1386_1-x1412_1-x0426_1-x1385_1-x0831_0-x1334_1
     RDKit          3D

 44 49  0  0  0  0  0  0  0  0999 V2000
    1.9210   -7.4890   23.8540 O   0  0  0  0  0  0  0  0  0  0  0  0
    2.4700   -8.0440   25.0330 C   0  0  0  0  0  0  0  0  0  0  0  0
    3.8780   -7.9760   24.9520 O   0  0  0  0  0  0  0  0  0  0  0  0
    4.2910   -7.2470   23.8140 C   0  0  0  0  0  0  0  0  0  0  0  0
    4.6940   -6.0130   24.1680 C   0  0  0  0  0  0  0  0  0  0  0  0
    5.7720   -5.5350   23.2430 C   0  0  2  0  0  0  0  0  0  0  0  0
    5.4900   -4.4600   22.2600 C   0  0  2  0  0  0  0  0  0  0  0  0
    5.9130   -6.0080   21.8800 C   0  0  0  0  0  0  0  0  0  0  0  0
    6.4690   -3.2790   22.3380 C   0  0  2  0  0  0  0  0  0  0  0  0
    6.7250   -2.5780   21.0790 N   0  0  0  0  0  0  0  0  0  0  0  0
    7.6270   -3.6990   22.9230 C   0  0  0  0  0  0  0  0  0  0  0  0
    6.4160   -3.2700   19.8900 C   0  0  0  0  0  0  0  0  0  0  0  0
    8.5760   -2.6570   23.1960 N   0  0  0  0  0  0  0  0  0  0  0  0
    7.8310   -1.5580   21.1860 C   0  0  1  0  0  0  0  0  0  0  0  0
    5.4890   -4.1030   19.7630 O   0  0  0  0  0  0  0  0  0  0  0  0
    7.3070   -2.9990   18.7070 C   0  0  0  0  0  0  0  0  0  0  0  0
    9.6830   -3.1940   23.9760 C   0  0  1  0  0  0  0  0  0  0  0  0
    7.3800   -0.2300   21.7940 C   0  0  0  0  0  0  0  0  0  0  0  0
    8.9190   -1.9740   21.9440 C   0  0  0  0  0  0  0  0  0  0  0  0
    5.8590    0.0000   21.7630 C   0  0  1  0  0  0  0  0  0  0  0  0
   10.4640   -2.1440   24.7520 C   0  0  0  0  0  0  0  0  0  0  0  0
    9.2610   -4.0830   25.0470 C   0  0  0  0  0  0  0  0  0  0  0  0
    5.3390    1.0070   22.8300 C   0  0  0  0  0  0  0  0  0  0  0  0
    5.6220    0.5190   20.3560 C   0  0  0  0  0  0  0  0  0  0  0  0
    9.8170   -5.2630   25.2930 C   0  0  0  0  0  0  0  0  0  0  0  0
    7.9750   -3.8060   26.2400 S   0  0  0  0  0  0  0  0  0  0  0  0
   11.0960   -0.8840   24.1620 C   0  0  0  0  0  0  0  0  0  0  0  0
    3.8960    1.5090   22.5380 C   0  0  1  0  0  0  0  0  0  0  0  0
    4.5340    1.3480   20.0130 C   0  0  0  0  0  0  0  0  0  0  0  0
    6.6010    0.1530   19.2190 C   0  0  0  0  0  0  0  0  0  0  0  0
    9.3150   -5.9650   26.3470 C   0  0  0  0  0  0  0  0  0  0  0  0
    8.2730   -5.3050   27.0040 C   0  0  0  0  0  0  0  0  0  0  0  0
   10.5340    0.3360   24.4760 C   0  0  0  0  0  0  0  0  0  0  0  0
   12.2460   -0.9020   23.3160 C   0  0  0  0  0  0  0  0  0  0  0  0
    3.5590    2.6640   23.3340 N   0  0  0  0  0  0  0  0  0  0  0  0
    3.5220    1.7420   21.0610 C   0  0  0  0  0  0  0  0  0  0  0  0
    7.3590   -5.8020   28.3600 Cl  0  0  0  0  0  0  0  0  0  0  0  0
   12.9470   -2.1490   22.8820 C   0  0  0  0  0  0  0  0  0  0  0  0
    4.4340    1.7780   18.7030 C   0  0  0  0  0  0  0  0  0  0  0  0
    6.5180    0.5490   17.9540 N   0  0  0  0  0  0  0  0  0  0  0  0
   11.0450    1.4850   24.0210 C   0  0  0  0  0  0  0  0  0  0  0  0
   12.7870    0.4040   22.8390 C   0  0  0  0  0  0  0  0  0  0  0  0
    5.3900    1.3910   17.7350 C   0  0  0  0  0  0  0  0  0  0  0  0
   12.1590    1.5600   23.2150 C   0  0  0  0  0  0  0  0  0  0  0  0
  1  2  1  0
  2  3  1  0
  3  4  1  0
  4  5  1  0
  6  5  1  6
  6  7  1  0
  6  8  1  0
  7  8  1  6
  7  9  1  0
  9 10  1  0
  9 11  1  6
 10 12  1  0
 11 13  1  0
 10 14  1  0
 12 15  2  0
 12 16  1  0
 13 17  1  0
 14 18  1  1
 13 19  1  0
 14 19  1  0
 20 18  1  1
 17 21  1  1
 17 22  1  0
 20 23  1  0
 20 24  1  0
 22 25  2  0
 22 26  1  0
 21 27  1  0
 23 28  1  0
 24 29  2  0
 24 30  1  0
 25 31  1  0
 26 32  1  0
 31 32  2  0
 27 33  2  0
 27 34  1  0
 28 35  1  1
 28 36  1  0
 29 36  1  0
 32 37  1  0
 34 38  1  0
 29 39  1  0
 30 40  2  0
 33 41  1  0
 34 42  2  0
 39 43  2  0
 40 43  1  0
 41 44  2  0
 42 44  1  0
M  END
