x0692_1-x0967_2
     RDKit          3D

 17 17  0  0  0  0  0  0  0  0999 V2000
    6.4350    0.6020   22.6830 C   0  0  0  0  0  0  0  0  0  0  0  0
    7.8360    1.1420   22.9400 C   0  0  1  0  0  0  0  0  0  0  0  0
    8.8440    0.1690   22.3050 C   0  0  0  0  0  0  0  0  0  0  0  0
    8.0790    2.4320   22.4500 N   0  0  0  0  0  0  0  0  0  0  0  0
   10.0160    0.4760   22.1630 O   0  0  0  0  0  0  0  0  0  0  0  0
    7.2400    3.5640   22.8810 C   0  0  0  0  0  0  0  0  0  0  0  0
    8.3990   -1.1000   21.8640 C   0  0  1  0  0  0  0  0  0  0  0  0
    7.7340    4.9350   22.4070 C   0  0  0  0  0  0  0  0  0  0  0  0
    6.2310    3.4380   23.5670 O   0  0  0  0  0  0  0  0  0  0  0  0
    8.0480   -1.8160   23.0970 N   0  0  0  0  0  0  0  0  0  0  0  0
    7.2390   -1.2240   20.8250 C   0  0  0  0  0  0  0  0  0  0  0  0
    6.4460   -2.4570   20.9450 N   0  0  0  0  0  0  0  0  0  0  0  0
    7.6250   -3.1220   22.8390 C   0  0  0  0  0  0  0  0  0  0  0  0
    6.2640   -3.2570   19.8330 C   0  0  0  0  0  0  0  0  0  0  0  0
    6.3510   -3.0610   22.2800 C   0  0  0  0  0  0  0  0  0  0  0  0
    5.3940   -4.1440   19.7480 O   0  0  0  0  0  0  0  0  0  0  0  0
    7.2480   -2.9950   18.7070 C   0  0  0  0  0  0  0  0  0  0  0  0
  2  1  1  6
  2  3  1  0
  2  4  1  0
  3  5  2  0
  4  6  1  0
  7  3  1  1
  6  8  1  0
  6  9  2  0
  7 10  1  0
  7 11  1  0
 11 12  1  0
 10 13  1  0
 12 14  1  0
 12 15  1  0
 13 15  1  0
 14 16  2  0
 14 17  1  0
M  END
