x0692_1-x0831_1-x0831_0-x0426_1-x1374_1-x1385_1-x0770_1-x1334_1-x0434_2-x0397_0-x1334_0-x1418_1-x1412_1
     RDKit          3D

 44 49  0  0  0  0  0  0  0  0999 V2000
    2.0570   -7.2010   23.5380 O   0  0  0  0  0  0  0  0  0  0  0  0
    2.4400   -7.5610   24.8510 C   0  0  0  0  0  0  0  0  0  0  0  0
    3.8220   -7.8940   24.8270 O   0  0  0  0  0  0  0  0  0  0  0  0
    4.5050   -7.1630   23.8280 C   0  0  0  0  0  0  0  0  0  0  0  0
    5.1130   -6.0200   24.3040 C   0  0  0  0  0  0  0  0  0  0  0  0
    6.0620   -5.4890   23.2790 C   0  0  2  0  0  0  0  0  0  0  0  0
    5.6500   -4.3900   22.3710 C   0  0  2  0  0  0  0  0  0  0  0  0
    6.1040   -5.9680   22.0320 C   0  0  0  0  0  0  0  0  0  0  0  0
    6.4760   -3.1420   22.4120 C   0  0  2  0  0  0  0  0  0  0  0  0
    6.5990   -2.5460   21.0590 N   0  0  0  0  0  0  0  0  0  0  0  0
    7.7290   -3.3380   22.9920 C   0  0  0  0  0  0  0  0  0  0  0  0
    6.3550   -3.2740   19.8840 C   0  0  0  0  0  0  0  0  0  0  0  0
    8.4890   -2.1370   23.3010 N   0  0  0  0  0  0  0  0  0  0  0  0
    7.6500   -1.4960   21.0310 C   0  0  1  0  0  0  0  0  0  0  0  0
    5.4420   -4.1090   19.7510 O   0  0  0  0  0  0  0  0  0  0  0  0
    7.3210   -3.0220   18.7560 C   0  0  0  0  0  0  0  0  0  0  0  0
    9.9390   -2.3010   23.3110 C   0  0  2  0  0  0  0  0  0  0  0  0
    7.2850   -0.1540   21.6160 C   0  0  0  0  0  0  0  0  0  0  0  0
    8.0780   -1.0360   22.4470 C   0  0  0  0  0  0  0  0  0  0  0  0
    5.7650   -0.0540   21.6610 C   0  0  1  0  0  0  0  0  0  0  0  0
   10.5250   -3.2280   24.3690 C   0  0  0  0  0  0  0  0  0  0  0  0
   10.6760   -0.9350   23.3800 C   0  0  0  0  0  0  0  0  0  0  0  0
    5.1500    0.7940   22.8290 C   0  0  0  0  0  0  0  0  0  0  0  0
    5.6090    0.4830   20.2420 C   0  0  0  0  0  0  0  0  0  0  0  0
   10.0660    0.1960   23.9050 C   0  0  0  0  0  0  0  0  0  0  0  0
   12.1550   -0.8610   22.8380 C   0  0  0  0  0  0  0  0  0  0  0  0
    9.7090   -4.1290   25.2670 C   0  0  0  0  0  0  0  0  0  0  0  0
    4.3790    2.0210   22.3250 C   0  0  2  0  0  0  0  0  0  0  0  0
   12.8830   -2.0220   22.2450 C   0  0  0  0  0  0  0  0  0  0  0  0
    4.5670    1.3490   19.9000 C   0  0  0  0  0  0  0  0  0  0  0  0
    6.5090    0.1280   19.2660 C   0  0  0  0  0  0  0  0  0  0  0  0
   10.7620    1.4020   23.9590 C   0  0  0  0  0  0  0  0  0  0  0  0
   12.7860    0.3770   22.9270 C   0  0  0  0  0  0  0  0  0  0  0  0
    9.9730   -5.4420   25.4740 C   0  0  0  0  0  0  0  0  0  0  0  0
    8.3280   -3.7100   26.2260 S   0  0  0  0  0  0  0  0  0  0  0  0
    3.4400    2.4790   23.3250 N   0  0  0  0  0  0  0  0  0  0  0  0
    3.6330    1.6590   21.0280 C   0  0  0  0  0  0  0  0  0  0  0  0
    4.2940    2.0040   18.5050 C   0  0  0  0  0  0  0  0  0  0  0  0
    6.4370    0.5650   18.0420 N   0  0  0  0  0  0  0  0  0  0  0  0
   12.0620    1.5220   23.4990 C   0  0  0  0  0  0  0  0  0  0  0  0
    9.0720   -6.0860   26.4340 C   0  0  0  0  0  0  0  0  0  0  0  0
    8.1620   -5.2620   26.9120 C   0  0  0  0  0  0  0  0  0  0  0  0
    6.9450   -5.6050   28.0630 Cl  0  0  0  0  0  0  0  0  0  0  0  0
    5.4390    1.4000   17.7550 C   0  0  0  0  0  0  0  0  0  0  0  0
  1  2  1  0
  2  3  1  0
  3  4  1  0
  4  5  1  0
  6  5  1  1
  6  7  1  0
  6  8  1  0
  7  8  1  6
  7  9  1  0
  9 10  1  0
  9 11  1  6
 10 12  1  0
 11 13  1  0
 10 14  1  0
 12 15  2  0
 12 16  1  0
 13 17  1  0
 14 18  1  6
 13 19  1  0
 14 19  1  0
 20 18  1  1
 17 21  1  1
 17 22  1  0
 20 23  1  0
 20 24  1  0
 22 25  2  0
 22 26  1  0
 21 27  1  0
 23 28  1  0
 26 29  1  0
 24 30  2  0
 24 31  1  0
 25 32  1  0
 26 33  2  0
 27 34  2  0
 27 35  1  0
 28 36  1  1
 28 37  1  0
 30 37  1  0
 30 38  1  0
 31 39  2  0
 32 40  2  0
 33 40  1  0
 34 41  1  0
 35 42  1  0
 41 42  2  0
 42 43  1  0
 38 44  2  0
 39 44  1  0
M  END
