x0692_1-x1374_1-x1334_1-x1412_1-x0831_0-x0426_1-x0397_0-x1334_0-x0770_1-x1418_1
     RDKit          3D

 44 49  0  0  0  0  0  0  0  0999 V2000
    2.5850   -7.3990   23.0090 O   0  0  0  0  0  0  0  0  0  0  0  0
    2.7950   -7.6610   24.3800 C   0  0  0  0  0  0  0  0  0  0  0  0
    4.1950   -7.7130   24.5760 O   0  0  0  0  0  0  0  0  0  0  0  0
    4.6770   -6.5650   25.3010 C   0  0  0  0  0  0  0  0  0  0  0  0
    5.3680   -5.6350   24.4990 C   0  0  0  0  0  0  0  0  0  0  0  0
    5.9560   -6.0300   23.1580 C   0  0  2  0  0  0  0  0  0  0  0  0
    6.5440   -5.1250   22.2380 C   0  0  1  0  0  0  0  0  0  0  0  0
    5.2340   -5.8670   21.7660 C   0  0  0  0  0  0  0  0  0  0  0  0
    6.5620   -3.6420   22.4550 C   0  0  2  0  0  0  0  0  0  0  0  0
    6.5210   -2.8710   21.1970 N   0  0  0  0  0  0  0  0  0  0  0  0
    7.7710   -3.3060   23.3730 C   0  0  0  0  0  0  0  0  0  0  0  0
    6.2650   -3.4070   19.9400 C   0  0  0  0  0  0  0  0  0  0  0  0
    8.6540   -2.1740   23.1020 N   0  0  0  0  0  0  0  0  0  0  0  0
    7.2430   -1.5990   21.2320 C   0  0  2  0  0  0  0  0  0  0  0  0
    5.3350   -4.1920   19.7520 O   0  0  0  0  0  0  0  0  0  0  0  0
    7.2130   -3.0230   18.8070 C   0  0  0  0  0  0  0  0  0  0  0  0
   10.0640   -2.3740   23.3150 C   0  0  2  0  0  0  0  0  0  0  0  0
    8.6610   -1.8300   21.6820 C   0  0  0  0  0  0  0  0  0  0  0  0
    6.6210   -0.6220   22.2230 C   0  0  0  0  0  0  0  0  0  0  0  0
   10.5910   -3.1690   24.4740 C   0  0  0  0  0  0  0  0  0  0  0  0
   10.8460   -1.0670   23.3480 C   0  0  0  0  0  0  0  0  0  0  0  0
    5.3110   -0.0350   21.7300 C   0  0  1  0  0  0  0  0  0  0  0  0
   10.2420    0.1000   23.8830 C   0  0  0  0  0  0  0  0  0  0  0  0
   12.1700   -0.9080   22.8630 C   0  0  0  0  0  0  0  0  0  0  0  0
    9.6900   -4.0470   25.3790 C   0  0  0  0  0  0  0  0  0  0  0  0
    5.1030    1.1540   22.4160 C   0  0  0  0  0  0  0  0  0  0  0  0
    5.3830    0.4480   20.3120 C   0  0  0  0  0  0  0  0  0  0  0  0
   12.9840   -1.9940   22.2430 C   0  0  0  0  0  0  0  0  0  0  0  0
   10.8810    1.3240   23.9480 C   0  0  0  0  0  0  0  0  0  0  0  0
   12.7600    0.3650   22.9620 C   0  0  0  0  0  0  0  0  0  0  0  0
   10.0090   -5.3960   25.6110 C   0  0  0  0  0  0  0  0  0  0  0  0
    8.2540   -3.6770   26.2780 S   0  0  0  0  0  0  0  0  0  0  0  0
    3.6560    1.6020   22.1880 C   0  0  1  0  0  0  0  0  0  0  0  0
    4.4900    1.3550   19.9090 C   0  0  0  0  0  0  0  0  0  0  0  0
    6.3330    0.0040   19.3800 C   0  0  0  0  0  0  0  0  0  0  0  0
   12.1560    1.4820   23.4880 C   0  0  0  0  0  0  0  0  0  0  0  0
    9.1920   -6.0690   26.4560 C   0  0  0  0  0  0  0  0  0  0  0  0
    8.1590   -5.2410   26.9320 C   0  0  0  0  0  0  0  0  0  0  0  0
    3.3410    2.6550   22.9890 N   0  0  0  0  0  0  0  0  0  0  0  0
    3.4010    1.9030   20.8450 C   0  0  0  0  0  0  0  0  0  0  0  0
    4.4940    1.8590   18.6130 C   0  0  0  0  0  0  0  0  0  0  0  0
    6.4080    0.4290   18.1070 N   0  0  0  0  0  0  0  0  0  0  0  0
    6.9220   -5.6560   28.0350 Cl  0  0  0  0  0  0  0  0  0  0  0  0
    5.4570    1.3830   17.7440 C   0  0  0  0  0  0  0  0  0  0  0  0
  1  2  1  0
  2  3  1  0
  3  4  1  0
  4  5  1  0
  6  5  1  1
  6  7  1  0
  6  8  1  0
  7  8  1  6
  7  9  1  0
  9 10  1  0
  9 11  1  6
 10 12  1  0
 11 13  1  0
 10 14  1  0
 12 15  2  0
 12 16  1  0
 13 17  1  0
 13 18  1  0
 14 18  1  0
 14 19  1  1
 17 20  1  1
 17 21  1  0
 22 19  1  1
 21 23  2  0
 21 24  1  0
 20 25  1  0
 22 26  1  0
 22 27  1  0
 24 28  1  0
 23 29  1  0
 24 30  2  0
 25 31  2  0
 25 32  1  0
 26 33  1  0
 27 34  2  0
 27 35  1  0
 29 36  2  0
 30 36  1  0
 31 37  1  0
 32 38  1  0
 37 38  2  0
 33 39  1  1
 33 40  1  0
 34 40  1  0
 34 41  1  0
 35 42  2  0
 38 43  1  0
 41 44  2  0
 42 44  1  0
M  END
