x0692_1-x1374_1-x1334_1-x0426_1-x1334_0-x0831_0-x0770_1-x0397_0
     RDKit          3D

 44 49  0  0  0  0  0  0  0  0999 V2000
    1.9690   -6.7940   24.1500 O   0  0  0  0  0  0  0  0  0  0  0  0
    2.9190   -7.6550   23.5720 C   0  0  0  0  0  0  0  0  0  0  0  0
    3.9440   -7.9020   24.5230 O   0  0  0  0  0  0  0  0  0  0  0  0
    4.2760   -6.7180   25.2530 C   0  0  0  0  0  0  0  0  0  0  0  0
    4.2610   -5.6390   24.3570 C   0  0  0  0  0  0  0  0  0  0  0  0
    5.5390   -5.5660   23.5740 C   0  0  2  0  0  0  0  0  0  0  0  0
    5.6910   -4.6720   22.4390 C   0  0  2  0  0  0  0  0  0  0  0  0
    5.8500   -6.1860   22.0960 C   0  0  0  0  0  0  0  0  0  0  0  0
    6.8100   -3.6840   22.2880 C   0  0  1  0  0  0  0  0  0  0  0  0
    6.5060   -2.8360   21.1710 N   0  0  0  0  0  0  0  0  0  0  0  0
    7.1090   -3.0170   23.4740 C   0  0  0  0  0  0  0  0  0  0  0  0
    6.2930   -3.3150   19.9010 C   0  0  0  0  0  0  0  0  0  0  0  0
    8.4000   -2.3380   23.4000 N   0  0  0  0  0  0  0  0  0  0  0  0
    7.2300   -1.5610   21.3140 C   0  0  2  0  0  0  0  0  0  0  0  0
    5.3350   -4.0680   19.6910 O   0  0  0  0  0  0  0  0  0  0  0  0
    7.2700   -2.9740   18.7940 C   0  0  0  0  0  0  0  0  0  0  0  0
    9.4480   -3.2970   23.7580 C   0  0  1  0  0  0  0  0  0  0  0  0
    8.6000   -1.7960   22.0330 C   0  0  0  0  0  0  0  0  0  0  0  0
    6.3800   -0.5810   22.1390 C   0  0  0  0  0  0  0  0  0  0  0  0
   10.8320   -2.6970   23.8830 C   0  0  0  0  0  0  0  0  0  0  0  0
    9.1170   -4.1460   24.9670 C   0  0  0  0  0  0  0  0  0  0  0  0
    6.6110    0.8650   21.7340 C   0  0  2  0  0  0  0  0  0  0  0  0
    9.7450   -5.3540   25.2360 C   0  0  0  0  0  0  0  0  0  0  0  0
    7.9180   -3.8020   26.2190 S   0  0  0  0  0  0  0  0  0  0  0  0
   11.0570   -1.2030   23.8310 C   0  0  0  0  0  0  0  0  0  0  0  0
    5.9790    1.8380   22.6190 C   0  0  0  0  0  0  0  0  0  0  0  0
    6.0080    0.9620   20.3670 C   0  0  0  0  0  0  0  0  0  0  0  0
    9.2830   -6.0710   26.4650 C   0  0  0  0  0  0  0  0  0  0  0  0
    8.2000   -5.3210   27.1840 C   0  0  0  0  0  0  0  0  0  0  0  0
   10.2700   -0.1540   24.4170 C   0  0  0  0  0  0  0  0  0  0  0  0
   12.2600   -0.8220   23.0770 C   0  0  0  0  0  0  0  0  0  0  0  0
    4.5050    2.3350   22.3080 C   0  0  2  0  0  0  0  0  0  0  0  0
    4.8600    1.4920   20.0810 C   0  0  0  0  0  0  0  0  0  0  0  0
    6.8090    0.3950   19.2520 C   0  0  0  0  0  0  0  0  0  0  0  0
    7.3320   -5.6950   28.5990 Cl  0  0  0  0  0  0  0  0  0  0  0  0
   13.0850   -1.8910   22.4390 C   0  0  0  0  0  0  0  0  0  0  0  0
   10.5150    1.1870   24.3540 C   0  0  0  0  0  0  0  0  0  0  0  0
   12.6870    0.6540   22.9280 C   0  0  0  0  0  0  0  0  0  0  0  0
    3.5450    1.9370   23.3790 N   0  0  0  0  0  0  0  0  0  0  0  0
    3.9270    2.0800   21.0660 C   0  0  0  0  0  0  0  0  0  0  0  0
    4.3870    1.5680   18.8530 C   0  0  0  0  0  0  0  0  0  0  0  0
    6.3690    0.4520   17.9990 N   0  0  0  0  0  0  0  0  0  0  0  0
   11.7440    1.6480   23.6070 C   0  0  0  0  0  0  0  0  0  0  0  0
    5.1650    1.0450   17.8370 C   0  0  0  0  0  0  0  0  0  0  0  0
  1  2  1  0
  2  3  1  0
  3  4  1  0
  4  5  1  0
  6  5  1  6
  6  7  1  0
  6  8  1  0
  7  8  1  6
  7  9  1  0
  9 10  1  0
  9 11  1  1
 10 12  1  0
 11 13  1  0
 10 14  1  0
 12 15  2  0
 12 16  1  0
 13 17  1  0
 13 18  1  0
 14 18  1  0
 14 19  1  1
 17 20  1  1
 17 21  1  0
 22 19  1  1
 21 23  2  0
 21 24  1  0
 20 25  1  0
 22 26  1  0
 22 27  1  0
 23 28  1  0
 24 29  1  0
 28 29  2  0
 25 30  2  0
 25 31  1  0
 26 32  1  0
 27 33  2  0
 27 34  1  0
 29 35  1  0
 31 36  1  0
 30 37  1  0
 31 38  2  0
 32 39  1  1
 32 40  1  0
 33 40  1  0
 33 41  1  0
 34 42  2  0
 37 43  2  0
 38 43  1  0
 41 44  2  0
 42 44  1  0
M  END
