x0692_1-x1334_0-x0770_1-x1334_1-x0831_0-x1412_1-x0434_2-x1385_1-x0397_0
     RDKit          3D

 34 38  0  0  0  0  0  0  0  0999 V2000
    6.4070   -3.2600   19.8550 C   0  0  0  0  0  0  0  0  0  0  0  0
    7.3690   -3.0390   18.7200 C   0  0  0  0  0  0  0  0  0  0  0  0
    5.4210   -4.0160   19.6920 O   0  0  0  0  0  0  0  0  0  0  0  0
    6.7290   -2.6200   21.0500 N   0  0  0  0  0  0  0  0  0  0  0  0
    7.8570   -1.6460   20.9410 C   0  0  2  0  0  0  0  0  0  0  0  0
    6.8340   -3.4750   22.2330 C   0  0  1  0  0  0  0  0  0  0  0  0
    8.8220   -1.7270   21.9220 C   0  0  0  0  0  0  0  0  0  0  0  0
    7.0980   -2.5920   23.4060 C   0  0  0  0  0  0  0  0  0  0  0  0
    5.7720   -4.5430   22.3740 C   0  0  0  0  0  0  0  0  0  0  0  0
    7.4220   -0.1780   20.7980 C   0  0  0  0  0  0  0  0  0  0  0  0
    8.4820   -2.2130   23.3080 N   0  0  0  0  0  0  0  0  0  0  0  0
    6.0720   -5.7220   23.1720 C   0  0  0  0  0  0  0  0  0  0  0  0
    5.8750   -6.0830   21.7800 C   0  0  0  0  0  0  0  0  0  0  0  0
    7.1210    0.1620   19.4480 C   0  0  0  0  0  0  0  0  0  0  0  0
    9.3460   -3.2010   23.7510 C   0  0  1  0  0  0  0  0  0  0  0  0
    6.0610    0.4380   20.3630 C   0  0  0  0  0  0  0  0  0  0  0  0
    6.5440    0.5930   18.2480 N   0  0  0  0  0  0  0  0  0  0  0  0
   10.7450   -2.7060   24.0420 C   0  0  0  0  0  0  0  0  0  0  0  0
    8.9740   -4.0650   24.9830 C   0  0  0  0  0  0  0  0  0  0  0  0
    5.3500    1.1370   17.9490 C   0  0  0  0  0  0  0  0  0  0  0  0
    4.8060    0.9800   20.1650 C   0  0  0  0  0  0  0  0  0  0  0  0
    9.6760   -5.2470   25.2240 C   0  0  0  0  0  0  0  0  0  0  0  0
    7.7670   -3.8010   26.2070 S   0  0  0  0  0  0  0  0  0  0  0  0
   11.0980   -1.2550   23.8560 C   0  0  0  0  0  0  0  0  0  0  0  0
    4.3730    1.3850   18.8400 C   0  0  0  0  0  0  0  0  0  0  0  0
    9.2920   -5.9420   26.3280 C   0  0  0  0  0  0  0  0  0  0  0  0
    8.1570   -5.2420   27.0530 C   0  0  0  0  0  0  0  0  0  0  0  0
   10.3580   -0.2490   24.4230 C   0  0  0  0  0  0  0  0  0  0  0  0
   12.3030   -0.7760   23.0380 C   0  0  0  0  0  0  0  0  0  0  0  0
    7.3300   -5.7140   28.4710 Cl  0  0  0  0  0  0  0  0  0  0  0  0
   13.1700   -1.7730   22.3570 C   0  0  0  0  0  0  0  0  0  0  0  0
   10.6670    1.2790   24.2840 C   0  0  0  0  0  0  0  0  0  0  0  0
   12.6870    0.5090   22.8540 C   0  0  0  0  0  0  0  0  0  0  0  0
   11.8210    1.6220   23.5130 C   0  0  0  0  0  0  0  0  0  0  0  0
  1  2  1  0
  1  3  2  0
  1  4  1  0
  4  5  1  0
  4  6  1  0
  5  7  1  0
  6  8  1  0
  6  9  1  1
  5 10  1  1
  7 11  1  0
  8 11  1  0
  9 12  1  0
  9 13  1  0
 12 13  1  0
 10 14  1  0
 11 15  1  0
 14 16  2  0
 14 17  1  0
 15 18  1  1
 15 19  1  0
 17 20  2  0
 16 21  1  0
 19 22  2  0
 19 23  1  0
 18 24  1  0
 20 25  1  0
 21 25  2  0
 22 26  1  0
 23 27  1  0
 26 27  2  0
 24 28  2  0
 24 29  1  0
 27 30  1  0
 29 31  1  0
 28 32  1  0
 29 33  2  0
 32 34  2  0
 33 34  1  0
M  END
