x0692_1-x1386_1-x0397_0-x1374_1-x1334_1-x1418_1-x0770_1-x0831_0-x0426_1-x1412_1-x0434_2-x0831_1-x1385_1-x1334_0
     RDKit          3D

 44 49  0  0  0  0  0  0  0  0999 V2000
    2.0100   -6.6780   24.0760 O   0  0  0  0  0  0  0  0  0  0  0  0
    2.8980   -7.6330   23.5550 C   0  0  0  0  0  0  0  0  0  0  0  0
    3.8290   -8.0100   24.5650 O   0  0  0  0  0  0  0  0  0  0  0  0
    5.1090   -7.4180   24.3590 C   0  0  0  0  0  0  0  0  0  0  0  0
    4.9190   -6.0670   24.1520 C   0  0  0  0  0  0  0  0  0  0  0  0
    5.9820   -5.5480   23.2490 C   0  0  2  0  0  0  0  0  0  0  0  0
    5.6290   -4.4250   22.4000 C   0  0  2  0  0  0  0  0  0  0  0  0
    6.1170   -6.0140   22.0130 C   0  0  0  0  0  0  0  0  0  0  0  0
    6.5410   -3.2500   22.3990 C   0  0  2  0  0  0  0  0  0  0  0  0
    6.4660   -2.4960   21.2000 N   0  0  0  0  0  0  0  0  0  0  0  0
    7.9850   -3.6410   22.7610 C   0  0  0  0  0  0  0  0  0  0  0  0
    6.4190   -3.1840   19.9450 C   0  0  0  0  0  0  0  0  0  0  0  0
    9.0860   -2.6280   22.5090 N   0  0  0  0  0  0  0  0  0  0  0  0
    7.3380   -1.5140   21.6200 C   0  0  2  0  0  0  0  0  0  0  0  0
    5.5750   -4.1010   19.7710 O   0  0  0  0  0  0  0  0  0  0  0  0
    7.3200   -2.8990   18.7530 C   0  0  0  0  0  0  0  0  0  0  0  0
    9.6520   -2.0050   23.6810 C   0  0  1  0  0  0  0  0  0  0  0  0
    7.0650   -0.0560   21.3920 C   0  0  0  0  0  0  0  0  0  0  0  0
    8.7980   -1.7720   21.4320 C   0  0  0  0  0  0  0  0  0  0  0  0
    5.6410    0.2510   21.5980 C   0  0  1  0  0  0  0  0  0  0  0  0
   10.3870   -3.1020   24.3260 C   0  0  0  0  0  0  0  0  0  0  0  0
   10.5750   -0.8690   23.5360 C   0  0  0  0  0  0  0  0  0  0  0  0
    5.3190    1.3470   22.6000 C   0  0  0  0  0  0  0  0  0  0  0  0
    5.4550    0.7450   20.2130 C   0  0  0  0  0  0  0  0  0  0  0  0
   10.0290    0.4650   23.9910 C   0  0  0  0  0  0  0  0  0  0  0  0
   12.0050   -1.0170   22.9740 C   0  0  0  0  0  0  0  0  0  0  0  0
    9.6230   -3.8680   25.3990 C   0  0  0  0  0  0  0  0  0  0  0  0
    3.8790    1.8460   22.4410 C   0  0  1  0  0  0  0  0  0  0  0  0
   12.6850   -2.2460   22.4820 C   0  0  0  0  0  0  0  0  0  0  0  0
    4.4450    1.6380   19.9460 C   0  0  0  0  0  0  0  0  0  0  0  0
    6.3610    0.3120   19.0620 C   0  0  0  0  0  0  0  0  0  0  0  0
   10.8410    1.5700   23.9080 C   0  0  0  0  0  0  0  0  0  0  0  0
   12.6270    0.2220   22.9880 C   0  0  0  0  0  0  0  0  0  0  0  0
   10.2220   -5.0530   26.0730 C   0  0  0  0  0  0  0  0  0  0  0  0
    7.9440   -3.5830   26.1220 S   0  0  0  0  0  0  0  0  0  0  0  0
    3.6520    2.9280   23.3770 N   0  0  0  0  0  0  0  0  0  0  0  0
    3.4820    2.1280   20.9880 C   0  0  0  0  0  0  0  0  0  0  0  0
    4.3690    2.1020   18.5460 C   0  0  0  0  0  0  0  0  0  0  0  0
    6.3180    0.6960   17.8030 N   0  0  0  0  0  0  0  0  0  0  0  0
   12.1240    1.4360   23.4100 C   0  0  0  0  0  0  0  0  0  0  0  0
    9.4210   -5.5820   27.0390 C   0  0  0  0  0  0  0  0  0  0  0  0
    8.2250   -4.9640   27.2220 C   0  0  0  0  0  0  0  0  0  0  0  0
    7.0950   -5.4580   28.4160 Cl  0  0  0  0  0  0  0  0  0  0  0  0
    5.2330    1.6770   17.5560 C   0  0  0  0  0  0  0  0  0  0  0  0
  1  2  1  0
  2  3  1  0
  3  4  1  0
  4  5  1  0
  6  5  1  1
  6  7  1  0
  6  8  1  0
  7  8  1  6
  7  9  1  0
  9 10  1  0
  9 11  1  6
 10 12  1  0
 11 13  1  0
 10 14  1  0
 12 15  2  0
 12 16  1  0
 13 17  1  0
 14 18  1  6
 13 19  1  0
 14 19  1  0
 20 18  1  6
 17 21  1  6
 17 22  1  0
 20 23  1  0
 20 24  1  0
 22 25  2  0
 22 26  1  0
 21 27  1  0
 23 28  1  0
 26 29  1  0
 24 30  2  0
 24 31  1  0
 25 32  1  0
 26 33  2  0
 27 34  2  0
 27 35  1  0
 28 36  1  1
 28 37  1  0
 30 37  1  0
 30 38  1  0
 31 39  2  0
 32 40  2  0
 33 40  1  0
 34 41  1  0
 35 42  1  0
 41 42  2  0
 42 43  1  0
 38 44  2  0
 39 44  1  0
M  END
