x0692_1-x0397_0-x1334_1-x0770_1-x0434_2-x1386_1-x0831_0-x1375_1-x0831_1
     RDKit          3D

 31 34  0  0  0  0  0  0  0  0999 V2000
    6.3730   -3.3030   19.8390 C   0  0  0  0  0  0  0  0  0  0  0  0
    7.3100   -3.0370   18.6740 C   0  0  0  0  0  0  0  0  0  0  0  0
    5.4150   -4.0790   19.7070 O   0  0  0  0  0  0  0  0  0  0  0  0
    6.7040   -2.6530   21.0170 N   0  0  0  0  0  0  0  0  0  0  0  0
    7.7540   -1.5660   20.9070 C   0  0  2  0  0  0  0  0  0  0  0  0
    6.5040   -3.2870   22.2350 C   0  0  2  0  0  0  0  0  0  0  0  0
    8.8310   -1.4870   22.0120 C   0  0  0  0  0  0  0  0  0  0  0  0
    7.5460   -2.8980   23.3330 C   0  0  0  0  0  0  0  0  0  0  0  0
    6.5490   -4.8020   22.0740 C   0  0  1  0  0  0  0  0  0  0  0  0
    7.2310   -0.1800   20.6380 C   0  0  0  0  0  0  0  0  0  0  0  0
    8.9060   -2.6030   22.8850 N   0  0  0  0  0  0  0  0  0  0  0  0
    6.3620   -5.7860   23.1290 C   0  0  2  0  0  0  0  0  0  0  0  0
    5.4530   -5.6350   21.7140 C   0  0  0  0  0  0  0  0  0  0  0  0
    7.0090    0.2210   19.3220 C   0  0  0  0  0  0  0  0  0  0  0  0
    9.8700   -2.3830   23.8760 C   0  0  0  0  0  0  0  0  0  0  0  0
    5.9540    0.4730   20.2270 C   0  0  0  0  0  0  0  0  0  0  0  0
    6.4120    0.7900   18.0300 N   0  0  0  0  0  0  0  0  0  0  0  0
    5.4120   -5.7830   24.3220 C   0  0  0  0  0  0  0  0  0  0  0  0
   10.6880   -1.0850   23.7210 C   0  0  0  0  0  0  0  0  0  0  0  0
    5.2320    1.3930   17.7730 C   0  0  0  0  0  0  0  0  0  0  0  0
    4.7240    1.0550   20.0780 C   0  0  0  0  0  0  0  0  0  0  0  0
    4.7640   -7.0600   24.4510 O   0  0  0  0  0  0  0  0  0  0  0  0
   10.2620    0.1670   24.2410 C   0  0  0  0  0  0  0  0  0  0  0  0
   11.9410   -1.0500   23.0360 C   0  0  0  0  0  0  0  0  0  0  0  0
    4.3510    1.5170   18.8830 C   0  0  0  0  0  0  0  0  0  0  0  0
    3.5590   -7.0050   25.1860 C   0  0  0  0  0  0  0  0  0  0  0  0
   12.5640   -2.2600   22.4070 C   0  0  0  0  0  0  0  0  0  0  0  0
   10.9690    1.3590   24.1150 C   0  0  0  0  0  0  0  0  0  0  0  0
   12.7750    0.3220   22.8910 C   0  0  0  0  0  0  0  0  0  0  0  0
    2.4520   -7.1330   24.3170 O   0  0  0  0  0  0  0  0  0  0  0  0
   12.1920    1.4340   23.4590 C   0  0  0  0  0  0  0  0  0  0  0  0
  1  2  1  0
  1  3  2  0
  1  4  1  0
  4  5  1  0
  4  6  1  0
  5  7  1  0
  6  8  1  1
  6  9  1  0
  5 10  1  1
  7 11  1  0
  8 11  1  0
  9 12  1  0
  9 13  1  6
 12 13  1  0
 10 14  1  0
 11 15  1  0
 14 16  2  0
 14 17  1  0
 12 18  1  1
 15 19  1  0
 17 20  2  0
 16 21  1  0
 18 22  1  0
 19 23  2  0
 19 24  1  0
 20 25  1  0
 21 25  2  0
 22 26  1  0
 24 27  1  0
 23 28  1  0
 24 29  2  0
 26 30  1  0
 28 31  2  0
 29 31  1  0
M  END
