x0692_1-x1412_1-x1412_0-x1386_0
     RDKit          3D

 22 24  0  0  0  0  0  0  0  0999 V2000
    6.2000   -3.2600   19.8530 C   0  0  0  0  0  0  0  0  0  0  0  0
    7.1730   -2.9820   18.7300 C   0  0  0  0  0  0  0  0  0  0  0  0
    5.3120   -4.1070   19.6970 O   0  0  0  0  0  0  0  0  0  0  0  0
    6.3570   -2.5780   21.0380 N   0  0  0  0  0  0  0  0  0  0  0  0
    7.3250   -1.4690   21.1810 C   0  0  0  0  0  0  0  0  0  0  0  0
    5.9400   -3.1930   22.3010 C   0  0  0  0  0  0  0  0  0  0  0  0
    8.4490   -1.7880   22.1860 C   0  0  0  0  0  0  0  0  0  0  0  0
    7.1490   -3.5610   23.1710 C   0  0  0  0  0  0  0  0  0  0  0  0
    7.9570   -2.3760   23.4610 N   0  0  0  0  0  0  0  0  0  0  0  0
    8.9650   -2.5130   24.5350 C   0  0  2  0  0  0  0  0  0  0  0  0
    8.8910   -1.2810   25.2620 O   0  0  0  0  0  0  0  0  0  0  0  0
   10.4210   -2.6720   23.9820 C   0  0  0  0  0  0  0  0  0  0  0  0
    8.8230   -3.6530   25.5730 C   0  0  0  0  0  0  0  0  0  0  0  0
    9.7710   -4.8370   25.7410 C   0  0  0  0  0  0  0  0  0  0  0  0
    7.5640   -3.7980   26.7540 S   0  0  0  0  0  0  0  0  0  0  0  0
   11.2330   -1.4440   23.7280 C   0  0  0  0  0  0  0  0  0  0  0  0
    9.3580   -5.7020   26.7850 C   0  0  0  0  0  0  0  0  0  0  0  0
    8.1820   -5.2560   27.4180 C   0  0  0  0  0  0  0  0  0  0  0  0
   12.3130   -1.4140   22.8600 C   0  0  0  0  0  0  0  0  0  0  0  0
   11.0480   -0.1940   24.2910 C   0  0  0  0  0  0  0  0  0  0  0  0
   12.9430   -0.2120   22.7400 C   0  0  0  0  0  0  0  0  0  0  0  0
   12.1900    0.9490   23.7250 S   0  0  0  0  0  0  0  0  0  0  0  0
  1  2  1  0
  1  3  2  0
  1  4  1  0
  4  5  1  0
  4  6  1  0
  5  7  1  0
  6  8  1  0
  7  9  1  0
  8  9  1  0
  9 10  1  0
 10 11  1  1
 10 12  1  0
 10 13  1  0
 13 14  2  0
 13 15  1  0
 12 16  1  0
 14 17  1  0
 15 18  1  0
 17 18  2  0
 16 19  1  0
 16 20  2  0
 19 21  2  0
 20 22  1  0
 21 22  1  0
M  END
