x0692_1-x1374_1-x1412_1-x0434_2-x1334_0-x0770_1-x1385_1-x1386_1-x1418_1-x0426_1-x0397_0-x0831_1-x0831_0-x1334_1
     RDKit          3D

 44 49  0  0  0  0  0  0  0  0999 V2000
    2.0500   -7.1460   23.6610 O   0  0  0  0  0  0  0  0  0  0  0  0
    2.5030   -7.4550   24.9680 C   0  0  0  0  0  0  0  0  0  0  0  0
    3.8730   -7.8090   24.9600 O   0  0  0  0  0  0  0  0  0  0  0  0
    4.5120   -7.1960   23.8580 C   0  0  0  0  0  0  0  0  0  0  0  0
    5.0750   -6.0000   24.1880 C   0  0  0  0  0  0  0  0  0  0  0  0
    6.0240   -5.5870   23.1110 C   0  0  2  0  0  0  0  0  0  0  0  0
    5.7050   -4.6950   22.1870 C   0  0  2  0  0  0  0  0  0  0  0  0
    6.1150   -6.2780   21.9910 C   0  0  0  0  0  0  0  0  0  0  0  0
    6.7620   -3.6010   22.1480 C   0  0  1  0  0  0  0  0  0  0  0  0
    6.5200   -2.6560   21.0580 N   0  0  0  0  0  0  0  0  0  0  0  0
    7.0210   -3.0060   23.3670 C   0  0  0  0  0  0  0  0  0  0  0  0
    6.2860   -3.2310   19.8130 C   0  0  0  0  0  0  0  0  0  0  0  0
    8.2790   -2.2750   23.3210 N   0  0  0  0  0  0  0  0  0  0  0  0
    7.5390   -1.6080   21.1320 C   0  0  1  0  0  0  0  0  0  0  0  0
    5.3340   -4.0150   19.6400 O   0  0  0  0  0  0  0  0  0  0  0  0
    7.2450   -2.9660   18.6870 C   0  0  0  0  0  0  0  0  0  0  0  0
    9.3140   -2.6850   24.2550 C   0  0  2  0  0  0  0  0  0  0  0  0
    7.0520   -0.3840   21.8540 C   0  0  0  0  0  0  0  0  0  0  0  0
    8.7350   -2.0360   21.9350 C   0  0  0  0  0  0  0  0  0  0  0  0
    5.5530   -0.2360   21.6430 C   0  0  1  0  0  0  0  0  0  0  0  0
   10.6580   -2.5940   23.5840 C   0  0  0  0  0  0  0  0  0  0  0  0
    9.0800   -3.8620   25.2240 C   0  0  0  0  0  0  0  0  0  0  0  0
    4.7690    0.5830   22.6850 C   0  0  0  0  0  0  0  0  0  0  0  0
    5.4690    0.3840   20.2370 C   0  0  0  0  0  0  0  0  0  0  0  0
    9.8650   -5.1370   25.3340 C   0  0  0  0  0  0  0  0  0  0  0  0
    7.8140   -3.8380   26.3900 S   0  0  0  0  0  0  0  0  0  0  0  0
   11.1120   -1.1590   23.5370 C   0  0  0  0  0  0  0  0  0  0  0  0
    4.2180    1.9300   22.2500 C   0  0  2  0  0  0  0  0  0  0  0  0
    4.4540    1.2980   19.9150 C   0  0  0  0  0  0  0  0  0  0  0  0
    6.4010    0.0650   19.2190 C   0  0  0  0  0  0  0  0  0  0  0  0
    9.4190   -5.9800   26.3210 C   0  0  0  0  0  0  0  0  0  0  0  0
    8.2190   -5.3620   27.0460 C   0  0  0  0  0  0  0  0  0  0  0  0
   10.2880    0.0380   24.0330 C   0  0  0  0  0  0  0  0  0  0  0  0
   12.3620   -0.8570   23.0140 C   0  0  0  0  0  0  0  0  0  0  0  0
    3.4030    2.5450   23.2840 N   0  0  0  0  0  0  0  0  0  0  0  0
    3.4570    1.6420   20.9730 C   0  0  0  0  0  0  0  0  0  0  0  0
    7.3010   -5.9780   28.3450 Cl  0  0  0  0  0  0  0  0  0  0  0  0
   13.2010   -1.9510   22.4920 C   0  0  0  0  0  0  0  0  0  0  0  0
    4.4380    1.8480   18.6000 C   0  0  0  0  0  0  0  0  0  0  0  0
    6.3820    0.6130   17.8860 N   0  0  0  0  0  0  0  0  0  0  0  0
   10.9260    1.3820   23.9160 C   0  0  0  0  0  0  0  0  0  0  0  0
   12.8520    0.4440   22.9590 C   0  0  0  0  0  0  0  0  0  0  0  0
    5.3310    1.5280   17.6710 C   0  0  0  0  0  0  0  0  0  0  0  0
   12.1440    1.5540   23.4060 C   0  0  0  0  0  0  0  0  0  0  0  0
  1  2  1  0
  2  3  1  0
  3  4  1  0
  4  5  1  0
  6  5  1  1
  6  7  1  0
  6  8  1  0
  7  8  1  6
  7  9  1  0
  9 10  1  0
  9 11  1  1
 10 12  1  0
 11 13  1  0
 10 14  1  0
 12 15  2  0
 12 16  1  0
 13 17  1  0
 14 18  1  1
 13 19  1  0
 14 19  1  0
 20 18  1  1
 17 21  1  6
 17 22  1  0
 20 23  1  0
 20 24  1  0
 22 25  2  0
 22 26  1  0
 21 27  1  0
 23 28  1  0
 24 29  2  0
 24 30  1  0
 25 31  1  0
 26 32  1  0
 31 32  2  0
 27 33  2  0
 27 34  1  0
 28 35  1  1
 28 36  1  0
 29 36  1  0
 32 37  1  0
 34 38  1  0
 29 39  1  0
 30 40  2  0
 33 41  1  0
 34 42  2  0
 39 43  2  0
 40 43  1  0
 41 44  2  0
 42 44  1  0
M  END
