x0692_1-x0831_0-x1418_0-x1334_1
     RDKit          3D

 18 19  0  0  0  0  0  0  0  0999 V2000
    6.2930   -3.2490   19.8750 C   0  0  0  0  0  0  0  0  0  0  0  0
    7.2630   -3.0000   18.7410 C   0  0  0  0  0  0  0  0  0  0  0  0
    5.4310   -4.1340   19.7620 O   0  0  0  0  0  0  0  0  0  0  0  0
    6.4460   -2.4580   21.0050 N   0  0  0  0  0  0  0  0  0  0  0  0
    7.2500   -1.2270   20.9640 C   0  0  0  0  0  0  0  0  0  0  0  0
    6.3930   -3.1180   22.3150 C   0  0  0  0  0  0  0  0  0  0  0  0
    8.5840   -1.3750   21.7090 C   0  0  0  0  0  0  0  0  0  0  0  0
    7.6120   -3.2250   22.9220 C   0  0  0  0  0  0  0  0  0  0  0  0
    8.4200   -1.9830   23.0290 N   0  0  0  0  0  0  0  0  0  0  0  0
    9.6180   -2.0390   23.8830 C   0  0  1  0  0  0  0  0  0  0  0  0
   10.3570   -3.3310   23.7290 C   0  0  0  0  0  0  0  0  0  0  0  0
   10.5370   -0.7890   23.7120 C   0  0  0  0  0  0  0  0  0  0  0  0
   10.1290    0.5560   24.2070 C   0  0  0  0  0  0  0  0  0  0  0  0
   11.8940   -0.8970   23.0270 C   0  0  0  0  0  0  0  0  0  0  0  0
   12.4910   -2.1490   22.4500 C   0  0  0  0  0  0  0  0  0  0  0  0
   10.9320    1.7300   24.0670 C   0  0  0  0  0  0  0  0  0  0  0  0
   12.7310    0.3740   22.9040 C   0  0  0  0  0  0  0  0  0  0  0  0
   12.2850    1.5760   23.3790 C   0  0  0  0  0  0  0  0  0  0  0  0
  1  2  1  0
  1  3  2  0
  1  4  1  0
  4  5  1  0
  4  6  1  0
  5  7  1  0
  6  8  1  0
  7  9  1  0
  8  9  1  0
  9 10  1  0
 10 11  1  6
 10 12  1  0
 12 13  2  0
 12 14  1  0
 14 15  1  0
 13 16  1  0
 14 17  2  0
 16 18  2  0
 17 18  1  0
M  END
