x0692_1-x1386_1-x0770_1-x1334_1-x1385_1-x0434_2-x1374_1-x0397_0-x0831_0-x1334_0-x0426_1-x1418_1
     RDKit          3D

 44 49  0  0  0  0  0  0  0  0999 V2000
    2.0940   -7.2540   23.8280 O   0  0  0  0  0  0  0  0  0  0  0  0
    2.6480   -7.6150   25.0800 C   0  0  0  0  0  0  0  0  0  0  0  0
    4.0600   -7.7010   25.0370 O   0  0  0  0  0  0  0  0  0  0  0  0
    4.5670   -7.1670   23.8210 C   0  0  0  0  0  0  0  0  0  0  0  0
    5.1980   -5.9610   23.9850 C   0  0  0  0  0  0  0  0  0  0  0  0
    6.0560   -5.8820   22.7670 C   0  0  2  0  0  0  0  0  0  0  0  0
    6.5950   -4.8850   22.1230 C   0  0  1  0  0  0  0  0  0  0  0  0
    5.3270   -5.8460   21.6840 C   0  0  0  0  0  0  0  0  0  0  0  0
    6.6420   -3.4790   22.3750 C   0  0  2  0  0  0  0  0  0  0  0  0
    6.6420   -2.6590   21.1260 N   0  0  0  0  0  0  0  0  0  0  0  0
    7.8800   -3.3980   23.1140 C   0  0  0  0  0  0  0  0  0  0  0  0
    6.3460   -3.3010   19.9060 C   0  0  0  0  0  0  0  0  0  0  0  0
    8.5060   -2.0920   23.4360 N   0  0  0  0  0  0  0  0  0  0  0  0
    7.6660   -1.5630   21.1440 C   0  0  1  0  0  0  0  0  0  0  0  0
    5.4190   -4.1250   19.7550 O   0  0  0  0  0  0  0  0  0  0  0  0
    7.2440   -3.0010   18.7350 C   0  0  0  0  0  0  0  0  0  0  0  0
    9.9770   -2.1940   23.4280 C   0  0  2  0  0  0  0  0  0  0  0  0
    7.3250   -0.1390   21.5750 C   0  0  0  0  0  0  0  0  0  0  0  0
    8.0450   -1.0540   22.5340 C   0  0  0  0  0  0  0  0  0  0  0  0
    5.8080    0.0090   21.5900 C   0  0  1  0  0  0  0  0  0  0  0  0
   10.5840   -3.1960   24.3710 C   0  0  0  0  0  0  0  0  0  0  0  0
   10.6660   -0.8960   23.4600 C   0  0  0  0  0  0  0  0  0  0  0  0
    5.2570    1.0340   22.5990 C   0  0  0  0  0  0  0  0  0  0  0  0
    5.6180    0.5270   20.1950 C   0  0  0  0  0  0  0  0  0  0  0  0
   10.0520    0.2480   23.9490 C   0  0  0  0  0  0  0  0  0  0  0  0
   11.9770   -0.9380   22.9550 C   0  0  0  0  0  0  0  0  0  0  0  0
    9.7590   -4.0270   25.2510 C   0  0  0  0  0  0  0  0  0  0  0  0
    3.7840    1.4190   22.4030 C   0  0  1  0  0  0  0  0  0  0  0  0
   12.6560   -2.1500   22.4080 C   0  0  0  0  0  0  0  0  0  0  0  0
    4.5610    1.4190   19.9110 C   0  0  0  0  0  0  0  0  0  0  0  0
    6.4490    0.1670   19.1900 C   0  0  0  0  0  0  0  0  0  0  0  0
   10.7910    1.4440   23.9500 C   0  0  0  0  0  0  0  0  0  0  0  0
   12.7280    0.3430   22.9720 C   0  0  0  0  0  0  0  0  0  0  0  0
   10.0290   -5.4740   25.6020 C   0  0  0  0  0  0  0  0  0  0  0  0
    8.3170   -3.6430   26.1460 S   0  0  0  0  0  0  0  0  0  0  0  0
    3.3640    2.4210   23.3640 N   0  0  0  0  0  0  0  0  0  0  0  0
    3.5670    1.8800   20.9580 C   0  0  0  0  0  0  0  0  0  0  0  0
    4.5130    1.8230   18.6630 C   0  0  0  0  0  0  0  0  0  0  0  0
    6.3950    0.5770   17.9070 N   0  0  0  0  0  0  0  0  0  0  0  0
   12.1090    1.5000   23.4710 C   0  0  0  0  0  0  0  0  0  0  0  0
    9.1580   -6.0170   26.4680 C   0  0  0  0  0  0  0  0  0  0  0  0
    8.1470   -5.1820   26.9030 C   0  0  0  0  0  0  0  0  0  0  0  0
    6.8930   -5.5410   28.0140 Cl  0  0  0  0  0  0  0  0  0  0  0  0
    5.3210    1.5000   17.6330 C   0  0  0  0  0  0  0  0  0  0  0  0
  1  2  1  0
  2  3  1  0
  3  4  1  0
  4  5  1  0
  6  5  1  1
  6  7  1  0
  6  8  1  0
  7  8  1  6
  7  9  1  0
  9 10  1  0
  9 11  1  6
 10 12  1  0
 11 13  1  0
 10 14  1  0
 12 15  2  0
 12 16  1  0
 13 17  1  0
 14 18  1  6
 13 19  1  0
 14 19  1  0
 20 18  1  1
 17 21  1  1
 17 22  1  0
 20 23  1  0
 20 24  1  0
 22 25  2  0
 22 26  1  0
 21 27  1  0
 23 28  1  0
 26 29  1  0
 24 30  2  0
 24 31  1  0
 25 32  1  0
 26 33  2  0
 27 34  2  0
 27 35  1  0
 28 36  1  1
 28 37  1  0
 30 37  1  0
 30 38  1  0
 31 39  2  0
 32 40  2  0
 33 40  1  0
 34 41  1  0
 35 42  1  0
 41 42  2  0
 42 43  1  0
 38 44  2  0
 39 44  1  0
M  END
