x0692_1-x0734_0-x1385_1-x1418_1-x1375_1-x0831_1-x1334_1-x0397_0-x0831_0-x0770_1-x0426_1-x0434_2
     RDKit          3D

 46 51  0  0  0  0  0  0  0  0999 V2000
    1.8090   -6.6280   24.2900 O   0  0  0  0  0  0  0  0  0  0  0  0
    3.0580   -6.8080   23.5860 C   0  0  0  0  0  0  0  0  0  0  0  0
    4.3010   -6.5970   24.5010 C   0  0  2  0  0  0  0  0  0  0  0  0
    4.4190   -7.7670   25.2620 O   0  0  0  0  0  0  0  0  0  0  0  0
    4.2600   -5.2770   25.1700 N   0  0  0  0  0  0  0  0  0  0  0  0
    5.4920   -6.4900   23.5560 C   0  0  0  0  0  0  0  0  0  0  0  0
    4.9060   -5.0500   26.2650 N   0  0  0  0  0  0  0  0  0  0  0  0
    5.2870   -5.6130   22.6810 C   0  0  1  0  0  0  0  0  0  0  0  0
    4.4490   -4.2510   27.1500 O   0  0  0  0  0  0  0  0  0  0  0  0
    6.3870   -5.0770   26.2250 C   0  0  0  0  0  0  0  0  0  0  0  0
    6.5320   -5.0380   22.2120 C   0  0  1  0  0  0  0  0  0  0  0  0
    5.4990   -5.8310   21.2620 C   0  0  0  0  0  0  0  0  0  0  0  0
    7.1670   -4.6860   25.1430 C   0  0  0  0  0  0  0  0  0  0  0  0
    7.0580   -5.5850   27.5420 C   0  0  0  0  0  0  0  0  0  0  0  0
    6.6500   -3.6030   22.4380 C   0  0  2  0  0  0  0  0  0  0  0  0
    8.7060   -4.7480   25.2330 C   0  0  0  0  0  0  0  0  0  0  0  0
    8.6100   -5.6790   27.7060 C   0  0  0  0  0  0  0  0  0  0  0  0
    6.4370   -2.7250   21.3360 N   0  0  0  0  0  0  0  0  0  0  0  0
    7.9300   -3.2960   23.2390 C   0  0  0  0  0  0  0  0  0  0  0  0
    9.4390   -5.2410   26.5000 C   0  0  0  0  0  0  0  0  0  0  0  0
    6.3180   -3.2290   20.0010 C   0  0  0  0  0  0  0  0  0  0  0  0
    8.7290   -2.2210   23.0560 N   0  0  0  0  0  0  0  0  0  0  0  0
    7.1050   -1.5630   21.8950 C   0  0  2  0  0  0  0  0  0  0  0  0
    5.3870   -3.9960   19.7060 O   0  0  0  0  0  0  0  0  0  0  0  0
    7.3210   -2.9220   18.9010 C   0  0  0  0  0  0  0  0  0  0  0  0
   10.1150   -2.3790   23.5220 C   0  0  0  0  0  0  0  0  0  0  0  0
    7.4350   -0.3510   21.1610 C   0  0  0  0  0  0  0  0  0  0  0  0
    8.4650   -1.5440   21.7680 C   0  0  0  0  0  0  0  0  0  0  0  0
    6.0780    0.3340   21.2350 C   0  0  1  0  0  0  0  0  0  0  0  0
   10.8440   -1.0700   23.5190 C   0  0  0  0  0  0  0  0  0  0  0  0
    5.7950    1.4220   22.1280 C   0  0  0  0  0  0  0  0  0  0  0  0
    5.7140    0.8290   19.9330 C   0  0  0  0  0  0  0  0  0  0  0  0
   10.1720    0.1310   24.1960 C   0  0  0  0  0  0  0  0  0  0  0  0
   12.2370   -0.8940   22.8470 C   0  0  0  0  0  0  0  0  0  0  0  0
    4.2780    1.5390   22.1880 C   0  0  1  0  0  0  0  0  0  0  0  0
   12.9260   -2.0360   22.1660 C   0  0  0  0  0  0  0  0  0  0  0  0
    4.6210    1.6440   19.8080 C   0  0  0  0  0  0  0  0  0  0  0  0
    6.4970    0.4620   18.8640 C   0  0  0  0  0  0  0  0  0  0  0  0
   10.9580    1.4370   24.1330 C   0  0  0  0  0  0  0  0  0  0  0  0
   12.8210    0.3440   22.8860 C   0  0  0  0  0  0  0  0  0  0  0  0
    3.9550    2.4860   23.2750 N   0  0  0  0  0  0  0  0  0  0  0  0
    3.7740    2.0140   20.9980 C   0  0  0  0  0  0  0  0  0  0  0  0
    4.3840    2.0800   18.5490 C   0  0  0  0  0  0  0  0  0  0  0  0
    6.2610    0.8800   17.6330 N   0  0  0  0  0  0  0  0  0  0  0  0
   12.2830    1.4210   23.4490 C   0  0  0  0  0  0  0  0  0  0  0  0
    5.2080    1.7000   17.4810 C   0  0  0  0  0  0  0  0  0  0  0  0
  1  2  1  0
  2  3  1  0
  3  4  1  1
  3  5  1  0
  3  6  1  0
  5  7  2  3
  8  6  1  1
  7  9  1  0
  7 10  1  0
  8 11  1  0
  8 12  1  0
 11 12  1  6
 10 13  2  0
 10 14  1  0
 11 15  1  0
 13 16  1  0
 14 17  2  0
 15 18  1  0
 15 19  1  6
 16 20  2  0
 17 20  1  0
 18 21  1  0
 19 22  1  0
 18 23  1  0
 21 24  2  0
 21 25  1  0
 22 26  1  0
 23 27  1  6
 22 28  1  0
 23 28  1  0
 29 27  1  6
 26 30  1  0
 29 31  1  0
 29 32  1  0
 30 33  2  0
 30 34  1  0
 31 35  1  0
 34 36  1  0
 32 37  2  0
 32 38  1  0
 33 39  1  0
 34 40  2  0
 35 41  1  1
 35 42  1  0
 37 42  1  0
 37 43  1  0
 38 44  2  0
 39 45  2  0
 40 45  1  0
 43 46  2  0
 44 46  1  0
M  CHG  2   7   1   9  -1
M  END
