x0692_1-x0691_1
     RDKit          3D

 22 23  0  0  0  0  0  0  0  0999 V2000
    6.2680   -3.2080   19.8210 C   0  0  0  0  0  0  0  0  0  0  0  0
    7.2140   -2.9610   18.6720 C   0  0  0  0  0  0  0  0  0  0  0  0
    5.3760   -4.0610   19.6910 O   0  0  0  0  0  0  0  0  0  0  0  0
    6.4780   -2.4560   20.9920 N   0  0  0  0  0  0  0  0  0  0  0  0
    7.4330   -1.3370   20.9910 C   0  0  0  0  0  0  0  0  0  0  0  0
    6.2840   -3.1650   22.2780 C   0  0  1  0  0  0  0  0  0  0  0  0
    5.6740   -4.4410   22.0430 C   0  0  0  0  0  0  0  0  0  0  0  0
    8.6770   -1.6830   21.8190 C   0  0  0  0  0  0  0  0  0  0  0  0
    7.4950   -3.3620   22.9730 C   0  0  0  0  0  0  0  0  0  0  0  0
    4.6690   -4.7780   23.1420 C   0  0  0  0  0  0  0  0  0  0  0  0
    8.3310   -2.1780   23.1490 N   0  0  0  0  0  0  0  0  0  0  0  0
    5.2530   -5.8150   24.0930 C   0  0  0  0  0  0  0  0  0  0  0  0
    4.6700   -5.6810   25.7710 S   0  0  0  0  0  0  0  0  0  0  0  0
    3.9350   -6.8910   26.0640 O   0  0  0  0  0  0  0  0  0  0  0  0
    5.7760   -5.2840   26.6080 O   0  0  0  0  0  0  0  0  0  0  0  0
    3.4850   -4.3550   25.7930 C   0  0  0  0  0  0  0  0  0  0  0  0
    3.9100   -3.0170   25.8730 C   0  0  0  0  0  0  0  0  0  0  0  0
    2.1080   -4.6610   25.7370 C   0  0  0  0  0  0  0  0  0  0  0  0
    2.9490   -2.0050   25.9010 C   0  0  0  0  0  0  0  0  0  0  0  0
    1.1970   -3.6700   25.7640 C   0  0  0  0  0  0  0  0  0  0  0  0
    3.3000   -0.7160   25.9800 F   0  0  0  0  0  0  0  0  0  0  0  0
    1.6590   -2.3660   25.8500 C   0  0  0  0  0  0  0  0  0  0  0  0
  1  2  1  0
  1  3  2  0
  1  4  1  0
  4  5  1  0
  4  6  1  0
  6  7  1  6
  5  8  1  0
  6  9  1  0
  7 10  1  0
  8 11  1  0
  9 11  1  0
 10 12  1  0
 13 12  1  0
 13 14  2  0
 13 15  2  0
 13 16  1  0
 16 17  2  0
 16 18  1  0
 17 19  1  0
 18 20  2  0
 19 21  1  0
 19 22  2  0
 20 22  1  0
M  END
