x0692_1-x0831_0-x0770_1-x0540_3
     RDKit          3D

 23 24  0  0  0  0  0  0  0  0999 V2000
    6.2090   -3.3150   19.9060 C   0  0  0  0  0  0  0  0  0  0  0  0
    7.2100   -2.9750   18.8070 C   0  0  0  0  0  0  0  0  0  0  0  0
    5.3250   -4.1570   19.7430 O   0  0  0  0  0  0  0  0  0  0  0  0
    6.3590   -2.6420   21.1190 N   0  0  0  0  0  0  0  0  0  0  0  0
    7.0360   -1.3520   21.2390 C   0  0  1  0  0  0  0  0  0  0  0  0
    6.4330   -3.4190   22.3880 C   0  0  0  0  0  0  0  0  0  0  0  0
    6.2940   -0.4300   22.2390 C   0  0  0  0  0  0  0  0  0  0  0  0
    8.4840   -1.5260   21.7130 C   0  0  0  0  0  0  0  0  0  0  0  0
    7.6550   -3.3330   23.1150 C   0  0  0  0  0  0  0  0  0  0  0  0
    5.1820    0.5040   21.7450 C   0  0  0  0  0  0  0  0  0  0  0  0
    8.5490   -2.1630   23.0380 N   0  0  0  0  0  0  0  0  0  0  0  0
    5.2760    1.9280   22.3400 C   0  0  0  0  0  0  0  0  0  0  0  0
    9.9460   -2.3830   23.4450 C   0  0  0  0  0  0  0  0  0  0  0  0
    3.9780    2.5830   22.4490 N   0  0  0  0  0  0  0  0  0  0  0  0
   10.7410   -1.0900   23.4850 C   0  0  0  0  0  0  0  0  0  0  0  0
    2.9260    2.1430   23.3770 C   0  0  0  0  0  0  0  0  0  0  0  0
   10.1500   -0.0640   24.1260 C   0  0  0  0  0  0  0  0  0  0  0  0
   12.0170   -0.9880   22.8700 C   0  0  0  0  0  0  0  0  0  0  0  0
    3.0360    1.4510   24.3860 O   0  0  0  0  0  0  0  0  0  0  0  0
   12.6500   -2.1430   22.1570 C   0  0  0  0  0  0  0  0  0  0  0  0
   10.8630    1.2210   24.1760 C   0  0  0  0  0  0  0  0  0  0  0  0
   12.7820    0.2800   22.8990 C   0  0  0  0  0  0  0  0  0  0  0  0
   12.2090    1.3520   23.5330 C   0  0  0  0  0  0  0  0  0  0  0  0
  1  2  1  0
  1  3  2  0
  1  4  1  0
  4  5  1  0
  4  6  1  0
  5  7  1  1
  5  8  1  0
  6  9  1  0
  7 10  1  0
  8 11  1  0
  9 11  1  0
 10 12  1  0
 11 13  1  0
 12 14  1  0
 13 15  1  0
 14 16  1  0
 15 17  2  0
 15 18  1  0
 16 19  2  0
 18 20  1  0
 17 21  1  0
 18 22  2  0
 21 23  2  0
 22 23  1  0
M  END
