x0692_1-x1375_1-x1334_1-x0426_1-x0831_0-x1334_0-x0831_1-x1412_1-x0434_2
     RDKit          3D

 44 49  0  0  0  0  0  0  0  0999 V2000
    6.3930   -3.2680   19.9400 C   0  0  0  0  0  0  0  0  0  0  0  0
    7.2950   -2.9590   18.7750 C   0  0  0  0  0  0  0  0  0  0  0  0
    5.4450   -4.0620   19.7360 O   0  0  0  0  0  0  0  0  0  0  0  0
    6.7020   -2.6680   21.2050 N   0  0  0  0  0  0  0  0  0  0  0  0
    7.4730   -1.4420   21.5130 C   0  0  2  0  0  0  0  0  0  0  0  0
    6.8050   -3.5080   22.4090 C   0  0  1  0  0  0  0  0  0  0  0  0
    6.3050   -4.9210   22.2260 C   0  0  0  0  0  0  0  0  0  0  0  0
    7.0650   -0.0780   21.0840 C   0  0  0  0  0  0  0  0  0  0  0  0
    8.7940   -1.5840   21.7760 C   0  0  0  0  0  0  0  0  0  0  0  0
    8.0900   -3.5000   22.9220 C   0  0  0  0  0  0  0  0  0  0  0  0
    5.5680   -0.0590   21.3160 C   0  0  1  0  0  0  0  0  0  0  0  0
    8.5830   -2.1360   23.1260 N   0  0  0  0  0  0  0  0  0  0  0  0
    4.9800   -5.0470   22.8810 C   0  0  2  0  0  0  0  0  0  0  0  0
    4.9900    0.7090   22.5300 C   0  0  0  0  0  0  0  0  0  0  0  0
    9.6950   -1.9130   24.0160 C   0  0  1  0  0  0  0  0  0  0  0  0
    5.3910    0.5780   20.0500 C   0  0  0  0  0  0  0  0  0  0  0  0
    4.6540   -4.5210   24.1150 C   0  0  0  0  0  0  0  0  0  0  0  0
    4.6630   -6.5510   22.9210 C   0  0  0  0  0  0  0  0  0  0  0  0
    4.1680    1.9770   22.2480 C   0  0  2  0  0  0  0  0  0  0  0  0
   10.4140   -3.1370   24.3710 C   0  0  0  0  0  0  0  0  0  0  0  0
    4.4710    1.5610   19.8060 C   0  0  0  0  0  0  0  0  0  0  0  0
    6.2270    0.1580   19.0420 C   0  0  0  0  0  0  0  0  0  0  0  0
    3.9290   -5.2190   25.0250 C   0  0  0  0  0  0  0  0  0  0  0  0
    3.5990   -6.7160   24.3010 S   0  0  0  0  0  0  0  0  0  0  0  0
   10.6720   -0.7770   23.7400 C   0  0  0  0  0  0  0  0  0  0  0  0
    3.1170    2.1440   23.2490 N   0  0  0  0  0  0  0  0  0  0  0  0
    3.5150    2.0880   20.8250 C   0  0  0  0  0  0  0  0  0  0  0  0
    2.2430   -6.8630   23.8370 O   0  0  0  0  0  0  0  0  0  0  0  0
    4.1130   -8.0040   25.1780 O   0  0  0  0  0  0  0  0  0  0  0  0
    4.3750    2.1450   18.5690 C   0  0  0  0  0  0  0  0  0  0  0  0
    6.2070    0.7010   17.7220 N   0  0  0  0  0  0  0  0  0  0  0  0
   10.2470    0.4310   24.2480 C   0  0  0  0  0  0  0  0  0  0  0  0
   11.9030   -0.8800   23.0430 C   0  0  0  0  0  0  0  0  0  0  0  0
    9.7050   -4.0570   25.3210 C   0  0  0  0  0  0  0  0  0  0  0  0
   12.4660   -2.1310   22.4370 C   0  0  0  0  0  0  0  0  0  0  0  0
    5.3140    1.6730   17.4830 C   0  0  0  0  0  0  0  0  0  0  0  0
   11.0570    1.5550   24.0560 C   0  0  0  0  0  0  0  0  0  0  0  0
   12.6750    0.2480   22.8830 C   0  0  0  0  0  0  0  0  0  0  0  0
   10.0320   -5.4650   25.6330 C   0  0  0  0  0  0  0  0  0  0  0  0
    8.2690   -3.6900   26.3430 S   0  0  0  0  0  0  0  0  0  0  0  0
   12.2670    1.4710   23.3790 C   0  0  0  0  0  0  0  0  0  0  0  0
    9.2580   -6.0870   26.5420 C   0  0  0  0  0  0  0  0  0  0  0  0
    8.2360   -5.2500   27.0490 C   0  0  0  0  0  0  0  0  0  0  0  0
    7.0650   -5.6560   28.2250 Cl  0  0  0  0  0  0  0  0  0  0  0  0
  1  2  1  0
  1  3  2  0
  1  4  1  0
  4  5  1  0
  4  6  1  0
  6  7  1  6
  5  8  1  6
  5  9  1  0
  6 10  1  0
 11  8  1  1
  9 12  1  0
 10 12  1  0
 13  7  1  1
 11 14  1  0
 12 15  1  0
 11 16  1  0
 13 17  1  0
 13 18  1  0
 14 19  1  0
 15 20  1  6
 16 21  2  0
 16 22  1  0
 17 23  2  0
 18 24  1  0
 23 24  1  0
 15 25  1  0
 19 26  1  1
 19 27  1  0
 21 27  1  0
 24 28  1  0
 24 29  1  0
 21 30  1  0
 22 31  2  0
 25 32  2  0
 25 33  1  0
 20 34  1  0
 33 35  1  0
 30 36  2  0
 31 36  1  0
 32 37  1  0
 33 38  2  0
 34 39  2  0
 34 40  1  0
 37 41  2  0
 38 41  1  0
 39 42  1  0
 40 43  1  0
 42 43  2  0
 43 44  1  0
M  END
