x0692_1-x0831_0-x1386_1-x0540_3
     RDKit          3D

 23 24  0  0  0  0  0  0  0  0999 V2000
    6.2800   -3.2220   19.8620 C   0  0  0  0  0  0  0  0  0  0  0  0
    7.2430   -2.9690   18.7160 C   0  0  0  0  0  0  0  0  0  0  0  0
    5.4120   -4.1040   19.7420 O   0  0  0  0  0  0  0  0  0  0  0  0
    6.4590   -2.4350   21.0300 N   0  0  0  0  0  0  0  0  0  0  0  0
    7.4390   -1.3310   20.8780 C   0  0  1  0  0  0  0  0  0  0  0  0
    6.3930   -2.9690   22.2250 C   0  0  0  0  0  0  0  0  0  0  0  0
    6.9040    0.0740   21.2690 C   0  0  0  0  0  0  0  0  0  0  0  0
    8.6470   -1.5600   21.5450 C   0  0  0  0  0  0  0  0  0  0  0  0
    7.6680   -3.0970   22.8700 C   0  0  0  0  0  0  0  0  0  0  0  0
    5.4160    0.1780   21.6570 C   0  0  0  0  0  0  0  0  0  0  0  0
    8.4050   -1.9510   22.9400 N   0  0  0  0  0  0  0  0  0  0  0  0
    5.1680    1.1450   22.8440 C   0  0  0  0  0  0  0  0  0  0  0  0
    9.6650   -2.2050   23.6600 C   0  0  0  0  0  0  0  0  0  0  0  0
    4.1400    2.1590   22.5350 N   0  0  0  0  0  0  0  0  0  0  0  0
   10.6580   -1.0260   23.5410 C   0  0  0  0  0  0  0  0  0  0  0  0
    2.9350    2.2800   23.3650 C   0  0  0  0  0  0  0  0  0  0  0  0
   10.1860    0.1330   24.1350 C   0  0  0  0  0  0  0  0  0  0  0  0
   11.9300   -1.0150   22.9090 C   0  0  0  0  0  0  0  0  0  0  0  0
    2.9420    1.5220   24.3380 O   0  0  0  0  0  0  0  0  0  0  0  0
   12.5580   -2.2250   22.2120 C   0  0  0  0  0  0  0  0  0  0  0  0
   10.8890    1.3150   24.1420 C   0  0  0  0  0  0  0  0  0  0  0  0
   12.7010    0.2610   22.9200 C   0  0  0  0  0  0  0  0  0  0  0  0
   12.1550    1.3880   23.5320 C   0  0  0  0  0  0  0  0  0  0  0  0
  1  2  1  0
  1  3  2  0
  1  4  1  0
  4  5  1  0
  4  6  1  0
  5  7  1  1
  5  8  1  0
  6  9  1  0
  7 10  1  0
  8 11  1  0
  9 11  1  0
 10 12  1  0
 11 13  1  0
 12 14  1  0
 13 15  1  0
 14 16  1  0
 15 17  2  0
 15 18  1  0
 16 19  2  0
 18 20  1  0
 17 21  1  0
 18 22  2  0
 21 23  2  0
 22 23  1  0
M  END
