x0692_1-x0397_0-x0831_1-x1412_1-x1334_0-x1334_1-x0831_0-x0426_1-x0434_2-x1418_1-x1385_1
     RDKit          3D

 39 44  0  0  0  0  0  0  0  0999 V2000
    6.2950   -3.2820   19.8200 C   0  0  0  0  0  0  0  0  0  0  0  0
    7.2710   -2.9970   18.7000 C   0  0  0  0  0  0  0  0  0  0  0  0
    5.3720   -4.0950   19.6920 O   0  0  0  0  0  0  0  0  0  0  0  0
    6.5280   -2.6030   21.0000 N   0  0  0  0  0  0  0  0  0  0  0  0
    7.6090   -1.5980   21.0330 C   0  0  1  0  0  0  0  0  0  0  0  0
    6.0060   -3.0480   22.2980 C   0  0  2  0  0  0  0  0  0  0  0  0
    7.2700   -0.2950   21.7410 C   0  0  0  0  0  0  0  0  0  0  0  0
    8.3160   -1.3810   22.3520 C   0  0  0  0  0  0  0  0  0  0  0  0
    6.7420   -2.9780   23.4810 C   0  0  0  0  0  0  0  0  0  0  0  0
    6.4100   -4.4460   22.7810 C   0  0  0  0  0  0  0  0  0  0  0  0
    5.7630    0.0510   21.8020 C   0  0  1  0  0  0  0  0  0  0  0  0
    8.1140   -2.3840   23.4390 N   0  0  0  0  0  0  0  0  0  0  0  0
    5.6780   -5.4610   23.0720 C   0  0  0  0  0  0  0  0  0  0  0  0
    6.1640   -5.8640   21.9490 C   0  0  0  0  0  0  0  0  0  0  0  0
    5.2720    1.1230   22.7990 C   0  0  0  0  0  0  0  0  0  0  0  0
    9.2040   -3.3640   23.5280 C   0  0  1  0  0  0  0  0  0  0  0  0
    5.5730    0.5460   20.4100 C   0  0  0  0  0  0  0  0  0  0  0  0
    3.7910    1.5130   22.5540 C   0  0  1  0  0  0  0  0  0  0  0  0
   10.5780   -2.7500   23.1730 C   0  0  0  0  0  0  0  0  0  0  0  0
    4.5440    1.3950   20.0500 C   0  0  0  0  0  0  0  0  0  0  0  0
    6.5860    0.1010   19.2810 C   0  0  0  0  0  0  0  0  0  0  0  0
    9.1310   -4.2490   24.7370 C   0  0  0  0  0  0  0  0  0  0  0  0
    3.4970    2.3880   23.4700 N   0  0  0  0  0  0  0  0  0  0  0  0
    3.5210    1.8730   21.0410 C   0  0  0  0  0  0  0  0  0  0  0  0
    4.4890    1.8120   18.6860 C   0  0  0  0  0  0  0  0  0  0  0  0
    6.5530    0.4730   17.9880 N   0  0  0  0  0  0  0  0  0  0  0  0
    9.7900   -5.3790   25.1740 C   0  0  0  0  0  0  0  0  0  0  0  0
    7.9050   -3.8690   26.0050 S   0  0  0  0  0  0  0  0  0  0  0  0
   10.8880   -1.2670   23.4350 C   0  0  0  0  0  0  0  0  0  0  0  0
    5.5460    1.3030   17.7070 C   0  0  0  0  0  0  0  0  0  0  0  0
    9.3470   -5.8870   26.3820 C   0  0  0  0  0  0  0  0  0  0  0  0
    8.3300   -5.2040   26.9720 C   0  0  0  0  0  0  0  0  0  0  0  0
   10.1040   -0.3320   24.2190 C   0  0  0  0  0  0  0  0  0  0  0  0
   12.0940   -0.8500   22.8170 C   0  0  0  0  0  0  0  0  0  0  0  0
    7.5210   -5.5360   28.4410 Cl  0  0  0  0  0  0  0  0  0  0  0  0
   12.8890   -1.8080   22.0130 C   0  0  0  0  0  0  0  0  0  0  0  0
   10.6000    0.9490   24.3110 C   0  0  0  0  0  0  0  0  0  0  0  0
   12.5900    0.3870   22.9050 C   0  0  0  0  0  0  0  0  0  0  0  0
   11.9150    1.3330   23.6190 C   0  0  0  0  0  0  0  0  0  0  0  0
  1  2  1  0
  1  3  2  0
  1  4  1  0
  4  5  1  0
  4  6  1  0
  5  7  1  1
  5  8  1  0
  6  9  1  0
  6 10  1  6
 11  7  1  1
  8 12  1  0
  9 12  1  0
 10 13  1  0
 10 14  1  0
 13 14  1  0
 11 15  1  0
 12 16  1  0
 11 17  1  0
 15 18  1  0
 16 19  1  1
 17 20  2  0
 17 21  1  0
 16 22  1  0
 18 23  1  1
 18 24  1  0
 20 24  1  0
 20 25  1  0
 21 26  2  0
 22 27  2  0
 22 28  1  0
 19 29  1  0
 25 30  2  0
 26 30  1  0
 27 31  1  0
 28 32  1  0
 31 32  2  0
 29 33  2  0
 29 34  1  0
 32 35  1  0
 34 36  1  0
 33 37  1  0
 34 38  2  0
 37 39  2  0
 38 39  1  0
M  END
