x0692_1-x1412_0-x1386_0
     RDKit          3D

 22 24  0  0  0  0  0  0  0  0999 V2000
    6.2740   -3.2510   19.8750 C   0  0  0  0  0  0  0  0  0  0  0  0
    7.2200   -2.9730   18.7300 C   0  0  0  0  0  0  0  0  0  0  0  0
    5.4090   -4.1220   19.7280 O   0  0  0  0  0  0  0  0  0  0  0  0
    6.4190   -2.5430   21.0600 N   0  0  0  0  0  0  0  0  0  0  0  0
    7.4710   -1.4960   21.1920 C   0  0  0  0  0  0  0  0  0  0  0  0
    6.0100   -3.1750   22.3340 C   0  0  0  0  0  0  0  0  0  0  0  0
    8.6060   -1.8890   22.1740 C   0  0  0  0  0  0  0  0  0  0  0  0
    7.2020   -3.6340   23.1540 C   0  0  0  0  0  0  0  0  0  0  0  0
    8.1300   -2.5370   23.4110 N   0  0  0  0  0  0  0  0  0  0  0  0
    8.8870   -2.4830   24.5610 C   0  0  2  0  0  0  0  0  0  0  0  0
    8.7570   -1.4770   25.2500 O   0  0  0  0  0  0  0  0  0  0  0  0
   10.3660   -2.6750   24.2030 C   0  0  0  0  0  0  0  0  0  0  0  0
    8.7700   -3.6360   25.5690 C   0  0  0  0  0  0  0  0  0  0  0  0
    9.6360   -4.7200   25.5520 C   0  0  0  0  0  0  0  0  0  0  0  0
    7.6330   -3.8220   26.8520 S   0  0  0  0  0  0  0  0  0  0  0  0
   11.2130   -1.4990   23.8250 C   0  0  0  0  0  0  0  0  0  0  0  0
    9.4060   -5.6330   26.5000 C   0  0  0  0  0  0  0  0  0  0  0  0
    8.3420   -5.3210   27.3270 C   0  0  0  0  0  0  0  0  0  0  0  0
   12.2280   -1.4900   22.8940 C   0  0  0  0  0  0  0  0  0  0  0  0
   11.0980   -0.2140   24.3750 C   0  0  0  0  0  0  0  0  0  0  0  0
   12.9040   -0.1830   22.7190 C   0  0  0  0  0  0  0  0  0  0  0  0
   12.2090    0.9600   23.7400 S   0  0  0  0  0  0  0  0  0  0  0  0
  1  2  1  0
  1  3  2  0
  1  4  1  0
  4  5  1  0
  4  6  1  0
  5  7  1  0
  6  8  1  0
  7  9  1  0
  8  9  1  0
  9 10  1  0
 10 11  1  1
 10 12  1  0
 10 13  1  0
 13 14  2  0
 13 15  1  0
 12 16  1  0
 14 17  1  0
 15 18  1  0
 17 18  2  0
 16 19  1  0
 16 20  2  0
 19 21  2  0
 20 22  1  0
 21 22  1  0
M  END
