x0692_1-x0831_0-x1334_0-x0426_1-x0770_1-x0831_1-x1334_1-x1386_1-x0397_0-x1418_1-x1374_1-x1412_1-x1385_1-x0434_2
     RDKit          3D

 44 49  0  0  0  0  0  0  0  0999 V2000
    2.0220   -7.1690   23.5420 O   0  0  0  0  0  0  0  0  0  0  0  0
    2.4420   -7.5650   24.8370 C   0  0  0  0  0  0  0  0  0  0  0  0
    3.8220   -7.8840   24.8460 O   0  0  0  0  0  0  0  0  0  0  0  0
    4.5490   -7.1940   23.8430 C   0  0  0  0  0  0  0  0  0  0  0  0
    5.0310   -5.8240   24.2790 C   0  0  0  0  0  0  0  0  0  0  0  0
    6.0570   -5.3500   23.3120 C   0  0  2  0  0  0  0  0  0  0  0  0
    5.5890   -4.3440   22.2770 C   0  0  2  0  0  0  0  0  0  0  0  0
    6.1920   -5.8720   21.9110 C   0  0  0  0  0  0  0  0  0  0  0  0
    6.3590   -3.0320   22.2420 C   0  0  2  0  0  0  0  0  0  0  0  0
    6.4590   -2.4470   20.8870 N   0  0  0  0  0  0  0  0  0  0  0  0
    7.7280   -3.2720   22.8910 C   0  0  0  0  0  0  0  0  0  0  0  0
    6.2660   -3.2690   19.7980 C   0  0  0  0  0  0  0  0  0  0  0  0
    8.5520   -2.0630   22.9010 N   0  0  0  0  0  0  0  0  0  0  0  0
    7.4590   -1.5040   20.7450 C   0  0  1  0  0  0  0  0  0  0  0  0
    5.4120   -4.1790   19.7440 O   0  0  0  0  0  0  0  0  0  0  0  0
    7.1940   -3.0260   18.6360 C   0  0  0  0  0  0  0  0  0  0  0  0
    9.5760   -1.9280   23.8840 C   0  0  1  0  0  0  0  0  0  0  0  0
    7.4090   -0.3060   21.7750 C   0  0  0  0  0  0  0  0  0  0  0  0
    8.7620   -1.4960   21.6110 C   0  0  0  0  0  0  0  0  0  0  0  0
    5.9560    0.1740   21.8790 C   0  0  1  0  0  0  0  0  0  0  0  0
   10.1910   -3.2690   24.1230 C   0  0  0  0  0  0  0  0  0  0  0  0
   10.5590   -0.7230   23.6720 C   0  0  0  0  0  0  0  0  0  0  0  0
    5.5450    1.3620   22.7580 C   0  0  0  0  0  0  0  0  0  0  0  0
    5.7270    0.6030   20.4360 C   0  0  0  0  0  0  0  0  0  0  0  0
   10.0600    0.6550   24.1350 C   0  0  0  0  0  0  0  0  0  0  0  0
   11.8610   -0.7980   23.0890 C   0  0  0  0  0  0  0  0  0  0  0  0
    9.6080   -4.1630   25.1870 C   0  0  0  0  0  0  0  0  0  0  0  0
    4.0450    1.5920   22.6920 C   0  0  1  0  0  0  0  0  0  0  0  0
   12.4870   -2.0620   22.5740 C   0  0  0  0  0  0  0  0  0  0  0  0
    4.5020    1.4170   20.1610 C   0  0  0  0  0  0  0  0  0  0  0  0
    6.6410    0.2770   19.2830 C   0  0  0  0  0  0  0  0  0  0  0  0
   11.0000    1.7870   23.9310 C   0  0  0  0  0  0  0  0  0  0  0  0
   12.7210    0.2240   22.9050 C   0  0  0  0  0  0  0  0  0  0  0  0
   10.0570   -5.3910   25.6270 C   0  0  0  0  0  0  0  0  0  0  0  0
    8.1830   -3.7780   26.1050 S   0  0  0  0  0  0  0  0  0  0  0  0
    3.6300    2.7220   23.4880 N   0  0  0  0  0  0  0  0  0  0  0  0
    3.5350    1.7690   21.2540 C   0  0  0  0  0  0  0  0  0  0  0  0
    4.3800    1.8250   18.6950 C   0  0  0  0  0  0  0  0  0  0  0  0
    6.4790    0.6560   17.9920 N   0  0  0  0  0  0  0  0  0  0  0  0
   12.3430    1.6350   23.3230 C   0  0  0  0  0  0  0  0  0  0  0  0
    9.2960   -5.9800   26.6430 C   0  0  0  0  0  0  0  0  0  0  0  0
    8.2470   -5.2140   27.0130 C   0  0  0  0  0  0  0  0  0  0  0  0
    7.0890   -5.5710   28.2280 Cl  0  0  0  0  0  0  0  0  0  0  0  0
    5.3740    1.4350   17.6690 C   0  0  0  0  0  0  0  0  0  0  0  0
  1  2  1  0
  2  3  1  0
  3  4  1  0
  4  5  1  0
  6  5  1  1
  6  7  1  0
  6  8  1  0
  7  8  1  6
  7  9  1  0
  9 10  1  0
  9 11  1  6
 10 12  1  0
 11 13  1  0
 10 14  1  0
 12 15  2  0
 12 16  1  0
 13 17  1  0
 14 18  1  1
 13 19  1  0
 14 19  1  0
 20 18  1  6
 17 21  1  6
 17 22  1  0
 20 23  1  0
 20 24  1  0
 22 25  2  0
 22 26  1  0
 21 27  1  0
 23 28  1  0
 26 29  1  0
 24 30  2  0
 24 31  1  0
 25 32  1  0
 26 33  2  0
 27 34  2  0
 27 35  1  0
 28 36  1  1
 28 37  1  0
 30 37  1  0
 30 38  1  0
 31 39  2  0
 32 40  2  0
 33 40  1  0
 34 41  1  0
 35 42  1  0
 41 42  2  0
 42 43  1  0
 38 44  2  0
 39 44  1  0
M  END
