x0692_0-x1374_1-x1336_1
     RDKit          3D

 28 30  0  0  0  0  0  0  0  0999 V2000
    7.3510   -2.1570   25.0920 S   0  0  2  0  0  0  0  0  0  0  0  0
    8.5710   -1.2370   25.0630 N   0  0  0  0  0  0  0  0  0  0  0  0
    9.7320   -2.0680   24.7950 C   0  0  0  0  0  0  0  0  0  0  0  0
    6.0270   -1.3770   25.3930 N   0  0  0  0  0  0  0  0  0  0  0  0
    7.7290   -3.5010   26.1790 C   0  0  0  0  0  0  0  0  0  0  0  0
    4.8230   -2.1380   25.0220 C   0  0  0  0  0  0  0  0  0  0  0  0
    6.6450   -3.8360   27.2350 C   0  0  0  0  0  0  0  0  0  0  0  0
    8.9410   -4.2360   26.1020 C   0  0  0  0  0  0  0  0  0  0  0  0
   10.0750   -4.0270   25.1500 C   0  0  0  0  0  0  0  0  0  0  0  0
    5.0460   -2.8120   23.6680 C   0  0  0  0  0  0  0  0  0  0  0  0
    6.8630   -4.9880   28.2200 C   0  0  0  0  0  0  0  0  0  0  0  0
    9.1060   -5.3700   27.1030 C   0  0  0  0  0  0  0  0  0  0  0  0
   10.7930   -1.2380   24.1570 C   0  0  0  0  0  0  0  0  0  0  0  0
    5.8330   -5.3340   29.2450 C   0  0  0  0  0  0  0  0  0  0  0  0
    8.0360   -5.6980   28.1320 C   0  0  0  0  0  0  0  0  0  0  0  0
    4.7000   -4.2890   23.5950 C   0  0  0  0  0  0  0  0  0  0  0  0
   10.5970    0.2320   24.1390 C   0  0  0  0  0  0  0  0  0  0  0  0
   11.9450   -1.8080   23.5860 C   0  0  0  0  0  0  0  0  0  0  0  0
    5.2680   -5.0240   22.5350 C   0  0  0  0  0  0  0  0  0  0  0  0
    3.8840   -5.0440   24.4300 C   0  0  0  0  0  0  0  0  0  0  0  0
   11.4950    1.1840   23.5820 C   0  0  0  0  0  0  0  0  0  0  0  0
   12.9330   -0.8080   22.9840 C   0  0  0  0  0  0  0  0  0  0  0  0
    3.8470   -6.6270   23.8100 S   0  0  0  0  0  0  0  0  0  0  0  0
    5.1300   -6.4100   22.6180 C   0  0  0  0  0  0  0  0  0  0  0  0
   11.1790    2.6410   23.6100 C   0  0  0  0  0  0  0  0  0  0  0  0
   12.6660    0.6600   23.0100 C   0  0  0  0  0  0  0  0  0  0  0  0
    2.4560   -6.9040   23.0700 O   0  0  0  0  0  0  0  0  0  0  0  0
    4.2670   -7.7850   24.8210 O   0  0  0  0  0  0  0  0  0  0  0  0
  1  2  2  0
  2  3  1  0
  1  4  2  0
  1  5  1  1
  4  6  1  0
  5  7  2  0
  5  8  1  0
  8  9  1  0
  6 10  1  0
  7 11  1  0
  8 12  2  0
  3 13  1  0
 11 14  1  0
 11 15  2  0
 12 15  1  0
 10 16  1  0
 13 17  2  0
 13 18  1  0
 16 19  1  0
 16 20  2  0
 17 21  1  0
 18 22  2  0
 20 23  1  0
 19 24  1  0
 23 24  1  0
 21 25  1  0
 21 26  2  0
 22 26  1  0
 23 27  1  0
 23 28  1  0
M  END
