x0692_1-x0831_0-x1418_1-x0540_3
     RDKit          3D

 23 24  0  0  0  0  0  0  0  0999 V2000
    6.2110   -3.2190   19.8600 C   0  0  0  0  0  0  0  0  0  0  0  0
    7.1900   -2.9810   18.7240 C   0  0  0  0  0  0  0  0  0  0  0  0
    5.3780   -4.1310   19.7390 O   0  0  0  0  0  0  0  0  0  0  0  0
    6.3090   -2.4080   20.9950 N   0  0  0  0  0  0  0  0  0  0  0  0
    7.3020   -1.3070   20.8780 C   0  0  1  0  0  0  0  0  0  0  0  0
    6.2770   -2.9350   22.3770 C   0  0  0  0  0  0  0  0  0  0  0  0
    6.7560    0.1000   21.1900 C   0  0  0  0  0  0  0  0  0  0  0  0
    8.6200   -1.5770   21.6670 C   0  0  0  0  0  0  0  0  0  0  0  0
    7.5540   -3.2590   22.8830 C   0  0  0  0  0  0  0  0  0  0  0  0
    5.2970    0.1930   21.6830 C   0  0  0  0  0  0  0  0  0  0  0  0
    8.4590   -2.1050   22.9420 N   0  0  0  0  0  0  0  0  0  0  0  0
    5.1310    1.1860   22.8450 C   0  0  0  0  0  0  0  0  0  0  0  0
    9.8130   -2.3570   23.4980 C   0  0  0  0  0  0  0  0  0  0  0  0
    4.1620    2.2860   22.5780 N   0  0  0  0  0  0  0  0  0  0  0  0
   10.6630   -1.1040   23.4860 C   0  0  0  0  0  0  0  0  0  0  0  0
    2.9480    2.2040   23.3000 C   0  0  0  0  0  0  0  0  0  0  0  0
   10.2210    0.0690   24.0520 C   0  0  0  0  0  0  0  0  0  0  0  0
   12.0230   -0.9920   22.8650 C   0  0  0  0  0  0  0  0  0  0  0  0
    3.0220    1.4940   24.3030 O   0  0  0  0  0  0  0  0  0  0  0  0
   12.6810   -2.1600   22.1870 C   0  0  0  0  0  0  0  0  0  0  0  0
   10.9300    1.4280   24.1070 C   0  0  0  0  0  0  0  0  0  0  0  0
   12.7890    0.2670   22.8730 C   0  0  0  0  0  0  0  0  0  0  0  0
   12.2360    1.5180   23.5020 C   0  0  0  0  0  0  0  0  0  0  0  0
  1  2  1  0
  1  3  2  0
  1  4  1  0
  4  5  1  0
  4  6  1  0
  5  7  1  1
  5  8  1  0
  6  9  1  0
  7 10  1  0
  8 11  1  0
  9 11  1  0
 10 12  1  0
 11 13  1  0
 12 14  1  0
 13 15  1  0
 14 16  1  0
 15 17  2  0
 15 18  1  0
 16 19  2  0
 18 20  1  0
 17 21  1  0
 18 22  2  0
 21 23  2  0
 22 23  1  0
M  END
