x0692_1-x0434_2-x1375_1-x1334_1-x0426_1-x1418_1-x1334_0-x1385_1-x0831_0-x0831_1
     RDKit          3D

 44 49  0  0  0  0  0  0  0  0999 V2000
    6.3840   -3.1760   19.7720 C   0  0  0  0  0  0  0  0  0  0  0  0
    7.2830   -2.9390   18.5980 C   0  0  0  0  0  0  0  0  0  0  0  0
    5.4200   -3.9520   19.6340 O   0  0  0  0  0  0  0  0  0  0  0  0
    6.7190   -2.5300   20.9800 N   0  0  0  0  0  0  0  0  0  0  0  0
    7.8590   -1.5470   21.1250 C   0  0  1  0  0  0  0  0  0  0  0  0
    6.4160   -3.3260   22.1870 C   0  0  1  0  0  0  0  0  0  0  0  0
    5.6840   -4.6200   21.8810 C   0  0  0  0  0  0  0  0  0  0  0  0
    7.4900   -0.1600   21.6740 C   0  0  0  0  0  0  0  0  0  0  0  0
    8.8930   -1.9970   21.9420 C   0  0  0  0  0  0  0  0  0  0  0  0
    7.5550   -3.6560   22.8530 C   0  0  0  0  0  0  0  0  0  0  0  0
    5.9740    0.0140   21.7470 C   0  0  1  0  0  0  0  0  0  0  0  0
    8.2390   -2.4520   23.2050 N   0  0  0  0  0  0  0  0  0  0  0  0
    4.6530   -4.9210   22.8980 C   0  0  2  0  0  0  0  0  0  0  0  0
    5.4270    0.9880   22.8210 C   0  0  0  0  0  0  0  0  0  0  0  0
    9.1460   -2.5520   24.3310 C   0  0  2  0  0  0  0  0  0  0  0  0
    5.7570    0.5040   20.3730 C   0  0  0  0  0  0  0  0  0  0  0  0
    4.6520   -4.4900   24.2050 C   0  0  0  0  0  0  0  0  0  0  0  0
    4.5200   -6.4600   22.9440 C   0  0  0  0  0  0  0  0  0  0  0  0
    4.3560    2.0190   22.4070 C   0  0  2  0  0  0  0  0  0  0  0  0
   10.6190   -2.5230   23.9470 C   0  0  0  0  0  0  0  0  0  0  0  0
    4.7220    1.3610   20.0170 C   0  0  0  0  0  0  0  0  0  0  0  0
    6.6230    0.1060   19.3670 C   0  0  0  0  0  0  0  0  0  0  0  0
    4.1330   -5.2650   25.1890 C   0  0  0  0  0  0  0  0  0  0  0  0
    3.6070   -6.6830   24.4180 S   0  0  0  0  0  0  0  0  0  0  0  0
    9.0220   -3.7420   25.2780 C   0  0  0  0  0  0  0  0  0  0  0  0
    3.2920    2.0120   23.4000 N   0  0  0  0  0  0  0  0  0  0  0  0
    3.7000    1.8780   20.9830 C   0  0  0  0  0  0  0  0  0  0  0  0
    2.2010   -6.7060   24.0950 O   0  0  0  0  0  0  0  0  0  0  0  0
    4.1160   -8.0560   25.1540 O   0  0  0  0  0  0  0  0  0  0  0  0
    4.5480    1.8220   18.7250 C   0  0  0  0  0  0  0  0  0  0  0  0
    6.5160    0.5310   17.9940 N   0  0  0  0  0  0  0  0  0  0  0  0
    9.8120   -4.8730   25.3080 C   0  0  0  0  0  0  0  0  0  0  0  0
    7.8180   -3.8140   26.4840 S   0  0  0  0  0  0  0  0  0  0  0  0
   11.0980   -1.0880   23.8060 C   0  0  0  0  0  0  0  0  0  0  0  0
    5.5270    1.3650   17.6650 C   0  0  0  0  0  0  0  0  0  0  0  0
    9.4080   -5.7570   26.3150 C   0  0  0  0  0  0  0  0  0  0  0  0
    8.3160   -5.3330   27.0730 C   0  0  0  0  0  0  0  0  0  0  0  0
   10.3830   -0.0680   24.3750 C   0  0  0  0  0  0  0  0  0  0  0  0
   12.3000   -0.9010   23.0610 C   0  0  0  0  0  0  0  0  0  0  0  0
    7.4810   -6.0400   28.3810 Cl  0  0  0  0  0  0  0  0  0  0  0  0
   13.0540   -2.0130   22.4290 C   0  0  0  0  0  0  0  0  0  0  0  0
   10.7840    1.2520   24.2650 C   0  0  0  0  0  0  0  0  0  0  0  0
   12.8460    0.5590   22.8980 C   0  0  0  0  0  0  0  0  0  0  0  0
   12.0510    1.6300   23.5160 C   0  0  0  0  0  0  0  0  0  0  0  0
  1  2  1  0
  1  3  2  0
  1  4  1  0
  4  5  1  0
  4  6  1  0
  6  7  1  6
  5  8  1  1
  5  9  1  0
  6 10  1  0
 11  8  1  1
  9 12  1  0
 10 12  1  0
 13  7  1  1
 11 14  1  0
 12 15  1  0
 11 16  1  0
 13 17  1  0
 13 18  1  0
 14 19  1  0
 15 20  1  6
 16 21  2  0
 16 22  1  0
 17 23  2  0
 18 24  1  0
 23 24  1  0
 15 25  1  0
 19 26  1  1
 19 27  1  0
 21 27  1  0
 24 28  1  0
 24 29  1  0
 21 30  1  0
 22 31  2  0
 25 32  2  0
 25 33  1  0
 20 34  1  0
 30 35  2  0
 31 35  1  0
 32 36  1  0
 33 37  1  0
 36 37  2  0
 34 38  2  0
 34 39  1  0
 37 40  1  0
 39 41  1  0
 38 42  1  0
 39 43  2  0
 42 44  2  0
 43 44  1  0
M  END
