x0691_1-x0749_1-x0978_0
     RDKit          3D

 21 22  0  0  0  0  0  0  0  0999 V2000
    4.4890   -5.8510   25.6920 S   0  0  0  0  0  0  0  0  0  0  0  0
    4.5840   -6.2600   23.9530 C   0  0  0  0  0  0  0  0  0  0  0  0
    5.0770   -5.1390   23.0540 C   0  0  0  0  0  0  0  0  0  0  0  0
    3.8340   -6.9520   26.3600 O   0  0  0  0  0  0  0  0  0  0  0  0
    5.7500   -5.3270   26.1670 O   0  0  0  0  0  0  0  0  0  0  0  0
    3.3540   -4.4840   25.7250 C   0  0  0  0  0  0  0  0  0  0  0  0
    3.8790   -3.0450   25.8310 C   0  0  0  0  0  0  0  0  0  0  0  0
    1.9790   -4.7250   25.6570 C   0  0  0  0  0  0  0  0  0  0  0  0
    2.9090   -1.8630   25.8650 C   0  0  0  0  0  0  0  0  0  0  0  0
    0.9940   -3.5320   25.6900 C   0  0  0  0  0  0  0  0  0  0  0  0
    6.2150   -5.5190   22.0910 C   0  0  1  0  0  0  0  0  0  0  0  0
    3.3770   -0.6140   25.9580 F   0  0  0  0  0  0  0  0  0  0  0  0
    1.5310   -2.0780   25.8000 C   0  0  0  0  0  0  0  0  0  0  0  0
    6.8010   -4.3180   21.4890 N   0  0  0  0  0  0  0  0  0  0  0  0
    7.2460   -6.2220   22.6600 C   0  0  0  0  0  0  0  0  0  0  0  0
    6.4450   -3.9210   20.1940 C   0  0  0  0  0  0  0  0  0  0  0  0
    8.0270   -3.7640   22.1290 C   0  0  0  0  0  0  0  0  0  0  0  0
    7.9210   -5.6320   23.7200 C   0  0  0  0  0  0  0  0  0  0  0  0
    7.4230   -3.1930   19.2660 C   0  0  0  0  0  0  0  0  0  0  0  0
    5.3280   -4.2080   19.7660 O   0  0  0  0  0  0  0  0  0  0  0  0
    8.1640   -4.1470   23.4740 C   0  0  0  0  0  0  0  0  0  0  0  0
  1  2  1  0
  2  3  1  0
  1  4  2  0
  1  5  2  0
  1  6  1  0
  6  7  2  0
  6  8  1  0
  7  9  1  0
  8 10  2  0
 11  3  1  1
  9 12  1  0
  9 13  2  0
 10 13  1  0
 11 14  1  0
 11 15  1  0
 14 16  1  0
 14 17  1  0
 15 18  1  0
 16 19  1  0
 16 20  2  0
 17 21  1  0
 18 21  1  0
M  END
