x0692_1-x1334_0-x1334_1-x0770_1-x0831_0-x1385_1-x0831_1-x0434_2-x1375_1-x1412_1-x0397_0
     RDKit          3D

 38 42  0  0  0  0  0  0  0  0999 V2000
    6.3980   -3.3180   19.8530 C   0  0  0  0  0  0  0  0  0  0  0  0
    7.3420   -3.0270   18.6900 C   0  0  0  0  0  0  0  0  0  0  0  0
    5.4520   -4.1190   19.7550 O   0  0  0  0  0  0  0  0  0  0  0  0
    6.7580   -2.5890   21.0110 N   0  0  0  0  0  0  0  0  0  0  0  0
    7.7760   -1.5300   20.9630 C   0  0  2  0  0  0  0  0  0  0  0  0
    6.1390   -2.9250   22.3360 C   0  0  2  0  0  0  0  0  0  0  0  0
    8.8920   -1.6040   22.0300 C   0  0  0  0  0  0  0  0  0  0  0  0
    7.0100   -2.5790   23.4420 C   0  0  0  0  0  0  0  0  0  0  0  0
    5.5990   -4.3480   22.4720 C   0  0  2  0  0  0  0  0  0  0  0  0
    7.3940   -0.0820   20.7510 C   0  0  0  0  0  0  0  0  0  0  0  0
    8.4880   -2.3470   23.2480 N   0  0  0  0  0  0  0  0  0  0  0  0
    6.2060   -5.2480   23.2160 C   0  0  2  0  0  0  0  0  0  0  0  0
    6.2170   -5.8070   21.9010 C   0  0  0  0  0  0  0  0  0  0  0  0
    7.0670    0.2700   19.3240 C   0  0  0  0  0  0  0  0  0  0  0  0
    9.4440   -3.3340   23.7680 C   0  0  1  0  0  0  0  0  0  0  0  0
    6.0280    0.4980   20.2880 C   0  0  0  0  0  0  0  0  0  0  0  0
    6.4590    0.6970   18.1430 N   0  0  0  0  0  0  0  0  0  0  0  0
    5.5090   -5.7180   24.4720 C   0  0  0  0  0  0  0  0  0  0  0  0
   10.8430   -2.7640   23.9560 C   0  0  0  0  0  0  0  0  0  0  0  0
    9.0860   -4.1890   24.9810 C   0  0  0  0  0  0  0  0  0  0  0  0
    5.2500    1.2210   17.8460 C   0  0  0  0  0  0  0  0  0  0  0  0
    4.7520    1.0030   20.1700 C   0  0  0  0  0  0  0  0  0  0  0  0
    4.8800   -6.9730   24.3060 O   0  0  0  0  0  0  0  0  0  0  0  0
    9.6980   -5.3930   25.2840 C   0  0  0  0  0  0  0  0  0  0  0  0
    7.8880   -3.8350   26.1910 S   0  0  0  0  0  0  0  0  0  0  0  0
   11.1620   -1.2660   23.8030 C   0  0  0  0  0  0  0  0  0  0  0  0
    4.2890    1.3930   18.9710 C   0  0  0  0  0  0  0  0  0  0  0  0
    3.5200   -6.8430   23.9850 C   0  0  0  0  0  0  0  0  0  0  0  0
    9.1880   -5.9330   26.4130 C   0  0  0  0  0  0  0  0  0  0  0  0
    8.1960   -5.2720   27.0760 C   0  0  0  0  0  0  0  0  0  0  0  0
   10.2950   -0.2370   24.5010 C   0  0  0  0  0  0  0  0  0  0  0  0
   12.2490   -0.8170   23.0410 C   0  0  0  0  0  0  0  0  0  0  0  0
    3.0220   -8.1480   23.9130 O   0  0  0  0  0  0  0  0  0  0  0  0
    7.3510   -5.6890   28.4990 Cl  0  0  0  0  0  0  0  0  0  0  0  0
   13.1110   -1.8050   22.3230 C   0  0  0  0  0  0  0  0  0  0  0  0
   10.6390    1.0880   24.3420 C   0  0  0  0  0  0  0  0  0  0  0  0
   12.5660    0.5430   22.9220 C   0  0  0  0  0  0  0  0  0  0  0  0
   11.7530    1.4830   23.5750 C   0  0  0  0  0  0  0  0  0  0  0  0
  1  2  1  0
  1  3  2  0
  1  4  1  0
  4  5  1  0
  4  6  1  0
  5  7  1  0
  6  8  1  1
  6  9  1  0
  5 10  1  1
  7 11  1  0
  8 11  1  0
  9 12  1  0
  9 13  1  6
 12 13  1  0
 10 14  1  0
 11 15  1  0
 14 16  2  0
 14 17  1  0
 12 18  1  1
 15 19  1  1
 15 20  1  0
 17 21  2  0
 16 22  1  0
 18 23  1  0
 20 24  2  0
 20 25  1  0
 19 26  1  0
 21 27  1  0
 22 27  2  0
 23 28  1  0
 24 29  1  0
 25 30  1  0
 29 30  2  0
 26 31  2  0
 26 32  1  0
 28 33  1  0
 30 34  1  0
 32 35  1  0
 31 36  1  0
 32 37  2  0
 36 38  2  0
 37 38  1  0
M  END
