x0692_0-x1386_1-x1374_1-x1336_1
     RDKit          3D

 39 43  0  0  0  0  0  0  0  0999 V2000
    7.5680   -1.7180   25.5140 S   0  0  1  0  0  0  0  0  0  0  0  0
    8.9160   -0.7780   25.5230 N   0  0  0  0  0  0  0  0  0  0  0  0
    9.1420    0.1160   24.4980 C   0  0  0  0  0  0  0  0  0  0  0  0
    6.3690   -1.0750   26.0130 O   0  0  0  0  0  0  0  0  0  0  0  0
    7.2660   -2.2040   23.8800 C   0  0  1  0  0  0  0  0  0  0  0  0
    7.7800   -3.2460   26.4310 C   0  0  0  0  0  0  0  0  0  0  0  0
    6.6140   -3.5400   27.3990 C   0  0  0  0  0  0  0  0  0  0  0  0
    8.9540   -4.0120   26.2010 C   0  0  0  0  0  0  0  0  0  0  0  0
    8.2760   -2.3920   22.9680 N   0  0  0  0  0  0  0  0  0  0  0  0
    6.7150   -3.6050   24.2010 C   0  0  0  0  0  0  0  0  0  0  0  0
   10.0430   -3.6430   25.2410 C   0  0  0  0  0  0  0  0  0  0  0  0
    7.4710   -4.5140   23.2800 C   0  0  2  0  0  0  0  0  0  0  0  0
    7.0720   -4.8490   28.0240 C   0  0  0  0  0  0  0  0  0  0  0  0
    9.1980   -5.1840   26.8630 C   0  0  0  0  0  0  0  0  0  0  0  0
    8.6090   -1.3320   21.9660 C   0  0  0  0  0  0  0  0  0  0  0  0
    7.7090   -3.4790   22.2340 C   0  0  1  0  0  0  0  0  0  0  0  0
   10.4930   -0.1740   23.8920 C   0  0  0  0  0  0  0  0  0  0  0  0
    6.1610   -5.4550   29.0510 C   0  0  0  0  0  0  0  0  0  0  0  0
    6.6320   -5.6420   22.7060 C   0  0  0  0  0  0  0  0  0  0  0  0
    8.2330   -5.5420   27.7500 C   0  0  0  0  0  0  0  0  0  0  0  0
    7.5300   -1.2280   20.8450 C   0  0  0  0  0  0  0  0  0  0  0  0
    6.4600   -3.0360   21.8850 C   0  0  0  0  0  0  0  0  0  0  0  0
   10.8480   -1.5010   23.6680 C   0  0  0  0  0  0  0  0  0  0  0  0
   11.3660    0.8560   23.5660 C   0  0  0  0  0  0  0  0  0  0  0  0
    6.5890   -2.2140   20.7260 N   0  0  0  0  0  0  0  0  0  0  0  0
    5.1410   -5.2780   22.6910 C   0  0  2  0  0  0  0  0  0  0  0  0
   10.8910    2.1890   23.8220 C   0  0  0  0  0  0  0  0  0  0  0  0
   12.6030    0.5940   23.0240 C   0  0  0  0  0  0  0  0  0  0  0  0
   12.1060   -1.7920   23.1100 C   0  0  0  0  0  0  0  0  0  0  0  0
    6.3830   -2.9690   19.5930 C   0  0  0  0  0  0  0  0  0  0  0  0
    4.7380   -4.6060   23.8470 C   0  0  0  0  0  0  0  0  0  0  0  0
    4.4640   -6.6430   22.8460 C   0  0  0  0  0  0  0  0  0  0  0  0
   12.9540   -0.7360   22.8020 C   0  0  0  0  0  0  0  0  0  0  0  0
    7.3920   -2.9220   18.4960 C   0  0  0  0  0  0  0  0  0  0  0  0
    5.4100   -3.7320   19.4700 O   0  0  0  0  0  0  0  0  0  0  0  0
    3.9340   -5.2710   24.7330 C   0  0  0  0  0  0  0  0  0  0  0  0
    3.5180   -6.8320   24.2950 S   0  0  0  0  0  0  0  0  0  0  0  0
    1.9450   -7.0420   23.8620 O   0  0  0  0  0  0  0  0  0  0  0  0
    4.0790   -7.8970   25.0920 O   0  0  0  0  0  0  0  0  0  0  0  0
  1  2  2  0
  2  3  1  0
  1  4  2  0
  1  5  1  0
  1  6  1  1
  6  7  2  0
  6  8  1  0
  5  9  1  0
  5 10  1  1
  8 11  1  0
 10 12  1  0
  7 13  1  0
  8 14  2  0
  9 15  1  0
  9 16  1  0
 12 16  1  0
  3 17  1  0
 13 18  1  0
 12 19  1  6
 13 20  2  0
 14 20  1  0
 15 21  1  0
 16 22  1  1
 17 23  2  0
 17 24  1  0
 21 25  1  0
 22 25  1  0
 26 19  1  1
 24 27  1  0
 24 28  2  0
 23 29  1  0
 25 30  1  0
 26 31  1  0
 26 32  1  0
 28 33  1  0
 29 33  2  0
 30 34  1  0
 30 35  2  0
 31 36  2  0
 32 37  1  0
 36 37  1  0
 37 38  1  0
 37 39  1  0
M  END
