x0692_1-x1412_1-x1334_1-x0434_2-x0540_3-x0831_0-x1334_0-x0397_0
     RDKit          3D

 39 43  0  0  0  0  0  0  0  0999 V2000
    6.1910   -3.2900   19.9600 C   0  0  0  0  0  0  0  0  0  0  0  0
    7.2130   -2.9960   18.8710 C   0  0  0  0  0  0  0  0  0  0  0  0
    5.3730   -4.2000   19.7670 O   0  0  0  0  0  0  0  0  0  0  0  0
    6.2210   -2.5290   21.1560 N   0  0  0  0  0  0  0  0  0  0  0  0
    6.9170   -1.3520   21.2410 C   0  0  1  0  0  0  0  0  0  0  0  0
    6.2420   -3.3080   22.4120 C   0  0  2  0  0  0  0  0  0  0  0  0
    6.2710   -0.3760   22.2730 C   0  0  0  0  0  0  0  0  0  0  0  0
    8.3890   -1.5380   21.7160 C   0  0  0  0  0  0  0  0  0  0  0  0
    7.6870   -3.4240   22.9590 C   0  0  0  0  0  0  0  0  0  0  0  0
    5.5330   -4.6930   22.4150 C   0  0  0  0  0  0  0  0  0  0  0  0
    5.1810    0.5470   21.7480 C   0  0  1  0  0  0  0  0  0  0  0  0
    8.3030   -2.0940   23.0550 N   0  0  0  0  0  0  0  0  0  0  0  0
    6.0070   -5.7570   22.9400 C   0  0  0  0  0  0  0  0  0  0  0  0
    6.0670   -6.0750   21.6900 C   0  0  0  0  0  0  0  0  0  0  0  0
    5.1610    1.9700   22.4080 C   0  0  0  0  0  0  0  0  0  0  0  0
    9.4320   -1.9680   23.9430 C   0  0  1  0  0  0  0  0  0  0  0  0
    5.4880    0.6970   20.2760 C   0  0  0  0  0  0  0  0  0  0  0  0
    3.8680    2.5970   22.4850 N   0  0  0  0  0  0  0  0  0  0  0  0
   10.0870   -3.3430   24.0040 C   0  0  0  0  0  0  0  0  0  0  0  0
   10.4210   -0.8160   23.6930 C   0  0  0  0  0  0  0  0  0  0  0  0
    6.6480    0.0520   19.8260 C   0  0  0  0  0  0  0  0  0  0  0  0
    4.7300    1.4110   19.3440 C   0  0  0  0  0  0  0  0  0  0  0  0
    2.9250    2.2570   23.4220 C   0  0  0  0  0  0  0  0  0  0  0  0
   10.1070    0.6250   24.1000 C   0  0  0  0  0  0  0  0  0  0  0  0
   11.8420   -0.9450   23.0270 C   0  0  0  0  0  0  0  0  0  0  0  0
    9.4510   -4.1680   25.1420 C   0  0  0  0  0  0  0  0  0  0  0  0
    6.9490    0.1620   18.5000 C   0  0  0  0  0  0  0  0  0  0  0  0
    5.1530    1.4460   18.0340 C   0  0  0  0  0  0  0  0  0  0  0  0
    2.9540    1.2770   24.1570 O   0  0  0  0  0  0  0  0  0  0  0  0
   12.4080   -2.2330   22.5250 C   0  0  0  0  0  0  0  0  0  0  0  0
   11.0830    1.7640   23.8720 C   0  0  0  0  0  0  0  0  0  0  0  0
   12.7880    0.2700   22.8310 C   0  0  0  0  0  0  0  0  0  0  0  0
    9.9360   -5.5020   25.4680 C   0  0  0  0  0  0  0  0  0  0  0  0
    8.1610   -3.7760   26.1920 S   0  0  0  0  0  0  0  0  0  0  0  0
    6.2550    0.8290   17.5840 N   0  0  0  0  0  0  0  0  0  0  0  0
   12.3050    1.6630   23.3060 C   0  0  0  0  0  0  0  0  0  0  0  0
    9.3040   -6.0680   26.4600 C   0  0  0  0  0  0  0  0  0  0  0  0
    8.3050   -5.2820   26.9900 C   0  0  0  0  0  0  0  0  0  0  0  0
    7.2680   -5.6750   28.2920 Cl  0  0  0  0  0  0  0  0  0  0  0  0
  1  2  1  0
  1  3  2  0
  1  4  1  0
  4  5  1  0
  4  6  1  0
  5  7  1  1
  5  8  1  0
  6  9  1  0
  6 10  1  6
 11  7  1  1
  8 12  1  0
  9 12  1  0
 10 13  1  0
 10 14  1  0
 13 14  1  0
 11 15  1  0
 12 16  1  0
 11 17  1  0
 15 18  1  0
 16 19  1  6
 16 20  1  0
 17 21  2  0
 17 22  1  0
 18 23  1  0
 20 24  2  0
 20 25  1  0
 19 26  1  0
 21 27  1  0
 22 28  2  0
 23 29  2  0
 25 30  1  0
 24 31  1  0
 25 32  2  0
 26 33  2  0
 26 34  1  0
 27 35  2  0
 28 35  1  0
 31 36  2  0
 32 36  1  0
 33 37  1  0
 34 38  1  0
 37 38  2  0
 38 39  1  0
M  END
