x0692_1-x1334_1-x1375_1-x0434_2-x0397_0-x0426_1-x1334_0-x1385_1-x0831_0-x0831_1-x1418_1
     RDKit          3D

 43 48  0  0  0  0  0  0  0  0999 V2000
    3.2900   -8.1310   24.1400 O   0  0  0  0  0  0  0  0  0  0  0  0
    4.2650   -7.2730   24.6420 C   0  0  0  0  0  0  0  0  0  0  0  0
    3.8770   -5.9550   24.8050 O   0  0  0  0  0  0  0  0  0  0  0  0
    5.0430   -5.1370   24.8340 C   0  0  0  0  0  0  0  0  0  0  0  0
    5.8150   -5.2950   23.5540 C   0  0  2  0  0  0  0  0  0  0  0  0
    5.7960   -4.3690   22.6380 C   0  0  2  0  0  0  0  0  0  0  0  0
    5.3220   -5.9630   22.5440 C   0  0  0  0  0  0  0  0  0  0  0  0
    6.8290   -3.8730   21.7980 C   0  0  1  0  0  0  0  0  0  0  0  0
    6.6150   -2.6880   20.9610 N   0  0  0  0  0  0  0  0  0  0  0  0
    8.0850   -3.8400   22.4250 C   0  0  0  0  0  0  0  0  0  0  0  0
    6.3230   -3.1950   19.7170 C   0  0  0  0  0  0  0  0  0  0  0  0
    8.4280   -2.6940   23.2320 N   0  0  0  0  0  0  0  0  0  0  0  0
    7.6970   -1.6280   21.0510 C   0  0  1  0  0  0  0  0  0  0  0  0
    5.3140   -3.8910   19.5390 O   0  0  0  0  0  0  0  0  0  0  0  0
    7.3110   -2.9580   18.6030 C   0  0  0  0  0  0  0  0  0  0  0  0
    9.5800   -3.1350   24.0470 C   0  0  1  0  0  0  0  0  0  0  0  0
    7.4580   -0.3620   21.8930 C   0  0  0  0  0  0  0  0  0  0  0  0
    8.6310   -1.5640   22.3020 C   0  0  0  0  0  0  0  0  0  0  0  0
    5.9780    0.0430   21.7850 C   0  0  1  0  0  0  0  0  0  0  0  0
   10.2600   -1.9650   24.7660 C   0  0  0  0  0  0  0  0  0  0  0  0
    9.0790   -3.9760   25.1090 C   0  0  0  0  0  0  0  0  0  0  0  0
    5.5490    1.2390   22.6690 C   0  0  0  0  0  0  0  0  0  0  0  0
    5.7990    0.4870   20.3390 C   0  0  0  0  0  0  0  0  0  0  0  0
    9.8220   -5.1310   25.3180 C   0  0  0  0  0  0  0  0  0  0  0  0
    7.7650   -3.8740   26.2040 S   0  0  0  0  0  0  0  0  0  0  0  0
   11.0130   -0.7770   24.1270 C   0  0  0  0  0  0  0  0  0  0  0  0
    4.0810    1.6750   22.5150 C   0  0  1  0  0  0  0  0  0  0  0  0
    4.7150    1.3370   20.0090 C   0  0  0  0  0  0  0  0  0  0  0  0
    6.6320    0.1180   19.3300 C   0  0  0  0  0  0  0  0  0  0  0  0
    9.3570   -5.9280   26.3570 C   0  0  0  0  0  0  0  0  0  0  0  0
    8.2410   -5.4220   26.9930 C   0  0  0  0  0  0  0  0  0  0  0  0
   10.4570    0.4610   24.4620 C   0  0  0  0  0  0  0  0  0  0  0  0
   12.1710   -0.8770   23.2900 C   0  0  0  0  0  0  0  0  0  0  0  0
    3.7780    2.8780   23.2650 N   0  0  0  0  0  0  0  0  0  0  0  0
    3.7080    1.8100   21.0360 C   0  0  0  0  0  0  0  0  0  0  0  0
    7.3340   -6.0190   28.3150 Cl  0  0  0  0  0  0  0  0  0  0  0  0
   12.7980   -2.1800   22.8920 C   0  0  0  0  0  0  0  0  0  0  0  0
    4.6320    1.6950   18.7460 C   0  0  0  0  0  0  0  0  0  0  0  0
    6.5400    0.4840   18.0260 N   0  0  0  0  0  0  0  0  0  0  0  0
   11.0230    1.6250   23.9960 C   0  0  0  0  0  0  0  0  0  0  0  0
   12.7740    0.2670   22.8060 C   0  0  0  0  0  0  0  0  0  0  0  0
    5.4380    1.3590   17.7190 C   0  0  0  0  0  0  0  0  0  0  0  0
   12.2780    1.5300   23.1080 C   0  0  0  0  0  0  0  0  0  0  0  0
  1  2  1  0
  2  3  1  0
  3  4  1  0
  5  4  1  1
  5  6  1  0
  5  7  1  0
  6  7  1  6
  6  8  1  0
  8  9  1  0
  8 10  1  1
  9 11  1  0
 10 12  1  0
  9 13  1  0
 11 14  2  0
 11 15  1  0
 12 16  1  0
 13 17  1  1
 12 18  1  0
 13 18  1  0
 19 17  1  6
 16 20  1  1
 16 21  1  0
 19 22  1  0
 19 23  1  0
 21 24  2  0
 21 25  1  0
 20 26  1  0
 22 27  1  0
 23 28  2  0
 23 29  1  0
 24 30  1  0
 25 31  1  0
 30 31  2  0
 26 32  2  0
 26 33  1  0
 27 34  1  1
 27 35  1  0
 28 35  1  0
 31 36  1  0
 33 37  1  0
 28 38  1  0
 29 39  2  0
 32 40  1  0
 33 41  2  0
 38 42  2  0
 39 42  1  0
 40 43  2  0
 41 43  1  0
M  END
