x0691_1-x1336_0
     RDKit          3D

 21 22  0  0  0  0  0  0  0  0999 V2000
    4.5350   -5.7100   25.8760 S   0  0  0  0  0  0  0  0  0  0  0  0
    5.3690   -5.4490   24.3680 C   0  0  0  0  0  0  0  0  0  0  0  0
    6.4860   -4.6340   24.4670 C   0  0  0  0  0  0  0  0  0  0  0  0
    3.8120   -6.9620   25.8790 O   0  0  0  0  0  0  0  0  0  0  0  0
    5.4700   -5.3850   26.9320 O   0  0  0  0  0  0  0  0  0  0  0  0
    3.3130   -4.4180   25.8660 C   0  0  0  0  0  0  0  0  0  0  0  0
    3.7630   -3.0940   25.9400 C   0  0  0  0  0  0  0  0  0  0  0  0
    1.9440   -4.6960   25.7880 C   0  0  0  0  0  0  0  0  0  0  0  0
    2.8780   -1.8470   25.9490 C   0  0  0  0  0  0  0  0  0  0  0  0
    0.8690   -3.6050   25.7820 C   0  0  0  0  0  0  0  0  0  0  0  0
    6.4580   -3.5530   23.4510 C   0  0  1  0  0  0  0  0  0  0  0  0
    3.3530   -0.5970   26.0200 F   0  0  0  0  0  0  0  0  0  0  0  0
    1.3990   -2.1800   25.8690 C   0  0  0  0  0  0  0  0  0  0  0  0
    7.4990   -2.6080   23.8420 N   0  0  0  0  0  0  0  0  0  0  0  0
    6.6280   -4.0820   22.0530 C   0  0  0  0  0  0  0  0  0  0  0  0
    6.8340   -3.1310   21.1510 N   0  0  0  0  0  0  0  0  0  0  0  0
    7.8310   -1.6130   22.8200 C   0  0  0  0  0  0  0  0  0  0  0  0
    6.4380   -3.3950   19.8690 C   0  0  0  0  0  0  0  0  0  0  0  0
    7.9830   -2.2530   21.4460 C   0  0  0  0  0  0  0  0  0  0  0  0
    5.3730   -3.9760   19.6330 O   0  0  0  0  0  0  0  0  0  0  0  0
    7.3860   -3.0310   18.7560 C   0  0  0  0  0  0  0  0  0  0  0  0
  1  2  1  0
  2  3  1  0
  1  4  2  0
  1  5  2  0
  1  6  1  0
  6  7  2  0
  6  8  1  0
  7  9  1  0
  8 10  2  0
 11  3  1  1
  9 12  1  0
  9 13  2  0
 10 13  1  0
 11 14  1  0
 11 15  1  0
 15 16  1  0
 14 17  1  0
 16 18  1  0
 16 19  1  0
 17 19  1  0
 18 20  2  0
 18 21  1  0
M  END
