x0691_0-x1458_0-x1386_0
     RDKit          3D

 23 24  0  0  0  0  0  0  0  0999 V2000
    6.3320   -4.4280   20.7320 C   0  0  0  0  0  0  0  0  0  0  0  0
    7.7380   -3.8310   20.5560 C   0  0  0  0  0  0  0  0  0  0  0  0
    5.4320   -4.4430   19.8930 O   0  0  0  0  0  0  0  0  0  0  0  0
    6.1350   -4.9720   21.9840 N   0  0  0  0  0  0  0  0  0  0  0  0
    5.5620   -6.2990   22.1100 C   0  0  0  0  0  0  0  0  0  0  0  0
    6.9260   -4.5960   23.1360 C   0  0  0  0  0  0  0  0  0  0  0  0
    4.5980   -6.2690   23.0450 C   0  0  0  0  0  0  0  0  0  0  0  0
    6.1850   -4.7650   24.2820 C   0  0  1  0  0  0  0  0  0  0  0  0
    6.1960   -3.4910   25.1930 C   0  0  0  0  0  0  0  0  0  0  0  0
    4.7720   -5.2270   24.0790 N   0  0  0  0  0  0  0  0  0  0  0  0
    6.9930   -3.6230   26.4160 N   0  0  0  0  0  0  0  0  0  0  0  0
    7.4220   -4.9530   26.9140 C   0  0  0  0  0  0  0  0  0  0  0  0
    7.8180   -2.4420   26.7280 C   0  0  0  0  0  0  0  0  0  0  0  0
    8.7430   -5.0450   27.6700 C   0  0  0  0  0  0  0  0  0  0  0  0
    6.3840   -5.6090   27.8350 C   0  0  0  0  0  0  0  0  0  0  0  0
    8.6230   -1.7780   25.5770 C   0  0  0  0  0  0  0  0  0  0  0  0
    8.6990   -2.5600   24.3810 C   0  0  0  0  0  0  0  0  0  0  0  0
   10.0660   -2.7250   23.6950 C   0  0  0  0  0  0  0  0  0  0  0  0
   10.9530   -1.5230   23.5570 C   0  0  0  0  0  0  0  0  0  0  0  0
   12.0670   -1.4890   22.7290 C   0  0  0  0  0  0  0  0  0  0  0  0
   10.7890   -0.3180   24.2270 C   0  0  0  0  0  0  0  0  0  0  0  0
   12.7340   -0.2860   22.7730 C   0  0  0  0  0  0  0  0  0  0  0  0
   11.9940    0.8190   23.8310 S   0  0  0  0  0  0  0  0  0  0  0  0
  1  2  1  0
  1  3  2  0
  1  4  1  0
  4  5  1  0
  4  6  1  0
  5  7  1  0
  6  8  1  0
  8  9  1  6
  7 10  1  0
  8 10  1  0
  9 11  1  0
 11 12  1  0
 11 13  1  0
 12 14  1  0
 12 15  1  0
 13 16  1  0
 16 17  1  0
 17 18  1  0
 18 19  1  0
 19 20  1  0
 19 21  2  0
 20 22  2  0
 21 23  1  0
 22 23  1  0
M  END
