x0692_1-x0831_0-x0434_2-x1418_1-x1334_1-x1412_0-x0831_1-x1385_1-x0397_0
     RDKit          3D

 35 39  0  0  0  0  0  0  0  0999 V2000
    6.3170   -3.2530   19.7470 C   0  0  0  0  0  0  0  0  0  0  0  0
    7.3510   -3.0580   18.6510 C   0  0  0  0  0  0  0  0  0  0  0  0
    5.4090   -4.0940   19.6950 O   0  0  0  0  0  0  0  0  0  0  0  0
    6.5140   -2.3940   20.8220 N   0  0  0  0  0  0  0  0  0  0  0  0
    7.7050   -1.4940   20.6280 C   0  0  2  0  0  0  0  0  0  0  0  0
    6.3740   -3.0640   22.1190 C   0  0  2  0  0  0  0  0  0  0  0  0
    8.9760   -1.8360   21.4370 C   0  0  0  0  0  0  0  0  0  0  0  0
    7.6580   -3.1320   22.8990 C   0  0  0  0  0  0  0  0  0  0  0  0
    6.8500   -4.4770   22.3980 C   0  0  0  0  0  0  0  0  0  0  0  0
    7.4200   -0.0960   20.6110 C   0  0  0  0  0  0  0  0  0  0  0  0
    8.4660   -1.9030   22.7810 N   0  0  0  0  0  0  0  0  0  0  0  0
    6.1930   -5.2930   23.1790 C   0  0  0  0  0  0  0  0  0  0  0  0
    6.0590   -5.8930   21.9090 C   0  0  0  0  0  0  0  0  0  0  0  0
    7.0710    0.3170   19.3200 C   0  0  0  0  0  0  0  0  0  0  0  0
    9.4610   -1.5850   23.7890 C   0  0  1  0  0  0  0  0  0  0  0  0
    6.0480    0.4510   20.3420 C   0  0  0  0  0  0  0  0  0  0  0  0
    6.4230    0.8390   18.0360 N   0  0  0  0  0  0  0  0  0  0  0  0
    9.8310   -2.8550   24.4520 C   0  0  0  0  0  0  0  0  0  0  0  0
   10.5330   -0.6270   23.5360 C   0  0  0  0  0  0  0  0  0  0  0  0
    5.2070    1.3350   17.8490 C   0  0  0  0  0  0  0  0  0  0  0  0
    4.6990    1.0130   20.0260 C   0  0  0  0  0  0  0  0  0  0  0  0
    8.6150   -3.0140   25.3480 C   0  0  0  0  0  0  0  0  0  0  0  0
   10.1420    0.7430   24.0010 C   0  0  0  0  0  0  0  0  0  0  0  0
   11.9250   -0.8370   22.9060 C   0  0  0  0  0  0  0  0  0  0  0  0
    4.3190    1.4310   18.8330 C   0  0  0  0  0  0  0  0  0  0  0  0
   12.4250   -2.1600   22.4030 C   0  0  0  0  0  0  0  0  0  0  0  0
    7.7160   -2.1790   25.3350 O   0  0  0  0  0  0  0  0  0  0  0  0
   11.1310    1.9120   23.8400 C   0  0  0  0  0  0  0  0  0  0  0  0
   12.8920    0.3110   22.7550 C   0  0  0  0  0  0  0  0  0  0  0  0
    8.6170   -4.1570   26.1740 C   0  0  0  0  0  0  0  0  0  0  0  0
   12.5270    1.6860   23.2040 C   0  0  0  0  0  0  0  0  0  0  0  0
    9.4400   -5.1930   25.8570 C   0  0  0  0  0  0  0  0  0  0  0  0
    7.7150   -4.4340   27.5560 S   0  0  0  0  0  0  0  0  0  0  0  0
    9.3470   -6.2240   26.7340 C   0  0  0  0  0  0  0  0  0  0  0  0
    8.4360   -5.9640   27.7390 C   0  0  0  0  0  0  0  0  0  0  0  0
  1  2  1  0
  1  3  2  0
  1  4  1  0
  4  5  1  0
  4  6  1  0
  5  7  1  0
  6  8  1  0
  6  9  1  6
  5 10  1  1
  7 11  1  0
  8 11  1  0
  9 12  1  0
  9 13  1  0
 12 13  1  0
 10 14  1  0
 11 15  1  0
 14 16  2  0
 14 17  1  0
 15 18  1  6
 15 19  1  0
 17 20  2  0
 16 21  1  0
 18 22  1  0
 19 23  2  0
 19 24  1  0
 20 25  1  0
 21 25  2  0
 24 26  1  0
 22 27  2  0
 23 28  1  0
 24 29  2  0
 22 30  1  0
 28 31  2  0
 29 31  1  0
 30 32  2  0
 30 33  1  0
 32 34  1  0
 33 35  1  0
 34 35  2  0
M  END
