x0692_1-x1334_1-x0434_2-x1412_1-x1386_1-x0831_1-x0831_0-x1334_0-x1375_1-x0397_0-x0770_1-x1418_1
     RDKit          3D

 38 42  0  0  0  0  0  0  0  0999 V2000
    6.3270   -3.2750   19.7970 C   0  0  0  0  0  0  0  0  0  0  0  0
    7.2790   -3.0460   18.6370 C   0  0  0  0  0  0  0  0  0  0  0  0
    5.4420   -4.1450   19.7460 O   0  0  0  0  0  0  0  0  0  0  0  0
    6.5710   -2.4390   20.8630 N   0  0  0  0  0  0  0  0  0  0  0  0
    7.7150   -1.4980   20.7340 C   0  0  2  0  0  0  0  0  0  0  0  0
    6.3280   -3.0350   22.2170 C   0  0  2  0  0  0  0  0  0  0  0  0
    8.8970   -1.7050   21.6630 C   0  0  0  0  0  0  0  0  0  0  0  0
    7.6520   -3.1280   23.0190 C   0  0  0  0  0  0  0  0  0  0  0  0
    5.6840   -4.4230   22.1720 C   0  0  2  0  0  0  0  0  0  0  0  0
    7.3120   -0.0520   20.6670 C   0  0  0  0  0  0  0  0  0  0  0  0
    8.4280   -1.8870   23.0200 N   0  0  0  0  0  0  0  0  0  0  0  0
    6.0820   -5.6000   22.9390 C   0  0  2  0  0  0  0  0  0  0  0  0
    6.3370   -5.5720   21.4800 C   0  0  0  0  0  0  0  0  0  0  0  0
    7.0180    0.3400   19.2500 C   0  0  0  0  0  0  0  0  0  0  0  0
    9.5270   -1.9250   23.9560 C   0  0  1  0  0  0  0  0  0  0  0  0
    5.8880    0.5530   20.2550 C   0  0  0  0  0  0  0  0  0  0  0  0
    6.4290    0.7960   18.0840 N   0  0  0  0  0  0  0  0  0  0  0  0
    5.1660   -6.7080   23.3490 C   0  0  0  0  0  0  0  0  0  0  0  0
   10.1470   -3.2710   23.9830 C   0  0  0  0  0  0  0  0  0  0  0  0
   10.5750   -0.8000   23.6960 C   0  0  0  0  0  0  0  0  0  0  0  0
    5.2160    1.3090   17.8610 C   0  0  0  0  0  0  0  0  0  0  0  0
    4.6100    1.0600   20.1140 C   0  0  0  0  0  0  0  0  0  0  0  0
    4.8000   -6.6410   24.7140 O   0  0  0  0  0  0  0  0  0  0  0  0
   10.2040    0.5010   24.1000 C   0  0  0  0  0  0  0  0  0  0  0  0
   11.8800   -0.9200   23.0920 C   0  0  0  0  0  0  0  0  0  0  0  0
    9.5550   -4.1340   25.0580 C   0  0  0  0  0  0  0  0  0  0  0  0
    4.1680    1.4850   18.9110 C   0  0  0  0  0  0  0  0  0  0  0  0
    3.4420   -6.9760   24.8840 C   0  0  0  0  0  0  0  0  0  0  0  0
   12.4880   -2.1810   22.5770 C   0  0  0  0  0  0  0  0  0  0  0  0
   11.0130    1.6070   23.9470 C   0  0  0  0  0  0  0  0  0  0  0  0
   12.6550    0.2500   22.9690 C   0  0  0  0  0  0  0  0  0  0  0  0
    9.9600   -5.5070   25.3980 C   0  0  0  0  0  0  0  0  0  0  0  0
    8.2660   -3.7030   26.1320 S   0  0  0  0  0  0  0  0  0  0  0  0
    3.0990   -8.1570   24.1880 O   0  0  0  0  0  0  0  0  0  0  0  0
   12.2500    1.4960   23.3810 C   0  0  0  0  0  0  0  0  0  0  0  0
    9.2230   -6.1600   26.5300 C   0  0  0  0  0  0  0  0  0  0  0  0
    8.2210   -5.1800   27.0210 C   0  0  0  0  0  0  0  0  0  0  0  0
    7.1230   -5.4260   28.3130 Cl  0  0  0  0  0  0  0  0  0  0  0  0
  1  2  1  0
  1  3  2  0
  1  4  1  0
  4  5  1  0
  4  6  1  0
  5  7  1  0
  6  8  1  6
  6  9  1  0
  5 10  1  1
  7 11  1  0
  8 11  1  0
  9 12  1  0
  9 13  1  6
 12 13  1  0
 10 14  1  0
 11 15  1  0
 14 16  2  0
 14 17  1  0
 12 18  1  6
 15 19  1  6
 15 20  1  0
 17 21  2  0
 16 22  1  0
 18 23  1  0
 20 24  2  0
 20 25  1  0
 19 26  1  0
 21 27  1  0
 22 27  2  0
 23 28  1  0
 25 29  1  0
 24 30  1  0
 25 31  2  0
 26 32  2  0
 26 33  1  0
 28 34  1  0
 30 35  2  0
 31 35  1  0
 32 36  1  0
 33 37  1  0
 36 37  2  0
 37 38  1  0
M  END
