x0692_0-x1308_0
     RDKit          3D

 19 20  0  0  0  0  0  0  0  0999 V2000
    6.4090   -4.5050   20.4600 C   0  0  0  0  0  0  0  0  0  0  0  0
    7.3340   -3.4560   19.8280 C   0  0  0  0  0  0  0  0  0  0  0  0
    5.3070   -4.6740   19.9540 O   0  0  0  0  0  0  0  0  0  0  0  0
    6.8010   -5.2820   21.5450 N   0  0  0  0  0  0  0  0  0  0  0  0
    7.6180   -4.6640   22.5630 C   0  0  0  0  0  0  0  0  0  0  0  0
    5.9130   -6.3170   22.1130 C   0  0  0  0  0  0  0  0  0  0  0  0
    6.7140   -4.0360   23.5900 C   0  0  2  0  0  0  0  0  0  0  0  0
    5.1380   -5.8400   23.1740 C   0  0  0  0  0  0  0  0  0  0  0  0
    7.6120   -3.3080   24.5820 C   0  0  0  0  0  0  0  0  0  0  0  0
    5.8900   -5.0810   24.2170 N   0  0  0  0  0  0  0  0  0  0  0  0
    8.3030   -2.1310   23.9850 C   0  0  0  0  0  0  0  0  0  0  0  0
    9.7430   -2.5930   23.6920 C   0  0  0  0  0  0  0  0  0  0  0  0
   10.6500   -1.5340   23.5310 C   0  0  0  0  0  0  0  0  0  0  0  0
   10.2400   -0.2340   23.8070 C   0  0  0  0  0  0  0  0  0  0  0  0
   11.9310   -1.8610   23.0860 C   0  0  0  0  0  0  0  0  0  0  0  0
   11.1760    0.8490   23.6250 C   0  0  0  0  0  0  0  0  0  0  0  0
   12.9680   -0.7850   22.8770 C   0  0  0  0  0  0  0  0  0  0  0  0
   10.7240    2.2430   23.9060 C   0  0  0  0  0  0  0  0  0  0  0  0
   12.4610    0.6000   23.1910 C   0  0  0  0  0  0  0  0  0  0  0  0
  1  2  1  0
  1  3  2  0
  1  4  1  0
  4  5  1  0
  4  6  1  0
  5  7  1  0
  6  8  1  0
  7  9  1  1
  7 10  1  0
  8 10  1  0
  9 11  1  0
 11 12  1  0
 12 13  1  0
 13 14  2  0
 13 15  1  0
 14 16  1  0
 15 17  2  0
 16 18  1  0
 16 19  2  0
 17 19  1  0
M  END
