x0692_1-x1385_1-x1418_1-x0426_1-x0831_0-x1334_1-x1375_1-x0770_1-x0397_0-x1334_0
     RDKit          3D

 43 48  0  0  0  0  0  0  0  0999 V2000
    2.7430   -7.6660   23.8730 O   0  0  0  0  0  0  0  0  0  0  0  0
    3.3650   -7.2440   25.0800 C   0  0  0  0  0  0  0  0  0  0  0  0
    4.6590   -6.7110   24.8640 O   0  0  0  0  0  0  0  0  0  0  0  0
    5.0150   -6.8400   23.5100 C   0  0  0  0  0  0  0  0  0  0  0  0
    6.0240   -5.8570   23.0070 C   0  0  2  0  0  0  0  0  0  0  0  0
    5.6600   -4.6430   22.4000 C   0  0  2  0  0  0  0  0  0  0  0  0
    6.2660   -5.8810   21.5680 C   0  0  0  0  0  0  0  0  0  0  0  0
    6.4940   -3.3610   22.4350 C   0  0  2  0  0  0  0  0  0  0  0  0
    6.4320   -2.6170   21.1680 N   0  0  0  0  0  0  0  0  0  0  0  0
    7.8290   -3.5130   22.8590 C   0  0  0  0  0  0  0  0  0  0  0  0
    6.2600   -3.3120   19.9630 C   0  0  0  0  0  0  0  0  0  0  0  0
    8.5590   -2.2330   23.0700 N   0  0  0  0  0  0  0  0  0  0  0  0
    7.1540   -1.3640   21.2860 C   0  0  2  0  0  0  0  0  0  0  0  0
    5.3960   -4.1860   19.7830 O   0  0  0  0  0  0  0  0  0  0  0  0
    7.2040   -3.0050   18.8130 C   0  0  0  0  0  0  0  0  0  0  0  0
    9.9830   -2.3580   23.3660 C   0  0  2  0  0  0  0  0  0  0  0  0
    8.5980   -1.6380   21.7640 C   0  0  0  0  0  0  0  0  0  0  0  0
    6.3910   -0.5320   22.3110 C   0  0  0  0  0  0  0  0  0  0  0  0
   10.4330   -3.2930   24.4330 C   0  0  0  0  0  0  0  0  0  0  0  0
   10.7330   -1.0130   23.4000 C   0  0  0  0  0  0  0  0  0  0  0  0
    5.3050    0.3420   21.7420 C   0  0  1  0  0  0  0  0  0  0  0  0
   10.1130    0.1250   23.9070 C   0  0  0  0  0  0  0  0  0  0  0  0
   12.0720   -0.8760   22.9240 C   0  0  0  0  0  0  0  0  0  0  0  0
    9.6100   -4.1360   25.3570 C   0  0  0  0  0  0  0  0  0  0  0  0
    5.3800    1.6670   22.3050 C   0  0  0  0  0  0  0  0  0  0  0  0
    5.4210    0.6500   20.2980 C   0  0  0  0  0  0  0  0  0  0  0  0
   12.7810   -2.0590   22.3520 C   0  0  0  0  0  0  0  0  0  0  0  0
   10.7660    1.3330   23.9580 C   0  0  0  0  0  0  0  0  0  0  0  0
   12.7410    0.3360   22.9710 C   0  0  0  0  0  0  0  0  0  0  0  0
    9.9820   -5.4600   25.6320 C   0  0  0  0  0  0  0  0  0  0  0  0
    8.2160   -3.6700   26.1880 S   0  0  0  0  0  0  0  0  0  0  0  0
    4.0780    2.4440   22.0480 C   0  0  2  0  0  0  0  0  0  0  0  0
    4.5060    1.5380   19.8460 C   0  0  0  0  0  0  0  0  0  0  0  0
    6.3510    0.1360   19.4180 C   0  0  0  0  0  0  0  0  0  0  0  0
   12.0730    1.4450   23.4940 C   0  0  0  0  0  0  0  0  0  0  0  0
    9.2080   -6.1190   26.5080 C   0  0  0  0  0  0  0  0  0  0  0  0
    8.1090   -5.1940   26.9540 C   0  0  0  0  0  0  0  0  0  0  0  0
    3.2060    2.2520   23.0720 N   0  0  0  0  0  0  0  0  0  0  0  0
    3.4880    2.0730   20.8440 C   0  0  0  0  0  0  0  0  0  0  0  0
    4.4990    1.9480   18.5150 C   0  0  0  0  0  0  0  0  0  0  0  0
    6.4260    0.4540   18.1260 N   0  0  0  0  0  0  0  0  0  0  0  0
    6.8760   -5.5510   28.0870 Cl  0  0  0  0  0  0  0  0  0  0  0  0
    5.4860    1.3740   17.7050 C   0  0  0  0  0  0  0  0  0  0  0  0
  1  2  1  0
  2  3  1  0
  3  4  1  0
  5  4  1  6
  5  6  1  0
  5  7  1  0
  6  7  1  6
  6  8  1  0
  8  9  1  0
  8 10  1  6
  9 11  1  0
 10 12  1  0
  9 13  1  0
 11 14  2  0
 11 15  1  0
 12 16  1  0
 12 17  1  0
 13 17  1  0
 13 18  1  1
 16 19  1  1
 16 20  1  0
 21 18  1  1
 20 22  2  0
 20 23  1  0
 19 24  1  0
 21 25  1  0
 21 26  1  0
 23 27  1  0
 22 28  1  0
 23 29  2  0
 24 30  2  0
 24 31  1  0
 25 32  1  0
 26 33  2  0
 26 34  1  0
 28 35  2  0
 29 35  1  0
 30 36  1  0
 31 37  1  0
 36 37  2  0
 32 38  1  1
 32 39  1  0
 33 39  1  0
 33 40  1  0
 34 41  2  0
 37 42  1  0
 40 43  2  0
 41 43  1  0
M  END
