x0692_1-x0831_1-x0770_1-x0434_2-x0831_0-x1385_1-x0734_0-x1412_1-x1334_1-x0397_0
     RDKit          3D

 37 41  0  0  0  0  0  0  0  0999 V2000
    6.1800   -3.2910   19.9910 C   0  0  0  0  0  0  0  0  0  0  0  0
    7.1540   -3.0200   18.8570 C   0  0  0  0  0  0  0  0  0  0  0  0
    5.3440   -4.1930   19.7760 O   0  0  0  0  0  0  0  0  0  0  0  0
    6.2870   -2.5520   21.2120 N   0  0  0  0  0  0  0  0  0  0  0  0
    7.1950   -1.4070   21.3040 C   0  0  1  0  0  0  0  0  0  0  0  0
    6.2710   -3.3020   22.5010 C   0  0  2  0  0  0  0  0  0  0  0  0
    8.4860   -1.8520   21.9210 C   0  0  0  0  0  0  0  0  0  0  0  0
    7.3540   -2.9850   23.6090 C   0  0  0  0  0  0  0  0  0  0  0  0
    6.5070   -4.7910   22.2630 C   0  0  1  0  0  0  0  0  0  0  0  0
    7.7130   -0.5140   20.2230 C   0  0  0  0  0  0  0  0  0  0  0  0
    8.3570   -1.9360   23.3400 N   0  0  0  0  0  0  0  0  0  0  0  0
    5.7890   -5.7490   23.0890 C   0  0  2  0  0  0  0  0  0  0  0  0
    5.3390   -5.8970   21.7100 C   0  0  0  0  0  0  0  0  0  0  0  0
    6.9960   -0.1260   18.9730 C   0  0  0  0  0  0  0  0  0  0  0  0
    4.6690   -5.3130   24.0760 C   0  0  0  0  0  0  0  0  0  0  0  0
    9.7140   -2.1790   23.8890 C   0  0  0  0  0  0  0  0  0  0  0  0
    6.3900    0.4680   20.1000 C   0  0  0  0  0  0  0  0  0  0  0  0
    6.1010    0.4320   17.9250 N   0  0  0  0  0  0  0  0  0  0  0  0
    4.7950   -5.9460   25.2880 N   0  0  0  0  0  0  0  0  0  0  0  0
   10.6990   -1.0350   23.6400 C   0  0  0  0  0  0  0  0  0  0  0  0
    5.0460    1.2540   17.9430 C   0  0  0  0  0  0  0  0  0  0  0  0
    5.3010    1.3050   20.1940 C   0  0  0  0  0  0  0  0  0  0  0  0
    5.1640   -5.2290   26.2700 N   0  0  0  0  0  0  0  0  0  0  0  0
   10.4280    0.4110   24.1230 C   0  0  0  0  0  0  0  0  0  0  0  0
   12.0610   -1.1250   22.8840 C   0  0  0  0  0  0  0  0  0  0  0  0
    4.6040    1.7280   19.1820 C   0  0  0  0  0  0  0  0  0  0  0  0
    4.4880   -4.1890   26.5910 O   0  0  0  0  0  0  0  0  0  0  0  0
   12.6120   -2.3600   22.2800 C   0  0  0  0  0  0  0  0  0  0  0  0
    6.6140   -5.1480   26.4060 C   0  0  0  0  0  0  0  0  0  0  0  0
   11.3980    1.5290   23.8550 C   0  0  0  0  0  0  0  0  0  0  0  0
   12.8480   -0.0040   22.7280 C   0  0  0  0  0  0  0  0  0  0  0  0
    7.5430   -4.6840   25.2890 C   0  0  0  0  0  0  0  0  0  0  0  0
    7.2710   -5.4670   27.5000 C   0  0  0  0  0  0  0  0  0  0  0  0
   12.5770    1.3680   23.1900 C   0  0  0  0  0  0  0  0  0  0  0  0
    9.0920   -4.5790   25.3970 C   0  0  0  0  0  0  0  0  0  0  0  0
    8.8390   -5.4030   27.7130 C   0  0  0  0  0  0  0  0  0  0  0  0
    9.7350   -4.9890   26.7510 C   0  0  0  0  0  0  0  0  0  0  0  0
  1  2  1  0
  1  3  2  0
  1  4  1  0
  4  5  1  0
  4  6  1  0
  5  7  1  0
  6  8  1  1
  6  9  1  0
  5 10  1  6
  7 11  1  0
  8 11  1  0
  9 12  1  0
  9 13  1  6
 12 13  1  0
 10 14  1  0
 12 15  1  1
 11 16  1  0
 14 17  2  0
 14 18  1  0
 15 19  1  0
 16 20  1  0
 18 21  2  0
 17 22  1  0
 19 23  2  3
 20 24  2  0
 20 25  1  0
 21 26  1  0
 22 26  2  0
 23 27  1  0
 25 28  1  0
 23 29  1  0
 24 30  1  0
 25 31  2  0
 29 32  2  0
 29 33  1  0
 30 34  2  0
 31 34  1  0
 32 35  1  0
 33 36  2  0
 35 37  2  0
 36 37  1  0
M  CHG  2  23   1  27  -1
M  END
