x0692_1-x0540_3-x1418_0-x1334_1
     RDKit          3D

 21 22  0  0  0  0  0  0  0  0999 V2000
    6.2590   -3.3210   19.9080 C   0  0  0  0  0  0  0  0  0  0  0  0
    7.2780   -2.9890   18.8170 C   0  0  0  0  0  0  0  0  0  0  0  0
    5.3580   -4.1460   19.7390 O   0  0  0  0  0  0  0  0  0  0  0  0
    6.4110   -2.6610   21.1290 N   0  0  0  0  0  0  0  0  0  0  0  0
    7.0800   -1.3710   21.2990 C   0  0  1  0  0  0  0  0  0  0  0  0
    6.4270   -3.3950   22.3960 C   0  0  0  0  0  0  0  0  0  0  0  0
    6.2380   -0.5580   22.3090 C   0  0  0  0  0  0  0  0  0  0  0  0
    8.5190   -1.5960   21.7470 C   0  0  0  0  0  0  0  0  0  0  0  0
    7.6960   -3.5520   22.9350 C   0  0  0  0  0  0  0  0  0  0  0  0
    5.2200    0.4360   21.7390 C   0  0  0  0  0  0  0  0  0  0  0  0
    8.5460   -2.3360   22.9430 N   0  0  0  0  0  0  0  0  0  0  0  0
    5.3280    1.8530   22.3550 C   0  0  0  0  0  0  0  0  0  0  0  0
    9.9470   -2.6770   23.2520 C   0  0  0  0  0  0  0  0  0  0  0  0
    4.0430    2.5400   22.4440 N   0  0  0  0  0  0  0  0  0  0  0  0
   10.8250   -1.5790   23.1920 C   0  0  0  0  0  0  0  0  0  0  0  0
    2.9680    2.1260   23.3560 C   0  0  0  0  0  0  0  0  0  0  0  0
   12.2040   -1.5440   22.9550 C   0  0  0  0  0  0  0  0  0  0  0  0
   10.3970    0.1510   23.4110 S   0  0  0  0  0  0  0  0  0  0  0  0
    3.0500    1.4470   24.3780 O   0  0  0  0  0  0  0  0  0  0  0  0
   12.9580   -0.4880   22.9130 C   0  0  0  0  0  0  0  0  0  0  0  0
   12.0370    0.6100   23.1700 C   0  0  0  0  0  0  0  0  0  0  0  0
  1  2  1  0
  1  3  2  0
  1  4  1  0
  4  5  1  0
  4  6  1  0
  5  7  1  1
  5  8  1  0
  6  9  1  0
  7 10  1  0
  8 11  1  0
  9 11  1  0
 10 12  1  0
 11 13  1  0
 12 14  1  0
 13 15  1  0
 14 16  1  0
 15 17  2  0
 15 18  1  0
 16 19  2  0
 17 20  1  0
 18 21  1  0
 20 21  2  0
M  END
