x0692_1-x0981_1-x1418_0-x0540_3
     RDKit          3D

 33 34  0  0  0  0  0  0  0  0999 V2000
    4.3170   -5.9050   23.0020 C   0  0  0  0  0  0  0  0  0  0  0  0
    2.8830   -6.0920   23.4660 C   0  0  1  0  0  0  0  0  0  0  0  0
    2.4780   -7.3610   22.8630 N   0  0  0  0  0  0  0  0  0  0  0  0
    5.0490   -4.7320   23.0170 N   0  0  0  0  0  0  0  0  0  0  0  0
    2.8140   -6.1570   24.9830 C   0  0  0  0  0  0  0  0  0  0  0  0
    6.3850   -4.9650   22.4590 C   0  0  0  0  0  0  0  0  0  0  0  0
    1.2370   -7.4530   22.1080 C   0  0  0  0  0  0  0  0  0  0  0  0
    3.1750   -7.6300   25.3180 C   0  0  0  0  0  0  0  0  0  0  0  0
    7.1490   -3.6500   22.1780 C   0  0  1  0  0  0  0  0  0  0  0  0
    1.1000   -8.7190   21.3070 C   0  0  0  0  0  0  0  0  0  0  0  0
    0.3830   -6.5720   22.1050 O   0  0  0  0  0  0  0  0  0  0  0  0
    2.5410   -8.2240   26.3660 N   0  0  0  0  0  0  0  0  0  0  0  0
    4.0030   -8.1870   24.6290 O   0  0  0  0  0  0  0  0  0  0  0  0
    6.4720   -2.7480   21.2100 N   0  0  0  0  0  0  0  0  0  0  0  0
    7.4580   -2.9970   23.3800 C   0  0  0  0  0  0  0  0  0  0  0  0
    6.2640   -3.3260   19.9560 C   0  0  0  0  0  0  0  0  0  0  0  0
    8.4990   -1.9950   23.1000 N   0  0  0  0  0  0  0  0  0  0  0  0
    6.9950   -1.3640   21.3210 C   0  0  1  0  0  0  0  0  0  0  0  0
    5.3540   -4.1370   19.7380 O   0  0  0  0  0  0  0  0  0  0  0  0
    7.2090   -2.9850   18.8080 C   0  0  0  0  0  0  0  0  0  0  0  0
    6.1700   -0.6600   22.2770 C   0  0  0  0  0  0  0  0  0  0  0  0
    9.8600   -2.5590   23.2680 C   0  0  0  0  0  0  0  0  0  0  0  0
    8.3450   -1.3970   21.7510 C   0  0  0  0  0  0  0  0  0  0  0  0
    5.2000    0.4320   21.7950 C   0  0  0  0  0  0  0  0  0  0  0  0
   10.8490   -1.5680   23.3260 C   0  0  0  0  0  0  0  0  0  0  0  0
    5.3740    1.6550   22.4080 C   0  0  0  0  0  0  0  0  0  0  0  0
   12.0360   -1.4170   22.5240 C   0  0  0  0  0  0  0  0  0  0  0  0
   10.7430   -0.2470   24.5040 S   0  0  0  0  0  0  0  0  0  0  0  0
    4.1290    2.4720   22.4770 N   0  0  0  0  0  0  0  0  0  0  0  0
   12.7380   -0.3040   22.8840 C   0  0  0  0  0  0  0  0  0  0  0  0
   12.1940    0.4370   23.9110 C   0  0  0  0  0  0  0  0  0  0  0  0
    2.9950    2.1200   23.3430 C   0  0  0  0  0  0  0  0  0  0  0  0
    3.0170    1.4560   24.3710 O   0  0  0  0  0  0  0  0  0  0  0  0
  2  1  1  1
  2  3  1  0
  1  4  2  3
  2  5  1  0
  4  6  1  0
  3  7  1  0
  5  8  1  0
  9  6  1  1
  7 10  1  0
  7 11  2  0
  8 12  1  0
  8 13  2  0
  9 14  1  0
  9 15  1  0
 14 16  1  0
 15 17  1  0
 14 18  1  0
 16 19  2  0
 16 20  1  0
 18 21  1  1
 17 22  1  0
 17 23  1  0
 18 23  1  0
 21 24  1  0
 22 25  1  0
 24 26  1  0
 25 27  2  0
 25 28  1  0
 26 29  1  0
 27 30  1  0
 28 31  1  0
 30 31  2  0
 29 32  1  0
 32 33  2  0
M  END
