x0692_1-x0831_0-x1386_1-x1334_1
     RDKit          3D

 17 18  0  0  0  0  0  0  0  0999 V2000
    6.2370   -3.2750   19.8700 C   0  0  0  0  0  0  0  0  0  0  0  0
    7.2270   -2.9790   18.7520 C   0  0  0  0  0  0  0  0  0  0  0  0
    5.3700   -4.1490   19.7520 O   0  0  0  0  0  0  0  0  0  0  0  0
    6.4030   -2.5020   21.0360 N   0  0  0  0  0  0  0  0  0  0  0  0
    7.2140   -1.2770   21.0000 C   0  0  0  0  0  0  0  0  0  0  0  0
    6.3070   -3.0610   22.3890 C   0  0  0  0  0  0  0  0  0  0  0  0
    8.5710   -1.4300   21.6780 C   0  0  0  0  0  0  0  0  0  0  0  0
    7.6630   -3.2870   23.0320 C   0  0  0  0  0  0  0  0  0  0  0  0
    8.4860   -2.0600   23.0220 N   0  0  0  0  0  0  0  0  0  0  0  0
    9.8040   -2.3100   23.4580 C   0  0  0  0  0  0  0  0  0  0  0  0
   10.6800   -1.0650   23.4820 C   0  0  0  0  0  0  0  0  0  0  0  0
   10.1630    0.0840   24.1460 C   0  0  0  0  0  0  0  0  0  0  0  0
   11.9690   -1.0030   22.8660 C   0  0  0  0  0  0  0  0  0  0  0  0
   12.5830   -2.1600   22.1450 C   0  0  0  0  0  0  0  0  0  0  0  0
   10.9520    1.1960   24.1340 C   0  0  0  0  0  0  0  0  0  0  0  0
   12.7910    0.2770   22.9070 C   0  0  0  0  0  0  0  0  0  0  0  0
   12.2140    1.3450   23.5570 C   0  0  0  0  0  0  0  0  0  0  0  0
  1  2  1  0
  1  3  2  0
  1  4  1  0
  4  5  1  0
  4  6  1  0
  5  7  1  0
  6  8  1  0
  7  9  1  0
  8  9  1  0
  9 10  1  0
 10 11  1  0
 11 12  2  0
 11 13  1  0
 13 14  1  0
 12 15  1  0
 13 16  2  0
 15 17  2  0
 16 17  1  0
M  END
