x0691_0-x1412_0
     RDKit          3D

 17 18  0  0  0  0  0  0  0  0999 V2000
    6.6300   -4.3710   20.7070 C   0  0  0  0  0  0  0  0  0  0  0  0
    7.9960   -3.7470   20.3900 C   0  0  0  0  0  0  0  0  0  0  0  0
    5.6750   -4.3710   19.9030 O   0  0  0  0  0  0  0  0  0  0  0  0
    6.4900   -4.9680   21.9820 N   0  0  0  0  0  0  0  0  0  0  0  0
    5.6950   -6.2210   22.0160 C   0  0  0  0  0  0  0  0  0  0  0  0
    7.1680   -4.6610   23.2620 C   0  0  1  0  0  0  0  0  0  0  0  0
    8.2280   -3.5820   23.0610 C   0  0  0  0  0  0  0  0  0  0  0  0
    4.7200   -6.1140   23.0010 C   0  0  0  0  0  0  0  0  0  0  0  0
    6.0330   -4.4760   24.0760 C   0  0  0  0  0  0  0  0  0  0  0  0
    8.3870   -2.8910   24.4430 C   0  0  0  0  0  0  0  0  0  0  0  0
    5.2230   -5.6840   24.1930 N   0  0  0  0  0  0  0  0  0  0  0  0
    8.3750   -1.6770   24.6160 O   0  0  0  0  0  0  0  0  0  0  0  0
    8.5420   -3.9220   25.5460 C   0  0  0  0  0  0  0  0  0  0  0  0
    9.3520   -4.9780   25.2880 C   0  0  0  0  0  0  0  0  0  0  0  0
    7.7650   -3.9350   27.2210 S   0  0  0  0  0  0  0  0  0  0  0  0
    9.4130   -5.8540   26.3650 C   0  0  0  0  0  0  0  0  0  0  0  0
    8.5670   -5.4110   27.5530 C   0  0  0  0  0  0  0  0  0  0  0  0
  1  2  1  0
  1  3  2  0
  1  4  1  0
  4  5  1  0
  4  6  1  0
  6  7  1  6
  5  8  1  0
  6  9  1  0
  7 10  1  0
  8 11  1  0
  9 11  1  0
 10 12  2  0
 10 13  1  0
 13 14  2  0
 13 15  1  0
 14 16  1  0
 15 17  1  0
 16 17  2  0
M  END
