x0692_1-x0831_1-x0770_1-x0397_0-x0831_0
     RDKit          3D

 20 22  0  0  0  0  0  0  0  0999 V2000
    6.1940   -3.2690   19.8090 C   0  0  0  0  0  0  0  0  0  0  0  0
    7.2190   -2.9630   18.7210 C   0  0  0  0  0  0  0  0  0  0  0  0
    5.2270   -4.0030   19.6190 O   0  0  0  0  0  0  0  0  0  0  0  0
    6.4750   -2.7120   21.0630 N   0  0  0  0  0  0  0  0  0  0  0  0
    7.0970   -1.3720   21.1300 C   0  0  0  0  0  0  0  0  0  0  0  0
    6.9260   -3.6560   22.0830 C   0  0  1  0  0  0  0  0  0  0  0  0
    8.5210   -1.5030   21.7200 C   0  0  0  0  0  0  0  0  0  0  0  0
    7.5450   -3.0470   23.3610 C   0  0  0  0  0  0  0  0  0  0  0  0
    5.9220   -4.8200   22.2090 C   0  0  0  0  0  0  0  0  0  0  0  0
    8.5320   -1.9720   23.1160 N   0  0  0  0  0  0  0  0  0  0  0  0
    6.6490   -5.9390   22.5900 C   0  0  0  0  0  0  0  0  0  0  0  0
    5.6940   -5.9190   23.4630 C   0  0  0  0  0  0  0  0  0  0  0  0
    9.9270   -2.2750   23.5020 C   0  0  0  0  0  0  0  0  0  0  0  0
   10.7830   -1.0210   23.5050 C   0  0  0  0  0  0  0  0  0  0  0  0
   10.2300    0.1340   24.1480 C   0  0  0  0  0  0  0  0  0  0  0  0
   12.0650   -0.9630   22.8960 C   0  0  0  0  0  0  0  0  0  0  0  0
   12.6870   -2.1380   22.2000 C   0  0  0  0  0  0  0  0  0  0  0  0
   10.9700    1.2960   24.1470 C   0  0  0  0  0  0  0  0  0  0  0  0
   12.7940    0.2230   22.9210 C   0  0  0  0  0  0  0  0  0  0  0  0
   12.2060    1.2940   23.5420 C   0  0  0  0  0  0  0  0  0  0  0  0
  1  2  1  0
  1  3  2  0
  1  4  1  0
  4  5  1  0
  4  6  1  0
  5  7  1  0
  6  8  1  0
  6  9  1  1
  7 10  1  0
  8 10  1  0
  9 11  1  0
  9 12  1  0
 11 12  1  0
 10 13  1  0
 13 14  1  0
 14 15  2  0
 14 16  1  0
 16 17  1  0
 15 18  1  0
 16 19  2  0
 18 20  2  0
 19 20  1  0
M  END
