x0692_1-x0434_2-x1386_1-x0770_1-x0397_0-x1334_1-x1334_0-x1374_1-x1412_1-x0831_0-x1418_1
     RDKit          3D

 39 43  0  0  0  0  0  0  0  0999 V2000
    6.3620   -3.2560   19.8560 C   0  0  0  0  0  0  0  0  0  0  0  0
    7.2900   -3.0180   18.6890 C   0  0  0  0  0  0  0  0  0  0  0  0
    5.4760   -4.1320   19.7550 O   0  0  0  0  0  0  0  0  0  0  0  0
    6.5750   -2.4730   20.9990 N   0  0  0  0  0  0  0  0  0  0  0  0
    7.7200   -1.5540   20.9400 C   0  0  2  0  0  0  0  0  0  0  0  0
    6.0540   -2.9200   22.3020 C   0  0  2  0  0  0  0  0  0  0  0  0
    8.9050   -1.7830   21.8590 C   0  0  0  0  0  0  0  0  0  0  0  0
    7.0430   -2.5440   23.4560 C   0  0  0  0  0  0  0  0  0  0  0  0
    5.6210   -4.3700   22.4120 C   0  0  2  0  0  0  0  0  0  0  0  0
    7.4240   -0.0760   20.7470 C   0  0  0  0  0  0  0  0  0  0  0  0
    8.4690   -2.1790   23.2060 N   0  0  0  0  0  0  0  0  0  0  0  0
    6.6060   -5.2050   23.0330 C   0  0  2  0  0  0  0  0  0  0  0  0
    6.4070   -5.7260   21.8450 C   0  0  0  0  0  0  0  0  0  0  0  0
    7.0820    0.2890   19.3170 C   0  0  0  0  0  0  0  0  0  0  0  0
    9.4010   -3.2230   23.6560 C   0  0  1  0  0  0  0  0  0  0  0  0
    6.0350    0.4870   20.2720 C   0  0  0  0  0  0  0  0  0  0  0  0
    6.4690    0.7120   18.1320 N   0  0  0  0  0  0  0  0  0  0  0  0
    6.3290   -5.9840   24.2850 C   0  0  0  0  0  0  0  0  0  0  0  0
   10.8640   -2.7850   23.8370 C   0  0  0  0  0  0  0  0  0  0  0  0
    9.0500   -3.9640   24.9470 C   0  0  0  0  0  0  0  0  0  0  0  0
    5.2420    1.1990   17.9040 C   0  0  0  0  0  0  0  0  0  0  0  0
    4.7540    0.9740   20.0880 C   0  0  0  0  0  0  0  0  0  0  0  0
    5.8130   -7.3610   23.8050 C   0  0  0  0  0  0  0  0  0  0  0  0
    9.7940   -5.1070   25.3510 C   0  0  0  0  0  0  0  0  0  0  0  0
    7.8090   -3.6190   26.0990 S   0  0  0  0  0  0  0  0  0  0  0  0
   11.1190   -1.2900   23.7780 C   0  0  0  0  0  0  0  0  0  0  0  0
    4.3270    1.3500   18.8750 C   0  0  0  0  0  0  0  0  0  0  0  0
    4.5390   -7.6920   24.3680 O   0  0  0  0  0  0  0  0  0  0  0  0
    9.3690   -5.6820   26.5580 C   0  0  0  0  0  0  0  0  0  0  0  0
    8.3070   -5.0240   27.1100 C   0  0  0  0  0  0  0  0  0  0  0  0
   10.3000   -0.3620   24.4470 C   0  0  0  0  0  0  0  0  0  0  0  0
   12.2260   -0.8680   23.0240 C   0  0  0  0  0  0  0  0  0  0  0  0
    3.5260   -6.9180   23.7520 C   0  0  0  0  0  0  0  0  0  0  0  0
    7.4650   -5.3720   28.5510 Cl  0  0  0  0  0  0  0  0  0  0  0  0
   13.1000   -1.8270   22.2890 C   0  0  0  0  0  0  0  0  0  0  0  0
   10.6560    1.0950   24.3250 C   0  0  0  0  0  0  0  0  0  0  0  0
   12.5550    0.6200   22.9430 C   0  0  0  0  0  0  0  0  0  0  0  0
    2.2530   -7.4270   24.0770 O   0  0  0  0  0  0  0  0  0  0  0  0
   11.6840    1.5830   23.6470 C   0  0  0  0  0  0  0  0  0  0  0  0
  1  2  1  0
  1  3  2  0
  1  4  1  0
  4  5  1  0
  4  6  1  0
  5  7  1  0
  6  8  1  1
  6  9  1  0
  5 10  1  1
  7 11  1  0
  8 11  1  0
  9 12  1  0
  9 13  1  6
 12 13  1  0
 10 14  1  0
 11 15  1  0
 14 16  2  0
 14 17  1  0
 12 18  1  1
 15 19  1  1
 15 20  1  0
 17 21  2  0
 16 22  1  0
 18 23  1  0
 20 24  2  0
 20 25  1  0
 19 26  1  0
 21 27  1  0
 22 27  2  0
 23 28  1  0
 24 29  1  0
 25 30  1  0
 29 30  2  0
 26 31  2  0
 26 32  1  0
 28 33  1  0
 30 34  1  0
 32 35  1  0
 31 36  1  0
 32 37  2  0
 33 38  1  0
 36 39  2  0
 37 39  1  0
M  END
