x0692_1-x0831_0-x1412_1-x1334_1-x1418_1-x0770_1-x1385_1-x1334_0-x0434_2-x1374_1-x0831_1-x0397_0-x1375_1-x1386_1
     RDKit          3D

 39 43  0  0  0  0  0  0  0  0999 V2000
    6.2040   -3.2440   19.9080 C   0  0  0  0  0  0  0  0  0  0  0  0
    7.1810   -2.9810   18.8000 C   0  0  0  0  0  0  0  0  0  0  0  0
    5.3630   -4.1520   19.7510 O   0  0  0  0  0  0  0  0  0  0  0  0
    6.2870   -2.4910   21.0850 N   0  0  0  0  0  0  0  0  0  0  0  0
    6.9600   -1.1940   21.2020 C   0  0  1  0  0  0  0  0  0  0  0  0
    6.0930   -3.0990   22.4080 C   0  0  2  0  0  0  0  0  0  0  0  0
    8.1660   -1.4130   21.7160 C   0  0  0  0  0  0  0  0  0  0  0  0
    7.4070   -3.1500   23.1830 C   0  0  0  0  0  0  0  0  0  0  0  0
    5.4060   -4.4350   22.3600 C   0  0  2  0  0  0  0  0  0  0  0  0
    7.5500   -0.5430   19.9580 C   0  0  0  0  0  0  0  0  0  0  0  0
    8.2540   -1.9710   23.0520 N   0  0  0  0  0  0  0  0  0  0  0  0
    5.8630   -5.4010   23.3440 C   0  0  2  0  0  0  0  0  0  0  0  0
    6.0400   -5.9210   21.9900 C   0  0  0  0  0  0  0  0  0  0  0  0
    6.8790   -0.0300   18.8600 C   0  0  0  0  0  0  0  0  0  0  0  0
    9.5630   -2.2660   23.2010 C   0  0  2  0  0  0  0  0  0  0  0  0
    6.2400    0.3740   20.0750 C   0  0  0  0  0  0  0  0  0  0  0  0
    6.0830    0.5700   17.9300 N   0  0  0  0  0  0  0  0  0  0  0  0
    4.9440   -6.0420   24.3320 C   0  0  0  0  0  0  0  0  0  0  0  0
    9.8530   -3.5900   23.7850 C   0  0  0  0  0  0  0  0  0  0  0  0
   10.5160   -1.0480   23.2900 C   0  0  0  0  0  0  0  0  0  0  0  0
    5.0020    1.3450   17.9990 C   0  0  0  0  0  0  0  0  0  0  0  0
    5.1150    1.1600   20.2700 C   0  0  0  0  0  0  0  0  0  0  0  0
    4.5450   -7.1550   23.7750 C   0  0  0  0  0  0  0  0  0  0  0  0
   10.0660    0.0800   23.9900 C   0  0  0  0  0  0  0  0  0  0  0  0
   11.9300   -0.9330   22.6660 C   0  0  0  0  0  0  0  0  0  0  0  0
    9.3070   -4.2710   24.9990 C   0  0  0  0  0  0  0  0  0  0  0  0
    4.3980    1.7230   19.1370 C   0  0  0  0  0  0  0  0  0  0  0  0
    4.0230   -7.9810   24.7890 O   0  0  0  0  0  0  0  0  0  0  0  0
   12.6800   -1.9430   21.8690 C   0  0  0  0  0  0  0  0  0  0  0  0
   10.7620    1.2810   24.1620 C   0  0  0  0  0  0  0  0  0  0  0  0
   12.7070    0.4200   22.8720 C   0  0  0  0  0  0  0  0  0  0  0  0
    9.7570   -5.5430   25.4110 C   0  0  0  0  0  0  0  0  0  0  0  0
    8.0820   -3.7320   26.1130 S   0  0  0  0  0  0  0  0  0  0  0  0
    2.6080   -8.0030   24.7640 C   0  0  0  0  0  0  0  0  0  0  0  0
   12.1690    1.4790   23.5680 C   0  0  0  0  0  0  0  0  0  0  0  0
    9.1910   -6.0150   26.4790 C   0  0  0  0  0  0  0  0  0  0  0  0
    8.2080   -5.1720   27.0570 C   0  0  0  0  0  0  0  0  0  0  0  0
    2.1050   -7.0730   23.8200 O   0  0  0  0  0  0  0  0  0  0  0  0
    7.2590   -5.4590   28.4490 Cl  0  0  0  0  0  0  0  0  0  0  0  0
  1  2  1  0
  1  3  2  0
  1  4  1  0
  4  5  1  0
  4  6  1  0
  5  7  1  0
  6  8  1  6
  6  9  1  0
  5 10  1  6
  7 11  1  0
  8 11  1  0
  9 12  1  0
  9 13  1  6
 12 13  1  0
 10 14  1  0
 11 15  1  0
 14 16  2  0
 14 17  1  0
 12 18  1  1
 15 19  1  1
 15 20  1  0
 17 21  2  0
 16 22  1  0
 18 23  1  0
 20 24  2  0
 20 25  1  0
 19 26  1  0
 21 27  1  0
 22 27  2  0
 23 28  1  0
 25 29  1  0
 24 30  1  0
 25 31  2  0
 26 32  2  0
 26 33  1  0
 28 34  1  0
 30 35  2  0
 31 35  1  0
 32 36  1  0
 33 37  1  0
 36 37  2  0
 34 38  1  0
 37 39  1  0
M  END
