x0692_1-x0831_0-x0540_3-x0978_1
     RDKit          3D

 34 35  0  0  0  0  0  0  0  0999 V2000
    4.3670   -5.3340   23.1330 C   0  0  0  0  0  0  0  0  0  0  0  0
    3.2510   -6.3890   23.2580 C   0  0  2  0  0  0  0  0  0  0  0  0
    1.9730   -5.6750   23.1960 N   0  0  0  0  0  0  0  0  0  0  0  0
    4.1700   -4.1380   23.6180 N   0  0  0  0  0  0  0  0  0  0  0  0
    3.3300   -7.1720   24.5670 C   0  0  1  0  0  0  0  0  0  0  0  0
    5.2300   -3.0930   23.5060 C   0  0  0  0  0  0  0  0  0  0  0  0
    0.8680   -6.2130   22.5830 C   0  0  0  0  0  0  0  0  0  0  0  0
    2.2280   -8.1950   24.6550 C   0  0  0  0  0  0  0  0  0  0  0  0
    4.4150   -7.7750   24.6750 O   0  0  0  0  0  0  0  0  0  0  0  0
    6.3740   -3.4290   22.5220 C   0  0  1  0  0  0  0  0  0  0  0  0
    0.8890   -7.2780   21.9800 O   0  0  0  0  0  0  0  0  0  0  0  0
   -0.3890   -5.3950   22.6990 C   0  0  0  0  0  0  0  0  0  0  0  0
    6.3890   -2.7250   21.2010 N   0  0  0  0  0  0  0  0  0  0  0  0
    7.6440   -3.4030   23.1480 C   0  0  0  0  0  0  0  0  0  0  0  0
    6.2150   -3.2990   19.9310 C   0  0  0  0  0  0  0  0  0  0  0  0
    8.4900   -2.1670   23.0380 N   0  0  0  0  0  0  0  0  0  0  0  0
    7.0790   -1.4110   21.2600 C   0  0  1  0  0  0  0  0  0  0  0  0
    5.3000   -4.0890   19.7000 O   0  0  0  0  0  0  0  0  0  0  0  0
    7.2060   -2.9960   18.8210 C   0  0  0  0  0  0  0  0  0  0  0  0
    6.3600   -0.4570   22.2660 C   0  0  0  0  0  0  0  0  0  0  0  0
    9.7910   -2.3690   23.3810 C   0  0  0  0  0  0  0  0  0  0  0  0
    8.3970   -1.5940   21.6860 C   0  0  0  0  0  0  0  0  0  0  0  0
    5.1940    0.3280   21.7440 C   0  0  0  0  0  0  0  0  0  0  0  0
   10.6460   -1.1000   23.4470 C   0  0  0  0  0  0  0  0  0  0  0  0
    5.1370    1.4590   22.4930 C   0  0  0  0  0  0  0  0  0  0  0  0
   10.1290   -0.0120   24.1000 C   0  0  0  0  0  0  0  0  0  0  0  0
   11.9330   -1.0080   22.8590 C   0  0  0  0  0  0  0  0  0  0  0  0
    4.1470    2.3920   22.4240 N   0  0  0  0  0  0  0  0  0  0  0  0
   12.5800   -2.1440   22.1200 C   0  0  0  0  0  0  0  0  0  0  0  0
   10.8600    1.1880   24.1790 C   0  0  0  0  0  0  0  0  0  0  0  0
   12.6540    0.1840   22.9470 C   0  0  0  0  0  0  0  0  0  0  0  0
    2.9810    2.1620   23.3040 C   0  0  0  0  0  0  0  0  0  0  0  0
   12.1160    1.2750   23.6000 C   0  0  0  0  0  0  0  0  0  0  0  0
    2.9410    1.5250   24.3510 O   0  0  0  0  0  0  0  0  0  0  0  0
  2  1  1  1
  2  3  1  0
  1  4  2  3
  2  5  1  0
  4  6  1  0
  3  7  1  0
  5  8  1  6
  5  9  1  0
 10  6  1  1
  7 11  2  0
  7 12  1  0
 10 13  1  0
 10 14  1  0
 13 15  1  0
 14 16  1  0
 13 17  1  0
 15 18  2  0
 15 19  1  0
 17 20  1  1
 16 21  1  0
 16 22  1  0
 17 22  1  0
 20 23  1  0
 21 24  1  0
 23 25  1  0
 24 26  2  0
 24 27  1  0
 25 28  1  0
 27 29  1  0
 26 30  1  0
 27 31  2  0
 28 32  1  0
 30 33  2  0
 31 33  1  0
 32 34  2  0
M  END
