x0692_1-x0397_0-x0426_1-x1385_1-x0831_0-x1334_1-x0770_1-x0434_2-x1374_1-x1412_1
     RDKit          3D

 37 41  0  0  0  0  0  0  0  0999 V2000
    2.0920   -7.1610   23.6060 O   0  0  0  0  0  0  0  0  0  0  0  0
    2.5760   -7.4560   24.9030 C   0  0  0  0  0  0  0  0  0  0  0  0
    3.9430   -7.8230   24.7850 O   0  0  0  0  0  0  0  0  0  0  0  0
    4.5800   -7.1160   23.7290 C   0  0  0  0  0  0  0  0  0  0  0  0
    5.0250   -5.9200   24.2230 C   0  0  0  0  0  0  0  0  0  0  0  0
    5.9780   -5.3740   23.2200 C   0  0  2  0  0  0  0  0  0  0  0  0
    5.6190   -4.4650   22.3830 C   0  0  2  0  0  0  0  0  0  0  0  0
    6.0780   -6.0420   22.0650 C   0  0  0  0  0  0  0  0  0  0  0  0
    6.4760   -3.1960   22.3980 C   0  0  2  0  0  0  0  0  0  0  0  0
    6.4610   -2.5600   21.0810 N   0  0  0  0  0  0  0  0  0  0  0  0
    7.7700   -3.4280   22.8770 C   0  0  0  0  0  0  0  0  0  0  0  0
    6.2820   -3.3130   19.9100 C   0  0  0  0  0  0  0  0  0  0  0  0
    8.6110   -2.2200   23.0360 N   0  0  0  0  0  0  0  0  0  0  0  0
    7.3830   -1.4270   20.9600 C   0  0  1  0  0  0  0  0  0  0  0  0
    5.4220   -4.1950   19.7840 O   0  0  0  0  0  0  0  0  0  0  0  0
    7.2370   -3.0130   18.7720 C   0  0  0  0  0  0  0  0  0  0  0  0
    9.9630   -2.4820   23.5480 C   0  0  0  0  0  0  0  0  0  0  0  0
    7.4850   -0.2920   21.9850 C   0  0  0  0  0  0  0  0  0  0  0  0
    8.6760   -1.4670   21.7570 C   0  0  0  0  0  0  0  0  0  0  0  0
    6.5050    0.8390   21.8510 C   0  0  2  0  0  0  0  0  0  0  0  0
   10.7340   -1.1120   23.5430 C   0  0  0  0  0  0  0  0  0  0  0  0
    5.2600    0.7490   22.7990 C   0  0  0  0  0  0  0  0  0  0  0  0
    5.9820    0.9590   20.4330 C   0  0  0  0  0  0  0  0  0  0  0  0
   10.2430    0.1640   24.1510 C   0  0  0  0  0  0  0  0  0  0  0  0
   12.1210   -0.9990   22.8450 C   0  0  0  0  0  0  0  0  0  0  0  0
    4.3840    2.0060   22.6380 C   0  0  2  0  0  0  0  0  0  0  0  0
   12.8220   -2.1170   22.1520 C   0  0  0  0  0  0  0  0  0  0  0  0
    4.7140    1.5310   20.1630 C   0  0  0  0  0  0  0  0  0  0  0  0
    6.8010    0.4910   19.3910 C   0  0  0  0  0  0  0  0  0  0  0  0
   10.8450    1.4040   24.1700 C   0  0  0  0  0  0  0  0  0  0  0  0
   12.7960    0.3160   22.8590 C   0  0  0  0  0  0  0  0  0  0  0  0
    3.3230    2.0660   23.6130 N   0  0  0  0  0  0  0  0  0  0  0  0
    3.7900    2.0340   21.2190 C   0  0  0  0  0  0  0  0  0  0  0  0
    4.3290    1.6260   18.8710 C   0  0  0  0  0  0  0  0  0  0  0  0
    6.5190    0.5300   18.0710 N   0  0  0  0  0  0  0  0  0  0  0  0
   12.0970    1.5280   23.5480 C   0  0  0  0  0  0  0  0  0  0  0  0
    5.2420    1.1240   17.7840 C   0  0  0  0  0  0  0  0  0  0  0  0
  1  2  1  0
  2  3  1  0
  3  4  1  0
  4  5  1  0
  6  5  1  1
  6  7  1  0
  6  8  1  0
  7  8  1  6
  7  9  1  0
  9 10  1  0
  9 11  1  6
 10 12  1  0
 11 13  1  0
 10 14  1  0
 12 15  2  0
 12 16  1  0
 13 17  1  0
 14 18  1  1
 13 19  1  0
 14 19  1  0
 20 18  1  6
 17 21  1  0
 20 22  1  0
 20 23  1  0
 21 24  2  0
 21 25  1  0
 22 26  1  0
 25 27  1  0
 23 28  2  0
 23 29  1  0
 24 30  1  0
 25 31  2  0
 26 32  1  1
 26 33  1  0
 28 33  1  0
 28 34  1  0
 29 35  2  0
 30 36  2  0
 31 36  1  0
 34 37  2  0
 35 37  1  0
M  END
