x0692_0-x0689_1
     RDKit          3D

 19 20  0  0  0  0  0  0  0  0999 V2000
    6.3810   -4.4190   20.6380 C   0  0  0  0  0  0  0  0  0  0  0  0
    7.6460   -3.6340   20.3150 C   0  0  0  0  0  0  0  0  0  0  0  0
    5.3940   -4.5090   19.8980 O   0  0  0  0  0  0  0  0  0  0  0  0
    6.3910   -5.0650   21.8610 N   0  0  0  0  0  0  0  0  0  0  0  0
    5.6500   -6.2670   22.1420 C   0  0  0  0  0  0  0  0  0  0  0  0
    6.9330   -4.3310   23.0470 C   0  0  1  0  0  0  0  0  0  0  0  0
    7.1910   -2.8480   22.6820 C   0  0  0  0  0  0  0  0  0  0  0  0
    4.5440   -5.9990   23.1690 C   0  0  0  0  0  0  0  0  0  0  0  0
    5.9600   -4.3530   24.2240 C   0  0  0  0  0  0  0  0  0  0  0  0
    8.6640   -2.5230   22.5160 C   0  0  0  0  0  0  0  0  0  0  0  0
    5.2180   -5.6040   24.4260 N   0  0  0  0  0  0  0  0  0  0  0  0
    9.5050   -2.4820   23.7970 C   0  0  0  0  0  0  0  0  0  0  0  0
   10.6140   -1.4660   23.6000 C   0  0  0  0  0  0  0  0  0  0  0  0
   10.3590   -0.1040   23.7740 C   0  0  0  0  0  0  0  0  0  0  0  0
   11.9210   -1.8300   23.2290 C   0  0  0  0  0  0  0  0  0  0  0  0
   11.2970    0.9070   23.6010 C   0  0  0  0  0  0  0  0  0  0  0  0
   12.8870   -0.8580   23.0510 C   0  0  0  0  0  0  0  0  0  0  0  0
   10.9040    2.3310   23.7960 C   0  0  0  0  0  0  0  0  0  0  0  0
   12.5780    0.4800   23.2330 C   0  0  0  0  0  0  0  0  0  0  0  0
  1  2  1  0
  1  3  2  0
  1  4  1  0
  4  5  1  0
  4  6  1  0
  6  7  1  6
  5  8  1  0
  6  9  1  0
  7 10  1  0
  8 11  1  0
  9 11  1  0
 10 12  1  0
 12 13  1  0
 13 14  2  0
 13 15  1  0
 14 16  1  0
 15 17  2  0
 16 18  1  0
 16 19  2  0
 17 19  1  0
M  END
