x0692_1-x0978_1-x0072_0-x0831_0
     RDKit          3D

 34 35  0  0  0  0  0  0  0  0999 V2000
    3.9740   -5.4010   23.3370 C   0  0  0  0  0  0  0  0  0  0  0  0
    2.9820   -6.5580   23.3480 C   0  0  2  0  0  0  0  0  0  0  0  0
    1.7100   -5.8350   23.3300 N   0  0  0  0  0  0  0  0  0  0  0  0
    3.8060   -4.2190   22.8790 N   0  0  0  0  0  0  0  0  0  0  0  0
    3.2900   -7.3660   24.4710 C   0  0  1  0  0  0  0  0  0  0  0  0
    4.8430   -3.2190   22.9740 C   0  0  0  0  0  0  0  0  0  0  0  0
    0.6640   -6.2570   22.5390 C   0  0  0  0  0  0  0  0  0  0  0  0
    2.1070   -8.2650   24.8010 C   0  0  0  0  0  0  0  0  0  0  0  0
    4.3800   -7.8720   24.2730 O   0  0  0  0  0  0  0  0  0  0  0  0
    6.0440   -3.6980   22.1450 C   0  0  1  0  0  0  0  0  0  0  0  0
    0.7350   -7.2800   21.8670 O   0  0  0  0  0  0  0  0  0  0  0  0
   -0.5540   -5.3780   22.5670 C   0  0  0  0  0  0  0  0  0  0  0  0
    6.3710   -2.7520   21.0890 N   0  0  0  0  0  0  0  0  0  0  0  0
    7.1040   -4.2140   22.8740 C   0  0  0  0  0  0  0  0  0  0  0  0
    6.2020   -3.2160   19.8070 C   0  0  0  0  0  0  0  0  0  0  0  0
    7.9990   -3.2020   23.3660 N   0  0  0  0  0  0  0  0  0  0  0  0
    7.3950   -1.7180   21.3650 C   0  0  0  0  0  0  0  0  0  0  0  0
    5.2130   -3.8840   19.5200 O   0  0  0  0  0  0  0  0  0  0  0  0
    7.2680   -2.9650   18.7700 C   0  0  0  0  0  0  0  0  0  0  0  0
    8.0570   -2.8800   24.7470 N   0  0  0  0  0  0  0  0  0  0  0  0
    8.4430   -2.1670   22.3580 C   0  0  0  0  0  0  0  0  0  0  0  0
    8.0760   -4.0130   25.8480 S   0  0  0  0  0  0  0  0  0  0  0  0
    9.0360   -1.8130   24.8740 C   0  0  0  0  0  0  0  0  0  0  0  0
    6.5100   -4.7160   25.8280 C   0  0  0  0  0  0  0  0  0  0  0  0
    9.0090   -5.0630   25.5120 O   0  0  0  0  0  0  0  0  0  0  0  0
    8.1660   -3.3500   27.1360 O   0  0  0  0  0  0  0  0  0  0  0  0
   10.1190   -2.0640   23.7830 C   0  0  0  0  0  0  0  0  0  0  0  0
   10.9170   -0.8840   23.5880 C   0  0  0  0  0  0  0  0  0  0  0  0
   10.4870    0.3010   24.1580 C   0  0  0  0  0  0  0  0  0  0  0  0
   12.1210   -0.8570   22.8550 C   0  0  0  0  0  0  0  0  0  0  0  0
   12.6900   -2.0670   22.1780 C   0  0  0  0  0  0  0  0  0  0  0  0
   11.1790    1.4800   24.0340 C   0  0  0  0  0  0  0  0  0  0  0  0
   12.8230    0.3360   22.7460 C   0  0  0  0  0  0  0  0  0  0  0  0
   12.3610    1.5280   23.3320 C   0  0  0  0  0  0  0  0  0  0  0  0
  2  1  1  1
  2  3  1  0
  1  4  2  3
  2  5  1  0
  4  6  1  0
  3  7  1  0
  5  8  1  6
  5  9  1  0
 10  6  1  1
  7 11  2  0
  7 12  1  0
 10 13  1  0
 10 14  1  0
 13 15  1  0
 14 16  1  0
 13 17  1  0
 15 18  2  0
 15 19  1  0
 16 20  1  0
 16 21  1  0
 17 21  1  0
 22 20  1  0
 20 23  1  0
 22 24  1  0
 22 25  2  0
 22 26  2  0
 23 27  1  0
 27 28  1  0
 28 29  2  0
 28 30  1  0
 30 31  1  0
 29 32  1  0
 30 33  2  0
 32 34  2  0
 33 34  1  0
M  END
