x0692_1-x0831_0-x1412_1-x1374_1-x1418_1-x0770_1-x0434_2-x0426_1-x1334_0-x1334_1-x0397_0-x0831_1-x1385_1-x1386_1
     RDKit          3D

 44 49  0  0  0  0  0  0  0  0999 V2000
    2.2120   -7.7320   23.2730 O   0  0  0  0  0  0  0  0  0  0  0  0
    2.4060   -8.0710   24.6280 C   0  0  0  0  0  0  0  0  0  0  0  0
    3.7820   -7.9850   24.9180 O   0  0  0  0  0  0  0  0  0  0  0  0
    4.4560   -7.2190   23.9290 C   0  0  0  0  0  0  0  0  0  0  0  0
    4.8960   -5.9990   24.3940 C   0  0  0  0  0  0  0  0  0  0  0  0
    6.0660   -5.7220   23.5180 C   0  0  2  0  0  0  0  0  0  0  0  0
    5.9600   -4.7320   22.4930 C   0  0  2  0  0  0  0  0  0  0  0  0
    6.1590   -6.3560   22.2450 C   0  0  0  0  0  0  0  0  0  0  0  0
    7.0330   -3.8310   22.0240 C   0  0  1  0  0  0  0  0  0  0  0  0
    6.6160   -2.8670   21.2580 N   0  0  0  0  0  0  0  0  0  0  0  0
    7.9150   -3.3190   23.1560 C   0  0  0  0  0  0  0  0  0  0  0  0
    6.3770   -3.2100   19.9060 C   0  0  0  0  0  0  0  0  0  0  0  0
    8.9900   -2.5490   22.7680 N   0  0  0  0  0  0  0  0  0  0  0  0
    7.2480   -1.6390   21.8100 C   0  0  2  0  0  0  0  0  0  0  0  0
    5.3720   -3.8800   19.6100 O   0  0  0  0  0  0  0  0  0  0  0  0
    7.3670   -2.9150   18.7790 C   0  0  0  0  0  0  0  0  0  0  0  0
    9.7100   -2.0870   23.8240 C   0  0  1  0  0  0  0  0  0  0  0  0
    6.6150   -0.2840   21.6610 C   0  0  0  0  0  0  0  0  0  0  0  0
    8.7340   -1.7030   21.7310 C   0  0  0  0  0  0  0  0  0  0  0  0
    5.1490   -0.4030   21.3220 C   0  0  1  0  0  0  0  0  0  0  0  0
   10.4670   -3.1790   24.5040 C   0  0  0  0  0  0  0  0  0  0  0  0
   10.6030   -0.8660   23.6150 C   0  0  0  0  0  0  0  0  0  0  0  0
    4.2230    0.1770   22.3860 C   0  0  0  0  0  0  0  0  0  0  0  0
    5.1970    0.3280   19.9920 C   0  0  0  0  0  0  0  0  0  0  0  0
   10.0880    0.5480   24.1030 C   0  0  0  0  0  0  0  0  0  0  0  0
   11.9960   -0.9430   22.9580 C   0  0  0  0  0  0  0  0  0  0  0  0
    9.7110   -4.1210   25.3930 C   0  0  0  0  0  0  0  0  0  0  0  0
    4.0860    1.6930   22.1690 C   0  0  2  0  0  0  0  0  0  0  0  0
   12.6610   -2.1620   22.4200 C   0  0  0  0  0  0  0  0  0  0  0  0
    4.4060    1.4390   19.6930 C   0  0  0  0  0  0  0  0  0  0  0  0
    6.0760   -0.1610   19.1130 C   0  0  0  0  0  0  0  0  0  0  0  0
   10.9010    1.6370   23.9310 C   0  0  0  0  0  0  0  0  0  0  0  0
   12.7100    0.4120   22.8860 C   0  0  0  0  0  0  0  0  0  0  0  0
   10.0560   -5.4330   25.6790 C   0  0  0  0  0  0  0  0  0  0  0  0
    8.2570   -3.7210   26.2370 S   0  0  0  0  0  0  0  0  0  0  0  0
    3.3880    2.2320   23.1080 N   0  0  0  0  0  0  0  0  0  0  0  0
    3.4650    1.8730   20.7900 C   0  0  0  0  0  0  0  0  0  0  0  0
    4.4030    2.2600   18.3670 C   0  0  0  0  0  0  0  0  0  0  0  0
    6.2320    0.4290   17.8620 N   0  0  0  0  0  0  0  0  0  0  0  0
   12.2820    1.6760   23.3130 C   0  0  0  0  0  0  0  0  0  0  0  0
    9.1170   -6.1090   26.6380 C   0  0  0  0  0  0  0  0  0  0  0  0
    8.1270   -5.2420   26.9940 C   0  0  0  0  0  0  0  0  0  0  0  0
    6.8540   -5.5810   28.0870 Cl  0  0  0  0  0  0  0  0  0  0  0  0
    5.4630    1.4840   17.6130 C   0  0  0  0  0  0  0  0  0  0  0  0
  1  2  1  0
  2  3  1  0
  3  4  1  0
  4  5  1  0
  6  5  1  6
  6  7  1  0
  6  8  1  0
  7  8  1  6
  7  9  1  0
  9 10  1  0
  9 11  1  1
 10 12  1  0
 11 13  1  0
 10 14  1  0
 12 15  2  0
 12 16  1  0
 13 17  1  0
 14 18  1  6
 13 19  1  0
 14 19  1  0
 20 18  1  1
 17 21  1  6
 17 22  1  0
 20 23  1  0
 20 24  1  0
 22 25  2  0
 22 26  1  0
 21 27  1  0
 23 28  1  0
 26 29  1  0
 24 30  2  0
 24 31  1  0
 25 32  1  0
 26 33  2  0
 27 34  2  0
 27 35  1  0
 28 36  1  1
 28 37  1  0
 30 37  1  0
 30 38  1  0
 31 39  2  0
 32 40  2  0
 33 40  1  0
 34 41  1  0
 35 42  1  0
 41 42  2  0
 42 43  1  0
 38 44  2  0
 39 44  1  0
M  END
