x0692_1-x0978_1-x1386_0-x0831_0
     RDKit          3D

 29 30  0  0  0  0  0  0  0  0999 V2000
    4.3070   -6.0050   22.7830 C   0  0  0  0  0  0  0  0  0  0  0  0
    2.9720   -6.6100   23.2390 C   0  0  2  0  0  0  0  0  0  0  0  0
    1.8620   -5.6910   23.1640 N   0  0  0  0  0  0  0  0  0  0  0  0
    4.5790   -4.6130   22.4580 N   0  0  0  0  0  0  0  0  0  0  0  0
    3.1340   -7.3210   24.6150 C   0  0  1  0  0  0  0  0  0  0  0  0
    6.0080   -4.5620   22.0890 C   0  0  0  0  0  0  0  0  0  0  0  0
    0.6990   -6.1310   22.5710 C   0  0  0  0  0  0  0  0  0  0  0  0
    1.9920   -8.3910   24.8250 C   0  0  0  0  0  0  0  0  0  0  0  0
    4.3740   -7.9990   24.5560 O   0  0  0  0  0  0  0  0  0  0  0  0
    6.4970   -3.1060   22.2380 C   0  0  2  0  0  0  0  0  0  0  0  0
    0.6410   -7.1690   21.9220 O   0  0  0  0  0  0  0  0  0  0  0  0
   -0.5110   -5.2670   22.7660 C   0  0  0  0  0  0  0  0  0  0  0  0
    6.5510   -2.3670   20.9590 N   0  0  0  0  0  0  0  0  0  0  0  0
    7.7040   -3.1420   22.9770 C   0  0  0  0  0  0  0  0  0  0  0  0
    6.3380   -3.1450   19.8110 C   0  0  0  0  0  0  0  0  0  0  0  0
    8.4740   -1.8660   22.9780 N   0  0  0  0  0  0  0  0  0  0  0  0
    7.4600   -1.2130   20.9320 C   0  0  0  0  0  0  0  0  0  0  0  0
    5.4060   -3.9560   19.6600 O   0  0  0  0  0  0  0  0  0  0  0  0
    7.3620   -2.9810   18.7140 C   0  0  0  0  0  0  0  0  0  0  0  0
    9.7100   -1.9520   23.7930 C   0  0  1  0  0  0  0  0  0  0  0  0
    8.7010   -1.4460   21.5970 C   0  0  0  0  0  0  0  0  0  0  0  0
   10.3870   -3.0900   23.6370 C   0  0  0  0  0  0  0  0  0  0  0  0
   10.6110   -0.8710   23.6420 C   0  0  0  0  0  0  0  0  0  0  0  0
   10.2000    0.2840   24.1790 C   0  0  0  0  0  0  0  0  0  0  0  0
   11.8770   -0.9150   22.9820 C   0  0  0  0  0  0  0  0  0  0  0  0
   12.4620   -2.1290   22.3310 C   0  0  0  0  0  0  0  0  0  0  0  0
   10.9570    1.4290   24.1100 C   0  0  0  0  0  0  0  0  0  0  0  0
   12.6490    0.2520   22.9210 C   0  0  0  0  0  0  0  0  0  0  0  0
   12.1880    1.4230   23.4820 C   0  0  0  0  0  0  0  0  0  0  0  0
  2  1  1  1
  2  3  1  0
  1  4  2  3
  2  5  1  0
  4  6  1  0
  3  7  1  0
  5  8  1  6
  5  9  1  0
 10  6  1  6
  7 11  2  0
  7 12  1  0
 10 13  1  0
 10 14  1  0
 13 15  1  0
 14 16  1  0
 13 17  1  0
 15 18  2  0
 15 19  1  0
 16 20  1  0
 16 21  1  0
 17 21  1  0
 20 22  1  6
 20 23  1  0
 23 24  2  0
 23 25  1  0
 25 26  1  0
 24 27  1  0
 25 28  2  0
 27 29  2  0
 28 29  1  0
M  END
