x0692_0-x0770_1-x1374_1
     RDKit          3D

 25 27  0  0  0  0  0  0  0  0999 V2000
    6.3240   -3.3170   19.8990 C   0  0  0  0  0  0  0  0  0  0  0  0
    7.3110   -3.0170   18.7920 C   0  0  0  0  0  0  0  0  0  0  0  0
    5.3550   -4.0470   19.6830 O   0  0  0  0  0  0  0  0  0  0  0  0
    6.5860   -2.7890   21.1510 N   0  0  0  0  0  0  0  0  0  0  0  0
    7.2270   -1.4340   21.1760 C   0  0  0  0  0  0  0  0  0  0  0  0
    7.0380   -3.7930   22.1290 C   0  0  2  0  0  0  0  0  0  0  0  0
    6.1390   -4.0890   23.3200 C   0  0  0  0  0  0  0  0  0  0  0  0
    8.5020   -1.3350   22.0770 C   0  0  0  0  0  0  0  0  0  0  0  0
    8.3310   -3.6010   22.5820 C   0  0  0  0  0  0  0  0  0  0  0  0
    8.4870   -2.2930   23.1490 N   0  0  0  0  0  0  0  0  0  0  0  0
    4.8380   -4.7820   22.9300 C   0  0  2  0  0  0  0  0  0  0  0  0
    9.4640   -2.2490   24.0910 C   0  0  0  0  0  0  0  0  0  0  0  0
    3.8250   -4.2960   24.0140 C   0  0  0  0  0  0  0  0  0  0  0  0
    5.0580   -6.2810   23.0580 C   0  0  0  0  0  0  0  0  0  0  0  0
   10.6350   -1.3600   23.7090 C   0  0  0  0  0  0  0  0  0  0  0  0
    3.1760   -5.3840   24.5620 C   0  0  0  0  0  0  0  0  0  0  0  0
    3.6820   -6.8430   23.8760 S   0  0  0  0  0  0  0  0  0  0  0  0
    2.7800   -7.3440   22.8720 O   0  0  0  0  0  0  0  0  0  0  0  0
    4.1920   -7.9050   25.0220 O   0  0  0  0  0  0  0  0  0  0  0  0
   10.4110   -0.0430   23.8260 C   0  0  0  0  0  0  0  0  0  0  0  0
   11.8790   -1.7840   23.2660 C   0  0  0  0  0  0  0  0  0  0  0  0
   11.3700    0.9070   23.5210 C   0  0  0  0  0  0  0  0  0  0  0  0
   12.8650   -0.8530   22.9560 C   0  0  0  0  0  0  0  0  0  0  0  0
   11.0610    2.3610   23.6550 C   0  0  0  0  0  0  0  0  0  0  0  0
   12.6290    0.4940   23.0780 C   0  0  0  0  0  0  0  0  0  0  0  0
  1  2  1  0
  1  3  2  0
  1  4  1  0
  4  5  1  0
  4  6  1  0
  6  7  1  1
  5  8  1  0
  6  9  1  0
  8 10  1  0
  9 10  1  0
 11  7  1  1
 10 12  1  0
 11 13  1  0
 11 14  1  0
 12 15  1  0
 13 16  2  0
 14 17  1  0
 16 17  1  0
 17 18  1  0
 17 19  1  0
 15 20  2  0
 15 21  1  0
 20 22  1  0
 21 23  2  0
 22 24  1  0
 22 25  2  0
 23 25  1  0
M  END
