x0692_1-x0831_0-x0831_1-x0770_1-x1386_1-x0397_0-x0540_3-x1334_1-x1412_1-x0434_2-x1418_1
     RDKit          3D

 32 35  0  0  0  0  0  0  0  0999 V2000
    6.2370   -3.3270   19.9620 C   0  0  0  0  0  0  0  0  0  0  0  0
    7.1950   -2.9630   18.8380 C   0  0  0  0  0  0  0  0  0  0  0  0
    5.3100   -4.1140   19.7250 O   0  0  0  0  0  0  0  0  0  0  0  0
    6.4310   -2.8210   21.2690 N   0  0  0  0  0  0  0  0  0  0  0  0
    6.7640   -1.5160   21.3840 C   0  0  1  0  0  0  0  0  0  0  0  0
    6.9740   -3.7100   22.1460 C   0  0  1  0  0  0  0  0  0  0  0  0
    5.7380   -0.8040   22.3410 C   0  0  0  0  0  0  0  0  0  0  0  0
    8.2230   -1.3730   21.8680 C   0  0  0  0  0  0  0  0  0  0  0  0
    7.5550   -3.1890   23.2480 C   0  0  0  0  0  0  0  0  0  0  0  0
    5.9120   -4.6650   22.5970 C   0  0  0  0  0  0  0  0  0  0  0  0
    5.0360    0.4060   21.7270 C   0  0  1  0  0  0  0  0  0  0  0  0
    8.4440   -2.0460   23.1410 N   0  0  0  0  0  0  0  0  0  0  0  0
    6.2480   -5.9310   23.2430 C   0  0  0  0  0  0  0  0  0  0  0  0
    5.9400   -6.1410   22.0110 C   0  0  0  0  0  0  0  0  0  0  0  0
    5.2720    1.6580   22.6350 C   0  0  0  0  0  0  0  0  0  0  0  0
    9.9030   -2.3490   23.3530 C   0  0  0  0  0  0  0  0  0  0  0  0
    5.4650    0.5650   20.2880 C   0  0  0  0  0  0  0  0  0  0  0  0
    4.0890    2.5270   22.6850 N   0  0  0  0  0  0  0  0  0  0  0  0
   10.6450   -1.0740   23.4430 C   0  0  0  0  0  0  0  0  0  0  0  0
    6.6310   -0.0350   19.8390 C   0  0  0  0  0  0  0  0  0  0  0  0
    4.6630    1.3720   19.2690 C   0  0  0  0  0  0  0  0  0  0  0  0
    2.9740    2.1700   23.4020 C   0  0  0  0  0  0  0  0  0  0  0  0
   10.1730    0.2500   24.1130 C   0  0  0  0  0  0  0  0  0  0  0  0
   11.9570   -1.0070   22.8400 C   0  0  0  0  0  0  0  0  0  0  0  0
    6.9940    0.1150   18.5390 C   0  0  0  0  0  0  0  0  0  0  0  0
    5.1710    1.4350   17.9860 C   0  0  0  0  0  0  0  0  0  0  0  0
    2.9500    1.4800   24.4210 O   0  0  0  0  0  0  0  0  0  0  0  0
   12.5950   -2.2220   22.1210 C   0  0  0  0  0  0  0  0  0  0  0  0
   10.9260    1.4060   24.1300 C   0  0  0  0  0  0  0  0  0  0  0  0
   12.7110    0.1600   22.8680 C   0  0  0  0  0  0  0  0  0  0  0  0
    6.3150    0.8180   17.6160 N   0  0  0  0  0  0  0  0  0  0  0  0
   12.2040    1.4050   23.5160 C   0  0  0  0  0  0  0  0  0  0  0  0
  1  2  1  0
  1  3  2  0
  1  4  1  0
  4  5  1  0
  4  6  1  0
  5  7  1  1
  5  8  1  0
  6  9  1  0
  6 10  1  1
 11  7  1  1
  8 12  1  0
  9 12  1  0
 10 13  1  0
 10 14  1  0
 13 14  1  0
 11 15  1  0
 12 16  1  0
 11 17  1  0
 15 18  1  0
 16 19  1  0
 17 20  2  0
 17 21  1  0
 18 22  1  0
 19 23  2  0
 19 24  1  0
 20 25  1  0
 21 26  2  0
 22 27  2  0
 24 28  1  0
 23 29  1  0
 24 30  2  0
 25 31  2  0
 26 31  1  0
 29 32  2  0
 30 32  1  0
M  END
