x0692_1-x0831_1-x1334_0-x1418_1-x1334_1-x1412_1-x1385_1-x0397_0-x0770_1-x1374_1-x0426_1-x0831_0-x1386_1-x1375_1
     RDKit          3D

 44 49  0  0  0  0  0  0  0  0999 V2000
    2.0120   -7.1660   23.6650 O   0  0  0  0  0  0  0  0  0  0  0  0
    2.5000   -7.4830   24.9570 C   0  0  0  0  0  0  0  0  0  0  0  0
    3.8760   -7.8240   24.9280 O   0  0  0  0  0  0  0  0  0  0  0  0
    4.4830   -7.1800   23.8230 C   0  0  0  0  0  0  0  0  0  0  0  0
    4.9160   -5.9480   24.2110 C   0  0  0  0  0  0  0  0  0  0  0  0
    5.9540   -5.6110   23.1980 C   0  0  2  0  0  0  0  0  0  0  0  0
    5.8080   -4.5050   22.3050 C   0  0  2  0  0  0  0  0  0  0  0  0
    5.8800   -6.1370   22.0080 C   0  0  0  0  0  0  0  0  0  0  0  0
    6.9400   -3.5020   22.1970 C   0  0  1  0  0  0  0  0  0  0  0  0
    6.6760   -2.5980   21.1130 N   0  0  0  0  0  0  0  0  0  0  0  0
    7.3290   -2.8960   23.3920 C   0  0  0  0  0  0  0  0  0  0  0  0
    6.3820   -3.2100   19.8700 C   0  0  0  0  0  0  0  0  0  0  0  0
    8.6660   -2.2850   23.3420 N   0  0  0  0  0  0  0  0  0  0  0  0
    7.7070   -1.5190   21.1950 C   0  0  2  0  0  0  0  0  0  0  0  0
    5.4270   -4.0020   19.7000 O   0  0  0  0  0  0  0  0  0  0  0  0
    7.3060   -2.9510   18.7160 C   0  0  0  0  0  0  0  0  0  0  0  0
    9.6410   -3.2110   23.9200 C   0  0  1  0  0  0  0  0  0  0  0  0
    8.9710   -1.9650   21.9230 C   0  0  0  0  0  0  0  0  0  0  0  0
    7.1520   -0.3360   21.9920 C   0  0  0  0  0  0  0  0  0  0  0  0
   10.8910   -2.5450   24.4340 C   0  0  0  0  0  0  0  0  0  0  0  0
    9.2180   -4.1170   25.0470 C   0  0  0  0  0  0  0  0  0  0  0  0
    5.7500    0.0060   21.6020 C   0  0  1  0  0  0  0  0  0  0  0  0
    9.8140   -5.3970   25.3030 C   0  0  0  0  0  0  0  0  0  0  0  0
    7.9360   -3.7510   26.2420 S   0  0  0  0  0  0  0  0  0  0  0  0
   11.2500   -1.1330   23.9950 C   0  0  0  0  0  0  0  0  0  0  0  0
    5.3250    1.0130   22.4730 C   0  0  0  0  0  0  0  0  0  0  0  0
    5.6260    0.4990   20.2020 C   0  0  0  0  0  0  0  0  0  0  0  0
    9.2780   -6.0360   26.3870 C   0  0  0  0  0  0  0  0  0  0  0  0
    8.1740   -5.2630   27.0840 C   0  0  0  0  0  0  0  0  0  0  0  0
   10.4120   -0.0280   24.6080 C   0  0  0  0  0  0  0  0  0  0  0  0
   12.2930   -0.8410   23.0980 C   0  0  0  0  0  0  0  0  0  0  0  0
    3.8460    1.3790   22.2290 C   0  0  1  0  0  0  0  0  0  0  0  0
    4.5660    1.4690   19.9050 C   0  0  0  0  0  0  0  0  0  0  0  0
    6.4690    0.0960   19.1610 C   0  0  0  0  0  0  0  0  0  0  0  0
    7.2520   -5.6980   28.4560 Cl  0  0  0  0  0  0  0  0  0  0  0  0
   13.1140   -1.9120   22.4690 C   0  0  0  0  0  0  0  0  0  0  0  0
   10.6840    1.2540   24.2860 C   0  0  0  0  0  0  0  0  0  0  0  0
   12.5080    0.4320   22.8420 C   0  0  0  0  0  0  0  0  0  0  0  0
    3.4520    2.2600   23.1890 N   0  0  0  0  0  0  0  0  0  0  0  0
    3.6140    1.9510   20.9650 C   0  0  0  0  0  0  0  0  0  0  0  0
    4.4780    1.9290   18.6150 C   0  0  0  0  0  0  0  0  0  0  0  0
    6.3650    0.5480   17.9320 N   0  0  0  0  0  0  0  0  0  0  0  0
   11.7060    1.5810   23.4280 C   0  0  0  0  0  0  0  0  0  0  0  0
    5.3870    1.4450   17.6920 C   0  0  0  0  0  0  0  0  0  0  0  0
  1  2  1  0
  2  3  1  0
  3  4  1  0
  4  5  1  0
  6  5  1  1
  6  7  1  0
  6  8  1  0
  7  8  1  6
  7  9  1  0
  9 10  1  0
  9 11  1  1
 10 12  1  0
 11 13  1  0
 10 14  1  0
 12 15  2  0
 12 16  1  0
 13 17  1  0
 13 18  1  0
 14 18  1  0
 14 19  1  1
 17 20  1  1
 17 21  1  0
 22 19  1  1
 21 23  2  0
 21 24  1  0
 20 25  1  0
 22 26  1  0
 22 27  1  0
 23 28  1  0
 24 29  1  0
 28 29  2  0
 25 30  2  0
 25 31  1  0
 26 32  1  0
 27 33  2  0
 27 34  1  0
 29 35  1  0
 31 36  1  0
 30 37  1  0
 31 38  2  0
 32 39  1  1
 32 40  1  0
 33 40  1  0
 33 41  1  0
 34 42  2  0
 37 43  2  0
 38 43  1  0
 41 44  2  0
 42 44  1  0
M  END
