x0692_1-x1334_1-x1418_1-x1374_1-x1386_1-x1385_1-x0397_0-x0770_1-x1412_1-x1334_0-x0434_2-x0831_0
     RDKit          3D

 39 43  0  0  0  0  0  0  0  0999 V2000
    6.2540   -3.2780   19.7910 C   0  0  0  0  0  0  0  0  0  0  0  0
    7.1930   -2.9880   18.6330 C   0  0  0  0  0  0  0  0  0  0  0  0
    5.3900   -4.1640   19.7340 O   0  0  0  0  0  0  0  0  0  0  0  0
    6.4710   -2.4750   20.9070 N   0  0  0  0  0  0  0  0  0  0  0  0
    7.6670   -1.5400   20.9200 C   0  0  2  0  0  0  0  0  0  0  0  0
    6.1920   -3.1050   22.2040 C   0  0  2  0  0  0  0  0  0  0  0  0
    8.7250   -1.7340   22.0500 C   0  0  0  0  0  0  0  0  0  0  0  0
    7.5360   -3.5760   22.7890 C   0  0  0  0  0  0  0  0  0  0  0  0
    5.3710   -4.3550   22.2440 C   0  0  2  0  0  0  0  0  0  0  0  0
    7.4030   -0.0630   20.6790 C   0  0  0  0  0  0  0  0  0  0  0  0
    8.1960   -2.4080   23.2380 N   0  0  0  0  0  0  0  0  0  0  0  0
    5.6650   -5.2880   23.1270 C   0  0  2  0  0  0  0  0  0  0  0  0
    5.8570   -5.8920   21.9360 C   0  0  0  0  0  0  0  0  0  0  0  0
    7.0840    0.2570   19.3460 C   0  0  0  0  0  0  0  0  0  0  0  0
    9.2240   -2.7330   24.1880 C   0  0  2  0  0  0  0  0  0  0  0  0
    5.9570    0.5230   20.4090 C   0  0  0  0  0  0  0  0  0  0  0  0
    6.4670    0.6740   18.1670 N   0  0  0  0  0  0  0  0  0  0  0  0
    4.6670   -5.8830   24.0530 C   0  0  0  0  0  0  0  0  0  0  0  0
   10.6550   -2.5720   23.6850 C   0  0  0  0  0  0  0  0  0  0  0  0
    9.0890   -3.8340   25.1550 C   0  0  0  0  0  0  0  0  0  0  0  0
    5.2460    1.1930   17.9180 C   0  0  0  0  0  0  0  0  0  0  0  0
    4.7040    1.0380   20.2000 C   0  0  0  0  0  0  0  0  0  0  0  0
    4.5640   -7.1490   23.6920 C   0  0  0  0  0  0  0  0  0  0  0  0
    9.8550   -4.9690   25.3210 C   0  0  0  0  0  0  0  0  0  0  0  0
    7.8220   -3.8080   26.3000 S   0  0  0  0  0  0  0  0  0  0  0  0
   11.1030   -1.1290   23.5890 C   0  0  0  0  0  0  0  0  0  0  0  0
    4.2770    1.4270   18.8160 C   0  0  0  0  0  0  0  0  0  0  0  0
    4.0490   -7.8960   24.7880 O   0  0  0  0  0  0  0  0  0  0  0  0
    9.4070   -5.8020   26.3770 C   0  0  0  0  0  0  0  0  0  0  0  0
    8.3030   -5.2860   27.0040 C   0  0  0  0  0  0  0  0  0  0  0  0
   10.2840   -0.0690   24.0240 C   0  0  0  0  0  0  0  0  0  0  0  0
   12.4730   -0.7810   23.0140 C   0  0  0  0  0  0  0  0  0  0  0  0
    2.6350   -7.9580   24.7670 C   0  0  0  0  0  0  0  0  0  0  0  0
    7.4210   -5.9220   28.3230 Cl  0  0  0  0  0  0  0  0  0  0  0  0
   13.3420   -1.8520   22.5160 C   0  0  0  0  0  0  0  0  0  0  0  0
   10.7620    1.2790   23.9420 C   0  0  0  0  0  0  0  0  0  0  0  0
   12.9870    0.7040   22.9330 C   0  0  0  0  0  0  0  0  0  0  0  0
    2.1380   -7.2960   23.6210 O   0  0  0  0  0  0  0  0  0  0  0  0
   12.1210    1.6550   23.3950 C   0  0  0  0  0  0  0  0  0  0  0  0
  1  2  1  0
  1  3  2  0
  1  4  1  0
  4  5  1  0
  4  6  1  0
  5  7  1  0
  6  8  1  6
  6  9  1  0
  5 10  1  1
  7 11  1  0
  8 11  1  0
  9 12  1  0
  9 13  1  6
 12 13  1  0
 10 14  1  0
 11 15  1  0
 14 16  2  0
 14 17  1  0
 12 18  1  6
 15 19  1  6
 15 20  1  0
 17 21  2  0
 16 22  1  0
 18 23  1  0
 20 24  2  0
 20 25  1  0
 19 26  1  0
 21 27  1  0
 22 27  2  0
 23 28  1  0
 24 29  1  0
 25 30  1  0
 29 30  2  0
 26 31  2  0
 26 32  1  0
 28 33  1  0
 30 34  1  0
 32 35  1  0
 31 36  1  0
 32 37  2  0
 33 38  1  0
 36 39  2  0
 37 39  1  0
M  END
