x0692_1-x0831_0-x0831_1-x1334_1
     RDKit          3D

 17 18  0  0  0  0  0  0  0  0999 V2000
    6.2440   -3.3170   19.8970 C   0  0  0  0  0  0  0  0  0  0  0  0
    7.2730   -3.0150   18.8060 C   0  0  0  0  0  0  0  0  0  0  0  0
    5.3490   -4.1460   19.7410 O   0  0  0  0  0  0  0  0  0  0  0  0
    6.4180   -2.5940   21.1040 N   0  0  0  0  0  0  0  0  0  0  0  0
    7.2690   -1.3950   20.9420 C   0  0  0  0  0  0  0  0  0  0  0  0
    6.4710   -3.1940   22.4400 C   0  0  0  0  0  0  0  0  0  0  0  0
    8.6510   -1.5430   21.6590 C   0  0  0  0  0  0  0  0  0  0  0  0
    7.7700   -3.3450   22.9550 C   0  0  0  0  0  0  0  0  0  0  0  0
    8.5990   -2.1140   23.0190 N   0  0  0  0  0  0  0  0  0  0  0  0
    9.9090   -2.3460   23.4850 C   0  0  0  0  0  0  0  0  0  0  0  0
   10.7310   -1.0650   23.4860 C   0  0  0  0  0  0  0  0  0  0  0  0
   10.1300    0.0580   24.1430 C   0  0  0  0  0  0  0  0  0  0  0  0
   12.0100   -0.9670   22.8670 C   0  0  0  0  0  0  0  0  0  0  0  0
   12.6500   -2.1230   22.1740 C   0  0  0  0  0  0  0  0  0  0  0  0
   10.9160    1.3540   24.1370 C   0  0  0  0  0  0  0  0  0  0  0  0
   12.7310    0.2290   22.8720 C   0  0  0  0  0  0  0  0  0  0  0  0
   12.1510    1.4690   23.5420 C   0  0  0  0  0  0  0  0  0  0  0  0
  1  2  1  0
  1  3  2  0
  1  4  1  0
  4  5  1  0
  4  6  1  0
  5  7  1  0
  6  8  1  0
  7  9  1  0
  8  9  1  0
  9 10  1  0
 10 11  1  0
 11 12  2  0
 11 13  1  0
 13 14  1  0
 12 15  1  0
 13 16  2  0
 15 17  2  0
 16 17  1  0
M  END
