x0708_1-x1348_0
     RDKit          3D

 14 15  0  0  0  0  0  0  0  0999 V2000
    6.8580   -2.9450   21.3500 N   0  0  0  0  0  0  0  0  0  0  0  0
    6.5230   -3.4880   20.1000 C   0  0  0  0  0  0  0  0  0  0  0  0
    5.5870   -4.2920   19.8760 O   0  0  0  0  0  0  0  0  0  0  0  0
    7.6540   -3.4930   22.2180 C   0  0  0  0  0  0  0  0  0  0  0  0
    7.3990   -3.0410   18.9530 C   0  0  0  0  0  0  0  0  0  0  0  0
    8.8300   -2.5530   22.6400 C   0  0  0  0  0  0  0  0  0  0  0  0
   10.1710   -2.5380   21.9740 C   0  0  0  0  0  0  0  0  0  0  0  0
    8.8500   -1.3540   23.9640 S   0  0  0  0  0  0  0  0  0  0  0  0
   11.1740   -1.5930   22.5480 C   0  0  0  0  0  0  0  0  0  0  0  0
   10.5190   -0.8430   23.7040 C   0  0  0  0  0  0  0  0  0  0  0  0
   12.5170   -1.3470   22.1850 C   0  0  0  0  0  0  0  0  0  0  0  0
   11.2770    0.1040   24.3740 C   0  0  0  0  0  0  0  0  0  0  0  0
   13.1900   -0.1750   22.9460 C   0  0  0  0  0  0  0  0  0  0  0  0
   12.1080    0.7750   23.4760 C   0  0  0  0  0  0  0  0  0  0  0  0
  1  2  1  0
  2  3  2  0
  1  4  1  0
  2  5  1  0
  4  6  1  0
  6  7  2  0
  6  8  1  0
  7  9  1  0
  8 10  1  0
  9 10  2  0
  9 11  1  0
 10 12  1  0
 11 13  1  0
 12 14  1  0
 13 14  1  0
M  END
