x0708_0-x0874_0
     RDKit          3D

 14 14  0  0  0  0  0  0  0  0999 V2000
    7.7060   -2.8580   22.7110 C   0  0  0  0  0  0  0  0  0  0  0  0
    7.6430   -4.2250   22.1580 N   0  0  0  0  0  0  0  0  0  0  0  0
    6.5910   -4.6180   21.2250 N   0  0  0  0  0  0  0  0  0  0  0  0
    6.7430   -2.0930   22.7040 O   0  0  0  0  0  0  0  0  0  0  0  0
    9.0780   -2.5570   23.2830 C   0  0  0  0  0  0  0  0  0  0  0  0
    9.9500   -1.8720   22.2290 C   0  0  0  0  0  0  0  0  0  0  0  0
    6.2740   -3.9100   20.0730 C   0  0  0  0  0  0  0  0  0  0  0  0
   10.6180   -0.5920   22.7390 C   0  0  0  0  0  0  0  0  0  0  0  0
    7.3450   -3.1090   19.3380 C   0  0  0  0  0  0  0  0  0  0  0  0
    5.1540   -3.9510   19.5950 O   0  0  0  0  0  0  0  0  0  0  0  0
   11.8030    0.3620   23.0220 C   0  0  0  0  0  0  0  0  0  0  0  0
   11.5290   -1.5670   22.1580 C   0  0  0  0  0  0  0  0  0  0  0  0
   13.1820    0.0330   22.6790 C   0  0  0  0  0  0  0  0  0  0  0  0
   13.2090   -1.4570   21.9800 S   0  0  0  0  0  0  0  0  0  0  0  0
  1  2  1  0
  2  3  1  0
  1  4  2  0
  1  5  1  0
  5  6  1  0
  3  7  1  0
  6  8  1  0
  7  9  1  0
  7 10  2  0
  8 11  1  0
  8 12  2  0
 11 13  2  0
 12 14  1  0
 13 14  1  0
M  END
