x0708_1-x0752_1
     RDKit          3D

 21 24  0  0  0  0  0  0  0  0999 V2000
    6.9610   -5.5460   22.5560 C   0  0  0  0  0  0  0  0  0  0  0  0
    8.2640   -4.7720   22.7530 C   0  0  0  0  0  0  0  0  0  0  0  0
    7.8380   -3.2860   22.8280 C   0  0  0  0  0  0  0  0  0  0  0  0
    5.8680   -4.7650   23.2480 C   0  0  0  0  0  0  0  0  0  0  0  0
    4.5740   -5.5100   23.4390 C   0  0  0  0  0  0  0  0  0  0  0  0
    6.0800   -3.4210   23.6810 C   0  0  0  0  0  0  0  0  0  0  0  0
    3.5370   -4.8500   24.0730 C   0  0  0  0  0  0  0  0  0  0  0  0
    5.0640   -2.7450   24.3120 C   0  0  0  0  0  0  0  0  0  0  0  0
    9.0150   -2.3710   23.0480 C   0  0  0  0  0  0  0  0  0  0  0  0
    3.7580   -3.5230   24.4980 C   0  0  0  0  0  0  0  0  0  0  0  0
    2.3210   -5.3520   24.3350 O   0  0  0  0  0  0  0  0  0  0  0  0
   10.3340   -2.5410   22.3590 C   0  0  0  0  0  0  0  0  0  0  0  0
    9.0790   -1.0010   24.1020 S   0  0  0  0  0  0  0  0  0  0  0  0
    2.7390   -3.0770   25.0480 O   0  0  0  0  0  0  0  0  0  0  0  0
    1.8860   -4.2490   25.1580 C   0  0  0  0  0  0  0  0  0  0  0  0
   11.3020   -1.4920   22.8010 C   0  0  0  0  0  0  0  0  0  0  0  0
   10.7160   -0.6350   23.7160 C   0  0  0  0  0  0  0  0  0  0  0  0
   12.6390   -1.3010   22.4200 C   0  0  0  0  0  0  0  0  0  0  0  0
   11.4450    0.4150   24.2320 C   0  0  0  0  0  0  0  0  0  0  0  0
   13.2310   -0.1400   22.9390 C   0  0  0  0  0  0  0  0  0  0  0  0
   12.3450    0.8770   23.2910 C   0  0  0  0  0  0  0  0  0  0  0  0
  1  2  1  0
  2  3  1  0
  1  4  1  0
  4  5  2  0
  4  6  1  0
  5  7  1  0
  6  8  2  0
  3  9  1  0
  7 10  2  0
  8 10  1  0
  7 11  1  0
  9 12  2  0
  9 13  1  0
 10 14  1  0
 11 15  1  0
 14 15  1  0
 12 16  1  0
 13 17  1  0
 16 17  2  0
 16 18  1  0
 17 19  1  0
 18 20  1  0
 19 21  1  0
 20 21  1  0
M  END
