x0736_1-x1334_1-x0981_1-x0387_0-x1412_0
     RDKit          3D

 37 39  0  0  0  0  0  0  0  0999 V2000
    3.9760   -5.1880   23.1690 C   0  0  0  0  0  0  0  0  0  0  0  0
    2.7750   -6.0440   23.5920 C   0  0  1  0  0  0  0  0  0  0  0  0
    2.5330   -7.2640   22.8060 N   0  0  0  0  0  0  0  0  0  0  0  0
    4.1270   -3.9420   23.5280 N   0  0  0  0  0  0  0  0  0  0  0  0
    2.7640   -6.2660   25.0990 C   0  0  0  0  0  0  0  0  0  0  0  0
    5.2170   -3.0220   23.1550 C   0  0  0  0  0  0  0  0  0  0  0  0
    1.3470   -7.4550   22.1260 C   0  0  0  0  0  0  0  0  0  0  0  0
    3.1490   -7.6920   25.3040 C   0  0  0  0  0  0  0  0  0  0  0  0
    6.4240   -3.7070   22.4170 C   0  0  1  0  0  0  0  0  0  0  0  0
    1.2420   -8.7410   21.3340 C   0  0  0  0  0  0  0  0  0  0  0  0
    0.4370   -6.6300   22.1330 O   0  0  0  0  0  0  0  0  0  0  0  0
    2.5070   -8.3880   26.2860 N   0  0  0  0  0  0  0  0  0  0  0  0
    4.0070   -8.1830   24.6040 O   0  0  0  0  0  0  0  0  0  0  0  0
    6.7640   -2.8130   21.1940 C   0  0  0  0  0  0  0  0  0  0  0  0
    7.5190   -4.0130   23.2230 C   0  0  0  0  0  0  0  0  0  0  0  0
    6.8330   -3.6510   19.9630 C   0  0  0  0  0  0  0  0  0  0  0  0
    5.6090   -2.3700   20.2970 C   0  0  0  0  0  0  0  0  0  0  0  0
    8.5240   -2.9540   23.3340 N   0  0  0  0  0  0  0  0  0  0  0  0
    7.7480   -1.8250   21.2240 C   0  0  0  0  0  0  0  0  0  0  0  0
    7.5860   -3.1430   18.7510 C   0  0  0  0  0  0  0  0  0  0  0  0
    6.1640   -4.6920   19.9260 O   0  0  0  0  0  0  0  0  0  0  0  0
    5.7110   -1.2330   19.5020 C   0  0  0  0  0  0  0  0  0  0  0  0
    4.6580   -3.1260   20.1960 O   0  0  0  0  0  0  0  0  0  0  0  0
    8.8000   -2.4250   24.6900 C   0  0  2  0  0  0  0  0  0  0  0  0
    8.9540   -2.1930   22.1260 C   0  0  0  0  0  0  0  0  0  0  0  0
    7.9120   -1.7170   25.1590 O   0  0  0  0  0  0  0  0  0  0  0  0
    9.8370   -1.4840   24.8240 C   0  0  0  0  0  0  0  0  0  0  0  0
    8.7930   -3.5620   25.6200 C   0  0  0  0  0  0  0  0  0  0  0  0
    9.7410   -4.6110   25.4100 C   0  0  0  0  0  0  0  0  0  0  0  0
    7.7690   -3.8510   26.9930 S   0  0  0  0  0  0  0  0  0  0  0  0
   11.0380   -1.3140   23.8800 C   0  0  0  0  0  0  0  0  0  0  0  0
    9.5620   -5.5660   26.3670 C   0  0  0  0  0  0  0  0  0  0  0  0
    8.5740   -5.3220   27.2790 C   0  0  0  0  0  0  0  0  0  0  0  0
   11.8920   -0.1490   23.9440 C   0  0  0  0  0  0  0  0  0  0  0  0
   11.5280   -2.1660   22.8600 C   0  0  0  0  0  0  0  0  0  0  0  0
   12.9520   -0.1610   23.0150 C   0  0  0  0  0  0  0  0  0  0  0  0
   12.9310   -1.5680   22.0590 S   0  0  0  0  0  0  0  0  0  0  0  0
  2  1  1  6
  2  3  1  0
  1  4  2  3
  2  5  1  0
  4  6  1  0
  3  7  1  0
  5  8  1  0
  9  6  1  1
  7 10  1  0
  7 11  2  0
  8 12  1  0
  8 13  2  0
  9 14  1  0
  9 15  1  0
 14 16  1  0
 14 17  1  0
 15 18  1  0
 14 19  1  0
 16 20  1  0
 16 21  2  0
 17 22  1  0
 17 23  2  0
 18 24  1  0
 18 25  1  0
 19 25  1  0
 24 26  1  1
 24 27  1  0
 24 28  1  0
 28 29  2  0
 28 30  1  0
 27 31  1  0
 29 32  1  0
 30 33  1  0
 32 33  2  0
 31 34  1  0
 31 35  2  0
 34 36  2  0
 35 37  1  0
 36 37  1  0
M  END
