x0736_1-x0967_1
     RDKit          3D

 17 18  0  0  0  0  0  0  0  0999 V2000
    6.3730   -3.4580   20.0250 C   0  0  0  0  0  0  0  0  0  0  0  0
    7.3710   -3.0390   18.9640 C   0  0  0  0  0  0  0  0  0  0  0  0
    5.3710   -4.1310   19.7540 O   0  0  0  0  0  0  0  0  0  0  0  0
    6.6500   -3.1390   21.3720 N   0  0  0  0  0  0  0  0  0  0  0  0
    7.3880   -1.9520   21.8730 C   0  0  2  0  0  0  0  0  0  0  0  0
    6.0900   -3.9830   22.4120 C   0  0  0  0  0  0  0  0  0  0  0  0
    7.9460   -0.9740   20.8250 C   0  0  0  0  0  0  0  0  0  0  0  0
    8.4110   -2.2960   22.6920 C   0  0  0  0  0  0  0  0  0  0  0  0
    7.0610   -4.1630   23.4150 C   0  0  0  0  0  0  0  0  0  0  0  0
    8.0180   -3.1370   23.8160 N   0  0  0  0  0  0  0  0  0  0  0  0
    6.8930   -0.0510   20.2570 C   0  0  0  0  0  0  0  0  0  0  0  0
    6.1320    0.7220   21.1170 C   0  0  0  0  0  0  0  0  0  0  0  0
    6.7230   -0.0090   18.8720 C   0  0  0  0  0  0  0  0  0  0  0  0
    5.7420    0.8540   18.3080 C   0  0  0  0  0  0  0  0  0  0  0  0
    5.1490    1.5920   20.6410 C   0  0  0  0  0  0  0  0  0  0  0  0
    5.6180    0.8730   17.1080 O   0  0  0  0  0  0  0  0  0  0  0  0
    4.9230    1.6890   19.2830 C   0  0  0  0  0  0  0  0  0  0  0  0
  1  2  1  0
  1  3  2  0
  1  4  1  0
  4  5  1  0
  4  6  1  0
  5  7  1  6
  5  8  1  0
  6  9  1  0
  8 10  1  0
  9 10  1  0
  7 11  1  0
 11 12  2  0
 11 13  1  0
 13 14  2  0
 12 15  1  0
 14 16  1  0
 14 17  1  0
 15 17  2  0
M  END
