x0736_1-x0981_1
     RDKit          3D

 21 21  0  0  0  0  0  0  0  0999 V2000
    3.9430   -5.1530   23.0930 C   0  0  0  0  0  0  0  0  0  0  0  0
    2.7500   -5.9880   23.5840 C   0  0  1  0  0  0  0  0  0  0  0  0
    2.5420   -7.1920   22.7640 N   0  0  0  0  0  0  0  0  0  0  0  0
    4.0850   -4.0880   23.5580 N   0  0  0  0  0  0  0  0  0  0  0  0
    2.7830   -6.2870   25.0820 C   0  0  0  0  0  0  0  0  0  0  0  0
    5.2040   -3.2280   23.0490 C   0  0  0  0  0  0  0  0  0  0  0  0
    1.2710   -7.4560   22.0760 C   0  0  0  0  0  0  0  0  0  0  0  0
    3.1560   -7.7230   25.3290 C   0  0  0  0  0  0  0  0  0  0  0  0
    6.2110   -3.9200   22.4080 C   0  0  1  0  0  0  0  0  0  0  0  0
    1.2020   -8.7430   21.2900 C   0  0  0  0  0  0  0  0  0  0  0  0
    0.3280   -6.6770   22.1130 O   0  0  0  0  0  0  0  0  0  0  0  0
    2.5050   -8.3800   26.3260 N   0  0  0  0  0  0  0  0  0  0  0  0
    4.0100   -8.2200   24.6320 O   0  0  0  0  0  0  0  0  0  0  0  0
    6.7240   -3.0820   21.3030 N   0  0  0  0  0  0  0  0  0  0  0  0
    7.1960   -4.0430   23.3600 C   0  0  0  0  0  0  0  0  0  0  0  0
    6.3910   -3.4680   19.9940 C   0  0  0  0  0  0  0  0  0  0  0  0
    8.0130   -2.8280   23.6840 N   0  0  0  0  0  0  0  0  0  0  0  0
    7.6050   -1.9530   21.6640 C   0  0  0  0  0  0  0  0  0  0  0  0
    7.3170   -3.0260   18.8780 C   0  0  0  0  0  0  0  0  0  0  0  0
    5.4090   -4.1700   19.7580 O   0  0  0  0  0  0  0  0  0  0  0  0
    8.5500   -2.3040   22.5620 C   0  0  0  0  0  0  0  0  0  0  0  0
  2  1  1  6
  2  3  1  0
  1  4  2  3
  2  5  1  0
  4  6  1  0
  3  7  1  0
  5  8  1  0
  9  6  1  1
  7 10  1  0
  7 11  2  0
  8 12  1  0
  8 13  2  0
  9 14  1  0
  9 15  1  0
 14 16  1  0
 15 17  1  0
 14 18  1  0
 16 19  1  0
 16 20  2  0
 17 21  1  0
 18 21  1  0
M  END
