x0736_1-x0434_2-x0397_0-x1412_1-x1386_0-x1412_0
     RDKit          3D

 32 36  0  0  0  0  0  0  0  0999 V2000
    6.3870   -3.4310   19.9580 C   0  0  0  0  0  0  0  0  0  0  0  0
    7.3930   -3.0820   18.8600 C   0  0  0  0  0  0  0  0  0  0  0  0
    5.4370   -4.1940   19.7740 O   0  0  0  0  0  0  0  0  0  0  0  0
    6.6250   -2.8390   21.2030 N   0  0  0  0  0  0  0  0  0  0  0  0
    7.6740   -1.8230   21.3210 C   0  0  1  0  0  0  0  0  0  0  0  0
    6.1910   -3.5480   22.4140 C   0  0  2  0  0  0  0  0  0  0  0  0
    6.9540   -0.5620   21.3910 N   0  0  0  0  0  0  0  0  0  0  0  0
    8.6560   -2.0290   22.4810 C   0  0  0  0  0  0  0  0  0  0  0  0
    7.4710   -3.8010   23.2270 C   0  0  0  0  0  0  0  0  0  0  0  0
    5.4760   -4.9090   22.3070 C   0  0  0  0  0  0  0  0  0  0  0  0
    8.0750   -2.5290   23.6080 N   0  0  0  0  0  0  0  0  0  0  0  0
    5.8460   -6.1680   23.1180 C   0  0  0  0  0  0  0  0  0  0  0  0
    6.0440   -6.1480   21.6070 C   0  0  0  0  0  0  0  0  0  0  0  0
    6.4040    0.0480   20.2580 C   0  0  0  0  0  0  0  0  0  0  0  0
    9.0320   -2.5890   24.6890 C   0  0  2  0  0  0  0  0  0  0  0  0
    6.9960   -0.0900   18.9960 C   0  0  0  0  0  0  0  0  0  0  0  0
    5.2360    0.8110   20.4160 C   0  0  0  0  0  0  0  0  0  0  0  0
    8.9860   -1.5030   25.2450 O   0  0  0  0  0  0  0  0  0  0  0  0
   10.4630   -2.7460   24.1880 C   0  0  0  0  0  0  0  0  0  0  0  0
    8.7550   -3.7250   25.7680 C   0  0  0  0  0  0  0  0  0  0  0  0
    6.4480    0.5580   17.7740 N   0  0  0  0  0  0  0  0  0  0  0  0
    4.6020    1.5200   19.1490 C   0  0  0  0  0  0  0  0  0  0  0  0
    9.6360   -4.9330   25.5390 C   0  0  0  0  0  0  0  0  0  0  0  0
    7.7340   -3.9150   27.1130 S   0  0  0  0  0  0  0  0  0  0  0  0
    5.2520    1.3420   17.9460 C   0  0  0  0  0  0  0  0  0  0  0  0
   11.2480   -1.4780   23.8270 C   0  0  0  0  0  0  0  0  0  0  0  0
    9.3330   -5.9450   26.5970 C   0  0  0  0  0  0  0  0  0  0  0  0
    8.3480   -5.4880   27.4660 C   0  0  0  0  0  0  0  0  0  0  0  0
   12.2700   -1.5200   22.9150 C   0  0  0  0  0  0  0  0  0  0  0  0
   11.0280   -0.1100   24.3810 C   0  0  0  0  0  0  0  0  0  0  0  0
   12.8920   -0.2720   22.6910 C   0  0  0  0  0  0  0  0  0  0  0  0
   12.2250    1.0350   23.6170 S   0  0  0  0  0  0  0  0  0  0  0  0
  1  2  1  0
  1  3  2  0
  1  4  1  0
  4  5  1  0
  4  6  1  0
  5  7  1  1
  5  8  1  0
  6  9  1  0
  6 10  1  6
  8 11  1  0
  9 11  1  0
 10 12  1  0
 10 13  1  0
 12 13  1  0
  7 14  1  0
 11 15  1  0
 14 16  2  0
 14 17  1  0
 15 18  1  1
 15 19  1  0
 15 20  1  0
 16 21  1  0
 17 22  2  0
 20 23  2  0
 20 24  1  0
 21 25  2  0
 22 25  1  0
 19 26  1  0
 23 27  1  0
 24 28  1  0
 27 28  2  0
 26 29  1  0
 26 30  2  0
 29 31  2  0
 30 32  1  0
 31 32  1  0
M  END
