x0736_1-x1385_1-x0387_0-x1412_1-x0770_1-x1334_1-x1418_1-x0874_0-x0397_0-x0434_2-x1412_0-x1336_0
     RDKit          3D

 32 36  0  0  0  0  0  0  0  0999 V2000
    6.3920   -3.3290   19.9150 C   0  0  0  0  0  0  0  0  0  0  0  0
    7.3400   -3.0360   18.7770 C   0  0  0  0  0  0  0  0  0  0  0  0
    5.3870   -4.0350   19.6880 O   0  0  0  0  0  0  0  0  0  0  0  0
    6.7720   -2.8330   21.1650 N   0  0  0  0  0  0  0  0  0  0  0  0
    7.7790   -1.7800   21.2720 C   0  0  1  0  0  0  0  0  0  0  0  0
    6.9780   -3.9580   22.0660 C   0  0  1  0  0  0  0  0  0  0  0  0
    6.9540   -0.5360   21.3730 N   0  0  0  0  0  0  0  0  0  0  0  0
    8.7280   -1.9390   22.4860 C   0  0  0  0  0  0  0  0  0  0  0  0
    7.6150   -3.7370   23.4270 C   0  0  0  0  0  0  0  0  0  0  0  0
    5.6740   -4.7390   22.2540 C   0  0  0  0  0  0  0  0  0  0  0  0
    8.1290   -2.3780   23.6130 N   0  0  0  0  0  0  0  0  0  0  0  0
    5.6070   -5.7320   23.2760 C   0  0  0  0  0  0  0  0  0  0  0  0
    5.6330   -6.4030   22.0300 C   0  0  0  0  0  0  0  0  0  0  0  0
    6.4210    0.0600   20.2280 C   0  0  0  0  0  0  0  0  0  0  0  0
    8.7360   -2.0810   24.8870 C   0  0  2  0  0  0  0  0  0  0  0  0
    6.9980   -0.0800   18.8610 C   0  0  0  0  0  0  0  0  0  0  0  0
    5.2720    0.8380   20.3810 C   0  0  0  0  0  0  0  0  0  0  0  0
    7.8940   -1.3750   25.4230 O   0  0  0  0  0  0  0  0  0  0  0  0
   10.0300   -1.2670   25.0520 C   0  0  0  0  0  0  0  0  0  0  0  0
    8.7240   -3.3600   25.7310 C   0  0  0  0  0  0  0  0  0  0  0  0
    6.3530    0.6110   17.7130 N   0  0  0  0  0  0  0  0  0  0  0  0
    4.6770    1.4760   19.2960 C   0  0  0  0  0  0  0  0  0  0  0  0
    9.7900   -4.4520   25.5590 C   0  0  0  0  0  0  0  0  0  0  0  0
    7.5890   -3.8620   26.9840 S   0  0  0  0  0  0  0  0  0  0  0  0
   11.1180   -1.2000   23.9950 C   0  0  0  0  0  0  0  0  0  0  0  0
    5.2300    1.3670   17.9150 C   0  0  0  0  0  0  0  0  0  0  0  0
    9.5640   -5.6300   26.4810 C   0  0  0  0  0  0  0  0  0  0  0  0
    8.3330   -5.3820   27.3430 C   0  0  0  0  0  0  0  0  0  0  0  0
   12.0690   -0.0170   23.9140 C   0  0  0  0  0  0  0  0  0  0  0  0
   11.5690   -2.1500   22.8550 C   0  0  0  0  0  0  0  0  0  0  0  0
   13.1240   -0.1200   22.8030 C   0  0  0  0  0  0  0  0  0  0  0  0
   12.9410   -1.5780   21.9290 S   0  0  0  0  0  0  0  0  0  0  0  0
  1  2  1  0
  1  3  2  0
  1  4  1  0
  4  5  1  0
  4  6  1  0
  5  7  1  1
  5  8  1  0
  6  9  1  0
  6 10  1  1
  8 11  1  0
  9 11  1  0
 10 12  1  0
 10 13  1  0
 12 13  1  0
  7 14  1  0
 11 15  1  0
 14 16  2  0
 14 17  1  0
 15 18  1  1
 15 19  1  0
 15 20  1  0
 16 21  1  0
 17 22  2  0
 20 23  2  0
 20 24  1  0
 19 25  1  0
 21 26  2  0
 22 26  1  0
 23 27  1  0
 24 28  1  0
 27 28  2  0
 25 29  1  0
 25 30  2  0
 29 31  2  0
 30 32  1  0
 31 32  1  0
M  END
