x0736_1-x1412_0
     RDKit          3D

 16 17  0  0  0  0  0  0  0  0999 V2000
    6.4120   -3.4060   20.0040 C   0  0  0  0  0  0  0  0  0  0  0  0
    7.4160   -3.0380   18.9170 C   0  0  0  0  0  0  0  0  0  0  0  0
    5.4330   -4.1120   19.7290 O   0  0  0  0  0  0  0  0  0  0  0  0
    6.6620   -2.9460   21.3160 N   0  0  0  0  0  0  0  0  0  0  0  0
    7.6550   -1.8820   21.5810 C   0  0  0  0  0  0  0  0  0  0  0  0
    6.2060   -3.7750   22.4190 C   0  0  0  0  0  0  0  0  0  0  0  0
    8.7730   -2.3850   22.2890 C   0  0  0  0  0  0  0  0  0  0  0  0
    7.4780   -4.4260   22.9820 C   0  0  0  0  0  0  0  0  0  0  0  0
    8.4290   -3.3790   23.3490 N   0  0  0  0  0  0  0  0  0  0  0  0
    8.2440   -2.8760   24.7170 C   0  0  0  0  0  0  0  0  0  0  0  0
    7.8670   -1.5870   25.1730 O   0  0  0  0  0  0  0  0  0  0  0  0
    8.4950   -3.9240   25.6160 C   0  0  0  0  0  0  0  0  0  0  0  0
    9.3890   -5.1040   25.3490 C   0  0  0  0  0  0  0  0  0  0  0  0
    7.7770   -4.0150   27.2270 S   0  0  0  0  0  0  0  0  0  0  0  0
    9.3600   -5.8940   26.4710 C   0  0  0  0  0  0  0  0  0  0  0  0
    8.5530   -5.4230   27.5140 C   0  0  0  0  0  0  0  0  0  0  0  0
  1  2  1  0
  1  3  2  0
  1  4  1  0
  4  5  1  0
  4  6  1  0
  5  7  1  0
  6  8  1  0
  7  9  1  0
  8  9  1  0
  9 10  1  0
 10 11  2  0
 10 12  1  0
 12 13  2  0
 12 14  1  0
 13 15  1  0
 14 16  1  0
 15 16  2  0
M  END
