x0734_0-x1402_1
     RDKit          3D

 18 20  0  0  0  0  0  0  0  0999 V2000
    6.3200   -4.5150   20.5140 C   0  0  0  0  0  0  0  0  0  0  0  0
    7.3100   -3.4690   19.9470 C   0  0  0  0  0  0  0  0  0  0  0  0
    5.2670   -4.7450   19.9480 O   0  0  0  0  0  0  0  0  0  0  0  0
    6.6140   -5.2540   21.6750 N   0  0  0  0  0  0  0  0  0  0  0  0
    7.6060   -4.7920   22.6290 C   0  0  0  0  0  0  0  0  0  0  0  0
    5.7800   -6.3160   22.2040 C   0  0  0  0  0  0  0  0  0  0  0  0
    6.9290   -4.3480   23.9470 C   0  0  1  0  0  0  0  0  0  0  0  0
    5.0520   -5.9340   23.5060 C   0  0  0  0  0  0  0  0  0  0  0  0
    5.5240   -4.8040   24.1940 N   0  0  0  0  0  0  0  0  0  0  0  0
    7.6530   -4.7150   25.1570 C   0  0  0  0  0  0  0  0  0  0  0  0
    5.3330   -4.8950   25.6470 C   0  0  2  0  0  0  0  0  0  0  0  0
    9.0440   -4.7580   25.3540 C   0  0  0  0  0  0  0  0  0  0  0  0
    6.7370   -5.0410   26.1820 C   0  0  0  0  0  0  0  0  0  0  0  0
    4.6650   -5.8850   25.9420 O   0  0  0  0  0  0  0  0  0  0  0  0
    4.6460   -3.9200   26.1870 O   0  0  0  0  0  0  0  0  0  0  0  0
    9.4730   -5.1490   26.6490 C   0  0  0  0  0  0  0  0  0  0  0  0
    7.1870   -5.4250   27.4510 C   0  0  0  0  0  0  0  0  0  0  0  0
    8.5570   -5.4590   27.6210 C   0  0  0  0  0  0  0  0  0  0  0  0
  1  2  1  0
  1  3  2  0
  1  4  1  0
  4  5  1  0
  4  6  1  0
  7  5  1  6
  6  8  1  0
  7  9  1  0
  8  9  1  0
  7 10  1  0
  9 11  1  0
 10 12  2  0
 10 13  1  0
 11 13  1  0
 11 14  1  6
 11 15  1  0
 12 16  1  0
 13 17  2  0
 16 18  2  0
 17 18  1  0
M  CHG  1  15  -1
M  END
