x0736_1-x1336_0-x1385_1-x1412_0-x1386_0-x0434_2-x1412_1-x1334_1
     RDKit          3D

 29 32  0  0  0  0  0  0  0  0999 V2000
    6.3260   -3.3390   19.9260 C   0  0  0  0  0  0  0  0  0  0  0  0
    7.3940   -3.0050   18.8880 C   0  0  0  0  0  0  0  0  0  0  0  0
    5.2950   -3.9130   19.5820 O   0  0  0  0  0  0  0  0  0  0  0  0
    6.5440   -3.0900   21.2780 N   0  0  0  0  0  0  0  0  0  0  0  0
    7.1280   -1.8440   21.7870 C   0  0  2  0  0  0  0  0  0  0  0  0
    6.3540   -4.1280   22.2980 C   0  0  0  0  0  0  0  0  0  0  0  0
    7.5820   -0.9590   20.7260 N   0  0  0  0  0  0  0  0  0  0  0  0
    8.3530   -2.2060   22.5910 C   0  0  0  0  0  0  0  0  0  0  0  0
    7.5240   -4.1950   23.3340 C   0  0  0  0  0  0  0  0  0  0  0  0
    7.9750   -2.8480   23.7160 N   0  0  0  0  0  0  0  0  0  0  0  0
    6.7150   -0.2070   19.9410 C   0  0  0  0  0  0  0  0  0  0  0  0
    9.0020   -2.7660   24.7360 C   0  0  2  0  0  0  0  0  0  0  0  0
    7.0760    0.0410   18.5010 C   0  0  0  0  0  0  0  0  0  0  0  0
    5.5140    0.3470   20.4040 C   0  0  0  0  0  0  0  0  0  0  0  0
    8.8040   -1.7630   25.3960 O   0  0  0  0  0  0  0  0  0  0  0  0
   10.4790   -2.8210   24.2040 C   0  0  0  0  0  0  0  0  0  0  0  0
    8.8680   -3.9280   25.7420 C   0  0  0  0  0  0  0  0  0  0  0  0
    6.1990    0.8280   17.6670 N   0  0  0  0  0  0  0  0  0  0  0  0
    4.7050    1.0980   19.5460 C   0  0  0  0  0  0  0  0  0  0  0  0
    9.7520   -5.1770   25.5270 C   0  0  0  0  0  0  0  0  0  0  0  0
    7.7850   -3.8730   27.0780 S   0  0  0  0  0  0  0  0  0  0  0  0
   11.2350   -1.5590   23.8720 C   0  0  0  0  0  0  0  0  0  0  0  0
    5.0770    1.3140   18.2120 C   0  0  0  0  0  0  0  0  0  0  0  0
    9.2590   -5.8580   26.6640 C   0  0  0  0  0  0  0  0  0  0  0  0
    8.3040   -5.3800   27.5360 C   0  0  0  0  0  0  0  0  0  0  0  0
   12.2940   -1.4940   22.9400 C   0  0  0  0  0  0  0  0  0  0  0  0
   11.0350   -0.2940   24.4070 C   0  0  0  0  0  0  0  0  0  0  0  0
   12.8830   -0.2590   22.7580 C   0  0  0  0  0  0  0  0  0  0  0  0
   12.1150    0.8770   23.7600 S   0  0  0  0  0  0  0  0  0  0  0  0
  1  2  1  0
  1  3  2  0
  1  4  1  0
  4  5  1  0
  4  6  1  0
  5  7  1  6
  5  8  1  0
  6  9  1  0
  8 10  1  0
  9 10  1  0
  7 11  1  0
 10 12  1  0
 11 13  2  0
 11 14  1  0
 12 15  1  1
 12 16  1  0
 12 17  1  0
 13 18  1  0
 14 19  2  0
 17 20  2  0
 17 21  1  0
 16 22  1  0
 18 23  2  0
 19 23  1  0
 20 24  1  0
 21 25  1  0
 24 25  2  0
 22 26  1  0
 22 27  2  0
 26 28  2  0
 27 29  1  0
 28 29  1  0
M  END
