x0736_1-x0874_0-x0387_0-x1412_0-x1334_1-x0434_2
     RDKit          3D

 29 32  0  0  0  0  0  0  0  0999 V2000
    6.4070   -3.3940   19.9030 C   0  0  0  0  0  0  0  0  0  0  0  0
    7.4230   -3.0700   18.8140 C   0  0  0  0  0  0  0  0  0  0  0  0
    5.4200   -4.1080   19.7190 O   0  0  0  0  0  0  0  0  0  0  0  0
    6.6760   -2.8590   21.1580 N   0  0  0  0  0  0  0  0  0  0  0  0
    7.7490   -1.8530   21.2820 C   0  0  1  0  0  0  0  0  0  0  0  0
    6.3230   -3.7530   22.2780 C   0  0  0  0  0  0  0  0  0  0  0  0
    7.0580   -0.5730   21.3820 N   0  0  0  0  0  0  0  0  0  0  0  0
    8.7500   -2.0960   22.4210 C   0  0  0  0  0  0  0  0  0  0  0  0
    7.5630   -3.9030   23.1990 C   0  0  0  0  0  0  0  0  0  0  0  0
    8.1120   -2.5730   23.5070 N   0  0  0  0  0  0  0  0  0  0  0  0
    6.4060    0.0490   20.2960 C   0  0  0  0  0  0  0  0  0  0  0  0
    8.6830   -2.2920   24.8170 C   0  0  2  0  0  0  0  0  0  0  0  0
    6.9460   -0.0340   18.9690 C   0  0  0  0  0  0  0  0  0  0  0  0
    5.2160    0.7760   20.4490 C   0  0  0  0  0  0  0  0  0  0  0  0
    7.8740   -1.5700   25.3850 O   0  0  0  0  0  0  0  0  0  0  0  0
    9.9890   -1.4690   24.9440 C   0  0  0  0  0  0  0  0  0  0  0  0
    8.7170   -3.5360   25.6780 C   0  0  0  0  0  0  0  0  0  0  0  0
    6.4380    0.5230   17.8430 N   0  0  0  0  0  0  0  0  0  0  0  0
    4.6090    1.3820   19.3620 C   0  0  0  0  0  0  0  0  0  0  0  0
    9.8410   -4.5120   25.1740 C   0  0  0  0  0  0  0  0  0  0  0  0
    7.7080   -3.9230   27.0490 S   0  0  0  0  0  0  0  0  0  0  0  0
   11.1100   -1.3440   23.9060 C   0  0  0  0  0  0  0  0  0  0  0  0
    5.3080    1.2230   17.9630 C   0  0  0  0  0  0  0  0  0  0  0  0
    9.5280   -5.5540   26.2680 C   0  0  0  0  0  0  0  0  0  0  0  0
    8.6060   -5.4660   27.2040 C   0  0  0  0  0  0  0  0  0  0  0  0
   12.0220   -0.1270   23.9680 C   0  0  0  0  0  0  0  0  0  0  0  0
   11.5860   -2.2330   22.7220 C   0  0  0  0  0  0  0  0  0  0  0  0
   13.0100   -0.1540   22.9700 C   0  0  0  0  0  0  0  0  0  0  0  0
   12.9520   -1.5310   21.9410 S   0  0  0  0  0  0  0  0  0  0  0  0
  1  2  1  0
  1  3  2  0
  1  4  1  0
  4  5  1  0
  4  6  1  0
  5  7  1  1
  5  8  1  0
  6  9  1  0
  8 10  1  0
  9 10  1  0
  7 11  1  0
 10 12  1  0
 11 13  2  0
 11 14  1  0
 12 15  1  1
 12 16  1  0
 12 17  1  0
 13 18  1  0
 14 19  2  0
 17 20  2  0
 17 21  1  0
 16 22  1  0
 18 23  2  0
 19 23  1  0
 20 24  1  0
 21 25  1  0
 24 25  2  0
 22 26  1  0
 22 27  2  0
 26 28  2  0
 27 29  1  0
 28 29  1  0
M  END
