x0731_0-x0831_0-x0769_0
     RDKit          3D

 19 20  0  0  0  0  0  0  0  0999 V2000
    6.2390   -4.6770   20.5350 C   0  0  0  0  0  0  0  0  0  0  0  0
    6.9010   -3.4990   19.8230 C   0  0  0  0  0  0  0  0  0  0  0  0
    5.2910   -5.1950   19.9880 O   0  0  0  0  0  0  0  0  0  0  0  0
    6.6860   -5.2080   21.7330 N   0  0  0  0  0  0  0  0  0  0  0  0
    7.5770   -4.7070   22.5230 C   0  0  0  0  0  0  0  0  0  0  0  0
    5.9980   -6.2960   22.4150 C   0  0  0  0  0  0  0  0  0  0  0  0
    6.9660   -4.0580   23.7580 C   0  0  1  0  0  0  0  0  0  0  0  0
    5.2270   -5.7730   23.6540 C   0  0  0  0  0  0  0  0  0  0  0  0
    7.0200   -2.5420   23.5520 C   0  0  0  0  0  0  0  0  0  0  0  0
    5.6210   -4.5540   24.1490 N   0  0  0  0  0  0  0  0  0  0  0  0
    8.2510   -1.8300   24.1590 C   0  0  0  0  0  0  0  0  0  0  0  0
    9.6590   -2.2210   23.6240 C   0  0  0  0  0  0  0  0  0  0  0  0
   10.6060   -1.0290   23.5500 C   0  0  0  0  0  0  0  0  0  0  0  0
   10.1890    0.1660   24.1470 C   0  0  0  0  0  0  0  0  0  0  0  0
   11.8880   -1.0050   22.9170 C   0  0  0  0  0  0  0  0  0  0  0  0
   12.5110   -2.1720   22.2190 C   0  0  0  0  0  0  0  0  0  0  0  0
   10.9520    1.3140   24.1280 C   0  0  0  0  0  0  0  0  0  0  0  0
   12.6540    0.1830   22.9190 C   0  0  0  0  0  0  0  0  0  0  0  0
   12.1880    1.3450   23.5200 C   0  0  0  0  0  0  0  0  0  0  0  0
  1  2  1  0
  1  3  2  0
  1  4  1  0
  4  5  1  0
  4  6  1  0
  5  7  1  0
  6  8  1  0
  7  9  1  6
  7 10  1  0
  8 10  1  0
  9 11  1  0
 11 12  1  0
 12 13  1  0
 13 14  2  0
 13 15  1  0
 15 16  1  0
 14 17  1  0
 15 18  2  0
 17 19  2  0
 18 19  1  0
M  END
