x0734_0-x0692_1-x1385_1-x0831_0-x0397_0-x1418_1-x0831_1
     RDKit          3D

 30 33  0  0  0  0  0  0  0  0999 V2000
    6.1910   -3.2650   19.8800 C   0  0  0  0  0  0  0  0  0  0  0  0
    7.2030   -2.9880   18.7830 C   0  0  0  0  0  0  0  0  0  0  0  0
    5.3450   -4.1530   19.7390 O   0  0  0  0  0  0  0  0  0  0  0  0
    6.2920   -2.4830   21.0450 N   0  0  0  0  0  0  0  0  0  0  0  0
    7.1800   -1.3070   20.9430 C   0  0  0  0  0  0  0  0  0  0  0  0
    6.2630   -3.1400   22.3810 C   0  0  2  0  0  0  0  0  0  0  0  0
    8.5910   -1.5490   21.5760 C   0  0  0  0  0  0  0  0  0  0  0  0
    7.7030   -3.3360   23.0040 C   0  0  0  0  0  0  0  0  0  0  0  0
    5.4880   -4.4500   22.4340 C   0  0  2  0  0  0  0  0  0  0  0  0
    8.5030   -2.0730   22.9660 N   0  0  0  0  0  0  0  0  0  0  0  0
    5.7370   -5.5160   23.1740 C   0  0  2  0  0  0  0  0  0  0  0  0
    6.0730   -5.8990   21.9280 C   0  0  0  0  0  0  0  0  0  0  0  0
    4.6090   -6.2370   23.9740 C   0  0  0  0  0  0  0  0  0  0  0  0
    9.8740   -2.2850   23.4820 C   0  0  0  0  0  0  0  0  0  0  0  0
    4.5090   -5.8530   25.3730 N   0  0  0  0  0  0  0  0  0  0  0  0
   10.7270   -1.0560   23.4000 C   0  0  0  0  0  0  0  0  0  0  0  0
    5.1440   -4.8230   25.8210 N   0  0  0  0  0  0  0  0  0  0  0  0
   10.1160    0.1830   24.1150 C   0  0  0  0  0  0  0  0  0  0  0  0
   11.9850   -1.0050   22.7350 C   0  0  0  0  0  0  0  0  0  0  0  0
    4.5010   -3.9440   26.4940 O   0  0  0  0  0  0  0  0  0  0  0  0
   12.6150   -2.1610   22.0260 C   0  0  0  0  0  0  0  0  0  0  0  0
    6.4650   -5.0520   26.1490 C   0  0  0  0  0  0  0  0  0  0  0  0
   10.8570    1.5260   24.1250 C   0  0  0  0  0  0  0  0  0  0  0  0
   12.6620    0.3660   22.8030 C   0  0  0  0  0  0  0  0  0  0  0  0
    7.6130   -4.6340   25.1740 C   0  0  0  0  0  0  0  0  0  0  0  0
    6.7780   -5.6630   27.3580 C   0  0  0  0  0  0  0  0  0  0  0  0
   12.0900    1.6130   23.4910 C   0  0  0  0  0  0  0  0  0  0  0  0
    8.9510   -4.8310   25.4120 C   0  0  0  0  0  0  0  0  0  0  0  0
    8.2470   -5.8610   27.5750 C   0  0  0  0  0  0  0  0  0  0  0  0
    9.3100   -5.4600   26.6220 C   0  0  0  0  0  0  0  0  0  0  0  0
  1  2  1  0
  1  3  2  0
  1  4  1  0
  4  5  1  0
  4  6  1  0
  5  7  1  0
  6  8  1  6
  6  9  1  0
  7 10  1  0
  8 10  1  0
  9 11  1  0
  9 12  1  6
 11 12  1  0
 11 13  1  6
 10 14  1  0
 13 15  1  0
 14 16  1  0
 15 17  2  3
 16 18  2  0
 16 19  1  0
 17 20  1  0
 19 21  1  0
 17 22  1  0
 18 23  1  0
 19 24  2  0
 22 25  2  0
 22 26  1  0
 23 27  2  0
 24 27  1  0
 25 28  1  0
 26 29  2  0
 28 30  2  0
 29 30  1  0
M  CHG  2  17   1  20  -1
M  END
