x0731_0-x0831_0-x0434_2
     RDKit          3D

 28 30  0  0  0  0  0  0  0  0999 V2000
    6.2610   -4.9070   20.5690 C   0  0  0  0  0  0  0  0  0  0  0  0
    6.9350   -3.6690   19.9900 C   0  0  0  0  0  0  0  0  0  0  0  0
    5.2870   -5.3190   19.9920 O   0  0  0  0  0  0  0  0  0  0  0  0
    6.7840   -5.5790   21.6600 N   0  0  0  0  0  0  0  0  0  0  0  0
    7.5880   -4.7170   22.5000 C   0  0  0  0  0  0  0  0  0  0  0  0
    5.9820   -6.3340   22.3690 C   0  0  0  0  0  0  0  0  0  0  0  0
    6.7400   -3.7860   23.3270 C   0  0  2  0  0  0  0  0  0  0  0  0
    5.2910   -5.6860   23.5820 C   0  0  0  0  0  0  0  0  0  0  0  0
    7.6190   -2.6290   23.8890 C   0  0  0  0  0  0  0  0  0  0  0  0
    6.0650   -4.6340   24.3160 N   0  0  0  0  0  0  0  0  0  0  0  0
    8.8960   -2.4900   22.9800 C   0  0  2  0  0  0  0  0  0  0  0  0
   10.2510   -2.3740   23.7090 C   0  0  0  0  0  0  0  0  0  0  0  0
    8.9210   -1.4120   21.8730 C   0  0  0  0  0  0  0  0  0  0  0  0
    7.9870   -0.3780   21.8730 C   0  0  0  0  0  0  0  0  0  0  0  0
   10.9360   -1.0410   23.6380 C   0  0  0  0  0  0  0  0  0  0  0  0
    6.8090   -0.8360   21.1530 N   0  0  0  0  0  0  0  0  0  0  0  0
   10.2890   -0.0380   24.2670 C   0  0  0  0  0  0  0  0  0  0  0  0
   12.1520   -0.8650   22.9550 C   0  0  0  0  0  0  0  0  0  0  0  0
   12.8700   -1.9750   22.2470 C   0  0  0  0  0  0  0  0  0  0  0  0
   10.9850    1.2140   24.1460 C   0  0  0  0  0  0  0  0  0  0  0  0
   12.7650    0.3630   22.8890 C   0  0  0  0  0  0  0  0  0  0  0  0
    6.3240   -0.1180   20.0680 C   0  0  0  0  0  0  0  0  0  0  0  0
   12.1790    1.4560   23.4930 C   0  0  0  0  0  0  0  0  0  0  0  0
    6.8980   -0.0870   18.8110 C   0  0  0  0  0  0  0  0  0  0  0  0
    5.1600    0.6410   20.2330 C   0  0  0  0  0  0  0  0  0  0  0  0
    6.4270    0.6130   17.7560 N   0  0  0  0  0  0  0  0  0  0  0  0
    4.6310    1.3780   19.1760 C   0  0  0  0  0  0  0  0  0  0  0  0
    5.3050    1.3330   17.9510 C   0  0  0  0  0  0  0  0  0  0  0  0
  1  2  1  0
  1  3  2  0
  1  4  1  0
  4  5  1  0
  4  6  1  0
  5  7  1  0
  6  8  1  0
  7  9  1  1
  7 10  1  0
  8 10  1  0
 11  9  1  1
 11 12  1  0
 11 13  1  0
 13 14  1  0
 12 15  1  0
 14 16  1  0
 15 17  2  0
 15 18  1  0
 18 19  1  0
 17 20  1  0
 18 21  2  0
 16 22  1  0
 20 23  2  0
 21 23  1  0
 22 24  2  0
 22 25  1  0
 24 26  1  0
 25 27  2  0
 26 28  2  0
 27 28  1  0
M  END
