x0734_0-x0397_0-x1385_1-x0540_3-x1418_1-x0831_0-x0831_1
     RDKit          3D

 36 39  0  0  0  0  0  0  0  0999 V2000
    6.2730   -3.2680   19.9210 C   0  0  0  0  0  0  0  0  0  0  0  0
    7.2960   -2.9660   18.8250 C   0  0  0  0  0  0  0  0  0  0  0  0
    5.4120   -4.1410   19.7520 O   0  0  0  0  0  0  0  0  0  0  0  0
    6.3750   -2.5100   21.1260 N   0  0  0  0  0  0  0  0  0  0  0  0
    6.3710   -3.2250   22.4040 C   0  0  2  0  0  0  0  0  0  0  0  0
    7.1400   -1.3220   21.1560 C   0  0  1  0  0  0  0  0  0  0  0  0
    6.5360   -0.2030   22.0260 C   0  0  0  0  0  0  0  0  0  0  0  0
    7.8390   -3.4900   22.8920 C   0  0  0  0  0  0  0  0  0  0  0  0
    8.5490   -1.6100   21.6400 C   0  0  0  0  0  0  0  0  0  0  0  0
    5.5320   -4.4960   22.4100 C   0  0  2  0  0  0  0  0  0  0  0  0
    5.0970    0.2120   21.6800 C   0  0  0  0  0  0  0  0  0  0  0  0
    8.6550   -2.2530   22.9260 N   0  0  0  0  0  0  0  0  0  0  0  0
    5.7270   -5.6440   23.2440 C   0  0  2  0  0  0  0  0  0  0  0  0
    6.0830   -5.9770   21.8680 C   0  0  0  0  0  0  0  0  0  0  0  0
    4.8840    1.7730   21.5870 C   0  0  0  0  0  0  0  0  0  0  0  0
    4.5140   -6.3100   23.9600 C   0  0  0  0  0  0  0  0  0  0  0  0
    9.9700   -2.4180   23.2940 C   0  0  0  0  0  0  0  0  0  0  0  0
    4.2820    2.3490   22.7740 N   0  0  0  0  0  0  0  0  0  0  0  0
    4.3520   -5.9510   25.3820 N   0  0  0  0  0  0  0  0  0  0  0  0
   10.7140   -1.0910   23.3790 C   0  0  0  0  0  0  0  0  0  0  0  0
    3.0420    1.9750   23.2200 C   0  0  0  0  0  0  0  0  0  0  0  0
    4.9480   -4.9040   25.8140 N   0  0  0  0  0  0  0  0  0  0  0  0
   10.0290    0.0180   24.1630 C   0  0  0  0  0  0  0  0  0  0  0  0
   11.9930   -0.8880   22.7630 C   0  0  0  0  0  0  0  0  0  0  0  0
    2.8130    1.3240   24.2300 O   0  0  0  0  0  0  0  0  0  0  0  0
    4.4730   -3.7110   25.7680 O   0  0  0  0  0  0  0  0  0  0  0  0
   12.6780   -1.9750   21.9770 C   0  0  0  0  0  0  0  0  0  0  0  0
    6.3850   -5.1150   26.1220 C   0  0  0  0  0  0  0  0  0  0  0  0
   10.8340    1.2940   24.1940 C   0  0  0  0  0  0  0  0  0  0  0  0
   12.6960    0.3170   22.8380 C   0  0  0  0  0  0  0  0  0  0  0  0
    7.5010   -4.8880   25.0110 C   0  0  0  0  0  0  0  0  0  0  0  0
    6.8590   -5.5170   27.3470 C   0  0  0  0  0  0  0  0  0  0  0  0
   12.1810    1.3490   23.4930 C   0  0  0  0  0  0  0  0  0  0  0  0
    8.9790   -5.0940   25.2230 C   0  0  0  0  0  0  0  0  0  0  0  0
    8.3630   -5.7310   27.5890 C   0  0  0  0  0  0  0  0  0  0  0  0
    9.3490   -5.4980   26.4560 C   0  0  0  0  0  0  0  0  0  0  0  0
  1  2  1  0
  1  3  2  0
  1  4  1  0
  4  5  1  0
  4  6  1  0
  6  7  1  1
  5  8  1  6
  6  9  1  0
  5 10  1  0
  7 11  1  0
  8 12  1  0
  9 12  1  0
 10 13  1  0
 10 14  1  6
 13 14  1  0
 11 15  1  0
 13 16  1  6
 12 17  1  0
 15 18  1  0
 16 19  1  0
 17 20  1  0
 18 21  1  0
 19 22  2  3
 20 23  2  0
 20 24  1  0
 21 25  2  0
 22 26  1  0
 24 27  1  0
 22 28  1  0
 23 29  1  0
 24 30  2  0
 28 31  2  0
 28 32  1  0
 29 33  2  0
 30 33  1  0
 31 34  1  0
 32 35  2  0
 34 36  2  0
 35 36  1  0
M  CHG  2  22   1  26  -1
M  END
