x0736_1-x1412_1
     RDKit          3D

  9  9  0  0  0  0  0  0  0  0999 V2000
    6.3420   -3.4050   19.9620 C   0  0  0  0  0  0  0  0  0  0  0  0
    7.2630   -2.9940   18.8210 C   0  0  0  0  0  0  0  0  0  0  0  0
    5.3960   -4.1610   19.7420 O   0  0  0  0  0  0  0  0  0  0  0  0
    6.6330   -2.9250   21.2450 N   0  0  0  0  0  0  0  0  0  0  0  0
    7.6430   -1.8700   21.5070 C   0  0  0  0  0  0  0  0  0  0  0  0
    6.1580   -3.6700   22.4250 C   0  0  0  0  0  0  0  0  0  0  0  0
    8.7030   -2.3010   22.5650 C   0  0  0  0  0  0  0  0  0  0  0  0
    7.2840   -4.0870   23.4030 C   0  0  0  0  0  0  0  0  0  0  0  0
    8.1320   -2.9530   23.7600 N   0  0  0  0  0  0  0  0  0  0  0  0
  1  2  1  0
  1  3  2  0
  1  4  1  0
  4  5  1  0
  4  6  1  0
  5  7  1  0
  6  8  1  0
  7  9  1  0
  8  9  1  0
M  END
