x0736_1-x1336_0-x0434_2-x1386_0-x1412_0
     RDKit          3D

 29 32  0  0  0  0  0  0  0  0999 V2000
    6.4180   -3.4640   19.9150 C   0  0  0  0  0  0  0  0  0  0  0  0
    7.4010   -3.0680   18.8070 C   0  0  0  0  0  0  0  0  0  0  0  0
    5.4360   -4.1830   19.7420 O   0  0  0  0  0  0  0  0  0  0  0  0
    6.7030   -2.9850   21.1690 N   0  0  0  0  0  0  0  0  0  0  0  0
    7.6800   -1.8750   21.2200 C   0  0  1  0  0  0  0  0  0  0  0  0
    6.3640   -3.6850   22.4230 C   0  0  0  0  0  0  0  0  0  0  0  0
    6.9430   -0.6010   21.3310 N   0  0  0  0  0  0  0  0  0  0  0  0
    8.6930   -2.1010   22.3450 C   0  0  0  0  0  0  0  0  0  0  0  0
    7.4710   -3.9770   23.1740 C   0  0  0  0  0  0  0  0  0  0  0  0
    8.0770   -2.7060   23.5280 N   0  0  0  0  0  0  0  0  0  0  0  0
    6.3280    0.0780   20.2000 C   0  0  0  0  0  0  0  0  0  0  0  0
    8.9410   -2.6420   24.7010 C   0  0  2  0  0  0  0  0  0  0  0  0
    6.9860   -0.0840   19.0020 C   0  0  0  0  0  0  0  0  0  0  0  0
    5.1690    0.8420   20.2870 C   0  0  0  0  0  0  0  0  0  0  0  0
    8.8770   -1.6030   25.3400 O   0  0  0  0  0  0  0  0  0  0  0  0
   10.3770   -2.7940   24.1810 C   0  0  0  0  0  0  0  0  0  0  0  0
    8.8150   -3.8050   25.7080 C   0  0  0  0  0  0  0  0  0  0  0  0
    6.4460    0.5820   17.7980 N   0  0  0  0  0  0  0  0  0  0  0  0
    4.6070    1.4900   19.1920 C   0  0  0  0  0  0  0  0  0  0  0  0
    9.6170   -4.9610   25.5040 C   0  0  0  0  0  0  0  0  0  0  0  0
    7.8070   -3.9520   27.1450 S   0  0  0  0  0  0  0  0  0  0  0  0
    5.2010    1.3970   17.9390 C   0  0  0  0  0  0  0  0  0  0  0  0
   11.1750   -1.5480   23.8500 C   0  0  0  0  0  0  0  0  0  0  0  0
    9.3010   -5.8780   26.6100 C   0  0  0  0  0  0  0  0  0  0  0  0
    8.3890   -5.4920   27.5320 C   0  0  0  0  0  0  0  0  0  0  0  0
   12.2200   -1.5150   22.9250 C   0  0  0  0  0  0  0  0  0  0  0  0
   11.0060   -0.2760   24.3970 C   0  0  0  0  0  0  0  0  0  0  0  0
   12.8260   -0.2820   22.7640 C   0  0  0  0  0  0  0  0  0  0  0  0
   12.1300    0.9040   23.7490 S   0  0  0  0  0  0  0  0  0  0  0  0
  1  2  1  0
  1  3  2  0
  1  4  1  0
  4  5  1  0
  4  6  1  0
  5  7  1  1
  5  8  1  0
  6  9  1  0
  8 10  1  0
  9 10  1  0
  7 11  1  0
 10 12  1  0
 11 13  2  0
 11 14  1  0
 12 15  1  1
 12 16  1  0
 12 17  1  0
 13 18  1  0
 14 19  2  0
 17 20  2  0
 17 21  1  0
 18 22  2  0
 19 22  1  0
 16 23  1  0
 20 24  1  0
 21 25  1  0
 24 25  2  0
 23 26  1  0
 23 27  2  0
 26 28  2  0
 27 29  1  0
 28 29  1  0
M  END
