x0731_0-x0387_0
     RDKit          3D

 17 18  0  0  0  0  0  0  0  0999 V2000
    6.1890   -4.5020   20.4540 C   0  0  0  0  0  0  0  0  0  0  0  0
    6.8930   -3.4540   19.6180 C   0  0  0  0  0  0  0  0  0  0  0  0
    5.2910   -5.1730   19.9940 O   0  0  0  0  0  0  0  0  0  0  0  0
    6.6080   -4.7030   21.7410 N   0  0  0  0  0  0  0  0  0  0  0  0
    6.6310   -3.6060   22.6450 C   0  0  0  0  0  0  0  0  0  0  0  0
    6.3310   -6.0200   22.2960 C   0  0  0  0  0  0  0  0  0  0  0  0
    7.0590   -3.9980   24.0410 C   0  0  2  0  0  0  0  0  0  0  0  0
    5.4460   -5.7610   23.5310 C   0  0  0  0  0  0  0  0  0  0  0  0
    8.4680   -4.4990   23.8840 C   0  0  0  0  0  0  0  0  0  0  0  0
    6.1650   -5.0400   24.6000 N   0  0  0  0  0  0  0  0  0  0  0  0
    9.6700   -3.5190   23.8680 C   0  0  0  0  0  0  0  0  0  0  0  0
    9.5770   -1.9760   24.0010 C   0  0  0  0  0  0  0  0  0  0  0  0
   10.8910   -1.3950   23.5240 C   0  0  0  0  0  0  0  0  0  0  0  0
   11.5360   -0.2500   23.9420 C   0  0  0  0  0  0  0  0  0  0  0  0
   11.6930   -1.9650   22.5330 C   0  0  0  0  0  0  0  0  0  0  0  0
   12.7330    0.0770   23.3550 C   0  0  0  0  0  0  0  0  0  0  0  0
   13.1470   -1.0910   22.1950 S   0  0  0  0  0  0  0  0  0  0  0  0
  1  2  1  0
  1  3  2  0
  1  4  1  0
  4  5  1  0
  4  6  1  0
  5  7  1  0
  6  8  1  0
  7  9  1  6
  7 10  1  0
  8 10  1  0
  9 11  1  0
 11 12  1  0
 12 13  1  0
 13 14  1  0
 13 15  2  0
 14 16  2  0
 15 17  1  0
 16 17  1  0
M  END
