x0731_0-x1402_0
     RDKit          3D

 18 19  0  0  0  0  0  0  0  0999 V2000
    6.2610   -4.5470   20.5080 C   0  0  0  0  0  0  0  0  0  0  0  0
    6.9690   -3.4330   19.7360 C   0  0  0  0  0  0  0  0  0  0  0  0
    5.2840   -5.0630   19.9940 O   0  0  0  0  0  0  0  0  0  0  0  0
    6.7000   -5.0630   21.7240 N   0  0  0  0  0  0  0  0  0  0  0  0
    7.2550   -4.2090   22.6690 C   0  0  0  0  0  0  0  0  0  0  0  0
    6.1830   -6.3420   22.2130 C   0  0  0  0  0  0  0  0  0  0  0  0
    6.3900   -4.0540   23.9250 C   0  0  0  0  0  0  0  0  0  0  0  0
    5.2550   -6.1270   23.3980 C   0  0  0  0  0  0  0  0  0  0  0  0
    5.9090   -5.3440   24.4390 N   0  0  0  0  0  0  0  0  0  0  0  0
    5.0830   -5.2770   25.9210 S   0  0  0  0  0  0  0  0  0  0  0  0
    4.0590   -6.3040   25.9250 O   0  0  0  0  0  0  0  0  0  0  0  0
    6.0800   -5.2220   26.9670 O   0  0  0  0  0  0  0  0  0  0  0  0
    4.1940   -3.7450   25.9640 C   0  0  0  0  0  0  0  0  0  0  0  0
    2.4610   -3.8750   25.9300 S   0  0  0  0  0  0  0  0  0  0  0  0
    4.6680   -2.4320   26.0250 C   0  0  0  0  0  0  0  0  0  0  0  0
    2.2460   -2.2060   26.0050 C   0  0  0  0  0  0  0  0  0  0  0  0
    3.6170   -1.5280   26.0480 C   0  0  0  0  0  0  0  0  0  0  0  0
    0.6900   -1.4910   26.0320 Cl  0  0  0  0  0  0  0  0  0  0  0  0
  1  2  1  0
  1  3  2  0
  1  4  1  0
  4  5  1  0
  4  6  1  0
  5  7  1  0
  6  8  1  0
  7  9  1  0
  8  9  1  0
  9 10  1  0
 10 11  2  0
 10 12  2  0
 10 13  1  0
 13 14  1  0
 13 15  2  0
 14 16  1  0
 15 17  1  0
 16 17  2  0
 16 18  1  0
M  END
