x0731_0-x0759_0
     RDKit          3D

 20 22  0  0  0  0  0  0  0  0999 V2000
    6.4660   -4.6200   20.3980 C   0  0  0  0  0  0  0  0  0  0  0  0
    7.1240   -3.3360   19.9660 C   0  0  0  0  0  0  0  0  0  0  0  0
    5.5910   -5.1200   19.7040 O   0  0  0  0  0  0  0  0  0  0  0  0
    6.8610   -5.1630   21.5700 N   0  0  0  0  0  0  0  0  0  0  0  0
    7.6110   -4.4450   22.6060 C   0  0  0  0  0  0  0  0  0  0  0  0
    6.1900   -6.3540   22.0920 C   0  0  0  0  0  0  0  0  0  0  0  0
    6.6940   -4.0730   23.7430 C   0  0  2  0  0  0  0  0  0  0  0  0
    5.2520   -5.9610   23.2030 C   0  0  0  0  0  0  0  0  0  0  0  0
    8.3480   -3.5350   23.2070 C   0  0  0  0  0  0  0  0  0  0  0  0
    6.0350   -5.2880   24.2500 N   0  0  0  0  0  0  0  0  0  0  0  0
    9.3020   -2.6950   23.3550 C   0  0  0  0  0  0  0  0  0  0  0  0
    9.6900   -1.4500   23.1980 C   0  0  2  0  0  0  0  0  0  0  0  0
   10.7480   -1.4870   22.3020 C   0  0  2  0  0  0  0  0  0  0  0  0
    9.7560   -1.0700   23.7730 C   0  0  0  0  0  0  0  0  0  0  0  0
   11.2090   -1.0150   23.6520 C   0  0  2  0  0  0  0  0  0  0  0  0
   11.9080   -0.7740   22.5420 C   0  0  0  0  0  0  0  0  0  0  0  0
    9.8230   -0.6900   24.3470 C   0  0  0  0  0  0  0  0  0  0  0  0
   11.9830   -0.0400   23.6900 C   0  0  0  0  0  0  0  0  0  0  0  0
   10.9750    0.0240   24.6010 C   0  0  0  0  0  0  0  0  0  0  0  0
   13.1170    0.6640   23.9480 F   0  0  0  0  0  0  0  0  0  0  0  0
  1  2  1  0
  1  3  2  0
  1  4  1  0
  4  5  1  0
  4  6  1  0
  5  7  1  0
  6  8  1  0
  7  9  1  1
  7 10  1  0
  8 10  1  0
  9 11  1  0
 12 11  1  1
 12 13  1  0
 12 14  1  0
 13 15  1  0
 13 16  1  6
 14 17  2  0
 15 17  1  1
 16 18  1  0
 15 19  1  0
 18 19  1  0
 18 20  1  0
M  END
