x0734_0-x0831_0-x1334_1
     RDKit          3D

 28 31  0  0  0  0  0  0  0  0999 V2000
    6.2950   -3.4750   20.0410 C   0  0  0  0  0  0  0  0  0  0  0  0
    7.2750   -3.0350   18.9420 C   0  0  0  0  0  0  0  0  0  0  0  0
    5.3550   -4.2420   19.7910 O   0  0  0  0  0  0  0  0  0  0  0  0
    6.5150   -2.9960   21.3560 N   0  0  0  0  0  0  0  0  0  0  0  0
    7.0170   -1.5930   21.4220 C   0  0  0  0  0  0  0  0  0  0  0  0
    6.9600   -3.8800   22.5020 C   0  0  2  0  0  0  0  0  0  0  0  0
    6.4780   -3.5740   23.9570 C   0  0  1  0  0  0  0  0  0  0  0  0
    8.4420   -1.4600   21.9420 C   0  0  0  0  0  0  0  0  0  0  0  0
    8.2990   -3.7460   22.5170 C   0  0  0  0  0  0  0  0  0  0  0  0
    5.0770   -4.0610   24.3520 C   0  0  0  0  0  0  0  0  0  0  0  0
    8.7460   -2.4240   22.9830 N   0  0  0  0  0  0  0  0  0  0  0  0
    7.2150   -4.3500   25.0470 C   0  0  0  0  0  0  0  0  0  0  0  0
    5.0390   -4.5760   25.8180 C   0  0  2  0  0  0  0  0  0  0  0  0
   10.1740   -2.4600   23.2080 C   0  0  0  0  0  0  0  0  0  0  0  0
    8.5790   -4.5620   25.1030 C   0  0  0  0  0  0  0  0  0  0  0  0
    6.4770   -4.8980   26.0880 C   0  0  0  0  0  0  0  0  0  0  0  0
    4.2470   -5.7540   25.8310 O   0  0  0  0  0  0  0  0  0  0  0  0
    4.4630   -3.7660   26.6590 O   0  0  0  0  0  0  0  0  0  0  0  0
    9.2120   -5.2550   26.1100 C   0  0  0  0  0  0  0  0  0  0  0  0
    7.1430   -5.6690   27.2400 C   0  0  0  0  0  0  0  0  0  0  0  0
   10.8330   -1.0920   23.3240 C   0  0  0  0  0  0  0  0  0  0  0  0
    8.5590   -5.8140   27.1920 C   0  0  0  0  0  0  0  0  0  0  0  0
   10.1610   -0.0720   24.0750 C   0  0  0  0  0  0  0  0  0  0  0  0
   12.0700   -0.8530   22.7180 C   0  0  0  0  0  0  0  0  0  0  0  0
   12.7800   -1.9120   21.9260 C   0  0  0  0  0  0  0  0  0  0  0  0
   10.8070    1.1520   24.1550 C   0  0  0  0  0  0  0  0  0  0  0  0
   12.6720    0.3710   22.8340 C   0  0  0  0  0  0  0  0  0  0  0  0
   12.0450    1.3690   23.5420 C   0  0  0  0  0  0  0  0  0  0  0  0
  1  2  1  0
  1  3  2  0
  1  4  1  0
  4  5  1  0
  4  6  1  0
  6  7  1  0
  5  8  1  0
  6  9  1  1
  7 10  1  6
  8 11  1  0
  9 11  1  0
  7 12  1  0
 10 13  1  0
 11 14  1  0
 12 15  2  0
 12 16  1  0
 13 16  1  0
 13 17  1  6
 13 18  1  0
 15 19  1  0
 16 20  2  0
 14 21  1  0
 19 22  2  0
 20 22  1  0
 21 23  2  0
 21 24  1  0
 24 25  1  0
 23 26  1  0
 24 27  2  0
 26 28  2  0
 27 28  1  0
M  CHG  1  18  -1
M  END
