x0736_1-x1412_1-x0387_0-x0397_0-x0434_2-x1418_1-x1334_1-x1412_0-x0874_0
     RDKit          3D

 32 36  0  0  0  0  0  0  0  0999 V2000
    6.3820   -3.2850   19.9240 C   0  0  0  0  0  0  0  0  0  0  0  0
    7.4140   -2.9510   18.8330 C   0  0  0  0  0  0  0  0  0  0  0  0
    5.3850   -3.9580   19.6330 O   0  0  0  0  0  0  0  0  0  0  0  0
    6.5780   -2.8940   21.2860 N   0  0  0  0  0  0  0  0  0  0  0  0
    7.4310   -1.7520   21.6840 C   0  0  2  0  0  0  0  0  0  0  0  0
    6.9000   -4.0390   22.0900 C   0  0  1  0  0  0  0  0  0  0  0  0
    7.7820   -0.8180   20.6320 N   0  0  0  0  0  0  0  0  0  0  0  0
    8.7190   -2.1320   22.4350 C   0  0  0  0  0  0  0  0  0  0  0  0
    7.2860   -3.6890   23.5080 C   0  0  0  0  0  0  0  0  0  0  0  0
    5.7110   -4.9330   22.1970 C   0  0  0  0  0  0  0  0  0  0  0  0
    8.5310   -2.9120   23.5460 N   0  0  0  0  0  0  0  0  0  0  0  0
    5.6380   -6.0800   23.2750 C   0  0  0  0  0  0  0  0  0  0  0  0
    5.8970   -6.4540   21.9690 C   0  0  0  0  0  0  0  0  0  0  0  0
    6.8350   -0.1210   19.8900 C   0  0  0  0  0  0  0  0  0  0  0  0
    8.7950   -2.4030   24.7650 C   0  0  2  0  0  0  0  0  0  0  0  0
    6.9950    0.1600   18.4670 C   0  0  0  0  0  0  0  0  0  0  0  0
    5.6390    0.3930   20.4200 C   0  0  0  0  0  0  0  0  0  0  0  0
    7.8430   -1.5310   25.3760 O   0  0  0  0  0  0  0  0  0  0  0  0
   10.1260   -1.5890   24.9890 C   0  0  0  0  0  0  0  0  0  0  0  0
    8.8450   -3.6460   25.6740 C   0  0  0  0  0  0  0  0  0  0  0  0
    6.1670    0.8310   17.6410 N   0  0  0  0  0  0  0  0  0  0  0  0
    4.7830    1.0840   19.5720 C   0  0  0  0  0  0  0  0  0  0  0  0
    9.7260   -4.9020   25.5480 C   0  0  0  0  0  0  0  0  0  0  0  0
    7.8220   -3.8430   27.0860 S   0  0  0  0  0  0  0  0  0  0  0  0
   11.2110   -1.3560   23.9630 C   0  0  0  0  0  0  0  0  0  0  0  0
    5.0650    1.2790   18.2490 C   0  0  0  0  0  0  0  0  0  0  0  0
    9.5100   -5.7940   26.4970 C   0  0  0  0  0  0  0  0  0  0  0  0
    8.4470   -5.3770   27.4990 C   0  0  0  0  0  0  0  0  0  0  0  0
   12.1060   -0.1140   23.9230 C   0  0  0  0  0  0  0  0  0  0  0  0
   11.6320   -2.1710   22.8920 C   0  0  0  0  0  0  0  0  0  0  0  0
   13.1180   -0.0840   22.8550 C   0  0  0  0  0  0  0  0  0  0  0  0
   12.9820   -1.5130   21.9400 S   0  0  0  0  0  0  0  0  0  0  0  0
  1  2  1  0
  1  3  2  0
  1  4  1  0
  4  5  1  0
  4  6  1  0
  5  7  1  6
  5  8  1  0
  6  9  1  0
  6 10  1  1
  8 11  1  0
  9 11  1  0
 10 12  1  0
 10 13  1  0
 12 13  1  0
  7 14  1  0
 11 15  1  0
 14 16  2  0
 14 17  1  0
 15 18  1  1
 15 19  1  0
 15 20  1  0
 16 21  1  0
 17 22  2  0
 20 23  2  0
 20 24  1  0
 19 25  1  0
 21 26  2  0
 22 26  1  0
 23 27  1  0
 24 28  1  0
 27 28  2  0
 25 29  1  0
 25 30  2  0
 29 31  2  0
 30 32  1  0
 31 32  1  0
M  END
