x0734_0-x0831_0-x1418_1
     RDKit          3D

 29 32  0  0  0  0  0  0  0  0999 V2000
    6.3190   -3.1730   19.7160 C   0  0  0  0  0  0  0  0  0  0  0  0
    7.3330   -2.9670   18.6130 C   0  0  0  0  0  0  0  0  0  0  0  0
    5.3130   -3.8520   19.5020 O   0  0  0  0  0  0  0  0  0  0  0  0
    6.6200   -2.6590   20.9400 N   0  0  0  0  0  0  0  0  0  0  0  0
    6.9750   -3.7510   21.8810 C   0  0  0  0  0  0  0  0  0  0  0  0
    7.3520   -1.3800   21.0310 C   0  0  0  0  0  0  0  0  0  0  0  0
    7.8790   -3.3450   23.0650 C   0  0  2  0  0  0  0  0  0  0  0  0
    8.7530   -1.5740   21.6110 C   0  0  0  0  0  0  0  0  0  0  0  0
    6.9260   -3.2690   24.2810 C   0  0  1  0  0  0  0  0  0  0  0  0
    8.6320   -2.0900   22.9620 N   0  0  0  0  0  0  0  0  0  0  0  0
    5.4640   -3.6640   23.9940 C   0  0  0  0  0  0  0  0  0  0  0  0
    9.9480   -2.2470   23.5110 C   0  0  0  0  0  0  0  0  0  0  0  0
    7.3860   -4.2480   25.3940 C   0  0  0  0  0  0  0  0  0  0  0  0
    4.5210   -3.4880   25.1510 C   0  0  0  0  0  0  0  0  0  0  0  0
    8.7750   -4.5430   25.4050 C   0  0  0  0  0  0  0  0  0  0  0  0
    6.4440   -4.8000   26.3500 C   0  0  0  0  0  0  0  0  0  0  0  0
   10.7420   -0.9500   23.4800 C   0  0  0  0  0  0  0  0  0  0  0  0
    4.9590   -4.4480   26.2400 C   0  0  2  0  0  0  0  0  0  0  0  0
    9.2900   -5.3960   26.3870 C   0  0  0  0  0  0  0  0  0  0  0  0
    7.0440   -5.7000   27.3980 C   0  0  0  0  0  0  0  0  0  0  0  0
   10.2740    0.1890   24.1320 C   0  0  0  0  0  0  0  0  0  0  0  0
   11.9820   -0.8710   22.7910 C   0  0  0  0  0  0  0  0  0  0  0  0
    4.2090   -5.6100   26.0030 O   0  0  0  0  0  0  0  0  0  0  0  0
    4.4870   -3.9860   27.3570 O   0  0  0  0  0  0  0  0  0  0  0  0
   12.5690   -2.0390   22.0470 C   0  0  0  0  0  0  0  0  0  0  0  0
    8.3660   -5.9780   27.4250 C   0  0  0  0  0  0  0  0  0  0  0  0
   10.9950    1.3660   24.1050 C   0  0  0  0  0  0  0  0  0  0  0  0
   12.6980    0.3120   22.7850 C   0  0  0  0  0  0  0  0  0  0  0  0
   12.2090    1.4400   23.4390 C   0  0  0  0  0  0  0  0  0  0  0  0
  1  2  1  0
  1  3  2  0
  1  4  1  0
  4  5  1  0
  4  6  1  0
  7  5  1  6
  6  8  1  0
  7  9  1  0
  7 10  1  0
  8 10  1  0
  9 11  1  6
 10 12  1  0
  9 13  1  0
 11 14  1  0
 13 15  1  0
 13 16  2  0
 12 17  1  0
 14 18  1  0
 16 18  1  0
 15 19  2  0
 16 20  1  0
 17 21  2  0
 17 22  1  0
 18 23  1  6
 18 24  1  0
 22 25  1  0
 19 26  1  0
 20 26  2  0
 21 27  1  0
 22 28  2  0
 27 29  2  0
 28 29  1  0
M  CHG  1  24  -1
M  END
