x0731_0-x0831_0-x0072_0
     RDKit          3D

 23 24  0  0  0  0  0  0  0  0999 V2000
    6.2060   -4.6160   20.4830 C   0  0  0  0  0  0  0  0  0  0  0  0
    6.9620   -3.4890   19.7770 C   0  0  0  0  0  0  0  0  0  0  0  0
    5.2100   -5.0710   19.9760 O   0  0  0  0  0  0  0  0  0  0  0  0
    6.6940   -5.1650   21.6580 N   0  0  0  0  0  0  0  0  0  0  0  0
    7.5580   -4.5070   22.6200 C   0  0  0  0  0  0  0  0  0  0  0  0
    5.9890   -6.3240   22.1930 C   0  0  0  0  0  0  0  0  0  0  0  0
    6.8640   -3.9960   23.8390 C   0  0  2  0  0  0  0  0  0  0  0  0
    5.3570   -5.9550   23.4020 C   0  0  0  0  0  0  0  0  0  0  0  0
    7.8000   -3.4910   24.8640 N   0  0  0  0  0  0  0  0  0  0  0  0
    6.0480   -5.1010   24.3850 N   0  0  0  0  0  0  0  0  0  0  0  0
    8.0180   -4.3970   26.2900 S   0  0  0  0  0  0  0  0  0  0  0  0
    8.6000   -2.2520   24.6300 C   0  0  0  0  0  0  0  0  0  0  0  0
    6.4620   -5.1790   26.6670 C   0  0  0  0  0  0  0  0  0  0  0  0
    9.0230   -5.4160   26.0550 O   0  0  0  0  0  0  0  0  0  0  0  0
    8.3470   -3.4280   27.5050 O   0  0  0  0  0  0  0  0  0  0  0  0
    9.7960   -2.3920   23.6500 C   0  0  0  0  0  0  0  0  0  0  0  0
   10.6020   -1.0910   23.5680 C   0  0  0  0  0  0  0  0  0  0  0  0
   10.1120    0.0250   24.1900 C   0  0  0  0  0  0  0  0  0  0  0  0
   11.8720   -1.0090   22.8530 C   0  0  0  0  0  0  0  0  0  0  0  0
   12.4840   -2.1710   22.1360 C   0  0  0  0  0  0  0  0  0  0  0  0
   10.8160    1.3810   24.1870 C   0  0  0  0  0  0  0  0  0  0  0  0
   12.6190    0.1890   22.7920 C   0  0  0  0  0  0  0  0  0  0  0  0
   12.1290    1.4540   23.4560 C   0  0  0  0  0  0  0  0  0  0  0  0
  1  2  1  0
  1  3  2  0
  1  4  1  0
  4  5  1  0
  4  6  1  0
  5  7  1  0
  6  8  1  0
  7  9  1  1
  7 10  1  0
  8 10  1  0
 11  9  1  0
  9 12  1  0
 11 13  1  0
 11 14  2  0
 11 15  2  0
 12 16  1  0
 16 17  1  0
 17 18  2  0
 17 19  1  0
 19 20  1  0
 18 21  1  0
 19 22  2  0
 21 23  2  0
 22 23  1  0
M  END
