x0731_0-x0769_1
     RDKit          3D

 19 20  0  0  0  0  0  0  0  0999 V2000
    6.2620   -4.6000   20.5240 C   0  0  0  0  0  0  0  0  0  0  0  0
    6.9390   -3.4690   19.7610 C   0  0  0  0  0  0  0  0  0  0  0  0
    5.2940   -5.1230   20.0040 O   0  0  0  0  0  0  0  0  0  0  0  0
    6.7480   -5.0750   21.7170 N   0  0  0  0  0  0  0  0  0  0  0  0
    7.3090   -4.1260   22.6920 C   0  0  0  0  0  0  0  0  0  0  0  0
    6.3090   -6.3180   22.2960 C   0  0  0  0  0  0  0  0  0  0  0  0
    6.4260   -3.9720   23.9370 C   0  0  0  0  0  0  0  0  0  0  0  0
    5.3740   -6.1080   23.2970 C   0  0  0  0  0  0  0  0  0  0  0  0
    5.8350   -5.2570   24.4010 N   0  0  0  0  0  0  0  0  0  0  0  0
    4.9190   -5.2980   25.8630 S   0  0  0  0  0  0  0  0  0  0  0  0
    5.8660   -5.2020   26.9520 O   0  0  0  0  0  0  0  0  0  0  0  0
    4.0640   -6.4600   25.9300 O   0  0  0  0  0  0  0  0  0  0  0  0
    3.8620   -3.8790   25.9020 C   0  0  0  0  0  0  0  0  0  0  0  0
    2.3520   -4.0300   25.7650 C   0  0  0  0  0  0  0  0  0  0  0  0
    4.3780   -2.5830   26.0620 C   0  0  0  0  0  0  0  0  0  0  0  0
    5.6840   -2.3360   26.1890 F   0  0  0  0  0  0  0  0  0  0  0  0
    1.3360   -2.9010   25.7870 C   0  0  0  0  0  0  0  0  0  0  0  0
    3.3800   -1.3980   26.0910 C   0  0  0  0  0  0  0  0  0  0  0  0
    1.9980   -1.5360   25.9680 C   0  0  0  0  0  0  0  0  0  0  0  0
  1  2  1  0
  1  3  2  0
  1  4  1  0
  4  5  1  0
  4  6  1  0
  5  7  1  0
  6  8  1  0
  7  9  1  0
  8  9  1  0
  9 10  1  0
 10 11  2  0
 10 12  2  0
 10 13  1  0
 13 14  2  0
 13 15  1  0
 15 16  1  0
 14 17  1  0
 15 18  2  0
 17 19  2  0
 18 19  1  0
M  END
