x0736
     RDKit          3D

 17 18  0  0  0  0  0  0  0  0999 V2000
    6.9640   -2.9710   21.0810 N   0  0  0  0  0  0  0  0  0  0  0  0
    7.4380   -2.5810   18.6710 C   0  0  0  0  0  0  0  0  0  0  0  0
    5.8860   -4.1690   19.5300 O   0  0  0  0  0  0  0  0  0  0  0  0
    6.7120   -3.3030   19.7970 C   0  0  0  0  0  0  0  0  0  0  0  0
    7.9190   -2.8400   23.7650 N   0  0  0  0  0  0  0  0  0  0  0  0
    6.1680   -2.2150   25.0420 O   0  0  0  0  0  0  0  0  0  0  0  0
    6.3070   -3.7040   22.1680 C   0  0  0  0  0  0  0  0  0  0  0  0
    8.4600   -0.0490   25.2890 O   0  0  0  0  0  0  0  0  0  0  0  0
    7.2810   -4.0600   23.2700 C   0  0  0  0  0  0  0  0  0  0  0  0
    8.6850   -2.1910   22.6980 C   0  0  0  0  0  0  0  0  0  0  0  0
    7.7810   -1.8350   21.5330 C   0  0  0  0  0  0  0  0  0  0  0  0
    7.3690   -2.1430   24.7920 C   0  0  0  0  0  0  0  0  0  0  0  0
    8.2140   -1.3470   25.6500 C   0  0  0  0  0  0  0  0  0  0  0  0
    8.8440   -1.6340   26.8100 C   0  0  0  0  0  0  0  0  0  0  0  0
    9.5340   -0.4640   27.2080 C   0  0  0  0  0  0  0  0  0  0  0  0
    9.2720    0.4820   26.2440 C   0  0  0  0  0  0  0  0  0  0  0  0
    9.0150   -3.3750   18.2550 R   0  0  0  0  0  0  0  0  0  0  0  0
  1  4  1  0
  2  4  1  0
  3  4  2  0
  1  7  1  0
  5  9  1  0
  7  9  1  0
  5 10  1  0
  1 11  1  0
 10 11  1  0
  5 12  1  0
  6 12  2  0
  8 13  1  0
 12 13  1  0
 13 14  2  0
 14 15  1  0
  8 16  1  0
 15 16  2  0
  2 17  1  0
M  END
