x0731_0-x0831_0-x1418_0-x0434_2
     RDKit          3D

 29 31  0  0  0  0  0  0  0  0999 V2000
    6.2760   -4.8080   20.5090 C   0  0  0  0  0  0  0  0  0  0  0  0
    6.8350   -3.5810   19.7930 C   0  0  0  0  0  0  0  0  0  0  0  0
    5.3460   -5.4060   20.0030 O   0  0  0  0  0  0  0  0  0  0  0  0
    6.8940   -5.2480   21.6770 N   0  0  0  0  0  0  0  0  0  0  0  0
    7.5900   -4.3490   22.5960 C   0  0  0  0  0  0  0  0  0  0  0  0
    6.2300   -6.3390   22.3840 C   0  0  0  0  0  0  0  0  0  0  0  0
    6.5750   -3.7200   23.5340 C   0  0  2  0  0  0  0  0  0  0  0  0
    5.3160   -5.7990   23.5190 C   0  0  0  0  0  0  0  0  0  0  0  0
    7.2730   -2.5420   24.2920 C   0  0  0  0  0  0  0  0  0  0  0  0
    5.9880   -4.7740   24.3750 N   0  0  0  0  0  0  0  0  0  0  0  0
    8.3500   -1.7970   23.3960 C   0  0  2  0  0  0  0  0  0  0  0  0
    9.7270   -1.8940   24.0590 C   0  0  1  0  0  0  0  0  0  0  0  0
    8.0240   -0.3670   23.0480 C   0  0  0  0  0  0  0  0  0  0  0  0
   10.4230   -3.2080   23.8550 C   0  0  0  0  0  0  0  0  0  0  0  0
    8.2940   -0.1910   21.7110 C   0  0  0  0  0  0  0  0  0  0  0  0
   10.6770   -0.7610   23.7510 C   0  0  0  0  0  0  0  0  0  0  0  0
    7.2600   -0.8580   20.9220 N   0  0  0  0  0  0  0  0  0  0  0  0
   10.2990    0.6490   24.2550 C   0  0  0  0  0  0  0  0  0  0  0  0
   11.9160   -0.8340   23.0380 C   0  0  0  0  0  0  0  0  0  0  0  0
   12.5160   -2.0720   22.4380 C   0  0  0  0  0  0  0  0  0  0  0  0
   11.1130    1.6980   24.0060 C   0  0  0  0  0  0  0  0  0  0  0  0
   12.6850    0.3050   22.8430 C   0  0  0  0  0  0  0  0  0  0  0  0
    6.4990   -0.0970   20.0460 C   0  0  0  0  0  0  0  0  0  0  0  0
   12.3170    1.5620   23.3040 C   0  0  0  0  0  0  0  0  0  0  0  0
    6.9180    0.0200   18.6840 C   0  0  0  0  0  0  0  0  0  0  0  0
    5.3250    0.6020   20.3360 C   0  0  0  0  0  0  0  0  0  0  0  0
    6.3620    0.7030   17.6480 N   0  0  0  0  0  0  0  0  0  0  0  0
    4.8120    1.2520   19.3070 C   0  0  0  0  0  0  0  0  0  0  0  0
    5.2420    1.3590   17.9800 C   0  0  0  0  0  0  0  0  0  0  0  0
  1  2  1  0
  1  3  2  0
  1  4  1  0
  4  5  1  0
  4  6  1  0
  5  7  1  0
  6  8  1  0
  7  9  1  1
  7 10  1  0
  8 10  1  0
 11  9  1  1
 11 12  1  0
 11 13  1  0
 12 14  1  6
 13 15  1  0
 12 16  1  0
 15 17  1  0
 16 18  2  0
 16 19  1  0
 19 20  1  0
 18 21  1  0
 19 22  2  0
 17 23  1  0
 21 24  2  0
 22 24  1  0
 23 25  2  0
 23 26  1  0
 25 27  1  0
 26 28  2  0
 27 29  2  0
 28 29  1  0
M  END
