x0734_0-x1385_1-x0770_1-x1334_1-x0397_0-x0831_0-x1418_1
     RDKit          3D

 30 33  0  0  0  0  0  0  0  0999 V2000
    6.2860   -3.2110   19.7960 C   0  0  0  0  0  0  0  0  0  0  0  0
    7.3060   -2.9490   18.7040 C   0  0  0  0  0  0  0  0  0  0  0  0
    5.2810   -3.8840   19.5690 O   0  0  0  0  0  0  0  0  0  0  0  0
    6.5590   -2.7540   21.0740 N   0  0  0  0  0  0  0  0  0  0  0  0
    7.0920   -3.7650   21.9880 C   0  0  1  0  0  0  0  0  0  0  0  0
    7.3320   -1.5100   21.1030 C   0  0  0  0  0  0  0  0  0  0  0  0
    7.5640   -3.2040   23.3410 C   0  0  0  0  0  0  0  0  0  0  0  0
    8.6940   -1.6710   21.8160 C   0  0  0  0  0  0  0  0  0  0  0  0
    6.1370   -4.9490   21.9720 C   0  0  2  0  0  0  0  0  0  0  0  0
    8.6030   -2.1490   23.1750 N   0  0  0  0  0  0  0  0  0  0  0  0
    5.4040   -5.5740   23.0160 C   0  0  1  0  0  0  0  0  0  0  0  0
    6.4650   -6.2680   22.8920 C   0  0  0  0  0  0  0  0  0  0  0  0
    4.8540   -4.7210   24.1290 C   0  0  0  0  0  0  0  0  0  0  0  0
    9.9100   -2.3580   23.8680 C   0  0  0  0  0  0  0  0  0  0  0  0
    4.6700   -5.5310   25.2130 N   0  0  0  0  0  0  0  0  0  0  0  0
   10.7610   -1.1040   23.7050 C   0  0  0  0  0  0  0  0  0  0  0  0
    5.2440   -5.0230   26.2280 N   0  0  0  0  0  0  0  0  0  0  0  0
   10.1980    0.1810   24.3150 C   0  0  0  0  0  0  0  0  0  0  0  0
   11.9970   -1.0220   23.0390 C   0  0  0  0  0  0  0  0  0  0  0  0
    4.7360   -4.0440   26.8810 O   0  0  0  0  0  0  0  0  0  0  0  0
   12.6480   -2.1980   22.3890 C   0  0  0  0  0  0  0  0  0  0  0  0
    6.6210   -5.1280   26.3360 C   0  0  0  0  0  0  0  0  0  0  0  0
   10.9700    1.3730   24.1550 C   0  0  0  0  0  0  0  0  0  0  0  0
   12.6800    0.1860   22.9440 C   0  0  0  0  0  0  0  0  0  0  0  0
    7.3900   -4.7290   25.2490 C   0  0  0  0  0  0  0  0  0  0  0  0
    7.2200   -5.6220   27.4990 C   0  0  0  0  0  0  0  0  0  0  0  0
   12.1940    1.3850   23.4840 C   0  0  0  0  0  0  0  0  0  0  0  0
    8.8960   -4.8240   25.3120 C   0  0  0  0  0  0  0  0  0  0  0  0
    8.7460   -5.7590   27.6520 C   0  0  0  0  0  0  0  0  0  0  0  0
    9.5660   -5.3060   26.4210 C   0  0  0  0  0  0  0  0  0  0  0  0
  1  2  1  0
  1  3  2  0
  1  4  1  0
  4  5  1  0
  4  6  1  0
  5  7  1  1
  6  8  1  0
  5  9  1  0
  7 10  1  0
  8 10  1  0
  9 11  1  0
  9 12  1  1
 11 12  1  0
 11 13  1  1
 10 14  1  0
 13 15  1  0
 14 16  1  0
 15 17  2  3
 16 18  2  0
 16 19  1  0
 17 20  1  0
 19 21  1  0
 17 22  1  0
 18 23  1  0
 19 24  2  0
 22 25  2  0
 22 26  1  0
 23 27  2  0
 24 27  1  0
 25 28  1  0
 26 29  2  0
 28 30  2  0
 29 30  1  0
M  CHG  2  17   1  20  -1
M  END
