x0731_0-x1386_0-x0689_0
     RDKit          3D

 25 27  0  0  0  0  0  0  0  0999 V2000
    6.2660   -4.6620   20.4790 C   0  0  0  0  0  0  0  0  0  0  0  0
    7.0050   -3.5300   19.7860 C   0  0  0  0  0  0  0  0  0  0  0  0
    5.2690   -5.1450   19.9970 O   0  0  0  0  0  0  0  0  0  0  0  0
    6.8190   -5.1870   21.6440 N   0  0  0  0  0  0  0  0  0  0  0  0
    7.4340   -4.3510   22.6470 C   0  0  0  0  0  0  0  0  0  0  0  0
    6.1680   -6.3570   22.1960 C   0  0  0  0  0  0  0  0  0  0  0  0
    6.3580   -3.8140   23.6400 C   0  0  2  0  0  0  0  0  0  0  0  0
    5.2770   -6.0140   23.3430 C   0  0  0  0  0  0  0  0  0  0  0  0
    7.0200   -2.7850   24.6180 C   0  0  0  0  0  0  0  0  0  0  0  0
    5.7610   -5.0050   24.3290 N   0  0  0  0  0  0  0  0  0  0  0  0
    4.8840   -4.8910   25.7670 S   0  0  0  0  0  0  0  0  0  0  0  0
    8.1240   -1.8900   23.9990 C   0  0  0  0  0  0  0  0  0  0  0  0
    4.1370   -6.2840   26.0090 O   0  0  0  0  0  0  0  0  0  0  0  0
    5.8190   -4.4550   26.9730 O   0  0  0  0  0  0  0  0  0  0  0  0
    9.4810   -2.5830   23.7150 C   0  0  0  0  0  0  0  0  0  0  0  0
    3.5690   -3.7530   25.6690 C   0  0  0  0  0  0  0  0  0  0  0  0
    3.9070   -2.1050   26.0080 S   0  0  0  0  0  0  0  0  0  0  0  0
    2.1520   -3.9410   25.3450 C   0  0  0  0  0  0  0  0  0  0  0  0
   10.6540   -1.6100   23.5990 C   0  0  0  0  0  0  0  0  0  0  0  0
    2.2760   -1.6690   25.7480 C   0  0  0  0  0  0  0  0  0  0  0  0
    1.4530   -2.7480   25.4000 C   0  0  0  0  0  0  0  0  0  0  0  0
   11.7790   -1.6980   22.6760 C   0  0  0  0  0  0  0  0  0  0  0  0
   10.8240   -0.4570   24.3760 C   0  0  0  0  0  0  0  0  0  0  0  0
   12.7640   -0.5990   22.7820 C   0  0  0  0  0  0  0  0  0  0  0  0
   12.2430    0.4620   24.0010 S   0  0  0  0  0  0  0  0  0  0  0  0
  1  2  1  0
  1  3  2  0
  1  4  1  0
  4  5  1  0
  4  6  1  0
  5  7  1  0
  6  8  1  0
  7  9  1  1
  7 10  1  0
  8 10  1  0
 10 11  1  0
  9 12  1  0
 11 13  2  0
 11 14  2  0
 12 15  1  0
 11 16  1  0
 16 17  1  0
 16 18  2  0
 15 19  1  0
 17 20  1  0
 18 21  1  0
 20 21  2  0
 19 22  1  0
 19 23  2  0
 22 24  2  0
 23 25  1  0
 24 25  1  0
M  END
