x0736_1-x1418_0-x0540_3
     RDKit          3D

 22 23  0  0  0  0  0  0  0  0999 V2000
    6.3270   -3.4520   20.0190 C   0  0  0  0  0  0  0  0  0  0  0  0
    7.3400   -3.0420   18.9340 C   0  0  0  0  0  0  0  0  0  0  0  0
    5.3880   -4.2040   19.7630 O   0  0  0  0  0  0  0  0  0  0  0  0
    6.4780   -2.9770   21.3310 N   0  0  0  0  0  0  0  0  0  0  0  0
    7.1140   -1.6920   21.5720 C   0  0  1  0  0  0  0  0  0  0  0  0
    6.5200   -3.8920   22.4820 C   0  0  0  0  0  0  0  0  0  0  0  0
    8.5540   -1.8830   22.0680 C   0  0  0  0  0  0  0  0  0  0  0  0
    7.9130   -3.9940   23.1480 C   0  0  0  0  0  0  0  0  0  0  0  0
    7.0070   -0.7430   20.3570 C   0  0  0  0  0  0  0  0  0  0  0  0
    8.6510   -2.7090   23.2860 N   0  0  0  0  0  0  0  0  0  0  0  0
    6.6250    0.5590   20.7230 C   0  0  0  0  0  0  0  0  0  0  0  0
   10.0800   -2.9470   23.5640 C   0  0  0  0  0  0  0  0  0  0  0  0
    5.2500    0.5500   21.4190 C   0  0  0  0  0  0  0  0  0  0  0  0
   10.9940   -1.7500   23.4960 C   0  0  0  0  0  0  0  0  0  0  0  0
    5.2780    1.4900   22.6590 C   0  0  0  0  0  0  0  0  0  0  0  0
   12.0770   -1.5450   22.6680 C   0  0  0  0  0  0  0  0  0  0  0  0
   10.7700   -0.3810   24.5400 S   0  0  0  0  0  0  0  0  0  0  0  0
    4.1540    2.4380   22.6480 N   0  0  0  0  0  0  0  0  0  0  0  0
   12.8030   -0.2320   22.8300 C   0  0  0  0  0  0  0  0  0  0  0  0
   12.0940    0.5350   23.9180 C   0  0  0  0  0  0  0  0  0  0  0  0
    3.0090    2.1760   23.3530 C   0  0  0  0  0  0  0  0  0  0  0  0
    2.9370    1.5070   24.3780 O   0  0  0  0  0  0  0  0  0  0  0  0
  1  2  1  0
  1  3  2  0
  1  4  1  0
  4  5  1  0
  4  6  1  0
  5  7  1  0
  6  8  1  0
  5  9  1  6
  7 10  1  0
  8 10  1  0
  9 11  1  0
 10 12  1  0
 11 13  1  0
 12 14  1  0
 13 15  1  0
 14 16  2  0
 14 17  1  0
 15 18  1  0
 16 19  1  0
 17 20  1  0
 19 20  2  0
 18 21  1  0
 21 22  2  0
M  END
