x0734_0-x0434_2-x1385_1-x1412_1-x0831_0-x1334_1
     RDKit          3D

 36 40  0  0  0  0  0  0  0  0999 V2000
    6.5150   -3.3460   19.8920 C   0  0  0  0  0  0  0  0  0  0  0  0
    7.4170   -3.0510   18.7150 C   0  0  0  0  0  0  0  0  0  0  0  0
    5.5170   -4.0800   19.7350 O   0  0  0  0  0  0  0  0  0  0  0  0
    6.8800   -2.7900   21.1180 N   0  0  0  0  0  0  0  0  0  0  0  0
    6.6350   -3.5540   22.3190 C   0  0  0  0  0  0  0  0  0  0  0  0
    7.8430   -1.6780   21.2420 C   0  0  2  0  0  0  0  0  0  0  0  0
    7.5950   -3.5490   23.2570 C   0  0  2  0  0  0  0  0  0  0  0  0
    8.0890   -1.2140   22.6530 C   0  0  0  0  0  0  0  0  0  0  0  0
    7.4940   -0.5380   20.3920 C   0  0  0  0  0  0  0  0  0  0  0  0
    6.8320   -3.7490   24.5400 C   0  0  1  0  0  0  0  0  0  0  0  0
    8.5020   -2.3780   23.3940 N   0  0  0  0  0  0  0  0  0  0  0  0
    7.2680   -0.9090   19.0990 C   0  0  0  0  0  0  0  0  0  0  0  0
    5.6150   -4.6510   24.4960 C   0  0  0  0  0  0  0  0  0  0  0  0
   10.0020   -2.5610   23.4720 C   0  0  0  0  0  0  0  0  0  0  0  0
    7.6130   -4.4180   25.5900 C   0  0  0  0  0  0  0  0  0  0  0  0
    6.7150    0.1700   18.3080 C   0  0  0  0  0  0  0  0  0  0  0  0
    5.3140   -4.9280   25.9420 C   0  0  2  0  0  0  0  0  0  0  0  0
    8.9590   -4.4260   25.7940 C   0  0  0  0  0  0  0  0  0  0  0  0
    6.7290   -5.1060   26.4440 C   0  0  0  0  0  0  0  0  0  0  0  0
   10.7850   -1.2350   23.4780 C   0  0  0  0  0  0  0  0  0  0  0  0
    5.8120   -0.0690   19.6080 C   0  0  0  0  0  0  0  0  0  0  0  0
    6.0280    1.1870   17.7400 N   0  0  0  0  0  0  0  0  0  0  0  0
    4.5700   -5.8580   26.2310 O   0  0  0  0  0  0  0  0  0  0  0  0
    4.6810   -3.7680   26.4580 O   0  0  0  0  0  0  0  0  0  0  0  0
    9.5300   -5.1160   26.8840 C   0  0  0  0  0  0  0  0  0  0  0  0
    7.1480   -5.8100   27.5430 C   0  0  0  0  0  0  0  0  0  0  0  0
   10.2080   -0.0420   24.1900 C   0  0  0  0  0  0  0  0  0  0  0  0
   12.0480   -1.0280   22.8390 C   0  0  0  0  0  0  0  0  0  0  0  0
    4.9100    1.8540   18.0860 C   0  0  0  0  0  0  0  0  0  0  0  0
    4.6730    0.6070   19.9750 C   0  0  0  0  0  0  0  0  0  0  0  0
   12.7550   -2.0820   22.0880 C   0  0  0  0  0  0  0  0  0  0  0  0
    8.6730   -5.8090   27.7820 C   0  0  0  0  0  0  0  0  0  0  0  0
   10.7760    1.1500   24.2510 C   0  0  0  0  0  0  0  0  0  0  0  0
   12.6410    0.1800   22.9010 C   0  0  0  0  0  0  0  0  0  0  0  0
    4.1840    1.6070   19.2030 C   0  0  0  0  0  0  0  0  0  0  0  0
   11.9850    1.3450   23.6370 C   0  0  0  0  0  0  0  0  0  0  0  0
  1  2  1  0
  1  3  2  0
  1  4  1  0
  4  5  1  0
  4  6  1  0
  7  5  1  6
  6  8  1  0
  6  9  1  6
  7 10  1  0
  7 11  1  0
  8 11  1  0
  9 12  1  0
 10 13  1  6
 11 14  1  0
 10 15  1  0
 12 16  1  0
 13 17  1  0
 15 18  2  0
 15 19  1  0
 17 19  1  0
 14 20  1  0
 16 21  2  0
 16 22  1  0
 17 23  1  6
 17 24  1  0
 18 25  1  0
 19 26  2  0
 20 27  2  0
 20 28  1  0
 22 29  2  0
 21 30  1  0
 28 31  1  0
 25 32  2  0
 26 32  1  0
 27 33  1  0
 28 34  2  0
 29 35  1  0
 30 35  2  0
 33 36  2  0
 34 36  1  0
M  CHG  1  24  -1
M  END
