x0736_0-x0691_0
     RDKit          3D

 17 18  0  0  0  0  0  0  0  0999 V2000
    6.3800   -4.4900   20.6550 C   0  0  0  0  0  0  0  0  0  0  0  0
    7.6540   -3.6800   20.4490 C   0  0  0  0  0  0  0  0  0  0  0  0
    5.4140   -4.3930   19.8830 O   0  0  0  0  0  0  0  0  0  0  0  0
    6.3750   -5.3330   21.7520 N   0  0  0  0  0  0  0  0  0  0  0  0
    5.5150   -6.4690   21.9740 C   0  0  0  0  0  0  0  0  0  0  0  0
    7.0440   -4.9410   22.9940 C   0  0  0  0  0  0  0  0  0  0  0  0
    4.5090   -6.1510   23.1100 C   0  0  0  0  0  0  0  0  0  0  0  0
    6.0790   -4.6120   24.1290 C   0  0  1  0  0  0  0  0  0  0  0  0
    5.3290   -3.3010   23.8200 C   0  0  0  0  0  0  0  0  0  0  0  0
    5.1800   -5.7420   24.3440 N   0  0  0  0  0  0  0  0  0  0  0  0
    5.9110   -2.2460   24.6680 N   0  0  0  0  0  0  0  0  0  0  0  0
    7.3600   -2.4210   24.8010 C   0  0  0  0  0  0  0  0  0  0  0  0
    8.1690   -1.4300   25.6340 C   0  0  0  0  0  0  0  0  0  0  0  0
    8.6240   -0.2490   24.9550 O   0  0  0  0  0  0  0  0  0  0  0  0
    8.5790   -1.4280   26.9600 C   0  0  0  0  0  0  0  0  0  0  0  0
    9.2990    0.4330   25.8920 C   0  0  0  0  0  0  0  0  0  0  0  0
    9.2790   -0.2590   27.0820 C   0  0  0  0  0  0  0  0  0  0  0  0
  1  2  1  0
  1  3  2  0
  1  4  1  0
  4  5  1  0
  4  6  1  0
  5  7  1  0
  6  8  1  0
  8  9  1  6
  7 10  1  0
  8 10  1  0
  9 11  1  0
 11 12  2  3
 12 13  1  0
 13 14  1  0
 13 15  2  0
 14 16  1  0
 15 17  1  0
 16 17  2  0
M  END
