x0731_0-x0874_0-x0107_0
     RDKit          3D

 27 29  0  0  0  0  0  0  0  0999 V2000
    9.4970   -0.6790   22.9370 C   0  0  0  0  0  0  0  0  0  0  0  0
    8.6930   -0.0100   21.8420 C   0  0  0  0  0  0  0  0  0  0  0  0
    9.0620    1.0930   21.4220 O   0  0  0  0  0  0  0  0  0  0  0  0
   10.9610   -0.6770   22.7070 C   0  0  0  0  0  0  0  0  0  0  0  0
    7.5480   -0.6480   21.3540 N   0  0  0  0  0  0  0  0  0  0  0  0
   11.8130    0.3040   23.0040 C   0  0  0  0  0  0  0  0  0  0  0  0
   11.6230   -1.7360   22.1340 C   0  0  0  0  0  0  0  0  0  0  0  0
    7.2750   -2.0660   21.7060 C   0  0  0  0  0  0  0  0  0  0  0  0
    6.7870   -0.1230   20.2310 C   0  0  0  0  0  0  0  0  0  0  0  0
   13.1130    0.0880   22.7030 C   0  0  0  0  0  0  0  0  0  0  0  0
   13.2940   -1.4480   21.9940 S   0  0  0  0  0  0  0  0  0  0  0  0
    6.4630   -2.3240   22.8800 C   0  0  0  0  0  0  0  0  0  0  0  0
    5.5680    0.7030   20.6000 C   0  0  0  0  0  0  0  0  0  0  0  0
    7.0680   -0.2950   18.8840 C   0  0  0  0  0  0  0  0  0  0  0  0
    5.2100    0.9240   22.0380 C   0  0  0  0  0  0  0  0  0  0  0  0
    4.7710    1.2730   19.4080 C   0  0  0  0  0  0  0  0  0  0  0  0
    6.3420    0.2260   17.8680 N   0  0  0  0  0  0  0  0  0  0  0  0
    6.7960   -3.7190   23.5050 C   0  0  1  0  0  0  0  0  0  0  0  0
    5.2550    0.9680   18.1510 C   0  0  0  0  0  0  0  0  0  0  0  0
    5.7040   -4.4050   24.0220 N   0  0  0  0  0  0  0  0  0  0  0  0
    7.5920   -4.4230   22.6410 C   0  0  0  0  0  0  0  0  0  0  0  0
    6.8100   -5.2260   21.7150 N   0  0  0  0  0  0  0  0  0  0  0  0
    5.1450   -5.5820   23.3020 C   0  0  0  0  0  0  0  0  0  0  0  0
    6.3020   -4.7000   20.5210 C   0  0  0  0  0  0  0  0  0  0  0  0
    6.0620   -6.2230   22.4550 C   0  0  0  0  0  0  0  0  0  0  0  0
    5.3090   -5.1780   20.0060 O   0  0  0  0  0  0  0  0  0  0  0  0
    6.9970   -3.5560   19.7950 C   0  0  0  0  0  0  0  0  0  0  0  0
  1  2  1  0
  2  3  2  0
  1  4  1  0
  2  5  1  0
  4  6  1  0
  4  7  2  0
  5  8  1  0
  5  9  1  0
  6 10  2  0
  7 11  1  0
 10 11  1  0
  8 12  1  0
  9 13  2  0
  9 14  1  0
 13 15  1  0
 13 16  1  0
 14 17  2  0
 18 12  1  6
 16 19  2  0
 17 19  1  0
 18 20  1  0
 18 21  1  0
 21 22  1  0
 20 23  1  0
 22 24  1  0
 22 25  1  0
 23 25  1  0
 24 26  2  0
 24 27  1  0
M  END
