x0731_0-x0689_0-x1386_0-x0771_0
     RDKit          3D

 25 27  0  0  0  0  0  0  0  0999 V2000
    6.2500   -4.6710   20.5180 C   0  0  0  0  0  0  0  0  0  0  0  0
    6.8820   -3.5240   19.7460 C   0  0  0  0  0  0  0  0  0  0  0  0
    5.2930   -5.2020   20.0000 O   0  0  0  0  0  0  0  0  0  0  0  0
    6.7820   -5.1200   21.7110 N   0  0  0  0  0  0  0  0  0  0  0  0
    7.3950   -4.2230   22.6690 C   0  0  0  0  0  0  0  0  0  0  0  0
    6.2490   -6.3090   22.3790 C   0  0  0  0  0  0  0  0  0  0  0  0
    6.3750   -3.7850   23.6850 C   0  0  2  0  0  0  0  0  0  0  0  0
    5.2860   -6.0040   23.3270 C   0  0  0  0  0  0  0  0  0  0  0  0
    6.9840   -2.7980   24.6800 C   0  0  0  0  0  0  0  0  0  0  0  0
    5.8070   -5.0450   24.3150 N   0  0  0  0  0  0  0  0  0  0  0  0
    4.9190   -5.0180   25.7880 S   0  0  0  0  0  0  0  0  0  0  0  0
    8.1090   -1.8230   24.1750 C   0  0  0  0  0  0  0  0  0  0  0  0
    4.2650   -6.3020   25.9240 O   0  0  0  0  0  0  0  0  0  0  0  0
    5.8050   -4.5370   26.8190 O   0  0  0  0  0  0  0  0  0  0  0  0
    9.3840   -2.5890   23.7070 C   0  0  0  0  0  0  0  0  0  0  0  0
    3.5890   -3.8510   25.6450 C   0  0  0  0  0  0  0  0  0  0  0  0
    3.9790   -2.1830   26.0000 S   0  0  0  0  0  0  0  0  0  0  0  0
    2.2460   -4.0650   25.2990 C   0  0  0  0  0  0  0  0  0  0  0  0
   10.5620   -1.6160   23.6080 C   0  0  0  0  0  0  0  0  0  0  0  0
    2.3940   -1.6210   25.7300 C   0  0  0  0  0  0  0  0  0  0  0  0
    1.5050   -2.7840   25.3380 C   0  0  0  0  0  0  0  0  0  0  0  0
   11.6280   -1.7470   22.7260 C   0  0  0  0  0  0  0  0  0  0  0  0
   10.8440   -0.3120   24.4050 C   0  0  0  0  0  0  0  0  0  0  0  0
   12.7050   -0.6890   22.7400 C   0  0  0  0  0  0  0  0  0  0  0  0
   12.3760    0.5120   23.8950 S   0  0  0  0  0  0  0  0  0  0  0  0
  1  2  1  0
  1  3  2  0
  1  4  1  0
  4  5  1  0
  4  6  1  0
  5  7  1  0
  6  8  1  0
  7  9  1  1
  7 10  1  0
  8 10  1  0
 10 11  1  0
  9 12  1  0
 11 13  2  0
 11 14  2  0
 12 15  1  0
 11 16  1  0
 16 17  1  0
 16 18  2  0
 15 19  1  0
 17 20  1  0
 18 21  1  0
 20 21  2  0
 19 22  1  0
 19 23  2  0
 22 24  2  0
 23 25  1  0
 24 25  1  0
M  END
