x0736_1-x1418_0-x1334_1
     RDKit          3D

 15 16  0  0  0  0  0  0  0  0999 V2000
    6.3780   -3.4200   20.0170 C   0  0  0  0  0  0  0  0  0  0  0  0
    7.3580   -3.0350   18.9050 C   0  0  0  0  0  0  0  0  0  0  0  0
    5.4410   -4.1750   19.7650 O   0  0  0  0  0  0  0  0  0  0  0  0
    6.5580   -2.9180   21.3000 N   0  0  0  0  0  0  0  0  0  0  0  0
    7.2550   -1.6520   21.4820 C   0  0  0  0  0  0  0  0  0  0  0  0
    6.5490   -3.8250   22.4510 C   0  0  0  0  0  0  0  0  0  0  0  0
    8.6850   -1.8550   22.0160 C   0  0  0  0  0  0  0  0  0  0  0  0
    7.9280   -3.9660   23.1440 C   0  0  0  0  0  0  0  0  0  0  0  0
    8.7900   -2.7590   23.1570 N   0  0  0  0  0  0  0  0  0  0  0  0
   10.1090   -2.7910   23.5400 C   0  0  0  0  0  0  0  0  0  0  0  0
   10.9770   -1.7620   23.4920 C   0  0  0  0  0  0  0  0  0  0  0  0
   12.0760   -1.5190   22.6600 C   0  0  0  0  0  0  0  0  0  0  0  0
   10.8270   -0.4340   24.5820 S   0  0  0  0  0  0  0  0  0  0  0  0
   12.7330   -0.3250   22.9040 C   0  0  0  0  0  0  0  0  0  0  0  0
   12.1860    0.3850   23.9040 C   0  0  0  0  0  0  0  0  0  0  0  0
  1  2  1  0
  1  3  2  0
  1  4  1  0
  4  5  1  0
  4  6  1  0
  5  7  1  0
  6  8  1  0
  7  9  1  0
  8  9  1  0
  9 10  1  0
 10 11  1  0
 11 12  2  0
 11 13  1  0
 12 14  1  0
 13 15  1  0
 14 15  2  0
M  END
