x0736_1-x1334_1-x0874_0-x1412_1-x1412_0
     RDKit          3D

 23 25  0  0  0  0  0  0  0  0999 V2000
    6.3930   -3.3820   19.9190 C   0  0  0  0  0  0  0  0  0  0  0  0
    7.3950   -3.0280   18.8170 C   0  0  0  0  0  0  0  0  0  0  0  0
    5.4350   -4.1510   19.7370 O   0  0  0  0  0  0  0  0  0  0  0  0
    6.5970   -2.8140   21.1570 N   0  0  0  0  0  0  0  0  0  0  0  0
    7.6520   -1.8220   21.3920 C   0  0  0  0  0  0  0  0  0  0  0  0
    6.1620   -3.6080   22.3270 C   0  0  0  0  0  0  0  0  0  0  0  0
    8.7960   -2.4080   22.2340 C   0  0  0  0  0  0  0  0  0  0  0  0
    7.2460   -4.2230   22.9540 C   0  0  0  0  0  0  0  0  0  0  0  0
    8.2170   -3.1890   23.3160 N   0  0  0  0  0  0  0  0  0  0  0  0
    8.4430   -2.8200   24.6130 C   0  0  0  0  0  0  0  0  0  0  0  0
    8.5850   -1.4380   25.0430 N   0  0  0  0  0  0  0  0  0  0  0  0
    8.5740   -3.9300   25.6470 C   0  0  0  0  0  0  0  0  0  0  0  0
    8.5050   -0.4480   24.0990 C   0  0  0  0  0  0  0  0  0  0  0  0
    9.3360   -5.0390   25.4550 C   0  0  0  0  0  0  0  0  0  0  0  0
    7.7410   -3.9310   27.2560 S   0  0  0  0  0  0  0  0  0  0  0  0
    9.7430    0.4450   24.0280 C   0  0  0  0  0  0  0  0  0  0  0  0
    9.3500   -6.0610   26.6160 C   0  0  0  0  0  0  0  0  0  0  0  0
    8.5130   -5.5150   27.6030 C   0  0  0  0  0  0  0  0  0  0  0  0
   10.9980   -0.0570   23.3310 C   0  0  0  0  0  0  0  0  0  0  0  0
   12.1250    0.7020   23.3700 C   0  0  0  0  0  0  0  0  0  0  0  0
   11.2300   -1.2520   22.5970 C   0  0  0  0  0  0  0  0  0  0  0  0
   13.2800    0.0520   22.6280 C   0  0  0  0  0  0  0  0  0  0  0  0
   12.8440   -1.4470   21.9600 S   0  0  0  0  0  0  0  0  0  0  0  0
  1  2  1  0
  1  3  2  0
  1  4  1  0
  4  5  1  0
  4  6  1  0
  5  7  1  0
  6  8  1  0
  7  9  1  0
  8  9  1  0
  9 10  1  0
 10 11  2  3
 10 12  1  0
 11 13  1  0
 12 14  2  0
 12 15  1  0
 13 16  1  0
 14 17  1  0
 15 18  1  0
 17 18  2  0
 16 19  1  0
 19 20  1  0
 19 21  2  0
 20 22  2  0
 21 23  1  0
 22 23  1  0
M  END
