x0731_0-x1412_0
     RDKit          3D

 17 18  0  0  0  0  0  0  0  0999 V2000
    6.2610   -4.6630   20.5280 C   0  0  0  0  0  0  0  0  0  0  0  0
    6.9720   -3.5320   19.8120 C   0  0  0  0  0  0  0  0  0  0  0  0
    5.2790   -5.1360   19.9950 O   0  0  0  0  0  0  0  0  0  0  0  0
    6.7270   -5.2050   21.7010 N   0  0  0  0  0  0  0  0  0  0  0  0
    7.4560   -4.4580   22.7180 C   0  0  0  0  0  0  0  0  0  0  0  0
    6.0590   -6.3530   22.2840 C   0  0  0  0  0  0  0  0  0  0  0  0
    6.7080   -4.1310   23.8500 C   0  0  1  0  0  0  0  0  0  0  0  0
    5.0960   -6.0530   23.4230 C   0  0  0  0  0  0  0  0  0  0  0  0
    6.7490   -2.6290   24.2320 C   0  0  0  0  0  0  0  0  0  0  0  0
    5.3450   -4.6830   23.9090 N   0  0  0  0  0  0  0  0  0  0  0  0
    8.0060   -2.4390   25.0890 C   0  0  0  0  0  0  0  0  0  0  0  0
    8.6090   -1.3770   25.1650 O   0  0  0  0  0  0  0  0  0  0  0  0
    8.4690   -3.6840   25.8570 C   0  0  0  0  0  0  0  0  0  0  0  0
    9.4530   -4.5330   25.4130 C   0  0  0  0  0  0  0  0  0  0  0  0
    7.7040   -4.1500   27.4640 S   0  0  0  0  0  0  0  0  0  0  0  0
    9.5510   -5.6190   26.4580 C   0  0  0  0  0  0  0  0  0  0  0  0
    8.7220   -5.5260   27.5370 C   0  0  0  0  0  0  0  0  0  0  0  0
  1  2  1  0
  1  3  2  0
  1  4  1  0
  4  5  1  0
  4  6  1  0
  5  7  1  0
  6  8  1  0
  7  9  1  6
  7 10  1  0
  8 10  1  0
  9 11  1  0
 11 12  2  0
 11 13  1  0
 13 14  2  0
 13 15  1  0
 14 16  1  0
 15 17  1  0
 16 17  2  0
M  END
