x0736_1-x0831_0
     RDKit          3D

 17 18  0  0  0  0  0  0  0  0999 V2000
    6.3680   -3.4170   20.0060 C   0  0  0  0  0  0  0  0  0  0  0  0
    7.3010   -3.0190   18.8830 C   0  0  0  0  0  0  0  0  0  0  0  0
    5.4120   -4.1700   19.7770 O   0  0  0  0  0  0  0  0  0  0  0  0
    6.6640   -2.9220   21.2960 N   0  0  0  0  0  0  0  0  0  0  0  0
    7.3530   -1.6170   21.3470 C   0  0  0  0  0  0  0  0  0  0  0  0
    6.4740   -3.5780   22.5870 C   0  0  0  0  0  0  0  0  0  0  0  0
    8.5640   -1.7120   21.9920 C   0  0  0  0  0  0  0  0  0  0  0  0
    7.6690   -3.4680   23.3580 C   0  0  0  0  0  0  0  0  0  0  0  0
    8.5240   -2.2540   23.2380 N   0  0  0  0  0  0  0  0  0  0  0  0
    9.8710   -2.4350   23.5650 C   0  0  0  0  0  0  0  0  0  0  0  0
   10.7180   -1.1630   23.5360 C   0  0  0  0  0  0  0  0  0  0  0  0
   10.1180   -0.1350   24.1840 C   0  0  0  0  0  0  0  0  0  0  0  0
   11.9780   -1.0500   22.9050 C   0  0  0  0  0  0  0  0  0  0  0  0
   12.6110   -2.1370   22.2160 C   0  0  0  0  0  0  0  0  0  0  0  0
   10.7130    1.1180   24.2600 C   0  0  0  0  0  0  0  0  0  0  0  0
   12.6430    0.1690   22.9410 C   0  0  0  0  0  0  0  0  0  0  0  0
   12.0700    1.2780   23.5890 C   0  0  0  0  0  0  0  0  0  0  0  0
  1  2  1  0
  1  3  2  0
  1  4  1  0
  4  5  1  0
  4  6  1  0
  5  7  1  0
  6  8  1  0
  7  9  1  0
  8  9  1  0
  9 10  1  0
 10 11  1  0
 11 12  2  0
 11 13  1  0
 13 14  1  0
 12 15  1  0
 13 16  2  0
 15 17  2  0
 16 17  1  0
M  END
