x0734_0-x0831_0-x1402_1
     RDKit          3D

 28 31  0  0  0  0  0  0  0  0999 V2000
    6.2170   -4.4930   20.3750 C   0  0  0  0  0  0  0  0  0  0  0  0
    7.2420   -3.4500   19.8670 C   0  0  0  0  0  0  0  0  0  0  0  0
    5.1160   -4.5720   19.8640 O   0  0  0  0  0  0  0  0  0  0  0  0
    6.5300   -5.3560   21.4340 N   0  0  0  0  0  0  0  0  0  0  0  0
    7.5400   -4.8940   22.3420 C   0  0  0  0  0  0  0  0  0  0  0  0
    5.6040   -6.2940   22.1290 C   0  0  0  0  0  0  0  0  0  0  0  0
    6.8850   -4.0330   23.3700 C   0  0  2  0  0  0  0  0  0  0  0  0
    4.9200   -5.6220   23.1390 C   0  0  0  0  0  0  0  0  0  0  0  0
    8.1220   -3.8630   24.2160 C   0  0  1  0  0  0  0  0  0  0  0  0
    5.7290   -4.7040   24.0070 N   0  0  0  0  0  0  0  0  0  0  0  0
    5.5680   -4.7100   25.4760 C   0  0  2  0  0  0  0  0  0  0  0  0
    8.7620   -2.4450   24.2670 C   0  0  0  0  0  0  0  0  0  0  0  0
    8.0590   -4.5330   25.5230 C   0  0  0  0  0  0  0  0  0  0  0  0
    4.7490   -5.8320   25.7710 O   0  0  0  0  0  0  0  0  0  0  0  0
    4.9540   -3.7570   26.1280 O   0  0  0  0  0  0  0  0  0  0  0  0
   10.2240   -2.4500   23.7330 C   0  0  0  0  0  0  0  0  0  0  0  0
    9.2480   -4.7530   26.1250 C   0  0  0  0  0  0  0  0  0  0  0  0
    6.8720   -4.9500   26.1560 C   0  0  0  0  0  0  0  0  0  0  0  0
    9.3790   -5.3520   27.3170 C   0  0  0  0  0  0  0  0  0  0  0  0
    7.0090   -5.6320   27.5100 C   0  0  0  0  0  0  0  0  0  0  0  0
   10.8650   -1.0720   23.6720 C   0  0  0  0  0  0  0  0  0  0  0  0
    8.3080   -5.8020   28.0350 C   0  0  0  0  0  0  0  0  0  0  0  0
   10.1990    0.0150   24.3120 C   0  0  0  0  0  0  0  0  0  0  0  0
   12.0830   -0.8860   22.9970 C   0  0  0  0  0  0  0  0  0  0  0  0
   12.7860   -2.0140   22.3120 C   0  0  0  0  0  0  0  0  0  0  0  0
   10.8220    1.2500   24.2200 C   0  0  0  0  0  0  0  0  0  0  0  0
   12.6620    0.3570   22.9450 C   0  0  0  0  0  0  0  0  0  0  0  0
   12.0360    1.4170   23.5480 C   0  0  0  0  0  0  0  0  0  0  0  0
  1  2  1  0
  1  3  2  0
  1  4  1  0
  4  5  1  0
  4  6  1  0
  7  5  1  6
  6  8  1  0
  7  9  1  0
  7 10  1  0
  8 10  1  0
 10 11  1  0
  9 12  1  1
  9 13  1  0
 11 14  1  6
 11 15  1  0
 12 16  1  0
 13 17  1  0
 11 18  1  0
 13 18  2  0
 17 19  2  0
 18 20  1  0
 16 21  1  0
 19 22  1  0
 20 22  2  0
 21 23  2  0
 21 24  1  0
 24 25  1  0
 23 26  1  0
 24 27  2  0
 26 28  2  0
 27 28  1  0
M  CHG  1  15  -1
M  END
