x0731_0-x0769_1-x1334_0
     RDKit          3D

 27 29  0  0  0  0  0  0  0  0999 V2000
    6.3390   -4.5970   20.5080 C   0  0  0  0  0  0  0  0  0  0  0  0
    7.0890   -3.4960   19.7570 C   0  0  0  0  0  0  0  0  0  0  0  0
    5.3210   -5.0400   20.0050 O   0  0  0  0  0  0  0  0  0  0  0  0
    6.8160   -5.1530   21.6950 N   0  0  0  0  0  0  0  0  0  0  0  0
    7.3780   -4.3600   22.7870 C   0  0  0  0  0  0  0  0  0  0  0  0
    6.0990   -6.3410   22.1480 C   0  0  0  0  0  0  0  0  0  0  0  0
    6.3230   -4.0730   23.8770 C   0  0  0  0  0  0  0  0  0  0  0  0
    5.0730   -6.0460   23.2340 C   0  0  0  0  0  0  0  0  0  0  0  0
    5.6280   -5.2820   24.3770 N   0  0  0  0  0  0  0  0  0  0  0  0
    4.8290   -5.2820   25.7180 S   0  0  2  0  0  0  0  0  0  0  0  0
    5.8720   -4.9530   26.7880 N   0  0  0  0  0  0  0  0  0  0  0  0
    4.0400   -6.4140   26.1510 O   0  0  0  0  0  0  0  0  0  0  0  0
    3.7270   -3.8750   25.7840 C   0  0  0  0  0  0  0  0  0  0  0  0
    6.1510   -5.8480   27.8400 C   0  0  0  0  0  0  0  0  0  0  0  0
    2.2210   -4.0170   25.6460 C   0  0  0  0  0  0  0  0  0  0  0  0
    4.2510   -2.6060   25.9800 C   0  0  0  0  0  0  0  0  0  0  0  0
    5.5680   -2.3990   26.1140 F   0  0  0  0  0  0  0  0  0  0  0  0
    7.6070   -5.8080   28.2650 C   0  0  0  0  0  0  0  0  0  0  0  0
    1.4060   -2.8950   25.7200 C   0  0  0  0  0  0  0  0  0  0  0  0
    3.3990   -1.5010   26.0480 C   0  0  0  0  0  0  0  0  0  0  0  0
    2.0010   -1.6530   25.9210 C   0  0  0  0  0  0  0  0  0  0  0  0
    8.4170   -5.3640   27.0940 C   0  0  0  0  0  0  0  0  0  0  0  0
    9.3910   -6.0440   26.3820 C   0  0  0  0  0  0  0  0  0  0  0  0
    8.1880   -3.8030   26.4170 S   0  0  0  0  0  0  0  0  0  0  0  0
    9.4170   -4.0630   25.1560 C   0  0  0  0  0  0  0  0  0  0  0  0
    9.9410   -5.3690   25.3340 C   0  0  0  0  0  0  0  0  0  0  0  0
    9.7480   -3.0180   24.1450 C   0  0  0  0  0  0  0  0  0  0  0  0
  1  2  1  0
  1  3  2  0
  1  4  1  0
  4  5  1  0
  4  6  1  0
  5  7  1  0
  6  8  1  0
  7  9  1  0
  8  9  1  0
  9 10  1  0
 10 11  2  0
 10 12  2  0
 10 13  1  6
 11 14  1  0
 13 15  2  0
 13 16  1  0
 16 17  1  0
 14 18  1  0
 15 19  1  0
 16 20  2  0
 19 21  2  0
 20 21  1  0
 18 22  1  0
 22 23  2  0
 22 24  1  0
 24 25  1  0
 23 26  1  0
 25 26  2  0
 25 27  1  0
M  END
