x0731_0-x0831_0
     RDKit          3D

 19 20  0  0  0  0  0  0  0  0999 V2000
    6.2600   -4.7160   20.5310 C   0  0  0  0  0  0  0  0  0  0  0  0
    6.9200   -3.5650   19.7800 C   0  0  0  0  0  0  0  0  0  0  0  0
    5.3140   -5.2750   20.0110 O   0  0  0  0  0  0  0  0  0  0  0  0
    6.7610   -5.1870   21.7410 N   0  0  0  0  0  0  0  0  0  0  0  0
    7.5180   -4.2450   22.5220 C   0  0  0  0  0  0  0  0  0  0  0  0
    6.1940   -6.2470   22.4030 C   0  0  0  0  0  0  0  0  0  0  0  0
    6.7690   -3.6890   23.5190 C   0  0  2  0  0  0  0  0  0  0  0  0
    5.4430   -5.7380   23.4730 C   0  0  0  0  0  0  0  0  0  0  0  0
    7.5900   -2.6530   24.3210 C   0  0  0  0  0  0  0  0  0  0  0  0
    6.1770   -4.7710   24.3320 N   0  0  0  0  0  0  0  0  0  0  0  0
    9.1410   -2.6900   24.2150 C   0  0  0  0  0  0  0  0  0  0  0  0
    9.8160   -2.1940   22.9390 C   0  0  0  0  0  0  0  0  0  0  0  0
   10.5990   -1.0430   23.1820 C   0  0  0  0  0  0  0  0  0  0  0  0
   10.0810    0.0430   23.9020 C   0  0  0  0  0  0  0  0  0  0  0  0
   11.9140   -0.9600   22.6980 C   0  0  0  0  0  0  0  0  0  0  0  0
   12.5620   -2.0650   21.9200 C   0  0  0  0  0  0  0  0  0  0  0  0
   10.8520    1.1870   24.1170 C   0  0  0  0  0  0  0  0  0  0  0  0
   12.6790    0.1810   22.9190 C   0  0  0  0  0  0  0  0  0  0  0  0
   12.1490    1.2450   23.6160 C   0  0  0  0  0  0  0  0  0  0  0  0
  1  2  1  0
  1  3  2  0
  1  4  1  0
  4  5  1  0
  4  6  1  0
  5  7  1  0
  6  8  1  0
  7  9  1  1
  7 10  1  0
  8 10  1  0
  9 11  1  0
 11 12  1  0
 12 13  1  0
 13 14  2  0
 13 15  1  0
 15 16  1  0
 14 17  1  0
 15 18  2  0
 17 19  2  0
 18 19  1  0
M  END
