x0736_1-x0770_1-x1385_1-x1412_0-x1386_0-x0434_2-x1412_1-x1334_1
     RDKit          3D

 29 32  0  0  0  0  0  0  0  0999 V2000
    6.3730   -3.4030   19.9620 C   0  0  0  0  0  0  0  0  0  0  0  0
    7.3770   -3.0120   18.8770 C   0  0  0  0  0  0  0  0  0  0  0  0
    5.4010   -4.1180   19.7140 O   0  0  0  0  0  0  0  0  0  0  0  0
    6.5700   -2.9780   21.2730 N   0  0  0  0  0  0  0  0  0  0  0  0
    7.3220   -1.8070   21.7610 C   0  0  2  0  0  0  0  0  0  0  0  0
    6.2810   -3.9850   22.3140 C   0  0  0  0  0  0  0  0  0  0  0  0
    7.6840   -0.8040   20.7240 N   0  0  0  0  0  0  0  0  0  0  0  0
    8.5270   -2.3250   22.5200 C   0  0  0  0  0  0  0  0  0  0  0  0
    7.4400   -4.1750   23.3390 C   0  0  0  0  0  0  0  0  0  0  0  0
    8.0900   -2.8970   23.6520 N   0  0  0  0  0  0  0  0  0  0  0  0
    6.7470   -0.0720   19.9930 C   0  0  0  0  0  0  0  0  0  0  0  0
    9.0090   -2.7940   24.6330 C   0  0  2  0  0  0  0  0  0  0  0  0
    7.0200    0.0600   18.5500 C   0  0  0  0  0  0  0  0  0  0  0  0
    5.5870    0.5540   20.4520 C   0  0  0  0  0  0  0  0  0  0  0  0
    8.7790   -1.5730   25.3430 O   0  0  0  0  0  0  0  0  0  0  0  0
   10.4690   -2.8490   24.1770 C   0  0  0  0  0  0  0  0  0  0  0  0
    8.8700   -3.7640   25.5300 C   0  0  0  0  0  0  0  0  0  0  0  0
    6.2800    0.7170   17.6490 N   0  0  0  0  0  0  0  0  0  0  0  0
    4.6470    1.3540   19.4670 C   0  0  0  0  0  0  0  0  0  0  0  0
    9.6550   -5.0640   25.5200 C   0  0  0  0  0  0  0  0  0  0  0  0
    7.8100   -3.8510   26.9410 S   0  0  0  0  0  0  0  0  0  0  0  0
   11.2350   -1.5730   23.8470 C   0  0  0  0  0  0  0  0  0  0  0  0
    5.1630    1.3370   18.0530 C   0  0  0  0  0  0  0  0  0  0  0  0
    9.3070   -5.9680   26.6530 C   0  0  0  0  0  0  0  0  0  0  0  0
    8.3250   -5.4190   27.4900 C   0  0  0  0  0  0  0  0  0  0  0  0
   12.2930   -1.5460   22.9430 C   0  0  0  0  0  0  0  0  0  0  0  0
   11.0170   -0.2940   24.3700 C   0  0  0  0  0  0  0  0  0  0  0  0
   12.9160   -0.1560   22.7740 C   0  0  0  0  0  0  0  0  0  0  0  0
   12.0650    0.9110   23.7770 S   0  0  0  0  0  0  0  0  0  0  0  0
  1  2  1  0
  1  3  2  0
  1  4  1  0
  4  5  1  0
  4  6  1  0
  5  7  1  6
  5  8  1  0
  6  9  1  0
  8 10  1  0
  9 10  1  0
  7 11  1  0
 10 12  1  0
 11 13  2  0
 11 14  1  0
 12 15  1  1
 12 16  1  0
 12 17  1  0
 13 18  1  0
 14 19  2  0
 17 20  2  0
 17 21  1  0
 16 22  1  0
 18 23  2  0
 19 23  1  0
 20 24  1  0
 21 25  1  0
 24 25  2  0
 22 26  1  0
 22 27  2  0
 26 28  2  0
 27 29  1  0
 28 29  1  0
M  END
