x0736_1-x1374_1
     RDKit          3D

 17 18  0  0  0  0  0  0  0  0999 V2000
    6.4780   -3.3210   19.9350 C   0  0  0  0  0  0  0  0  0  0  0  0
    7.4210   -3.0010   18.8020 C   0  0  0  0  0  0  0  0  0  0  0  0
    5.4700   -4.0090   19.7030 O   0  0  0  0  0  0  0  0  0  0  0  0
    6.8090   -2.8700   21.2200 N   0  0  0  0  0  0  0  0  0  0  0  0
    7.6700   -1.7950   21.2990 C   0  0  0  0  0  0  0  0  0  0  0  0
    6.4140   -3.5360   22.3930 C   0  0  2  0  0  0  0  0  0  0  0  0
    8.7670   -2.0090   22.3580 C   0  0  0  0  0  0  0  0  0  0  0  0
    7.4310   -3.6530   23.5200 C   0  0  0  0  0  0  0  0  0  0  0  0
    5.8790   -4.8140   22.0740 C   0  0  0  0  0  0  0  0  0  0  0  0
    8.2610   -2.4530   23.6730 N   0  0  0  0  0  0  0  0  0  0  0  0
    4.7600   -5.0920   22.8240 C   0  0  2  0  0  0  0  0  0  0  0  0
    4.6670   -4.6140   24.2530 C   0  0  0  0  0  0  0  0  0  0  0  0
    4.6010   -6.6180   22.8980 C   0  0  0  0  0  0  0  0  0  0  0  0
    4.0810   -5.4780   25.1190 C   0  0  0  0  0  0  0  0  0  0  0  0
    3.6380   -6.8510   24.2940 S   0  0  0  0  0  0  0  0  0  0  0  0
    2.2650   -6.7200   23.8710 O   0  0  0  0  0  0  0  0  0  0  0  0
    4.0470   -8.0340   25.0090 O   0  0  0  0  0  0  0  0  0  0  0  0
  1  2  1  0
  1  3  2  0
  1  4  1  0
  4  5  1  0
  4  6  1  0
  5  7  1  0
  6  8  1  0
  6  9  1  6
  7 10  1  0
  8 10  1  0
 11  9  1  1
 11 12  1  0
 11 13  1  0
 12 14  2  0
 13 15  1  0
 14 15  1  0
 15 16  1  0
 15 17  1  0
M  END
