x0734_0-x0831_0-x1385_1-x0540_3
     RDKit          3D

 34 37  0  0  0  0  0  0  0  0999 V2000
    6.2980   -3.1640   19.8690 C   0  0  0  0  0  0  0  0  0  0  0  0
    7.2930   -2.9650   18.7460 C   0  0  0  0  0  0  0  0  0  0  0  0
    5.4180   -4.0280   19.7050 O   0  0  0  0  0  0  0  0  0  0  0  0
    6.4220   -2.4080   21.0460 N   0  0  0  0  0  0  0  0  0  0  0  0
    6.2210   -2.9520   22.3760 C   0  0  0  0  0  0  0  0  0  0  0  0
    7.3690   -1.2930   21.1030 C   0  0  1  0  0  0  0  0  0  0  0  0
    6.7740   -0.0750   21.8640 C   0  0  0  0  0  0  0  0  0  0  0  0
    7.5450   -3.4960   22.8340 C   0  0  2  0  0  0  0  0  0  0  0  0
    8.7000   -1.7380   21.7350 C   0  0  0  0  0  0  0  0  0  0  0  0
    5.2560    0.1540   21.7470 C   0  0  0  0  0  0  0  0  0  0  0  0
    7.0990   -4.5950   23.8690 C   0  0  2  0  0  0  0  0  0  0  0  0
    8.4380   -2.3150   23.0860 N   0  0  0  0  0  0  0  0  0  0  0  0
    4.8880    1.6410   21.6070 C   0  0  0  0  0  0  0  0  0  0  0  0
    5.6500   -4.4100   24.3970 C   0  0  0  0  0  0  0  0  0  0  0  0
    9.8020   -2.4330   23.6160 C   0  0  0  0  0  0  0  0  0  0  0  0
    7.7630   -4.7420   25.2110 C   0  0  0  0  0  0  0  0  0  0  0  0
    4.3520    2.2680   22.8480 N   0  0  0  0  0  0  0  0  0  0  0  0
    5.5240   -4.8240   25.7780 C   0  0  2  0  0  0  0  0  0  0  0  0
    9.1450   -4.7450   25.3930 C   0  0  0  0  0  0  0  0  0  0  0  0
    6.9260   -4.8990   26.3090 C   0  0  0  0  0  0  0  0  0  0  0  0
   10.6310   -1.1310   23.5650 C   0  0  0  0  0  0  0  0  0  0  0  0
    3.0070    1.9690   23.1630 C   0  0  0  0  0  0  0  0  0  0  0  0
    4.8420   -6.0400   25.8380 O   0  0  0  0  0  0  0  0  0  0  0  0
    4.7700   -4.0120   26.4810 O   0  0  0  0  0  0  0  0  0  0  0  0
    9.6070   -4.9250   26.6870 C   0  0  0  0  0  0  0  0  0  0  0  0
    7.4140   -5.0790   27.5990 C   0  0  0  0  0  0  0  0  0  0  0  0
   10.1060    0.0650   24.0540 C   0  0  0  0  0  0  0  0  0  0  0  0
   11.9480   -1.0260   23.0350 C   0  0  0  0  0  0  0  0  0  0  0  0
    2.8910    1.3370   24.2060 O   0  0  0  0  0  0  0  0  0  0  0  0
   12.7030   -2.1730   22.4430 C   0  0  0  0  0  0  0  0  0  0  0  0
    8.7930   -5.0970   27.8020 C   0  0  0  0  0  0  0  0  0  0  0  0
   10.8200    1.3790   24.0530 C   0  0  0  0  0  0  0  0  0  0  0  0
   12.6090    0.2100   23.0420 C   0  0  0  0  0  0  0  0  0  0  0  0
   12.1000    1.4200   23.5300 C   0  0  0  0  0  0  0  0  0  0  0  0
  1  2  1  0
  1  3  2  0
  1  4  1  0
  4  5  1  0
  4  6  1  0
  6  7  1  1
  8  5  1  1
  6  9  1  0
  7 10  1  0
  8 11  1  0
  8 12  1  0
  9 12  1  0
 10 13  1  0
 11 14  1  1
 12 15  1  0
 11 16  1  0
 13 17  1  0
 14 18  1  0
 16 19  2  0
 16 20  1  0
 18 20  1  0
 15 21  1  0
 17 22  1  0
 18 23  1  6
 18 24  1  0
 19 25  1  0
 20 26  2  0
 21 27  2  0
 21 28  1  0
 22 29  2  0
 28 30  1  0
 25 31  2  0
 26 31  1  0
 27 32  1  0
 28 33  2  0
 32 34  2  0
 33 34  1  0
M  CHG  1  24  -1
M  END
