x0734_0-x0831_0-x0692_1
     RDKit          3D

 28 31  0  0  0  0  0  0  0  0999 V2000
    6.2910   -3.4130   20.0860 C   0  0  0  0  0  0  0  0  0  0  0  0
    7.2180   -3.0140   18.9290 C   0  0  0  0  0  0  0  0  0  0  0  0
    5.4080   -4.2470   19.8160 O   0  0  0  0  0  0  0  0  0  0  0  0
    6.4720   -2.8470   21.3750 N   0  0  0  0  0  0  0  0  0  0  0  0
    7.0700   -1.4760   21.4680 C   0  0  0  0  0  0  0  0  0  0  0  0
    6.8810   -3.7460   22.5280 C   0  0  2  0  0  0  0  0  0  0  0  0
    6.3870   -3.6070   24.0080 C   0  0  1  0  0  0  0  0  0  0  0  0
    8.5600   -1.4110   21.9730 C   0  0  0  0  0  0  0  0  0  0  0  0
    8.3910   -3.6310   22.5740 C   0  0  0  0  0  0  0  0  0  0  0  0
    5.0380   -4.3180   24.2850 C   0  0  0  0  0  0  0  0  0  0  0  0
    8.7740   -2.3120   23.1150 N   0  0  0  0  0  0  0  0  0  0  0  0
    7.2860   -4.3350   25.0480 C   0  0  0  0  0  0  0  0  0  0  0  0
    5.0500   -4.6620   25.7950 C   0  0  2  0  0  0  0  0  0  0  0  0
   10.1610   -2.3550   23.5970 C   0  0  0  0  0  0  0  0  0  0  0  0
    8.6850   -4.4720   25.1010 C   0  0  0  0  0  0  0  0  0  0  0  0
    6.5020   -4.9150   26.0590 C   0  0  0  0  0  0  0  0  0  0  0  0
    4.2940   -5.8170   26.0240 O   0  0  0  0  0  0  0  0  0  0  0  0
    4.5060   -3.7480   26.5550 O   0  0  0  0  0  0  0  0  0  0  0  0
    9.2730   -5.1740   26.1630 C   0  0  0  0  0  0  0  0  0  0  0  0
    7.0910   -5.6080   27.1180 C   0  0  0  0  0  0  0  0  0  0  0  0
   10.8800   -1.0280   23.5530 C   0  0  0  0  0  0  0  0  0  0  0  0
    8.4810   -5.7350   27.1700 C   0  0  0  0  0  0  0  0  0  0  0  0
   10.2880    0.0800   24.1760 C   0  0  0  0  0  0  0  0  0  0  0  0
   12.1200   -0.8700   22.9030 C   0  0  0  0  0  0  0  0  0  0  0  0
   12.8070   -2.0050   22.2080 C   0  0  0  0  0  0  0  0  0  0  0  0
   10.9140    1.3160   24.1480 C   0  0  0  0  0  0  0  0  0  0  0  0
   12.7350    0.3810   22.8950 C   0  0  0  0  0  0  0  0  0  0  0  0
   12.1370    1.4660   23.5090 C   0  0  0  0  0  0  0  0  0  0  0  0
  1  2  1  0
  1  3  2  0
  1  4  1  0
  4  5  1  0
  4  6  1  0
  6  7  1  0
  5  8  1  0
  6  9  1  1
  7 10  1  6
  8 11  1  0
  9 11  1  0
  7 12  1  0
 10 13  1  0
 11 14  1  0
 12 15  2  0
 12 16  1  0
 13 16  1  0
 13 17  1  6
 13 18  1  0
 15 19  1  0
 16 20  2  0
 14 21  1  0
 19 22  2  0
 20 22  1  0
 21 23  2  0
 21 24  1  0
 24 25  1  0
 23 26  1  0
 24 27  2  0
 26 28  2  0
 27 28  1  0
M  CHG  1  18  -1
M  END
