x0731_0-x0434_2
     RDKit          3D

 18 19  0  0  0  0  0  0  0  0999 V2000
    6.2710   -4.6750   20.5160 C   0  0  0  0  0  0  0  0  0  0  0  0
    6.9170   -3.5260   19.7550 C   0  0  0  0  0  0  0  0  0  0  0  0
    5.3350   -5.2720   20.0140 O   0  0  0  0  0  0  0  0  0  0  0  0
    6.7840   -5.0680   21.7490 N   0  0  0  0  0  0  0  0  0  0  0  0
    7.4730   -4.1540   22.6610 C   0  0  0  0  0  0  0  0  0  0  0  0
    6.2560   -6.1100   22.2810 C   0  0  0  0  0  0  0  0  0  0  0  0
    6.6630   -3.6910   23.6860 C   0  0  1  0  0  0  0  0  0  0  0  0
    5.3040   -5.7910   23.2490 C   0  0  0  0  0  0  0  0  0  0  0  0
    6.0370   -2.3250   23.3410 C   0  0  0  0  0  0  0  0  0  0  0  0
    5.7280   -4.7220   24.1830 N   0  0  0  0  0  0  0  0  0  0  0  0
    5.7300   -1.9670   21.8630 C   0  0  0  0  0  0  0  0  0  0  0  0
    6.7650   -1.0860   21.2340 N   0  0  0  0  0  0  0  0  0  0  0  0
    6.2220   -0.2780   20.2960 C   0  0  0  0  0  0  0  0  0  0  0  0
    6.8930   -0.2600   18.9370 C   0  0  0  0  0  0  0  0  0  0  0  0
    4.9880    0.6150   20.4970 C   0  0  0  0  0  0  0  0  0  0  0  0
    6.4690    0.5320   17.8030 N   0  0  0  0  0  0  0  0  0  0  0  0
    4.6170    1.4160   19.2310 C   0  0  0  0  0  0  0  0  0  0  0  0
    5.2900    1.3810   18.0020 C   0  0  0  0  0  0  0  0  0  0  0  0
  1  2  1  0
  1  3  2  0
  1  4  1  0
  4  5  1  0
  4  6  1  0
  5  7  1  0
  6  8  1  0
  7  9  1  6
  7 10  1  0
  8 10  1  0
  9 11  1  0
 11 12  1  0
 12 13  1  0
 13 14  2  0
 13 15  1  0
 14 16  1  0
 15 17  2  0
 16 18  2  0
 17 18  1  0
M  END
