x0736_1-x0434_2-x1386_0-x1412_0-x0692_1
     RDKit          3D

 29 32  0  0  0  0  0  0  0  0999 V2000
    6.3650   -3.4130   19.9210 C   0  0  0  0  0  0  0  0  0  0  0  0
    7.3810   -3.0760   18.8350 C   0  0  0  0  0  0  0  0  0  0  0  0
    5.3870   -4.1260   19.7000 O   0  0  0  0  0  0  0  0  0  0  0  0
    6.5710   -2.9360   21.1880 N   0  0  0  0  0  0  0  0  0  0  0  0
    7.6070   -1.9010   21.3000 C   0  0  1  0  0  0  0  0  0  0  0  0
    6.2880   -3.7790   22.3460 C   0  0  0  0  0  0  0  0  0  0  0  0
    6.9170   -0.6060   21.4340 N   0  0  0  0  0  0  0  0  0  0  0  0
    8.5220   -2.0910   22.5140 C   0  0  0  0  0  0  0  0  0  0  0  0
    7.4760   -3.9640   23.2410 C   0  0  0  0  0  0  0  0  0  0  0  0
    7.9390   -2.6250   23.6080 N   0  0  0  0  0  0  0  0  0  0  0  0
    6.4140    0.0040   20.2760 C   0  0  0  0  0  0  0  0  0  0  0  0
    8.9260   -2.6190   24.6790 C   0  0  2  0  0  0  0  0  0  0  0  0
    7.0170   -0.1050   18.8770 C   0  0  0  0  0  0  0  0  0  0  0  0
    5.1490    0.8720   20.3440 C   0  0  0  0  0  0  0  0  0  0  0  0
    8.7870   -1.3700   25.2920 O   0  0  0  0  0  0  0  0  0  0  0  0
   10.4060   -2.7860   24.1880 C   0  0  0  0  0  0  0  0  0  0  0  0
    8.7840   -3.7370   25.6840 C   0  0  0  0  0  0  0  0  0  0  0  0
    6.4230    0.5800   17.7590 N   0  0  0  0  0  0  0  0  0  0  0  0
    4.6570    1.4830   19.1960 C   0  0  0  0  0  0  0  0  0  0  0  0
    9.6480   -5.0040   25.5320 C   0  0  0  0  0  0  0  0  0  0  0  0
    7.7380   -3.8150   27.0730 S   0  0  0  0  0  0  0  0  0  0  0  0
    5.2010    1.3910   17.9650 C   0  0  0  0  0  0  0  0  0  0  0  0
   11.1820   -1.5320   23.8700 C   0  0  0  0  0  0  0  0  0  0  0  0
    9.3740   -5.9930   26.6250 C   0  0  0  0  0  0  0  0  0  0  0  0
    8.3850   -5.5670   27.5750 C   0  0  0  0  0  0  0  0  0  0  0  0
   12.1930   -1.5500   22.9550 C   0  0  0  0  0  0  0  0  0  0  0  0
   11.0330   -0.2540   24.3970 C   0  0  0  0  0  0  0  0  0  0  0  0
   12.8630   -0.2490   22.7520 C   0  0  0  0  0  0  0  0  0  0  0  0
   12.1420    0.9020   23.7450 S   0  0  0  0  0  0  0  0  0  0  0  0
  1  2  1  0
  1  3  2  0
  1  4  1  0
  4  5  1  0
  4  6  1  0
  5  7  1  1
  5  8  1  0
  6  9  1  0
  8 10  1  0
  9 10  1  0
  7 11  1  0
 10 12  1  0
 11 13  2  0
 11 14  1  0
 12 15  1  1
 12 16  1  0
 12 17  1  0
 13 18  1  0
 14 19  2  0
 17 20  2  0
 17 21  1  0
 18 22  2  0
 19 22  1  0
 16 23  1  0
 20 24  1  0
 21 25  1  0
 24 25  2  0
 23 26  1  0
 23 27  2  0
 26 28  2  0
 27 29  1  0
 28 29  1  0
M  END
