x0736_1-x1334_1-x0874_0-x0387_0-x1412_0
     RDKit          3D

 22 24  0  0  0  0  0  0  0  0999 V2000
    6.4400   -3.3990   19.9910 C   0  0  0  0  0  0  0  0  0  0  0  0
    7.4030   -3.0330   18.8690 C   0  0  0  0  0  0  0  0  0  0  0  0
    5.4670   -4.1320   19.7560 O   0  0  0  0  0  0  0  0  0  0  0  0
    6.7100   -2.9080   21.2640 N   0  0  0  0  0  0  0  0  0  0  0  0
    7.5880   -1.7540   21.4680 C   0  0  0  0  0  0  0  0  0  0  0  0
    6.3470   -3.4790   22.3870 C   0  0  0  0  0  0  0  0  0  0  0  0
    8.8620   -2.0900   22.2380 C   0  0  0  0  0  0  0  0  0  0  0  0
    7.5580   -4.0470   23.1000 C   0  0  0  0  0  0  0  0  0  0  0  0
    8.6410   -3.0540   23.3390 N   0  0  0  0  0  0  0  0  0  0  0  0
    8.6790   -2.4920   24.6010 C   0  0  2  0  0  0  0  0  0  0  0  0
    7.8920   -1.5910   24.8670 O   0  0  0  0  0  0  0  0  0  0  0  0
    9.9710   -1.6680   24.8730 C   0  0  0  0  0  0  0  0  0  0  0  0
    8.7590   -3.6710   25.5680 C   0  0  0  0  0  0  0  0  0  0  0  0
    9.6660   -4.7430   25.3400 C   0  0  0  0  0  0  0  0  0  0  0  0
    7.8200   -3.9120   27.0120 S   0  0  0  0  0  0  0  0  0  0  0  0
   11.1190   -1.4330   23.8860 C   0  0  0  0  0  0  0  0  0  0  0  0
    9.5060   -5.7630   26.4600 C   0  0  0  0  0  0  0  0  0  0  0  0
    8.5520   -5.3900   27.3820 C   0  0  0  0  0  0  0  0  0  0  0  0
   11.9120   -0.2360   23.9850 C   0  0  0  0  0  0  0  0  0  0  0  0
   11.6000   -2.2030   22.8340 C   0  0  0  0  0  0  0  0  0  0  0  0
   12.9350   -0.1250   23.0580 C   0  0  0  0  0  0  0  0  0  0  0  0
   12.9530   -1.4880   22.0330 S   0  0  0  0  0  0  0  0  0  0  0  0
  1  2  1  0
  1  3  2  0
  1  4  1  0
  4  5  1  0
  4  6  1  0
  5  7  1  0
  6  8  1  0
  7  9  1  0
  8  9  1  0
  9 10  1  0
 10 11  1  1
 10 12  1  0
 10 13  1  0
 13 14  2  0
 13 15  1  0
 12 16  1  0
 14 17  1  0
 15 18  1  0
 17 18  2  0
 16 19  1  0
 16 20  2  0
 19 21  2  0
 20 22  1  0
 21 22  1  0
M  END
