x0736_1-x1412_0-x1386_1-x0831_1-x0434_2-x1334_1-x0874_0
     RDKit          3D

 30 33  0  0  0  0  0  0  0  0999 V2000
    6.3650   -3.3280   19.9170 C   0  0  0  0  0  0  0  0  0  0  0  0
    7.4070   -2.9920   18.8410 C   0  0  0  0  0  0  0  0  0  0  0  0
    5.4140   -4.0780   19.6920 O   0  0  0  0  0  0  0  0  0  0  0  0
    6.4690   -2.8220   21.2100 N   0  0  0  0  0  0  0  0  0  0  0  0
    7.4400   -1.8150   21.7100 C   0  0  2  0  0  0  0  0  0  0  0  0
    6.0670   -3.7970   22.2170 C   0  0  0  0  0  0  0  0  0  0  0  0
    7.8300   -0.7730   20.7300 N   0  0  0  0  0  0  0  0  0  0  0  0
    8.6470   -2.5200   22.3360 C   0  0  0  0  0  0  0  0  0  0  0  0
    7.2670   -4.4030   22.9870 C   0  0  0  0  0  0  0  0  0  0  0  0
    8.2470   -3.4300   23.4130 N   0  0  0  0  0  0  0  0  0  0  0  0
    6.9210   -0.0980   19.9630 C   0  0  0  0  0  0  0  0  0  0  0  0
    8.4170   -3.0680   24.7250 C   0  0  0  0  0  0  0  0  0  0  0  0
    7.0390   -0.0070   18.5760 C   0  0  0  0  0  0  0  0  0  0  0  0
    5.8000    0.5660   20.5150 C   0  0  0  0  0  0  0  0  0  0  0  0
    8.6220   -1.7770   25.0800 N   0  0  0  0  0  0  0  0  0  0  0  0
    8.4650   -4.0730   25.8410 C   0  0  0  0  0  0  0  0  0  0  0  0
    6.1940    0.6710   17.6250 N   0  0  0  0  0  0  0  0  0  0  0  0
    4.9080    1.2600   19.7000 C   0  0  0  0  0  0  0  0  0  0  0  0
    8.7700   -0.6010   24.2750 C   0  0  0  0  0  0  0  0  0  0  0  0
    9.3370   -5.2850   25.6200 C   0  0  0  0  0  0  0  0  0  0  0  0
    7.6810   -4.0910   27.4160 S   0  0  0  0  0  0  0  0  0  0  0  0
    5.0580    1.3570   18.2010 C   0  0  0  0  0  0  0  0  0  0  0  0
   10.1830   -0.2580   24.6200 C   0  0  0  0  0  0  0  0  0  0  0  0
    9.3470   -6.1050   26.6120 C   0  0  0  0  0  0  0  0  0  0  0  0
    8.4830   -5.6470   27.7520 C   0  0  0  0  0  0  0  0  0  0  0  0
   11.2930   -0.5170   23.5980 C   0  0  0  0  0  0  0  0  0  0  0  0
   12.4680    0.4670   23.4720 C   0  0  0  0  0  0  0  0  0  0  0  0
   11.4550   -1.6860   22.6250 C   0  0  0  0  0  0  0  0  0  0  0  0
   13.3790    0.0000   22.5070 C   0  0  0  0  0  0  0  0  0  0  0  0
   12.9750   -1.4330   21.7740 S   0  0  0  0  0  0  0  0  0  0  0  0
  1  2  1  0
  1  3  2  0
  1  4  1  0
  4  5  1  0
  4  6  1  0
  5  7  1  6
  5  8  1  0
  6  9  1  0
  8 10  1  0
  9 10  1  0
  7 11  1  0
 10 12  1  0
 11 13  2  0
 11 14  1  0
 12 15  2  3
 12 16  1  0
 13 17  1  0
 14 18  2  0
 15 19  1  0
 16 20  2  0
 16 21  1  0
 17 22  2  0
 18 22  1  0
 19 23  1  0
 20 24  1  0
 21 25  1  0
 24 25  2  0
 23 26  1  0
 26 27  1  0
 26 28  2  0
 27 29  2  0
 28 30  1  0
 29 30  1  0
M  END
