x0731_0-x0995_0
     RDKit          3D

 21 22  0  0  0  0  0  0  0  0999 V2000
    6.3080   -4.7660   20.5330 C   0  0  0  0  0  0  0  0  0  0  0  0
    6.9240   -3.5640   19.8380 C   0  0  0  0  0  0  0  0  0  0  0  0
    5.3750   -5.3420   20.0140 O   0  0  0  0  0  0  0  0  0  0  0  0
    6.8320   -5.2570   21.7310 N   0  0  0  0  0  0  0  0  0  0  0  0
    7.5510   -4.3770   22.6520 C   0  0  0  0  0  0  0  0  0  0  0  0
    6.2110   -6.3970   22.3860 C   0  0  0  0  0  0  0  0  0  0  0  0
    6.6580   -3.8650   23.7920 C   0  0  2  0  0  0  0  0  0  0  0  0
    5.2730   -5.9330   23.4960 C   0  0  0  0  0  0  0  0  0  0  0  0
    5.8740   -4.9450   24.4310 N   0  0  0  0  0  0  0  0  0  0  0  0
    5.7390   -2.6790   23.4550 C   0  0  0  0  0  0  0  0  0  0  0  0
    5.0230   -2.8710   22.1910 C   0  0  0  0  0  0  0  0  0  0  0  0
    5.2540   -1.8560   21.2030 C   0  0  0  0  0  0  0  0  0  0  0  0
    6.4560   -1.1550   21.1010 C   0  0  0  0  0  0  0  0  0  0  0  0
    6.3080   -0.1410   20.0390 N   0  0  0  0  0  0  0  0  0  0  0  0
    6.6660   -0.5190   18.8480 C   0  0  0  0  0  0  0  0  0  0  0  0
    4.9690    0.4700   19.9960 C   0  0  0  0  0  0  0  0  0  0  0  0
    4.8920    1.5660   19.1480 C   0  0  2  0  0  0  0  0  0  0  0  0
    6.4660    0.5730   17.8840 N   0  0  0  0  0  0  0  0  0  0  0  0
    3.5700    2.2120   19.1010 N   0  0  0  0  0  0  0  0  0  0  0  0
    5.2290    1.1320   17.8640 C   0  0  0  0  0  0  0  0  0  0  0  0
    2.8450    1.6470   20.1080 C   0  0  0  0  0  0  0  0  0  0  0  0
  1  2  1  0
  1  3  2  0
  1  4  1  0
  4  5  1  0
  4  6  1  0
  5  7  1  0
  6  8  1  0
  7  9  1  0
  8  9  1  0
  7 10  1  6
 10 11  1  0
 11 12  1  0
 12 13  1  0
 13 14  1  0
 14 15  1  0
 14 16  1  0
 16 17  1  0
 15 18  1  0
 17 19  1  6
 17 20  1  0
 18 20  1  0
 19 21  1  0
M  END
