x0736_1-x0874_0-x0434_2-x1412_1-x1412_0
     RDKit          3D

 30 33  0  0  0  0  0  0  0  0999 V2000
    6.3480   -3.3780   19.8350 C   0  0  0  0  0  0  0  0  0  0  0  0
    7.3980   -3.0350   18.7670 C   0  0  0  0  0  0  0  0  0  0  0  0
    5.3830   -4.1150   19.6640 O   0  0  0  0  0  0  0  0  0  0  0  0
    6.5160   -2.8220   21.0900 N   0  0  0  0  0  0  0  0  0  0  0  0
    7.6820   -1.9000   21.2210 C   0  0  1  0  0  0  0  0  0  0  0  0
    6.1590   -3.7080   22.2210 C   0  0  0  0  0  0  0  0  0  0  0  0
    7.1120   -0.5380   21.3760 N   0  0  0  0  0  0  0  0  0  0  0  0
    8.6080   -2.3230   22.3580 C   0  0  0  0  0  0  0  0  0  0  0  0
    7.2060   -4.1190   23.0510 C   0  0  0  0  0  0  0  0  0  0  0  0
    7.9170   -2.9380   23.4890 N   0  0  0  0  0  0  0  0  0  0  0  0
    6.4010    0.1190   20.2550 C   0  0  0  0  0  0  0  0  0  0  0  0
    8.4370   -2.8060   24.8170 C   0  0  0  0  0  0  0  0  0  0  0  0
    7.0370   -0.1040   18.8530 C   0  0  0  0  0  0  0  0  0  0  0  0
    5.2410    0.8760   20.5030 C   0  0  0  0  0  0  0  0  0  0  0  0
    8.7990   -1.5600   25.2460 N   0  0  0  0  0  0  0  0  0  0  0  0
    8.6060   -3.9650   25.7270 C   0  0  0  0  0  0  0  0  0  0  0  0
    6.3590    0.5530   17.7310 N   0  0  0  0  0  0  0  0  0  0  0  0
    4.6410    1.4700   19.3820 C   0  0  0  0  0  0  0  0  0  0  0  0
    8.6210   -0.4650   24.2810 C   0  0  0  0  0  0  0  0  0  0  0  0
    9.3740   -5.0990   25.5280 C   0  0  0  0  0  0  0  0  0  0  0  0
    7.8180   -4.0620   27.2570 S   0  0  0  0  0  0  0  0  0  0  0  0
    5.2680    1.2690   17.9740 C   0  0  0  0  0  0  0  0  0  0  0  0
    9.9030    0.3310   24.0440 C   0  0  0  0  0  0  0  0  0  0  0  0
    9.3460   -6.0080   26.5430 C   0  0  0  0  0  0  0  0  0  0  0  0
    8.5390   -5.5880   27.5660 C   0  0  0  0  0  0  0  0  0  0  0  0
   11.0940   -0.2260   23.2800 C   0  0  0  0  0  0  0  0  0  0  0  0
   12.2190    0.5590   23.3170 C   0  0  0  0  0  0  0  0  0  0  0  0
   11.3280   -1.3790   22.5240 C   0  0  0  0  0  0  0  0  0  0  0  0
   13.2830    0.0660   22.6400 C   0  0  0  0  0  0  0  0  0  0  0  0
   12.9020   -1.4400   21.9220 S   0  0  0  0  0  0  0  0  0  0  0  0
  1  2  1  0
  1  3  2  0
  1  4  1  0
  4  5  1  0
  4  6  1  0
  5  7  1  1
  5  8  1  0
  6  9  1  0
  8 10  1  0
  9 10  1  0
  7 11  1  0
 10 12  1  0
 11 13  2  0
 11 14  1  0
 12 15  2  3
 12 16  1  0
 13 17  1  0
 14 18  2  0
 15 19  1  0
 16 20  2  0
 16 21  1  0
 17 22  2  0
 18 22  1  0
 19 23  1  0
 20 24  1  0
 21 25  1  0
 24 25  2  0
 23 26  1  0
 26 27  1  0
 26 28  2  0
 27 29  2  0
 28 30  1  0
 29 30  1  0
M  END
