x0731_0-x1418_0-x0107_0-x1336_1
     RDKit          3D

 42 47  0  0  0  0  0  0  0  0999 V2000
   10.1520    0.0850   22.4430 C   0  0  1  0  0  0  0  0  0  0  0  0
    9.0070    0.4050   21.4750 C   0  0  0  0  0  0  0  0  0  0  0  0
    8.9600    1.5600   21.0540 O   0  0  0  0  0  0  0  0  0  0  0  0
    9.6380    0.2160   23.8230 C   0  0  1  0  0  0  0  0  0  0  0  0
   10.8840   -1.2970   22.6160 C   0  0  1  0  0  0  0  0  0  0  0  0
    8.0480   -0.5270   21.0990 N   0  0  0  0  0  0  0  0  0  0  0  0
    8.2940    0.7550   24.2310 C   0  0  0  0  0  0  0  0  0  0  0  0
    9.5210   -1.2780   24.1620 C   0  0  1  0  0  0  0  0  0  0  0  0
   12.2180   -1.0970   22.3220 C   0  0  0  0  0  0  0  0  0  0  0  0
   10.9350   -1.4210   24.0470 C   0  0  2  0  0  0  0  0  0  0  0  0
    8.4990   -1.2590   25.3770 N   0  0  0  0  0  0  0  0  0  0  0  0
    9.0780   -2.2400   23.1640 C   0  0  0  0  0  0  0  0  0  0  0  0
    7.0630   -0.1600   20.1590 C   0  0  0  0  0  0  0  0  0  0  0  0
   12.8560   -0.5370   23.3790 C   0  0  0  0  0  0  0  0  0  0  0  0
   11.9150   -0.4230   24.3910 C   0  0  0  0  0  0  0  0  0  0  0  0
    8.7330   -0.2650   24.6490 C   0  0  0  0  0  0  0  0  0  0  0  0
    7.2120   -2.0010   25.7330 S   0  0  0  0  0  0  0  0  0  0  0  0
    5.8940    0.5070   20.7030 C   0  0  0  0  0  0  0  0  0  0  0  0
    7.2110   -0.4040   18.7920 C   0  0  0  0  0  0  0  0  0  0  0  0
    5.7820    0.7340   22.1850 C   0  0  0  0  0  0  0  0  0  0  0  0
    6.0260   -1.3540   26.2450 O   0  0  0  0  0  0  0  0  0  0  0  0
    6.5580   -2.7690   24.2460 C   0  0  0  0  0  0  0  0  0  0  0  0
    4.9260    0.9060   19.7850 C   0  0  0  0  0  0  0  0  0  0  0  0
    6.2010    0.0200   17.8500 N   0  0  0  0  0  0  0  0  0  0  0  0
    7.6450   -3.4840   26.4670 C   0  0  0  0  0  0  0  0  0  0  0  0
    5.0760    0.6780   18.4370 C   0  0  0  0  0  0  0  0  0  0  0  0
    6.7210   -3.9240   27.4200 C   0  0  0  0  0  0  0  0  0  0  0  0
    8.8400   -4.2270   26.1970 C   0  0  0  0  0  0  0  0  0  0  0  0
    6.8320   -4.2470   23.8600 C   0  0  1  0  0  0  0  0  0  0  0  0
    9.9130   -3.8430   25.2090 C   0  0  0  0  0  0  0  0  0  0  0  0
    6.9270   -5.1150   28.1540 C   0  0  0  0  0  0  0  0  0  0  0  0
    9.0060   -5.3780   26.9210 C   0  0  0  0  0  0  0  0  0  0  0  0
    5.4640   -4.7890   23.9200 N   0  0  0  0  0  0  0  0  0  0  0  0
    7.4190   -4.5820   22.6750 C   0  0  0  0  0  0  0  0  0  0  0  0
    5.8980   -5.5250   29.1660 C   0  0  0  0  0  0  0  0  0  0  0  0
    8.0900   -5.7990   27.8570 C   0  0  0  0  0  0  0  0  0  0  0  0
    6.7500   -5.3100   21.7680 N   0  0  0  0  0  0  0  0  0  0  0  0
    5.1980   -6.0940   23.4540 C   0  0  0  0  0  0  0  0  0  0  0  0
    6.2610   -4.7810   20.5590 C   0  0  0  0  0  0  0  0  0  0  0  0
    6.0270   -6.4050   22.3870 C   0  0  0  0  0  0  0  0  0  0  0  0
    5.3360   -5.3280   20.0050 O   0  0  0  0  0  0  0  0  0  0  0  0
    6.9000   -3.5480   19.9160 C   0  0  0  0  0  0  0  0  0  0  0  0
  1  2  1  6
  2  3  2  0
  1  4  1  0
  1  5  1  0
  2  6  1  0
  4  7  1  6
  4  8  1  0
  5  9  1  1
  5 10  1  0
  8 10  1  0
  8 11  1  0
  8 12  1  6
  6 13  1  0
  9 14  2  0
 10 15  1  1
 14 15  1  0
  7 16  2  0
 11 16  1  0
 11 17  1  0
 13 18  2  0
 13 19  1  0
 18 20  1  0
 17 21  2  0
 17 22  1  0
 18 23  1  0
 19 24  2  0
 17 25  1  0
 23 26  2  0
 24 26  1  0
 25 27  2  0
 25 28  1  0
 29 22  1  6
 28 30  1  0
 27 31  1  0
 28 32  2  0
 29 33  1  0
 29 34  1  0
 31 35  1  0
 31 36  2  0
 32 36  1  0
 34 37  1  0
 33 38  1  0
 37 39  1  0
 37 40  1  0
 38 40  1  0
 39 41  2  0
 39 42  1  0
M  END
