x0731_0-x0874_0-x1336_1
     RDKit          3D

 28 30  0  0  0  0  0  0  0  0999 V2000
    7.1430   -2.0170   25.1850 S   0  0  1  0  0  0  0  0  0  0  0  0
    8.5760   -1.4070   24.4790 N   0  0  0  0  0  0  0  0  0  0  0  0
    8.4400   -0.4270   23.3980 C   0  0  0  0  0  0  0  0  0  0  0  0
    6.4060   -1.0120   25.9190 O   0  0  0  0  0  0  0  0  0  0  0  0
    6.1620   -2.6500   23.9170 C   0  0  0  0  0  0  0  0  0  0  0  0
    7.5350   -3.4340   26.1930 C   0  0  0  0  0  0  0  0  0  0  0  0
    6.7760   -3.8090   27.2700 C   0  0  0  0  0  0  0  0  0  0  0  0
    8.7570   -4.3030   25.8620 C   0  0  0  0  0  0  0  0  0  0  0  0
    6.4000   -4.1050   23.6810 C   0  0  1  0  0  0  0  0  0  0  0  0
    9.6530   -3.9890   24.7160 C   0  0  0  0  0  0  0  0  0  0  0  0
    9.2640   -0.8650   22.1610 C   0  0  0  0  0  0  0  0  0  0  0  0
    7.0190   -4.9060   28.0850 C   0  0  0  0  0  0  0  0  0  0  0  0
    9.0360   -5.5150   26.7580 C   0  0  0  0  0  0  0  0  0  0  0  0
    5.1190   -4.7610   23.4660 N   0  0  0  0  0  0  0  0  0  0  0  0
    7.3120   -4.4770   22.7130 C   0  0  0  0  0  0  0  0  0  0  0  0
    6.0580   -5.1450   29.2070 C   0  0  0  0  0  0  0  0  0  0  0  0
    8.1200   -5.7040   27.8080 C   0  0  0  0  0  0  0  0  0  0  0  0
    6.7140   -5.3080   21.6720 N   0  0  0  0  0  0  0  0  0  0  0  0
    5.2550   -6.2010   23.3900 C   0  0  0  0  0  0  0  0  0  0  0  0
   10.7590   -0.7350   22.3230 C   0  0  0  0  0  0  0  0  0  0  0  0
    6.2450   -4.6890   20.5240 C   0  0  0  0  0  0  0  0  0  0  0  0
    6.0600   -6.5200   22.1570 C   0  0  0  0  0  0  0  0  0  0  0  0
   11.4750    0.3810   22.8590 C   0  0  0  0  0  0  0  0  0  0  0  0
   11.6170   -1.7260   21.9390 C   0  0  0  0  0  0  0  0  0  0  0  0
    5.2510   -5.1180   19.9790 O   0  0  0  0  0  0  0  0  0  0  0  0
    6.9330   -3.4980   19.8640 C   0  0  0  0  0  0  0  0  0  0  0  0
   12.8370    0.1860   22.8510 C   0  0  0  0  0  0  0  0  0  0  0  0
   13.2450   -1.3360   22.1990 S   0  0  0  0  0  0  0  0  0  0  0  0
  1  2  2  0
  2  3  1  0
  1  4  2  0
  1  5  1  6
  1  6  1  0
  6  7  2  0
  6  8  1  0
  9  5  1  6
  8 10  1  0
  3 11  1  0
  7 12  1  0
  8 13  2  0
  9 14  1  0
  9 15  1  0
 12 16  1  0
 12 17  2  0
 13 17  1  0
 15 18  1  0
 14 19  1  0
 11 20  1  0
 18 21  1  0
 18 22  1  0
 19 22  1  0
 20 23  1  0
 20 24  2  0
 21 25  2  0
 21 26  1  0
 23 27  2  0
 24 28  1  0
 27 28  1  0
M  END
