x0731_0-x0691_1-x0991_0
     RDKit          3D

 25 27  0  0  0  0  0  0  0  0999 V2000
    6.2730   -4.4190   20.4630 C   0  0  0  0  0  0  0  0  0  0  0  0
    7.1800   -3.3920   19.7880 C   0  0  0  0  0  0  0  0  0  0  0  0
    5.2140   -4.6960   19.9270 O   0  0  0  0  0  0  0  0  0  0  0  0
    6.6340   -5.1040   21.6290 N   0  0  0  0  0  0  0  0  0  0  0  0
    7.4640   -4.7410   22.7500 C   0  0  1  0  0  0  0  0  0  0  0  0
    5.8810   -6.3090   21.9770 C   0  0  0  0  0  0  0  0  0  0  0  0
    8.4420   -3.5680   22.7220 C   0  0  0  0  0  0  0  0  0  0  0  0
    6.6670   -4.5080   24.1160 C   0  0  2  0  0  0  0  0  0  0  0  0
    4.9500   -6.0850   23.1990 C   0  0  0  0  0  0  0  0  0  0  0  0
    7.7390   -4.1600   25.2080 C   0  0  2  0  0  0  0  0  0  0  0  0
    5.7050   -5.6470   24.3960 N   0  0  0  0  0  0  0  0  0  0  0  0
    8.4890   -3.4110   24.1940 C   0  0  0  0  0  0  0  0  0  0  0  0
    4.8230   -5.6560   25.8210 S   0  0  0  0  0  0  0  0  0  0  0  0
    8.7140   -5.2470   25.7040 C   0  0  0  0  0  0  0  0  0  0  0  0
    4.0910   -6.8990   25.9060 O   0  0  0  0  0  0  0  0  0  0  0  0
    5.7240   -5.2340   26.8720 O   0  0  0  0  0  0  0  0  0  0  0  0
    9.7090   -5.8290   24.8100 N   0  0  0  0  0  0  0  0  0  0  0  0
    8.6070   -5.7020   27.1050 N   0  0  0  0  0  0  0  0  0  0  0  0
    3.5890   -4.3450   25.7770 C   0  0  0  0  0  0  0  0  0  0  0  0
    3.9670   -3.0150   25.8610 C   0  0  0  0  0  0  0  0  0  0  0  0
    2.2200   -4.6830   25.6660 C   0  0  0  0  0  0  0  0  0  0  0  0
    2.9870   -1.9650   25.8430 C   0  0  0  0  0  0  0  0  0  0  0  0
    1.2670   -3.6780   25.6470 C   0  0  0  0  0  0  0  0  0  0  0  0
    3.3430   -0.6760   25.9250 F   0  0  0  0  0  0  0  0  0  0  0  0
    1.6590   -2.3190   25.7400 C   0  0  0  0  0  0  0  0  0  0  0  0
  1  2  1  0
  1  3  2  0
  1  4  1  0
  4  5  1  0
  4  6  1  0
  5  7  1  6
  5  8  1  0
  6  9  1  0
  8 10  1  0
  8 11  1  1
  9 11  1  0
  7 12  2  0
 10 12  1  0
 11 13  1  0
 10 14  1  6
 13 15  2  0
 13 16  2  0
 14 17  2  3
 14 18  1  0
 13 19  1  0
 19 20  2  0
 19 21  1  0
 20 22  1  0
 21 23  2  0
 22 24  1  0
 22 25  2  0
 23 25  1  0
M  END
