x0736_1-x1385_1-x0434_2-x0540_3-x1412_0-x1386_0-x0820_1-x1334_1-x1412_1
     RDKit          3D

 46 53  0  0  0  0  0  0  0  0999 V2000
    6.5840   -3.3650   19.7790 C   0  0  0  0  0  0  0  0  0  0  0  0
    7.5080   -3.0670   18.6320 C   0  0  0  0  0  0  0  0  0  0  0  0
    5.5820   -4.0870   19.6560 O   0  0  0  0  0  0  0  0  0  0  0  0
    6.8770   -2.7910   21.1110 C   0  0  1  0  0  0  0  0  0  0  0  0
    7.3160   -3.7030   22.3800 C   0  0  1  0  0  0  0  0  0  0  0  0
    7.9120   -1.6330   21.0080 C   0  0  1  0  0  0  0  0  0  0  0  0
    5.4300   -2.3800   21.4250 C   0  0  0  0  0  0  0  0  0  0  0  0
    7.2850   -0.3290   21.1010 N   0  0  0  0  0  0  0  0  0  0  0  0
    8.2320   -2.7080   23.0850 N   0  0  0  0  0  0  0  0  0  0  0  0
    8.9460   -2.0100   22.0580 C   0  0  0  0  0  0  0  0  0  0  0  0
    5.9900   -4.1560   23.1160 C   0  0  2  0  0  0  0  0  0  0  0  0
    5.2640   -3.1640   22.3710 C   0  0  0  0  0  0  0  0  0  0  0  0
    8.7560   -2.4350   24.3340 C   0  0  0  0  0  0  0  0  0  0  0  0
    6.9400    0.0660   22.4750 C   0  0  0  0  0  0  0  0  0  0  0  0
    5.9850   -3.7570   24.5780 C   0  0  2  0  0  0  0  0  0  0  0  0
    6.5430    0.2390   20.1000 C   0  0  0  0  0  0  0  0  0  0  0  0
    5.4440   -0.0380   22.6670 C   0  0  0  0  0  0  0  0  0  0  0  0
    8.0570   -1.9280   25.2220 O   0  0  0  0  0  0  0  0  0  0  0  0
   10.2540   -2.7260   24.5430 C   0  0  0  0  0  0  0  0  0  0  0  0
    6.7870   -4.6430   25.5360 C   0  0  2  0  0  0  0  0  0  0  0  0
    4.6270   -3.5190   24.8230 C   0  0  0  0  0  0  0  0  0  0  0  0
    6.9360    0.2070   18.6840 C   0  0  0  0  0  0  0  0  0  0  0  0
    5.3290    0.8980   20.3440 C   0  0  0  0  0  0  0  0  0  0  0  0
    4.7850    0.9960   21.7650 C   0  0  2  0  0  0  0  0  0  0  0  0
    5.8930   -5.0960   26.7430 C   0  0  2  0  0  0  0  0  0  0  0  0
    3.8360   -4.5290   25.3030 C   0  0  0  0  0  0  0  0  0  0  0  0
    8.2170   -4.1880   25.9760 C   0  0  1  0  0  0  0  0  0  0  0  0
    6.2590    0.7470   17.6720 N   0  0  0  0  0  0  0  0  0  0  0  0
    4.6310    1.4590   19.2870 C   0  0  0  0  0  0  0  0  0  0  0  0
   11.1310   -1.5970   24.0630 C   0  0  0  0  0  0  0  0  0  0  0  0
    5.0150    2.3700   22.3670 C   0  0  0  0  0  0  0  0  0  0  0  0
    4.4080   -5.4500   26.3550 C   0  0  0  0  0  0  0  0  0  0  0  0
    8.4570   -4.2620   27.3830 C   0  0  1  0  0  0  0  0  0  0  0  0
    6.0380   -4.2030   27.9250 C   0  0  0  0  0  0  0  0  0  0  0  0
    9.2150   -5.1590   25.4170 C   0  0  0  0  0  0  0  0  0  0  0  0
    5.1230    1.3680   17.9970 C   0  0  0  0  0  0  0  0  0  0  0  0
   12.2290   -1.7250   22.9870 C   0  0  0  0  0  0  0  0  0  0  0  0
   11.0600   -0.3020   24.5270 C   0  0  0  0  0  0  0  0  0  0  0  0
    3.7840    2.9620   22.8200 N   0  0  0  0  0  0  0  0  0  0  0  0
    7.4310   -3.8060   28.1680 C   0  0  0  0  0  0  0  0  0  0  0  0
    9.4860   -6.1140   26.4990 C   0  0  0  0  0  0  0  0  0  0  0  0
    8.7380   -5.7440   27.6630 C   0  0  0  0  0  0  0  0  0  0  0  0
   12.8340   -0.4970   22.7890 C   0  0  0  0  0  0  0  0  0  0  0  0
   12.1900    0.7380   23.7720 S   0  0  0  0  0  0  0  0  0  0  0  0
    2.8360    2.2210   23.4730 C   0  0  0  0  0  0  0  0  0  0  0  0
    3.0290    1.4570   24.4200 O   0  0  0  0  0  0  0  0  0  0  0  0
  1  2  1  0
  1  3  2  0
  4  1  1  6
  4  5  1  0
  4  6  1  0
  4  7  1  0
  6  8  1  1
  5  9  1  1
  6 10  1  0
  9 10  1  0
  5 11  1  0
  7 12  2  0
 11 12  1  6
  9 13  1  0
  8 14  1  0
 11 15  1  0
  8 16  1  0
 14 17  1  0
 13 18  2  0
 13 19  1  0
 15 20  1  0
 15 21  1  1
 16 22  1  0
 16 23  2  0
 17 24  1  0
 23 24  1  0
 20 25  1  1
 21 26  1  0
 20 27  1  0
 22 28  2  0
 23 29  1  0
 19 30  1  0
 24 31  1  1
 25 32  1  6
 26 32  2  0
 27 33  1  0
 25 34  1  0
 27 35  1  6
 28 36  1  0
 29 36  2  0
 30 37  1  0
 30 38  2  0
 31 39  1  0
 33 40  1  1
 34 40  2  0
 35 41  2  0
 33 42  1  0
 41 42  1  0
 37 43  2  0
 38 44  1  0
 43 44  1  0
 39 45  1  0
 45 46  2  0
M  END
