x0731_0-x0395_1
     RDKit          3D

 19 20  0  0  0  0  0  0  0  0999 V2000
    6.2740   -4.7110   20.5180 C   0  0  0  0  0  0  0  0  0  0  0  0
    6.9130   -3.5220   19.8220 C   0  0  0  0  0  0  0  0  0  0  0  0
    5.3280   -5.2620   20.0070 O   0  0  0  0  0  0  0  0  0  0  0  0
    6.8140   -5.2110   21.6990 N   0  0  0  0  0  0  0  0  0  0  0  0
    7.5050   -4.3800   22.6750 C   0  0  0  0  0  0  0  0  0  0  0  0
    6.1750   -6.3590   22.3340 C   0  0  0  0  0  0  0  0  0  0  0  0
    6.5130   -3.8230   23.4430 C   0  0  2  0  0  0  0  0  0  0  0  0
    5.3760   -5.9690   23.4210 C   0  0  0  0  0  0  0  0  0  0  0  0
    7.1020   -2.5810   24.1400 C   0  0  0  0  0  0  0  0  0  0  0  0
    5.9940   -4.9450   24.2780 N   0  0  0  0  0  0  0  0  0  0  0  0
    8.0460   -1.8180   23.1890 C   0  0  0  0  0  0  0  0  0  0  0  0
    9.4520   -1.7460   23.7930 C   0  0  0  0  0  0  0  0  0  0  0  0
   10.2850   -0.8540   23.1630 N   0  0  0  0  0  0  0  0  0  0  0  0
   11.2320   -1.5490   22.4250 C   0  0  0  0  0  0  0  0  0  0  0  0
   10.8070    0.0180   24.0680 C   0  0  0  0  0  0  0  0  0  0  0  0
   12.4470   -0.9470   22.3230 C   0  0  0  0  0  0  0  0  0  0  0  0
   11.7280    1.0270   23.3620 C   0  0  0  0  0  0  0  0  0  0  0  0
   13.4360   -1.6240   21.7410 F   0  0  0  0  0  0  0  0  0  0  0  0
   12.7110    0.3450   22.7910 C   0  0  0  0  0  0  0  0  0  0  0  0
  1  2  1  0
  1  3  2  0
  1  4  1  0
  4  5  1  0
  4  6  1  0
  5  7  1  0
  6  8  1  0
  7  9  1  1
  7 10  1  0
  8 10  1  0
  9 11  1  0
 11 12  1  0
 12 13  1  0
 13 14  1  0
 13 15  1  0
 14 16  1  0
 15 17  1  0
 16 18  1  0
 16 19  2  0
 17 19  1  0
M  END
