x0731_0-x0831_0-x0072_0-x0978_1
     RDKit          3D

 32 33  0  0  0  0  0  0  0  0999 V2000
    3.4970   -6.3440   23.2940 C   0  0  2  0  0  0  0  0  0  0  0  0
    2.3280   -5.5760   23.1870 N   0  0  0  0  0  0  0  0  0  0  0  0
    1.1330   -6.1760   22.6890 C   0  0  0  0  0  0  0  0  0  0  0  0
    3.3190   -7.0670   24.6180 C   0  0  1  0  0  0  0  0  0  0  0  0
    4.8980   -5.5570   23.0580 C   0  0  1  0  0  0  0  0  0  0  0  0
    2.1180   -7.9700   24.6870 C   0  0  0  0  0  0  0  0  0  0  0  0
    4.4530   -7.8560   24.8890 O   0  0  0  0  0  0  0  0  0  0  0  0
    5.5500   -4.9380   24.1320 N   0  0  0  0  0  0  0  0  0  0  0  0
    5.8010   -6.2640   22.2780 C   0  0  0  0  0  0  0  0  0  0  0  0
    4.4900   -4.0720   24.6140 O   0  0  0  0  0  0  0  0  0  0  0  0
    1.0590   -7.2870   22.0080 O   0  0  0  0  0  0  0  0  0  0  0  0
   -0.1410   -5.3470   23.0560 C   0  0  0  0  0  0  0  0  0  0  0  0
    6.6550   -4.1150   23.7310 C   0  0  1  0  0  0  0  0  0  0  0  0
    6.7200   -5.3100   21.6550 N   0  0  0  0  0  0  0  0  0  0  0  0
    6.2430   -4.7030   20.5010 C   0  0  0  0  0  0  0  0  0  0  0  0
    7.6320   -3.6520   24.7600 N   0  0  0  0  0  0  0  0  0  0  0  0
    7.4440   -4.5850   22.6570 C   0  0  0  0  0  0  0  0  0  0  0  0
    5.2440   -5.1160   19.9770 O   0  0  0  0  0  0  0  0  0  0  0  0
    6.9550   -3.5450   19.8150 C   0  0  0  0  0  0  0  0  0  0  0  0
    8.0020   -4.4170   26.0780 S   0  0  0  0  0  0  0  0  0  0  0  0
    8.3510   -2.3400   24.4820 C   0  0  0  0  0  0  0  0  0  0  0  0
    6.5510   -5.3110   26.5510 C   0  0  0  0  0  0  0  0  0  0  0  0
    9.0380   -5.3860   25.7890 O   0  0  0  0  0  0  0  0  0  0  0  0
    8.2200   -3.4100   27.0930 O   0  0  0  0  0  0  0  0  0  0  0  0
    9.6590   -2.4600   23.6130 C   0  0  0  0  0  0  0  0  0  0  0  0
   10.5700   -1.1760   23.5340 C   0  0  0  0  0  0  0  0  0  0  0  0
   10.1000   -0.1170   24.2040 C   0  0  0  0  0  0  0  0  0  0  0  0
   11.8230   -1.0190   22.8480 C   0  0  0  0  0  0  0  0  0  0  0  0
   12.4740   -2.1140   22.0540 C   0  0  0  0  0  0  0  0  0  0  0  0
   10.7620    1.1030   24.2580 C   0  0  0  0  0  0  0  0  0  0  0  0
   12.5100    0.2160   22.9040 C   0  0  0  0  0  0  0  0  0  0  0  0
   11.9670    1.2620   23.6080 C   0  0  0  0  0  0  0  0  0  0  0  0
  1  2  1  1
  2  3  1  0
  1  4  1  0
  1  5  1  0
  4  6  1  6
  4  7  1  0
  5  8  1  0
  5  9  1  1
  8 10  1  0
  3 11  2  0
  3 12  1  0
  8 13  1  0
  9 14  1  0
 14 15  1  0
 13 16  1  1
 13 17  1  0
 14 17  1  0
 15 18  2  0
 15 19  1  0
 20 16  1  0
 16 21  1  0
 20 22  1  0
 20 23  2  0
 20 24  2  0
 21 25  1  0
 25 26  1  0
 26 27  2  0
 26 28  1  0
 28 29  1  0
 27 30  1  0
 28 31  2  0
 30 32  2  0
 31 32  1  0
M  END
