x0731_0-x0874_1
     RDKit          3D

 19 20  0  0  0  0  0  0  0  0999 V2000
    6.2730   -4.6110   20.5660 C   0  0  0  0  0  0  0  0  0  0  0  0
    6.9530   -3.5060   19.7730 C   0  0  0  0  0  0  0  0  0  0  0  0
    5.3440   -5.1910   20.0290 O   0  0  0  0  0  0  0  0  0  0  0  0
    6.7410   -4.9790   21.8220 N   0  0  0  0  0  0  0  0  0  0  0  0
    7.2070   -4.1510   22.7010 C   0  0  0  0  0  0  0  0  0  0  0  0
    6.2750   -6.2930   22.3470 C   0  0  0  0  0  0  0  0  0  0  0  0
    6.1820   -3.9480   23.6080 C   0  0  2  0  0  0  0  0  0  0  0  0
    5.3640   -6.1060   23.3240 C   0  0  0  0  0  0  0  0  0  0  0  0
    6.3840   -2.7210   24.5350 C   0  0  0  0  0  0  0  0  0  0  0  0
    5.7970   -5.0650   24.2510 N   0  0  0  0  0  0  0  0  0  0  0  0
    7.6420   -1.9080   24.4300 C   0  0  0  0  0  0  0  0  0  0  0  0
    7.7810   -0.8860   23.3500 C   0  0  1  0  0  0  0  0  0  0  0  0
    7.7800    0.6280   23.5300 C   0  0  0  0  0  0  0  0  0  0  0  0
    9.0610   -1.2920   22.7020 C   0  0  0  0  0  0  0  0  0  0  0  0
    9.9440   -0.1500   23.1900 C   0  0  0  0  0  0  0  0  0  0  0  0
    9.0710    0.9610   23.2760 C   0  0  1  0  0  0  0  0  0  0  0  0
    9.2540    1.8510   22.1680 C   0  0  0  0  0  0  0  0  0  0  0  0
   10.1610    2.9740   22.4900 N   0  0  0  0  0  0  0  0  0  0  0  0
    8.7070    1.6710   21.0810 O   0  0  0  0  0  0  0  0  0  0  0  0
  1  2  1  0
  1  3  2  0
  1  4  1  0
  4  5  1  0
  4  6  1  0
  5  7  1  0
  6  8  1  0
  7  9  1  1
  7 10  1  0
  8 10  1  0
  9 11  1  0
 12 11  1  1
 12 13  1  0
 12 14  1  0
 14 15  1  0
 13 16  1  0
 15 16  1  0
 16 17  1  6
 17 18  1  0
 17 19  2  0
M  END
