x0749_1-x0540_3
     RDKit          3D

 17 17  0  0  0  0  0  0  0  0999 V2000
    6.4860   -3.9960   20.3390 C   0  0  0  0  0  0  0  0  0  0  0  0
    7.4340   -3.2280   19.3930 C   0  0  0  0  0  0  0  0  0  0  0  0
    5.4320   -4.4400   19.8820 O   0  0  0  0  0  0  0  0  0  0  0  0
    6.8170   -4.2620   21.8450 C   0  0  0  0  0  0  0  0  0  0  0  0
    5.8410   -3.5790   22.5700 C   0  0  0  0  0  0  0  0  0  0  0  0
    8.1010   -3.8390   22.1600 C   0  0  0  0  0  0  0  0  0  0  0  0
    6.7110   -5.6420   21.9150 C   0  0  0  0  0  0  0  0  0  0  0  0
    5.1150   -2.4300   21.7910 C   0  0  0  0  0  0  0  0  0  0  0  0
    8.5570   -4.2720   23.5130 C   0  0  0  0  0  0  0  0  0  0  0  0
    7.1350   -6.2100   23.1060 C   0  0  0  0  0  0  0  0  0  0  0  0
    5.8330   -1.1040   21.7980 C   0  0  0  0  0  0  0  0  0  0  0  0
    8.1370   -5.5640   23.8580 C   0  0  0  0  0  0  0  0  0  0  0  0
    5.0620    0.1990   21.6570 C   0  0  0  0  0  0  0  0  0  0  0  0
    5.2520    1.3430   22.6810 C   0  0  0  0  0  0  0  0  0  0  0  0
    4.2350    2.3900   22.5720 N   0  0  0  0  0  0  0  0  0  0  0  0
    3.0120    2.1460   23.3080 C   0  0  0  0  0  0  0  0  0  0  0  0
    3.0420    1.4590   24.3270 O   0  0  0  0  0  0  0  0  0  0  0  0
  1  2  1  0
  1  3  2  0
  4  1  1  0
  4  5  1  0
  4  6  1  0
  4  7  1  0
  5  8  1  0
  6  9  1  0
  7 10  1  0
  8 11  1  0
  9 12  1  0
 10 12  1  0
 11 13  1  0
 13 14  1  0
 14 15  1  0
 15 16  1  0
 16 17  2  0
M  END
