x0749_1-x0874_0
     RDKit          3D

 16 17  0  0  0  0  0  0  0  0999 V2000
    6.3560   -3.9430   20.2070 C   0  0  0  0  0  0  0  0  0  0  0  0
    7.3560   -3.2210   19.2950 C   0  0  0  0  0  0  0  0  0  0  0  0
    5.2670   -4.3450   19.8160 O   0  0  0  0  0  0  0  0  0  0  0  0
    6.7170   -4.2050   21.5190 N   0  0  0  0  0  0  0  0  0  0  0  0
    7.6140   -3.2690   22.2060 C   0  0  0  0  0  0  0  0  0  0  0  0
    6.4130   -5.4240   22.2330 C   0  0  0  0  0  0  0  0  0  0  0  0
    8.6630   -3.8930   22.8420 C   0  0  1  0  0  0  0  0  0  0  0  0
    7.5420   -5.9800   22.8410 C   0  0  0  0  0  0  0  0  0  0  0  0
    9.5120   -2.8040   23.5110 C   0  0  0  0  0  0  0  0  0  0  0  0
    8.2240   -5.0980   23.6840 C   0  0  0  0  0  0  0  0  0  0  0  0
    9.5850   -1.5180   22.6450 C   0  0  0  0  0  0  0  0  0  0  0  0
   10.7280   -0.5050   22.8870 C   0  0  0  0  0  0  0  0  0  0  0  0
   11.9190    0.2640   23.0070 C   0  0  0  0  0  0  0  0  0  0  0  0
   11.4450   -1.6700   22.2030 C   0  0  0  0  0  0  0  0  0  0  0  0
   13.1430   -0.1300   22.5820 C   0  0  0  0  0  0  0  0  0  0  0  0
   13.1440   -1.6380   21.8790 S   0  0  0  0  0  0  0  0  0  0  0  0
  1  2  1  0
  1  3  2  0
  1  4  1  0
  4  5  1  0
  4  6  1  0
  5  7  1  0
  6  8  1  0
  7  9  1  1
  7 10  1  0
  8 10  1  0
  9 11  1  0
 11 12  1  0
 12 13  1  0
 12 14  2  0
 13 15  2  0
 14 16  1  0
 15 16  1  0
M  END
