x0749_1-x0967_2
     RDKit          3D

 20 20  0  0  0  0  0  0  0  0999 V2000
    6.2760    0.5080   22.3250 C   0  0  0  0  0  0  0  0  0  0  0  0
    7.6400    0.9840   22.8410 C   0  0  1  0  0  0  0  0  0  0  0  0
    8.7490    0.0510   22.3320 C   0  0  0  0  0  0  0  0  0  0  0  0
    7.8940    2.3380   22.3550 N   0  0  0  0  0  0  0  0  0  0  0  0
    9.9060    0.7290   21.8460 O   0  0  0  0  0  0  0  0  0  0  0  0
    7.1890    3.5140   22.8770 C   0  0  0  0  0  0  0  0  0  0  0  0
    8.6050   -1.3410   22.3690 C   0  0  0  0  0  0  0  0  0  0  0  0
    7.7980    4.8440   22.4490 C   0  0  0  0  0  0  0  0  0  0  0  0
    6.1970    3.4410   23.5960 O   0  0  0  0  0  0  0  0  0  0  0  0
    8.6150   -1.7860   23.6950 C   0  0  0  0  0  0  0  0  0  0  0  0
    7.6030   -2.9170   23.9590 C   0  0  0  0  0  0  0  0  0  0  0  0
    8.1050   -4.1050   23.4140 C   0  0  2  0  0  0  0  0  0  0  0  0
    8.1040   -4.1670   22.0420 C   0  0  0  0  0  0  0  0  0  0  0  0
    7.5020   -5.2230   24.0080 C   0  0  0  0  0  0  0  0  0  0  0  0
    6.7440   -4.3030   21.5200 N   0  0  0  0  0  0  0  0  0  0  0  0
    6.8900   -6.0640   23.0590 C   0  0  0  0  0  0  0  0  0  0  0  0
    6.4040   -3.9630   20.2200 C   0  0  0  0  0  0  0  0  0  0  0  0
    6.0490   -5.4250   22.1580 C   0  0  0  0  0  0  0  0  0  0  0  0
    7.3830   -3.2020   19.3160 C   0  0  0  0  0  0  0  0  0  0  0  0
    5.3060   -4.3150   19.8040 O   0  0  0  0  0  0  0  0  0  0  0  0
  2  1  1  6
  2  3  1  0
  2  4  1  0
  3  5  2  0
  4  6  1  0
  3  7  1  0
  6  8  1  0
  6  9  2  0
  7 10  1  0
 10 11  1  0
 12 11  1  6
 12 13  1  0
 12 14  1  0
 13 15  1  0
 14 16  1  0
 15 17  1  0
 15 18  1  0
 16 18  1  0
 17 19  1  0
 17 20  2  0
M  END
