x0749_1-x1458_0
     RDKit          3D

 16 16  0  0  0  0  0  0  0  0999 V2000
    6.4250   -3.9500   20.1550 C   0  0  0  0  0  0  0  0  0  0  0  0
    7.3640   -3.2060   19.2040 C   0  0  0  0  0  0  0  0  0  0  0  0
    5.2970   -4.2410   19.7710 O   0  0  0  0  0  0  0  0  0  0  0  0
    6.8390   -4.3640   21.4070 N   0  0  0  0  0  0  0  0  0  0  0  0
    8.0070   -3.6700   22.0190 C   0  0  0  0  0  0  0  0  0  0  0  0
    6.1250   -5.3450   22.2380 C   0  0  0  0  0  0  0  0  0  0  0  0
    8.3760   -4.2670   23.3640 C   0  0  1  0  0  0  0  0  0  0  0  0
    7.0290   -6.2540   22.7230 C   0  0  0  0  0  0  0  0  0  0  0  0
    7.8670   -3.2790   24.4220 C   0  0  0  0  0  0  0  0  0  0  0  0
    7.9210   -5.6560   23.6600 C   0  0  0  0  0  0  0  0  0  0  0  0
    8.5370   -3.4920   25.7680 C   0  0  0  0  0  0  0  0  0  0  0  0
    7.5550   -3.5500   26.8340 N   0  0  0  0  0  0  0  0  0  0  0  0
    7.7440   -4.5110   27.6860 C   0  0  0  0  0  0  0  0  0  0  0  0
    7.2470   -2.2680   27.4020 C   0  0  0  0  0  0  0  0  0  0  0  0
    9.0970   -5.1340   27.5130 C   0  0  0  0  0  0  0  0  0  0  0  0
    6.7130   -5.6400   27.5340 C   0  0  0  0  0  0  0  0  0  0  0  0
  1  2  1  0
  1  3  2  0
  1  4  1  0
  4  5  1  0
  4  6  1  0
  5  7  1  0
  6  8  1  0
  7  9  1  1
  7 10  1  0
  8 10  1  0
  9 11  1  0
 11 12  1  0
 12 13  1  0
 12 14  1  0
 13 15  1  0
 13 16  1  0
M  END
