x0749_1-x0107_0-x1336_1
     RDKit          3D

 34 36  0  0  0  0  0  0  0  0999 V2000
   10.0030   -0.6330   22.2380 C   0  0  0  0  0  0  0  0  0  0  0  0
    8.9620    0.2230   21.5270 C   0  0  0  0  0  0  0  0  0  0  0  0
    9.1240    1.4360   21.3240 O   0  0  0  0  0  0  0  0  0  0  0  0
    9.3310   -1.5380   23.2550 C   0  0  0  0  0  0  0  0  0  0  0  0
    7.8410   -0.4920   21.1330 N   0  0  0  0  0  0  0  0  0  0  0  0
    9.5960   -1.0660   24.6940 C   0  0  0  0  0  0  0  0  0  0  0  0
    8.3330   -0.7150   25.3390 N   0  0  0  0  0  0  0  0  0  0  0  0
    6.9180   -0.0400   20.1720 C   0  0  0  0  0  0  0  0  0  0  0  0
    7.1710   -1.7040   25.6320 S   0  0  1  0  0  0  0  0  0  0  0  0
    5.7690    0.6260   20.5870 C   0  0  0  0  0  0  0  0  0  0  0  0
    7.1060   -0.2200   18.8110 C   0  0  0  0  0  0  0  0  0  0  0  0
    5.5410    0.8220   22.0580 C   0  0  0  0  0  0  0  0  0  0  0  0
    6.0910   -1.9900   24.7250 O   0  0  0  0  0  0  0  0  0  0  0  0
    4.8810    1.0840   19.6260 C   0  0  0  0  0  0  0  0  0  0  0  0
    6.2650    0.2140   17.8520 N   0  0  0  0  0  0  0  0  0  0  0  0
    7.7040   -3.2410   26.4470 C   0  0  0  0  0  0  0  0  0  0  0  0
    5.1750    0.8580   18.2600 C   0  0  0  0  0  0  0  0  0  0  0  0
    6.7930   -3.7480   27.3890 C   0  0  0  0  0  0  0  0  0  0  0  0
    8.9170   -3.9540   26.2400 C   0  0  0  0  0  0  0  0  0  0  0  0
    9.9950   -3.5670   25.2900 C   0  0  0  0  0  0  0  0  0  0  0  0
    7.0510   -4.9080   28.1050 C   0  0  0  0  0  0  0  0  0  0  0  0
    9.1540   -5.1230   26.9730 C   0  0  0  0  0  0  0  0  0  0  0  0
    6.0520   -5.4070   29.0970 C   0  0  0  0  0  0  0  0  0  0  0  0
    9.7890   -4.2020   23.9340 C   0  0  0  0  0  0  0  0  0  0  0  0
    8.2320   -5.5950   27.8950 C   0  0  0  0  0  0  0  0  0  0  0  0
    8.3250   -4.3490   23.5290 C   0  0  1  0  0  0  0  0  0  0  0  0
    8.0270   -4.0140   22.0590 C   0  0  0  0  0  0  0  0  0  0  0  0
    7.8500   -5.7630   23.8200 C   0  0  0  0  0  0  0  0  0  0  0  0
    6.6560   -4.2310   21.5660 N   0  0  0  0  0  0  0  0  0  0  0  0
    6.9300   -6.3390   22.7520 C   0  0  0  0  0  0  0  0  0  0  0  0
    6.3910   -3.9310   20.2340 C   0  0  0  0  0  0  0  0  0  0  0  0
    5.9520   -5.3310   22.1870 C   0  0  0  0  0  0  0  0  0  0  0  0
    7.4080   -3.1780   19.3400 C   0  0  0  0  0  0  0  0  0  0  0  0
    5.3140   -4.3060   19.7970 O   0  0  0  0  0  0  0  0  0  0  0  0
  1  2  1  0
  2  3  2  0
  1  4  1  0
  2  5  1  0
  4  6  1  0
  6  7  1  0
  5  8  1  0
  7  9  2  0
  8 10  2  0
  8 11  1  0
 10 12  1  0
  9 13  2  0
 10 14  1  0
 11 15  2  0
  9 16  1  6
 14 17  2  0
 15 17  1  0
 16 18  2  0
 16 19  1  0
 19 20  1  0
 18 21  1  0
 19 22  2  0
 21 23  1  0
 20 24  1  0
 21 25  2  0
 22 25  1  0
 26 24  1  6
 26 27  1  0
 26 28  1  0
 27 29  1  0
 28 30  1  0
 29 31  1  0
 29 32  1  0
 30 32  1  0
 31 33  1  0
 31 34  2  0
M  END
