x0749_0-x0691_0
     RDKit          3D

 19 21  0  0  0  0  0  0  0  0999 V2000
    6.3140   -4.3570   20.5090 C   0  0  0  0  0  0  0  0  0  0  0  0
    7.2990   -3.3820   19.8370 C   0  0  0  0  0  0  0  0  0  0  0  0
    5.2820   -4.6320   19.9190 O   0  0  0  0  0  0  0  0  0  0  0  0
    6.5630   -4.9460   21.7600 N   0  0  0  0  0  0  0  0  0  0  0  0
    5.8350   -6.1810   22.1090 C   0  0  0  0  0  0  0  0  0  0  0  0
    6.9900   -4.1670   22.9310 C   0  0  2  0  0  0  0  0  0  0  0  0
    8.1310   -4.8620   23.6950 C   0  0  0  0  0  0  0  0  0  0  0  0
    4.6500   -5.9340   23.0830 C   0  0  0  0  0  0  0  0  0  0  0  0
    5.8690   -4.0110   23.9420 C   0  0  0  0  0  0  0  0  0  0  0  0
    5.2490   -5.3130   24.2900 N   0  0  0  0  0  0  0  0  0  0  0  0
    9.2810   -4.1210   24.0090 C   0  0  0  0  0  0  0  0  0  0  0  0
    9.7370   -2.9620   23.4860 N   0  0  0  0  0  0  0  0  0  0  0  0
   10.3700   -4.8120   25.3100 S   0  0  0  0  0  0  0  0  0  0  0  0
   10.9270   -2.6390   24.0390 C   0  0  0  0  0  0  0  0  0  0  0  0
   11.4900   -3.4710   25.0200 C   0  0  0  0  0  0  0  0  0  0  0  0
   11.8300   -1.4580   23.7570 C   0  0  0  0  0  0  0  0  0  0  0  0
   12.7150   -3.2730   25.6450 C   0  0  0  0  0  0  0  0  0  0  0  0
   13.0310   -1.3240   24.4190 C   0  0  0  0  0  0  0  0  0  0  0  0
   13.5000   -2.1870   25.3410 C   0  0  0  0  0  0  0  0  0  0  0  0
  1  2  1  0
  1  3  2  0
  1  4  1  0
  4  5  1  0
  4  6  1  0
  6  7  1  1
  5  8  1  0
  6  9  1  0
  8 10  1  0
  9 10  1  0
  7 11  1  0
 11 12  2  0
 11 13  1  0
 12 14  1  0
 13 15  1  0
 14 15  2  0
 14 16  1  0
 15 17  1  0
 16 18  2  0
 17 19  2  0
 18 19  1  0
M  END
