x0759_0-x0978_1
     RDKit          3D

 23 24  0  0  0  0  0  0  0  0999 V2000
    4.4660   -5.5100   22.8720 C   0  0  0  0  0  0  0  0  0  0  0  0
    3.2380   -6.4040   23.1020 C   0  0  2  0  0  0  0  0  0  0  0  0
    2.0390   -5.5760   23.0250 N   0  0  0  0  0  0  0  0  0  0  0  0
    4.5380   -4.4190   23.4330 N   0  0  0  0  0  0  0  0  0  0  0  0
    3.2790   -7.0560   24.4970 C   0  0  1  0  0  0  0  0  0  0  0  0
    5.6100   -3.7840   23.4970 C   0  0  0  0  0  0  0  0  0  0  0  0
    0.9100   -5.9650   22.4050 C   0  0  0  0  0  0  0  0  0  0  0  0
    2.0920   -7.9580   24.7670 C   0  0  0  0  0  0  0  0  0  0  0  0
    4.4720   -7.8230   24.6270 O   0  0  0  0  0  0  0  0  0  0  0  0
    6.6830   -3.1480   23.5620 C   0  0  0  0  0  0  0  0  0  0  0  0
    0.8400   -7.0180   21.7710 O   0  0  0  0  0  0  0  0  0  0  0  0
   -0.2590   -5.0310   22.5260 C   0  0  0  0  0  0  0  0  0  0  0  0
    7.7550   -2.5130   23.6260 C   0  0  0  0  0  0  0  0  0  0  0  0
    8.8280   -1.8770   23.6910 C   0  0  0  0  0  0  0  0  0  0  0  0
    9.6900   -1.4500   23.1980 C   0  0  2  0  0  0  0  0  0  0  0  0
   10.9720   -0.6070   23.8190 C   0  0  1  0  0  0  0  0  0  0  0  0
    9.7560   -1.0700   23.7730 C   0  0  0  0  0  0  0  0  0  0  0  0
   10.7480   -1.4870   22.3020 C   0  0  0  0  0  0  0  0  0  0  0  0
   10.9750    0.0240   24.6010 C   0  0  2  0  0  0  0  0  0  0  0  0
    9.8230   -0.6900   24.3470 C   0  0  0  0  0  0  0  0  0  0  0  0
   11.9080   -0.7740   22.5420 C   0  0  0  0  0  0  0  0  0  0  0  0
   11.9830   -0.0400   23.6900 C   0  0  0  0  0  0  0  0  0  0  0  0
   13.1170    0.6640   23.9480 F   0  0  0  0  0  0  0  0  0  0  0  0
  2  1  1  1
  2  3  1  0
  1  4  2  3
  2  5  1  0
  4  6  1  0
  3  7  1  0
  5  8  1  6
  5  9  1  0
  6 10  1  0
  7 11  2  0
  7 12  1  0
 10 13  1  0
 13 14  1  0
 15 14  1  1
 15 16  1  0
 15 17  1  0
 16 18  1  6
 16 19  1  0
 17 20  2  0
 19 20  1  6
 18 21  2  0
 19 22  1  0
 21 22  1  0
 22 23  1  0
M  END
