x0759_1-x0967_2
     RDKit          3D

 18 18  0  0  0  0  0  0  0  0999 V2000
    6.5810    0.5120   22.3360 C   0  0  0  0  0  0  0  0  0  0  0  0
    7.8780    1.0380   22.9760 C   0  0  1  0  0  0  0  0  0  0  0  0
    9.1070    0.2250   22.5310 C   0  0  0  0  0  0  0  0  0  0  0  0
    8.1470    2.4240   22.6230 N   0  0  0  0  0  0  0  0  0  0  0  0
    9.9470    0.6760   21.7710 O   0  0  0  0  0  0  0  0  0  0  0  0
    7.2800    3.4400   22.9510 C   0  0  0  0  0  0  0  0  0  0  0  0
    9.2440   -1.0860   23.0590 C   0  0  0  0  0  0  0  0  0  0  0  0
    7.7070    4.8320   22.4480 C   0  0  0  0  0  0  0  0  0  0  0  0
    6.2480    3.2610   23.5910 O   0  0  0  0  0  0  0  0  0  0  0  0
    8.0030   -1.9630   22.9100 C   0  0  1  0  0  0  0  0  0  0  0  0
    7.5530   -2.0510   21.6020 C   0  0  0  0  0  0  0  0  0  0  0  0
    8.3860   -3.2970   23.3350 O   0  0  0  0  0  0  0  0  0  0  0  0
    6.6310   -3.1570   21.3340 N   0  0  0  0  0  0  0  0  0  0  0  0
    7.3090   -4.2530   23.4140 C   0  0  0  0  0  0  0  0  0  0  0  0
    6.3270   -3.5500   20.0340 C   0  0  0  0  0  0  0  0  0  0  0  0
    6.2680   -3.9260   22.5150 C   0  0  0  0  0  0  0  0  0  0  0  0
    5.3590   -4.2730   19.7990 O   0  0  0  0  0  0  0  0  0  0  0  0
    7.2780   -3.0780   18.9440 C   0  0  0  0  0  0  0  0  0  0  0  0
  2  1  1  6
  2  3  1  0
  2  4  1  0
  3  5  2  0
  4  6  1  0
  3  7  1  0
  6  8  1  0
  6  9  2  0
 10  7  1  6
 10 11  1  0
 10 12  1  0
 11 13  1  0
 12 14  1  0
 13 15  1  0
 13 16  1  0
 14 16  1  0
 15 17  2  0
 15 18  1  0
M  END
