x0755_0-x0831_0
     RDKit          3D

 19 20  0  0  0  0  0  0  0  0999 V2000
    6.3700   -4.6710   20.5740 C   0  0  0  0  0  0  0  0  0  0  0  0
    7.2480   -3.5400   20.0120 C   0  0  0  0  0  0  0  0  0  0  0  0
    5.3500   -5.0140   20.0010 O   0  0  0  0  0  0  0  0  0  0  0  0
    6.7250   -5.3710   21.7380 N   0  0  0  0  0  0  0  0  0  0  0  0
    7.5830   -4.7230   22.6630 C   0  0  0  0  0  0  0  0  0  0  0  0
    5.8550   -6.1870   22.3540 C   0  0  0  0  0  0  0  0  0  0  0  0
    6.8370   -3.8770   23.4670 C   0  0  2  0  0  0  0  0  0  0  0  0
    5.3640   -5.6070   23.5610 C   0  0  0  0  0  0  0  0  0  0  0  0
    7.7400   -2.8670   24.2300 C   0  0  0  0  0  0  0  0  0  0  0  0
    6.1250   -4.7530   24.2880 N   0  0  0  0  0  0  0  0  0  0  0  0
    9.1400   -3.0100   24.0380 C   0  0  0  0  0  0  0  0  0  0  0  0
    9.9580   -2.5160   22.9280 C   0  0  0  0  0  0  0  0  0  0  0  0
   10.6520   -1.1950   23.2020 C   0  0  0  0  0  0  0  0  0  0  0  0
   10.0790   -0.1510   23.9340 C   0  0  0  0  0  0  0  0  0  0  0  0
   11.9520   -0.9710   22.6900 C   0  0  0  0  0  0  0  0  0  0  0  0
   12.6870   -1.9980   21.8950 C   0  0  0  0  0  0  0  0  0  0  0  0
   10.6640    1.0970   24.1930 C   0  0  0  0  0  0  0  0  0  0  0  0
   12.6630    0.3400   22.9180 C   0  0  0  0  0  0  0  0  0  0  0  0
   12.0630    1.3620   23.6300 C   0  0  0  0  0  0  0  0  0  0  0  0
  1  2  1  0
  1  3  2  0
  1  4  1  0
  4  5  1  0
  4  6  1  0
  5  7  1  0
  6  8  1  0
  7  9  1  1
  7 10  1  0
  8 10  1  0
  9 11  1  0
 11 12  1  0
 12 13  1  0
 13 14  2  0
 13 15  1  0
 15 16  1  0
 14 17  1  0
 15 18  2  0
 17 19  2  0
 18 19  1  0
M  END
