x0755_0-x0874_0-x0072_0
     RDKit          3D

 22 23  0  0  0  0  0  0  0  0999 V2000
    6.3360   -4.6130   20.5700 C   0  0  0  0  0  0  0  0  0  0  0  0
    7.3180   -3.5510   20.0510 C   0  0  0  0  0  0  0  0  0  0  0  0
    5.3000   -4.8560   19.9790 O   0  0  0  0  0  0  0  0  0  0  0  0
    6.6520   -5.3600   21.7210 N   0  0  0  0  0  0  0  0  0  0  0  0
    7.6270   -4.8740   22.7010 C   0  0  0  0  0  0  0  0  0  0  0  0
    5.6740   -6.0990   22.2560 C   0  0  0  0  0  0  0  0  0  0  0  0
    6.9440   -4.2310   23.8250 C   0  0  2  0  0  0  0  0  0  0  0  0
    4.9810   -5.6500   23.4140 C   0  0  0  0  0  0  0  0  0  0  0  0
    7.8770   -3.7540   24.8670 N   0  0  0  0  0  0  0  0  0  0  0  0
    5.8710   -5.0470   24.4300 N   0  0  0  0  0  0  0  0  0  0  0  0
    8.1370   -4.6940   26.2520 S   0  0  0  0  0  0  0  0  0  0  0  0
    9.0880   -3.1520   24.3060 C   0  0  0  0  0  0  0  0  0  0  0  0
    6.5210   -5.2040   26.7990 C   0  0  0  0  0  0  0  0  0  0  0  0
    8.9410   -5.8120   25.8260 O   0  0  0  0  0  0  0  0  0  0  0  0
    8.8490   -3.8250   27.3690 O   0  0  0  0  0  0  0  0  0  0  0  0
    8.7540   -1.9220   23.4430 C   0  0  0  0  0  0  0  0  0  0  0  0
    9.7500   -1.6240   22.4680 C   0  0  0  0  0  0  0  0  0  0  0  0
   10.6660   -0.6330   22.8890 C   0  0  0  0  0  0  0  0  0  0  0  0
   11.7780    0.2040   23.1760 C   0  0  0  0  0  0  0  0  0  0  0  0
   11.5380   -1.5150   22.1710 C   0  0  0  0  0  0  0  0  0  0  0  0
   13.0600    0.0150   22.7970 C   0  0  0  0  0  0  0  0  0  0  0  0
   13.2230   -1.3720   21.9190 S   0  0  0  0  0  0  0  0  0  0  0  0
  1  2  1  0
  1  3  2  0
  1  4  1  0
  4  5  1  0
  4  6  1  0
  5  7  1  0
  6  8  1  0
  7  9  1  1
  7 10  1  0
  8 10  1  0
 11  9  1  0
  9 12  1  0
 11 13  1  0
 11 14  2  0
 11 15  2  0
 12 16  1  0
 16 17  1  0
 17 18  1  0
 18 19  1  0
 18 20  2  0
 19 21  2  0
 20 22  1  0
 21 22  1  0
M  END
