x0759_1-x0755_1
     RDKit          3D

 22 23  0  0  0  0  0  0  0  0999 V2000
    4.7860   -5.2360   26.2880 S   0  0  0  0  0  0  0  0  0  0  0  0
    3.6620   -3.9030   26.0650 C   0  0  0  0  0  0  0  0  0  0  0  0
    2.3330   -4.1870   26.0370 C   0  0  0  0  0  0  0  0  0  0  0  0
    4.4800   -6.2840   25.3550 O   0  0  0  0  0  0  0  0  0  0  0  0
    6.0850   -4.6590   26.4550 O   0  0  0  0  0  0  0  0  0  0  0  0
    4.2060   -2.4840   25.9180 C   0  0  0  0  0  0  0  0  0  0  0  0
    1.9100   -5.4500   26.1540 F   0  0  0  0  0  0  0  0  0  0  0  0
    5.5740   -2.2830   25.9360 O   0  0  0  0  0  0  0  0  0  0  0  0
    3.1190   -1.4390   25.7680 C   0  0  0  0  0  0  0  0  0  0  0  0
    1.3730   -3.1780   25.8900 C   0  0  0  0  0  0  0  0  0  0  0  0
    6.2700   -2.1630   24.6860 C   0  0  0  0  0  0  0  0  0  0  0  0
    1.6480   -1.8190   25.7600 C   0  0  0  0  0  0  0  0  0  0  0  0
    5.4490   -2.6190   23.4550 C   0  0  0  0  0  0  0  0  0  0  0  0
    6.1690   -3.5990   22.5430 C   0  0  1  0  0  0  0  0  0  0  0  0
    6.5090   -2.9750   21.3910 N   0  0  0  0  0  0  0  0  0  0  0  0
    7.2800   -4.3740   23.2680 C   0  0  0  0  0  0  0  0  0  0  0  0
    6.3080   -3.4800   20.0790 C   0  0  0  0  0  0  0  0  0  0  0  0
    7.5890   -1.9620   21.5760 C   0  0  0  0  0  0  0  0  0  0  0  0
    8.5240   -3.6980   23.0930 O   0  0  0  0  0  0  0  0  0  0  0  0
    5.4000   -4.2790   19.8310 O   0  0  0  0  0  0  0  0  0  0  0  0
    7.2640   -3.0330   18.9750 C   0  0  0  0  0  0  0  0  0  0  0  0
    8.4670   -2.2930   22.7950 C   0  0  0  0  0  0  0  0  0  0  0  0
  1  2  1  0
  2  3  2  0
  1  4  2  0
  1  5  2  0
  2  6  1  0
  3  7  1  0
  6  8  1  0
  6  9  2  0
  3 10  1  0
  8 11  1  0
  9 12  1  0
 10 12  2  0
 11 13  1  0
 14 13  1  1
 14 15  1  0
 14 16  1  0
 15 17  1  0
 15 18  1  0
 16 19  1  0
 17 20  2  0
 17 21  1  0
 18 22  1  0
 19 22  1  0
M  END
