x0759_1-x0107_0
     RDKit          3D

 20 21  0  0  0  0  0  0  0  0999 V2000
   10.1870   -0.4980   22.3520 C   0  0  0  0  0  0  0  0  0  0  0  0
    8.9800    0.1040   21.6120 C   0  0  0  0  0  0  0  0  0  0  0  0
    8.9660    1.4680   21.2050 O   0  0  0  0  0  0  0  0  0  0  0  0
    7.8100   -0.7510   21.3250 N   0  0  0  0  0  0  0  0  0  0  0  0
    6.8660   -0.1660   20.3400 C   0  0  0  0  0  0  0  0  0  0  0  0
    7.8370   -2.2100   21.6520 C   0  0  1  0  0  0  0  0  0  0  0  0
    5.6240    0.5980   20.7390 C   0  0  0  0  0  0  0  0  0  0  0  0
    7.1660   -0.3320   18.8860 C   0  0  0  0  0  0  0  0  0  0  0  0
    8.2160   -2.2780   22.9970 C   0  0  0  0  0  0  0  0  0  0  0  0
    6.6980   -2.9070   21.2880 N   0  0  0  0  0  0  0  0  0  0  0  0
    5.3000    0.7730   22.2280 C   0  0  0  0  0  0  0  0  0  0  0  0
    6.4320   -3.4250   20.0210 C   0  0  0  0  0  0  0  0  0  0  0  0
    4.7820    1.1440   19.5770 C   0  0  0  0  0  0  0  0  0  0  0  0
    6.3720    0.1840   17.9160 N   0  0  0  0  0  0  0  0  0  0  0  0
    6.2060   -3.6690   22.2860 C   0  0  0  0  0  0  0  0  0  0  0  0
    8.3850   -3.6200   23.3990 O   0  0  0  0  0  0  0  0  0  0  0  0
    5.4830   -4.1980   19.7990 O   0  0  0  0  0  0  0  0  0  0  0  0
    7.3840   -3.0330   18.8880 C   0  0  0  0  0  0  0  0  0  0  0  0
    5.2700    0.8660   18.2870 C   0  0  0  0  0  0  0  0  0  0  0  0
    7.1700   -4.3720   23.2470 C   0  0  0  0  0  0  0  0  0  0  0  0
  1  2  1  0
  2  3  2  0
  2  4  1  0
  4  5  1  0
  6  4  1  1
  5  7  2  0
  5  8  1  0
  6  9  1  0
  6 10  1  0
  7 11  1  0
 10 12  1  0
  7 13  1  0
  8 14  2  0
 10 15  1  0
  9 16  1  0
 12 17  2  0
 12 18  1  0
 13 19  2  0
 14 19  1  0
 15 20  1  0
 16 20  1  0
M  END
