x0755_0-x0691_0-x1386_0
     RDKit          3D

 17 18  0  0  0  0  0  0  0  0999 V2000
    6.5540   -4.6390   20.6870 C   0  0  0  0  0  0  0  0  0  0  0  0
    7.7790   -3.7460   20.4160 C   0  0  0  0  0  0  0  0  0  0  0  0
    5.5450   -4.6480   19.9750 O   0  0  0  0  0  0  0  0  0  0  0  0
    6.6440   -5.4780   21.8030 N   0  0  0  0  0  0  0  0  0  0  0  0
    7.6760   -5.2580   22.8270 C   0  0  0  0  0  0  0  0  0  0  0  0
    5.4150   -6.0700   22.3170 C   0  0  0  0  0  0  0  0  0  0  0  0
    7.2030   -4.5710   24.1070 C   0  0  1  0  0  0  0  0  0  0  0  0
    4.8480   -5.1860   23.4230 C   0  0  0  0  0  0  0  0  0  0  0  0
    7.1770   -3.0420   23.9000 C   0  0  0  0  0  0  0  0  0  0  0  0
    5.8250   -5.0130   24.5280 N   0  0  0  0  0  0  0  0  0  0  0  0
    8.4360   -2.3940   23.2770 C   0  0  0  0  0  0  0  0  0  0  0  0
    9.8260   -2.6780   23.9010 C   0  0  0  0  0  0  0  0  0  0  0  0
   10.8540   -1.5660   23.7260 C   0  0  0  0  0  0  0  0  0  0  0  0
   11.9700   -1.6490   22.7240 C   0  0  0  0  0  0  0  0  0  0  0  0
   10.9410   -0.3520   24.4090 C   0  0  0  0  0  0  0  0  0  0  0  0
   12.7780   -0.5640   22.7090 C   0  0  0  0  0  0  0  0  0  0  0  0
   12.2610    0.6380   23.8860 S   0  0  0  0  0  0  0  0  0  0  0  0
  1  2  1  0
  1  3  2  0
  1  4  1  0
  4  5  1  0
  4  6  1  0
  5  7  1  0
  6  8  1  0
  7  9  1  6
  7 10  1  0
  8 10  1  0
  9 11  1  0
 11 12  1  0
 12 13  1  0
 13 14  1  0
 13 15  2  0
 14 16  2  0
 15 17  1  0
 16 17  1  0
M  END
