x0759_1-x0874_0
     RDKit          3D

 15 16  0  0  0  0  0  0  0  0999 V2000
    6.3020   -3.5180   20.0500 C   0  0  0  0  0  0  0  0  0  0  0  0
    7.2300   -3.0330   18.9500 C   0  0  0  0  0  0  0  0  0  0  0  0
    5.3490   -4.2490   19.7930 O   0  0  0  0  0  0  0  0  0  0  0  0
    6.5750   -3.1610   21.3600 N   0  0  0  0  0  0  0  0  0  0  0  0
    7.3060   -1.9740   21.8250 C   0  0  0  0  0  0  0  0  0  0  0  0
    6.3520   -4.0870   22.4790 C   0  0  0  0  0  0  0  0  0  0  0  0
    8.4800   -2.3240   22.7790 C   0  0  2  0  0  0  0  0  0  0  0  0
    7.3430   -4.1070   23.6450 C   0  0  0  0  0  0  0  0  0  0  0  0
    9.6680   -1.7660   21.9720 C   0  0  0  0  0  0  0  0  0  0  0  0
    8.5610   -3.4670   23.2370 O   0  0  0  0  0  0  0  0  0  0  0  0
   10.5890   -0.7130   22.5360 C   0  0  0  0  0  0  0  0  0  0  0  0
   11.6290    0.1660   22.9960 C   0  0  0  0  0  0  0  0  0  0  0  0
   11.6080   -1.6240   21.9850 C   0  0  0  0  0  0  0  0  0  0  0  0
   12.9820    0.0350   22.8670 C   0  0  0  0  0  0  0  0  0  0  0  0
   13.2880   -1.3700   22.0620 S   0  0  0  0  0  0  0  0  0  0  0  0
  1  2  1  0
  1  3  2  0
  1  4  1  0
  4  5  1  0
  4  6  1  0
  5  7  1  0
  6  8  1  0
  7  9  1  6
  7 10  1  0
  8 10  1  0
  9 11  1  0
 11 12  1  0
 11 13  2  0
 12 14  2  0
 13 15  1  0
 14 15  1  0
M  END
