x0759_1-x0104_0
     RDKit          3D

 20 20  0  0  0  0  0  0  0  0999 V2000
   12.9450    4.1690   22.6790 C   0  0  0  0  0  0  0  0  0  0  0  0
   12.4730    5.5380   23.1030 C   0  0  0  0  0  0  0  0  0  0  0  0
   11.2290    5.8360   22.5800 N   0  0  0  0  0  0  0  0  0  0  0  0
   11.8680    3.2480   22.1580 C   0  0  0  0  0  0  0  0  0  0  0  0
   11.1730    2.3370   23.1890 C   0  0  0  0  0  0  0  0  0  0  0  0
   10.1340    6.1740   23.4420 C   0  0  0  0  0  0  0  0  0  0  0  0
   10.6090    1.0350   22.4920 C   0  0  0  0  0  0  0  0  0  0  0  0
    8.8990    6.5450   22.6240 C   0  0  0  0  0  0  0  0  0  0  0  0
   10.1520    6.1790   24.6660 O   0  0  0  0  0  0  0  0  0  0  0  0
    9.9670   -0.0750   23.3170 C   0  0  0  0  0  0  0  0  0  0  0  0
    9.6950   -1.2680   22.6030 C   0  0  0  0  0  0  0  0  0  0  0  0
    8.4190   -1.8930   22.6720 C   0  0  1  0  0  0  0  0  0  0  0  0
    7.6260   -1.8500   21.5210 C   0  0  0  0  0  0  0  0  0  0  0  0
    8.6230   -3.2610   23.0830 O   0  0  0  0  0  0  0  0  0  0  0  0
    6.8450   -2.9640   21.3060 N   0  0  0  0  0  0  0  0  0  0  0  0
    7.4250   -3.9990   23.3690 C   0  0  0  0  0  0  0  0  0  0  0  0
    6.4600   -3.4450   20.0460 C   0  0  0  0  0  0  0  0  0  0  0  0
    6.3790   -3.6760   22.4960 C   0  0  0  0  0  0  0  0  0  0  0  0
    5.4900   -4.1860   19.8190 O   0  0  0  0  0  0  0  0  0  0  0  0
    7.3640   -3.0330   18.9040 C   0  0  0  0  0  0  0  0  0  0  0  0
  1  2  1  0
  2  3  1  0
  1  4  1  0
  4  5  1  0
  3  6  1  0
  5  7  1  0
  6  8  1  0
  6  9  2  0
  7 10  1  0
 10 11  1  0
 12 11  1  6
 12 13  1  0
 12 14  1  0
 13 15  1  0
 14 16  1  0
 15 17  1  0
 15 18  1  0
 16 18  1  0
 17 19  2  0
 17 20  1  0
M  END
