x0755_0-x0692_0-x1336_1
     RDKit          3D

 29 31  0  0  0  0  0  0  0  0999 V2000
    7.1910   -2.2230   24.9010 S   0  0  1  0  0  0  0  0  0  0  0  0
    8.3060   -1.4580   24.2020 N   0  0  0  0  0  0  0  0  0  0  0  0
    9.2700   -2.1770   23.3570 C   0  0  0  0  0  0  0  0  0  0  0  0
    6.2530   -1.2960   25.5100 O   0  0  0  0  0  0  0  0  0  0  0  0
    6.3840   -3.1560   23.6480 C   0  0  0  0  0  0  0  0  0  0  0  0
    7.7130   -3.4600   26.0710 C   0  0  0  0  0  0  0  0  0  0  0  0
    6.7260   -3.8870   27.1390 C   0  0  0  0  0  0  0  0  0  0  0  0
    8.9790   -4.1030   26.0800 C   0  0  0  0  0  0  0  0  0  0  0  0
    6.7560   -4.5990   23.7940 C   0  0  1  0  0  0  0  0  0  0  0  0
   10.1300   -3.8530   25.1250 C   0  0  0  0  0  0  0  0  0  0  0  0
    7.0310   -4.9530   28.1750 C   0  0  0  0  0  0  0  0  0  0  0  0
    9.2640   -5.1890   27.1500 C   0  0  0  0  0  0  0  0  0  0  0  0
    5.4750   -5.2920   24.1150 N   0  0  0  0  0  0  0  0  0  0  0  0
    7.4810   -5.2470   22.8330 C   0  0  0  0  0  0  0  0  0  0  0  0
   10.5030   -1.3310   23.2870 C   0  0  0  0  0  0  0  0  0  0  0  0
    6.0280   -5.3560   29.2100 C   0  0  0  0  0  0  0  0  0  0  0  0
    8.2970   -5.5360   28.0970 C   0  0  0  0  0  0  0  0  0  0  0  0
    6.6460   -5.4970   21.6730 N   0  0  0  0  0  0  0  0  0  0  0  0
    4.7250   -5.7420   22.9300 C   0  0  0  0  0  0  0  0  0  0  0  0
   10.3040    0.0680   23.5000 C   0  0  0  0  0  0  0  0  0  0  0  0
   11.7610   -1.8850   23.0250 C   0  0  0  0  0  0  0  0  0  0  0  0
    6.5090   -4.5850   20.6190 C   0  0  0  0  0  0  0  0  0  0  0  0
    5.5480   -6.3700   21.9960 C   0  0  0  0  0  0  0  0  0  0  0  0
   11.3990    0.8970   23.4330 C   0  0  0  0  0  0  0  0  0  0  0  0
   12.8720   -1.0640   22.9600 C   0  0  0  0  0  0  0  0  0  0  0  0
    5.4800   -4.5340   19.9390 O   0  0  0  0  0  0  0  0  0  0  0  0
    7.7420   -3.7030   20.3780 C   0  0  0  0  0  0  0  0  0  0  0  0
   11.1730    2.3540   23.6370 C   0  0  0  0  0  0  0  0  0  0  0  0
   12.6730    0.4180   23.1770 C   0  0  0  0  0  0  0  0  0  0  0  0
  1  2  2  0
  2  3  1  0
  1  4  2  0
  1  5  1  6
  1  6  1  0
  6  7  2  0
  6  8  1  0
  9  5  1  6
  8 10  1  0
  7 11  1  0
  8 12  2  0
  9 13  1  0
  9 14  1  0
  3 15  1  0
 11 16  1  0
 11 17  2  0
 12 17  1  0
 14 18  1  0
 13 19  1  0
 15 20  2  0
 15 21  1  0
 18 22  1  0
 18 23  1  0
 19 23  1  0
 20 24  1  0
 21 25  2  0
 22 26  2  0
 22 27  1  0
 24 28  1  0
 24 29  2  0
 25 29  1  0
M  END
