x0755_0-x0981_0
     RDKit          3D

  9  9  0  0  0  0  0  0  0  0999 V2000
    6.4380   -4.6910   20.7040 C   0  0  0  0  0  0  0  0  0  0  0  0
    7.5630   -3.7160   20.3840 C   0  0  0  0  0  0  0  0  0  0  0  0
    5.4350   -4.8900   20.0090 O   0  0  0  0  0  0  0  0  0  0  0  0
    6.6260   -5.3960   21.8890 N   0  0  0  0  0  0  0  0  0  0  0  0
    7.4100   -4.8750   22.9950 C   0  0  0  0  0  0  0  0  0  0  0  0
    5.5300   -6.2470   22.3430 C   0  0  0  0  0  0  0  0  0  0  0  0
    6.4480   -4.2460   23.9980 C   0  0  0  0  0  0  0  0  0  0  0  0
    4.6960   -5.6080   23.2640 C   0  0  0  0  0  0  0  0  0  0  0  0
    5.3400   -5.1450   24.3520 N   0  0  0  0  0  0  0  0  0  0  0  0
  1  2  1  0
  1  3  2  0
  1  4  1  0
  4  5  1  0
  4  6  1  0
  5  7  1  0
  6  8  1  0
  7  9  1  0
  8  9  1  0
M  END
