x0755_0-x0689_0-x1386_0
     RDKit          3D

 25 27  0  0  0  0  0  0  0  0999 V2000
    6.2720   -4.5090   20.4310 C   0  0  0  0  0  0  0  0  0  0  0  0
    7.2190   -3.4520   19.8430 C   0  0  0  0  0  0  0  0  0  0  0  0
    5.1840   -4.6330   19.9060 O   0  0  0  0  0  0  0  0  0  0  0  0
    6.6450   -5.3070   21.5160 N   0  0  0  0  0  0  0  0  0  0  0  0
    7.4400   -4.7920   22.6000 C   0  0  0  0  0  0  0  0  0  0  0  0
    5.7430   -6.3430   22.0150 C   0  0  0  0  0  0  0  0  0  0  0  0
    6.5670   -4.1290   23.6640 C   0  0  2  0  0  0  0  0  0  0  0  0
    4.8620   -5.8480   23.1300 C   0  0  0  0  0  0  0  0  0  0  0  0
    7.4660   -3.4400   24.6900 C   0  0  0  0  0  0  0  0  0  0  0  0
    5.6280   -5.1720   24.2040 N   0  0  0  0  0  0  0  0  0  0  0  0
    4.8530   -5.0420   25.7060 S   0  0  0  0  0  0  0  0  0  0  0  0
    8.3550   -2.3080   24.1180 C   0  0  0  0  0  0  0  0  0  0  0  0
    4.0980   -6.2630   25.8970 O   0  0  0  0  0  0  0  0  0  0  0  0
    5.9390   -4.5370   26.8210 O   0  0  0  0  0  0  0  0  0  0  0  0
    9.7580   -2.7430   23.6070 C   0  0  0  0  0  0  0  0  0  0  0  0
    3.5550   -3.8150   25.6360 C   0  0  0  0  0  0  0  0  0  0  0  0
    3.9740   -2.1760   25.9680 S   0  0  0  0  0  0  0  0  0  0  0  0
    2.0680   -3.9620   25.3270 C   0  0  0  0  0  0  0  0  0  0  0  0
   10.7910   -1.6430   23.5780 C   0  0  0  0  0  0  0  0  0  0  0  0
    2.3610   -1.6750   25.7390 C   0  0  0  0  0  0  0  0  0  0  0  0
    1.4570   -2.7220   25.4040 C   0  0  0  0  0  0  0  0  0  0  0  0
   11.9820   -1.5570   22.6440 C   0  0  0  0  0  0  0  0  0  0  0  0
   10.8420   -0.5150   24.3870 C   0  0  0  0  0  0  0  0  0  0  0  0
   12.7950   -0.4700   22.7760 C   0  0  0  0  0  0  0  0  0  0  0  0
   12.1800    0.5160   24.0250 S   0  0  0  0  0  0  0  0  0  0  0  0
  1  2  1  0
  1  3  2  0
  1  4  1  0
  4  5  1  0
  4  6  1  0
  5  7  1  0
  6  8  1  0
  7  9  1  1
  7 10  1  0
  8 10  1  0
 10 11  1  0
  9 12  1  0
 11 13  2  0
 11 14  2  0
 12 15  1  0
 11 16  1  0
 16 17  1  0
 16 18  2  0
 15 19  1  0
 17 20  1  0
 18 21  1  0
 20 21  2  0
 19 22  1  0
 19 23  2  0
 22 24  2  0
 23 25  1  0
 24 25  1  0
M  END
