x0755_0-x0387_1
     RDKit          3D

 17 18  0  0  0  0  0  0  0  0999 V2000
    6.4460   -4.6860   20.7040 C   0  0  0  0  0  0  0  0  0  0  0  0
    7.6350   -3.7600   20.4710 C   0  0  0  0  0  0  0  0  0  0  0  0
    5.4430   -4.7750   19.9850 O   0  0  0  0  0  0  0  0  0  0  0  0
    6.5750   -5.4880   21.8240 N   0  0  0  0  0  0  0  0  0  0  0  0
    7.3970   -5.1520   22.9610 C   0  0  0  0  0  0  0  0  0  0  0  0
    5.4270   -6.2680   22.2310 C   0  0  0  0  0  0  0  0  0  0  0  0
    6.5380   -4.7250   24.1630 C   0  0  1  0  0  0  0  0  0  0  0  0
    4.5950   -5.5260   23.0540 C   0  0  0  0  0  0  0  0  0  0  0  0
    5.1900   -5.3280   24.2380 N   0  0  0  0  0  0  0  0  0  0  0  0
    7.2280   -5.0920   25.4360 C   0  0  0  0  0  0  0  0  0  0  0  0
    8.1730   -4.1310   26.0850 C   0  0  2  0  0  0  0  0  0  0  0  0
    8.3440   -2.9000   25.1920 C   0  0  0  0  0  0  0  0  0  0  0  0
    9.3240   -4.7470   26.5660 C   0  0  2  0  0  0  0  0  0  0  0  0
    9.4410   -4.4170   27.9460 O   0  0  0  0  0  0  0  0  0  0  0  0
    9.5820   -2.8480   24.4050 N   0  0  0  0  0  0  0  0  0  0  0  0
   10.5440   -4.5460   25.9280 C   0  0  0  0  0  0  0  0  0  0  0  0
   10.7440   -3.4000   25.0920 C   0  0  0  0  0  0  0  0  0  0  0  0
  1  2  1  0
  1  3  2  0
  1  4  1  0
  4  5  1  0
  4  6  1  0
  5  7  1  0
  6  8  1  0
  7  9  1  0
  8  9  1  0
  7 10  1  1
 11 10  1  6
 11 12  1  0
 11 13  1  0
 13 14  1  1
 12 15  1  0
 13 16  1  0
 15 17  1  0
 16 17  1  0
M  END
