x0755_0-x0874_0
     RDKit          3D

 17 18  0  0  0  0  0  0  0  0999 V2000
    6.3630   -4.6440   20.5740 C   0  0  0  0  0  0  0  0  0  0  0  0
    7.2500   -3.5320   20.0130 C   0  0  0  0  0  0  0  0  0  0  0  0
    5.3330   -4.9470   19.9900 O   0  0  0  0  0  0  0  0  0  0  0  0
    6.7010   -5.3600   21.7180 N   0  0  0  0  0  0  0  0  0  0  0  0
    7.7510   -5.0420   22.6140 C   0  0  0  0  0  0  0  0  0  0  0  0
    5.6460   -6.1230   22.3250 C   0  0  0  0  0  0  0  0  0  0  0  0
    7.3070   -4.2900   23.8640 C   0  0  1  0  0  0  0  0  0  0  0  0
    4.9840   -5.1090   23.2750 C   0  0  0  0  0  0  0  0  0  0  0  0
    7.4960   -2.7760   23.6190 C   0  0  0  0  0  0  0  0  0  0  0  0
    5.9010   -4.5670   24.3080 N   0  0  0  0  0  0  0  0  0  0  0  0
    8.9820   -2.3320   23.6790 C   0  0  0  0  0  0  0  0  0  0  0  0
    9.5740   -1.6130   22.4490 C   0  0  0  0  0  0  0  0  0  0  0  0
   10.5610   -0.6420   22.7820 C   0  0  0  0  0  0  0  0  0  0  0  0
   11.7000    0.1670   23.0150 C   0  0  0  0  0  0  0  0  0  0  0  0
   11.4190   -1.6470   22.1790 C   0  0  0  0  0  0  0  0  0  0  0  0
   13.0060   -0.0480   22.7310 C   0  0  0  0  0  0  0  0  0  0  0  0
   13.1380   -1.5140   22.0040 S   0  0  0  0  0  0  0  0  0  0  0  0
  1  2  1  0
  1  3  2  0
  1  4  1  0
  4  5  1  0
  4  6  1  0
  5  7  1  0
  6  8  1  0
  7  9  1  6
  7 10  1  0
  8 10  1  0
  9 11  1  0
 11 12  1  0
 12 13  1  0
 13 14  1  0
 13 15  2  0
 14 16  2  0
 15 17  1  0
 16 17  1  0
M  END
