x0755_0-x0874_0-x1336_1
     RDKit          3D

 28 30  0  0  0  0  0  0  0  0999 V2000
    7.1310   -2.0050   25.2730 S   0  0  1  0  0  0  0  0  0  0  0  0
    8.0600   -0.8060   25.4820 N   0  0  0  0  0  0  0  0  0  0  0  0
    8.9990   -0.4800   24.3650 C   0  0  0  0  0  0  0  0  0  0  0  0
    5.7780   -1.6500   25.6470 O   0  0  0  0  0  0  0  0  0  0  0  0
    7.1540   -2.5190   23.5930 C   0  0  0  0  0  0  0  0  0  0  0  0
    7.6650   -3.3960   26.2460 C   0  0  0  0  0  0  0  0  0  0  0  0
    6.8080   -3.8200   27.2730 C   0  0  0  0  0  0  0  0  0  0  0  0
    8.8830   -4.0820   26.0290 C   0  0  0  0  0  0  0  0  0  0  0  0
    6.5200   -3.8660   23.2490 C   0  0  2  0  0  0  0  0  0  0  0  0
    9.9230   -3.7890   24.9910 C   0  0  0  0  0  0  0  0  0  0  0  0
   10.4480   -0.8110   24.8310 C   0  0  0  0  0  0  0  0  0  0  0  0
    7.0580   -4.8870   28.1180 C   0  0  0  0  0  0  0  0  0  0  0  0
    9.1630   -5.2620   26.9640 C   0  0  0  0  0  0  0  0  0  0  0  0
    5.6880   -4.6020   24.2020 N   0  0  0  0  0  0  0  0  0  0  0  0
    7.5900   -4.7990   22.6770 C   0  0  0  0  0  0  0  0  0  0  0  0
    6.0770   -5.2720   29.1820 C   0  0  0  0  0  0  0  0  0  0  0  0
    8.2370   -5.5820   27.9380 C   0  0  0  0  0  0  0  0  0  0  0  0
    6.7680   -5.4610   21.6980 N   0  0  0  0  0  0  0  0  0  0  0  0
    4.9390   -5.6590   23.4880 C   0  0  0  0  0  0  0  0  0  0  0  0
   11.5130   -0.7830   23.7880 C   0  0  0  0  0  0  0  0  0  0  0  0
    6.3530   -4.7680   20.5610 C   0  0  0  0  0  0  0  0  0  0  0  0
    5.7460   -6.3220   22.3110 C   0  0  0  0  0  0  0  0  0  0  0  0
   12.3900    0.2620   23.6500 C   0  0  0  0  0  0  0  0  0  0  0  0
   11.7540   -1.7590   22.8770 C   0  0  0  0  0  0  0  0  0  0  0  0
    5.3240   -5.0920   19.9990 O   0  0  0  0  0  0  0  0  0  0  0  0
    7.1730   -3.5980   19.9690 C   0  0  0  0  0  0  0  0  0  0  0  0
   13.3170    0.0670   22.6280 C   0  0  0  0  0  0  0  0  0  0  0  0
   13.0760   -1.4250   21.8420 S   0  0  0  0  0  0  0  0  0  0  0  0
  1  2  2  0
  2  3  1  0
  1  4  2  0
  1  5  1  6
  1  6  1  0
  6  7  2  0
  6  8  1  0
  9  5  1  1
  8 10  1  0
  3 11  1  0
  7 12  1  0
  8 13  2  0
  9 14  1  0
  9 15  1  0
 12 16  1  0
 12 17  2  0
 13 17  1  0
 15 18  1  0
 14 19  1  0
 11 20  1  0
 18 21  1  0
 18 22  1  0
 19 22  1  0
 20 23  1  0
 20 24  2  0
 21 25  2  0
 21 26  1  0
 23 27  2  0
 24 28  1  0
 27 28  1  0
M  END
