x0759_1-x0540_3
     RDKit          3D

 16 16  0  0  0  0  0  0  0  0999 V2000
    6.3690   -3.5250   20.0600 C   0  0  0  0  0  0  0  0  0  0  0  0
    7.2870   -3.0540   18.9510 C   0  0  0  0  0  0  0  0  0  0  0  0
    5.4060   -4.2580   19.8060 O   0  0  0  0  0  0  0  0  0  0  0  0
    6.6830   -3.1320   21.3770 N   0  0  0  0  0  0  0  0  0  0  0  0
    7.7060   -2.0640   21.5980 C   0  0  1  0  0  0  0  0  0  0  0  0
    6.3310   -3.9640   22.5090 C   0  0  0  0  0  0  0  0  0  0  0  0
    7.0640   -0.6810   21.4720 C   0  0  0  0  0  0  0  0  0  0  0  0
    8.1880   -2.2990   22.9000 C   0  0  0  0  0  0  0  0  0  0  0  0
    7.3090   -4.3890   23.4120 C   0  0  0  0  0  0  0  0  0  0  0  0
    5.5310   -0.8630   21.2130 C   0  0  0  0  0  0  0  0  0  0  0  0
    8.4480   -3.5460   23.3840 O   0  0  0  0  0  0  0  0  0  0  0  0
    4.7160    0.4690   21.3130 C   0  0  0  0  0  0  0  0  0  0  0  0
    5.2820    1.4760   22.3230 C   0  0  0  0  0  0  0  0  0  0  0  0
    4.2860    2.4900   22.6880 N   0  0  0  0  0  0  0  0  0  0  0  0
    3.0630    2.1380   23.4150 C   0  0  0  0  0  0  0  0  0  0  0  0
    2.9080    1.4790   24.4400 O   0  0  0  0  0  0  0  0  0  0  0  0
  1  2  1  0
  1  3  2  0
  1  4  1  0
  4  5  1  0
  4  6  1  0
  5  7  1  1
  5  8  1  0
  6  9  1  0
  7 10  1  0
  8 11  1  0
  9 11  1  0
 10 12  1  0
 12 13  1  0
 13 14  1  0
 14 15  1  0
 15 16  2  0
M  END
