x0755_0-x1093_0
     RDKit          3D

 18 19  0  0  0  0  0  0  0  0999 V2000
    6.5110   -4.6630   20.6810 C   0  0  0  0  0  0  0  0  0  0  0  0
    7.6520   -3.7160   20.3200 C   0  0  0  0  0  0  0  0  0  0  0  0
    5.4810   -4.7530   19.9910 O   0  0  0  0  0  0  0  0  0  0  0  0
    6.6760   -5.4620   21.8030 N   0  0  0  0  0  0  0  0  0  0  0  0
    7.6630   -5.2080   22.7910 C   0  0  0  0  0  0  0  0  0  0  0  0
    5.5000   -6.0850   22.3380 C   0  0  0  0  0  0  0  0  0  0  0  0
    7.1810   -4.2750   23.8980 C   0  0  1  0  0  0  0  0  0  0  0  0
    4.8650   -5.0520   23.2920 C   0  0  0  0  0  0  0  0  0  0  0  0
    7.4510   -2.8340   23.4400 C   0  0  0  0  0  0  0  0  0  0  0  0
    5.7780   -4.5410   24.3430 N   0  0  0  0  0  0  0  0  0  0  0  0
    8.8860   -2.3380   23.7630 C   0  0  0  0  0  0  0  0  0  0  0  0
    9.8150   -1.8420   22.6660 C   0  0  1  0  0  0  0  0  0  0  0  0
    9.5830   -0.5440   22.3000 N   0  0  0  0  0  0  0  0  0  0  0  0
   11.1880   -2.1610   22.7630 C   0  0  0  0  0  0  0  0  0  0  0  0
   10.5620    0.3990   22.8810 C   0  0  0  0  0  0  0  0  0  0  0  0
   11.9470   -1.3260   23.4920 N   0  0  0  0  0  0  0  0  0  0  0  0
   13.3110   -1.8050   23.5740 C   0  0  0  0  0  0  0  0  0  0  0  0
   11.9010    0.0510   23.0630 C   0  0  0  0  0  0  0  0  0  0  0  0
  1  2  1  0
  1  3  2  0
  1  4  1  0
  4  5  1  0
  4  6  1  0
  5  7  1  0
  6  8  1  0
  7  9  1  6
  7 10  1  0
  8 10  1  0
  9 11  1  0
 12 11  1  1
 12 13  1  0
 12 14  1  0
 13 15  1  0
 14 16  1  0
 16 17  1  0
 15 18  1  0
 16 18  1  0
M  END
