x0752_0-x0692_0
     RDKit          3D

 14 14  0  0  0  0  0  0  0  0999 V2000
    6.8220   -4.0940   21.7310 N   0  0  0  0  0  0  0  0  0  0  0  0
    6.4470   -4.1010   20.3880 C   0  0  0  0  0  0  0  0  0  0  0  0
    7.2420   -3.2910   19.3600 C   0  0  0  0  0  0  0  0  0  0  0  0
    7.5310   -2.9560   22.3210 C   0  0  0  0  0  0  0  0  0  0  0  0
    5.4960   -4.7830   19.9950 O   0  0  0  0  0  0  0  0  0  0  0  0
    8.9940   -3.2750   22.6120 C   0  0  0  0  0  0  0  0  0  0  0  0
    9.7020   -2.7360   23.8780 C   0  0  0  0  0  0  0  0  0  0  0  0
   10.6970   -1.6010   23.6230 C   0  0  0  0  0  0  0  0  0  0  0  0
   10.2840   -0.1700   23.8890 C   0  0  0  0  0  0  0  0  0  0  0  0
   11.9810   -1.8150   23.1540 C   0  0  0  0  0  0  0  0  0  0  0  0
   11.2140    0.8350   23.6390 C   0  0  0  0  0  0  0  0  0  0  0  0
   12.8940   -0.7750   22.9170 C   0  0  0  0  0  0  0  0  0  0  0  0
   10.7400    2.2580   23.9070 C   0  0  0  0  0  0  0  0  0  0  0  0
   12.4950    0.5380   23.1650 C   0  0  0  0  0  0  0  0  0  0  0  0
  1  2  1  0
  2  3  1  0
  1  4  1  0
  2  5  2  0
  4  6  1  0
  6  7  1  0
  7  8  1  0
  8  9  2  0
  8 10  1  0
  9 11  1  0
 10 12  2  0
 11 13  1  0
 11 14  2  0
 12 14  1  0
M  END
