x0759_1-x0946_0
     RDKit          3D

 23 24  0  0  0  0  0  0  0  0999 V2000
    9.0810    5.1770   22.6860 N   0  0  0  0  0  0  0  0  0  0  0  0
   10.4320    5.2750   23.6810 S   0  0  0  0  0  0  0  0  0  0  0  0
    9.9100    5.4840   25.0130 O   0  0  0  0  0  0  0  0  0  0  0  0
   11.3870    6.2030   23.1050 O   0  0  0  0  0  0  0  0  0  0  0  0
   11.1340    3.6430   23.5070 C   0  0  0  0  0  0  0  0  0  0  0  0
   12.4260    3.5400   22.9660 C   0  0  0  0  0  0  0  0  0  0  0  0
   10.4550    2.4470   23.8910 C   0  0  0  0  0  0  0  0  0  0  0  0
   13.0360    2.1760   22.8330 C   0  0  0  0  0  0  0  0  0  0  0  0
   10.9770    1.1310   23.7820 C   0  0  0  0  0  0  0  0  0  0  0  0
   12.3570    0.9100   23.2260 C   0  0  0  0  0  0  0  0  0  0  0  0
   12.8490   -0.3720   23.1390 O   0  0  0  0  0  0  0  0  0  0  0  0
   11.9810   -1.5100   23.2430 C   0  0  0  0  0  0  0  0  0  0  0  0
   11.0310   -1.6480   22.0520 C   0  0  0  0  0  0  0  0  0  0  0  0
    9.9720   -2.7160   22.2550 C   0  0  0  0  0  0  0  0  0  0  0  0
    8.5830   -2.2970   22.7610 C   0  0  1  0  0  0  0  0  0  0  0  0
    7.6850   -2.0130   21.7140 C   0  0  0  0  0  0  0  0  0  0  0  0
    8.1780   -3.3420   23.6730 O   0  0  0  0  0  0  0  0  0  0  0  0
    6.7520   -3.1030   21.3480 N   0  0  0  0  0  0  0  0  0  0  0  0
    7.5270   -4.4600   23.0750 C   0  0  0  0  0  0  0  0  0  0  0  0
    6.4500   -3.4930   20.0420 C   0  0  0  0  0  0  0  0  0  0  0  0
    6.3880   -4.0460   22.4030 C   0  0  0  0  0  0  0  0  0  0  0  0
    5.4640   -4.2030   19.7920 O   0  0  0  0  0  0  0  0  0  0  0  0
    7.3830   -3.0540   18.9210 C   0  0  0  0  0  0  0  0  0  0  0  0
  2  1  1  0
  2  3  2  0
  2  4  2  0
  2  5  1  0
  5  6  2  0
  5  7  1  0
  6  8  1  0
  7  9  2  0
  8 10  2  0
  9 10  1  0
 10 11  1  0
 11 12  1  0
 12 13  1  0
 13 14  1  0
 15 14  1  6
 15 16  1  0
 15 17  1  0
 16 18  1  0
 17 19  1  0
 18 20  1  0
 18 21  1  0
 19 21  1  0
 20 22  2  0
 20 23  1  0
M  END
