x0752_1-x0195_0
     RDKit          3D

 29 33  0  0  0  0  0  0  0  0999 V2000
    9.5690   -0.3900   24.8480 C   0  0  0  0  0  0  0  0  0  0  0  0
    8.3630   -0.9620   24.1220 C   0  0  0  0  0  0  0  0  0  0  0  0
    8.2120   -2.4690   24.3390 C   0  0  0  0  0  0  0  0  0  0  0  0
   10.7240   -0.2830   23.9680 N   0  0  0  0  0  0  0  0  0  0  0  0
   11.2470    1.0300   23.6060 C   0  0  0  0  0  0  0  0  0  0  0  0
   11.4580   -1.5360   23.6740 C   0  0  0  0  0  0  0  0  0  0  0  0
    7.4020   -3.0380   23.2030 C   0  0  1  0  0  0  0  0  0  0  0  0
   12.5180    1.0210   23.0950 C   0  0  0  0  0  0  0  0  0  0  0  0
   12.4920   -1.3230   22.7640 C   0  0  0  0  0  0  0  0  0  0  0  0
   10.5670    2.2550   23.7410 C   0  0  0  0  0  0  0  0  0  0  0  0
    8.1180   -4.3180   22.8800 C   0  0  0  0  0  0  0  0  0  0  0  0
   13.2210   -0.1640   22.9450 C   0  0  0  0  0  0  0  0  0  0  0  0
   13.0980    2.2430   22.7270 C   0  0  0  0  0  0  0  0  0  0  0  0
   11.1570    3.4690   23.3630 C   0  0  0  0  0  0  0  0  0  0  0  0
    6.0400   -3.5220   23.5650 C   0  0  0  0  0  0  0  0  0  0  0  0
   10.2640    5.0020   23.5420 S   0  0  0  0  0  0  0  0  0  0  0  0
    7.1180   -5.3900   22.5260 C   0  0  0  0  0  0  0  0  0  0  0  0
   12.4440    3.4610   22.8470 C   0  0  0  0  0  0  0  0  0  0  0  0
    5.8710   -4.8790   23.1710 C   0  0  0  0  0  0  0  0  0  0  0  0
    5.0550   -2.7790   24.1980 C   0  0  0  0  0  0  0  0  0  0  0  0
   10.1180    5.4020   24.9140 O   0  0  0  0  0  0  0  0  0  0  0  0
    9.1110    4.9660   22.6870 O   0  0  0  0  0  0  0  0  0  0  0  0
   11.3520    6.1010   22.9000 N   0  0  0  0  0  0  0  0  0  0  0  0
    4.7020   -5.5970   23.3750 C   0  0  0  0  0  0  0  0  0  0  0  0
    3.8880   -3.4440   24.4250 C   0  0  0  0  0  0  0  0  0  0  0  0
    3.7070   -4.8780   24.0040 C   0  0  0  0  0  0  0  0  0  0  0  0
    2.7690   -2.9740   25.0230 O   0  0  0  0  0  0  0  0  0  0  0  0
    2.4660   -5.3070   24.3370 O   0  0  0  0  0  0  0  0  0  0  0  0
    2.0100   -4.2010   25.1640 C   0  0  0  0  0  0  0  0  0  0  0  0
  1  2  1  0
  2  3  1  0
  1  4  1  0
  4  5  1  0
  4  6  1  0
  7  3  1  1
  5  8  2  0
  6  9  1  0
  5 10  1  0
  7 11  1  0
  8 12  1  0
  9 12  1  0
  8 13  1  0
 10 14  2  0
  7 15  1  0
 14 16  1  0
 11 17  1  0
 13 18  2  0
 14 18  1  0
 15 19  2  0
 17 19  1  0
 15 20  1  0
 16 21  2  0
 16 22  2  0
 16 23  1  0
 19 24  1  0
 20 25  2  0
 24 26  2  0
 25 26  1  0
 25 27  1  0
 26 28  1  0
 27 29  1  0
 28 29  1  0
M  END
