x0755_0-x1348_1-x0692_0
     RDKit          3D

 24 26  0  0  0  0  0  0  0  0999 V2000
    6.3040   -4.5070   20.5310 C   0  0  0  0  0  0  0  0  0  0  0  0
    7.2150   -3.4480   19.8840 C   0  0  0  0  0  0  0  0  0  0  0  0
    5.2700   -4.7900   19.9520 O   0  0  0  0  0  0  0  0  0  0  0  0
    6.6110   -5.1700   21.7140 N   0  0  0  0  0  0  0  0  0  0  0  0
    7.4250   -4.3970   22.6720 C   0  0  0  0  0  0  0  0  0  0  0  0
    5.8030   -6.2110   22.3800 C   0  0  0  0  0  0  0  0  0  0  0  0
    7.3520   -5.0470   24.0880 C   0  0  1  0  0  0  0  0  0  0  0  0
    5.0260   -5.6500   23.5860 C   0  0  2  0  0  0  0  0  0  0  0  0
    8.3340   -4.3540   25.0710 C   0  0  2  0  0  0  0  0  0  0  0  0
    5.9630   -5.0710   24.5970 N   0  0  0  0  0  0  0  0  0  0  0  0
    4.1430   -6.7730   24.2840 C   0  0  0  0  0  0  0  0  0  0  0  0
    7.7310   -4.2360   26.3840 O   0  0  0  0  0  0  0  0  0  0  0  0
    8.7790   -2.9200   24.6590 C   0  0  0  0  0  0  0  0  0  0  0  0
    5.5740   -5.6440   25.8590 C   0  0  0  0  0  0  0  0  0  0  0  0
    4.4810   -6.6580   25.6340 C   0  0  0  0  0  0  0  0  0  0  0  0
    8.2590   -5.1180   27.3770 C   0  0  0  0  0  0  0  0  0  0  0  0
    9.7120   -2.8530   23.4360 C   0  0  0  0  0  0  0  0  0  0  0  0
   10.6140   -1.6420   23.3310 C   0  0  0  0  0  0  0  0  0  0  0  0
   10.1940   -0.3700   23.7410 C   0  0  0  0  0  0  0  0  0  0  0  0
   11.9110   -1.7990   22.8020 C   0  0  0  0  0  0  0  0  0  0  0  0
   11.0820    0.7070   23.6090 C   0  0  0  0  0  0  0  0  0  0  0  0
   12.7730   -0.7070   22.6950 C   0  0  0  0  0  0  0  0  0  0  0  0
   10.6900    2.0960   24.0040 C   0  0  0  0  0  0  0  0  0  0  0  0
   12.3660    0.5560   23.0990 C   0  0  0  0  0  0  0  0  0  0  0  0
  1  2  1  0
  1  3  2  0
  1  4  1  0
  4  5  1  0
  4  6  1  0
  7  5  1  6
  8  6  1  6
  7  9  1  0
  7 10  1  0
  8 10  1  0
  8 11  1  0
  9 12  1  0
  9 13  1  6
 10 14  1  0
 11 15  1  0
 14 15  2  0
 12 16  1  0
 13 17  1  0
 17 18  1  0
 18 19  2  0
 18 20  1  0
 19 21  1  0
 20 22  2  0
 21 23  1  0
 21 24  2  0
 22 24  1  0
M  END
