x0755_0-x0769_0-x1386_0
     RDKit          3D

 17 18  0  0  0  0  0  0  0  0999 V2000
    6.2700   -4.5460   20.4450 C   0  0  0  0  0  0  0  0  0  0  0  0
    7.2030   -3.4700   19.8620 C   0  0  0  0  0  0  0  0  0  0  0  0
    5.1850   -4.6780   19.9170 O   0  0  0  0  0  0  0  0  0  0  0  0
    6.6430   -5.3480   21.5290 N   0  0  0  0  0  0  0  0  0  0  0  0
    7.5110   -4.8520   22.5660 C   0  0  0  0  0  0  0  0  0  0  0  0
    5.7120   -6.3230   22.0940 C   0  0  0  0  0  0  0  0  0  0  0  0
    6.6970   -4.0910   23.6080 C   0  0  2  0  0  0  0  0  0  0  0  0
    4.9640   -5.8200   23.3090 C   0  0  0  0  0  0  0  0  0  0  0  0
    7.6430   -3.4020   24.5780 C   0  0  0  0  0  0  0  0  0  0  0  0
    5.7940   -5.0630   24.2810 N   0  0  0  0  0  0  0  0  0  0  0  0
    8.5250   -2.3000   23.9730 C   0  0  0  0  0  0  0  0  0  0  0  0
    9.9220   -2.7700   23.5040 C   0  0  0  0  0  0  0  0  0  0  0  0
   10.9190   -1.6310   23.4880 C   0  0  0  0  0  0  0  0  0  0  0  0
   12.0000   -1.6020   22.6280 C   0  0  0  0  0  0  0  0  0  0  0  0
   10.9320   -0.3760   24.3400 C   0  0  0  0  0  0  0  0  0  0  0  0
   12.8300   -0.4490   22.7410 C   0  0  0  0  0  0  0  0  0  0  0  0
   12.2610    0.6270   23.9330 S   0  0  0  0  0  0  0  0  0  0  0  0
  1  2  1  0
  1  3  2  0
  1  4  1  0
  4  5  1  0
  4  6  1  0
  5  7  1  0
  6  8  1  0
  7  9  1  1
  7 10  1  0
  8 10  1  0
  9 11  1  0
 11 12  1  0
 12 13  1  0
 13 14  1  0
 13 15  2  0
 14 16  2  0
 15 17  1  0
 16 17  1  0
M  END
