x0769_1-x1418_1
     RDKit          3D

 21 22  0  0  0  0  0  0  0  0999 V2000
    4.7560   -5.3880   25.8200 S   0  0  0  0  0  0  0  0  0  0  0  0
    3.7640   -3.9100   25.8910 C   0  0  0  0  0  0  0  0  0  0  0  0
    4.3640   -2.6440   26.0410 C   0  0  0  0  0  0  0  0  0  0  0  0
    5.7660   -5.2630   26.8460 O   0  0  0  0  0  0  0  0  0  0  0  0
    3.8830   -6.5410   25.7930 O   0  0  0  0  0  0  0  0  0  0  0  0
    2.3800   -4.0680   25.7970 C   0  0  0  0  0  0  0  0  0  0  0  0
    5.8060   -2.6360   26.1250 O   0  0  0  0  0  0  0  0  0  0  0  0
    1.3680   -2.9310   25.8440 C   0  0  0  0  0  0  0  0  0  0  0  0
    3.4870   -1.3790   26.1090 C   0  0  0  0  0  0  0  0  0  0  0  0
    6.5520   -2.2610   24.9660 C   0  0  0  0  0  0  0  0  0  0  0  0
    1.9770   -1.5520   26.0080 C   0  0  0  0  0  0  0  0  0  0  0  0
    7.1920   -3.3910   24.4330 C   0  0  0  0  0  0  0  0  0  0  0  0
    7.4470   -3.2350   22.9670 C   0  0  2  0  0  0  0  0  0  0  0  0
    8.4970   -2.2220   22.9510 N   0  0  0  0  0  0  0  0  0  0  0  0
    6.2210   -2.8120   22.1540 C   0  0  0  0  0  0  0  0  0  0  0  0
    6.6050   -2.4170   20.9320 N   0  0  0  0  0  0  0  0  0  0  0  0
    8.8190   -1.7090   21.6210 C   0  0  0  0  0  0  0  0  0  0  0  0
    6.3960   -3.1910   19.8030 C   0  0  0  0  0  0  0  0  0  0  0  0
    7.5240   -1.2770   20.9330 C   0  0  0  0  0  0  0  0  0  0  0  0
    7.3600   -2.9930   18.6660 C   0  0  0  0  0  0  0  0  0  0  0  0
    5.4950   -4.0450   19.7080 O   0  0  0  0  0  0  0  0  0  0  0  0
  1  2  1  0
  2  3  2  0
  1  4  2  0
  1  5  2  0
  2  6  1  0
  3  7  1  0
  6  8  2  0
  3  9  1  0
  7 10  1  0
  8 11  1  0
  9 11  2  0
 10 12  1  0
 13 12  1  1
 13 14  1  0
 13 15  1  0
 15 16  1  0
 14 17  1  0
 16 18  1  0
 16 19  1  0
 17 19  1  0
 18 20  1  0
 18 21  2  0
M  END
