x0769_0-x1386_0-x1336_1
     RDKit          3D

 27 29  0  0  0  0  0  0  0  0999 V2000
    7.2640   -1.8550   25.3030 S   0  0  0  0  0  0  0  0  0  0  0  0
    6.9530   -2.2060   23.6020 C   0  0  0  0  0  0  0  0  0  0  0  0
    6.4050   -3.5760   23.1790 C   0  0  2  0  0  0  0  0  0  0  0  0
    8.4210   -0.9800   25.3260 O   0  0  0  0  0  0  0  0  0  0  0  0
    6.0020   -1.4180   25.8550 O   0  0  0  0  0  0  0  0  0  0  0  0
    7.7770   -3.3570   26.0910 C   0  0  0  0  0  0  0  0  0  0  0  0
    6.8580   -3.8480   27.2350 C   0  0  0  0  0  0  0  0  0  0  0  0
    8.9070   -4.1160   25.7770 C   0  0  0  0  0  0  0  0  0  0  0  0
    9.9120   -3.7970   24.6770 C   0  0  0  0  0  0  0  0  0  0  0  0
    7.1000   -5.0260   27.9860 C   0  0  0  0  0  0  0  0  0  0  0  0
    9.1210   -5.2820   26.5600 C   0  0  0  0  0  0  0  0  0  0  0  0
    5.6830   -4.4300   24.1380 N   0  0  0  0  0  0  0  0  0  0  0  0
    7.5010   -4.4940   22.6980 C   0  0  0  0  0  0  0  0  0  0  0  0
    6.1870   -5.4850   29.0730 C   0  0  0  0  0  0  0  0  0  0  0  0
    8.2690   -5.7140   27.6050 C   0  0  0  0  0  0  0  0  0  0  0  0
    5.0880   -5.5650   23.3520 C   0  0  0  0  0  0  0  0  0  0  0  0
    6.8130   -5.2750   21.7130 N   0  0  0  0  0  0  0  0  0  0  0  0
   11.1140   -3.0070   25.1740 C   0  0  0  0  0  0  0  0  0  0  0  0
    6.3990   -4.6380   20.5320 C   0  0  0  0  0  0  0  0  0  0  0  0
    5.8500   -6.1960   22.3450 C   0  0  0  0  0  0  0  0  0  0  0  0
   11.5700   -1.7760   24.4100 C   0  0  0  0  0  0  0  0  0  0  0  0
    5.3500   -4.9470   19.9920 O   0  0  0  0  0  0  0  0  0  0  0  0
    7.2850   -3.5290   19.9040 C   0  0  0  0  0  0  0  0  0  0  0  0
   12.4430   -1.7270   23.3210 C   0  0  0  0  0  0  0  0  0  0  0  0
   11.2040   -0.4580   24.6760 C   0  0  0  0  0  0  0  0  0  0  0  0
   12.7870   -0.5350   22.7390 C   0  0  0  0  0  0  0  0  0  0  0  0
   11.9450    0.6970   23.6120 S   0  0  0  0  0  0  0  0  0  0  0  0
  1  2  1  0
  3  2  1  1
  1  4  2  0
  1  5  2  0
  1  6  1  0
  6  7  2  0
  6  8  1  0
  8  9  1  0
  7 10  1  0
  8 11  2  0
  3 12  1  0
  3 13  1  0
 10 14  1  0
 10 15  2  0
 11 15  1  0
 12 16  1  0
 13 17  1  0
  9 18  1  0
 17 19  1  0
 16 20  1  0
 17 20  1  0
 18 21  1  0
 19 22  2  0
 19 23  1  0
 21 24  1  0
 21 25  2  0
 24 26  2  0
 25 27  1  0
 26 27  1  0
M  END
