x0769_0-x0734_0
     RDKit          3D

 18 20  0  0  0  0  0  0  0  0999 V2000
    6.4000   -4.5550   20.5860 C   0  0  0  0  0  0  0  0  0  0  0  0
    7.3980   -3.5080   20.0490 C   0  0  0  0  0  0  0  0  0  0  0  0
    5.3580   -4.7380   19.9630 O   0  0  0  0  0  0  0  0  0  0  0  0
    6.6920   -5.3010   21.7600 N   0  0  0  0  0  0  0  0  0  0  0  0
    5.6590   -6.1930   22.2820 C   0  0  0  0  0  0  0  0  0  0  0  0
    7.6960   -4.8960   22.7270 C   0  0  0  0  0  0  0  0  0  0  0  0
    4.8400   -5.4680   23.1630 C   0  0  0  0  0  0  0  0  0  0  0  0
    6.9770   -4.2230   23.9160 C   0  0  1  0  0  0  0  0  0  0  0  0
    5.5190   -4.5600   24.1520 N   0  0  0  0  0  0  0  0  0  0  0  0
    7.3940   -4.8100   25.2070 C   0  0  0  0  0  0  0  0  0  0  0  0
    5.1510   -4.8330   25.6260 C   0  0  2  0  0  0  0  0  0  0  0  0
    8.8640   -4.8700   25.0600 C   0  0  0  0  0  0  0  0  0  0  0  0
    6.5720   -5.1380   26.1310 C   0  0  0  0  0  0  0  0  0  0  0  0
    4.3000   -5.9010   26.0310 O   0  0  0  0  0  0  0  0  0  0  0  0
    4.7180   -3.9440   26.3570 O   0  0  0  0  0  0  0  0  0  0  0  0
    9.3600   -5.4260   26.2650 C   0  0  0  0  0  0  0  0  0  0  0  0
    7.0930   -5.6590   27.2870 C   0  0  0  0  0  0  0  0  0  0  0  0
    8.5090   -5.8110   27.3730 C   0  0  0  0  0  0  0  0  0  0  0  0
  1  2  1  0
  1  3  2  0
  1  4  1  0
  4  5  1  0
  4  6  1  0
  5  7  1  0
  8  6  1  6
  7  9  1  0
  8  9  1  0
  8 10  1  0
  9 11  1  0
 10 12  2  0
 10 13  1  0
 11 13  1  0
 11 14  1  6
 11 15  1  0
 12 16  1  0
 13 17  2  0
 16 18  2  0
 17 18  1  0
M  CHG  1  15  -1
M  END
