x0769_0-x1493_0-x0831_0-x0072_0
     RDKit          3D

 25 27  0  0  0  0  0  0  0  0999 V2000
    4.7830   -6.3520   26.0150 C   0  0  0  0  0  0  0  0  0  0  0  0
    5.9270   -5.4830   25.4680 C   0  0  0  0  0  0  0  0  0  0  0  0
    6.9280   -5.3480   26.4900 N   0  0  0  0  0  0  0  0  0  0  0  0
    5.9280   -4.9490   24.2000 N   0  0  0  0  0  0  0  0  0  0  0  0
    8.2090   -4.4740   26.1500 S   0  0  0  0  0  0  0  0  0  0  0  0
    7.0470   -4.0780   23.7410 C   0  0  1  0  0  0  0  0  0  0  0  0
    5.1160   -5.5860   23.1380 C   0  0  0  0  0  0  0  0  0  0  0  0
    8.0920   -3.6910   24.7330 N   0  0  0  0  0  0  0  0  0  0  0  0
    9.4710   -5.4390   26.0720 O   0  0  0  0  0  0  0  0  0  0  0  0
    8.3070   -3.3550   27.2800 O   0  0  0  0  0  0  0  0  0  0  0  0
    7.7620   -4.6470   22.4950 C   0  0  0  0  0  0  0  0  0  0  0  0
    5.9440   -6.1190   21.9580 C   0  0  0  0  0  0  0  0  0  0  0  0
    8.7020   -2.4470   24.6320 C   0  0  0  0  0  0  0  0  0  0  0  0
    6.8360   -5.0930   21.4610 N   0  0  0  0  0  0  0  0  0  0  0  0
    6.4200   -4.3390   20.3620 C   0  0  0  0  0  0  0  0  0  0  0  0
    9.8230   -2.4620   23.5620 C   0  0  0  0  0  0  0  0  0  0  0  0
    5.2990   -4.4940   19.8980 O   0  0  0  0  0  0  0  0  0  0  0  0
    7.3500   -3.3410   19.6790 C   0  0  0  0  0  0  0  0  0  0  0  0
   10.6190   -1.1650   23.5280 C   0  0  0  0  0  0  0  0  0  0  0  0
   10.1350   -0.0000   24.1900 C   0  0  0  0  0  0  0  0  0  0  0  0
   11.8840   -0.9990   22.8560 C   0  0  0  0  0  0  0  0  0  0  0  0
   12.5470   -2.1090   22.1020 C   0  0  0  0  0  0  0  0  0  0  0  0
   10.7870    1.2170   24.2130 C   0  0  0  0  0  0  0  0  0  0  0  0
   12.6650    0.4130   22.8840 C   0  0  0  0  0  0  0  0  0  0  0  0
   12.0060    1.3990   23.5790 C   0  0  0  0  0  0  0  0  0  0  0  0
  1  2  1  0
  2  3  2  0
  2  4  1  0
  5  3  1  0
  4  6  1  0
  4  7  1  0
  5  8  1  0
  6  8  1  0
  5  9  2  0
  5 10  2  0
  6 11  1  6
  7 12  1  0
  8 13  1  0
 11 14  1  0
 12 14  1  0
 14 15  1  0
 13 16  1  0
 15 17  2  0
 15 18  1  0
 16 19  1  0
 19 20  2  0
 19 21  1  0
 21 22  1  0
 20 23  1  0
 21 24  2  0
 23 25  2  0
 24 25  1  0
M  END
