x0769_0-x0691_1
     RDKit          3D

 19 20  0  0  0  0  0  0  0  0999 V2000
    6.4220   -4.5220   20.6570 C   0  0  0  0  0  0  0  0  0  0  0  0
    7.5890   -3.6230   20.3060 C   0  0  0  0  0  0  0  0  0  0  0  0
    5.4150   -4.6170   19.9450 O   0  0  0  0  0  0  0  0  0  0  0  0
    6.5380   -5.2720   21.8060 N   0  0  0  0  0  0  0  0  0  0  0  0
    5.7820   -6.3850   22.0630 C   0  0  0  0  0  0  0  0  0  0  0  0
    7.2380   -4.6920   22.9560 C   0  0  0  0  0  0  0  0  0  0  0  0
    4.8040   -6.1680   23.2440 C   0  0  0  0  0  0  0  0  0  0  0  0
    6.2670   -4.2990   24.0530 C   0  0  0  0  0  0  0  0  0  0  0  0
    5.3800   -5.4280   24.3510 N   0  0  0  0  0  0  0  0  0  0  0  0
    4.6280   -5.4780   25.8410 S   0  0  0  0  0  0  0  0  0  0  0  0
    3.9530   -6.7530   25.9490 O   0  0  0  0  0  0  0  0  0  0  0  0
    5.7130   -5.2030   26.9720 O   0  0  0  0  0  0  0  0  0  0  0  0
    3.4900   -4.1970   25.8450 C   0  0  0  0  0  0  0  0  0  0  0  0
    3.9120   -2.8640   25.9160 C   0  0  0  0  0  0  0  0  0  0  0  0
    2.1420   -4.5850   25.7770 C   0  0  0  0  0  0  0  0  0  0  0  0
    2.8240   -1.7780   25.9210 C   0  0  0  0  0  0  0  0  0  0  0  0
    1.1130   -3.6490   25.7780 C   0  0  0  0  0  0  0  0  0  0  0  0
    3.1190   -0.4740   25.9870 F   0  0  0  0  0  0  0  0  0  0  0  0
    1.3850   -2.2910   25.8490 C   0  0  0  0  0  0  0  0  0  0  0  0
  1  2  1  0
  1  3  2  0
  1  4  1  0
  4  5  1  0
  4  6  1  0
  5  7  1  0
  6  8  1  0
  7  9  1  0
  8  9  1  0
  9 10  1  0
 10 11  2  0
 10 12  2  0
 10 13  1  0
 13 14  2  0
 13 15  1  0
 14 16  1  0
 15 17  2  0
 16 18  1  0
 16 19  2  0
 17 19  1  0
M  END
