x0769_0-x0691_0-x0691_1-x1386_0-x0387_0
     RDKit          3D

 31 34  0  0  0  0  0  0  0  0999 V2000
    6.6510   -4.4320   20.5430 C   0  0  0  0  0  0  0  0  0  0  0  0
    7.8290   -3.5280   20.3010 C   0  0  0  0  0  0  0  0  0  0  0  0
    5.8260   -4.6150   19.6580 O   0  0  0  0  0  0  0  0  0  0  0  0
    6.5500   -5.0180   21.7570 N   0  0  0  0  0  0  0  0  0  0  0  0
    5.5890   -6.0780   22.0510 C   0  0  0  0  0  0  0  0  0  0  0  0
    7.3570   -4.6790   22.9300 C   0  0  1  0  0  0  0  0  0  0  0  0
    7.9790   -3.8450   23.4410 C   0  0  0  0  0  0  0  0  0  0  0  0
    4.6770   -5.6550   23.1730 C   0  0  0  0  0  0  0  0  0  0  0  0
    6.4580   -4.2390   24.0540 C   0  0  0  0  0  0  0  0  0  0  0  0
    8.9570   -3.1850   23.6350 C   0  0  0  0  0  0  0  0  0  0  0  0
    5.4990   -5.3150   24.3460 N   0  0  0  0  0  0  0  0  0  0  0  0
    4.6770   -5.5300   25.7840 S   0  0  0  0  0  0  0  0  0  0  0  0
    9.9360   -2.5250   23.8300 C   0  0  2  0  0  0  0  0  0  0  0  0
    3.9940   -6.7810   25.8990 O   0  0  0  0  0  0  0  0  0  0  0  0
    5.6710   -5.1710   26.7450 O   0  0  0  0  0  0  0  0  0  0  0  0
    9.7170   -1.5590   24.2350 C   0  0  0  0  0  0  0  0  0  0  0  0
    3.4570   -4.2520   25.7540 C   0  0  0  0  0  0  0  0  0  0  0  0
   11.0160   -1.4730   23.8260 C   0  0  0  0  0  0  0  0  0  0  0  0
    3.8510   -2.9270   25.8180 C   0  0  0  0  0  0  0  0  0  0  0  0
    2.1140   -4.5840   25.6700 C   0  0  0  0  0  0  0  0  0  0  0  0
   12.1170   -1.4010   22.9200 C   0  0  0  0  0  0  0  0  0  0  0  0
   11.0500   -0.3900   24.6970 C   0  0  0  0  0  0  0  0  0  0  0  0
    2.8660   -1.9660   25.7940 C   0  0  0  0  0  0  0  0  0  0  0  0
    1.1540   -3.5820   25.6480 C   0  0  0  0  0  0  0  0  0  0  0  0
   12.8260   -0.2560   23.0140 C   0  0  0  0  0  0  0  0  0  0  0  0
   12.1910    0.7640   24.2010 S   0  0  0  0  0  0  0  0  0  0  0  0
   12.6460   -1.2880   22.5900 C   0  0  0  0  0  0  0  0  0  0  0  0
    3.2440   -0.6710   25.8530 F   0  0  0  0  0  0  0  0  0  0  0  0
    1.5250   -2.2540   25.7070 C   0  0  0  0  0  0  0  0  0  0  0  0
   13.1760   -1.1740   22.2600 S   0  0  0  0  0  0  0  0  0  0  0  0
   13.0010   -0.7150   22.6370 C   0  0  0  0  0  0  0  0  0  0  0  0
  1  2  1  0
  1  3  2  0
  1  4  1  0
  4  5  1  0
  4  6  1  0
  6  7  1  6
  5  8  1  0
  6  9  1  0
  7 10  1  0
  8 11  1  0
  9 11  1  0
 11 12  1  0
 10 13  1  0
 12 14  2  0
 12 15  2  0
 13 16  1  1
 12 17  1  0
 13 18  1  0
 17 19  2  0
 17 20  1  0
 18 21  1  0
 18 22  2  0
 19 23  1  0
 20 24  2  0
 21 25  1  0
 22 26  1  0
 25 26  1  0
 21 27  2  0
 23 28  1  0
 23 29  2  0
 24 29  1  0
 27 30  1  0
 25 31  2  0
 30 31  1  0
M  END
