x0769_0-x0874_0
     RDKit          3D

 17 18  0  0  0  0  0  0  0  0999 V2000
    6.4480   -4.3730   20.5270 C   0  0  0  0  0  0  0  0  0  0  0  0
    7.3900   -3.3800   19.8140 C   0  0  0  0  0  0  0  0  0  0  0  0
    5.4030   -4.6630   19.9600 O   0  0  0  0  0  0  0  0  0  0  0  0
    6.7230   -5.0110   21.7630 N   0  0  0  0  0  0  0  0  0  0  0  0
    6.0540   -6.2590   22.1780 C   0  0  0  0  0  0  0  0  0  0  0  0
    7.5180   -4.4280   22.8860 C   0  0  1  0  0  0  0  0  0  0  0  0
    8.4550   -3.3090   22.3800 C   0  0  0  0  0  0  0  0  0  0  0  0
    5.0550   -6.0080   23.3310 C   0  0  0  0  0  0  0  0  0  0  0  0
    6.3870   -4.0410   23.8720 C   0  0  0  0  0  0  0  0  0  0  0  0
    9.3470   -2.4760   23.3020 C   0  0  0  0  0  0  0  0  0  0  0  0
    5.5920   -5.1540   24.3950 N   0  0  0  0  0  0  0  0  0  0  0  0
    9.5610   -1.1680   22.4480 C   0  0  0  0  0  0  0  0  0  0  0  0
   10.6650   -0.3750   22.7860 C   0  0  0  0  0  0  0  0  0  0  0  0
   11.8740    0.3170   23.0580 C   0  0  0  0  0  0  0  0  0  0  0  0
   11.3290   -1.4920   22.1180 C   0  0  0  0  0  0  0  0  0  0  0  0
   13.1420   -0.0440   22.7450 C   0  0  0  0  0  0  0  0  0  0  0  0
   13.1100   -1.6060   21.8970 S   0  0  0  0  0  0  0  0  0  0  0  0
  1  2  1  0
  1  3  2  0
  1  4  1  0
  4  5  1  0
  4  6  1  0
  6  7  1  6
  5  8  1  0
  6  9  1  0
  7 10  1  0
  8 11  1  0
  9 11  1  0
 10 12  1  0
 12 13  1  0
 13 14  1  0
 13 15  2  0
 14 16  2  0
 15 17  1  0
 16 17  1  0
M  END
