x0769_1-x0434_1
     RDKit          3D

 23 24  0  0  0  0  0  0  0  0999 V2000
    4.5820   -5.3770   26.2510 S   0  0  0  0  0  0  0  0  0  0  0  0
    3.6940   -3.9660   26.1090 C   0  0  0  0  0  0  0  0  0  0  0  0
    4.2810   -2.6590   26.0690 C   0  0  0  0  0  0  0  0  0  0  0  0
    5.9690   -5.0170   26.3960 O   0  0  0  0  0  0  0  0  0  0  0  0
    4.1730   -6.3770   25.2900 O   0  0  0  0  0  0  0  0  0  0  0  0
    2.1720   -4.0920   26.0250 C   0  0  0  0  0  0  0  0  0  0  0  0
    5.7110   -2.6490   26.1440 O   0  0  0  0  0  0  0  0  0  0  0  0
    1.3940   -2.8200   25.9150 C   0  0  0  0  0  0  0  0  0  0  0  0
    3.5540   -1.4400   25.9650 C   0  0  0  0  0  0  0  0  0  0  0  0
    6.4400   -2.6040   24.9100 C   0  0  0  0  0  0  0  0  0  0  0  0
    2.0220   -1.4550   25.8830 C   0  0  0  0  0  0  0  0  0  0  0  0
    6.4850   -1.5600   24.3110 C   0  0  0  0  0  0  0  0  0  0  0  0
    5.8520   -1.4230   23.0630 C   0  0  0  0  0  0  0  0  0  0  0  0
    6.4920   -1.9100   21.9150 C   0  0  0  0  0  0  0  0  0  0  0  0
    7.1650   -0.8500   21.1360 N   0  0  0  0  0  0  0  0  0  0  0  0
    8.5790   -0.5990   21.3860 C   0  0  0  0  0  0  0  0  0  0  0  0
    6.3930   -0.0600   20.1210 C   0  0  0  0  0  0  0  0  0  0  0  0
    9.1800    0.4650   21.4860 O   0  0  0  0  0  0  0  0  0  0  0  0
    6.9380   -0.0620   18.8680 C   0  0  0  0  0  0  0  0  0  0  0  0
    5.1340    0.6930   20.3860 C   0  0  0  0  0  0  0  0  0  0  0  0
    6.4440    0.5760   17.8050 N   0  0  0  0  0  0  0  0  0  0  0  0
    4.5480    1.4340   19.1680 C   0  0  0  0  0  0  0  0  0  0  0  0
    5.2110    1.3530   17.9500 C   0  0  0  0  0  0  0  0  0  0  0  0
  1  2  1  0
  2  3  2  0
  1  4  2  0
  1  5  2  0
  2  6  1  0
  3  7  1  0
  6  8  2  0
  3  9  1  0
  7 10  1  0
  8 11  1  0
  9 11  2  0
 10 12  1  0
 12 13  1  0
 13 14  1  0
 14 15  1  0
 15 16  1  0
 15 17  1  0
 16 18  2  0
 17 19  2  0
 17 20  1  0
 19 21  1  0
 20 22  2  0
 21 23  2  0
 22 23  1  0
M  END
