x0769_1-x1382_1
     RDKit          3D

 21 22  0  0  0  0  0  0  0  0999 V2000
    4.8450   -5.2700   25.7920 S   0  0  0  0  0  0  0  0  0  0  0  0
    3.7240   -3.9120   25.8950 C   0  0  0  0  0  0  0  0  0  0  0  0
    4.2010   -2.5040   26.1190 C   0  0  0  0  0  0  0  0  0  0  0  0
    5.8280   -5.0450   26.8210 O   0  0  0  0  0  0  0  0  0  0  0  0
    4.0150   -6.4510   25.7520 O   0  0  0  0  0  0  0  0  0  0  0  0
    2.2520   -4.1280   25.7620 C   0  0  0  0  0  0  0  0  0  0  0  0
    5.6110   -2.3320   26.2380 O   0  0  0  0  0  0  0  0  0  0  0  0
    1.2610   -2.9610   25.8540 C   0  0  0  0  0  0  0  0  0  0  0  0
    3.3110   -1.4260   26.2050 C   0  0  0  0  0  0  0  0  0  0  0  0
    6.1770   -1.1150   25.7660 C   0  0  0  0  0  0  0  0  0  0  0  0
    1.8050   -1.6900   26.0680 C   0  0  0  0  0  0  0  0  0  0  0  0
    7.5520   -1.3930   25.1690 C   0  0  0  0  0  0  0  0  0  0  0  0
    7.6170   -1.1500   23.6880 C   0  0  0  0  0  0  0  0  0  0  0  0
    8.6990   -2.0070   23.0610 C   0  0  0  0  0  0  0  0  0  0  0  0
   10.0580   -1.3400   23.0740 C   0  0  0  0  0  0  0  0  0  0  0  0
   10.9980   -1.8730   22.2250 C   0  0  0  0  0  0  0  0  0  0  0  0
   10.3940   -0.2260   23.8900 C   0  0  0  0  0  0  0  0  0  0  0  0
   12.2480   -1.3350   22.1670 C   0  0  0  0  0  0  0  0  0  0  0  0
   11.6700    0.3280   23.8320 C   0  0  0  0  0  0  0  0  0  0  0  0
   13.3140   -2.0530   21.0940 Cl  0  0  0  0  0  0  0  0  0  0  0  0
   12.5790   -0.2420   22.9650 C   0  0  0  0  0  0  0  0  0  0  0  0
  1  2  1  0
  2  3  2  0
  1  4  2  0
  1  5  2  0
  2  6  1  0
  3  7  1  0
  6  8  2  0
  3  9  1  0
  7 10  1  0
  8 11  1  0
  9 11  2  0
 10 12  1  0
 12 13  1  0
 13 14  1  0
 14 15  1  0
 15 16  2  0
 15 17  1  0
 16 18  1  0
 17 19  2  0
 18 20  1  0
 18 21  2  0
 19 21  1  0
M  END
