x0770_1-x1418_1-x0831_0-x1385_1-x1412_0-x0397_0
     RDKit          3D

 28 32  0  0  0  0  0  0  0  0999 V2000
    6.3060   -3.3630   19.9880 C   0  0  0  0  0  0  0  0  0  0  0  0
    7.2500   -3.0230   18.8160 C   0  0  0  0  0  0  0  0  0  0  0  0
    5.4750   -4.2760   19.8490 O   0  0  0  0  0  0  0  0  0  0  0  0
    6.4650   -2.5550   21.1820 N   0  0  0  0  0  0  0  0  0  0  0  0
    7.4270   -1.4240   21.0950 C   0  0  0  0  0  0  0  0  0  0  0  0
    6.4920   -3.1420   22.5410 C   0  0  2  0  0  0  0  0  0  0  0  0
    8.8720   -1.8640   21.4350 C   0  0  0  0  0  0  0  0  0  0  0  0
    7.8400   -3.2560   23.2840 C   0  0  2  0  0  0  0  0  0  0  0  0
    7.0090   -4.5620   22.5770 C   0  0  0  0  0  0  0  0  0  0  0  0
    7.9640   -2.8140   24.8450 C   0  0  2  0  0  0  0  0  0  0  0  0
    8.8980   -2.3260   22.8200 N   0  0  0  0  0  0  0  0  0  0  0  0
    6.3540   -5.4890   23.3740 C   0  0  0  0  0  0  0  0  0  0  0  0
    6.2350   -5.8510   21.9510 C   0  0  0  0  0  0  0  0  0  0  0  0
    9.1860   -1.2630   23.7310 C   0  0  1  0  0  0  0  0  0  0  0  0
    6.9380   -2.2580   25.2090 O   0  0  0  0  0  0  0  0  0  0  0  0
    8.9610   -1.8790   25.0830 C   0  0  0  0  0  0  0  0  0  0  0  0
    8.2560   -3.9050   25.8310 C   0  0  0  0  0  0  0  0  0  0  0  0
   10.4290   -0.4270   23.5320 C   0  0  0  0  0  0  0  0  0  0  0  0
    9.1970   -4.8510   25.4980 C   0  0  0  0  0  0  0  0  0  0  0  0
    7.5890   -4.1880   27.3970 S   0  0  0  0  0  0  0  0  0  0  0  0
   10.3510    0.8660   24.0210 C   0  0  0  0  0  0  0  0  0  0  0  0
   11.6520   -0.8080   22.8920 C   0  0  0  0  0  0  0  0  0  0  0  0
    9.3780   -5.7950   26.4650 C   0  0  0  0  0  0  0  0  0  0  0  0
    8.5710   -5.5860   27.5880 C   0  0  0  0  0  0  0  0  0  0  0  0
   11.9690   -2.1420   22.2840 C   0  0  0  0  0  0  0  0  0  0  0  0
   11.3840    1.7750   23.8990 C   0  0  0  0  0  0  0  0  0  0  0  0
   12.6430    0.1460   22.8130 C   0  0  0  0  0  0  0  0  0  0  0  0
   12.5660    1.4260   23.2830 C   0  0  0  0  0  0  0  0  0  0  0  0
  1  2  1  0
  1  3  2  0
  1  4  1  0
  4  5  1  0
  4  6  1  0
  5  7  1  0
  6  8  1  0
  6  9  1  6
  8 10  1  0
  7 11  1  0
  8 11  1  6
  9 12  1  0
  9 13  1  0
 12 13  1  0
 11 14  1  0
 10 15  1  1
 10 16  1  0
 14 16  1  0
 10 17  1  0
 14 18  1  1
 17 19  2  0
 17 20  1  0
 18 21  2  0
 18 22  1  0
 19 23  1  0
 20 24  1  0
 23 24  2  0
 22 25  1  0
 21 26  1  0
 22 27  2  0
 26 28  2  0
 27 28  1  0
M  END
