x0770_1-x1418_1-x1334_1-x0426_1-x0692_1-x0434_2-x1385_1-x1374_1-x1412_1-x0397_0-x1334_0-x0831_0
     RDKit          3D

 44 49  0  0  0  0  0  0  0  0999 V2000
    2.2610   -7.6710   23.2430 O   0  0  0  0  0  0  0  0  0  0  0  0
    2.5000   -7.9660   24.6020 C   0  0  0  0  0  0  0  0  0  0  0  0
    3.8900   -7.9250   24.8290 O   0  0  0  0  0  0  0  0  0  0  0  0
    4.6080   -7.1910   23.8480 C   0  0  0  0  0  0  0  0  0  0  0  0
    5.0380   -5.9660   24.2580 C   0  0  0  0  0  0  0  0  0  0  0  0
    6.0900   -5.5860   23.2590 C   0  0  2  0  0  0  0  0  0  0  0  0
    5.8530   -4.5790   22.4820 C   0  0  2  0  0  0  0  0  0  0  0  0
    6.1300   -6.1550   22.1360 C   0  0  0  0  0  0  0  0  0  0  0  0
    6.8450   -3.4880   22.2830 C   0  0  1  0  0  0  0  0  0  0  0  0
    6.4920   -2.6200   21.1810 N   0  0  0  0  0  0  0  0  0  0  0  0
    7.0090   -2.7500   23.4330 C   0  0  0  0  0  0  0  0  0  0  0  0
    6.2980   -3.2470   19.9290 C   0  0  0  0  0  0  0  0  0  0  0  0
    8.3660   -2.2250   23.3980 N   0  0  0  0  0  0  0  0  0  0  0  0
    7.2850   -1.3620   21.2050 C   0  0  1  0  0  0  0  0  0  0  0  0
    7.2840   -2.9670   18.8090 C   0  0  0  0  0  0  0  0  0  0  0  0
    5.3800   -4.0640   19.7280 O   0  0  0  0  0  0  0  0  0  0  0  0
    6.6590    0.0420   21.5310 C   0  0  1  0  0  0  0  0  0  0  0  0
    9.3870   -3.2400   23.7240 C   0  0  1  0  0  0  0  0  0  0  0  0
    8.5870   -1.6480   22.0320 C   0  0  0  0  0  0  0  0  0  0  0  0
    5.6540    0.0990   22.7170 C   0  0  0  0  0  0  0  0  0  0  0  0
   10.8110   -2.6620   23.8320 C   0  0  0  0  0  0  0  0  0  0  0  0
    7.7420    1.0420   22.0030 C   0  0  0  0  0  0  0  0  0  0  0  0
    6.1140    0.5370   20.2800 C   0  0  0  0  0  0  0  0  0  0  0  0
    9.1100   -4.0750   24.8860 C   0  0  0  0  0  0  0  0  0  0  0  0
    4.7910    1.4150   22.7000 C   0  0  2  0  0  0  0  0  0  0  0  0
    4.7960    1.3660   20.2220 C   0  0  0  0  0  0  0  0  0  0  0  0
    6.8060    0.2590   19.1610 C   0  0  0  0  0  0  0  0  0  0  0  0
    9.7500   -5.2530   25.2110 C   0  0  0  0  0  0  0  0  0  0  0  0
    7.9180   -3.7970   26.1320 S   0  0  0  0  0  0  0  0  0  0  0  0
   11.0690   -1.1910   23.7880 C   0  0  0  0  0  0  0  0  0  0  0  0
    3.8290    1.4440   23.7750 N   0  0  0  0  0  0  0  0  0  0  0  0
    3.9820    1.7030   21.4160 C   0  0  0  0  0  0  0  0  0  0  0  0
    4.5080    1.7580   18.8060 C   0  0  0  0  0  0  0  0  0  0  0  0
    6.5430    0.6230   17.7700 N   0  0  0  0  0  0  0  0  0  0  0  0
    9.2700   -5.9350   26.4670 C   0  0  0  0  0  0  0  0  0  0  0  0
    8.2420   -5.2050   27.0590 C   0  0  0  0  0  0  0  0  0  0  0  0
   10.3260   -0.1710   24.3960 C   0  0  0  0  0  0  0  0  0  0  0  0
   12.1630   -0.8360   23.0750 C   0  0  0  0  0  0  0  0  0  0  0  0
    7.3720   -5.5670   28.4810 Cl  0  0  0  0  0  0  0  0  0  0  0  0
   13.0040   -1.8620   22.3760 C   0  0  0  0  0  0  0  0  0  0  0  0
    5.3860    1.3790   17.6470 C   0  0  0  0  0  0  0  0  0  0  0  0
   10.6390    1.1300   24.3110 C   0  0  0  0  0  0  0  0  0  0  0  0
   12.5960    0.4640   22.9240 C   0  0  0  0  0  0  0  0  0  0  0  0
   11.8350    1.5730   23.5520 C   0  0  0  0  0  0  0  0  0  0  0  0
  1  2  1  0
  2  3  1  0
  3  4  1  0
  4  5  1  0
  6  5  1  1
  6  7  1  0
  6  8  1  0
  7  8  1  6
  7  9  1  0
  9 10  1  0
  9 11  1  1
 10 12  1  0
 11 13  1  0
 10 14  1  0
 12 15  1  0
 12 16  2  0
 14 17  1  0
 13 18  1  0
 13 19  1  0
 14 19  1  1
 17 20  1  0
 18 21  1  1
 17 22  1  1
 17 23  1  0
 18 24  1  0
 20 25  1  0
 23 26  2  0
 23 27  1  0
 24 28  2  0
 24 29  1  0
 21 30  1  0
 25 31  1  1
 25 32  1  0
 26 32  1  0
 26 33  1  0
 27 34  2  0
 28 35  1  0
 29 36  1  0
 35 36  2  0
 30 37  2  0
 30 38  1  0
 36 39  1  0
 38 40  1  0
 33 41  2  0
 34 41  1  0
 37 42  1  0
 38 43  2  0
 42 44  2  0
 43 44  1  0
M  END
