x0771_1-x0874_0
     RDKit          3D

 21 22  0  0  0  0  0  0  0  0999 V2000
    4.9820   -5.7500   26.0880 S   0  0  2  0  0  0  0  0  0  0  0  0
    6.4550   -4.9830   26.3880 N   0  0  0  0  0  0  0  0  0  0  0  0
    7.3410   -4.7960   25.3650 C   0  0  0  0  0  0  0  0  0  0  0  0
    4.7150   -6.7010   25.0350 O   0  0  0  0  0  0  0  0  0  0  0  0
    3.7340   -4.4910   26.0330 C   0  0  0  0  0  0  0  0  0  0  0  0
    2.4360   -4.7690   25.5750 C   0  0  0  0  0  0  0  0  0  0  0  0
    4.0330   -3.1830   26.4660 C   0  0  0  0  0  0  0  0  0  0  0  0
    1.9680   -6.1170   25.0740 C   0  0  0  0  0  0  0  0  0  0  0  0
    8.2220   -3.5430   25.5450 C   0  0  0  0  0  0  0  0  0  0  0  0
    1.4860   -3.7590   25.5670 C   0  0  0  0  0  0  0  0  0  0  0  0
    3.0490   -2.1790   26.4430 C   0  0  0  0  0  0  0  0  0  0  0  0
    9.1380   -3.2090   24.3590 C   0  0  0  0  0  0  0  0  0  0  0  0
    1.7530   -2.4650   25.9980 C   0  0  0  0  0  0  0  0  0  0  0  0
    0.6930   -1.4080   25.9870 C   0  0  0  0  0  0  0  0  0  0  0  0
    8.8370   -1.8660   23.6760 C   0  0  0  0  0  0  0  0  0  0  0  0
    9.8420   -0.7640   24.0430 C   0  0  0  0  0  0  0  0  0  0  0  0
   11.0830   -0.7220   23.3810 C   0  0  0  0  0  0  0  0  0  0  0  0
   12.0400    0.2790   23.4950 C   0  0  0  0  0  0  0  0  0  0  0  0
   11.6110   -1.6970   22.4650 C   0  0  0  0  0  0  0  0  0  0  0  0
   13.1890    0.1290   22.7680 C   0  0  0  0  0  0  0  0  0  0  0  0
   13.1800   -1.3110   21.8620 S   0  0  0  0  0  0  0  0  0  0  0  0
  1  2  2  0
  2  3  1  0
  1  4  2  0
  1  5  1  6
  5  6  2  0
  5  7  1  0
  6  8  1  0
  3  9  1  0
  6 10  1  0
  7 11  2  0
  9 12  1  0
 10 13  2  0
 11 13  1  0
 13 14  1  0
 12 15  1  0
 15 16  1  0
 16 17  1  0
 17 18  1  0
 17 19  2  0
 18 20  2  0
 19 21  1  0
 20 21  1  0
M  END
