x0770_1-x0770_0
     RDKit          3D

 17 18  0  0  0  0  0  0  0  0999 V2000
    6.2960   -3.3420   19.9250 C   0  0  0  0  0  0  0  0  0  0  0  0
    7.2780   -2.9960   18.8210 C   0  0  0  0  0  0  0  0  0  0  0  0
    5.3870   -4.1690   19.7600 O   0  0  0  0  0  0  0  0  0  0  0  0
    6.4760   -2.7060   21.1530 N   0  0  0  0  0  0  0  0  0  0  0  0
    7.3950   -1.5500   21.2170 C   0  0  0  0  0  0  0  0  0  0  0  0
    6.2630   -3.4190   22.4150 C   0  0  0  0  0  0  0  0  0  0  0  0
    8.6410   -1.8200   22.0880 C   0  0  0  0  0  0  0  0  0  0  0  0
    7.5660   -3.6060   23.2280 C   0  0  0  0  0  0  0  0  0  0  0  0
    8.3130   -2.3490   23.4350 N   0  0  0  0  0  0  0  0  0  0  0  0
    9.4540   -2.4960   24.2730 C   0  0  0  0  0  0  0  0  0  0  0  0
   10.4680   -1.6030   23.9560 C   0  0  0  0  0  0  0  0  0  0  0  0
   11.2930   -2.0120   22.9180 C   0  0  0  0  0  0  0  0  0  0  0  0
   10.7180   -0.3750   24.5620 C   0  0  0  0  0  0  0  0  0  0  0  0
   12.4570   -1.1490   22.4320 C   0  0  0  0  0  0  0  0  0  0  0  0
   11.8730    0.4970   24.0840 C   0  0  0  0  0  0  0  0  0  0  0  0
   13.3980   -1.7250   21.1560 Cl  0  0  0  0  0  0  0  0  0  0  0  0
   12.6870    0.0820   23.0570 C   0  0  0  0  0  0  0  0  0  0  0  0
  1  2  1  0
  1  3  2  0
  1  4  1  0
  4  5  1  0
  4  6  1  0
  5  7  1  0
  6  8  1  0
  7  9  1  0
  8  9  1  0
  9 10  1  0
 10 11  1  0
 11 12  2  0
 11 13  1  0
 12 14  1  0
 13 15  2  0
 14 16  1  0
 14 17  2  0
 15 17  1  0
M  END
