x0771_0-x0691_1
     RDKit          3D

 19 20  0  0  0  0  0  0  0  0999 V2000
    6.3630   -4.2610   20.4450 C   0  0  0  0  0  0  0  0  0  0  0  0
    7.3280   -3.3230   19.7200 C   0  0  0  0  0  0  0  0  0  0  0  0
    5.2970   -4.5270   19.9020 O   0  0  0  0  0  0  0  0  0  0  0  0
    6.7020   -4.8530   21.6720 N   0  0  0  0  0  0  0  0  0  0  0  0
    6.0330   -6.1470   21.9810 C   0  0  0  0  0  0  0  0  0  0  0  0
    7.2360   -4.1620   22.8650 C   0  0  0  0  0  0  0  0  0  0  0  0
    4.9840   -5.9340   23.1140 C   0  0  0  0  0  0  0  0  0  0  0  0
    6.1900   -4.0170   23.9570 C   0  0  0  0  0  0  0  0  0  0  0  0
    5.5780   -5.3130   24.3100 N   0  0  0  0  0  0  0  0  0  0  0  0
    4.7540   -5.4700   25.7570 S   0  0  0  0  0  0  0  0  0  0  0  0
    4.0550   -6.9050   25.8190 O   0  0  0  0  0  0  0  0  0  0  0  0
    5.7530   -5.1800   26.9610 O   0  0  0  0  0  0  0  0  0  0  0  0
    3.5320   -4.2710   25.7590 C   0  0  0  0  0  0  0  0  0  0  0  0
    3.8950   -2.9080   25.8450 C   0  0  0  0  0  0  0  0  0  0  0  0
    2.1750   -4.6610   25.6770 C   0  0  0  0  0  0  0  0  0  0  0  0
    2.9560   -1.9380   25.8570 C   0  0  0  0  0  0  0  0  0  0  0  0
    1.2100   -3.7300   25.6850 C   0  0  0  0  0  0  0  0  0  0  0  0
    3.3240   -0.6530   25.9410 F   0  0  0  0  0  0  0  0  0  0  0  0
    1.5100   -2.2810   25.7790 C   0  0  0  0  0  0  0  0  0  0  0  0
  1  2  1  0
  1  3  2  0
  1  4  1  0
  4  5  1  0
  4  6  1  0
  5  7  1  0
  6  8  1  0
  7  9  1  0
  8  9  1  0
  9 10  1  0
 10 11  2  0
 10 12  2  0
 10 13  1  0
 13 14  2  0
 13 15  1  0
 14 16  1  0
 15 17  2  0
 16 18  1  0
 16 19  2  0
 17 19  1  0
M  END
