x0770_0-x1348_1
     RDKit          3D

 21 23  0  0  0  0  0  0  0  0999 V2000
    7.7230   -4.8150   26.5610 N   0  0  0  0  0  0  0  0  0  0  0  0
    7.6920   -4.9670   27.9950 C   0  0  0  0  0  0  0  0  0  0  0  0
    7.9420   -3.5710   26.0660 C   0  0  0  0  0  0  0  0  0  0  0  0
    6.5690   -5.4180   25.8650 C   0  0  0  0  0  0  0  0  0  0  0  0
    9.3340   -3.3800   25.4230 C   0  0  0  0  0  0  0  0  0  0  0  0
    6.3900   -5.2290   24.3700 C   0  0  0  0  0  0  0  0  0  0  0  0
    5.6780   -6.1470   26.6010 C   0  0  0  0  0  0  0  0  0  0  0  0
    9.2170   -2.4990   24.1590 C   0  0  0  0  0  0  0  0  0  0  0  0
    7.2250   -4.4840   23.4390 N   0  0  0  0  0  0  0  0  0  0  0  0
    5.1870   -5.9080   23.8000 C   0  0  0  0  0  0  0  0  0  0  0  0
    4.4970   -6.8010   26.0080 C   0  0  0  0  0  0  0  0  0  0  0  0
    6.6060   -4.6340   22.2040 C   0  0  0  0  0  0  0  0  0  0  0  0
    5.0990   -5.6030   21.9940 S   0  0  0  0  0  0  0  0  0  0  0  0
    4.2300   -6.7000   24.6100 C   0  0  0  0  0  0  0  0  0  0  0  0
   10.4250   -1.5660   23.8640 C   0  0  0  0  0  0  0  0  0  0  0  0
   11.3100   -2.0460   22.7260 C   0  0  0  0  0  0  0  0  0  0  0  0
   10.7080   -0.3620   24.5550 C   0  0  0  0  0  0  0  0  0  0  0  0
   12.3840   -1.2370   22.4220 C   0  0  0  0  0  0  0  0  0  0  0  0
   11.8350    0.3740   24.1450 C   0  0  0  0  0  0  0  0  0  0  0  0
   13.3730   -1.7420   21.1540 Cl  0  0  0  0  0  0  0  0  0  0  0  0
   12.6400   -0.0630   23.1110 C   0  0  0  0  0  0  0  0  0  0  0  0
  1  2  1  0
  1  3  1  0
  1  4  1  0
  3  5  1  0
  4  6  1  0
  4  7  2  0
  5  8  1  0
  6  9  1  0
  6 10  2  0
  7 11  1  0
  9 12  2  0
 10 13  1  0
 12 13  1  0
 10 14  1  0
 11 14  2  0
  8 15  1  0
 15 16  2  0
 15 17  1  0
 16 18  1  0
 17 19  2  0
 18 20  1  0
 18 21  2  0
 19 21  1  0
M  END
