x0770_1-x0692_1-x1385_1-x0434_2-x1334_0-x0397_0-x1386_1-x1334_1-x1374_1-x0426_1-x1418_1-x0831_1-x0831_0
     RDKit          3D

 44 49  0  0  0  0  0  0  0  0999 V2000
    2.0250   -7.2090   23.5550 O   0  0  0  0  0  0  0  0  0  0  0  0
    2.3460   -7.5910   24.8830 C   0  0  0  0  0  0  0  0  0  0  0  0
    3.7240   -7.9200   24.9150 O   0  0  0  0  0  0  0  0  0  0  0  0
    4.4070   -7.2340   23.8850 C   0  0  0  0  0  0  0  0  0  0  0  0
    4.8920   -6.0710   24.3710 C   0  0  0  0  0  0  0  0  0  0  0  0
    5.9770   -5.6560   23.4520 C   0  0  2  0  0  0  0  0  0  0  0  0
    5.7780   -4.7190   22.3550 C   0  0  2  0  0  0  0  0  0  0  0  0
    6.1610   -6.3090   22.1790 C   0  0  0  0  0  0  0  0  0  0  0  0
    6.7720   -3.6060   22.2160 C   0  0  1  0  0  0  0  0  0  0  0  0
    6.3900   -2.6530   21.1890 N   0  0  0  0  0  0  0  0  0  0  0  0
    6.9990   -2.9210   23.5860 C   0  0  0  0  0  0  0  0  0  0  0  0
    6.2250   -3.2560   19.9320 C   0  0  0  0  0  0  0  0  0  0  0  0
    8.1510   -1.9940   23.5830 N   0  0  0  0  0  0  0  0  0  0  0  0
    7.2350   -1.4360   21.2940 C   0  0  1  0  0  0  0  0  0  0  0  0
    7.2200   -2.9660   18.8170 C   0  0  0  0  0  0  0  0  0  0  0  0
    5.3210   -4.0750   19.7120 O   0  0  0  0  0  0  0  0  0  0  0  0
    6.3960   -0.0850   21.5820 C   0  0  1  0  0  0  0  0  0  0  0  0
    9.2840   -2.5040   24.4150 C   0  0  2  0  0  0  0  0  0  0  0  0
    8.4470   -1.6840   22.1860 C   0  0  0  0  0  0  0  0  0  0  0  0
    5.1080   -0.3430   22.4190 C   0  0  0  0  0  0  0  0  0  0  0  0
   10.5770   -2.5400   23.6530 C   0  0  0  0  0  0  0  0  0  0  0  0
    7.2840    0.9930   22.2300 C   0  0  0  0  0  0  0  0  0  0  0  0
    5.9480    0.4830   20.2340 C   0  0  0  0  0  0  0  0  0  0  0  0
    9.0580   -3.7040   25.3180 C   0  0  0  0  0  0  0  0  0  0  0  0
    4.0710    0.8440   22.5300 C   0  0  1  0  0  0  0  0  0  0  0  0
    4.7570    1.2240   20.1160 C   0  0  0  0  0  0  0  0  0  0  0  0
    6.7170    0.2900   19.0720 C   0  0  0  0  0  0  0  0  0  0  0  0
    9.7960   -4.9520   25.3440 C   0  0  0  0  0  0  0  0  0  0  0  0
    7.7890   -3.7910   26.5810 S   0  0  0  0  0  0  0  0  0  0  0  0
   11.1150   -1.1480   23.6000 C   0  0  0  0  0  0  0  0  0  0  0  0
    4.4430    1.8480   23.5070 N   0  0  0  0  0  0  0  0  0  0  0  0
    3.7880    1.5390   21.2020 C   0  0  0  0  0  0  0  0  0  0  0  0
    4.4400    1.7560   18.7650 C   0  0  0  0  0  0  0  0  0  0  0  0
    6.5220    0.7120   17.8030 N   0  0  0  0  0  0  0  0  0  0  0  0
    9.4160   -5.8460   26.2450 C   0  0  0  0  0  0  0  0  0  0  0  0
    8.2630   -5.3500   27.0670 C   0  0  0  0  0  0  0  0  0  0  0  0
   10.4760   -0.0310   24.2310 C   0  0  0  0  0  0  0  0  0  0  0  0
   12.2940   -0.8850   22.9090 C   0  0  0  0  0  0  0  0  0  0  0  0
    7.4060   -6.0770   28.3490 Cl  0  0  0  0  0  0  0  0  0  0  0  0
   13.0360   -1.9680   22.1970 C   0  0  0  0  0  0  0  0  0  0  0  0
    5.3150    1.5050   17.6390 C   0  0  0  0  0  0  0  0  0  0  0  0
   10.9900    1.2350   24.1610 C   0  0  0  0  0  0  0  0  0  0  0  0
   12.8090    0.4060   22.8610 C   0  0  0  0  0  0  0  0  0  0  0  0
   12.1600    1.4600   23.4800 C   0  0  0  0  0  0  0  0  0  0  0  0
  1  2  1  0
  2  3  1  0
  3  4  1  0
  4  5  1  0
  6  5  1  6
  6  7  1  0
  6  8  1  0
  7  8  1  6
  7  9  1  0
  9 10  1  0
  9 11  1  1
 10 12  1  0
 11 13  1  0
 10 14  1  0
 12 15  1  0
 12 16  2  0
 14 17  1  0
 13 18  1  0
 13 19  1  0
 14 19  1  1
 17 20  1  0
 18 21  1  6
 17 22  1  1
 17 23  1  0
 18 24  1  0
 20 25  1  0
 23 26  2  0
 23 27  1  0
 24 28  2  0
 24 29  1  0
 21 30  1  0
 25 31  1  1
 25 32  1  0
 26 32  1  0
 26 33  1  0
 27 34  2  0
 28 35  1  0
 29 36  1  0
 35 36  2  0
 30 37  2  0
 30 38  1  0
 36 39  1  0
 38 40  1  0
 33 41  2  0
 34 41  1  0
 37 42  1  0
 38 43  2  0
 42 44  2  0
 43 44  1  0
M  END
