x0770_1-x0426_1-x1374_1-x0831_0-x1334_0-x0692_1-x1334_1
     RDKit          3D

 43 48  0  0  0  0  0  0  0  0999 V2000
    6.3520   -3.3740   19.9890 C   0  0  0  0  0  0  0  0  0  0  0  0
    7.2720   -3.0110   18.8340 C   0  0  0  0  0  0  0  0  0  0  0  0
    5.4360   -4.1900   19.7860 O   0  0  0  0  0  0  0  0  0  0  0  0
    6.6290   -2.7540   21.2310 N   0  0  0  0  0  0  0  0  0  0  0  0
    7.1080   -1.4710   21.2120 C   0  0  1  0  0  0  0  0  0  0  0  0
    7.2740   -3.5790   22.2690 C   0  0  2  0  0  0  0  0  0  0  0  0
    5.8780   -0.4870   21.2350 C   0  0  1  0  0  0  0  0  0  0  0  0
    6.6680   -4.9750   22.3690 C   0  0  0  0  0  0  0  0  0  0  0  0
    8.4290   -1.2840   22.0260 C   0  0  0  0  0  0  0  0  0  0  0  0
    7.4100   -2.9170   23.4940 C   0  0  0  0  0  0  0  0  0  0  0  0
    5.8920    0.5290   22.3780 C   0  0  0  0  0  0  0  0  0  0  0  0
    8.3140   -1.7700   23.4070 N   0  0  0  0  0  0  0  0  0  0  0  0
    5.6700    0.2560   19.9620 C   0  0  0  0  0  0  0  0  0  0  0  0
    5.1830   -5.0900   22.7220 C   0  0  2  0  0  0  0  0  0  0  0  0
    4.5060    1.2500   22.4420 C   0  0  1  0  0  0  0  0  0  0  0  0
    9.5880   -1.8990   24.1470 C   0  0  1  0  0  0  0  0  0  0  0  0
    4.6970    1.2370   19.8770 C   0  0  0  0  0  0  0  0  0  0  0  0
    6.4150    0.0110   18.8410 C   0  0  0  0  0  0  0  0  0  0  0  0
    4.8560   -4.5330   24.0070 C   0  0  0  0  0  0  0  0  0  0  0  0
    4.8960   -6.5940   22.7690 C   0  0  0  0  0  0  0  0  0  0  0  0
    4.5520    2.4230   23.3100 N   0  0  0  0  0  0  0  0  0  0  0  0
    3.8380    1.5750   21.0500 C   0  0  0  0  0  0  0  0  0  0  0  0
   10.0930   -3.2970   24.0550 C   0  0  0  0  0  0  0  0  0  0  0  0
    4.5160    1.9140   18.7010 C   0  0  0  0  0  0  0  0  0  0  0  0
    6.2680    0.6490   17.6740 N   0  0  0  0  0  0  0  0  0  0  0  0
    4.0690   -5.3060   24.8360 C   0  0  0  0  0  0  0  0  0  0  0  0
    3.7190   -6.7320   24.0600 S   0  0  0  0  0  0  0  0  0  0  0  0
   10.6050   -0.7790   23.8180 C   0  0  0  0  0  0  0  0  0  0  0  0
    2.2680   -6.7700   23.4170 O   0  0  0  0  0  0  0  0  0  0  0  0
    4.0400   -8.0110   24.9570 O   0  0  0  0  0  0  0  0  0  0  0  0
    5.3250    1.5880   17.6220 C   0  0  0  0  0  0  0  0  0  0  0  0
   10.2610    0.4690   24.2700 C   0  0  0  0  0  0  0  0  0  0  0  0
   11.8400   -0.9350   23.1030 C   0  0  0  0  0  0  0  0  0  0  0  0
    9.5500   -4.1980   25.1310 C   0  0  0  0  0  0  0  0  0  0  0  0
   12.3310   -2.2340   22.5490 C   0  0  0  0  0  0  0  0  0  0  0  0
   11.0710    1.5720   24.0490 C   0  0  0  0  0  0  0  0  0  0  0  0
   12.6690    0.1750   22.8810 C   0  0  0  0  0  0  0  0  0  0  0  0
    9.9320   -5.4940   25.3990 C   0  0  0  0  0  0  0  0  0  0  0  0
    8.3160   -3.7510   26.2570 S   0  0  0  0  0  0  0  0  0  0  0  0
   12.3040    1.4280   23.3420 C   0  0  0  0  0  0  0  0  0  0  0  0
    9.2870   -6.0880   26.4400 C   0  0  0  0  0  0  0  0  0  0  0  0
    8.3640   -5.2650   27.0260 C   0  0  0  0  0  0  0  0  0  0  0  0
    7.3460   -5.6230   28.3510 Cl  0  0  0  0  0  0  0  0  0  0  0  0
  1  2  1  0
  1  3  2  0
  1  4  1  0
  4  5  1  0
  4  6  1  0
  5  7  1  0
  6  8  1  1
  5  9  1  1
  6 10  1  0
  7 11  1  1
  9 12  1  0
 10 12  1  0
  7 13  1  0
 14  8  1  1
 11 15  1  0
 12 16  1  0
 13 17  2  0
 13 18  1  0
 14 19  1  0
 14 20  1  0
 15 21  1  6
 15 22  1  0
 17 22  1  0
 16 23  1  6
 17 24  1  0
 18 25  2  0
 19 26  2  0
 20 27  1  0
 26 27  1  0
 16 28  1  0
 27 29  1  0
 27 30  1  0
 24 31  2  0
 25 31  1  0
 28 32  2  0
 28 33  1  0
 23 34  1  0
 33 35  1  0
 32 36  1  0
 33 37  2  0
 34 38  2  0
 34 39  1  0
 36 40  2  0
 37 40  1  0
 38 41  1  0
 39 42  1  0
 41 42  2  0
 42 43  1  0
M  END
