x0770_1-x1374_1-x0831_0-x1418_1-x0434_2-x1412_1-x1334_1
     RDKit          3D

 32 35  0  0  0  0  0  0  0  0999 V2000
    6.4330   -3.2470   19.8810 C   0  0  0  0  0  0  0  0  0  0  0  0
    7.3750   -2.9700   18.7390 C   0  0  0  0  0  0  0  0  0  0  0  0
    5.4810   -4.0420   19.7210 O   0  0  0  0  0  0  0  0  0  0  0  0
    6.6770   -2.6330   21.1220 N   0  0  0  0  0  0  0  0  0  0  0  0
    7.4910   -1.4110   21.4650 C   0  0  1  0  0  0  0  0  0  0  0  0
    6.7240   -3.6310   22.2380 C   0  0  2  0  0  0  0  0  0  0  0  0
    5.5950   -3.4680   23.2390 C   0  0  0  0  0  0  0  0  0  0  0  0
    8.8980   -1.8350   21.8160 C   0  0  0  0  0  0  0  0  0  0  0  0
    8.0680   -3.7010   23.0100 C   0  0  0  0  0  0  0  0  0  0  0  0
    7.4650   -0.0510   20.7610 C   0  0  0  0  0  0  0  0  0  0  0  0
    8.8160   -2.4330   23.1390 N   0  0  0  0  0  0  0  0  0  0  0  0
    4.5290   -4.5430   23.1100 C   0  0  2  0  0  0  0  0  0  0  0  0
    7.0690    0.0630   19.3170 C   0  0  0  0  0  0  0  0  0  0  0  0
   10.2060   -2.5640   23.5840 C   0  0  0  0  0  0  0  0  0  0  0  0
    3.6870   -4.4290   24.3460 C   0  0  0  0  0  0  0  0  0  0  0  0
    4.9840   -6.0230   22.9840 C   0  0  0  0  0  0  0  0  0  0  0  0
    6.1390    0.5750   20.2630 C   0  0  0  0  0  0  0  0  0  0  0  0
    6.3960    0.3390   18.1340 N   0  0  0  0  0  0  0  0  0  0  0  0
    3.2110   -5.5460   24.8870 C   0  0  0  0  0  0  0  0  0  0  0  0
    3.7380   -6.8140   23.9520 S   0  0  0  0  0  0  0  0  0  0  0  0
   10.8710   -1.2030   23.5680 C   0  0  0  0  0  0  0  0  0  0  0  0
    5.2110    0.9330   17.9280 C   0  0  0  0  0  0  0  0  0  0  0  0
    4.9090    1.1840   20.1090 C   0  0  0  0  0  0  0  0  0  0  0  0
    2.6660   -7.4150   22.9520 O   0  0  0  0  0  0  0  0  0  0  0  0
    4.3950   -7.9570   24.8060 O   0  0  0  0  0  0  0  0  0  0  0  0
   10.1860   -0.1540   24.2090 C   0  0  0  0  0  0  0  0  0  0  0  0
   12.1170   -0.9940   22.9260 C   0  0  0  0  0  0  0  0  0  0  0  0
    4.4130    1.3810   18.8890 C   0  0  0  0  0  0  0  0  0  0  0  0
   12.8240   -2.1170   22.2410 C   0  0  0  0  0  0  0  0  0  0  0  0
   10.7640    1.2770   24.2240 C   0  0  0  0  0  0  0  0  0  0  0  0
   12.8310    0.4010   22.8740 C   0  0  0  0  0  0  0  0  0  0  0  0
   12.1020    1.5520   23.5460 C   0  0  0  0  0  0  0  0  0  0  0  0
  1  2  1  0
  1  3  2  0
  1  4  1  0
  4  5  1  0
  4  6  1  0
  6  7  1  1
  5  8  1  0
  6  9  1  0
  5 10  1  6
  8 11  1  0
  9 11  1  0
 12  7  1  1
 10 13  1  0
 11 14  1  0
 12 15  1  0
 12 16  1  0
 13 17  2  0
 13 18  1  0
 15 19  2  0
 16 20  1  0
 19 20  1  0
 14 21  1  0
 18 22  2  0
 17 23  1  0
 20 24  1  0
 20 25  1  0
 21 26  2  0
 21 27  1  0
 22 28  1  0
 23 28  2  0
 27 29  1  0
 26 30  1  0
 27 31  2  0
 30 32  2  0
 31 32  1  0
M  END
