x0771_0-x0759_0
     RDKit          3D

 20 22  0  0  0  0  0  0  0  0999 V2000
    6.7720   -4.1630   20.4980 C   0  0  0  0  0  0  0  0  0  0  0  0
    8.0650   -3.4380   20.2240 C   0  0  0  0  0  0  0  0  0  0  0  0
    5.8860   -4.1840   19.6520 O   0  0  0  0  0  0  0  0  0  0  0  0
    6.6870   -4.8240   21.6740 N   0  0  0  0  0  0  0  0  0  0  0  0
    5.8170   -5.9780   21.9070 C   0  0  0  0  0  0  0  0  0  0  0  0
    7.4870   -4.4800   22.8510 C   0  0  1  0  0  0  0  0  0  0  0  0
    8.1850   -3.4590   23.2500 C   0  0  0  0  0  0  0  0  0  0  0  0
    4.9270   -5.7370   23.0990 C   0  0  0  0  0  0  0  0  0  0  0  0
    6.5880   -4.2170   24.0270 C   0  0  0  0  0  0  0  0  0  0  0  0
    9.1720   -2.6350   23.3890 C   0  0  0  0  0  0  0  0  0  0  0  0
    5.7700   -5.4150   24.2640 N   0  0  0  0  0  0  0  0  0  0  0  0
    9.6900   -1.4500   23.1980 C   0  0  2  0  0  0  0  0  0  0  0  0
   10.7480   -1.4870   22.3020 C   0  0  2  0  0  0  0  0  0  0  0  0
    9.7560   -1.0700   23.7730 C   0  0  0  0  0  0  0  0  0  0  0  0
   11.1440   -0.9850   23.6690 C   0  0  2  0  0  0  0  0  0  0  0  0
   11.9080   -0.7740   22.5420 C   0  0  0  0  0  0  0  0  0  0  0  0
    9.8230   -0.6900   24.3470 C   0  0  0  0  0  0  0  0  0  0  0  0
   11.9830   -0.0400   23.6900 C   0  0  0  0  0  0  0  0  0  0  0  0
   10.9750    0.0240   24.6010 C   0  0  0  0  0  0  0  0  0  0  0  0
   13.1170    0.6640   23.9480 F   0  0  0  0  0  0  0  0  0  0  0  0
  1  2  1  0
  1  3  2  0
  1  4  1  0
  4  5  1  0
  4  6  1  0
  6  7  1  6
  5  8  1  0
  6  9  1  0
  7 10  1  0
  8 11  1  0
  9 11  1  0
 12 10  1  1
 12 13  1  0
 12 14  1  0
 13 15  1  0
 13 16  1  6
 14 17  2  0
 15 17  1  1
 16 18  1  0
 15 19  1  0
 18 19  1  0
 18 20  1  0
M  END
