x0770_1-x1374_1
     RDKit          3D

 17 18  0  0  0  0  0  0  0  0999 V2000
    6.4220   -3.3130   19.9280 C   0  0  0  0  0  0  0  0  0  0  0  0
    7.3600   -2.9980   18.7820 C   0  0  0  0  0  0  0  0  0  0  0  0
    5.4880   -4.1320   19.8000 O   0  0  0  0  0  0  0  0  0  0  0  0
    6.7180   -2.6130   21.1320 N   0  0  0  0  0  0  0  0  0  0  0  0
    7.5550   -1.4060   21.0740 C   0  0  0  0  0  0  0  0  0  0  0  0
    6.7020   -3.2880   22.4430 C   0  0  1  0  0  0  0  0  0  0  0  0
    6.4490   -4.7560   22.2650 C   0  0  0  0  0  0  0  0  0  0  0  0
    8.7770   -1.5420   21.6330 C   0  0  0  0  0  0  0  0  0  0  0  0
    7.7430   -2.8780   23.3000 C   0  0  0  0  0  0  0  0  0  0  0  0
    8.7100   -1.8320   23.0470 N   0  0  0  0  0  0  0  0  0  0  0  0
    5.0460   -5.1990   22.6860 C   0  0  2  0  0  0  0  0  0  0  0  0
    4.4550   -4.6370   23.8150 C   0  0  0  0  0  0  0  0  0  0  0  0
    4.9880   -6.5360   22.8150 C   0  0  0  0  0  0  0  0  0  0  0  0
    3.7020   -5.4030   24.6440 C   0  0  0  0  0  0  0  0  0  0  0  0
    3.7620   -6.9160   23.9840 S   0  0  0  0  0  0  0  0  0  0  0  0
    2.6340   -7.3260   23.1830 O   0  0  0  0  0  0  0  0  0  0  0  0
    4.2930   -7.8690   24.9260 O   0  0  0  0  0  0  0  0  0  0  0  0
  1  2  1  0
  1  3  2  0
  1  4  1  0
  4  5  1  0
  4  6  1  0
  6  7  1  6
  5  8  1  0
  6  9  1  0
  8 10  1  0
  9 10  1  0
 11  7  1  1
 11 12  1  0
 11 13  1  0
 12 14  2  0
 13 15  1  0
 14 15  1  0
 15 16  1  0
 15 17  1  0
M  END
