x0770_1-x1334_1
     RDKit          3D

  9  9  0  0  0  0  0  0  0  0999 V2000
    6.2870   -3.3280   19.9410 C   0  0  0  0  0  0  0  0  0  0  0  0
    7.2460   -3.0010   18.8110 C   0  0  0  0  0  0  0  0  0  0  0  0
    5.3800   -4.1480   19.7560 O   0  0  0  0  0  0  0  0  0  0  0  0
    6.4890   -2.7080   21.1770 N   0  0  0  0  0  0  0  0  0  0  0  0
    7.3080   -1.5980   21.1340 C   0  0  0  0  0  0  0  0  0  0  0  0
    6.3230   -3.4200   22.3840 C   0  0  0  0  0  0  0  0  0  0  0  0
    8.6160   -1.8290   21.9230 C   0  0  0  0  0  0  0  0  0  0  0  0
    7.5640   -3.5320   23.2780 C   0  0  0  0  0  0  0  0  0  0  0  0
    8.3930   -2.3120   23.2980 N   0  0  0  0  0  0  0  0  0  0  0  0
  1  2  1  0
  1  3  2  0
  1  4  1  0
  4  5  1  0
  4  6  1  0
  5  7  1  0
  6  8  1  0
  7  9  1  0
  8  9  1  0
M  END
