x0770_1-x1375_1-x1385_1-x0434_2-x1374_1-x0831_0-x0692_1-x1334_1
     RDKit          3D

 34 37  0  0  0  0  0  0  0  0999 V2000
    2.3010   -6.7470   23.8580 O   0  0  0  0  0  0  0  0  0  0  0  0
    3.7810   -6.5460   24.4210 S   0  0  0  0  0  0  0  0  0  0  0  0
    4.0860   -5.0240   25.0150 C   0  0  0  0  0  0  0  0  0  0  0  0
    2.2520   -7.4820   22.6090 O   0  0  0  0  0  0  0  0  0  0  0  0
    4.2460   -7.6810   25.3850 O   0  0  0  0  0  0  0  0  0  0  0  0
    4.9040   -6.5700   23.0550 C   0  0  0  0  0  0  0  0  0  0  0  0
    5.8140   -5.3530   23.2950 C   0  0  2  0  0  0  0  0  0  0  0  0
    5.1220   -4.5230   24.3830 C   0  0  0  0  0  0  0  0  0  0  0  0
    3.3760   -8.8020   25.1980 O   0  0  0  0  0  0  0  0  0  0  0  0
    6.0800   -4.6480   21.9960 C   0  0  0  0  0  0  0  0  0  0  0  0
    6.3030   -3.1700   22.2960 C   0  0  2  0  0  0  0  0  0  0  0  0
    6.5320   -2.4490   21.0920 N   0  0  0  0  0  0  0  0  0  0  0  0
    7.4780   -3.0550   23.3900 C   0  0  0  0  0  0  0  0  0  0  0  0
    6.3810   -3.1330   19.8480 C   0  0  0  0  0  0  0  0  0  0  0  0
    8.8540   -2.7720   22.9220 N   0  0  0  0  0  0  0  0  0  0  0  0
    7.5160   -1.4020   21.3880 C   0  0  1  0  0  0  0  0  0  0  0  0
    7.3590   -2.9100   18.7080 C   0  0  0  0  0  0  0  0  0  0  0  0
    5.4650   -3.9640   19.6750 O   0  0  0  0  0  0  0  0  0  0  0  0
    9.7500   -2.3390   24.0010 C   0  0  0  0  0  0  0  0  0  0  0  0
    8.9010   -1.9170   21.7240 C   0  0  0  0  0  0  0  0  0  0  0  0
    7.5470   -0.0290   20.6920 C   0  0  0  0  0  0  0  0  0  0  0  0
   10.6110   -1.1110   23.7610 C   0  0  0  0  0  0  0  0  0  0  0  0
    7.0910    0.1900   19.2720 C   0  0  0  0  0  0  0  0  0  0  0  0
   10.1570    0.0590   24.2430 C   0  0  0  0  0  0  0  0  0  0  0  0
   12.0000   -1.0630   22.9990 C   0  0  0  0  0  0  0  0  0  0  0  0
    6.1970    0.5270   20.2780 C   0  0  0  0  0  0  0  0  0  0  0  0
    6.4070    0.5040   18.0870 N   0  0  0  0  0  0  0  0  0  0  0  0
   12.6270   -2.2830   22.3990 C   0  0  0  0  0  0  0  0  0  0  0  0
   10.8060    1.4320   24.1480 C   0  0  0  0  0  0  0  0  0  0  0  0
   12.7910    0.2690   22.8300 C   0  0  0  0  0  0  0  0  0  0  0  0
    5.1880    1.0230   17.8930 C   0  0  0  0  0  0  0  0  0  0  0  0
    4.9090    1.0590   20.2010 C   0  0  0  0  0  0  0  0  0  0  0  0
   12.2150    1.5460   23.3960 C   0  0  0  0  0  0  0  0  0  0  0  0
    4.3260    1.3420   19.0500 C   0  0  0  0  0  0  0  0  0  0  0  0
  2  1  1  0
  2  3  1  0
  1  4  1  0
  2  5  1  0
  2  6  1  0
  6  7  1  0
  3  8  2  0
  7  8  1  0
  5  9  1  0
  7 10  1  6
 11 10  1  6
 11 12  1  0
 11 13  1  0
 12 14  1  0
 13 15  1  0
 12 16  1  0
 14 17  1  0
 14 18  2  0
 15 19  1  0
 15 20  1  0
 16 20  1  0
 16 21  1  6
 19 22  1  0
 21 23  1  0
 22 24  2  0
 22 25  1  0
 23 26  2  0
 23 27  1  0
 25 28  1  0
 24 29  1  0
 25 30  2  0
 27 31  2  0
 26 32  1  0
 29 33  2  0
 30 33  1  0
 31 34  1  0
 32 34  2  0
M  END
