x0771_0-x1093_0
     RDKit          3D

 18 19  0  0  0  0  0  0  0  0999 V2000
    6.3050   -4.2060   20.3620 C   0  0  0  0  0  0  0  0  0  0  0  0
    7.2430   -3.3110   19.5510 C   0  0  0  0  0  0  0  0  0  0  0  0
    5.2260   -4.4850   19.8660 O   0  0  0  0  0  0  0  0  0  0  0  0
    6.6760   -4.7390   21.6090 N   0  0  0  0  0  0  0  0  0  0  0  0
    6.1610   -6.0470   22.0110 C   0  0  0  0  0  0  0  0  0  0  0  0
    6.8620   -3.7690   22.7050 C   0  0  2  0  0  0  0  0  0  0  0  0
    7.8700   -2.7720   22.2840 C   0  0  0  0  0  0  0  0  0  0  0  0
    5.2210   -5.9090   23.2080 C   0  0  0  0  0  0  0  0  0  0  0  0
    6.9830   -4.4230   23.9320 C   0  0  0  0  0  0  0  0  0  0  0  0
    8.7880   -2.2730   23.3930 C   0  0  0  0  0  0  0  0  0  0  0  0
    5.8120   -5.2060   24.3560 N   0  0  0  0  0  0  0  0  0  0  0  0
    9.8740   -1.3810   22.8380 C   0  0  1  0  0  0  0  0  0  0  0  0
    9.7330   -0.0190   23.4020 N   0  0  0  0  0  0  0  0  0  0  0  0
   11.1160   -1.9670   23.0800 C   0  0  0  0  0  0  0  0  0  0  0  0
   10.8350    0.7530   23.2930 C   0  0  0  0  0  0  0  0  0  0  0  0
   12.0660   -1.1480   23.8160 N   0  0  0  0  0  0  0  0  0  0  0  0
   13.3530   -1.7950   23.7510 C   0  0  0  0  0  0  0  0  0  0  0  0
   12.1170    0.2130   23.3070 C   0  0  0  0  0  0  0  0  0  0  0  0
  1  2  1  0
  1  3  2  0
  1  4  1  0
  4  5  1  0
  4  6  1  0
  6  7  1  6
  5  8  1  0
  6  9  1  0
  7 10  1  0
  8 11  1  0
  9 11  1  0
 12 10  1  1
 12 13  1  0
 12 14  1  0
 13 15  1  0
 14 16  1  0
 16 17  1  0
 15 18  1  0
 16 18  1  0
M  END
