x0771_1-x1334_0
     RDKit          3D

 19 20  0  0  0  0  0  0  0  0999 V2000
    4.8910   -5.7160   25.6230 S   0  0  1  0  0  0  0  0  0  0  0  0
    5.9650   -5.2160   26.5900 N   0  0  0  0  0  0  0  0  0  0  0  0
    6.1700   -5.8460   27.9090 C   0  0  0  0  0  0  0  0  0  0  0  0
    4.3050   -7.0400   25.6350 O   0  0  0  0  0  0  0  0  0  0  0  0
    3.5880   -4.5330   25.7970 C   0  0  0  0  0  0  0  0  0  0  0  0
    2.2840   -4.8630   25.4320 C   0  0  0  0  0  0  0  0  0  0  0  0
    3.9320   -3.2660   26.3180 C   0  0  0  0  0  0  0  0  0  0  0  0
    1.8790   -6.1950   24.8720 C   0  0  0  0  0  0  0  0  0  0  0  0
    7.6490   -5.7330   28.2680 C   0  0  0  0  0  0  0  0  0  0  0  0
    1.2380   -3.7460   25.6490 C   0  0  0  0  0  0  0  0  0  0  0  0
    2.9880   -2.2310   26.5240 C   0  0  0  0  0  0  0  0  0  0  0  0
    1.6260   -2.3780   26.2260 C   0  0  0  0  0  0  0  0  0  0  0  0
    8.3950   -5.3370   27.0380 C   0  0  0  0  0  0  0  0  0  0  0  0
    0.6290   -1.2880   26.4600 C   0  0  0  0  0  0  0  0  0  0  0  0
    9.3900   -5.9970   26.3700 C   0  0  0  0  0  0  0  0  0  0  0  0
    8.0530   -3.8630   26.2200 S   0  0  0  0  0  0  0  0  0  0  0  0
    9.2360   -4.1600   25.0110 C   0  0  0  0  0  0  0  0  0  0  0  0
    9.8680   -5.3750   25.2580 C   0  0  0  0  0  0  0  0  0  0  0  0
    9.4690   -3.1920   23.9040 C   0  0  0  0  0  0  0  0  0  0  0  0
  1  2  2  0
  2  3  1  0
  1  4  2  0
  1  5  1  1
  5  6  2  0
  5  7  1  0
  6  8  1  0
  3  9  1  0
  6 10  1  0
  7 11  2  0
 10 12  2  0
 11 12  1  0
  9 13  1  0
 12 14  1  0
 13 15  2  0
 13 16  1  0
 16 17  1  0
 15 18  1  0
 17 18  2  0
 17 19  1  0
M  END
