x0770_1-x0397_0-x1412_1-x0692_1-x0434_2-x1334_1-x1334_0-x0831_0
     RDKit          3D

 34 38  0  0  0  0  0  0  0  0999 V2000
    6.2220   -3.2470   19.8910 C   0  0  0  0  0  0  0  0  0  0  0  0
    7.2400   -2.9960   18.7930 C   0  0  0  0  0  0  0  0  0  0  0  0
    5.2910   -4.0300   19.6660 O   0  0  0  0  0  0  0  0  0  0  0  0
    6.3920   -2.6420   21.1280 N   0  0  0  0  0  0  0  0  0  0  0  0
    7.0420   -1.4290   21.3270 C   0  0  1  0  0  0  0  0  0  0  0  0
    6.6470   -3.6130   22.2170 C   0  0  1  0  0  0  0  0  0  0  0  0
    8.2640   -1.6490   22.2610 C   0  0  0  0  0  0  0  0  0  0  0  0
    6.8650   -2.9940   23.6110 C   0  0  0  0  0  0  0  0  0  0  0  0
    5.6440   -4.7480   22.2940 C   0  0  0  0  0  0  0  0  0  0  0  0
    7.6270   -0.6990   20.0970 C   0  0  0  0  0  0  0  0  0  0  0  0
    7.9790   -2.0780   23.6410 N   0  0  0  0  0  0  0  0  0  0  0  0
    5.9350   -5.9480   23.0670 C   0  0  0  0  0  0  0  0  0  0  0  0
    6.0370   -6.2310   21.7300 C   0  0  0  0  0  0  0  0  0  0  0  0
    6.9420   -0.1900   18.9740 C   0  0  0  0  0  0  0  0  0  0  0  0
    9.1250   -2.5790   24.2730 C   0  0  2  0  0  0  0  0  0  0  0  0
    6.2930    0.2610   20.3400 C   0  0  0  0  0  0  0  0  0  0  0  0
    6.1600    0.3920   17.9930 N   0  0  0  0  0  0  0  0  0  0  0  0
   10.2980   -2.5880   23.3260 C   0  0  0  0  0  0  0  0  0  0  0  0
    8.9650   -3.7900   25.2100 C   0  0  0  0  0  0  0  0  0  0  0  0
    5.1000    1.1650   17.9970 C   0  0  0  0  0  0  0  0  0  0  0  0
    5.0720    1.1390   20.4720 C   0  0  0  0  0  0  0  0  0  0  0  0
    9.6710   -4.9950   25.2210 C   0  0  0  0  0  0  0  0  0  0  0  0
    7.8300   -3.7890   26.4580 S   0  0  0  0  0  0  0  0  0  0  0  0
   10.9550   -1.2150   23.3410 C   0  0  0  0  0  0  0  0  0  0  0  0
    4.5040    1.5770   19.1190 C   0  0  0  0  0  0  0  0  0  0  0  0
    9.3330   -5.9010   26.1930 C   0  0  0  0  0  0  0  0  0  0  0  0
    8.2340   -5.3450   27.0390 C   0  0  0  0  0  0  0  0  0  0  0  0
   10.4060   -0.1630   24.0140 C   0  0  0  0  0  0  0  0  0  0  0  0
   12.1500   -0.9000   22.7060 C   0  0  0  0  0  0  0  0  0  0  0  0
    7.4100   -6.0020   28.3830 Cl  0  0  0  0  0  0  0  0  0  0  0  0
   12.8970   -1.9230   21.9150 C   0  0  0  0  0  0  0  0  0  0  0  0
   10.9420    1.0720   24.0750 C   0  0  0  0  0  0  0  0  0  0  0  0
   12.6710    0.4090   22.8070 C   0  0  0  0  0  0  0  0  0  0  0  0
   12.2530    1.6170   23.4420 C   0  0  0  0  0  0  0  0  0  0  0  0
  1  2  1  0
  1  3  2  0
  1  4  1  0
  4  5  1  0
  4  6  1  0
  5  7  1  0
  6  8  1  0
  6  9  1  1
  5 10  1  6
  7 11  1  0
  8 11  1  0
  9 12  1  0
  9 13  1  0
 12 13  1  0
 10 14  1  0
 11 15  1  0
 14 16  2  0
 14 17  1  0
 15 18  1  6
 15 19  1  0
 17 20  2  0
 16 21  1  0
 19 22  2  0
 19 23  1  0
 18 24  1  0
 20 25  1  0
 21 25  2  0
 22 26  1  0
 23 27  1  0
 26 27  2  0
 24 28  2  0
 24 29  1  0
 27 30  1  0
 29 31  1  0
 28 32  1  0
 29 33  2  0
 32 34  2  0
 33 34  1  0
M  END
