x0770_1-x1374_1-x1334_0-x1334_1-x0434_2-x1385_1-x1418_1-x0692_1-x1412_1-x0831_1-x0397_0-x1375_1-x1386_1-x0831_0
     RDKit          3D

 39 43  0  0  0  0  0  0  0  0999 V2000
    6.3550   -3.2050   19.7720 C   0  0  0  0  0  0  0  0  0  0  0  0
    7.3240   -2.9580   18.6350 C   0  0  0  0  0  0  0  0  0  0  0  0
    5.3640   -3.9390   19.6190 O   0  0  0  0  0  0  0  0  0  0  0  0
    6.6660   -2.6550   21.0110 N   0  0  0  0  0  0  0  0  0  0  0  0
    7.8140   -1.6590   21.1760 C   0  0  2  0  0  0  0  0  0  0  0  0
    6.8700   -3.8840   21.7820 C   0  0  1  0  0  0  0  0  0  0  0  0
    8.4520   -1.5260   22.5860 C   0  0  0  0  0  0  0  0  0  0  0  0
    8.1820   -3.8570   22.4880 C   0  0  0  0  0  0  0  0  0  0  0  0
    5.7190   -4.5600   22.5220 C   0  0  2  0  0  0  0  0  0  0  0  0
    7.4390   -0.1980   20.8370 C   0  0  0  0  0  0  0  0  0  0  0  0
    8.3700   -2.7580   23.3840 N   0  0  0  0  0  0  0  0  0  0  0  0
    5.6050   -5.6450   23.4050 C   0  0  2  0  0  0  0  0  0  0  0  0
    5.5110   -6.1830   22.2640 C   0  0  0  0  0  0  0  0  0  0  0  0
    7.1290    0.0750   19.3870 C   0  0  0  0  0  0  0  0  0  0  0  0
    9.5300   -3.0240   24.0420 C   0  0  1  0  0  0  0  0  0  0  0  0
    6.1060    0.4900   20.2990 C   0  0  0  0  0  0  0  0  0  0  0  0
    6.4580    0.5200   18.0820 N   0  0  0  0  0  0  0  0  0  0  0  0
    4.5880   -5.8530   24.4790 C   0  0  0  0  0  0  0  0  0  0  0  0
   10.1400   -1.8310   24.7860 C   0  0  0  0  0  0  0  0  0  0  0  0
    9.2920   -4.0200   25.1330 C   0  0  0  0  0  0  0  0  0  0  0  0
    5.1610    1.1830   17.9250 C   0  0  0  0  0  0  0  0  0  0  0  0
    4.8620    1.1130   20.1390 C   0  0  0  0  0  0  0  0  0  0  0  0
    4.6610   -7.0860   25.1750 C   0  0  0  0  0  0  0  0  0  0  0  0
    9.9680   -5.2220   25.4220 C   0  0  0  0  0  0  0  0  0  0  0  0
    7.9760   -3.7090   26.3050 S   0  0  0  0  0  0  0  0  0  0  0  0
   10.9530   -0.7410   24.1660 C   0  0  0  0  0  0  0  0  0  0  0  0
    4.3870    1.4640   18.9460 C   0  0  0  0  0  0  0  0  0  0  0  0
    3.7420   -8.0370   24.6260 O   0  0  0  0  0  0  0  0  0  0  0  0
    9.4440   -5.8040   26.5310 C   0  0  0  0  0  0  0  0  0  0  0  0
    8.2720   -5.1000   27.2150 C   0  0  0  0  0  0  0  0  0  0  0  0
   10.5280    0.5320   24.4120 C   0  0  0  0  0  0  0  0  0  0  0  0
   12.1020   -0.8910   23.3750 C   0  0  0  0  0  0  0  0  0  0  0  0
    2.9550   -7.5460   23.5510 C   0  0  0  0  0  0  0  0  0  0  0  0
    7.3390   -5.4740   28.5950 Cl  0  0  0  0  0  0  0  0  0  0  0  0
   12.7140   -2.2080   22.9850 C   0  0  0  0  0  0  0  0  0  0  0  0
   11.2380    1.6660   23.8910 C   0  0  0  0  0  0  0  0  0  0  0  0
   12.7890    0.3710   22.8750 C   0  0  0  0  0  0  0  0  0  0  0  0
    1.9470   -6.6890   24.0220 O   0  0  0  0  0  0  0  0  0  0  0  0
   12.3620    1.6810   23.1310 C   0  0  0  0  0  0  0  0  0  0  0  0
  1  2  1  0
  1  3  2  0
  1  4  1  0
  4  5  1  0
  4  6  1  0
  5  7  1  0
  6  8  1  1
  6  9  1  0
  5 10  1  1
  7 11  1  0
  8 11  1  0
  9 12  1  0
  9 13  1  6
 12 13  1  0
 10 14  1  0
 11 15  1  0
 14 16  2  0
 14 17  1  0
 12 18  1  1
 15 19  1  1
 15 20  1  0
 17 21  2  0
 16 22  1  0
 18 23  1  0
 20 24  2  0
 20 25  1  0
 19 26  1  0
 21 27  1  0
 22 27  2  0
 23 28  1  0
 24 29  1  0
 25 30  1  0
 29 30  2  0
 26 31  2  0
 26 32  1  0
 28 33  1  0
 30 34  1  0
 32 35  1  0
 31 36  1  0
 32 37  2  0
 33 38  1  0
 36 39  2  0
 37 39  1  0
M  END
