x0770_1-x0692_1-x0434_2-x1418_1-x1334_1-x0831_0-x1374_1-x1334_0-x0426_1-x0397_0
     RDKit          3D

 44 49  0  0  0  0  0  0  0  0999 V2000
    2.0000   -7.1990   23.5830 O   0  0  0  0  0  0  0  0  0  0  0  0
    2.3550   -7.5550   24.9100 C   0  0  0  0  0  0  0  0  0  0  0  0
    3.7340   -7.8840   24.9220 O   0  0  0  0  0  0  0  0  0  0  0  0
    4.4200   -7.1860   23.9000 C   0  0  0  0  0  0  0  0  0  0  0  0
    4.9810   -6.0370   24.4270 C   0  0  0  0  0  0  0  0  0  0  0  0
    6.0960   -5.7410   23.4860 C   0  0  2  0  0  0  0  0  0  0  0  0
    5.8670   -4.7070   22.5910 C   0  0  2  0  0  0  0  0  0  0  0  0
    6.1050   -6.2960   22.2930 C   0  0  0  0  0  0  0  0  0  0  0  0
    7.0060   -3.8060   22.0660 C   0  0  1  0  0  0  0  0  0  0  0  0
    6.3830   -2.7740   21.2590 N   0  0  0  0  0  0  0  0  0  0  0  0
    7.7260   -3.3810   23.1840 C   0  0  0  0  0  0  0  0  0  0  0  0
    6.2540   -3.1850   19.9180 C   0  0  0  0  0  0  0  0  0  0  0  0
    8.7620   -2.3910   22.8310 N   0  0  0  0  0  0  0  0  0  0  0  0
    6.8080   -1.4630   21.8300 C   0  0  2  0  0  0  0  0  0  0  0  0
    7.3100   -2.8840   18.8470 C   0  0  0  0  0  0  0  0  0  0  0  0
    5.2880   -3.8900   19.5930 O   0  0  0  0  0  0  0  0  0  0  0  0
    6.0340   -0.0490   21.6530 C   0  0  1  0  0  0  0  0  0  0  0  0
    9.6210   -2.0240   23.9670 C   0  0  1  0  0  0  0  0  0  0  0  0
    8.3600   -1.4690   21.9390 C   0  0  0  0  0  0  0  0  0  0  0  0
    4.6510   -0.1880   22.3230 C   0  0  0  0  0  0  0  0  0  0  0  0
   10.3490   -3.2700   24.4590 C   0  0  0  0  0  0  0  0  0  0  0  0
    6.7220    1.0700   22.4870 C   0  0  0  0  0  0  0  0  0  0  0  0
    5.8110    0.4450   20.2420 C   0  0  0  0  0  0  0  0  0  0  0  0
   10.5450   -0.8260   23.7350 C   0  0  0  0  0  0  0  0  0  0  0  0
    3.7550    1.0690   22.3430 C   0  0  1  0  0  0  0  0  0  0  0  0
    4.7340    1.3250   19.9330 C   0  0  0  0  0  0  0  0  0  0  0  0
    6.7560    0.0190   19.0900 C   0  0  0  0  0  0  0  0  0  0  0  0
   10.2530    0.4700   24.1910 C   0  0  0  0  0  0  0  0  0  0  0  0
   11.9180   -0.8720   22.9860 C   0  0  0  0  0  0  0  0  0  0  0  0
    9.6010   -4.1680   25.4270 C   0  0  0  0  0  0  0  0  0  0  0  0
    4.0930    2.0210   23.4140 N   0  0  0  0  0  0  0  0  0  0  0  0
    3.7670    1.7900   20.9960 C   0  0  0  0  0  0  0  0  0  0  0  0
   12.4830   -2.1020   22.3920 C   0  0  0  0  0  0  0  0  0  0  0  0
    4.5690    1.7670   18.6670 C   0  0  0  0  0  0  0  0  0  0  0  0
    6.5890    0.4540   17.8550 N   0  0  0  0  0  0  0  0  0  0  0  0
   11.0780    1.5720   23.9980 C   0  0  0  0  0  0  0  0  0  0  0  0
   12.7300    0.3640   22.8390 C   0  0  0  0  0  0  0  0  0  0  0  0
    9.9480   -5.5070   25.6150 C   0  0  0  0  0  0  0  0  0  0  0  0
    8.2560   -3.7310   26.4310 S   0  0  0  0  0  0  0  0  0  0  0  0
    5.5570    1.2730   17.7000 C   0  0  0  0  0  0  0  0  0  0  0  0
   12.3350    1.5840   23.3290 C   0  0  0  0  0  0  0  0  0  0  0  0
    9.1780   -6.1050   26.5300 C   0  0  0  0  0  0  0  0  0  0  0  0
    8.2050   -5.3740   27.1220 C   0  0  0  0  0  0  0  0  0  0  0  0
    7.0780   -5.8290   28.3200 Cl  0  0  0  0  0  0  0  0  0  0  0  0
  1  2  1  0
  2  3  1  0
  3  4  1  0
  4  5  1  0
  6  5  1  1
  6  7  1  0
  6  8  1  0
  7  8  1  6
  7  9  1  0
  9 10  1  0
  9 11  1  1
 10 12  1  0
 11 13  1  0
 10 14  1  0
 12 15  1  0
 12 16  2  0
 14 17  1  0
 13 18  1  0
 13 19  1  0
 14 19  1  6
 17 20  1  0
 18 21  1  6
 17 22  1  1
 17 23  1  0
 18 24  1  0
 20 25  1  0
 23 26  2  0
 23 27  1  0
 24 28  2  0
 24 29  1  0
 21 30  1  0
 25 31  1  1
 25 32  1  0
 26 32  1  0
 29 33  1  0
 26 34  1  0
 27 35  2  0
 28 36  1  0
 29 37  2  0
 30 38  2  0
 30 39  1  0
 34 40  2  0
 35 40  1  0
 36 41  2  0
 37 41  1  0
 38 42  1  0
 39 43  1  0
 42 43  2  0
 43 44  1  0
M  END
