x0770_1-x1374_1-x1385_1-x0426_1-x1386_1-x1418_1-x0397_0-x0831_1-x0831_0-x1334_1-x1334_0-x0692_1
     RDKit          3D

 43 48  0  0  0  0  0  0  0  0999 V2000
    2.1550   -6.6490   24.0570 O   0  0  0  0  0  0  0  0  0  0  0  0
    2.5290   -8.0120   24.0630 C   0  0  0  0  0  0  0  0  0  0  0  0
    3.7210   -8.2280   24.8180 O   0  0  0  0  0  0  0  0  0  0  0  0
    4.7790   -7.2850   24.6410 C   0  0  0  0  0  0  0  0  0  0  0  0
    4.4540   -6.3770   23.6390 C   0  0  0  0  0  0  0  0  0  0  0  0
    5.6990   -5.7510   23.1230 C   0  0  2  0  0  0  0  0  0  0  0  0
    5.6180   -4.5880   22.4060 C   0  0  2  0  0  0  0  0  0  0  0  0
    6.0480   -5.9900   21.7360 C   0  0  0  0  0  0  0  0  0  0  0  0
    6.4830   -3.3850   22.4420 C   0  0  2  0  0  0  0  0  0  0  0  0
    6.5730   -2.6910   21.1850 N   0  0  0  0  0  0  0  0  0  0  0  0
    7.8520   -3.5320   22.8530 C   0  0  0  0  0  0  0  0  0  0  0  0
    6.3060   -3.3400   19.9590 C   0  0  0  0  0  0  0  0  0  0  0  0
    8.4890   -2.2520   23.2810 N   0  0  0  0  0  0  0  0  0  0  0  0
    6.9920   -1.3020   21.4220 C   0  0  1  0  0  0  0  0  0  0  0  0
    7.2490   -3.0090   18.8200 C   0  0  0  0  0  0  0  0  0  0  0  0
    5.3950   -4.1640   19.7870 O   0  0  0  0  0  0  0  0  0  0  0  0
    5.7700   -0.3100   21.4080 C   0  0  1  0  0  0  0  0  0  0  0  0
    9.8610   -2.2800   23.1990 C   0  0  2  0  0  0  0  0  0  0  0  0
    8.0030   -1.0720   22.5560 C   0  0  0  0  0  0  0  0  0  0  0  0
    5.6760    0.7490   22.5500 C   0  0  0  0  0  0  0  0  0  0  0  0
   10.4690   -3.1730   24.2260 C   0  0  0  0  0  0  0  0  0  0  0  0
    5.6370    0.3430   20.0540 C   0  0  0  0  0  0  0  0  0  0  0  0
   10.6570   -0.9580   23.2800 C   0  0  0  0  0  0  0  0  0  0  0  0
    4.5430    1.8110   22.3990 C   0  0  2  0  0  0  0  0  0  0  0  0
    4.5850    1.3520   19.9480 C   0  0  0  0  0  0  0  0  0  0  0  0
    6.4890    0.0400   18.8330 C   0  0  0  0  0  0  0  0  0  0  0  0
    9.8990    0.2510   23.8910 C   0  0  0  0  0  0  0  0  0  0  0  0
   11.9920   -0.8530   22.8260 C   0  0  0  0  0  0  0  0  0  0  0  0
    9.7220   -3.9250   25.2920 C   0  0  0  0  0  0  0  0  0  0  0  0
    3.6480    1.7870   23.5320 N   0  0  0  0  0  0  0  0  0  0  0  0
    3.7250    1.7000   21.1040 C   0  0  0  0  0  0  0  0  0  0  0  0
   12.7770   -1.9670   22.2140 C   0  0  0  0  0  0  0  0  0  0  0  0
    4.4750    1.9340   18.7080 C   0  0  0  0  0  0  0  0  0  0  0  0
    6.3360    0.6440   17.6420 N   0  0  0  0  0  0  0  0  0  0  0  0
   10.7230    1.5350   23.9550 C   0  0  0  0  0  0  0  0  0  0  0  0
   12.7040    0.3340   22.9050 C   0  0  0  0  0  0  0  0  0  0  0  0
   10.2760   -5.0490   25.9310 C   0  0  0  0  0  0  0  0  0  0  0  0
    8.1700   -3.5410   25.8850 S   0  0  0  0  0  0  0  0  0  0  0  0
    5.2620    1.6310   17.6280 C   0  0  0  0  0  0  0  0  0  0  0  0
   12.0300    1.6030   23.5020 C   0  0  0  0  0  0  0  0  0  0  0  0
    9.4030   -5.6370   26.9860 C   0  0  0  0  0  0  0  0  0  0  0  0
    8.1580   -4.8260   27.0400 C   0  0  0  0  0  0  0  0  0  0  0  0
    6.8500   -5.0990   28.1140 Cl  0  0  0  0  0  0  0  0  0  0  0  0
  1  2  1  0
  2  3  1  0
  3  4  1  0
  4  5  1  0
  6  5  1  6
  6  7  1  0
  6  8  1  0
  7  8  1  6
  7  9  1  0
  9 10  1  0
  9 11  1  6
 10 12  1  0
 11 13  1  0
 10 14  1  0
 12 15  1  0
 12 16  2  0
 14 17  1  0
 13 18  1  0
 13 19  1  0
 14 19  1  1
 17 20  1  1
 18 21  1  1
 17 22  1  0
 18 23  1  0
 20 24  1  0
 22 25  2  0
 22 26  1  0
 23 27  2  0
 23 28  1  0
 21 29  1  0
 24 30  1  1
 24 31  1  0
 25 31  1  0
 28 32  1  0
 25 33  1  0
 26 34  2  0
 27 35  1  0
 28 36  2  0
 29 37  2  0
 29 38  1  0
 33 39  2  0
 34 39  1  0
 35 40  2  0
 36 40  1  0
 37 41  1  0
 38 42  1  0
 41 42  2  0
 42 43  1  0
M  END
