x0770_1-x0397_0-x0831_1-x1418_1-x1334_1-x1385_1-x0831_0-x1386_1-x0692_1
     RDKit          3D

 20 22  0  0  0  0  0  0  0  0999 V2000
    6.2530   -3.2920   19.9230 C   0  0  0  0  0  0  0  0  0  0  0  0
    7.2000   -2.9840   18.7900 C   0  0  0  0  0  0  0  0  0  0  0  0
    5.3500   -4.1310   19.7450 O   0  0  0  0  0  0  0  0  0  0  0  0
    6.4650   -2.6320   21.1380 N   0  0  0  0  0  0  0  0  0  0  0  0
    7.1060   -1.3280   21.2450 C   0  0  0  0  0  0  0  0  0  0  0  0
    6.5130   -3.5010   22.3240 C   0  0  2  0  0  0  0  0  0  0  0  0
    8.5220   -1.5200   21.7760 C   0  0  0  0  0  0  0  0  0  0  0  0
    7.7070   -3.2580   23.3000 C   0  0  0  0  0  0  0  0  0  0  0  0
    6.4360   -5.0380   22.0650 C   0  0  0  0  0  0  0  0  0  0  0  0
    8.5980   -2.0750   23.1310 N   0  0  0  0  0  0  0  0  0  0  0  0
    6.7610   -5.6350   23.3640 C   0  0  0  0  0  0  0  0  0  0  0  0
    5.5150   -6.2670   22.5700 C   0  0  0  0  0  0  0  0  0  0  0  0
    9.9000   -2.2960   23.4860 C   0  0  0  0  0  0  0  0  0  0  0  0
   10.7930   -1.0220   23.4760 C   0  0  0  0  0  0  0  0  0  0  0  0
   10.2730    0.1220   24.1080 C   0  0  0  0  0  0  0  0  0  0  0  0
   12.0800   -0.9500   22.8580 C   0  0  0  0  0  0  0  0  0  0  0  0
   12.7090   -2.1190   22.1560 C   0  0  0  0  0  0  0  0  0  0  0  0
   10.9900    1.2910   24.1200 C   0  0  0  0  0  0  0  0  0  0  0  0
   12.8020    0.2750   22.8950 C   0  0  0  0  0  0  0  0  0  0  0  0
   12.2250    1.3670   23.5270 C   0  0  0  0  0  0  0  0  0  0  0  0
  1  2  1  0
  1  3  2  0
  1  4  1  0
  4  5  1  0
  4  6  1  0
  5  7  1  0
  6  8  1  0
  6  9  1  6
  7 10  1  0
  8 10  1  0
  9 11  1  0
  9 12  1  0
 11 12  1  0
 10 13  1  0
 13 14  1  0
 14 15  2  0
 14 16  1  0
 16 17  1  0
 15 18  1  0
 16 19  2  0
 18 20  2  0
 19 20  1  0
M  END
