x0770_1-x1334_1-x0692_1-x1386_1-x0434_2-x1374_1-x0831_0
     RDKit          3D

 32 35  0  0  0  0  0  0  0  0999 V2000
    6.3920   -3.1640   19.8210 C   0  0  0  0  0  0  0  0  0  0  0  0
    7.3740   -2.9510   18.6900 C   0  0  0  0  0  0  0  0  0  0  0  0
    5.4350   -3.9450   19.6580 O   0  0  0  0  0  0  0  0  0  0  0  0
    6.6420   -2.4790   21.0110 N   0  0  0  0  0  0  0  0  0  0  0  0
    7.7470   -1.5210   21.2140 C   0  0  2  0  0  0  0  0  0  0  0  0
    6.6020   -3.3940   22.1610 C   0  0  1  0  0  0  0  0  0  0  0  0
    5.8530   -4.7410   21.7990 C   0  0  0  0  0  0  0  0  0  0  0  0
    8.1100   -1.3280   22.7030 C   0  0  0  0  0  0  0  0  0  0  0  0
    8.0400   -3.6560   22.7000 C   0  0  0  0  0  0  0  0  0  0  0  0
    7.5000   -0.0700   20.6730 C   0  0  0  0  0  0  0  0  0  0  0  0
    8.6390   -2.5190   23.3870 N   0  0  0  0  0  0  0  0  0  0  0  0
    4.7850   -5.1450   22.7570 C   0  0  2  0  0  0  0  0  0  0  0  0
    7.1260    0.1000   19.3270 C   0  0  0  0  0  0  0  0  0  0  0  0
   10.1250   -2.4690   23.4310 C   0  0  0  0  0  0  0  0  0  0  0  0
    4.3140   -4.2390   23.8020 C   0  0  0  0  0  0  0  0  0  0  0  0
    5.2950   -6.4720   23.3100 C   0  0  0  0  0  0  0  0  0  0  0  0
    6.1240    0.5450   20.3510 C   0  0  0  0  0  0  0  0  0  0  0  0
    6.4410    0.4200   18.1570 N   0  0  0  0  0  0  0  0  0  0  0  0
    3.6600   -5.3660   24.6030 C   0  0  0  0  0  0  0  0  0  0  0  0
    3.7990   -6.9100   24.0410 S   0  0  0  0  0  0  0  0  0  0  0  0
   10.7290   -1.0710   23.5650 C   0  0  0  0  0  0  0  0  0  0  0  0
    5.2320    0.9830   17.9280 C   0  0  0  0  0  0  0  0  0  0  0  0
    4.8960    1.1050   20.1300 C   0  0  0  0  0  0  0  0  0  0  0  0
    2.7890   -7.3570   22.9080 O   0  0  0  0  0  0  0  0  0  0  0  0
    4.0410   -8.0200   25.1330 O   0  0  0  0  0  0  0  0  0  0  0  0
   10.1750    0.0280   24.2230 C   0  0  0  0  0  0  0  0  0  0  0  0
   11.9900   -0.9710   22.9050 C   0  0  0  0  0  0  0  0  0  0  0  0
    4.3670    1.3680   18.8180 C   0  0  0  0  0  0  0  0  0  0  0  0
   12.6540   -2.0940   22.1720 C   0  0  0  0  0  0  0  0  0  0  0  0
   10.8410    1.2320   24.2320 C   0  0  0  0  0  0  0  0  0  0  0  0
   12.7200    0.2100   22.8840 C   0  0  0  0  0  0  0  0  0  0  0  0
   12.2090    1.3400   23.5160 C   0  0  0  0  0  0  0  0  0  0  0  0
  1  2  1  0
  1  3  2  0
  1  4  1  0
  4  5  1  0
  4  6  1  0
  6  7  1  6
  5  8  1  0
  6  9  1  0
  5 10  1  1
  8 11  1  0
  9 11  1  0
 12  7  1  1
 10 13  1  0
 11 14  1  0
 12 15  1  0
 12 16  1  0
 13 17  2  0
 13 18  1  0
 15 19  2  0
 16 20  1  0
 19 20  1  0
 14 21  1  0
 18 22  2  0
 17 23  1  0
 20 24  1  0
 20 25  1  0
 21 26  2  0
 21 27  1  0
 22 28  1  0
 23 28  2  0
 27 29  1  0
 26 30  1  0
 27 31  2  0
 30 32  2  0
 31 32  1  0
M  END
