x0771_1-x0769_0-x1386_0
     RDKit          3D

 28 30  0  0  0  0  0  0  0  0999 V2000
    4.9840   -5.6510   25.7920 S   0  0  0  0  0  0  0  0  0  0  0  0
    3.7280   -4.3810   25.8830 C   0  0  0  0  0  0  0  0  0  0  0  0
    4.0710   -3.0880   26.3260 C   0  0  0  0  0  0  0  0  0  0  0  0
    4.3290   -6.9480   25.7900 O   0  0  0  0  0  0  0  0  0  0  0  0
    6.0040   -5.3200   26.7710 O   0  0  0  0  0  0  0  0  0  0  0  0
    5.7100   -5.4410   24.2720 N   0  0  0  0  0  0  0  0  0  0  0  0
    2.4450   -4.7420   25.5090 C   0  0  0  0  0  0  0  0  0  0  0  0
    5.0300   -6.0710   23.1250 C   0  0  0  0  0  0  0  0  0  0  0  0
    6.3760   -4.1590   23.9550 C   0  0  0  0  0  0  0  0  0  0  0  0
    2.0520   -6.1630   25.0090 C   0  0  0  0  0  0  0  0  0  0  0  0
    1.4190   -3.7530   25.5900 C   0  0  0  0  0  0  0  0  0  0  0  0
    3.1120   -2.0960   26.4200 C   0  0  0  0  0  0  0  0  0  0  0  0
    5.9460   -6.2220   22.0850 C   0  0  0  0  0  0  0  0  0  0  0  0
    7.2340   -4.2640   22.8780 C   0  0  2  0  0  0  0  0  0  0  0  0
    7.7330   -2.8440   22.5570 C   0  0  0  0  0  0  0  0  0  0  0  0
    1.6740   -2.4680   26.0240 C   0  0  0  0  0  0  0  0  0  0  0  0
    6.6290   -4.9530   21.6700 N   0  0  0  0  0  0  0  0  0  0  0  0
    0.5760   -1.4540   26.1120 C   0  0  0  0  0  0  0  0  0  0  0  0
    6.3560   -4.3180   20.4510 C   0  0  0  0  0  0  0  0  0  0  0  0
    9.2450   -2.7910   22.3430 C   0  0  0  0  0  0  0  0  0  0  0  0
    5.2860   -4.5600   19.9120 O   0  0  0  0  0  0  0  0  0  0  0  0
    7.3530   -3.3590   19.7640 C   0  0  0  0  0  0  0  0  0  0  0  0
   10.0480   -2.6600   23.6550 C   0  0  0  0  0  0  0  0  0  0  0  0
   11.0030   -1.4950   23.5930 C   0  0  0  0  0  0  0  0  0  0  0  0
   12.0850   -1.5140   22.7280 C   0  0  0  0  0  0  0  0  0  0  0  0
   10.9730   -0.3110   24.3090 C   0  0  0  0  0  0  0  0  0  0  0  0
   12.8770   -0.3920   22.7490 C   0  0  0  0  0  0  0  0  0  0  0  0
   12.2700    0.7320   23.8700 S   0  0  0  0  0  0  0  0  0  0  0  0
  1  2  1  0
  2  3  2  0
  1  4  2  0
  1  5  2  0
  1  6  1  0
  2  7  1  0
  6  8  1  0
  6  9  1  0
  7 10  1  0
  7 11  2  0
  3 12  1  0
  8 13  1  0
  9 14  1  0
 14 15  1  6
 11 16  1  0
 12 16  2  0
 13 17  1  0
 14 17  1  0
 16 18  1  0
 17 19  1  0
 15 20  1  0
 19 21  2  0
 19 22  1  0
 20 23  1  0
 23 24  1  0
 24 25  1  0
 24 26  2  0
 25 27  2  0
 26 28  1  0
 27 28  1  0
M  END
