x0771_1-x1418_0-x0769_0-x1386_0
     RDKit          3D

 29 31  0  0  0  0  0  0  0  0999 V2000
    5.0550   -5.6050   25.7380 S   0  0  0  0  0  0  0  0  0  0  0  0
    3.7920   -4.3450   25.8570 C   0  0  0  0  0  0  0  0  0  0  0  0
    4.0830   -3.0460   26.2880 C   0  0  0  0  0  0  0  0  0  0  0  0
    4.3810   -6.8840   25.7330 O   0  0  0  0  0  0  0  0  0  0  0  0
    6.0610   -5.3370   26.7320 O   0  0  0  0  0  0  0  0  0  0  0  0
    5.7800   -5.3860   24.2130 N   0  0  0  0  0  0  0  0  0  0  0  0
    2.3360   -4.7260   25.4740 C   0  0  0  0  0  0  0  0  0  0  0  0
    5.0450   -6.0130   23.1040 C   0  0  0  0  0  0  0  0  0  0  0  0
    6.3840   -4.0520   23.8840 C   0  0  0  0  0  0  0  0  0  0  0  0
    1.9290   -6.0890   24.9930 C   0  0  0  0  0  0  0  0  0  0  0  0
    1.3480   -3.7410   25.5870 C   0  0  0  0  0  0  0  0  0  0  0  0
    3.0540   -2.1020   26.3810 C   0  0  0  0  0  0  0  0  0  0  0  0
    5.8570   -6.2960   22.0080 C   0  0  0  0  0  0  0  0  0  0  0  0
    7.3580   -4.2610   22.7310 C   0  0  2  0  0  0  0  0  0  0  0  0
    7.8140   -2.8610   22.2370 C   0  0  0  0  0  0  0  0  0  0  0  0
    1.7480   -2.4390   26.0500 C   0  0  0  0  0  0  0  0  0  0  0  0
    6.6950   -4.9990   21.6010 N   0  0  0  0  0  0  0  0  0  0  0  0
    0.5280   -1.5780   26.1030 C   0  0  0  0  0  0  0  0  0  0  0  0
    6.3500   -4.3170   20.4030 C   0  0  0  0  0  0  0  0  0  0  0  0
    9.2190   -2.6170   22.0670 C   0  0  0  0  0  0  0  0  0  0  0  0
    5.2620   -4.4770   19.8750 O   0  0  0  0  0  0  0  0  0  0  0  0
    7.3680   -3.3700   19.7360 C   0  0  0  0  0  0  0  0  0  0  0  0
    9.9400   -2.4700   23.4290 C   0  0  2  0  0  0  0  0  0  0  0  0
    8.8890   -1.9170   24.3340 C   0  0  0  0  0  0  0  0  0  0  0  0
   11.0050   -1.4170   23.3730 C   0  0  0  0  0  0  0  0  0  0  0  0
   12.1230   -1.4180   22.5690 C   0  0  0  0  0  0  0  0  0  0  0  0
   10.9540   -0.0050   24.3450 S   0  0  0  0  0  0  0  0  0  0  0  0
   12.9020   -0.3200   22.7210 C   0  0  0  0  0  0  0  0  0  0  0  0
   12.4090    0.5800   23.6590 C   0  0  0  0  0  0  0  0  0  0  0  0
  1  2  1  0
  2  3  2  0
  1  4  2  0
  1  5  2  0
  1  6  1  0
  2  7  1  0
  6  8  1  0
  6  9  1  0
  7 10  1  0
  7 11  2  0
  3 12  1  0
  8 13  1  0
  9 14  1  0
 14 15  1  6
 11 16  1  0
 12 16  2  0
 13 17  1  0
 14 17  1  0
 16 18  1  0
 17 19  1  0
 15 20  1  0
 19 21  2  0
 19 22  1  0
 20 23  1  0
 23 24  1  1
 23 25  1  0
 25 26  2  0
 25 27  1  0
 26 28  1  0
 27 29  1  0
 28 29  2  0
M  END
