x0770_1-x0831_1-x1374_1-x1334_1-x0831_0-x1375_1-x1386_1-x1418_1-x1334_0-x0692_1-x1412_1-x1385_1-x0397_0-x0434_2
     RDKit          3D

 39 43  0  0  0  0  0  0  0  0999 V2000
    6.3240   -3.2660   19.8370 C   0  0  0  0  0  0  0  0  0  0  0  0
    7.2390   -2.9700   18.6690 C   0  0  0  0  0  0  0  0  0  0  0  0
    5.4340   -4.1320   19.7610 O   0  0  0  0  0  0  0  0  0  0  0  0
    6.6020   -2.4950   20.9950 N   0  0  0  0  0  0  0  0  0  0  0  0
    7.6790   -1.4720   21.0110 C   0  0  2  0  0  0  0  0  0  0  0  0
    6.4680   -3.1460   22.3260 C   0  0  2  0  0  0  0  0  0  0  0  0
    8.1350   -1.1460   22.4170 C   0  0  0  0  0  0  0  0  0  0  0  0
    7.8220   -3.4140   23.0170 C   0  0  0  0  0  0  0  0  0  0  0  0
    5.6120   -4.4050   22.1770 C   0  0  2  0  0  0  0  0  0  0  0  0
    7.3120   -0.0890   20.4790 C   0  0  0  0  0  0  0  0  0  0  0  0
    8.7640   -2.3270   22.9390 N   0  0  0  0  0  0  0  0  0  0  0  0
    6.0450   -5.3950   23.2840 C   0  0  2  0  0  0  0  0  0  0  0  0
    6.1580   -5.9180   22.1220 C   0  0  0  0  0  0  0  0  0  0  0  0
    7.0340    0.1530   19.1720 C   0  0  0  0  0  0  0  0  0  0  0  0
    9.6030   -2.0320   24.0950 C   0  0  1  0  0  0  0  0  0  0  0  0
    6.0500    0.5540   20.1450 C   0  0  0  0  0  0  0  0  0  0  0  0
    6.4410    0.5480   17.9960 N   0  0  0  0  0  0  0  0  0  0  0  0
    5.0330   -5.9150   24.2710 C   0  0  0  0  0  0  0  0  0  0  0  0
   10.4530   -3.1540   24.4990 C   0  0  0  0  0  0  0  0  0  0  0  0
   10.5660   -0.9130   23.8200 C   0  0  0  0  0  0  0  0  0  0  0  0
    5.1770    1.2040   17.8540 C   0  0  0  0  0  0  0  0  0  0  0  0
    4.7950    1.1830   20.0910 C   0  0  0  0  0  0  0  0  0  0  0  0
    4.6260   -7.1150   23.7490 C   0  0  0  0  0  0  0  0  0  0  0  0
   10.0660    0.4030   24.3430 C   0  0  0  0  0  0  0  0  0  0  0  0
   11.9400   -0.9440   23.0860 C   0  0  0  0  0  0  0  0  0  0  0  0
    9.7440   -4.1130   25.4120 C   0  0  0  0  0  0  0  0  0  0  0  0
    4.2810    1.5480   18.9630 C   0  0  0  0  0  0  0  0  0  0  0  0
    4.0700   -7.9370   24.7570 O   0  0  0  0  0  0  0  0  0  0  0  0
   12.5750   -2.1560   22.4990 C   0  0  0  0  0  0  0  0  0  0  0  0
   10.9310    1.6230   24.1180 C   0  0  0  0  0  0  0  0  0  0  0  0
   12.6880    0.3260   22.9430 C   0  0  0  0  0  0  0  0  0  0  0  0
   10.1040   -5.4320   25.6850 C   0  0  0  0  0  0  0  0  0  0  0  0
    8.3100   -3.7200   26.3160 S   0  0  0  0  0  0  0  0  0  0  0  0
    2.6550   -7.9070   24.7950 C   0  0  0  0  0  0  0  0  0  0  0  0
   12.2930    1.5130   23.3810 C   0  0  0  0  0  0  0  0  0  0  0  0
    9.2760   -6.0240   26.5620 C   0  0  0  0  0  0  0  0  0  0  0  0
    8.2390   -5.2620   27.0370 C   0  0  0  0  0  0  0  0  0  0  0  0
    2.1870   -7.0150   23.8020 O   0  0  0  0  0  0  0  0  0  0  0  0
    7.0250   -5.6890   28.1660 Cl  0  0  0  0  0  0  0  0  0  0  0  0
  1  2  1  0
  1  3  2  0
  1  4  1  0
  4  5  1  0
  4  6  1  0
  5  7  1  0
  6  8  1  6
  6  9  1  0
  5 10  1  1
  7 11  1  0
  8 11  1  0
  9 12  1  0
  9 13  1  6
 12 13  1  0
 10 14  1  0
 11 15  1  0
 14 16  2  0
 14 17  1  0
 12 18  1  1
 15 19  1  6
 15 20  1  0
 17 21  2  0
 16 22  1  0
 18 23  1  0
 20 24  2  0
 20 25  1  0
 19 26  1  0
 21 27  1  0
 22 27  2  0
 23 28  1  0
 25 29  1  0
 24 30  1  0
 25 31  2  0
 26 32  2  0
 26 33  1  0
 28 34  1  0
 30 35  2  0
 31 35  1  0
 32 36  1  0
 33 37  1  0
 36 37  2  0
 34 38  1  0
 37 39  1  0
M  END
