x0770_1-x0831_0
     RDKit          3D

 17 18  0  0  0  0  0  0  0  0999 V2000
    6.2990   -3.3290   19.9560 C   0  0  0  0  0  0  0  0  0  0  0  0
    7.2420   -2.9930   18.8160 C   0  0  0  0  0  0  0  0  0  0  0  0
    5.4020   -4.1700   19.7710 O   0  0  0  0  0  0  0  0  0  0  0  0
    6.5250   -2.6760   21.1880 N   0  0  0  0  0  0  0  0  0  0  0  0
    7.3100   -1.4370   21.2890 C   0  0  0  0  0  0  0  0  0  0  0  0
    6.4480   -3.3900   22.4640 C   0  0  0  0  0  0  0  0  0  0  0  0
    8.6000   -1.6480   21.7400 C   0  0  0  0  0  0  0  0  0  0  0  0
    7.7720   -3.3840   23.2580 C   0  0  0  0  0  0  0  0  0  0  0  0
    8.6140   -2.1590   23.1070 N   0  0  0  0  0  0  0  0  0  0  0  0
    9.9150   -2.3580   23.4850 C   0  0  0  0  0  0  0  0  0  0  0  0
   10.7180   -1.0710   23.5170 C   0  0  0  0  0  0  0  0  0  0  0  0
   10.1950    0.0460   24.1530 C   0  0  0  0  0  0  0  0  0  0  0  0
   11.9830   -0.9790   22.9040 C   0  0  0  0  0  0  0  0  0  0  0  0
   12.6170   -2.1370   22.1890 C   0  0  0  0  0  0  0  0  0  0  0  0
   10.9100    1.2370   24.1740 C   0  0  0  0  0  0  0  0  0  0  0  0
   12.7130    0.2120   22.9260 C   0  0  0  0  0  0  0  0  0  0  0  0
   12.1600    1.3170   23.5630 C   0  0  0  0  0  0  0  0  0  0  0  0
  1  2  1  0
  1  3  2  0
  1  4  1  0
  4  5  1  0
  4  6  1  0
  5  7  1  0
  6  8  1  0
  7  9  1  0
  8  9  1  0
  9 10  1  0
 10 11  1  0
 11 12  2  0
 11 13  1  0
 13 14  1  0
 12 15  1  0
 13 16  2  0
 15 17  2  0
 16 17  1  0
M  END
