x0770_1-x1385_1-x0540_3-x1412_0-x0831_0-x0692_1-x1334_1
     RDKit          3D

 31 33  0  0  0  0  0  0  0  0999 V2000
    6.1620   -3.3190   19.9500 C   0  0  0  0  0  0  0  0  0  0  0  0
    7.1410   -2.9630   18.8360 C   0  0  0  0  0  0  0  0  0  0  0  0
    5.3530   -4.2400   19.7950 O   0  0  0  0  0  0  0  0  0  0  0  0
    6.2060   -2.5950   21.1710 N   0  0  0  0  0  0  0  0  0  0  0  0
    7.0330   -1.4320   21.5420 C   0  0  1  0  0  0  0  0  0  0  0  0
    5.9410   -3.4090   22.3620 C   0  0  0  0  0  0  0  0  0  0  0  0
    6.3880   -0.2920   22.3590 C   0  0  0  0  0  0  0  0  0  0  0  0
    8.3950   -1.9030   22.1630 C   0  0  0  0  0  0  0  0  0  0  0  0
    7.2180   -3.9840   22.9050 C   0  0  0  0  0  0  0  0  0  0  0  0
    5.0250    0.1860   21.8400 C   0  0  0  0  0  0  0  0  0  0  0  0
    8.2340   -2.9570   23.2220 N   0  0  0  0  0  0  0  0  0  0  0  0
    4.8960    1.7460   21.6660 C   0  0  0  0  0  0  0  0  0  0  0  0
    8.4460   -2.6320   24.6490 C   0  0  2  0  0  0  0  0  0  0  0  0
    4.3420    2.4180   22.8260 N   0  0  0  0  0  0  0  0  0  0  0  0
    7.4540   -1.7150   25.1350 O   0  0  0  0  0  0  0  0  0  0  0  0
    9.7770   -2.0180   24.9570 C   0  0  0  0  0  0  0  0  0  0  0  0
    8.4660   -3.8390   25.5710 C   0  0  0  0  0  0  0  0  0  0  0  0
    3.1240    2.0700   23.3560 C   0  0  0  0  0  0  0  0  0  0  0  0
   10.5730   -2.1860   23.7000 C   0  0  0  0  0  0  0  0  0  0  0  0
    9.5950   -4.8630   25.7130 C   0  0  0  0  0  0  0  0  0  0  0  0
    7.2030   -4.2960   26.6690 S   0  0  0  0  0  0  0  0  0  0  0  0
    2.9390    1.4870   24.4200 O   0  0  0  0  0  0  0  0  0  0  0  0
    9.3830   -5.9890   26.7040 C   0  0  0  0  0  0  0  0  0  0  0  0
    8.0070   -5.6860   27.2830 C   0  0  0  0  0  0  0  0  0  0  0  0
   11.2080   -0.8570   23.5540 C   0  0  0  0  0  0  0  0  0  0  0  0
   10.4980    0.2530   24.1510 C   0  0  0  0  0  0  0  0  0  0  0  0
   12.4200   -0.7510   22.8770 C   0  0  0  0  0  0  0  0  0  0  0  0
   13.0770   -1.9500   22.2730 C   0  0  0  0  0  0  0  0  0  0  0  0
   11.0990    1.4780   24.0170 C   0  0  0  0  0  0  0  0  0  0  0  0
   13.0110    0.4790   22.7640 C   0  0  0  0  0  0  0  0  0  0  0  0
   12.3020    1.6430   23.3660 C   0  0  0  0  0  0  0  0  0  0  0  0
  1  2  1  0
  1  3  2  0
  1  4  1  0
  4  5  1  0
  4  6  1  0
  5  7  1  1
  5  8  1  0
  6  9  1  0
  7 10  1  0
  8 11  1  0
  9 11  1  0
 10 12  1  0
 11 13  1  0
 12 14  1  0
 13 15  1  1
 13 16  1  0
 13 17  1  0
 14 18  1  0
 16 19  1  0
 17 20  2  0
 17 21  1  0
 18 22  2  0
 20 23  1  0
 21 24  1  0
 23 24  2  0
 19 25  1  0
 25 26  2  0
 25 27  1  0
 27 28  1  0
 26 29  1  0
 27 30  2  0
 29 31  2  0
 30 31  1  0
M  END
