x0770_1-x1385_1-x1374_1-x0831_0-x0434_2-x1334_1-x1418_1-x0397_0-x0692_1-x1412_1-x1334_0-x0426_1
     RDKit          3D

 44 49  0  0  0  0  0  0  0  0999 V2000
    2.2940   -7.6560   23.3230 O   0  0  0  0  0  0  0  0  0  0  0  0
    2.5790   -7.8970   24.6850 C   0  0  0  0  0  0  0  0  0  0  0  0
    3.9730   -7.8620   24.8790 O   0  0  0  0  0  0  0  0  0  0  0  0
    4.6050   -7.1170   23.8400 C   0  0  0  0  0  0  0  0  0  0  0  0
    5.1650   -6.0210   24.3150 C   0  0  0  0  0  0  0  0  0  0  0  0
    6.1440   -5.5670   23.2640 C   0  0  2  0  0  0  0  0  0  0  0  0
    5.7870   -4.7300   22.3690 C   0  0  2  0  0  0  0  0  0  0  0  0
    6.1650   -6.2990   22.1870 C   0  0  0  0  0  0  0  0  0  0  0  0
    6.8240   -3.6700   22.0930 C   0  0  1  0  0  0  0  0  0  0  0  0
    6.2630   -2.6700   21.1840 N   0  0  0  0  0  0  0  0  0  0  0  0
    7.5040   -3.1830   23.3920 C   0  0  0  0  0  0  0  0  0  0  0  0
    6.1910   -3.1660   19.8830 C   0  0  0  0  0  0  0  0  0  0  0  0
    8.3810   -1.9850   23.2670 N   0  0  0  0  0  0  0  0  0  0  0  0
    6.7290   -1.3860   21.7110 C   0  0  2  0  0  0  0  0  0  0  0  0
    7.3020   -2.9100   18.8520 C   0  0  0  0  0  0  0  0  0  0  0  0
    5.2390   -3.8870   19.5700 O   0  0  0  0  0  0  0  0  0  0  0  0
    6.1630    0.0310   21.5410 C   0  0  1  0  0  0  0  0  0  0  0  0
    9.7840   -2.2220   23.2340 C   0  0  2  0  0  0  0  0  0  0  0  0
    8.2080   -1.4250   21.9250 C   0  0  0  0  0  0  0  0  0  0  0  0
    5.2510    0.4090   22.6850 C   0  0  0  0  0  0  0  0  0  0  0  0
   10.1790   -3.5120   23.8540 C   0  0  0  0  0  0  0  0  0  0  0  0
    7.3490    1.0350   21.6980 C   0  0  0  0  0  0  0  0  0  0  0  0
    5.7820    0.5560   20.2460 C   0  0  0  0  0  0  0  0  0  0  0  0
   10.6030   -0.9780   23.3850 C   0  0  0  0  0  0  0  0  0  0  0  0
    4.4690    1.7230   22.4820 C   0  0  2  0  0  0  0  0  0  0  0  0
    4.6620    1.3430   20.0210 C   0  0  0  0  0  0  0  0  0  0  0  0
    6.6230    0.2550   19.1650 C   0  0  0  0  0  0  0  0  0  0  0  0
   10.1070    0.2160   24.0990 C   0  0  0  0  0  0  0  0  0  0  0  0
   12.0200   -0.8890   22.7530 C   0  0  0  0  0  0  0  0  0  0  0  0
    9.4360   -4.1550   25.0320 C   0  0  0  0  0  0  0  0  0  0  0  0
    3.4920    1.8500   23.5330 N   0  0  0  0  0  0  0  0  0  0  0  0
    3.7410    1.6670   21.1450 C   0  0  0  0  0  0  0  0  0  0  0  0
   12.6860   -1.9900   21.9930 C   0  0  0  0  0  0  0  0  0  0  0  0
    4.5110    1.8090   18.5950 C   0  0  0  0  0  0  0  0  0  0  0  0
    6.5570    0.6150   17.8640 N   0  0  0  0  0  0  0  0  0  0  0  0
   10.9820    1.4170   24.1450 C   0  0  0  0  0  0  0  0  0  0  0  0
   12.6920    0.2680   22.8890 C   0  0  0  0  0  0  0  0  0  0  0  0
    9.8020   -5.5600   25.4280 C   0  0  0  0  0  0  0  0  0  0  0  0
    8.1010   -3.5080   26.1330 S   0  0  0  0  0  0  0  0  0  0  0  0
    5.4750    1.4340   17.5610 C   0  0  0  0  0  0  0  0  0  0  0  0
   12.3350    1.4440   23.5090 C   0  0  0  0  0  0  0  0  0  0  0  0
    9.0650   -5.9890   26.5020 C   0  0  0  0  0  0  0  0  0  0  0  0
    8.1360   -5.0940   27.0230 C   0  0  0  0  0  0  0  0  0  0  0  0
    7.1050   -5.4000   28.3570 Cl  0  0  0  0  0  0  0  0  0  0  0  0
  1  2  1  0
  2  3  1  0
  3  4  1  0
  4  5  1  0
  6  5  1  1
  6  7  1  0
  6  8  1  0
  7  8  1  6
  7  9  1  0
  9 10  1  0
  9 11  1  1
 10 12  1  0
 11 13  1  0
 10 14  1  0
 12 15  1  0
 12 16  2  0
 14 17  1  0
 13 18  1  0
 13 19  1  0
 14 19  1  6
 17 20  1  0
 18 21  1  1
 17 22  1  1
 17 23  1  0
 18 24  1  0
 20 25  1  0
 23 26  2  0
 23 27  1  0
 24 28  2  0
 24 29  1  0
 21 30  1  0
 25 31  1  1
 25 32  1  0
 26 32  1  0
 29 33  1  0
 26 34  1  0
 27 35  2  0
 28 36  1  0
 29 37  2  0
 30 38  2  0
 30 39  1  0
 34 40  2  0
 35 40  1  0
 36 41  2  0
 37 41  1  0
 38 42  1  0
 39 43  1  0
 42 43  2  0
 43 44  1  0
M  END
