x0770_1-x0397_0-x0692_1-x0831_0-x0831_1-x1418_1
     RDKit          3D

 20 22  0  0  0  0  0  0  0  0999 V2000
    6.2560   -3.3490   20.0140 C   0  0  0  0  0  0  0  0  0  0  0  0
    7.2250   -3.0100   18.8850 C   0  0  0  0  0  0  0  0  0  0  0  0
    5.3740   -4.1910   19.7700 O   0  0  0  0  0  0  0  0  0  0  0  0
    6.4370   -2.7130   21.2350 N   0  0  0  0  0  0  0  0  0  0  0  0
    7.2000   -1.4200   21.2250 C   0  0  0  0  0  0  0  0  0  0  0  0
    6.4110   -3.2630   22.5040 C   0  0  2  0  0  0  0  0  0  0  0  0
    8.6220   -1.5500   21.8390 C   0  0  0  0  0  0  0  0  0  0  0  0
    7.8370   -3.4990   23.0410 C   0  0  0  0  0  0  0  0  0  0  0  0
    5.6030   -4.5960   22.6050 C   0  0  0  0  0  0  0  0  0  0  0  0
    8.6180   -2.2500   23.1430 N   0  0  0  0  0  0  0  0  0  0  0  0
    6.1370   -5.7890   23.1780 C   0  0  0  0  0  0  0  0  0  0  0  0
    6.0150   -6.0300   21.7870 C   0  0  0  0  0  0  0  0  0  0  0  0
    9.9210   -2.4830   23.4900 C   0  0  0  0  0  0  0  0  0  0  0  0
   10.7100   -1.1930   23.4710 C   0  0  0  0  0  0  0  0  0  0  0  0
   10.0830    0.0410   24.1620 C   0  0  0  0  0  0  0  0  0  0  0  0
   12.1100   -0.9890   22.8020 C   0  0  0  0  0  0  0  0  0  0  0  0
   12.8550   -2.0650   22.0900 C   0  0  0  0  0  0  0  0  0  0  0  0
   10.7980    1.4220   24.1820 C   0  0  0  0  0  0  0  0  0  0  0  0
   12.7480    0.4560   22.8940 C   0  0  0  0  0  0  0  0  0  0  0  0
   12.1980    1.5660   23.4950 C   0  0  0  0  0  0  0  0  0  0  0  0
  1  2  1  0
  1  3  2  0
  1  4  1  0
  4  5  1  0
  4  6  1  0
  5  7  1  0
  6  8  1  0
  6  9  1  6
  7 10  1  0
  8 10  1  0
  9 11  1  0
  9 12  1  0
 11 12  1  0
 10 13  1  0
 13 14  1  0
 14 15  2  0
 14 16  1  0
 16 17  1  0
 15 18  1  0
 16 19  2  0
 18 20  2  0
 19 20  1  0
M  END
