x0770_1-x0397_0-x0434_2-x1412_1-x0692_1-x1385_1-x0831_0-x0831_1-x1418_1-x1334_1-x1334_0
     RDKit          3D

 34 38  0  0  0  0  0  0  0  0999 V2000
    6.3500   -3.2610   19.9090 C   0  0  0  0  0  0  0  0  0  0  0  0
    7.2720   -2.9740   18.7460 C   0  0  0  0  0  0  0  0  0  0  0  0
    5.4690   -4.1390   19.7840 O   0  0  0  0  0  0  0  0  0  0  0  0
    6.5770   -2.5100   21.0890 N   0  0  0  0  0  0  0  0  0  0  0  0
    7.7300   -1.5370   21.2490 C   0  0  2  0  0  0  0  0  0  0  0  0
    6.4360   -3.2850   22.3640 C   0  0  2  0  0  0  0  0  0  0  0  0
    7.9580   -1.1840   22.7260 C   0  0  0  0  0  0  0  0  0  0  0  0
    7.8400   -3.5300   22.9420 C   0  0  0  0  0  0  0  0  0  0  0  0
    5.6160   -4.5990   22.3570 C   0  0  0  0  0  0  0  0  0  0  0  0
    7.5730   -0.1010   20.7030 C   0  0  0  0  0  0  0  0  0  0  0  0
    8.4910   -2.3150   23.4650 N   0  0  0  0  0  0  0  0  0  0  0  0
    5.8470   -5.8690   22.8790 C   0  0  0  0  0  0  0  0  0  0  0  0
    6.0920   -6.0380   21.6550 C   0  0  0  0  0  0  0  0  0  0  0  0
    7.1700    0.0640   19.2710 C   0  0  0  0  0  0  0  0  0  0  0  0
    9.8590   -2.3470   23.3540 C   0  0  2  0  0  0  0  0  0  0  0  0
    6.2070    0.5550   20.1950 C   0  0  0  0  0  0  0  0  0  0  0  0
    6.4050    0.4280   18.0100 N   0  0  0  0  0  0  0  0  0  0  0  0
   10.5020   -3.2090   24.3770 C   0  0  0  0  0  0  0  0  0  0  0  0
   10.5800   -0.9840   23.4250 C   0  0  0  0  0  0  0  0  0  0  0  0
    5.1020    1.0910   17.9040 C   0  0  0  0  0  0  0  0  0  0  0  0
    4.9610    1.1750   20.1120 C   0  0  0  0  0  0  0  0  0  0  0  0
    9.9810    0.2150   23.9570 C   0  0  0  0  0  0  0  0  0  0  0  0
   11.9270   -0.9520   22.9220 C   0  0  0  0  0  0  0  0  0  0  0  0
    9.7180   -4.1430   25.2990 C   0  0  0  0  0  0  0  0  0  0  0  0
    4.3790    1.4610   18.9470 C   0  0  0  0  0  0  0  0  0  0  0  0
   12.5850   -2.1610   22.3500 C   0  0  0  0  0  0  0  0  0  0  0  0
   10.6860    1.4280   24.0030 C   0  0  0  0  0  0  0  0  0  0  0  0
   12.7970    0.3130   22.9210 C   0  0  0  0  0  0  0  0  0  0  0  0
   10.0560   -5.4020   25.5610 C   0  0  0  0  0  0  0  0  0  0  0  0
    8.3010   -3.7160   26.1610 S   0  0  0  0  0  0  0  0  0  0  0  0
   12.1220    1.4960   23.4790 C   0  0  0  0  0  0  0  0  0  0  0  0
    9.1470   -6.0480   26.5200 C   0  0  0  0  0  0  0  0  0  0  0  0
    8.1850   -5.2390   26.9140 C   0  0  0  0  0  0  0  0  0  0  0  0
    6.9450   -5.5990   28.0360 Cl  0  0  0  0  0  0  0  0  0  0  0  0
  1  2  1  0
  1  3  2  0
  1  4  1  0
  4  5  1  0
  4  6  1  0
  5  7  1  0
  6  8  1  0
  6  9  1  6
  5 10  1  6
  7 11  1  0
  8 11  1  0
  9 12  1  0
  9 13  1  0
 12 13  1  0
 10 14  1  0
 11 15  1  0
 14 16  2  0
 14 17  1  0
 15 18  1  1
 15 19  1  0
 17 20  2  0
 16 21  1  0
 19 22  2  0
 19 23  1  0
 18 24  1  0
 20 25  1  0
 21 25  2  0
 23 26  1  0
 22 27  1  0
 23 28  2  0
 24 29  2  0
 24 30  1  0
 27 31  2  0
 28 31  1  0
 29 32  1  0
 30 33  1  0
 32 33  2  0
 33 34  1  0
M  END
