x0770_1-x0831_1-x1385_1-x1412_1-x0397_0-x1386_1-x0831_0-x1334_0-x1418_0-x0434_2-x0692_1
     RDKit          3D

 35 39  0  0  0  0  0  0  0  0999 V2000
    6.3030   -3.1980   19.8480 C   0  0  0  0  0  0  0  0  0  0  0  0
    7.3220   -2.9660   18.7610 C   0  0  0  0  0  0  0  0  0  0  0  0
    5.3380   -3.9570   19.6290 O   0  0  0  0  0  0  0  0  0  0  0  0
    6.4960   -2.6090   21.0950 N   0  0  0  0  0  0  0  0  0  0  0  0
    7.3390   -1.4140   21.3880 C   0  0  1  0  0  0  0  0  0  0  0  0
    6.8560   -3.6110   22.1150 C   0  0  1  0  0  0  0  0  0  0  0  0
    8.7310   -1.8420   21.7730 C   0  0  0  0  0  0  0  0  0  0  0  0
    7.6110   -3.0740   23.4490 C   0  0  0  0  0  0  0  0  0  0  0  0
    5.7970   -4.7040   22.4080 C   0  0  0  0  0  0  0  0  0  0  0  0
    7.3870   -0.1060   20.6310 C   0  0  0  0  0  0  0  0  0  0  0  0
    8.6840   -2.1020   23.1580 N   0  0  0  0  0  0  0  0  0  0  0  0
    6.0670   -5.8860   23.2820 C   0  0  0  0  0  0  0  0  0  0  0  0
    5.9410   -6.1200   21.8720 C   0  0  0  0  0  0  0  0  0  0  0  0
    7.0090   -0.0020   19.2910 C   0  0  0  0  0  0  0  0  0  0  0  0
    9.8810   -2.1930   23.7470 C   0  0  1  0  0  0  0  0  0  0  0  0
    6.1390    0.5720   20.2800 C   0  0  0  0  0  0  0  0  0  0  0  0
    6.3370    0.2930   18.1010 N   0  0  0  0  0  0  0  0  0  0  0  0
    9.7680   -2.3140   25.1920 C   0  0  0  0  0  0  0  0  0  0  0  0
   10.6950   -3.3970   23.4390 C   0  0  0  0  0  0  0  0  0  0  0  0
   10.7240   -0.9730   23.5970 C   0  0  0  0  0  0  0  0  0  0  0  0
    5.1950    0.9460   17.8920 C   0  0  0  0  0  0  0  0  0  0  0  0
    4.9360    1.2610   20.2690 C   0  0  0  0  0  0  0  0  0  0  0  0
   10.1680    0.1850   24.1400 C   0  0  0  0  0  0  0  0  0  0  0  0
   11.9990   -0.9120   22.9570 C   0  0  0  0  0  0  0  0  0  0  0  0
    9.3650   -3.6120   25.8080 C   0  0  0  0  0  0  0  0  0  0  0  0
    4.3460    1.5110   18.9490 C   0  0  0  0  0  0  0  0  0  0  0  0
   12.7370   -2.0430   22.3120 C   0  0  0  0  0  0  0  0  0  0  0  0
   10.7770    1.5950   24.1320 C   0  0  0  0  0  0  0  0  0  0  0  0
   12.7590    0.4390   22.8710 C   0  0  0  0  0  0  0  0  0  0  0  0
    9.9620   -4.8060   25.7160 C   0  0  0  0  0  0  0  0  0  0  0  0
    7.9780   -3.7620   26.8200 S   0  0  0  0  0  0  0  0  0  0  0  0
   12.1520    1.7660   23.4670 C   0  0  0  0  0  0  0  0  0  0  0  0
    9.3230   -5.8290   26.4800 C   0  0  0  0  0  0  0  0  0  0  0  0
    8.2380   -5.4110   27.1490 C   0  0  0  0  0  0  0  0  0  0  0  0
    7.1430   -6.1790   28.2050 Cl  0  0  0  0  0  0  0  0  0  0  0  0
  1  2  1  0
  1  3  2  0
  1  4  1  0
  4  5  1  0
  4  6  1  0
  5  7  1  0
  6  8  1  0
  6  9  1  1
  5 10  1  6
  7 11  1  0
  8 11  1  0
  9 12  1  0
  9 13  1  0
 12 13  1  0
 10 14  1  0
 11 15  1  0
 14 16  2  0
 14 17  1  0
 15 18  1  0
 15 19  1  6
 15 20  1  0
 17 21  2  0
 16 22  1  0
 20 23  2  0
 20 24  1  0
 18 25  1  0
 21 26  1  0
 22 26  2  0
 24 27  1  0
 23 28  1  0
 24 29  2  0
 25 30  2  0
 25 31  1  0
 28 32  2  0
 29 32  1  0
 30 33  1  0
 31 34  1  0
 33 34  2  0
 34 35  1  0
M  END
