x0770_1-x0426_1-x1334_1-x0831_0-x1412_1-x0692_1-x1374_1-x1386_1-x1418_1-x1334_0-x1385_1-x0831_1-x0397_0
     RDKit          3D

 43 48  0  0  0  0  0  0  0  0999 V2000
    2.1560   -6.6740   24.4150 O   0  0  0  0  0  0  0  0  0  0  0  0
    3.1170   -7.3390   23.6350 C   0  0  0  0  0  0  0  0  0  0  0  0
    4.1870   -7.7670   24.4740 O   0  0  0  0  0  0  0  0  0  0  0  0
    5.4460   -7.4000   23.9080 C   0  0  0  0  0  0  0  0  0  0  0  0
    5.8070   -6.1880   24.4020 C   0  0  0  0  0  0  0  0  0  0  0  0
    6.4510   -5.4640   23.2510 C   0  0  2  0  0  0  0  0  0  0  0  0
    5.7380   -4.3490   22.6350 C   0  0  2  0  0  0  0  0  0  0  0  0
    6.2760   -5.7580   21.9490 C   0  0  0  0  0  0  0  0  0  0  0  0
    6.3230   -3.1490   22.5330 C   0  0  2  0  0  0  0  0  0  0  0  0
    6.3300   -2.6590   21.1650 N   0  0  0  0  0  0  0  0  0  0  0  0
    7.5470   -3.2740   23.0510 C   0  0  0  0  0  0  0  0  0  0  0  0
    6.2340   -3.3590   19.9800 C   0  0  0  0  0  0  0  0  0  0  0  0
    8.2500   -1.9930   23.0640 N   0  0  0  0  0  0  0  0  0  0  0  0
    6.9890   -1.3610   21.0710 C   0  0  1  0  0  0  0  0  0  0  0  0
    7.2380   -3.0500   18.8870 C   0  0  0  0  0  0  0  0  0  0  0  0
    5.3830   -4.2400   19.7930 O   0  0  0  0  0  0  0  0  0  0  0  0
    6.1620   -0.0780   21.5380 C   0  0  2  0  0  0  0  0  0  0  0  0
    9.4740   -1.9710   23.8360 C   0  0  1  0  0  0  0  0  0  0  0  0
    8.4110   -1.4850   21.7350 C   0  0  0  0  0  0  0  0  0  0  0  0
    4.9110   -0.2710   22.3940 C   0  0  0  0  0  0  0  0  0  0  0  0
   10.0190   -3.3430   23.8610 C   0  0  0  0  0  0  0  0  0  0  0  0
    5.7810    0.5250   20.2010 C   0  0  0  0  0  0  0  0  0  0  0  0
   10.4300   -0.8710   23.6490 C   0  0  0  0  0  0  0  0  0  0  0  0
    3.9470    0.9610   22.4030 C   0  0  1  0  0  0  0  0  0  0  0  0
    4.6280    1.2650   19.9910 C   0  0  0  0  0  0  0  0  0  0  0  0
    6.7090    0.2950   19.0560 C   0  0  0  0  0  0  0  0  0  0  0  0
   10.1340    0.5830   24.0800 C   0  0  0  0  0  0  0  0  0  0  0  0
   11.8710   -0.9740   23.0040 C   0  0  0  0  0  0  0  0  0  0  0  0
    9.5510   -4.1230   25.0590 C   0  0  0  0  0  0  0  0  0  0  0  0
    4.3550    1.9370   23.4020 N   0  0  0  0  0  0  0  0  0  0  0  0
    3.5920    1.5620   21.0350 C   0  0  0  0  0  0  0  0  0  0  0  0
   12.4800   -2.2210   22.4670 C   0  0  0  0  0  0  0  0  0  0  0  0
    4.3830    1.7820   18.7440 C   0  0  0  0  0  0  0  0  0  0  0  0
    6.4300    0.8430   17.7350 N   0  0  0  0  0  0  0  0  0  0  0  0
   11.0780    1.7160   23.9150 C   0  0  0  0  0  0  0  0  0  0  0  0
   12.6470    0.1980   22.9220 C   0  0  0  0  0  0  0  0  0  0  0  0
   10.1180   -5.2660   25.5660 C   0  0  0  0  0  0  0  0  0  0  0  0
    8.1560   -3.6590   26.0200 S   0  0  0  0  0  0  0  0  0  0  0  0
    5.3110    1.5660   17.6000 C   0  0  0  0  0  0  0  0  0  0  0  0
   12.2800    1.4800   23.3510 C   0  0  0  0  0  0  0  0  0  0  0  0
    9.3830   -5.7300   26.7600 C   0  0  0  0  0  0  0  0  0  0  0  0
    8.3120   -4.9860   27.1310 C   0  0  0  0  0  0  0  0  0  0  0  0
    7.2500   -5.2360   28.4450 Cl  0  0  0  0  0  0  0  0  0  0  0  0
  1  2  1  0
  2  3  1  0
  3  4  1  0
  4  5  1  0
  6  5  1  1
  6  7  1  0
  6  8  1  0
  7  8  1  6
  7  9  1  0
  9 10  1  0
  9 11  1  6
 10 12  1  0
 11 13  1  0
 10 14  1  0
 12 15  1  0
 12 16  2  0
 14 17  1  0
 13 18  1  0
 13 19  1  0
 14 19  1  1
 17 20  1  6
 18 21  1  6
 17 22  1  0
 18 23  1  0
 20 24  1  0
 22 25  2  0
 22 26  1  0
 23 27  2  0
 23 28  1  0
 21 29  1  0
 24 30  1  1
 24 31  1  0
 25 31  1  0
 28 32  1  0
 25 33  1  0
 26 34  2  0
 27 35  1  0
 28 36  2  0
 29 37  2  0
 29 38  1  0
 33 39  2  0
 34 39  1  0
 35 40  2  0
 36 40  1  0
 37 41  1  0
 38 42  1  0
 41 42  2  0
 42 43  1  0
M  END
