x0771_0-x1402_1
     RDKit          3D

  9  9  0  0  0  0  0  0  0  0999 V2000
    6.5890   -4.3520   20.5850 C   0  0  0  0  0  0  0  0  0  0  0  0
    7.8190   -3.5420   20.2450 C   0  0  0  0  0  0  0  0  0  0  0  0
    5.5670   -4.3290   19.8800 O   0  0  0  0  0  0  0  0  0  0  0  0
    6.7000   -5.1410   21.7430 N   0  0  0  0  0  0  0  0  0  0  0  0
    5.8120   -6.2520   22.0680 C   0  0  0  0  0  0  0  0  0  0  0  0
    7.3640   -4.5540   22.9180 C   0  0  0  0  0  0  0  0  0  0  0  0
    4.8460   -5.9070   23.2200 C   0  0  0  0  0  0  0  0  0  0  0  0
    6.3000   -4.1960   24.0700 C   0  0  0  0  0  0  0  0  0  0  0  0
    5.5210   -5.3660   24.4180 N   0  0  0  0  0  0  0  0  0  0  0  0
  1  2  1  0
  1  3  2  0
  1  4  1  0
  4  5  1  0
  4  6  1  0
  5  7  1  0
  6  8  1  0
  7  9  1  0
  8  9  1  0
M  END
