x0771_0-x1412_0-x1386_0
     RDKit          3D

 23 25  0  0  0  0  0  0  0  0999 V2000
    6.5880   -4.2100   20.5460 C   0  0  0  0  0  0  0  0  0  0  0  0
    7.7870   -3.3870   20.0790 C   0  0  0  0  0  0  0  0  0  0  0  0
    5.5700   -4.2720   19.8410 O   0  0  0  0  0  0  0  0  0  0  0  0
    6.6310   -4.8880   21.7680 N   0  0  0  0  0  0  0  0  0  0  0  0
    5.9270   -6.1600   21.9270 C   0  0  0  0  0  0  0  0  0  0  0  0
    7.4340   -4.5300   22.9650 C   0  0  1  0  0  0  0  0  0  0  0  0
    7.5360   -3.0260   23.3300 C   0  0  0  0  0  0  0  0  0  0  0  0
    4.8730   -6.1080   23.0510 C   0  0  0  0  0  0  0  0  0  0  0  0
    6.8410   -5.2040   24.1960 C   0  0  0  0  0  0  0  0  0  0  0  0
    8.6990   -2.7050   24.3300 C   0  0  2  0  0  0  0  0  0  0  0  0
    5.3810   -5.3810   24.2210 N   0  0  0  0  0  0  0  0  0  0  0  0
    8.6580   -1.4420   25.0130 O   0  0  0  0  0  0  0  0  0  0  0  0
   10.0450   -2.7470   23.5720 C   0  0  0  0  0  0  0  0  0  0  0  0
    8.7280   -3.7820   25.4060 C   0  0  0  0  0  0  0  0  0  0  0  0
    9.5490   -4.9470   25.3700 C   0  0  0  0  0  0  0  0  0  0  0  0
    7.7890   -3.7730   26.8620 S   0  0  0  0  0  0  0  0  0  0  0  0
   10.9480   -1.5350   23.5500 C   0  0  0  0  0  0  0  0  0  0  0  0
    9.3790   -5.7510   26.4950 C   0  0  0  0  0  0  0  0  0  0  0  0
    8.4580   -5.2660   27.4160 C   0  0  0  0  0  0  0  0  0  0  0  0
   12.0250   -1.5040   22.7240 C   0  0  0  0  0  0  0  0  0  0  0  0
   10.8900   -0.3320   24.2740 C   0  0  0  0  0  0  0  0  0  0  0  0
   12.8530   -0.2730   22.7630 C   0  0  0  0  0  0  0  0  0  0  0  0
   12.1720    0.7910   23.8860 S   0  0  0  0  0  0  0  0  0  0  0  0
  1  2  1  0
  1  3  2  0
  1  4  1  0
  4  5  1  0
  4  6  1  0
  6  7  1  1
  5  8  1  0
  6  9  1  0
  7 10  1  0
  8 11  1  0
  9 11  1  0
 10 12  1  1
 10 13  1  0
 10 14  1  0
 14 15  2  0
 14 16  1  0
 13 17  1  0
 15 18  1  0
 16 19  1  0
 18 19  2  0
 17 20  1  0
 17 21  2  0
 20 22  2  0
 21 23  1  0
 22 23  1  0
M  END
