x0770_1-x0692_1-x1374_1-x1385_1-x0831_0-x0434_2-x1375_1-x1418_1-x0397_0-x1334_0-x1386_1-x1334_1-x1412_1-x0426_1
     RDKit          3D

 44 49  0  0  0  0  0  0  0  0999 V2000
    2.0500   -7.1710   23.5960 O   0  0  0  0  0  0  0  0  0  0  0  0
    2.4590   -7.4860   24.9180 C   0  0  0  0  0  0  0  0  0  0  0  0
    3.8330   -7.8490   24.8690 O   0  0  0  0  0  0  0  0  0  0  0  0
    4.4900   -7.1640   23.8170 C   0  0  0  0  0  0  0  0  0  0  0  0
    4.9430   -5.9820   24.3120 C   0  0  0  0  0  0  0  0  0  0  0  0
    6.0720   -5.5100   23.4450 C   0  0  2  0  0  0  0  0  0  0  0  0
    5.8750   -4.5210   22.5870 C   0  0  2  0  0  0  0  0  0  0  0  0
    6.1180   -6.0710   22.1120 C   0  0  0  0  0  0  0  0  0  0  0  0
    6.9320   -3.5420   22.1820 C   0  0  1  0  0  0  0  0  0  0  0  0
    6.3440   -2.6380   21.2000 N   0  0  0  0  0  0  0  0  0  0  0  0
    7.4190   -2.7850   23.2440 C   0  0  0  0  0  0  0  0  0  0  0  0
    6.1910   -3.3220   19.9660 C   0  0  0  0  0  0  0  0  0  0  0  0
    8.5920   -1.9880   22.9100 N   0  0  0  0  0  0  0  0  0  0  0  0
    7.1020   -1.3570   21.0500 C   0  0  1  0  0  0  0  0  0  0  0  0
    7.2150   -3.0220   18.8670 C   0  0  0  0  0  0  0  0  0  0  0  0
    5.3170   -4.1690   19.7480 O   0  0  0  0  0  0  0  0  0  0  0  0
    6.2920   -0.1170   21.5220 C   0  0  1  0  0  0  0  0  0  0  0  0
    9.8870   -2.3020   23.4660 C   0  0  2  0  0  0  0  0  0  0  0  0
    8.5250   -1.4020   21.6080 C   0  0  0  0  0  0  0  0  0  0  0  0
    5.0780   -0.3060   22.4380 C   0  0  0  0  0  0  0  0  0  0  0  0
    9.8310   -2.6700   24.9090 C   0  0  0  0  0  0  0  0  0  0  0  0
    7.2320    0.9320   22.1840 C   0  0  0  0  0  0  0  0  0  0  0  0
    5.8270    0.4890   20.2020 C   0  0  0  0  0  0  0  0  0  0  0  0
   10.6700   -1.0690   23.4340 C   0  0  0  0  0  0  0  0  0  0  0  0
    4.0380    0.8680   22.4910 C   0  0  1  0  0  0  0  0  0  0  0  0
    4.6500    1.2290   20.0230 C   0  0  0  0  0  0  0  0  0  0  0  0
    6.7220    0.2740   18.9560 C   0  0  0  0  0  0  0  0  0  0  0  0
   10.1860    0.1320   23.9380 C   0  0  0  0  0  0  0  0  0  0  0  0
   12.0620   -0.9570   22.8690 C   0  0  0  0  0  0  0  0  0  0  0  0
    9.4700   -3.9640   25.5560 C   0  0  0  0  0  0  0  0  0  0  0  0
    4.3440    1.8720   23.4940 N   0  0  0  0  0  0  0  0  0  0  0  0
    3.6890    1.4960   21.1420 C   0  0  0  0  0  0  0  0  0  0  0  0
   12.8020   -2.0990   22.2480 C   0  0  0  0  0  0  0  0  0  0  0  0
    4.4690    1.6790   18.7340 C   0  0  0  0  0  0  0  0  0  0  0  0
    6.4660    0.7400   17.7430 N   0  0  0  0  0  0  0  0  0  0  0  0
   10.8770    1.3470   23.9550 C   0  0  0  0  0  0  0  0  0  0  0  0
   12.8290    0.2090   22.8470 C   0  0  0  0  0  0  0  0  0  0  0  0
    9.9790   -5.1840   25.5350 C   0  0  0  0  0  0  0  0  0  0  0  0
    8.0590   -3.9140   26.6600 S   0  0  0  0  0  0  0  0  0  0  0  0
    5.3290    1.4370   17.7050 C   0  0  0  0  0  0  0  0  0  0  0  0
   12.1560    1.4460   23.4450 C   0  0  0  0  0  0  0  0  0  0  0  0
    9.2720   -6.1660   26.4530 C   0  0  0  0  0  0  0  0  0  0  0  0
    8.1190   -5.4960   27.1710 C   0  0  0  0  0  0  0  0  0  0  0  0
    7.0000   -6.0890   28.3170 Cl  0  0  0  0  0  0  0  0  0  0  0  0
  1  2  1  0
  2  3  1  0
  3  4  1  0
  4  5  1  0
  6  5  1  1
  6  7  1  0
  6  8  1  0
  7  8  1  6
  7  9  1  0
  9 10  1  0
  9 11  1  1
 10 12  1  0
 11 13  1  0
 10 14  1  0
 12 15  1  0
 12 16  2  0
 14 17  1  0
 13 18  1  0
 13 19  1  0
 14 19  1  1
 17 20  1  0
 18 21  1  1
 17 22  1  1
 17 23  1  0
 18 24  1  0
 20 25  1  0
 23 26  2  0
 23 27  1  0
 24 28  2  0
 24 29  1  0
 21 30  1  0
 25 31  1  1
 25 32  1  0
 26 32  1  0
 29 33  1  0
 26 34  1  0
 27 35  2  0
 28 36  1  0
 29 37  2  0
 30 38  2  0
 30 39  1  0
 34 40  2  0
 35 40  1  0
 36 41  2  0
 37 41  1  0
 38 42  1  0
 39 43  1  0
 42 43  2  0
 43 44  1  0
M  END
