x0770_1-x1334_0-x0434_2-x0692_1-x0831_1-x1385_1-x1418_1-x1334_1-x0831_0-x1412_1-x0397_0
     RDKit          3D

 34 38  0  0  0  0  0  0  0  0999 V2000
    6.1790   -3.3400   19.9410 C   0  0  0  0  0  0  0  0  0  0  0  0
    7.1750   -3.0130   18.8320 C   0  0  0  0  0  0  0  0  0  0  0  0
    5.3640   -4.2560   19.7850 O   0  0  0  0  0  0  0  0  0  0  0  0
    6.2090   -2.6150   21.1230 N   0  0  0  0  0  0  0  0  0  0  0  0
    6.8740   -1.3110   21.3950 C   0  0  1  0  0  0  0  0  0  0  0  0
    6.0670   -3.4230   22.3460 C   0  0  2  0  0  0  0  0  0  0  0  0
    7.8830   -1.2850   22.5960 C   0  0  0  0  0  0  0  0  0  0  0  0
    7.4740   -3.6040   22.8910 C   0  0  0  0  0  0  0  0  0  0  0  0
    5.4200   -4.7820   22.2440 C   0  0  0  0  0  0  0  0  0  0  0  0
    7.7300   -0.7950   20.2360 C   0  0  0  0  0  0  0  0  0  0  0  0
    7.8380   -2.4030   23.5750 N   0  0  0  0  0  0  0  0  0  0  0  0
    5.8070   -5.8980   23.0830 C   0  0  0  0  0  0  0  0  0  0  0  0
    6.0240   -6.0020   21.6130 C   0  0  0  0  0  0  0  0  0  0  0  0
    7.0510   -0.2540   18.9840 C   0  0  0  0  0  0  0  0  0  0  0  0
    9.0700   -2.6250   24.3000 C   0  0  2  0  0  0  0  0  0  0  0  0
    6.2990    0.2320   20.2280 C   0  0  0  0  0  0  0  0  0  0  0  0
    6.2770    0.3480   18.0010 N   0  0  0  0  0  0  0  0  0  0  0  0
   10.2770   -2.5140   23.3550 C   0  0  0  0  0  0  0  0  0  0  0  0
    8.9240   -3.8130   25.2520 C   0  0  0  0  0  0  0  0  0  0  0  0
    5.1950    1.1290   18.0280 C   0  0  0  0  0  0  0  0  0  0  0  0
    5.1660    1.0370   20.3680 C   0  0  0  0  0  0  0  0  0  0  0  0
    9.6240   -5.0150   25.2970 C   0  0  0  0  0  0  0  0  0  0  0  0
    7.7570   -3.8580   26.5750 S   0  0  0  0  0  0  0  0  0  0  0  0
   10.9450   -1.0990   23.3830 C   0  0  0  0  0  0  0  0  0  0  0  0
    4.5200    1.5530   19.2870 C   0  0  0  0  0  0  0  0  0  0  0  0
    9.2690   -5.8880   26.2900 C   0  0  0  0  0  0  0  0  0  0  0  0
    8.2450   -5.4110   27.0980 C   0  0  0  0  0  0  0  0  0  0  0  0
   10.3300   -0.0790   24.0300 C   0  0  0  0  0  0  0  0  0  0  0  0
   12.3280   -0.8470   22.6830 C   0  0  0  0  0  0  0  0  0  0  0  0
    7.4510   -6.0920   28.4410 Cl  0  0  0  0  0  0  0  0  0  0  0  0
   13.0530   -1.9220   21.9400 C   0  0  0  0  0  0  0  0  0  0  0  0
   10.9280    1.2810   24.0950 C   0  0  0  0  0  0  0  0  0  0  0  0
   12.9060    0.4760   22.7650 C   0  0  0  0  0  0  0  0  0  0  0  0
   12.2350    1.5560   23.4530 C   0  0  0  0  0  0  0  0  0  0  0  0
  1  2  1  0
  1  3  2  0
  1  4  1  0
  4  5  1  0
  4  6  1  0
  5  7  1  0
  6  8  1  0
  6  9  1  6
  5 10  1  6
  7 11  1  0
  8 11  1  0
  9 12  1  0
  9 13  1  0
 12 13  1  0
 10 14  1  0
 11 15  1  0
 14 16  2  0
 14 17  1  0
 15 18  1  6
 15 19  1  0
 17 20  2  0
 16 21  1  0
 19 22  2  0
 19 23  1  0
 18 24  1  0
 20 25  1  0
 21 25  2  0
 22 26  1  0
 23 27  1  0
 26 27  2  0
 24 28  2  0
 24 29  1  0
 27 30  1  0
 29 31  1  0
 28 32  1  0
 29 33  2  0
 32 34  2  0
 33 34  1  0
M  END
