x0770_1-x0692_1-x0831_0-x0434_2-x1334_1-x1412_1-x0397_0-x1334_0
     RDKit          3D

 34 38  0  0  0  0  0  0  0  0999 V2000
    6.2020   -3.2950   19.8900 C   0  0  0  0  0  0  0  0  0  0  0  0
    7.2060   -3.0190   18.7920 C   0  0  0  0  0  0  0  0  0  0  0  0
    5.2650   -4.0740   19.6810 O   0  0  0  0  0  0  0  0  0  0  0  0
    6.4220   -2.6940   21.1260 N   0  0  0  0  0  0  0  0  0  0  0  0
    6.9770   -1.3330   21.2350 C   0  0  1  0  0  0  0  0  0  0  0  0
    6.8740   -3.5510   22.2440 C   0  0  1  0  0  0  0  0  0  0  0  0
    8.2590   -1.3620   22.0590 C   0  0  0  0  0  0  0  0  0  0  0  0
    7.0440   -2.7580   23.5700 C   0  0  0  0  0  0  0  0  0  0  0  0
    5.8840   -4.6740   22.4380 C   0  0  0  0  0  0  0  0  0  0  0  0
    7.6260   -0.6860   20.0180 C   0  0  0  0  0  0  0  0  0  0  0  0
    8.0490   -1.6700   23.4420 N   0  0  0  0  0  0  0  0  0  0  0  0
    6.1920   -5.8930   23.2790 C   0  0  0  0  0  0  0  0  0  0  0  0
    6.0950   -6.0270   21.7900 C   0  0  0  0  0  0  0  0  0  0  0  0
    6.8980   -0.0920   18.8360 C   0  0  0  0  0  0  0  0  0  0  0  0
    9.3590   -1.8650   24.0940 C   0  0  1  0  0  0  0  0  0  0  0  0
    6.2150    0.3040   20.1180 C   0  0  0  0  0  0  0  0  0  0  0  0
    6.1010    0.5380   17.9140 N   0  0  0  0  0  0  0  0  0  0  0  0
    9.7990   -3.2970   23.8840 C   0  0  0  0  0  0  0  0  0  0  0  0
   10.4540   -0.8170   23.7320 C   0  0  0  0  0  0  0  0  0  0  0  0
    5.0220    1.3070   18.0250 C   0  0  0  0  0  0  0  0  0  0  0  0
    5.0800    1.0980   20.2740 C   0  0  0  0  0  0  0  0  0  0  0  0
   10.2630    0.4490   24.2930 C   0  0  0  0  0  0  0  0  0  0  0  0
   11.6270   -0.9780   22.9090 C   0  0  0  0  0  0  0  0  0  0  0  0
    9.3430   -4.1990   25.0240 C   0  0  0  0  0  0  0  0  0  0  0  0
    4.4480    1.6280   19.2000 C   0  0  0  0  0  0  0  0  0  0  0  0
   12.0090   -2.2440   22.2010 C   0  0  0  0  0  0  0  0  0  0  0  0
   11.1340    1.4970   24.0870 C   0  0  0  0  0  0  0  0  0  0  0  0
   12.5080    0.1110   22.7320 C   0  0  0  0  0  0  0  0  0  0  0  0
    9.8620   -5.5520   25.3620 C   0  0  0  0  0  0  0  0  0  0  0  0
    8.1110   -3.7920   26.1640 S   0  0  0  0  0  0  0  0  0  0  0  0
   12.2600    1.3410   23.3180 C   0  0  0  0  0  0  0  0  0  0  0  0
    9.2270   -6.1030   26.4840 C   0  0  0  0  0  0  0  0  0  0  0  0
    8.2750   -5.2730   27.0080 C   0  0  0  0  0  0  0  0  0  0  0  0
    7.2920   -5.5980   28.3710 Cl  0  0  0  0  0  0  0  0  0  0  0  0
  1  2  1  0
  1  3  2  0
  1  4  1  0
  4  5  1  0
  4  6  1  0
  5  7  1  0
  6  8  1  0
  6  9  1  1
  5 10  1  6
  7 11  1  0
  8 11  1  0
  9 12  1  0
  9 13  1  0
 12 13  1  0
 10 14  1  0
 11 15  1  0
 14 16  2  0
 14 17  1  0
 15 18  1  6
 15 19  1  0
 17 20  2  0
 16 21  1  0
 19 22  2  0
 19 23  1  0
 18 24  1  0
 20 25  1  0
 21 25  2  0
 23 26  1  0
 22 27  1  0
 23 28  2  0
 24 29  2  0
 24 30  1  0
 27 31  2  0
 28 31  1  0
 29 32  1  0
 30 33  1  0
 32 33  2  0
 33 34  1  0
M  END
