x0770_1-x1412_1-x0692_1-x1334_0-x1375_1-x0426_1-x0831_0-x1385_1-x1334_1-x0397_0-x0434_2
     RDKit          3D

 43 48  0  0  0  0  0  0  0  0999 V2000
    2.1750   -6.7420   24.4610 O   0  0  0  0  0  0  0  0  0  0  0  0
    2.9860   -7.4820   23.5680 C   0  0  0  0  0  0  0  0  0  0  0  0
    4.2670   -7.5840   24.1640 O   0  0  0  0  0  0  0  0  0  0  0  0
    4.7960   -6.2700   24.3780 C   0  0  0  0  0  0  0  0  0  0  0  0
    5.8150   -5.8680   23.3380 C   0  0  2  0  0  0  0  0  0  0  0  0
    5.6010   -4.7500   22.4810 C   0  0  2  0  0  0  0  0  0  0  0  0
    5.7540   -6.3430   22.0790 C   0  0  0  0  0  0  0  0  0  0  0  0
    6.6560   -3.7100   22.3550 C   0  0  1  0  0  0  0  0  0  0  0  0
    6.3450   -2.7680   21.2550 N   0  0  0  0  0  0  0  0  0  0  0  0
    6.9180   -3.0800   23.5700 C   0  0  0  0  0  0  0  0  0  0  0  0
    6.1540   -3.3570   19.9890 C   0  0  0  0  0  0  0  0  0  0  0  0
    8.1140   -2.2760   23.5230 N   0  0  0  0  0  0  0  0  0  0  0  0
    7.2180   -1.5930   21.2480 C   0  0  1  0  0  0  0  0  0  0  0  0
    7.1740   -3.0040   18.9090 C   0  0  0  0  0  0  0  0  0  0  0  0
    5.2550   -4.1650   19.7550 O   0  0  0  0  0  0  0  0  0  0  0  0
    6.5120   -0.2230   21.4830 C   0  0  1  0  0  0  0  0  0  0  0  0
    9.2030   -2.5680   24.4760 C   0  0  2  0  0  0  0  0  0  0  0  0
    8.4750   -1.8410   22.1070 C   0  0  0  0  0  0  0  0  0  0  0  0
    5.3430   -0.2050   22.5470 C   0  0  0  0  0  0  0  0  0  0  0  0
   10.5370   -2.5450   23.7430 C   0  0  0  0  0  0  0  0  0  0  0  0
    7.5950    0.7980   21.9560 C   0  0  0  0  0  0  0  0  0  0  0  0
    6.0480    0.3800   20.1540 C   0  0  0  0  0  0  0  0  0  0  0  0
    9.0290   -3.8150   25.3670 C   0  0  0  0  0  0  0  0  0  0  0  0
    4.6710    1.2070   22.5460 C   0  0  2  0  0  0  0  0  0  0  0  0
    4.7730    1.1960   20.0760 C   0  0  0  0  0  0  0  0  0  0  0  0
    6.7530    0.2180   18.9910 C   0  0  0  0  0  0  0  0  0  0  0  0
    9.7580   -5.0110   25.3520 C   0  0  0  0  0  0  0  0  0  0  0  0
    7.8160   -3.8280   26.5840 S   0  0  0  0  0  0  0  0  0  0  0  0
   11.0510   -1.1530   23.6780 C   0  0  0  0  0  0  0  0  0  0  0  0
    3.7750    1.4060   23.6750 N   0  0  0  0  0  0  0  0  0  0  0  0
    3.9070    1.4370   21.2700 C   0  0  0  0  0  0  0  0  0  0  0  0
    4.4020    1.7830   18.6970 C   0  0  0  0  0  0  0  0  0  0  0  0
    6.4680    0.6980   17.7860 N   0  0  0  0  0  0  0  0  0  0  0  0
    9.2910   -5.8710   26.3400 C   0  0  0  0  0  0  0  0  0  0  0  0
    8.2420   -5.3690   27.0970 C   0  0  0  0  0  0  0  0  0  0  0  0
   10.5130    0.0120   24.2410 C   0  0  0  0  0  0  0  0  0  0  0  0
   12.3440   -0.7990   22.9170 C   0  0  0  0  0  0  0  0  0  0  0  0
    7.3750   -6.0570   28.3940 Cl  0  0  0  0  0  0  0  0  0  0  0  0
   13.0980   -1.8750   22.2110 C   0  0  0  0  0  0  0  0  0  0  0  0
    5.3550    1.4330   17.6960 C   0  0  0  0  0  0  0  0  0  0  0  0
   11.0710    1.2720   24.1170 C   0  0  0  0  0  0  0  0  0  0  0  0
   12.8660    0.4580   22.8320 C   0  0  0  0  0  0  0  0  0  0  0  0
   12.2360    1.5320   23.4300 C   0  0  0  0  0  0  0  0  0  0  0  0
  1  2  1  0
  2  3  1  0
  3  4  1  0
  5  4  1  1
  5  6  1  0
  5  7  1  0
  6  7  1  6
  6  8  1  0
  8  9  1  0
  8 10  1  1
  9 11  1  0
 10 12  1  0
  9 13  1  0
 11 14  1  0
 11 15  2  0
 13 16  1  0
 12 17  1  0
 12 18  1  0
 13 18  1  1
 16 19  1  0
 17 20  1  6
 16 21  1  1
 16 22  1  0
 17 23  1  0
 19 24  1  0
 22 25  2  0
 22 26  1  0
 23 27  2  0
 23 28  1  0
 20 29  1  0
 24 30  1  1
 24 31  1  0
 25 31  1  0
 25 32  1  0
 26 33  2  0
 27 34  1  0
 28 35  1  0
 34 35  2  0
 29 36  2  0
 29 37  1  0
 35 38  1  0
 37 39  1  0
 32 40  2  0
 33 40  1  0
 36 41  1  0
 37 42  2  0
 41 43  2  0
 42 43  1  0
M  END
