x0770_1-x0692_1-x1374_1-x0831_0-x1375_1
     RDKit          3D

 27 29  0  0  0  0  0  0  0  0999 V2000
    6.2810   -3.3330   19.9410 C   0  0  0  0  0  0  0  0  0  0  0  0
    7.2230   -2.9920   18.7980 C   0  0  0  0  0  0  0  0  0  0  0  0
    5.3210   -4.0740   19.7050 O   0  0  0  0  0  0  0  0  0  0  0  0
    6.6050   -2.8400   21.2180 N   0  0  0  0  0  0  0  0  0  0  0  0
    7.1330   -1.4520   21.2580 C   0  0  0  0  0  0  0  0  0  0  0  0
    7.3760   -3.6370   22.1550 C   0  0  2  0  0  0  0  0  0  0  0  0
    6.8190   -5.0600   22.4130 C   0  0  0  0  0  0  0  0  0  0  0  0
    8.6060   -1.4150   21.8130 C   0  0  0  0  0  0  0  0  0  0  0  0
    7.6510   -2.9000   23.4510 C   0  0  0  0  0  0  0  0  0  0  0  0
    8.6500   -1.8180   23.2260 N   0  0  0  0  0  0  0  0  0  0  0  0
    5.3260   -5.0410   22.6600 C   0  0  2  0  0  0  0  0  0  0  0  0
    9.9340   -2.2030   23.5210 C   0  0  0  0  0  0  0  0  0  0  0  0
    4.7400   -4.4770   23.7900 C   0  0  0  0  0  0  0  0  0  0  0  0
    4.9680   -6.5660   22.6830 C   0  0  0  0  0  0  0  0  0  0  0  0
    3.8750   -5.2180   24.5610 C   0  0  0  0  0  0  0  0  0  0  0  0
    3.7380   -6.7300   23.8790 S   0  0  0  0  0  0  0  0  0  0  0  0
   10.8200   -0.9820   23.4860 C   0  0  0  0  0  0  0  0  0  0  0  0
    2.3320   -6.9580   23.2020 O   0  0  0  0  0  0  0  0  0  0  0  0
    4.1350   -7.8730   24.8900 O   0  0  0  0  0  0  0  0  0  0  0  0
   10.2890    0.1570   24.1010 C   0  0  0  0  0  0  0  0  0  0  0  0
   12.0660   -0.9480   22.8840 C   0  0  0  0  0  0  0  0  0  0  0  0
   12.6720   -2.1430   22.2050 C   0  0  0  0  0  0  0  0  0  0  0  0
   10.9150    1.3450   24.1510 C   0  0  0  0  0  0  0  0  0  0  0  0
   12.8000    0.2350   22.8860 C   0  0  0  0  0  0  0  0  0  0  0  0
    1.4010   -7.4330   24.1980 O   0  0  0  0  0  0  0  0  0  0  0  0
    4.7010   -7.2730   26.0690 O   0  0  0  0  0  0  0  0  0  0  0  0
   12.3130    1.3930   23.4740 C   0  0  0  0  0  0  0  0  0  0  0  0
  1  2  1  0
  1  3  2  0
  1  4  1  0
  4  5  1  0
  4  6  1  0
  6  7  1  1
  5  8  1  0
  6  9  1  0
  8 10  1  0
  9 10  1  0
 11  7  1  1
 10 12  1  0
 11 13  1  0
 11 14  1  0
 13 15  2  0
 14 16  1  0
 15 16  1  0
 12 17  1  0
 16 18  1  0
 16 19  1  0
 17 20  2  0
 17 21  1  0
 21 22  1  0
 20 23  1  0
 21 24  2  0
 18 25  1  0
 19 26  1  0
 23 27  2  0
 24 27  1  0
M  END
