x0771_1-x0691_0-x1386_0
     RDKit          3D

 28 30  0  0  0  0  0  0  0  0999 V2000
    4.9510   -5.7250   25.8870 S   0  0  0  0  0  0  0  0  0  0  0  0
    3.6760   -4.4800   25.9200 C   0  0  0  0  0  0  0  0  0  0  0  0
    4.0540   -3.2210   26.3800 C   0  0  0  0  0  0  0  0  0  0  0  0
    4.3330   -7.0330   25.9200 O   0  0  0  0  0  0  0  0  0  0  0  0
    5.9500   -5.3560   26.8650 O   0  0  0  0  0  0  0  0  0  0  0  0
    5.6560   -5.5880   24.3440 N   0  0  0  0  0  0  0  0  0  0  0  0
    2.3730   -4.7530   25.5140 C   0  0  0  0  0  0  0  0  0  0  0  0
    4.9000   -6.1050   23.1690 C   0  0  0  0  0  0  0  0  0  0  0  0
    6.2540   -4.2650   24.0950 C   0  0  0  0  0  0  0  0  0  0  0  0
    1.9260   -6.0940   25.0040 C   0  0  0  0  0  0  0  0  0  0  0  0
    1.3780   -3.7080   25.5820 C   0  0  0  0  0  0  0  0  0  0  0  0
    2.9990   -2.1320   26.4460 C   0  0  0  0  0  0  0  0  0  0  0  0
    5.8420   -6.1900   21.9290 C   0  0  0  0  0  0  0  0  0  0  0  0
    7.1940   -4.2860   22.8720 C   0  0  2  0  0  0  0  0  0  0  0  0
    7.6900   -2.8580   22.6100 C   0  0  0  0  0  0  0  0  0  0  0  0
    1.7090   -2.4420   26.0440 C   0  0  0  0  0  0  0  0  0  0  0  0
    6.6100   -4.9560   21.6730 N   0  0  0  0  0  0  0  0  0  0  0  0
    0.6490   -1.3870   26.1150 C   0  0  0  0  0  0  0  0  0  0  0  0
    6.3210   -4.3470   20.4480 C   0  0  0  0  0  0  0  0  0  0  0  0
    9.1790   -2.7230   22.3350 C   0  0  0  0  0  0  0  0  0  0  0  0
    5.2510   -4.6010   19.9090 O   0  0  0  0  0  0  0  0  0  0  0  0
    7.2550   -3.3640   19.6930 C   0  0  0  0  0  0  0  0  0  0  0  0
    9.9970   -2.5460   23.6100 C   0  0  0  0  0  0  0  0  0  0  0  0
   11.0450   -1.5250   23.3430 C   0  0  0  0  0  0  0  0  0  0  0  0
   12.3200   -1.7910   22.9240 C   0  0  0  0  0  0  0  0  0  0  0  0
   10.8700   -0.1720   23.4680 C   0  0  0  0  0  0  0  0  0  0  0  0
   13.1020   -0.6990   22.7260 C   0  0  0  0  0  0  0  0  0  0  0  0
   12.2720    0.7290   23.0640 S   0  0  0  0  0  0  0  0  0  0  0  0
  1  2  1  0
  2  3  2  0
  1  4  2  0
  1  5  2  0
  1  6  1  0
  2  7  1  0
  6  8  1  0
  6  9  1  0
  7 10  1  0
  7 11  2  0
  3 12  1  0
  8 13  1  0
  9 14  1  0
 14 15  1  6
 11 16  1  0
 12 16  2  0
 13 17  1  0
 14 17  1  0
 16 18  1  0
 17 19  1  0
 15 20  1  0
 19 21  2  0
 19 22  1  0
 20 23  1  0
 23 24  1  0
 24 25  1  0
 24 26  2  0
 25 27  2  0
 26 28  1  0
 27 28  1  0
M  END
