x0771_1-x1348_0
     RDKit          3D

 18 18  0  0  0  0  0  0  0  0999 V2000
    4.8570   -5.7510   25.6800 S   0  0  0  0  0  0  0  0  0  0  0  0
    5.1790   -5.5680   24.0140 C   0  0  0  0  0  0  0  0  0  0  0  0
    6.1920   -4.4510   23.6730 C   0  0  0  0  0  0  0  0  0  0  0  0
    4.3220   -7.0670   25.9480 O   0  0  0  0  0  0  0  0  0  0  0  0
    6.0950   -5.3120   26.5740 O   0  0  0  0  0  0  0  0  0  0  0  0
    3.6320   -4.5610   25.7850 C   0  0  0  0  0  0  0  0  0  0  0  0
    2.3580   -4.7780   25.4630 C   0  0  0  0  0  0  0  0  0  0  0  0
    4.0010   -3.2850   26.2430 C   0  0  0  0  0  0  0  0  0  0  0  0
    2.1340   -6.2420   24.9720 C   0  0  0  0  0  0  0  0  0  0  0  0
    5.7850   -3.3950   22.5730 C   0  0  0  0  0  0  0  0  0  0  0  0
    1.3580   -3.6820   25.6000 C   0  0  0  0  0  0  0  0  0  0  0  0
    3.0050   -2.1200   26.4000 C   0  0  0  0  0  0  0  0  0  0  0  0
    6.7220   -3.3120   21.4410 N   0  0  0  0  0  0  0  0  0  0  0  0
    1.7250   -2.4190   26.0610 C   0  0  0  0  0  0  0  0  0  0  0  0
    0.7200   -1.4060   26.1840 C   0  0  0  0  0  0  0  0  0  0  0  0
    6.3780   -3.6170   20.1230 C   0  0  0  0  0  0  0  0  0  0  0  0
    5.4050   -4.3190   19.8340 O   0  0  0  0  0  0  0  0  0  0  0  0
    7.2570   -3.0920   18.9950 C   0  0  0  0  0  0  0  0  0  0  0  0
  1  2  1  0
  2  3  1  0
  1  4  2  0
  1  5  2  0
  1  6  1  0
  6  7  2  0
  6  8  1  0
  7  9  1  0
  3 10  1  0
  7 11  1  0
  8 12  2  0
 10 13  1  0
 11 14  2  0
 12 14  1  0
 14 15  1  0
 13 16  1  0
 16 17  2  0
 16 18  1  0
M  END
