x0770_1-x1334_0-x0397_0-x0426_1-x0434_2-x0692_1-x0831_1-x1418_1-x1385_1-x1374_1-x1412_1-x1334_1-x0831_0
     RDKit          3D

 44 49  0  0  0  0  0  0  0  0999 V2000
    2.1580   -7.8380   23.3530 O   0  0  0  0  0  0  0  0  0  0  0  0
    2.4300   -8.0400   24.7270 C   0  0  0  0  0  0  0  0  0  0  0  0
    3.8140   -7.9410   24.9680 O   0  0  0  0  0  0  0  0  0  0  0  0
    4.4280   -7.3020   23.8730 C   0  0  0  0  0  0  0  0  0  0  0  0
    4.9880   -5.9890   24.2740 C   0  0  0  0  0  0  0  0  0  0  0  0
    5.9690   -5.5410   23.2440 C   0  0  2  0  0  0  0  0  0  0  0  0
    5.6790   -4.6950   22.2860 C   0  0  2  0  0  0  0  0  0  0  0  0
    6.0860   -6.2620   22.0380 C   0  0  0  0  0  0  0  0  0  0  0  0
    6.6420   -3.5710   22.2150 C   0  0  1  0  0  0  0  0  0  0  0  0
    6.1500   -2.5450   21.2680 N   0  0  0  0  0  0  0  0  0  0  0  0
    6.9700   -3.1100   23.4790 C   0  0  0  0  0  0  0  0  0  0  0  0
    6.1410   -3.1570   19.9730 C   0  0  0  0  0  0  0  0  0  0  0  0
    8.1610   -2.2700   23.4520 N   0  0  0  0  0  0  0  0  0  0  0  0
    6.9170   -1.3220   21.6910 C   0  0  2  0  0  0  0  0  0  0  0  0
    7.2230   -2.9010   18.9260 C   0  0  0  0  0  0  0  0  0  0  0  0
    5.2670   -3.9850   19.6680 O   0  0  0  0  0  0  0  0  0  0  0  0
    6.7000    0.1690   21.6070 C   0  0  1  0  0  0  0  0  0  0  0  0
    9.3300   -2.6610   24.2160 C   0  0  2  0  0  0  0  0  0  0  0  0
    8.3470   -1.7240   22.1000 C   0  0  0  0  0  0  0  0  0  0  0  0
    5.8420    0.7160   22.8050 C   0  0  0  0  0  0  0  0  0  0  0  0
   10.5890   -2.5760   23.3640 C   0  0  0  0  0  0  0  0  0  0  0  0
    8.0850    0.8470   21.7770 C   0  0  0  0  0  0  0  0  0  0  0  0
    6.1420    0.5810   20.2680 C   0  0  0  0  0  0  0  0  0  0  0  0
    9.1240   -3.8430   25.1920 C   0  0  0  0  0  0  0  0  0  0  0  0
    4.3380    1.0350   22.4980 C   0  0  1  0  0  0  0  0  0  0  0  0
    4.9440    1.4550   20.1250 C   0  0  0  0  0  0  0  0  0  0  0  0
    6.8100    0.1370   18.9940 C   0  0  0  0  0  0  0  0  0  0  0  0
    9.8420   -5.0070   25.3080 C   0  0  0  0  0  0  0  0  0  0  0  0
    7.8510   -3.8330   26.3740 S   0  0  0  0  0  0  0  0  0  0  0  0
   11.1240   -1.1480   23.3940 C   0  0  0  0  0  0  0  0  0  0  0  0
    3.6950    1.5630   23.7090 N   0  0  0  0  0  0  0  0  0  0  0  0
    4.2100    1.9470   21.3080 C   0  0  0  0  0  0  0  0  0  0  0  0
    4.5360    1.8180   18.7290 C   0  0  0  0  0  0  0  0  0  0  0  0
    6.3920    0.5000   17.7850 N   0  0  0  0  0  0  0  0  0  0  0  0
    9.4060   -5.8560   26.3030 C   0  0  0  0  0  0  0  0  0  0  0  0
    8.2820   -5.3450   27.0200 C   0  0  0  0  0  0  0  0  0  0  0  0
   10.3590   -0.1270   23.9630 C   0  0  0  0  0  0  0  0  0  0  0  0
   12.3660   -0.8470   22.8630 C   0  0  0  0  0  0  0  0  0  0  0  0
    7.3960   -6.0050   28.3290 Cl  0  0  0  0  0  0  0  0  0  0  0  0
   13.1810   -1.9100   22.2360 C   0  0  0  0  0  0  0  0  0  0  0  0
    5.3180    1.3010   17.6800 C   0  0  0  0  0  0  0  0  0  0  0  0
   10.8510    1.1890   24.0070 C   0  0  0  0  0  0  0  0  0  0  0  0
   12.8820    0.4390   22.8940 C   0  0  0  0  0  0  0  0  0  0  0  0
   12.1290    1.4410   23.4600 C   0  0  0  0  0  0  0  0  0  0  0  0
  1  2  1  0
  2  3  1  0
  3  4  1  0
  4  5  1  0
  6  5  1  1
  6  7  1  0
  6  8  1  0
  7  8  1  6
  7  9  1  0
  9 10  1  0
  9 11  1  1
 10 12  1  0
 11 13  1  0
 10 14  1  0
 12 15  1  0
 12 16  2  0
 14 17  1  0
 13 18  1  0
 13 19  1  0
 14 19  1  6
 17 20  1  0
 18 21  1  6
 17 22  1  1
 17 23  1  0
 18 24  1  0
 20 25  1  0
 23 26  2  0
 23 27  1  0
 24 28  2  0
 24 29  1  0
 21 30  1  0
 25 31  1  1
 25 32  1  0
 26 32  1  0
 26 33  1  0
 27 34  2  0
 28 35  1  0
 29 36  1  0
 35 36  2  0
 30 37  2  0
 30 38  1  0
 36 39  1  0
 38 40  1  0
 33 41  2  0
 34 41  1  0
 37 42  1  0
 38 43  2  0
 42 44  2  0
 43 44  1  0
M  END
