x0770_1-x0397_0-x1334_1-x0434_2-x0831_0-x1385_1-x1412_1-x1334_0
     RDKit          3D

 34 38  0  0  0  0  0  0  0  0999 V2000
    6.3450   -3.3590   19.8320 C   0  0  0  0  0  0  0  0  0  0  0  0
    7.3000   -3.0790   18.6790 C   0  0  0  0  0  0  0  0  0  0  0  0
    5.4270   -4.1900   19.7670 O   0  0  0  0  0  0  0  0  0  0  0  0
    6.6460   -2.5980   20.9540 N   0  0  0  0  0  0  0  0  0  0  0  0
    7.7490   -1.6300   20.7270 C   0  0  2  0  0  0  0  0  0  0  0  0
    6.4250   -3.0830   22.2320 C   0  0  2  0  0  0  0  0  0  0  0  0
    9.0170   -1.8100   21.5740 C   0  0  0  0  0  0  0  0  0  0  0  0
    7.7330   -3.2350   22.9750 C   0  0  0  0  0  0  0  0  0  0  0  0
    5.6650   -4.3950   22.2100 C   0  0  0  0  0  0  0  0  0  0  0  0
    7.3610   -0.1580   20.7160 C   0  0  0  0  0  0  0  0  0  0  0  0
    8.5360   -2.0130   22.9100 N   0  0  0  0  0  0  0  0  0  0  0  0
    6.1320   -5.5650   22.9830 C   0  0  0  0  0  0  0  0  0  0  0  0
    6.2640   -5.7940   21.7540 C   0  0  0  0  0  0  0  0  0  0  0  0
    7.0600    0.2190   19.4200 C   0  0  0  0  0  0  0  0  0  0  0  0
    9.5870   -1.9420   23.8750 C   0  0  1  0  0  0  0  0  0  0  0  0
    5.9340    0.4450   20.5460 C   0  0  0  0  0  0  0  0  0  0  0  0
    6.4890    0.6890   18.2240 N   0  0  0  0  0  0  0  0  0  0  0  0
   10.1920   -3.2600   24.1110 C   0  0  0  0  0  0  0  0  0  0  0  0
   10.5330   -0.7350   23.6990 C   0  0  0  0  0  0  0  0  0  0  0  0
    5.3050    1.2430   17.9110 C   0  0  0  0  0  0  0  0  0  0  0  0
    4.6180    1.0510   20.1990 C   0  0  0  0  0  0  0  0  0  0  0  0
   10.1530    0.5930   24.1310 C   0  0  0  0  0  0  0  0  0  0  0  0
   11.7960   -0.9210   23.1060 C   0  0  0  0  0  0  0  0  0  0  0  0
    9.5900   -4.1820   25.1490 C   0  0  0  0  0  0  0  0  0  0  0  0
    4.3120    1.4730   18.7760 C   0  0  0  0  0  0  0  0  0  0  0  0
   12.3090   -2.2380   22.6050 C   0  0  0  0  0  0  0  0  0  0  0  0
   11.0590    1.6100   23.9390 C   0  0  0  0  0  0  0  0  0  0  0  0
   12.6670    0.1420   22.9420 C   0  0  0  0  0  0  0  0  0  0  0  0
    9.9550   -5.4460   25.4290 C   0  0  0  0  0  0  0  0  0  0  0  0
    8.2800   -3.7620   26.2040 S   0  0  0  0  0  0  0  0  0  0  0  0
   12.3030    1.4080   23.3560 C   0  0  0  0  0  0  0  0  0  0  0  0
    9.2010   -6.1160   26.5200 C   0  0  0  0  0  0  0  0  0  0  0  0
    8.2410   -5.2650   27.0330 C   0  0  0  0  0  0  0  0  0  0  0  0
    7.1350   -5.5800   28.2990 Cl  0  0  0  0  0  0  0  0  0  0  0  0
  1  2  1  0
  1  3  2  0
  1  4  1  0
  4  5  1  0
  4  6  1  0
  5  7  1  0
  6  8  1  0
  6  9  1  6
  5 10  1  1
  7 11  1  0
  8 11  1  0
  9 12  1  0
  9 13  1  0
 12 13  1  0
 10 14  1  0
 11 15  1  0
 14 16  2  0
 14 17  1  0
 15 18  1  6
 15 19  1  0
 17 20  2  0
 16 21  1  0
 19 22  2  0
 19 23  1  0
 18 24  1  0
 20 25  1  0
 21 25  2  0
 23 26  1  0
 22 27  1  0
 23 28  2  0
 24 29  2  0
 24 30  1  0
 27 31  2  0
 28 31  1  0
 29 32  1  0
 30 33  1  0
 32 33  2  0
 33 34  1  0
M  END
