x0770_1-x1334_1-x0692_1-x0397_0-x0426_1-x0831_0-x0434_2-x1374_1-x1412_1-x1385_1-x1418_1-x1334_0
     RDKit          3D

 44 49  0  0  0  0  0  0  0  0999 V2000
    1.9840   -7.1620   23.6110 O   0  0  0  0  0  0  0  0  0  0  0  0
    2.3770   -7.5070   24.9310 C   0  0  0  0  0  0  0  0  0  0  0  0
    3.7520   -7.8400   24.9980 O   0  0  0  0  0  0  0  0  0  0  0  0
    4.4430   -7.2470   23.9290 C   0  0  0  0  0  0  0  0  0  0  0  0
    5.0530   -5.9630   24.3820 C   0  0  0  0  0  0  0  0  0  0  0  0
    6.1360   -5.5740   23.4370 C   0  0  2  0  0  0  0  0  0  0  0  0
    5.9590   -4.7660   22.4270 C   0  0  2  0  0  0  0  0  0  0  0  0
    6.3030   -6.3570   22.2790 C   0  0  0  0  0  0  0  0  0  0  0  0
    6.9920   -3.7140   22.1990 C   0  0  1  0  0  0  0  0  0  0  0  0
    6.3020   -2.7400   21.3410 N   0  0  0  0  0  0  0  0  0  0  0  0
    7.6070   -3.2340   23.3740 C   0  0  0  0  0  0  0  0  0  0  0  0
    6.1870   -3.2470   20.0040 C   0  0  0  0  0  0  0  0  0  0  0  0
    8.5740   -2.1140   23.1930 N   0  0  0  0  0  0  0  0  0  0  0  0
    6.7460   -1.3950   21.7790 C   0  0  2  0  0  0  0  0  0  0  0  0
    7.1950   -2.9030   18.9100 C   0  0  0  0  0  0  0  0  0  0  0  0
    5.2900   -4.0550   19.7080 O   0  0  0  0  0  0  0  0  0  0  0  0
    6.0480   -0.0660   21.7720 C   0  0  1  0  0  0  0  0  0  0  0  0
   10.0150   -2.3690   23.3850 C   0  0  2  0  0  0  0  0  0  0  0  0
    8.2770   -1.3850   21.9380 C   0  0  0  0  0  0  0  0  0  0  0  0
    4.6590   -0.1800   22.4480 C   0  0  0  0  0  0  0  0  0  0  0  0
   10.4660   -3.0370   24.6620 C   0  0  0  0  0  0  0  0  0  0  0  0
    6.8860    0.9410   22.6020 C   0  0  0  0  0  0  0  0  0  0  0  0
    5.8530    0.4050   20.3530 C   0  0  0  0  0  0  0  0  0  0  0  0
   10.7770   -1.0290   23.4120 C   0  0  0  0  0  0  0  0  0  0  0  0
    3.8220    1.1380   22.4180 C   0  0  1  0  0  0  0  0  0  0  0  0
    4.6910    1.2670   19.9950 C   0  0  0  0  0  0  0  0  0  0  0  0
    6.8100    0.0510   19.2310 C   0  0  0  0  0  0  0  0  0  0  0  0
   10.2110    0.0600   24.0520 C   0  0  0  0  0  0  0  0  0  0  0  0
   12.0490   -0.8870   22.8030 C   0  0  0  0  0  0  0  0  0  0  0  0
    9.6840   -4.0390   25.4660 C   0  0  0  0  0  0  0  0  0  0  0  0
    4.2730    2.0860   23.4410 N   0  0  0  0  0  0  0  0  0  0  0  0
    3.6620    1.6820   21.0060 C   0  0  0  0  0  0  0  0  0  0  0  0
   12.7330   -2.0090   22.0860 C   0  0  0  0  0  0  0  0  0  0  0  0
    4.6060    1.7120   18.5530 C   0  0  0  0  0  0  0  0  0  0  0  0
    6.6580    0.4810   17.9740 N   0  0  0  0  0  0  0  0  0  0  0  0
   10.8720    1.2820   24.0970 C   0  0  0  0  0  0  0  0  0  0  0  0
   12.7270    0.3350   22.8480 C   0  0  0  0  0  0  0  0  0  0  0  0
    9.9990   -5.3800   25.6300 C   0  0  0  0  0  0  0  0  0  0  0  0
    8.2640   -3.6940   26.3840 S   0  0  0  0  0  0  0  0  0  0  0  0
    5.6200    1.2710   17.6640 C   0  0  0  0  0  0  0  0  0  0  0  0
   12.1580    1.4230   23.4810 C   0  0  0  0  0  0  0  0  0  0  0  0
    9.1720   -6.0690   26.4600 C   0  0  0  0  0  0  0  0  0  0  0  0
    8.1690   -5.2870   26.9700 C   0  0  0  0  0  0  0  0  0  0  0  0
    6.9410   -5.7570   28.0630 Cl  0  0  0  0  0  0  0  0  0  0  0  0
  1  2  1  0
  2  3  1  0
  3  4  1  0
  4  5  1  0
  6  5  1  1
  6  7  1  0
  6  8  1  0
  7  8  1  6
  7  9  1  0
  9 10  1  0
  9 11  1  1
 10 12  1  0
 11 13  1  0
 10 14  1  0
 12 15  1  0
 12 16  2  0
 14 17  1  0
 13 18  1  0
 13 19  1  0
 14 19  1  6
 17 20  1  0
 18 21  1  1
 17 22  1  1
 17 23  1  0
 18 24  1  0
 20 25  1  0
 23 26  2  0
 23 27  1  0
 24 28  2  0
 24 29  1  0
 21 30  1  0
 25 31  1  1
 25 32  1  0
 26 32  1  0
 29 33  1  0
 26 34  1  0
 27 35  2  0
 28 36  1  0
 29 37  2  0
 30 38  2  0
 30 39  1  0
 34 40  2  0
 35 40  1  0
 36 41  2  0
 37 41  1  0
 38 42  1  0
 39 43  1  0
 42 43  2  0
 43 44  1  0
M  END
