x0770_1-x0434_2-x1334_1-x0831_1-x1385_1-x1412_1-x0692_1-x0831_0-x0397_0-x1334_0
     RDKit          3D

 34 38  0  0  0  0  0  0  0  0999 V2000
    6.2950   -3.2970   19.8990 C   0  0  0  0  0  0  0  0  0  0  0  0
    7.2440   -2.9890   18.7600 C   0  0  0  0  0  0  0  0  0  0  0  0
    5.3320   -4.0510   19.6970 O   0  0  0  0  0  0  0  0  0  0  0  0
    6.5830   -2.7760   21.1550 N   0  0  0  0  0  0  0  0  0  0  0  0
    7.0690   -1.4140   21.2980 C   0  0  1  0  0  0  0  0  0  0  0  0
    6.8940   -3.7850   22.2130 C   0  0  1  0  0  0  0  0  0  0  0  0
    8.4270   -1.6310   21.9540 C   0  0  0  0  0  0  0  0  0  0  0  0
    7.6330   -3.2920   23.4640 C   0  0  0  0  0  0  0  0  0  0  0  0
    5.6890   -4.6570   22.6120 C   0  0  0  0  0  0  0  0  0  0  0  0
    7.6190   -0.5480   20.1710 C   0  0  0  0  0  0  0  0  0  0  0  0
    8.5280   -2.1310   23.3220 N   0  0  0  0  0  0  0  0  0  0  0  0
    6.2950   -5.8900   23.0110 C   0  0  0  0  0  0  0  0  0  0  0  0
    5.4650   -6.2140   22.0260 C   0  0  0  0  0  0  0  0  0  0  0  0
    6.9220   -0.1360   18.9150 C   0  0  0  0  0  0  0  0  0  0  0  0
    9.8750   -2.3230   23.4310 C   0  0  2  0  0  0  0  0  0  0  0  0
    6.3320    0.4230   20.0280 C   0  0  0  0  0  0  0  0  0  0  0  0
    6.1250    0.3870   17.9350 N   0  0  0  0  0  0  0  0  0  0  0  0
   10.4560   -3.2280   24.4760 C   0  0  0  0  0  0  0  0  0  0  0  0
   10.6160   -0.9790   23.4470 C   0  0  0  0  0  0  0  0  0  0  0  0
    5.0860    1.2090   18.0040 C   0  0  0  0  0  0  0  0  0  0  0  0
    5.2380    1.2800   20.1800 C   0  0  0  0  0  0  0  0  0  0  0  0
   10.0770    0.2180   23.9310 C   0  0  0  0  0  0  0  0  0  0  0  0
   11.9500   -0.9450   22.9260 C   0  0  0  0  0  0  0  0  0  0  0  0
    9.6140   -4.0650   25.3950 C   0  0  0  0  0  0  0  0  0  0  0  0
    4.5580    1.7100   19.0560 C   0  0  0  0  0  0  0  0  0  0  0  0
   12.6070   -2.1680   22.3750 C   0  0  0  0  0  0  0  0  0  0  0  0
   10.8450    1.5590   23.9330 C   0  0  0  0  0  0  0  0  0  0  0  0
   12.8710    0.4020   22.8710 C   0  0  0  0  0  0  0  0  0  0  0  0
   10.0140   -5.4470   25.6660 C   0  0  0  0  0  0  0  0  0  0  0  0
    8.1530   -3.7340   26.3050 S   0  0  0  0  0  0  0  0  0  0  0  0
   12.2860    1.7170   23.3980 C   0  0  0  0  0  0  0  0  0  0  0  0
    9.1790   -6.1530   26.5740 C   0  0  0  0  0  0  0  0  0  0  0  0
    8.0330   -5.2800   27.0620 C   0  0  0  0  0  0  0  0  0  0  0  0
    6.7970   -5.6830   28.1730 Cl  0  0  0  0  0  0  0  0  0  0  0  0
  1  2  1  0
  1  3  2  0
  1  4  1  0
  4  5  1  0
  4  6  1  0
  5  7  1  0
  6  8  1  0
  6  9  1  1
  5 10  1  6
  7 11  1  0
  8 11  1  0
  9 12  1  0
  9 13  1  0
 12 13  1  0
 10 14  1  0
 11 15  1  0
 14 16  2  0
 14 17  1  0
 15 18  1  1
 15 19  1  0
 17 20  2  0
 16 21  1  0
 19 22  2  0
 19 23  1  0
 18 24  1  0
 20 25  1  0
 21 25  2  0
 23 26  1  0
 22 27  1  0
 23 28  2  0
 24 29  2  0
 24 30  1  0
 27 31  2  0
 28 31  1  0
 29 32  1  0
 30 33  1  0
 32 33  2  0
 33 34  1  0
M  END
