x0770_1-x0692_0
     RDKit          3D

 17 18  0  0  0  0  0  0  0  0999 V2000
    6.2980   -3.3200   19.9120 C   0  0  0  0  0  0  0  0  0  0  0  0
    7.3060   -3.0140   18.8160 C   0  0  0  0  0  0  0  0  0  0  0  0
    5.3770   -4.1320   19.7440 O   0  0  0  0  0  0  0  0  0  0  0  0
    6.4990   -2.6580   21.1330 N   0  0  0  0  0  0  0  0  0  0  0  0
    7.4200   -1.5050   21.2380 C   0  0  0  0  0  0  0  0  0  0  0  0
    6.1740   -3.2840   22.4060 C   0  0  0  0  0  0  0  0  0  0  0  0
    8.6130   -1.8780   21.7530 C   0  0  0  0  0  0  0  0  0  0  0  0
    7.4680   -3.4780   23.1970 C   0  0  0  0  0  0  0  0  0  0  0  0
    8.3010   -2.3050   23.1150 N   0  0  0  0  0  0  0  0  0  0  0  0
    9.4230   -2.2890   24.0580 C   0  0  0  0  0  0  0  0  0  0  0  0
   10.6000   -1.4220   23.6980 C   0  0  0  0  0  0  0  0  0  0  0  0
   10.2940   -0.0510   23.8700 C   0  0  0  0  0  0  0  0  0  0  0  0
   11.8480   -1.8660   23.2490 C   0  0  0  0  0  0  0  0  0  0  0  0
   11.2890    0.8560   23.5720 C   0  0  0  0  0  0  0  0  0  0  0  0
   12.8300   -0.9180   22.9630 C   0  0  0  0  0  0  0  0  0  0  0  0
   10.8690    2.3470   23.7710 C   0  0  0  0  0  0  0  0  0  0  0  0
   12.5520    0.4460   23.1250 C   0  0  0  0  0  0  0  0  0  0  0  0
  1  2  1  0
  1  3  2  0
  1  4  1  0
  4  5  1  0
  4  6  1  0
  5  7  1  0
  6  8  1  0
  7  9  1  0
  8  9  1  0
  9 10  1  0
 10 11  1  0
 11 12  2  0
 11 13  1  0
 12 14  1  0
 13 15  2  0
 14 16  1  0
 14 17  2  0
 15 17  1  0
M  END
