x0771_0-x1412_0-x1386_0-x0691_0
     RDKit          3D

 23 25  0  0  0  0  0  0  0  0999 V2000
    6.6560   -4.2300   20.6410 C   0  0  0  0  0  0  0  0  0  0  0  0
    7.9870   -3.5600   20.2960 C   0  0  0  0  0  0  0  0  0  0  0  0
    5.6910   -4.2250   19.8440 O   0  0  0  0  0  0  0  0  0  0  0  0
    6.5530   -4.8700   21.8750 N   0  0  0  0  0  0  0  0  0  0  0  0
    5.8940   -6.1660   21.9710 C   0  0  0  0  0  0  0  0  0  0  0  0
    7.3390   -4.5350   23.0900 C   0  0  1  0  0  0  0  0  0  0  0  0
    7.5920   -3.0230   23.3300 C   0  0  0  0  0  0  0  0  0  0  0  0
    4.8360   -6.2110   23.0920 C   0  0  0  0  0  0  0  0  0  0  0  0
    6.6330   -5.0420   24.3500 C   0  0  0  0  0  0  0  0  0  0  0  0
    8.7320   -2.7060   24.3540 C   0  0  2  0  0  0  0  0  0  0  0  0
    5.2050   -5.3700   24.2460 N   0  0  0  0  0  0  0  0  0  0  0  0
    8.6830   -1.4500   25.0470 O   0  0  0  0  0  0  0  0  0  0  0  0
   10.0880   -2.7480   23.6180 C   0  0  0  0  0  0  0  0  0  0  0  0
    8.7410   -3.7900   25.4170 C   0  0  0  0  0  0  0  0  0  0  0  0
    9.5350   -4.9720   25.3650 C   0  0  0  0  0  0  0  0  0  0  0  0
    7.8080   -3.7780   26.8750 S   0  0  0  0  0  0  0  0  0  0  0  0
   10.9830   -1.5350   23.5680 C   0  0  0  0  0  0  0  0  0  0  0  0
    9.3540   -5.7830   26.4800 C   0  0  0  0  0  0  0  0  0  0  0  0
    8.4470   -5.2870   27.4110 C   0  0  0  0  0  0  0  0  0  0  0  0
   12.0510   -1.5150   22.7320 C   0  0  0  0  0  0  0  0  0  0  0  0
   10.9320   -0.3170   24.2700 C   0  0  0  0  0  0  0  0  0  0  0  0
   12.8780   -0.2820   22.7400 C   0  0  0  0  0  0  0  0  0  0  0  0
   12.2050    0.8020   23.8550 S   0  0  0  0  0  0  0  0  0  0  0  0
  1  2  1  0
  1  3  2  0
  1  4  1  0
  4  5  1  0
  4  6  1  0
  6  7  1  1
  5  8  1  0
  6  9  1  0
  7 10  1  0
  8 11  1  0
  9 11  1  0
 10 12  1  1
 10 13  1  0
 10 14  1  0
 14 15  2  0
 14 16  1  0
 13 17  1  0
 15 18  1  0
 16 19  1  0
 18 19  2  0
 17 20  1  0
 17 21  2  0
 20 22  2  0
 21 23  1  0
 22 23  1  0
M  END
