x0770_1-x0397_0-x1334_1-x0434_2-x0692_1-x1412_1-x0831_0
     RDKit          3D

 27 30  0  0  0  0  0  0  0  0999 V2000
    6.4200   -3.3880   19.8720 C   0  0  0  0  0  0  0  0  0  0  0  0
    7.3440   -3.0680   18.7020 C   0  0  0  0  0  0  0  0  0  0  0  0
    5.4280   -4.1140   19.7220 O   0  0  0  0  0  0  0  0  0  0  0  0
    6.8240   -2.8540   21.0690 N   0  0  0  0  0  0  0  0  0  0  0  0
    7.7300   -1.6730   20.9240 C   0  0  2  0  0  0  0  0  0  0  0  0
    7.3410   -3.7460   21.9670 C   0  0  1  0  0  0  0  0  0  0  0  0
    8.9110   -1.6540   21.9180 C   0  0  0  0  0  0  0  0  0  0  0  0
    7.6940   -3.1380   23.3420 C   0  0  0  0  0  0  0  0  0  0  0  0
    6.6410   -5.0910   22.0390 C   0  0  0  0  0  0  0  0  0  0  0  0
    7.1060   -0.3130   20.7590 C   0  0  0  0  0  0  0  0  0  0  0  0
    8.6830   -2.0580   23.2810 N   0  0  0  0  0  0  0  0  0  0  0  0
    6.4160   -5.8230   23.2620 C   0  0  0  0  0  0  0  0  0  0  0  0
    5.2400   -5.3100   22.1620 C   0  0  0  0  0  0  0  0  0  0  0  0
    6.9500    0.1120   19.4270 C   0  0  0  0  0  0  0  0  0  0  0  0
    9.9620   -2.2890   23.7930 C   0  0  0  0  0  0  0  0  0  0  0  0
    5.8650    0.3950   20.3060 C   0  0  0  0  0  0  0  0  0  0  0  0
    6.4480    0.7050   18.1000 N   0  0  0  0  0  0  0  0  0  0  0  0
   10.7660   -0.9920   23.6800 C   0  0  0  0  0  0  0  0  0  0  0  0
    5.3020    1.3480   17.8090 C   0  0  0  0  0  0  0  0  0  0  0  0
    4.6730    1.0380   20.0450 C   0  0  0  0  0  0  0  0  0  0  0  0
   10.3140    0.2580   24.1810 C   0  0  0  0  0  0  0  0  0  0  0  0
   12.0310   -0.9570   23.0420 C   0  0  0  0  0  0  0  0  0  0  0  0
    4.3620    1.5170   18.8480 C   0  0  0  0  0  0  0  0  0  0  0  0
   12.6610   -2.1750   22.4560 C   0  0  0  0  0  0  0  0  0  0  0  0
   11.0270    1.4440   24.0640 C   0  0  0  0  0  0  0  0  0  0  0  0
   12.8480    0.4190   22.9210 C   0  0  0  0  0  0  0  0  0  0  0  0
   12.2680    1.5470   23.4510 C   0  0  0  0  0  0  0  0  0  0  0  0
  1  2  1  0
  1  3  2  0
  1  4  1  0
  4  5  1  0
  4  6  1  0
  5  7  1  0
  6  8  1  0
  6  9  1  1
  5 10  1  1
  7 11  1  0
  8 11  1  0
  9 12  1  0
  9 13  1  0
 12 13  1  0
 10 14  1  0
 11 15  1  0
 14 16  2  0
 14 17  1  0
 15 18  1  0
 17 19  2  0
 16 20  1  0
 18 21  2  0
 18 22  1  0
 19 23  1  0
 20 23  2  0
 22 24  1  0
 21 25  1  0
 22 26  2  0
 25 27  2  0
 26 27  1  0
M  END
