x0770_1-x1412_1-x0692_1-x1418_1-x0831_0-x1385_1-x0734_0-x1334_1-x0434_2-x0426_1-x0397_0
     RDKit          3D

 42 47  0  0  0  0  0  0  0  0999 V2000
    6.0960   -3.2560   19.9320 C   0  0  0  0  0  0  0  0  0  0  0  0
    7.0810   -2.9580   18.8060 C   0  0  0  0  0  0  0  0  0  0  0  0
    5.3030   -4.1900   19.7540 O   0  0  0  0  0  0  0  0  0  0  0  0
    6.1380   -2.5000   21.1100 N   0  0  0  0  0  0  0  0  0  0  0  0
    6.9600   -1.2840   21.2060 C   0  0  1  0  0  0  0  0  0  0  0  0
    6.1450   -3.2620   22.3320 C   0  0  2  0  0  0  0  0  0  0  0  0
    6.2810    0.0400   21.5390 C   0  0  1  0  0  0  0  0  0  0  0  0
    8.3860   -1.5170   21.8400 C   0  0  0  0  0  0  0  0  0  0  0  0
    7.5770   -3.5380   22.7790 C   0  0  0  0  0  0  0  0  0  0  0  0
    6.0930   -4.7800   22.1240 C   0  0  2  0  0  0  0  0  0  0  0  0
    5.0170   -0.1960   22.3550 C   0  0  0  0  0  0  0  0  0  0  0  0
    7.2960    1.0180   22.1280 C   0  0  0  0  0  0  0  0  0  0  0  0
    8.4350   -2.3370   23.0530 N   0  0  0  0  0  0  0  0  0  0  0  0
    5.9350   -5.3340   23.4740 C   0  0  2  0  0  0  0  0  0  0  0  0
    7.0280   -5.9800   22.7720 C   0  0  0  0  0  0  0  0  0  0  0  0
    5.8390    0.6050   20.2160 C   0  0  0  0  0  0  0  0  0  0  0  0
    4.7130   -6.0960   23.9050 C   0  0  0  0  0  0  0  0  0  0  0  0
    3.9970    0.9930   22.3550 C   0  0  1  0  0  0  0  0  0  0  0  0
    9.8680   -2.4960   23.4070 C   0  0  0  0  0  0  0  0  0  0  0  0
    4.7180    1.3460   19.9930 C   0  0  0  0  0  0  0  0  0  0  0  0
    6.6220    0.3950   18.9400 C   0  0  0  0  0  0  0  0  0  0  0  0
    4.4080   -5.7630   25.2920 N   0  0  0  0  0  0  0  0  0  0  0  0
    4.2530    2.0040   23.3930 N   0  0  0  0  0  0  0  0  0  0  0  0
    3.7350    1.7140   21.0300 C   0  0  0  0  0  0  0  0  0  0  0  0
    4.5140    1.7940   18.6110 C   0  0  0  0  0  0  0  0  0  0  0  0
    6.3990    0.8170   17.6790 N   0  0  0  0  0  0  0  0  0  0  0  0
   10.6250   -1.2310   23.4270 C   0  0  0  0  0  0  0  0  0  0  0  0
    5.1110   -4.8810   25.9150 N   0  0  0  0  0  0  0  0  0  0  0  0
    5.2960    1.5360   17.6030 C   0  0  0  0  0  0  0  0  0  0  0  0
   10.0570   -0.1730   24.1650 C   0  0  0  0  0  0  0  0  0  0  0  0
   11.8740   -1.0060   22.7700 C   0  0  0  0  0  0  0  0  0  0  0  0
    4.5460   -3.9400   26.5730 O   0  0  0  0  0  0  0  0  0  0  0  0
   12.5720   -2.0600   21.9550 C   0  0  0  0  0  0  0  0  0  0  0  0
    6.4810   -5.0570   26.1480 C   0  0  0  0  0  0  0  0  0  0  0  0
   10.7000    1.0590   24.2460 C   0  0  0  0  0  0  0  0  0  0  0  0
   12.5060    0.2250   22.8670 C   0  0  0  0  0  0  0  0  0  0  0  0
    7.6070   -4.6090   25.1070 C   0  0  0  0  0  0  0  0  0  0  0  0
    7.0520   -5.7140   27.4450 C   0  0  0  0  0  0  0  0  0  0  0  0
   11.9270    1.2520   23.5950 C   0  0  0  0  0  0  0  0  0  0  0  0
    8.9200   -4.8850   25.5040 C   0  0  0  0  0  0  0  0  0  0  0  0
    8.4010   -5.8800   27.6220 C   0  0  0  0  0  0  0  0  0  0  0  0
    9.2840   -5.4820   26.6770 C   0  0  0  0  0  0  0  0  0  0  0  0
  1  2  1  0
  1  3  2  0
  1  4  1  0
  4  5  1  0
  4  6  1  0
  5  7  1  0
  5  8  1  1
  6  9  1  6
  6 10  1  0
  7 11  1  0
  7 12  1  1
  8 13  1  0
  9 13  1  0
 10 14  1  0
 10 15  1  1
 14 15  1  0
  7 16  1  0
 14 17  1  6
 11 18  1  0
 13 19  1  0
 16 20  2  0
 16 21  1  0
 17 22  1  0
 18 23  1  1
 18 24  1  0
 20 24  1  0
 20 25  1  0
 21 26  2  0
 19 27  1  0
 22 28  2  3
 25 29  2  0
 26 29  1  0
 27 30  2  0
 27 31  1  0
 28 32  1  0
 31 33  1  0
 28 34  1  0
 30 35  1  0
 31 36  2  0
 34 37  2  0
 34 38  1  0
 35 39  2  0
 36 39  1  0
 37 40  1  0
 38 41  2  0
 40 42  2  0
 41 42  1  0
M  CHG  2  28   1  32  -1
M  END
