x0770_1-x0831_0-x1375_1-x0692_1-x1412_1-x1334_1-x0426_1-x0397_0-x1386_1-x0831_1-x1374_1-x0434_2-x1334_0-x1418_1-x1385_1
     RDKit          3D

 43 48  0  0  0  0  0  0  0  0999 V2000
    3.1620   -8.0760   24.2940 O   0  0  0  0  0  0  0  0  0  0  0  0
    3.4690   -6.9970   25.1480 C   0  0  0  0  0  0  0  0  0  0  0  0
    4.7900   -6.5990   24.8560 O   0  0  0  0  0  0  0  0  0  0  0  0
    5.0870   -6.7720   23.4760 C   0  0  0  0  0  0  0  0  0  0  0  0
    6.0560   -5.7470   23.0150 C   0  0  2  0  0  0  0  0  0  0  0  0
    5.5570   -4.5810   22.4050 C   0  0  2  0  0  0  0  0  0  0  0  0
    6.4220   -5.8160   21.7620 C   0  0  0  0  0  0  0  0  0  0  0  0
    6.2590   -3.1670   22.4790 C   0  0  2  0  0  0  0  0  0  0  0  0
    6.2160   -2.5290   21.1450 N   0  0  0  0  0  0  0  0  0  0  0  0
    7.5630   -3.4020   22.9570 C   0  0  0  0  0  0  0  0  0  0  0  0
    6.1780   -3.3280   19.9890 C   0  0  0  0  0  0  0  0  0  0  0  0
    8.3390   -2.1520   22.9610 N   0  0  0  0  0  0  0  0  0  0  0  0
    7.1080   -1.3540   21.0300 C   0  0  1  0  0  0  0  0  0  0  0  0
    7.1630   -2.9990   18.8720 C   0  0  0  0  0  0  0  0  0  0  0  0
    5.4060   -4.2860   19.8260 O   0  0  0  0  0  0  0  0  0  0  0  0
    6.4400    0.0650   21.3930 C   0  0  1  0  0  0  0  0  0  0  0  0
    9.4610   -2.0430   23.8940 C   0  0  1  0  0  0  0  0  0  0  0  0
    8.4580   -1.6020   21.7730 C   0  0  0  0  0  0  0  0  0  0  0  0
    5.2610    0.0370   22.4000 C   0  0  0  0  0  0  0  0  0  0  0  0
   10.1220   -3.3960   24.1010 C   0  0  0  0  0  0  0  0  0  0  0  0
    7.4720    1.0550   22.0160 C   0  0  0  0  0  0  0  0  0  0  0  0
    5.9100    0.6190   20.0900 C   0  0  0  0  0  0  0  0  0  0  0  0
   10.4220   -0.8430   23.6840 C   0  0  0  0  0  0  0  0  0  0  0  0
    4.5960    1.4330   22.4860 C   0  0  2  0  0  0  0  0  0  0  0  0
    4.7020    1.3610   19.9650 C   0  0  0  0  0  0  0  0  0  0  0  0
    6.7440    0.3550   18.8170 C   0  0  0  0  0  0  0  0  0  0  0  0
   10.1290    0.4900   24.0560 C   0  0  0  0  0  0  0  0  0  0  0  0
   11.8580   -0.9180   23.0460 C   0  0  0  0  0  0  0  0  0  0  0  0
    9.4950   -4.2380   25.1920 C   0  0  0  0  0  0  0  0  0  0  0  0
    3.6540    1.5980   23.6020 N   0  0  0  0  0  0  0  0  0  0  0  0
    3.8500    1.6170   21.1760 C   0  0  0  0  0  0  0  0  0  0  0  0
   12.4520   -2.1700   22.5480 C   0  0  0  0  0  0  0  0  0  0  0  0
    4.3380    1.8260   18.7490 C   0  0  0  0  0  0  0  0  0  0  0  0
    6.3910    0.8010   17.6350 N   0  0  0  0  0  0  0  0  0  0  0  0
   10.9840    1.5720   23.8900 C   0  0  0  0  0  0  0  0  0  0  0  0
   12.6980    0.3000   22.9140 C   0  0  0  0  0  0  0  0  0  0  0  0
    9.9230   -5.5310   25.4800 C   0  0  0  0  0  0  0  0  0  0  0  0
    8.1880   -3.7730   26.2330 S   0  0  0  0  0  0  0  0  0  0  0  0
    5.2580    1.4940   17.6480 C   0  0  0  0  0  0  0  0  0  0  0  0
   12.2920    1.5440   23.3220 C   0  0  0  0  0  0  0  0  0  0  0  0
    9.2360   -6.0820   26.4870 C   0  0  0  0  0  0  0  0  0  0  0  0
    8.2560   -5.3490   27.0680 C   0  0  0  0  0  0  0  0  0  0  0  0
    7.2150   -5.7510   28.3600 Cl  0  0  0  0  0  0  0  0  0  0  0  0
  1  2  1  0
  2  3  1  0
  3  4  1  0
  5  4  1  6
  5  6  1  0
  5  7  1  0
  6  7  1  6
  6  8  1  0
  8  9  1  0
  8 10  1  6
  9 11  1  0
 10 12  1  0
  9 13  1  0
 11 14  1  0
 11 15  2  0
 13 16  1  0
 12 17  1  0
 12 18  1  0
 13 18  1  1
 16 19  1  0
 17 20  1  6
 16 21  1  1
 16 22  1  0
 17 23  1  0
 19 24  1  0
 22 25  2  0
 22 26  1  0
 23 27  2  0
 23 28  1  0
 20 29  1  0
 24 30  1  1
 24 31  1  0
 25 31  1  0
 28 32  1  0
 25 33  1  0
 26 34  2  0
 27 35  1  0
 28 36  2  0
 29 37  2  0
 29 38  1  0
 33 39  2  0
 34 39  1  0
 35 40  2  0
 36 40  1  0
 37 41  1  0
 38 42  1  0
 41 42  2  0
 42 43  1  0
M  END
