x0770_1-x0831_0-x1334_0-x1412_1-x0692_1-x0397_0-x1334_1
     RDKit          3D

 27 30  0  0  0  0  0  0  0  0999 V2000
    6.2750   -3.3090   19.8930 C   0  0  0  0  0  0  0  0  0  0  0  0
    7.2540   -3.0000   18.7700 C   0  0  0  0  0  0  0  0  0  0  0  0
    5.3610   -4.1250   19.7200 O   0  0  0  0  0  0  0  0  0  0  0  0
    6.4890   -2.6560   21.0940 N   0  0  0  0  0  0  0  0  0  0  0  0
    7.1000   -1.4280   21.2420 C   0  0  0  0  0  0  0  0  0  0  0  0
    6.9460   -3.5830   22.1410 C   0  0  1  0  0  0  0  0  0  0  0  0
    8.4960   -1.5520   21.8700 C   0  0  0  0  0  0  0  0  0  0  0  0
    7.3490   -2.8950   23.4650 C   0  0  0  0  0  0  0  0  0  0  0  0
    5.8720   -4.6540   22.3820 C   0  0  0  0  0  0  0  0  0  0  0  0
    8.3300   -1.8250   23.2820 N   0  0  0  0  0  0  0  0  0  0  0  0
    6.1510   -5.9630   23.1950 C   0  0  0  0  0  0  0  0  0  0  0  0
    6.1000   -6.1540   21.9660 C   0  0  0  0  0  0  0  0  0  0  0  0
    9.5570   -1.9270   24.0860 C   0  0  1  0  0  0  0  0  0  0  0  0
   10.1110   -3.3200   24.0610 C   0  0  0  0  0  0  0  0  0  0  0  0
   10.5740   -0.8170   23.8000 C   0  0  0  0  0  0  0  0  0  0  0  0
   10.2410    0.5740   24.2540 C   0  0  0  0  0  0  0  0  0  0  0  0
   11.9550   -0.9290   23.0650 C   0  0  0  0  0  0  0  0  0  0  0  0
    9.5400   -4.2100   25.1490 C   0  0  0  0  0  0  0  0  0  0  0  0
   12.5240   -2.1920   22.5060 C   0  0  0  0  0  0  0  0  0  0  0  0
   11.0370    1.6510   24.0570 C   0  0  0  0  0  0  0  0  0  0  0  0
   12.7710    0.3120   22.9010 C   0  0  0  0  0  0  0  0  0  0  0  0
    9.9240   -5.4920   25.4270 C   0  0  0  0  0  0  0  0  0  0  0  0
    8.2840   -3.7590   26.2470 S   0  0  0  0  0  0  0  0  0  0  0  0
   12.3860    1.5090   23.3370 C   0  0  0  0  0  0  0  0  0  0  0  0
    9.2690   -6.0700   26.4510 C   0  0  0  0  0  0  0  0  0  0  0  0
    8.3320   -5.2860   27.0340 C   0  0  0  0  0  0  0  0  0  0  0  0
    7.3050   -5.6580   28.3470 Cl  0  0  0  0  0  0  0  0  0  0  0  0
  1  2  1  0
  1  3  2  0
  1  4  1  0
  4  5  1  0
  4  6  1  0
  5  7  1  0
  6  8  1  0
  6  9  1  1
  7 10  1  0
  8 10  1  0
  9 11  1  0
  9 12  1  0
 11 12  1  0
 10 13  1  0
 13 14  1  6
 13 15  1  0
 15 16  2  0
 15 17  1  0
 14 18  1  0
 17 19  1  0
 16 20  1  0
 17 21  2  0
 18 22  2  0
 18 23  1  0
 20 24  2  0
 21 24  1  0
 22 25  1  0
 23 26  1  0
 25 26  2  0
 26 27  1  0
M  END
