x0770_1-x1418_1-x1334_0-x0692_1-x0426_1-x1334_1-x1374_1-x0397_0-x0831_0-x0434_2-x1418_0
     RDKit          3D

 45 50  0  0  0  0  0  0  0  0999 V2000
    2.2960   -7.6440   23.2510 O   0  0  0  0  0  0  0  0  0  0  0  0
    2.5070   -7.9710   24.6130 C   0  0  0  0  0  0  0  0  0  0  0  0
    3.9030   -7.9710   24.8140 O   0  0  0  0  0  0  0  0  0  0  0  0
    4.5670   -7.2190   23.8060 C   0  0  0  0  0  0  0  0  0  0  0  0
    4.9650   -6.0380   24.2430 C   0  0  0  0  0  0  0  0  0  0  0  0
    6.1110   -5.6320   23.3670 C   0  0  2  0  0  0  0  0  0  0  0  0
    5.8330   -4.6520   22.5390 C   0  0  2  0  0  0  0  0  0  0  0  0
    6.2530   -6.1900   22.1840 C   0  0  0  0  0  0  0  0  0  0  0  0
    6.7940   -3.5650   22.2920 C   0  0  1  0  0  0  0  0  0  0  0  0
    6.4020   -2.6810   21.1930 N   0  0  0  0  0  0  0  0  0  0  0  0
    7.0830   -2.8870   23.4610 C   0  0  0  0  0  0  0  0  0  0  0  0
    6.2480   -3.3160   19.9540 C   0  0  0  0  0  0  0  0  0  0  0  0
    8.3760   -2.2130   23.3550 N   0  0  0  0  0  0  0  0  0  0  0  0
    7.2010   -1.4550   21.2490 C   0  0  1  0  0  0  0  0  0  0  0  0
    7.2870   -2.9840   18.8770 C   0  0  0  0  0  0  0  0  0  0  0  0
    5.3500   -4.1380   19.7480 O   0  0  0  0  0  0  0  0  0  0  0  0
    6.4020   -0.0820   21.4890 C   0  0  1  0  0  0  0  0  0  0  0  0
    9.4930   -3.0390   23.8640 C   0  0  1  0  0  0  0  0  0  0  0  0
    8.5810   -1.6600   22.0170 C   0  0  0  0  0  0  0  0  0  0  0  0
    5.1690   -0.2570   22.4670 C   0  0  0  0  0  0  0  0  0  0  0  0
   10.5700   -2.2100   24.5740 C   0  0  1  0  0  0  0  0  0  0  0  0
    7.3020    1.1050   21.9490 C   0  0  0  0  0  0  0  0  0  0  0  0
    5.9530    0.4830   20.1620 C   0  0  0  0  0  0  0  0  0  0  0  0
    9.1210   -4.0300   24.9780 C   0  0  0  0  0  0  0  0  0  0  0  0
    4.0750    0.8790   22.4400 C   0  0  1  0  0  0  0  0  0  0  0  0
   11.7320   -3.1370   24.7690 C   0  0  0  0  0  0  0  0  0  0  0  0
    4.7840    1.2370   20.0120 C   0  0  0  0  0  0  0  0  0  0  0  0
    6.7230    0.2570   19.0320 C   0  0  0  0  0  0  0  0  0  0  0  0
    9.6810   -5.2640   25.2380 C   0  0  0  0  0  0  0  0  0  0  0  0
    7.8540   -3.7950   26.2740 S   0  0  0  0  0  0  0  0  0  0  0  0
   11.0560   -0.8690   24.0750 C   0  0  0  0  0  0  0  0  0  0  0  0
    4.3220    1.9000   23.4480 N   0  0  0  0  0  0  0  0  0  0  0  0
    3.8220    1.5710   21.1090 C   0  0  0  0  0  0  0  0  0  0  0  0
    4.4730    1.7350   18.7230 C   0  0  0  0  0  0  0  0  0  0  0  0
    6.4390    0.7180   17.8070 N   0  0  0  0  0  0  0  0  0  0  0  0
    9.2310   -5.9890   26.3040 C   0  0  0  0  0  0  0  0  0  0  0  0
    8.2210   -5.3140   26.9760 C   0  0  0  0  0  0  0  0  0  0  0  0
   10.4130    0.2760   24.4900 C   0  0  0  0  0  0  0  0  0  0  0  0
   12.1730   -0.7610   23.2180 C   0  0  0  0  0  0  0  0  0  0  0  0
    7.3670   -5.8300   28.3640 Cl  0  0  0  0  0  0  0  0  0  0  0  0
   12.9350   -1.9440   22.6900 C   0  0  0  0  0  0  0  0  0  0  0  0
    5.3240    1.4480   17.6950 C   0  0  0  0  0  0  0  0  0  0  0  0
   10.8580    1.5110   24.0880 C   0  0  0  0  0  0  0  0  0  0  0  0
   12.6310    0.4740   22.8190 C   0  0  0  0  0  0  0  0  0  0  0  0
   11.9940    1.6170   23.2410 C   0  0  0  0  0  0  0  0  0  0  0  0
  1  2  1  0
  2  3  1  0
  3  4  1  0
  4  5  1  0
  6  5  1  1
  6  7  1  0
  6  8  1  0
  7  8  1  6
  7  9  1  0
  9 10  1  0
  9 11  1  1
 10 12  1  0
 11 13  1  0
 10 14  1  0
 12 15  1  0
 12 16  2  0
 14 17  1  0
 13 18  1  0
 13 19  1  0
 14 19  1  1
 17 20  1  0
 18 21  1  0
 17 22  1  1
 17 23  1  0
 18 24  1  1
 20 25  1  0
 21 26  1  6
 23 27  2  0
 23 28  1  0
 24 29  2  0
 24 30  1  0
 21 31  1  0
 25 32  1  1
 25 33  1  0
 27 33  1  0
 27 34  1  0
 28 35  2  0
 29 36  1  0
 30 37  1  0
 36 37  2  0
 31 38  2  0
 31 39  1  0
 37 40  1  0
 39 41  1  0
 34 42  2  0
 35 42  1  0
 38 43  1  0
 39 44  2  0
 43 45  2  0
 44 45  1  0
M  END
