x0770_1-x1334_0-x0434_2-x0692_1-x0831_0-x1334_1-x1418_1-x1385_1-x0397_0-x0426_1-x1412_1
     RDKit          3D

 39 44  0  0  0  0  0  0  0  0999 V2000
    6.2230   -3.2900   19.8640 C   0  0  0  0  0  0  0  0  0  0  0  0
    7.2470   -2.9910   18.7830 C   0  0  0  0  0  0  0  0  0  0  0  0
    5.2970   -4.0910   19.6930 O   0  0  0  0  0  0  0  0  0  0  0  0
    6.3900   -2.6550   21.0970 N   0  0  0  0  0  0  0  0  0  0  0  0
    7.1390   -1.4080   21.3400 C   0  0  1  0  0  0  0  0  0  0  0  0
    6.8730   -3.6370   22.0330 C   0  0  1  0  0  0  0  0  0  0  0  0
    6.3320   -0.1210   21.6010 C   0  0  1  0  0  0  0  0  0  0  0  0
    8.4320   -1.6330   22.2300 C   0  0  0  0  0  0  0  0  0  0  0  0
    6.9580   -3.1270   23.4190 C   0  0  0  0  0  0  0  0  0  0  0  0
    5.8730   -4.4210   22.8900 C   0  0  0  0  0  0  0  0  0  0  0  0
    5.0360   -0.3140   22.4400 C   0  0  0  0  0  0  0  0  0  0  0  0
    7.2510    0.9630   22.2190 C   0  0  0  0  0  0  0  0  0  0  0  0
    8.2070   -2.3390   23.5350 N   0  0  0  0  0  0  0  0  0  0  0  0
    6.3610   -5.6970   23.3450 C   0  0  0  0  0  0  0  0  0  0  0  0
    5.6120   -5.8340   21.9640 C   0  0  0  0  0  0  0  0  0  0  0  0
    5.8980    0.4510   20.2660 C   0  0  0  0  0  0  0  0  0  0  0  0
    4.0370    0.8890   22.4790 C   0  0  1  0  0  0  0  0  0  0  0  0
    9.2960   -3.2780   23.7800 C   0  0  1  0  0  0  0  0  0  0  0  0
    4.7510    1.2250   20.0270 C   0  0  0  0  0  0  0  0  0  0  0  0
    6.7120    0.1810   19.2190 C   0  0  0  0  0  0  0  0  0  0  0  0
    4.3780    1.8880   23.4810 N   0  0  0  0  0  0  0  0  0  0  0  0
    3.7820    1.5700   21.0950 C   0  0  0  0  0  0  0  0  0  0  0  0
   10.6930   -2.6690   23.9400 C   0  0  0  0  0  0  0  0  0  0  0  0
    4.4820    1.6980   18.7770 C   0  0  0  0  0  0  0  0  0  0  0  0
    6.5300    0.5970   17.9460 N   0  0  0  0  0  0  0  0  0  0  0  0
    8.9710   -4.1720   24.9960 C   0  0  0  0  0  0  0  0  0  0  0  0
    5.3460    1.4110   17.7270 C   0  0  0  0  0  0  0  0  0  0  0  0
    9.8460   -5.3600   25.2990 C   0  0  0  0  0  0  0  0  0  0  0  0
    7.6550   -3.9560   26.1010 S   0  0  0  0  0  0  0  0  0  0  0  0
   10.9420   -1.0600   23.8890 C   0  0  0  0  0  0  0  0  0  0  0  0
    9.3180   -6.0460   26.5140 C   0  0  0  0  0  0  0  0  0  0  0  0
    8.0940   -5.3930   27.0990 C   0  0  0  0  0  0  0  0  0  0  0  0
   10.2170   -0.0980   24.4510 C   0  0  0  0  0  0  0  0  0  0  0  0
   12.2160   -0.8520   23.0550 C   0  0  0  0  0  0  0  0  0  0  0  0
    7.1840   -5.8410   28.4690 Cl  0  0  0  0  0  0  0  0  0  0  0  0
   13.0680   -1.8830   22.3780 C   0  0  0  0  0  0  0  0  0  0  0  0
   10.6560    1.1860   24.2740 C   0  0  0  0  0  0  0  0  0  0  0  0
   12.5760    0.4930   22.9480 C   0  0  0  0  0  0  0  0  0  0  0  0
   11.8660    1.5570   23.5150 C   0  0  0  0  0  0  0  0  0  0  0  0
  1  2  1  0
  1  3  2  0
  1  4  1  0
  4  5  1  0
  4  6  1  0
  5  7  1  0
  5  8  1  1
  6  9  1  0
  6 10  1  1
  7 11  1  0
  7 12  1  1
  8 13  1  0
  9 13  1  0
 10 14  1  0
 10 15  1  0
 14 15  1  0
  7 16  1  0
 11 17  1  0
 13 18  1  0
 16 19  2  0
 16 20  1  0
 17 21  1  1
 17 22  1  0
 19 22  1  0
 18 23  1  1
 19 24  1  0
 20 25  2  0
 18 26  1  0
 24 27  2  0
 25 27  1  0
 26 28  2  0
 26 29  1  0
 23 30  1  0
 28 31  1  0
 29 32  1  0
 31 32  2  0
 30 33  2  0
 30 34  1  0
 32 35  1  0
 34 36  1  0
 33 37  1  0
 34 38  2  0
 37 39  2  0
 38 39  1  0
M  END
