x0770_1-x1412_1-x0434_2-x1334_0-x0397_0-x1418_1-x1385_1-x1334_1-x1374_1-x0540_3-x0831_0-x0692_1
     RDKit          3D

 44 48  0  0  0  0  0  0  0  0999 V2000
    2.1480   -6.8540   23.8080 O   0  0  0  0  0  0  0  0  0  0  0  0
    2.4460   -7.9090   24.7020 C   0  0  0  0  0  0  0  0  0  0  0  0
    3.8490   -7.9620   24.8700 O   0  0  0  0  0  0  0  0  0  0  0  0
    4.5310   -7.2420   23.8500 C   0  0  0  0  0  0  0  0  0  0  0  0
    4.8750   -6.0180   24.3170 C   0  0  0  0  0  0  0  0  0  0  0  0
    5.9670   -5.6160   23.3770 C   0  0  2  0  0  0  0  0  0  0  0  0
    5.8240   -4.6080   22.5580 C   0  0  2  0  0  0  0  0  0  0  0  0
    6.0710   -6.1760   22.0730 C   0  0  0  0  0  0  0  0  0  0  0  0
    6.8960   -3.5800   22.3000 C   0  0  1  0  0  0  0  0  0  0  0  0
    6.5640   -2.7300   21.1660 N   0  0  0  0  0  0  0  0  0  0  0  0
    7.1330   -2.8440   23.4760 C   0  0  0  0  0  0  0  0  0  0  0  0
    6.2800   -3.2960   19.9280 C   0  0  0  0  0  0  0  0  0  0  0  0
    8.4410   -2.1880   23.4610 N   0  0  0  0  0  0  0  0  0  0  0  0
    7.1960   -1.3660   21.3880 C   0  0  1  0  0  0  0  0  0  0  0  0
    7.2400   -2.9660   18.8040 C   0  0  0  0  0  0  0  0  0  0  0  0
    5.3400   -4.0790   19.7180 O   0  0  0  0  0  0  0  0  0  0  0  0
    6.3470   -0.4570   22.3400 C   0  0  0  0  0  0  0  0  0  0  0  0
    9.4500   -3.2200   23.8320 C   0  0  1  0  0  0  0  0  0  0  0  0
    8.6070   -1.6500   22.0930 C   0  0  0  0  0  0  0  0  0  0  0  0
    5.2260    0.4220   21.7110 C   0  0  1  0  0  0  0  0  0  0  0  0
   10.8520   -2.6660   24.0650 C   0  0  0  0  0  0  0  0  0  0  0  0
    9.0760   -4.0970   25.0510 C   0  0  0  0  0  0  0  0  0  0  0  0
    5.3470    1.7000   22.5450 C   0  0  0  0  0  0  0  0  0  0  0  0
    9.7400   -5.3380   25.3070 C   0  0  0  0  0  0  0  0  0  0  0  0
    7.9030   -3.7700   26.2180 S   0  0  0  0  0  0  0  0  0  0  0  0
   11.1980   -1.1850   23.8210 C   0  0  0  0  0  0  0  0  0  0  0  0
    5.5250    0.5520   20.4170 C   0  0  0  0  0  0  0  0  0  0  0  0
    4.1050    2.4900   22.5500 N   0  0  0  0  0  0  0  0  0  0  0  0
    9.3410   -6.0060   26.3740 C   0  0  0  0  0  0  0  0  0  0  0  0
    8.2620   -5.2380   27.0360 C   0  0  0  0  0  0  0  0  0  0  0  0
   10.3850   -0.2510   24.4720 C   0  0  0  0  0  0  0  0  0  0  0  0
   12.2190   -0.8050   23.0490 C   0  0  0  0  0  0  0  0  0  0  0  0
    6.6330   -0.0420   19.9190 C   0  0  0  0  0  0  0  0  0  0  0  0
    4.6990    1.3330   19.4380 C   0  0  0  0  0  0  0  0  0  0  0  0
    2.9540    2.1300   23.3880 C   0  0  0  0  0  0  0  0  0  0  0  0
    7.3970   -5.6560   28.4490 Cl  0  0  0  0  0  0  0  0  0  0  0  0
   13.0710   -1.8100   22.3430 C   0  0  0  0  0  0  0  0  0  0  0  0
   10.6220    1.1330   24.3340 C   0  0  0  0  0  0  0  0  0  0  0  0
   12.5120    0.5200   22.8820 C   0  0  0  0  0  0  0  0  0  0  0  0
    6.9800    0.0530   18.6200 C   0  0  0  0  0  0  0  0  0  0  0  0
    5.1980    1.3660   18.0220 C   0  0  0  0  0  0  0  0  0  0  0  0
    2.9920    1.4460   24.4050 O   0  0  0  0  0  0  0  0  0  0  0  0
   11.6750    1.5890   23.5560 C   0  0  0  0  0  0  0  0  0  0  0  0
    6.3030    0.7340   17.6540 N   0  0  0  0  0  0  0  0  0  0  0  0
  1  2  1  0
  2  3  1  0
  3  4  1  0
  4  5  1  0
  6  5  1  6
  6  7  1  0
  6  8  1  0
  7  8  1  6
  7  9  1  0
  9 10  1  0
  9 11  1  1
 10 12  1  0
 11 13  1  0
 10 14  1  0
 12 15  1  0
 12 16  2  0
 14 17  1  1
 13 18  1  0
 13 19  1  0
 14 19  1  0
 20 17  1  1
 18 21  1  1
 18 22  1  0
 20 23  1  0
 22 24  2  0
 22 25  1  0
 21 26  1  0
 20 27  1  0
 23 28  1  0
 24 29  1  0
 25 30  1  0
 29 30  2  0
 26 31  2  0
 26 32  1  0
 27 33  2  0
 27 34  1  0
 28 35  1  0
 30 36  1  0
 32 37  1  0
 31 38  1  0
 32 39  2  0
 33 40  1  0
 34 41  2  0
 35 42  2  0
 38 43  2  0
 39 43  1  0
 40 44  2  0
 41 44  1  0
M  END
