x0771_0-x1334_0
     RDKit          3D

 17 18  0  0  0  0  0  0  0  0999 V2000
    6.4310   -4.1930   20.3870 C   0  0  0  0  0  0  0  0  0  0  0  0
    7.4540   -3.3060   19.6570 C   0  0  0  0  0  0  0  0  0  0  0  0
    5.3430   -4.4090   19.8720 O   0  0  0  0  0  0  0  0  0  0  0  0
    6.7220   -4.8010   21.6110 N   0  0  0  0  0  0  0  0  0  0  0  0
    6.1030   -6.0390   21.8820 C   0  0  0  0  0  0  0  0  0  0  0  0
    7.1750   -3.9700   22.7220 C   0  0  2  0  0  0  0  0  0  0  0  0
    8.6320   -3.5020   22.5490 C   0  0  0  0  0  0  0  0  0  0  0  0
    5.1240   -5.9670   22.8810 C   0  0  0  0  0  0  0  0  0  0  0  0
    6.8570   -4.5400   23.9590 C   0  0  0  0  0  0  0  0  0  0  0  0
    9.3500   -3.2010   23.7210 C   0  0  0  0  0  0  0  0  0  0  0  0
    5.4780   -5.0450   23.9930 N   0  0  0  0  0  0  0  0  0  0  0  0
    9.1160   -4.1170   24.8840 C   0  0  0  0  0  0  0  0  0  0  0  0
    9.6760   -5.3990   25.1350 C   0  0  0  0  0  0  0  0  0  0  0  0
    8.0100   -3.6750   26.2020 S   0  0  0  0  0  0  0  0  0  0  0  0
    9.2860   -6.0700   26.3070 C   0  0  0  0  0  0  0  0  0  0  0  0
    8.3820   -5.2850   26.9940 C   0  0  0  0  0  0  0  0  0  0  0  0
    7.6020   -5.6710   28.4620 Cl  0  0  0  0  0  0  0  0  0  0  0  0
  1  2  1  0
  1  3  2  0
  1  4  1  0
  4  5  1  0
  4  6  1  0
  6  7  1  1
  5  8  1  0
  6  9  1  0
  7 10  1  0
  8 11  1  0
  9 11  1  0
 10 12  1  0
 12 13  2  0
 12 14  1  0
 13 15  1  0
 14 16  1  0
 15 16  2  0
 16 17  1  0
M  END
