x0770_1-x1374_1-x1418_1-x0692_1-x0397_0-x0434_2-x1334_1-x0426_1-x1385_1-x1386_1-x1334_0-x0831_0
     RDKit          3D

 44 49  0  0  0  0  0  0  0  0999 V2000
    2.1830   -6.6970   24.3990 O   0  0  0  0  0  0  0  0  0  0  0  0
    3.1540   -7.3700   23.6320 C   0  0  0  0  0  0  0  0  0  0  0  0
    4.2040   -7.8550   24.4620 O   0  0  0  0  0  0  0  0  0  0  0  0
    5.4700   -7.2790   24.1050 C   0  0  0  0  0  0  0  0  0  0  0  0
    5.3450   -5.9740   24.1910 C   0  0  0  0  0  0  0  0  0  0  0  0
    6.0020   -5.3050   23.0100 C   0  0  2  0  0  0  0  0  0  0  0  0
    5.3410   -4.5230   22.2360 C   0  0  2  0  0  0  0  0  0  0  0  0
    6.0760   -5.9560   21.8900 C   0  0  0  0  0  0  0  0  0  0  0  0
    6.0120   -3.1470   22.3660 C   0  0  2  0  0  0  0  0  0  0  0  0
    6.2600   -2.4830   21.0820 N   0  0  0  0  0  0  0  0  0  0  0  0
    7.2380   -3.3620   23.2590 C   0  0  0  0  0  0  0  0  0  0  0  0
    6.1840   -3.2650   19.9280 C   0  0  0  0  0  0  0  0  0  0  0  0
    8.2800   -2.3310   23.3580 N   0  0  0  0  0  0  0  0  0  0  0  0
    7.2490   -1.3890   21.1840 C   0  0  1  0  0  0  0  0  0  0  0  0
    7.1890   -2.9740   18.8260 C   0  0  0  0  0  0  0  0  0  0  0  0
    5.3700   -4.1870   19.7700 O   0  0  0  0  0  0  0  0  0  0  0  0
    6.6590    0.0280   21.4750 C   0  0  1  0  0  0  0  0  0  0  0  0
    9.4410   -3.1190   23.7590 C   0  0  1  0  0  0  0  0  0  0  0  0
    8.5280   -1.7300   22.0160 C   0  0  0  0  0  0  0  0  0  0  0  0
    5.7840    0.2130   22.7300 C   0  0  0  0  0  0  0  0  0  0  0  0
   10.8480   -2.5190   23.9240 C   0  0  0  0  0  0  0  0  0  0  0  0
    7.8430    1.0410   21.5990 C   0  0  0  0  0  0  0  0  0  0  0  0
    6.0730    0.6130   20.2610 C   0  0  0  0  0  0  0  0  0  0  0  0
    9.2090   -3.9870   24.9590 C   0  0  0  0  0  0  0  0  0  0  0  0
    4.3620    0.8300   22.5130 C   0  0  1  0  0  0  0  0  0  0  0  0
    5.0110    1.4980   20.2040 C   0  0  0  0  0  0  0  0  0  0  0  0
    6.6660    0.2280   19.0500 C   0  0  0  0  0  0  0  0  0  0  0  0
    9.9490   -5.2100   25.3030 C   0  0  0  0  0  0  0  0  0  0  0  0
    7.9880   -3.6610   26.1470 S   0  0  0  0  0  0  0  0  0  0  0  0
   11.0560   -1.2040   23.8370 C   0  0  0  0  0  0  0  0  0  0  0  0
    3.8590    1.4340   23.7330 N   0  0  0  0  0  0  0  0  0  0  0  0
    4.3590    1.9290   21.4580 C   0  0  0  0  0  0  0  0  0  0  0  0
    4.6290    1.9490   18.8050 C   0  0  0  0  0  0  0  0  0  0  0  0
    6.3980    0.5710   17.7670 N   0  0  0  0  0  0  0  0  0  0  0  0
    9.4500   -5.7940   26.5500 C   0  0  0  0  0  0  0  0  0  0  0  0
    8.3290   -5.0210   27.1350 C   0  0  0  0  0  0  0  0  0  0  0  0
   10.2090   -0.0790   24.4880 C   0  0  0  0  0  0  0  0  0  0  0  0
   12.1450   -0.8480   23.0960 C   0  0  0  0  0  0  0  0  0  0  0  0
    7.4340   -5.3220   28.5540 Cl  0  0  0  0  0  0  0  0  0  0  0  0
   13.0010   -1.8750   22.4210 C   0  0  0  0  0  0  0  0  0  0  0  0
    5.3450    1.4700   17.6210 C   0  0  0  0  0  0  0  0  0  0  0  0
   10.5850    1.2630   24.3020 C   0  0  0  0  0  0  0  0  0  0  0  0
   12.5420    0.4370   22.9040 C   0  0  0  0  0  0  0  0  0  0  0  0
   11.8260    1.6040   23.4700 C   0  0  0  0  0  0  0  0  0  0  0  0
  1  2  1  0
  2  3  1  0
  3  4  1  0
  4  5  1  0
  6  5  1  1
  6  7  1  0
  6  8  1  0
  7  8  1  6
  7  9  1  0
  9 10  1  0
  9 11  1  6
 10 12  1  0
 11 13  1  0
 10 14  1  0
 12 15  1  0
 12 16  2  0
 14 17  1  0
 13 18  1  0
 13 19  1  0
 14 19  1  1
 17 20  1  0
 18 21  1  1
 17 22  1  1
 17 23  1  0
 18 24  1  0
 20 25  1  0
 23 26  2  0
 23 27  1  0
 24 28  2  0
 24 29  1  0
 21 30  1  0
 25 31  1  1
 25 32  1  0
 26 32  1  0
 26 33  1  0
 27 34  2  0
 28 35  1  0
 29 36  1  0
 35 36  2  0
 30 37  2  0
 30 38  1  0
 36 39  1  0
 38 40  1  0
 33 41  2  0
 34 41  1  0
 37 42  1  0
 38 43  2  0
 42 44  2  0
 43 44  1  0
M  END
