x0770_1-x1334_1-x0831_1-x1374_1-x0426_1-x1386_1-x1385_1-x1334_0-x0397_0-x1418_1-x1412_1-x0692_1-x0831_0-x0434_2
     RDKit          3D

 44 49  0  0  0  0  0  0  0  0999 V2000
    1.9260   -7.1410   23.8860 O   0  0  0  0  0  0  0  0  0  0  0  0
    2.3450   -8.0510   24.8850 C   0  0  0  0  0  0  0  0  0  0  0  0
    3.7510   -8.0960   24.9730 O   0  0  0  0  0  0  0  0  0  0  0  0
    4.3060   -7.3700   23.8970 C   0  0  0  0  0  0  0  0  0  0  0  0
    4.6630   -6.1320   24.2880 C   0  0  0  0  0  0  0  0  0  0  0  0
    5.7020   -5.6150   23.3530 C   0  0  2  0  0  0  0  0  0  0  0  0
    5.4760   -4.7150   22.4230 C   0  0  2  0  0  0  0  0  0  0  0  0
    5.9870   -6.2630   22.1070 C   0  0  0  0  0  0  0  0  0  0  0  0
    6.3090   -3.4920   22.3760 C   0  0  2  0  0  0  0  0  0  0  0  0
    6.1990   -2.5640   21.2490 N   0  0  0  0  0  0  0  0  0  0  0  0
    7.5790   -3.7520   22.8380 C   0  0  0  0  0  0  0  0  0  0  0  0
    6.2170   -3.2460   19.9800 C   0  0  0  0  0  0  0  0  0  0  0  0
    8.2300   -2.5030   23.1650 N   0  0  0  0  0  0  0  0  0  0  0  0
    6.9550   -1.4740   21.6590 C   0  0  2  0  0  0  0  0  0  0  0  0
    7.2770   -2.9210   18.9140 C   0  0  0  0  0  0  0  0  0  0  0  0
    5.3790   -4.1330   19.7590 O   0  0  0  0  0  0  0  0  0  0  0  0
    6.4980   -0.0040   21.5220 C   0  0  1  0  0  0  0  0  0  0  0  0
    9.3800   -2.6480   24.0570 C   0  0  2  0  0  0  0  0  0  0  0  0
    8.2920   -1.7130   21.9270 C   0  0  0  0  0  0  0  0  0  0  0  0
    5.3550    0.2140   22.5650 C   0  0  0  0  0  0  0  0  0  0  0  0
   10.5890   -2.4980   23.3610 C   0  0  0  0  0  0  0  0  0  0  0  0
    7.6450    0.9800   21.8880 C   0  0  0  0  0  0  0  0  0  0  0  0
    6.0890    0.4740   20.1180 C   0  0  0  0  0  0  0  0  0  0  0  0
    9.1540   -3.7910   25.0890 C   0  0  0  0  0  0  0  0  0  0  0  0
    4.7140    1.5990   22.4950 C   0  0  2  0  0  0  0  0  0  0  0  0
    4.8650    1.3730   19.9890 C   0  0  0  0  0  0  0  0  0  0  0  0
    6.8160    0.1150   19.0050 C   0  0  0  0  0  0  0  0  0  0  0  0
    9.8670   -4.9400   25.2280 C   0  0  0  0  0  0  0  0  0  0  0  0
    7.9010   -3.8230   26.3110 S   0  0  0  0  0  0  0  0  0  0  0  0
   11.1310   -1.0720   23.3960 C   0  0  0  0  0  0  0  0  0  0  0  0
    3.6630    1.6790   23.5300 N   0  0  0  0  0  0  0  0  0  0  0  0
    4.0330    1.7830   21.1530 C   0  0  0  0  0  0  0  0  0  0  0  0
    4.5370    1.8230   18.7260 C   0  0  0  0  0  0  0  0  0  0  0  0
    6.4120    0.6230   17.7100 N   0  0  0  0  0  0  0  0  0  0  0  0
    9.3940   -5.8320   26.3330 C   0  0  0  0  0  0  0  0  0  0  0  0
    8.3220   -5.3340   27.0110 C   0  0  0  0  0  0  0  0  0  0  0  0
   10.3730   -0.0600   23.9480 C   0  0  0  0  0  0  0  0  0  0  0  0
   12.3420   -0.8280   22.8840 C   0  0  0  0  0  0  0  0  0  0  0  0
    7.4360   -5.9580   28.3330 Cl  0  0  0  0  0  0  0  0  0  0  0  0
   13.1440   -1.9180   22.2710 C   0  0  0  0  0  0  0  0  0  0  0  0
    5.2510    1.4980   17.6130 C   0  0  0  0  0  0  0  0  0  0  0  0
   10.9030    1.2290   23.9740 C   0  0  0  0  0  0  0  0  0  0  0  0
   12.8630    0.4500   22.9150 C   0  0  0  0  0  0  0  0  0  0  0  0
   12.1570    1.5050   23.4580 C   0  0  0  0  0  0  0  0  0  0  0  0
  1  2  1  0
  2  3  1  0
  3  4  1  0
  4  5  1  0
  6  5  1  6
  6  7  1  0
  6  8  1  0
  7  8  1  6
  7  9  1  0
  9 10  1  0
  9 11  1  6
 10 12  1  0
 11 13  1  0
 10 14  1  0
 12 15  1  0
 12 16  2  0
 14 17  1  0
 13 18  1  0
 13 19  1  0
 14 19  1  6
 17 20  1  0
 18 21  1  6
 17 22  1  1
 17 23  1  0
 18 24  1  0
 20 25  1  0
 23 26  2  0
 23 27  1  0
 24 28  2  0
 24 29  1  0
 21 30  1  0
 25 31  1  1
 25 32  1  0
 26 32  1  0
 26 33  1  0
 27 34  2  0
 28 35  1  0
 29 36  1  0
 35 36  2  0
 30 37  2  0
 30 38  1  0
 36 39  1  0
 38 40  1  0
 33 41  2  0
 34 41  1  0
 37 42  1  0
 38 43  2  0
 42 44  2  0
 43 44  1  0
M  END
