x0770_1-x0434_2-x1374_1-x1386_1-x0426_1-x0397_0-x0831_0-x1334_0-x1385_1-x1418_1-x1375_1-x1412_1-x1334_1-x0692_1
     RDKit          3D

 44 49  0  0  0  0  0  0  0  0999 V2000
    2.2630   -7.7330   23.2370 O   0  0  0  0  0  0  0  0  0  0  0  0
    2.4710   -7.9570   24.6170 C   0  0  0  0  0  0  0  0  0  0  0  0
    3.8580   -7.9340   24.8740 O   0  0  0  0  0  0  0  0  0  0  0  0
    4.5500   -7.2230   23.8670 C   0  0  0  0  0  0  0  0  0  0  0  0
    4.9770   -6.0290   24.3240 C   0  0  0  0  0  0  0  0  0  0  0  0
    6.1080   -5.5900   23.4480 C   0  0  2  0  0  0  0  0  0  0  0  0
    5.8900   -4.5820   22.3940 C   0  0  2  0  0  0  0  0  0  0  0  0
    6.2580   -6.1530   22.1160 C   0  0  0  0  0  0  0  0  0  0  0  0
    6.9130   -3.4470   22.2170 C   0  0  1  0  0  0  0  0  0  0  0  0
    6.4810   -2.5360   21.1560 N   0  0  0  0  0  0  0  0  0  0  0  0
    7.2850   -2.8250   23.3930 C   0  0  0  0  0  0  0  0  0  0  0  0
    6.2960   -3.2600   19.9530 C   0  0  0  0  0  0  0  0  0  0  0  0
    8.3280   -1.8170   23.2230 N   0  0  0  0  0  0  0  0  0  0  0  0
    7.3090   -1.2950   21.1190 C   0  0  1  0  0  0  0  0  0  0  0  0
    7.2670   -3.0030   18.8170 C   0  0  0  0  0  0  0  0  0  0  0  0
    5.4150   -4.1260   19.7700 O   0  0  0  0  0  0  0  0  0  0  0  0
    6.6250    0.0760   21.4360 C   0  0  1  0  0  0  0  0  0  0  0  0
    9.5280   -1.9260   24.0520 C   0  0  1  0  0  0  0  0  0  0  0  0
    8.4970   -1.4470   21.8300 C   0  0  0  0  0  0  0  0  0  0  0  0
    5.5030   -0.0080   22.5350 C   0  0  0  0  0  0  0  0  0  0  0  0
   10.1390   -3.2800   24.0440 C   0  0  0  0  0  0  0  0  0  0  0  0
    7.6600    1.2030   21.8290 C   0  0  0  0  0  0  0  0  0  0  0  0
    6.0170    0.6230   20.1630 C   0  0  0  0  0  0  0  0  0  0  0  0
   10.5280   -0.8860   23.7760 C   0  0  0  0  0  0  0  0  0  0  0  0
    4.6570    1.3230   22.5870 C   0  0  2  0  0  0  0  0  0  0  0  0
    4.8220    1.3840   20.0490 C   0  0  0  0  0  0  0  0  0  0  0  0
    6.7690    0.3310   18.8690 C   0  0  0  0  0  0  0  0  0  0  0  0
   10.1890    0.3200   24.2680 C   0  0  0  0  0  0  0  0  0  0  0  0
   11.7800   -0.9870   23.0680 C   0  0  0  0  0  0  0  0  0  0  0  0
    9.5720   -4.1800   25.1170 C   0  0  0  0  0  0  0  0  0  0  0  0
    3.6860    1.3950   23.6530 N   0  0  0  0  0  0  0  0  0  0  0  0
    4.0020    1.7110   21.2620 C   0  0  0  0  0  0  0  0  0  0  0  0
   12.3110   -2.2390   22.4460 C   0  0  0  0  0  0  0  0  0  0  0  0
    4.4520    1.8130   18.7920 C   0  0  0  0  0  0  0  0  0  0  0  0
    6.4320    0.7250   17.6610 N   0  0  0  0  0  0  0  0  0  0  0  0
   10.9760    1.4440   24.1210 C   0  0  0  0  0  0  0  0  0  0  0  0
   12.5870    0.1330   22.9180 C   0  0  0  0  0  0  0  0  0  0  0  0
    9.9240   -5.4550   25.3890 C   0  0  0  0  0  0  0  0  0  0  0  0
    8.3180   -3.7330   26.2450 S   0  0  0  0  0  0  0  0  0  0  0  0
    5.2360    1.4940   17.6670 C   0  0  0  0  0  0  0  0  0  0  0  0
   12.1910    1.3490   23.4390 C   0  0  0  0  0  0  0  0  0  0  0  0
    9.1890   -6.0900   26.5260 C   0  0  0  0  0  0  0  0  0  0  0  0
    8.2820   -5.2340   27.0740 C   0  0  0  0  0  0  0  0  0  0  0  0
    7.2250   -5.5250   28.3870 Cl  0  0  0  0  0  0  0  0  0  0  0  0
  1  2  1  0
  2  3  1  0
  3  4  1  0
  4  5  1  0
  6  5  1  6
  6  7  1  0
  6  8  1  0
  7  8  1  6
  7  9  1  0
  9 10  1  0
  9 11  1  1
 10 12  1  0
 11 13  1  0
 10 14  1  0
 12 15  1  0
 12 16  2  0
 14 17  1  0
 13 18  1  0
 13 19  1  0
 14 19  1  1
 17 20  1  0
 18 21  1  6
 17 22  1  1
 17 23  1  0
 18 24  1  0
 20 25  1  0
 23 26  2  0
 23 27  1  0
 24 28  2  0
 24 29  1  0
 21 30  1  0
 25 31  1  1
 25 32  1  0
 26 32  1  0
 29 33  1  0
 26 34  1  0
 27 35  2  0
 28 36  1  0
 29 37  2  0
 30 38  2  0
 30 39  1  0
 34 40  2  0
 35 40  1  0
 36 41  2  0
 37 41  1  0
 38 42  1  0
 39 43  1  0
 42 43  2  0
 43 44  1  0
M  END
