x0770_1-x1334_0-x1418_1-x0426_1-x0831_0-x1334_1-x1374_1-x0692_1-x1412_1-x0397_0-x0434_2
     RDKit          3D

 44 49  0  0  0  0  0  0  0  0999 V2000
    2.2570   -7.7360   23.2020 O   0  0  0  0  0  0  0  0  0  0  0  0
    2.4390   -8.0510   24.5620 C   0  0  0  0  0  0  0  0  0  0  0  0
    3.8310   -8.0480   24.8080 O   0  0  0  0  0  0  0  0  0  0  0  0
    4.5340   -7.2680   23.8560 C   0  0  0  0  0  0  0  0  0  0  0  0
    4.9900   -6.0700   24.3470 C   0  0  0  0  0  0  0  0  0  0  0  0
    6.0040   -5.5010   23.4090 C   0  0  2  0  0  0  0  0  0  0  0  0
    5.5450   -4.5800   22.3460 C   0  0  2  0  0  0  0  0  0  0  0  0
    6.3480   -6.0510   22.2450 C   0  0  0  0  0  0  0  0  0  0  0  0
    6.0080   -3.1810   22.5580 C   0  0  2  0  0  0  0  0  0  0  0  0
    6.2510   -2.4900   21.2760 N   0  0  0  0  0  0  0  0  0  0  0  0
    7.0230   -3.0620   23.5540 C   0  0  0  0  0  0  0  0  0  0  0  0
    6.2550   -3.2050   20.0190 C   0  0  0  0  0  0  0  0  0  0  0  0
    8.3540   -2.4530   23.3270 N   0  0  0  0  0  0  0  0  0  0  0  0
    7.0110   -1.2980   21.7250 C   0  0  2  0  0  0  0  0  0  0  0  0
    7.2730   -2.9370   18.9250 C   0  0  0  0  0  0  0  0  0  0  0  0
    5.4290   -4.1120   19.7870 O   0  0  0  0  0  0  0  0  0  0  0  0
    6.7140    0.2070   21.5280 C   0  0  1  0  0  0  0  0  0  0  0  0
    9.4720   -3.3330   23.7100 C   0  0  1  0  0  0  0  0  0  0  0  0
    8.4660   -1.7020   22.0610 C   0  0  0  0  0  0  0  0  0  0  0  0
    5.9530    0.8280   22.7620 C   0  0  0  0  0  0  0  0  0  0  0  0
   10.8790   -2.7140   23.9050 C   0  0  0  0  0  0  0  0  0  0  0  0
    8.1150    0.9170   21.5290 C   0  0  0  0  0  0  0  0  0  0  0  0
    6.1600    0.6090   20.1750 C   0  0  0  0  0  0  0  0  0  0  0  0
    9.1350   -4.2070   24.9440 C   0  0  0  0  0  0  0  0  0  0  0  0
    4.4640    1.1280   22.4810 C   0  0  1  0  0  0  0  0  0  0  0  0
    5.0250    1.4510   19.9960 C   0  0  0  0  0  0  0  0  0  0  0  0
    6.7940    0.1470   19.0760 C   0  0  0  0  0  0  0  0  0  0  0  0
    9.7490   -5.4030   25.2130 C   0  0  0  0  0  0  0  0  0  0  0  0
    7.9540   -3.8140   26.1560 S   0  0  0  0  0  0  0  0  0  0  0  0
   11.1250   -1.2240   23.8020 C   0  0  0  0  0  0  0  0  0  0  0  0
    3.8570    1.8710   23.5690 N   0  0  0  0  0  0  0  0  0  0  0  0
    4.3100    1.9690   21.2060 C   0  0  0  0  0  0  0  0  0  0  0  0
    4.4100    1.9320   18.6400 C   0  0  0  0  0  0  0  0  0  0  0  0
    6.4200    0.4500   17.8800 N   0  0  0  0  0  0  0  0  0  0  0  0
    9.2570   -5.9720   26.3740 C   0  0  0  0  0  0  0  0  0  0  0  0
    8.2650   -5.2480   27.0260 C   0  0  0  0  0  0  0  0  0  0  0  0
   10.3290   -0.3050   24.4550 C   0  0  0  0  0  0  0  0  0  0  0  0
   12.2020   -0.7790   23.0320 C   0  0  0  0  0  0  0  0  0  0  0  0
    7.4170   -5.6300   28.4650 Cl  0  0  0  0  0  0  0  0  0  0  0  0
   13.0980   -1.7070   22.2830 C   0  0  0  0  0  0  0  0  0  0  0  0
    5.3650    1.2440   17.7480 C   0  0  0  0  0  0  0  0  0  0  0  0
   10.6180    1.0510   24.3360 C   0  0  0  0  0  0  0  0  0  0  0  0
   12.4980    0.5800   22.9250 C   0  0  0  0  0  0  0  0  0  0  0  0
   11.6990    1.5040   23.5810 C   0  0  0  0  0  0  0  0  0  0  0  0
  1  2  1  0
  2  3  1  0
  3  4  1  0
  4  5  1  0
  6  5  1  6
  6  7  1  0
  6  8  1  0
  7  8  1  6
  7  9  1  0
  9 10  1  0
  9 11  1  1
 10 12  1  0
 11 13  1  0
 10 14  1  0
 12 15  1  0
 12 16  2  0
 14 17  1  0
 13 18  1  0
 13 19  1  0
 14 19  1  6
 17 20  1  0
 18 21  1  1
 17 22  1  6
 17 23  1  0
 18 24  1  0
 20 25  1  0
 23 26  2  0
 23 27  1  0
 24 28  2  0
 24 29  1  0
 21 30  1  0
 25 31  1  1
 25 32  1  0
 26 32  1  0
 26 33  1  0
 27 34  2  0
 28 35  1  0
 29 36  1  0
 35 36  2  0
 30 37  2  0
 30 38  1  0
 36 39  1  0
 38 40  1  0
 33 41  2  0
 34 41  1  0
 37 42  1  0
 38 43  2  0
 42 44  2  0
 43 44  1  0
M  END
