x0770_1-x0434_2-x1334_0-x1334_1-x0397_0-x0692_1-x0426_1-x1418_1-x0831_0-x1385_1-x1375_1
     RDKit          3D

 43 48  0  0  0  0  0  0  0  0999 V2000
    2.2240   -7.0770   24.5570 O   0  0  0  0  0  0  0  0  0  0  0  0
    3.4090   -7.3410   25.2840 C   0  0  0  0  0  0  0  0  0  0  0  0
    4.4970   -7.5110   24.4020 O   0  0  0  0  0  0  0  0  0  0  0  0
    4.4430   -6.4860   23.3950 C   0  0  0  0  0  0  0  0  0  0  0  0
    5.6980   -5.6520   23.2460 C   0  0  2  0  0  0  0  0  0  0  0  0
    5.7700   -4.8260   22.2090 C   0  0  2  0  0  0  0  0  0  0  0  0
    6.7780   -6.1130   22.4770 C   0  0  0  0  0  0  0  0  0  0  0  0
    6.0490   -3.3360   22.5070 C   0  0  2  0  0  0  0  0  0  0  0  0
    6.2630   -2.6020   21.2270 N   0  0  0  0  0  0  0  0  0  0  0  0
    6.9410   -3.0700   23.5700 C   0  0  0  0  0  0  0  0  0  0  0  0
    6.2160   -3.3350   20.0190 C   0  0  0  0  0  0  0  0  0  0  0  0
    8.2800   -2.4260   23.3580 N   0  0  0  0  0  0  0  0  0  0  0  0
    7.1340   -1.4120   21.3220 C   0  0  1  0  0  0  0  0  0  0  0  0
    7.2560   -3.0230   18.9460 C   0  0  0  0  0  0  0  0  0  0  0  0
    5.3850   -4.2240   19.7920 O   0  0  0  0  0  0  0  0  0  0  0  0
    6.6070   -0.0350   21.6330 C   0  0  1  0  0  0  0  0  0  0  0  0
    9.3920   -3.3240   23.7240 C   0  0  1  0  0  0  0  0  0  0  0  0
    8.4610   -1.7700   22.0390 C   0  0  0  0  0  0  0  0  0  0  0  0
    5.4030   -0.0070   22.6130 C   0  0  0  0  0  0  0  0  0  0  0  0
   10.8090   -2.7170   23.8770 C   0  0  0  0  0  0  0  0  0  0  0  0
    7.7380    0.8490   22.2260 C   0  0  0  0  0  0  0  0  0  0  0  0
    6.1050    0.4830   20.2880 C   0  0  0  0  0  0  0  0  0  0  0  0
    9.0810   -4.1770   24.9680 C   0  0  0  0  0  0  0  0  0  0  0  0
    4.7180    1.4050   22.6390 C   0  0  2  0  0  0  0  0  0  0  0  0
    4.8640    1.3040   20.1410 C   0  0  0  0  0  0  0  0  0  0  0  0
    6.8550    0.1910   19.0070 C   0  0  0  0  0  0  0  0  0  0  0  0
    9.7110   -5.3560   25.2610 C   0  0  0  0  0  0  0  0  0  0  0  0
    7.9050   -3.8260   26.2050 S   0  0  0  0  0  0  0  0  0  0  0  0
   11.0890   -1.2290   23.7910 C   0  0  0  0  0  0  0  0  0  0  0  0
    3.8270    1.5060   23.7940 N   0  0  0  0  0  0  0  0  0  0  0  0
    4.0240    1.6460   21.3170 C   0  0  0  0  0  0  0  0  0  0  0  0
    4.5140    1.7680   18.7470 C   0  0  0  0  0  0  0  0  0  0  0  0
    6.4820    0.6330   17.8050 N   0  0  0  0  0  0  0  0  0  0  0  0
    9.2910   -5.9710   26.4030 C   0  0  0  0  0  0  0  0  0  0  0  0
    8.2610   -5.2540   27.0770 C   0  0  0  0  0  0  0  0  0  0  0  0
   10.2890   -0.2870   24.4440 C   0  0  0  0  0  0  0  0  0  0  0  0
   12.1960   -0.8010   23.0420 C   0  0  0  0  0  0  0  0  0  0  0  0
    7.4320   -5.6480   28.5200 Cl  0  0  0  0  0  0  0  0  0  0  0  0
   13.0700   -1.7760   22.3130 C   0  0  0  0  0  0  0  0  0  0  0  0
    5.3750    1.3870   17.6940 C   0  0  0  0  0  0  0  0  0  0  0  0
   10.6130    1.0770   24.3350 C   0  0  0  0  0  0  0  0  0  0  0  0
   12.5350    0.5320   22.9360 C   0  0  0  0  0  0  0  0  0  0  0  0
   11.7470    1.4630   23.5770 C   0  0  0  0  0  0  0  0  0  0  0  0
  1  2  1  0
  2  3  1  0
  3  4  1  0
  5  4  1  6
  5  6  1  0
  5  7  1  0
  6  7  1  6
  6  8  1  0
  8  9  1  0
  8 10  1  1
  9 11  1  0
 10 12  1  0
  9 13  1  0
 11 14  1  0
 11 15  2  0
 13 16  1  0
 12 17  1  0
 12 18  1  0
 13 18  1  1
 16 19  1  0
 17 20  1  1
 16 21  1  1
 16 22  1  0
 17 23  1  0
 19 24  1  0
 22 25  2  0
 22 26  1  0
 23 27  2  0
 23 28  1  0
 20 29  1  0
 24 30  1  1
 24 31  1  0
 25 31  1  0
 25 32  1  0
 26 33  2  0
 27 34  1  0
 28 35  1  0
 34 35  2  0
 29 36  2  0
 29 37  1  0
 35 38  1  0
 37 39  1  0
 32 40  2  0
 33 40  1  0
 36 41  1  0
 37 42  2  0
 41 43  2  0
 42 43  1  0
M  END
