x0770_0-x1385_1
     RDKit          3D

 17 18  0  0  0  0  0  0  0  0999 V2000
    6.2890   -3.2720   19.8810 C   0  0  0  0  0  0  0  0  0  0  0  0
    7.2650   -2.9780   18.7600 C   0  0  0  0  0  0  0  0  0  0  0  0
    5.3800   -4.0960   19.7240 O   0  0  0  0  0  0  0  0  0  0  0  0
    6.5020   -2.5840   21.0720 N   0  0  0  0  0  0  0  0  0  0  0  0
    6.1390   -3.1250   22.3960 C   0  0  0  0  0  0  0  0  0  0  0  0
    7.4580   -1.4600   21.1520 C   0  0  0  0  0  0  0  0  0  0  0  0
    7.4610   -3.6440   23.0130 C   0  0  0  0  0  0  0  0  0  0  0  0
    8.7110   -1.8220   21.9240 C   0  0  0  0  0  0  0  0  0  0  0  0
    8.2960   -2.4410   23.1790 N   0  0  0  0  0  0  0  0  0  0  0  0
    9.3220   -2.4310   24.2050 C   0  0  0  0  0  0  0  0  0  0  0  0
   10.5130   -1.5800   23.8280 C   0  0  0  0  0  0  0  0  0  0  0  0
   11.3240   -1.9270   22.8450 C   0  0  0  0  0  0  0  0  0  0  0  0
   10.7990   -0.3750   24.5040 C   0  0  0  0  0  0  0  0  0  0  0  0
   12.4800   -1.1020   22.4540 C   0  0  0  0  0  0  0  0  0  0  0  0
   11.9010    0.3910   24.1110 C   0  0  0  0  0  0  0  0  0  0  0  0
   13.3560   -1.8120   21.1180 Cl  0  0  0  0  0  0  0  0  0  0  0  0
   12.7360    0.0640   23.1220 C   0  0  0  0  0  0  0  0  0  0  0  0
  1  2  1  0
  1  3  2  0
  1  4  1  0
  4  5  1  0
  4  6  1  0
  5  7  1  0
  6  8  1  0
  7  9  1  0
  8  9  1  0
  9 10  1  0
 10 11  1  0
 11 12  2  0
 11 13  1  0
 12 14  1  0
 13 15  2  0
 14 16  1  0
 14 17  2  0
 15 17  1  0
M  END
