x0770_1-x0434_2-x0426_1-x0831_0-x1334_0-x1334_1-x1412_1
     RDKit          3D

 36 40  0  0  0  0  0  0  0  0999 V2000
    6.1520   -3.2330   19.9630 C   0  0  0  0  0  0  0  0  0  0  0  0
    7.2180   -2.9170   18.9020 C   0  0  0  0  0  0  0  0  0  0  0  0
    5.3180   -4.1150   19.7310 O   0  0  0  0  0  0  0  0  0  0  0  0
    6.0960   -2.5950   21.2480 N   0  0  0  0  0  0  0  0  0  0  0  0
    6.6900   -1.3750   21.8320 C   0  0  2  0  0  0  0  0  0  0  0  0
    6.2870   -3.5870   22.3030 C   0  0  0  0  0  0  0  0  0  0  0  0
    6.2540    0.1220   21.5880 C   0  0  1  0  0  0  0  0  0  0  0  0
    8.2040   -1.4950   21.7420 C   0  0  0  0  0  0  0  0  0  0  0  0
    7.7400   -3.5570   22.8710 C   0  0  0  0  0  0  0  0  0  0  0  0
    5.2080    0.4980   22.6660 C   0  0  0  0  0  0  0  0  0  0  0  0
    7.4820    1.0250   21.8910 C   0  0  0  0  0  0  0  0  0  0  0  0
    8.3990   -2.1940   22.9920 N   0  0  0  0  0  0  0  0  0  0  0  0
    5.8790    0.5590   20.1980 C   0  0  0  0  0  0  0  0  0  0  0  0
    4.4530    1.8060   22.3950 C   0  0  2  0  0  0  0  0  0  0  0  0
    9.8070   -2.3390   23.1510 C   0  0  2  0  0  0  0  0  0  0  0  0
    4.7480    1.3180   19.9540 C   0  0  0  0  0  0  0  0  0  0  0  0
    6.7090    0.2110   19.1290 C   0  0  0  0  0  0  0  0  0  0  0  0
    3.4630    1.9710   23.3510 N   0  0  0  0  0  0  0  0  0  0  0  0
    3.7890    1.7330   21.0240 C   0  0  0  0  0  0  0  0  0  0  0  0
   10.2160   -3.5860   23.8960 C   0  0  0  0  0  0  0  0  0  0  0  0
    4.4940    1.7230   18.6780 C   0  0  0  0  0  0  0  0  0  0  0  0
    6.4750    0.5920   17.8660 N   0  0  0  0  0  0  0  0  0  0  0  0
   10.6330   -1.0490   23.3180 C   0  0  0  0  0  0  0  0  0  0  0  0
    5.2970    1.4110   17.6220 C   0  0  0  0  0  0  0  0  0  0  0  0
   10.1030    0.0730   24.0370 C   0  0  0  0  0  0  0  0  0  0  0  0
   11.9260   -0.9210   22.7550 C   0  0  0  0  0  0  0  0  0  0  0  0
    9.5270   -4.2750   25.0360 C   0  0  0  0  0  0  0  0  0  0  0  0
   12.6290   -1.9830   21.9760 C   0  0  0  0  0  0  0  0  0  0  0  0
   10.7770    1.2850   24.2020 C   0  0  0  0  0  0  0  0  0  0  0  0
   12.6670    0.4050   22.9430 C   0  0  0  0  0  0  0  0  0  0  0  0
    9.8120   -5.5330   25.4940 C   0  0  0  0  0  0  0  0  0  0  0  0
    8.1550   -3.6390   26.0890 S   0  0  0  0  0  0  0  0  0  0  0  0
   12.0820    1.4320   23.6330 C   0  0  0  0  0  0  0  0  0  0  0  0
    9.0990   -6.0190   26.5530 C   0  0  0  0  0  0  0  0  0  0  0  0
    8.1440   -5.1540   27.0410 C   0  0  0  0  0  0  0  0  0  0  0  0
    7.0810   -5.4350   28.3530 Cl  0  0  0  0  0  0  0  0  0  0  0  0
  1  2  1  0
  1  3  2  0
  1  4  1  0
  4  5  1  0
  4  6  1  0
  5  7  1  0
  5  8  1  6
  6  9  1  0
  7 10  1  0
  7 11  1  1
  8 12  1  0
  9 12  1  0
  7 13  1  0
 10 14  1  0
 12 15  1  0
 13 16  2  0
 13 17  1  0
 14 18  1  1
 14 19  1  0
 16 19  1  0
 15 20  1  1
 16 21  1  0
 17 22  2  0
 15 23  1  0
 21 24  2  0
 22 24  1  0
 23 25  2  0
 23 26  1  0
 20 27  1  0
 26 28  1  0
 25 29  1  0
 26 30  2  0
 27 31  2  0
 27 32  1  0
 29 33  2  0
 30 33  1  0
 31 34  1  0
 32 35  1  0
 34 35  2  0
 35 36  1  0
M  END
