x0770_1-x0831_1-x0692_1-x1418_1-x1334_1-x1385_1-x0434_2-x1412_1-x0426_1-x1374_1-x0831_0-x0397_0-x1334_0
     RDKit          3D

 44 49  0  0  0  0  0  0  0  0999 V2000
    2.3110   -7.6680   23.4950 O   0  0  0  0  0  0  0  0  0  0  0  0
    2.7540   -7.6560   24.8380 C   0  0  0  0  0  0  0  0  0  0  0  0
    4.1610   -7.6500   24.8630 O   0  0  0  0  0  0  0  0  0  0  0  0
    4.6700   -6.9900   23.7000 C   0  0  0  0  0  0  0  0  0  0  0  0
    5.3240   -5.8640   23.9520 C   0  0  0  0  0  0  0  0  0  0  0  0
    6.2710   -5.8210   22.7830 C   0  0  2  0  0  0  0  0  0  0  0  0
    6.6740   -4.8490   22.0390 C   0  0  1  0  0  0  0  0  0  0  0  0
    5.5890   -5.9970   21.6900 C   0  0  0  0  0  0  0  0  0  0  0  0
    6.2980   -3.4490   22.4550 C   0  0  2  0  0  0  0  0  0  0  0  0
    6.0840   -2.6520   21.2190 N   0  0  0  0  0  0  0  0  0  0  0  0
    7.4290   -3.0860   23.4370 C   0  0  0  0  0  0  0  0  0  0  0  0
    6.0920   -3.3950   20.0360 C   0  0  0  0  0  0  0  0  0  0  0  0
    8.2570   -1.8900   23.1970 N   0  0  0  0  0  0  0  0  0  0  0  0
    6.8520   -1.4170   21.1620 C   0  0  1  0  0  0  0  0  0  0  0  0
    7.1280   -3.0280   18.9580 C   0  0  0  0  0  0  0  0  0  0  0  0
    5.3230   -4.3350   19.8290 O   0  0  0  0  0  0  0  0  0  0  0  0
    6.1730   -0.0740   21.4640 C   0  0  1  0  0  0  0  0  0  0  0  0
    9.6730   -2.1380   23.2630 C   0  0  2  0  0  0  0  0  0  0  0  0
    8.2350   -1.5240   21.7780 C   0  0  0  0  0  0  0  0  0  0  0  0
    5.1340    0.0340   22.5710 C   0  0  0  0  0  0  0  0  0  0  0  0
   10.0580   -3.4700   23.8230 C   0  0  0  0  0  0  0  0  0  0  0  0
    7.2840    0.9730   21.7930 C   0  0  0  0  0  0  0  0  0  0  0  0
    5.7310    0.5490   20.2220 C   0  0  0  0  0  0  0  0  0  0  0  0
   10.5310   -0.9210   23.4000 C   0  0  0  0  0  0  0  0  0  0  0  0
    4.4790    1.4400   22.5450 C   0  0  2  0  0  0  0  0  0  0  0  0
    4.5950    1.3250   20.0660 C   0  0  0  0  0  0  0  0  0  0  0  0
    6.5550    0.3240   19.1030 C   0  0  0  0  0  0  0  0  0  0  0  0
   10.0820    0.2930   24.1090 C   0  0  0  0  0  0  0  0  0  0  0  0
   11.9460   -0.8830   22.7510 C   0  0  0  0  0  0  0  0  0  0  0  0
    9.3820   -4.1380   25.0280 C   0  0  0  0  0  0  0  0  0  0  0  0
    3.5980    1.6780   23.6700 N   0  0  0  0  0  0  0  0  0  0  0  0
    3.6990    1.5620   21.2380 C   0  0  0  0  0  0  0  0  0  0  0  0
   12.5700   -2.0130   21.9900 C   0  0  0  0  0  0  0  0  0  0  0  0
    4.4070    1.8590   18.6580 C   0  0  0  0  0  0  0  0  0  0  0  0
    6.4630    0.7420   17.8210 N   0  0  0  0  0  0  0  0  0  0  0  0
   10.9990    1.4610   24.1370 C   0  0  0  0  0  0  0  0  0  0  0  0
   12.6600    0.2510   22.8730 C   0  0  0  0  0  0  0  0  0  0  0  0
    9.7950   -5.5390   25.4110 C   0  0  0  0  0  0  0  0  0  0  0  0
    8.0740   -3.5250   26.1750 S   0  0  0  0  0  0  0  0  0  0  0  0
    5.3560    1.5520   17.5760 C   0  0  0  0  0  0  0  0  0  0  0  0
   12.3460    1.4430   23.4910 C   0  0  0  0  0  0  0  0  0  0  0  0
    9.1020   -5.9840   26.5070 C   0  0  0  0  0  0  0  0  0  0  0  0
    8.1700   -5.1110   27.0570 C   0  0  0  0  0  0  0  0  0  0  0  0
    7.1830   -5.4320   28.4200 Cl  0  0  0  0  0  0  0  0  0  0  0  0
  1  2  1  0
  2  3  1  0
  3  4  1  0
  4  5  1  0
  6  5  1  1
  6  7  1  0
  6  8  1  0
  7  8  1  6
  7  9  1  0
  9 10  1  0
  9 11  1  1
 10 12  1  0
 11 13  1  0
 10 14  1  0
 12 15  1  0
 12 16  2  0
 14 17  1  0
 13 18  1  0
 13 19  1  0
 14 19  1  1
 17 20  1  0
 18 21  1  1
 17 22  1  1
 17 23  1  0
 18 24  1  0
 20 25  1  0
 23 26  2  0
 23 27  1  0
 24 28  2  0
 24 29  1  0
 21 30  1  0
 25 31  1  1
 25 32  1  0
 26 32  1  0
 29 33  1  0
 26 34  1  0
 27 35  2  0
 28 36  1  0
 29 37  2  0
 30 38  2  0
 30 39  1  0
 34 40  2  0
 35 40  1  0
 36 41  2  0
 37 41  1  0
 38 42  1  0
 39 43  1  0
 42 43  2  0
 43 44  1  0
M  END
